1H0A_I3P_A_1164


 33 33  0  0  0  0  0  0  0  0999 V2000
   22.4172   34.6996    5.4667 C   0  0  0  0  0  0  0  0  0  0  0  0
   23.2085   34.1597    4.2697 C   0  0  0  0  0  0  0  0  0  0  0  0
   23.0763   32.6488    4.1814 C   0  0  0  0  0  0  0  0  0  0  0  0
   21.6170   32.2724    4.1160 C   0  0  0  0  0  0  0  0  0  0  0  0
   20.7869   32.8490    5.2107 C   0  0  0  0  0  0  0  0  0  0  0  0
   20.9509   34.3828    5.4879 C   0  0  0  0  0  0  0  0  0  0  0  0
   22.8699   34.7513    2.9934 O   0  0  0  0  0  0  0  0  0  0  0  0
   23.8654   32.2411    3.0658 O   0  0  0  0  0  0  0  0  0  0  0  0
   20.1994   34.9098    6.6072 O   0  0  0  0  0  0  0  0  0  0  0  0
   21.9543   34.5262    2.7655 H   0  0  0  0  0  0  0  0  0  0  0  0
   23.5540   32.6944    2.2667 H   0  0  0  0  0  0  0  0  0  0  0  0
   20.5174   34.5051    7.4294 H   0  0  0  0  0  0  0  0  0  0  0  0
   22.4618   36.1825    5.5640 O   0  0  0  0  0  0  0  0  0  0  0  0
   23.3691   36.7113    6.8423 P   0  0  0  0  0  0  0  0  0  0  0  0
   24.3668   35.6851    7.0196 O   0  0  0  0  0  0  0  0  0  0  0  0
   22.2822   36.6813    7.8604 O   0  0  0  0  0  0  0  0  0  0  0  0
   23.9295   37.9918    6.6202 O   0  0  0  0  0  0  0  0  0  0  0  0
   21.9522   35.7740    7.9545 H   0  0  0  0  0  0  0  0  0  0  0  0
   24.6259   37.9277    5.9480 H   0  0  0  0  0  0  0  0  0  0  0  0
   21.4788   30.8785    4.2118 O   0  0  0  0  0  0  0  0  0  0  0  0
   21.0180   29.8236    3.0889 P   0  0  0  0  0  0  0  0  0  0  0  0
   22.2099   29.6932    2.0626 O   0  0  0  0  0  0  0  0  0  0  0  0
   20.8441   28.5051    3.7388 O   0  0  0  0  0  0  0  0  0  0  0  0
   19.8719   30.5019    2.5453 O   0  0  0  0  0  0  0  0  0  0  0  0
   21.7040   28.1824    4.0508 H   0  0  0  0  0  0  0  0  0  0  0  0
   20.1499   31.3464    2.1573 H   0  0  0  0  0  0  0  0  0  0  0  0
   19.4057   32.5527    4.8870 O   0  0  0  0  0  0  0  0  0  0  0  0
   18.4692   31.5472    5.6229 P   0  0  0  0  0  0  0  0  0  0  0  0
   17.6302   30.7417    4.6643 O   0  0  0  0  0  0  0  0  0  0  0  0
   17.3186   32.3309    6.2463 O   0  0  0  0  0  0  0  0  0  0  0  0
   19.2590   30.6380    6.5308 O   0  0  0  0  0  0  0  0  0  0  0  0
   16.8919   32.8749    5.5659 H   0  0  0  0  0  0  0  0  0  0  0  0
   19.9574   30.1989    6.0205 H   0  0  0  0  0  0  0  0  0  0  0  0
  1  2  1  0  0  0
  1  6  1  0  0  0
  1 13  1  0  0  0
  2  3  1  0  0  0
  2  7  1  0  0  0
  3  4  1  0  0  0
  3  8  1  0  0  0
  4  5  1  0  0  0
  4 20  1  0  0  0
  5  6  1  0  0  0
  5 27  1  0  0  0
  6  9  1  0  0  0
 13 14  1  0  0  0
 20 21  1  0  0  0
 27 28  1  0  0  0
 14 15  2  0  0  0
 14 16  1  0  0  0
 14 17  1  0  0  0
 21 22  2  0  0  0
 21 23  1  0  0  0
 21 24  1  0  0  0
 28 29  2  0  0  0
 28 30  1  0  0  0
 28 31  1  0  0  0
  7 10  1  0  0  0
  8 11  1  0  0  0
  9 12  1  0  0  0
 16 18  1  0  0  0
 17 19  1  0  0  0
 23 25  1  0  0  0
 24 26  1  0  0  0
 30 32  1  0  0  0
 31 33  1  0  0  0
M  END
> <minimizedAffinity>
-7.40476

$$$$
1H0A_I3P_A_1164


 33 33  0  0  0  0  0  0  0  0999 V2000
   22.0843   32.5513    3.2778 C   0  0  0  0  0  0  0  0  0  0  0  0
   20.6661   32.9299    3.7208 C   0  0  0  0  0  0  0  0  0  0  0  0
   20.6485   33.2957    5.1953 C   0  0  0  0  0  0  0  0  0  0  0  0
   21.6404   34.4027    5.4530 C   0  0  0  0  0  0  0  0  0  0  0  0
   23.0167   34.1183    4.9581 C   0  0  0  0  0  0  0  0  0  0  0  0
   23.1432   33.5933    3.4868 C   0  0  0  0  0  0  0  0  0  0  0  0
   20.0449   33.9863    2.9519 O   0  0  0  0  0  0  0  0  0  0  0  0
   19.2930   33.5996    5.5175 O   0  0  0  0  0  0  0  0  0  0  0  0
   24.4783   33.2441    3.0497 O   0  0  0  0  0  0  0  0  0  0  0  0
   20.5380   34.8119    3.0793 H   0  0  0  0  0  0  0  0  0  0  0  0
   18.9783   34.3180    4.9467 H   0  0  0  0  0  0  0  0  0  0  0  0
   24.8059   32.4979    3.5758 H   0  0  0  0  0  0  0  0  0  0  0  0
   22.1702   32.2435    1.8258 O   0  0  0  0  0  0  0  0  0  0  0  0
   22.3933   30.6317    1.5271 P   0  0  0  0  0  0  0  0  0  0  0  0
   23.6688   30.3312    2.1294 O   0  0  0  0  0  0  0  0  0  0  0  0
   22.4329   30.7267    0.0411 O   0  0  0  0  0  0  0  0  0  0  0  0
   21.3419   29.8325    2.0360 O   0  0  0  0  0  0  0  0  0  0  0  0
   23.1769   31.2882   -0.2273 H   0  0  0  0  0  0  0  0  0  0  0  0
   21.3844   29.8209    3.0050 H   0  0  0  0  0  0  0  0  0  0  0  0
   21.7587   34.6256    6.8341 O   0  0  0  0  0  0  0  0  0  0  0  0
   21.3364   35.9167    7.6948 P   0  0  0  0  0  0  0  0  0  0  0  0
   21.0751   35.4213    9.1703 O   0  0  0  0  0  0  0  0  0  0  0  0
   22.4909   36.8423    7.7340 O   0  0  0  0  0  0  0  0  0  0  0  0
   20.1361   36.3105    7.0068 O   0  0  0  0  0  0  0  0  0  0  0  0
   23.2164   36.4334    8.2314 H   0  0  0  0  0  0  0  0  0  0  0  0
   19.4785   35.6004    7.0717 H   0  0  0  0  0  0  0  0  0  0  0  0
   23.7759   35.3433    5.1101 O   0  0  0  0  0  0  0  0  0  0  0  0
   25.1880   35.4931    5.7528 P   0  0  0  0  0  0  0  0  0  0  0  0
   25.1198   35.6557    7.2497 O   0  0  0  0  0  0  0  0  0  0  0  0
   25.7080   36.8943    5.4482 O   0  0  0  0  0  0  0  0  0  0  0  0
   26.0755   34.3304    5.3847 O   0  0  0  0  0  0  0  0  0  0  0  0
   25.0516   37.5509    5.7291 H   0  0  0  0  0  0  0  0  0  0  0  0
   25.6370   33.4997    5.6266 H   0  0  0  0  0  0  0  0  0  0  0  0
  1  2  1  0  0  0
  1  6  1  0  0  0
  1 13  1  0  0  0
  2  3  1  0  0  0
  2  7  1  0  0  0
  3  4  1  0  0  0
  3  8  1  0  0  0
  4  5  1  0  0  0
  4 20  1  0  0  0
  5  6  1  0  0  0
  5 27  1  0  0  0
  6  9  1  0  0  0
 13 14  1  0  0  0
 20 21  1  0  0  0
 27 28  1  0  0  0
 14 15  2  0  0  0
 14 16  1  0  0  0
 14 17  1  0  0  0
 21 22  2  0  0  0
 21 23  1  0  0  0
 21 24  1  0  0  0
 28 29  2  0  0  0
 28 30  1  0  0  0
 28 31  1  0  0  0
  7 10  1  0  0  0
  8 11  1  0  0  0
  9 12  1  0  0  0
 16 18  1  0  0  0
 17 19  1  0  0  0
 23 25  1  0  0  0
 24 26  1  0  0  0
 30 32  1  0  0  0
 31 33  1  0  0  0
M  END
> <minimizedAffinity>
-7.25555

$$$$
1H0A_I3P_A_1164


 33 33  0  0  0  0  0  0  0  0999 V2000
   21.4645   32.3092    4.6922 C   0  0  0  0  0  0  0  0  0  0  0  0
   20.4405   33.4236    4.9378 C   0  0  0  0  0  0  0  0  0  0  0  0
   21.0497   34.5303    5.7820 C   0  0  0  0  0  0  0  0  0  0  0  0
   22.3014   35.0437    5.1147 C   0  0  0  0  0  0  0  0  0  0  0  0
   23.2914   33.9839    4.7732 C   0  0  0  0  0  0  0  0  0  0  0  0
   22.7432   32.7209    4.0243 C   0  0  0  0  0  0  0  0  0  0  0  0
   19.8543   33.9920    3.7434 O   0  0  0  0  0  0  0  0  0  0  0  0
   20.0201   35.4967    5.9807 O   0  0  0  0  0  0  0  0  0  0  0  0
   23.7017   31.6654    3.7736 O   0  0  0  0  0  0  0  0  0  0  0  0
   20.5423   34.4413    3.2279 H   0  0  0  0  0  0  0  0  0  0  0  0
   19.7011   35.8108    5.1202 H   0  0  0  0  0  0  0  0  0  0  0  0
   24.0095   31.3008    4.6181 H   0  0  0  0  0  0  0  0  0  0  0  0
   20.9389   31.2278    3.8178 O   0  0  0  0  0  0  0  0  0  0  0  0
   19.7758   30.3152    4.5603 P   0  0  0  0  0  0  0  0  0  0  0  0
   20.0176   28.9751    4.0853 O   0  0  0  0  0  0  0  0  0  0  0  0
   18.5982   30.9769    3.9322 O   0  0  0  0  0  0  0  0  0  0  0  0
   19.8220   30.4163    5.9712 O   0  0  0  0  0  0  0  0  0  0  0  0
   18.6390   30.8637    2.9697 H   0  0  0  0  0  0  0  0  0  0  0  0
   20.6133   29.9632    6.3021 H   0  0  0  0  0  0  0  0  0  0  0  0
   22.9646   35.9392    5.9688 O   0  0  0  0  0  0  0  0  0  0  0  0
   23.3596   35.7624    7.5175 P   0  0  0  0  0  0  0  0  0  0  0  0
   22.0677   36.0907    8.3628 O   0  0  0  0  0  0  0  0  0  0  0  0
   23.6928   34.3388    7.7488 O   0  0  0  0  0  0  0  0  0  0  0  0
   24.3885   36.7600    7.6421 O   0  0  0  0  0  0  0  0  0  0  0  0
   22.8976   33.7968    7.6275 H   0  0  0  0  0  0  0  0  0  0  0  0
   24.0132   37.6359    7.4612 H   0  0  0  0  0  0  0  0  0  0  0  0
   24.3235   34.6179    3.9777 O   0  0  0  0  0  0  0  0  0  0  0  0
   25.8562   34.6125    4.2609 P   0  0  0  0  0  0  0  0  0  0  0  0
   26.4388   33.2229    4.2247 O   0  0  0  0  0  0  0  0  0  0  0  0
   26.0698   34.8528    5.7520 O   0  0  0  0  0  0  0  0  0  0  0  0
   26.5863   35.5196    3.3023 O   0  0  0  0  0  0  0  0  0  0  0  0
   25.5507   34.2103    6.2606 H   0  0  0  0  0  0  0  0  0  0  0  0
   26.3701   35.2679    2.3908 H   0  0  0  0  0  0  0  0  0  0  0  0
  1  2  1  0  0  0
  1  6  1  0  0  0
  1 13  1  0  0  0
  2  3  1  0  0  0
  2  7  1  0  0  0
  3  4  1  0  0  0
  3  8  1  0  0  0
  4  5  1  0  0  0
  4 20  1  0  0  0
  5  6  1  0  0  0
  5 27  1  0  0  0
  6  9  1  0  0  0
 13 14  1  0  0  0
 20 21  1  0  0  0
 27 28  1  0  0  0
 14 15  2  0  0  0
 14 16  1  0  0  0
 14 17  1  0  0  0
 21 22  2  0  0  0
 21 23  1  0  0  0
 21 24  1  0  0  0
 28 29  2  0  0  0
 28 30  1  0  0  0
 28 31  1  0  0  0
  7 10  1  0  0  0
  8 11  1  0  0  0
  9 12  1  0  0  0
 16 18  1  0  0  0
 17 19  1  0  0  0
 23 25  1  0  0  0
 24 26  1  0  0  0
 30 32  1  0  0  0
 31 33  1  0  0  0
M  END
> <minimizedAffinity>
-7.15761

$$$$
1H0A_I3P_A_1164


 33 33  0  0  0  0  0  0  0  0999 V2000
   21.6537   32.8882    4.1414 C   0  0  0  0  0  0  0  0  0  0  0  0
   23.1193   32.9061    3.6913 C   0  0  0  0  0  0  0  0  0  0  0  0
   23.5822   34.3312    3.4404 C   0  0  0  0  0  0  0  0  0  0  0  0
   23.3569   35.1611    4.6799 C   0  0  0  0  0  0  0  0  0  0  0  0
   21.9654   35.1042    5.2095 C   0  0  0  0  0  0  0  0  0  0  0  0
   21.3302   33.6808    5.3734 C   0  0  0  0  0  0  0  0  0  0  0  0
   24.0442   32.2467    4.5874 O   0  0  0  0  0  0  0  0  0  0  0  0
   24.9355   34.2421    2.9998 O   0  0  0  0  0  0  0  0  0  0  0  0
   19.9506   33.6475    5.8106 O   0  0  0  0  0  0  0  0  0  0  0  0
   24.0723   32.7238    5.4315 H   0  0  0  0  0  0  0  0  0  0  0  0
   25.4652   33.7863    3.6725 H   0  0  0  0  0  0  0  0  0  0  0  0
   19.3879   34.0604    5.1369 H   0  0  0  0  0  0  0  0  0  0  0  0
   21.1669   31.5203    4.4607 O   0  0  0  0  0  0  0  0  0  0  0  0
   20.2677   30.8612    3.2384 P   0  0  0  0  0  0  0  0  0  0  0  0
   18.9132   30.9003    3.7318 O   0  0  0  0  0  0  0  0  0  0  0  0
   20.8848   29.5058    3.2703 O   0  0  0  0  0  0  0  0  0  0  0  0
   20.4274   31.5496    2.0122 O   0  0  0  0  0  0  0  0  0  0  0  0
   20.7329   29.1017    4.1389 H   0  0  0  0  0  0  0  0  0  0  0  0
   20.0006   32.4187    2.0714 H   0  0  0  0  0  0  0  0  0  0  0  0
   23.6160   36.5128    4.4029 O   0  0  0  0  0  0  0  0  0  0  0  0
   24.6624   37.5115    5.1054 P   0  0  0  0  0  0  0  0  0  0  0  0
   25.6780   36.6175    5.9180 O   0  0  0  0  0  0  0  0  0  0  0  0
   25.4279   38.2000    4.0418 O   0  0  0  0  0  0  0  0  0  0  0  0
   23.7766   38.2720    5.9459 O   0  0  0  0  0  0  0  0  0  0  0  0
   25.9745   37.5543    3.5673 H   0  0  0  0  0  0  0  0  0  0  0  0
   23.3527   37.6807    6.5875 H   0  0  0  0  0  0  0  0  0  0  0  0
   21.9772   35.7876    6.4874 O   0  0  0  0  0  0  0  0  0  0  0  0
   22.6669   35.3037    7.7987 P   0  0  0  0  0  0  0  0  0  0  0  0
   23.4530   36.4011    8.4691 O   0  0  0  0  0  0  0  0  0  0  0  0
   23.8638   34.4373    7.4202 O   0  0  0  0  0  0  0  0  0  0  0  0
   21.6594   34.7130    8.7531 O   0  0  0  0  0  0  0  0  0  0  0  0
   24.4345   34.9249    6.8058 H   0  0  0  0  0  0  0  0  0  0  0  0
   20.9512   35.3559    8.9144 H   0  0  0  0  0  0  0  0  0  0  0  0
  1  2  1  0  0  0
  1  6  1  0  0  0
  1 13  1  0  0  0
  2  3  1  0  0  0
  2  7  1  0  0  0
  3  4  1  0  0  0
  3  8  1  0  0  0
  4  5  1  0  0  0
  4 20  1  0  0  0
  5  6  1  0  0  0
  5 27  1  0  0  0
  6  9  1  0  0  0
 13 14  1  0  0  0
 20 21  1  0  0  0
 27 28  1  0  0  0
 14 15  2  0  0  0
 14 16  1  0  0  0
 14 17  1  0  0  0
 21 22  2  0  0  0
 21 23  1  0  0  0
 21 24  1  0  0  0
 28 29  2  0  0  0
 28 30  1  0  0  0
 28 31  1  0  0  0
  7 10  1  0  0  0
  8 11  1  0  0  0
  9 12  1  0  0  0
 16 18  1  0  0  0
 17 19  1  0  0  0
 23 25  1  0  0  0
 24 26  1  0  0  0
 30 32  1  0  0  0
 31 33  1  0  0  0
M  END
> <minimizedAffinity>
-7.11222

$$$$
1H0A_I3P_A_1164


 33 33  0  0  0  0  0  0  0  0999 V2000
   22.0029   34.8515    5.9351 C   0  0  0  0  0  0  0  0  0  0  0  0
   20.9606   34.3127    4.9481 C   0  0  0  0  0  0  0  0  0  0  0  0
   21.3793   34.6068    3.5176 C   0  0  0  0  0  0  0  0  0  0  0  0
   22.7520   34.0343    3.2653 C   0  0  0  0  0  0  0  0  0  0  0  0
   23.7828   34.4583    4.2541 C   0  0  0  0  0  0  0  0  0  0  0  0
   23.4011   34.3336    5.7691 C   0  0  0  0  0  0  0  0  0  0  0  0
   20.6571   32.9046    5.0846 O   0  0  0  0  0  0  0  0  0  0  0  0
   20.3405   34.0996    2.6828 O   0  0  0  0  0  0  0  0  0  0  0  0
   24.3813   34.8263    6.7136 O   0  0  0  0  0  0  0  0  0  0  0  0
   21.4458   32.3817    4.8716 H   0  0  0  0  0  0  0  0  0  0  0  0
   20.2217   33.1522    2.8539 H   0  0  0  0  0  0  0  0  0  0  0  0
   24.4921   35.7827    6.5953 H   0  0  0  0  0  0  0  0  0  0  0  0
   21.6725   34.5357    7.3498 O   0  0  0  0  0  0  0  0  0  0  0  0
   21.2162   35.8717    8.2122 P   0  0  0  0  0  0  0  0  0  0  0  0
   20.1548   36.4554    7.4295 O   0  0  0  0  0  0  0  0  0  0  0  0
   22.5115   36.6009    8.1150 O   0  0  0  0  0  0  0  0  0  0  0  0
   20.8176   35.5576    9.5334 O   0  0  0  0  0  0  0  0  0  0  0  0
   22.7135   36.7784    7.1831 H   0  0  0  0  0  0  0  0  0  0  0  0
   19.9701   35.0864    9.5120 H   0  0  0  0  0  0  0  0  0  0  0  0
   23.2193   34.4510    2.0087 O   0  0  0  0  0  0  0  0  0  0  0  0
   23.8570   33.5752    0.8203 P   0  0  0  0  0  0  0  0  0  0  0  0
   25.1835   34.3037    0.3720 O   0  0  0  0  0  0  0  0  0  0  0  0
   24.2388   32.2563    1.3732 O   0  0  0  0  0  0  0  0  0  0  0  0
   22.8062   33.6555   -0.1588 O   0  0  0  0  0  0  0  0  0  0  0  0
   24.9563   32.3705    2.0159 H   0  0  0  0  0  0  0  0  0  0  0  0
   22.6770   34.5809   -0.4192 H   0  0  0  0  0  0  0  0  0  0  0  0
   24.9707   33.6746    3.9802 O   0  0  0  0  0  0  0  0  0  0  0  0
   26.4353   34.2000    3.8881 P   0  0  0  0  0  0  0  0  0  0  0  0
   27.4085   33.1144    3.5062 O   0  0  0  0  0  0  0  0  0  0  0  0
   26.9586   34.4136    5.3048 O   0  0  0  0  0  0  0  0  0  0  0  0
   26.5336   35.3620    2.9316 O   0  0  0  0  0  0  0  0  0  0  0  0
   26.8404   33.5998    5.8193 H   0  0  0  0  0  0  0  0  0  0  0  0
   26.1708   35.1032    2.0701 H   0  0  0  0  0  0  0  0  0  0  0  0
  1  2  1  0  0  0
  1  6  1  0  0  0
  1 13  1  0  0  0
  2  3  1  0  0  0
  2  7  1  0  0  0
  3  4  1  0  0  0
  3  8  1  0  0  0
  4  5  1  0  0  0
  4 20  1  0  0  0
  5  6  1  0  0  0
  5 27  1  0  0  0
  6  9  1  0  0  0
 13 14  1  0  0  0
 20 21  1  0  0  0
 27 28  1  0  0  0
 14 15  2  0  0  0
 14 16  1  0  0  0
 14 17  1  0  0  0
 21 22  2  0  0  0
 21 23  1  0  0  0
 21 24  1  0  0  0
 28 29  2  0  0  0
 28 30  1  0  0  0
 28 31  1  0  0  0
  7 10  1  0  0  0
  8 11  1  0  0  0
  9 12  1  0  0  0
 16 18  1  0  0  0
 17 19  1  0  0  0
 23 25  1  0  0  0
 24 26  1  0  0  0
 30 32  1  0  0  0
 31 33  1  0  0  0
M  END
> <minimizedAffinity>
-7.07276

$$$$
1H0A_I3P_A_1164


 33 33  0  0  0  0  0  0  0  0999 V2000
   20.8667   32.6178    3.7176 C   0  0  0  0  0  0  0  0  0  0  0  0
   22.3128   32.2006    3.4251 C   0  0  0  0  0  0  0  0  0  0  0  0
   23.2500   33.3872    3.5735 C   0  0  0  0  0  0  0  0  0  0  0  0
   23.0964   33.9830    4.9509 C   0  0  0  0  0  0  0  0  0  0  0  0
   21.6928   34.3226    5.3175 C   0  0  0  0  0  0  0  0  0  0  0  0
   20.6110   33.2160    5.0695 C   0  0  0  0  0  0  0  0  0  0  0  0
   22.8037   31.0934    4.2166 O   0  0  0  0  0  0  0  0  0  0  0  0
   24.5552   32.9104    3.2536 O   0  0  0  0  0  0  0  0  0  0  0  0
   19.2421   33.5910    5.3537 O   0  0  0  0  0  0  0  0  0  0  0  0
   22.8393   31.3541    5.1502 H   0  0  0  0  0  0  0  0  0  0  0  0
   24.7835   32.1736    3.8417 H   0  0  0  0  0  0  0  0  0  0  0  0
   18.9694   34.3005    4.7511 H   0  0  0  0  0  0  0  0  0  0  0  0
   19.9141   31.4786    3.6470 O   0  0  0  0  0  0  0  0  0  0  0  0
   19.4076   31.1647    2.1037 P   0  0  0  0  0  0  0  0  0  0  0  0
   20.3745   30.2227    1.5962 O   0  0  0  0  0  0  0  0  0  0  0  0
   19.5734   32.5471    1.5741 O   0  0  0  0  0  0  0  0  0  0  0  0
   18.0813   30.6730    2.0548 O   0  0  0  0  0  0  0  0  0  0  0  0
   20.5047   32.8098    1.6420 H   0  0  0  0  0  0  0  0  0  0  0  0
   18.0567   29.7728    2.4153 H   0  0  0  0  0  0  0  0  0  0  0  0
   23.8248   35.1802    5.0369 O   0  0  0  0  0  0  0  0  0  0  0  0
   25.1478   35.5055    5.8911 P   0  0  0  0  0  0  0  0  0  0  0  0
   25.6004   36.9663    5.5008 O   0  0  0  0  0  0  0  0  0  0  0  0
   24.7785   35.5221    7.3245 O   0  0  0  0  0  0  0  0  0  0  0  0
   26.0354   34.4856    5.4002 O   0  0  0  0  0  0  0  0  0  0  0  0
   24.1786   36.2650    7.4953 H   0  0  0  0  0  0  0  0  0  0  0  0
   26.1777   34.6114    4.4489 H   0  0  0  0  0  0  0  0  0  0  0  0
   21.7056   34.6926    6.7186 O   0  0  0  0  0  0  0  0  0  0  0  0
   21.1576   36.0124    7.3409 P   0  0  0  0  0  0  0  0  0  0  0  0
   20.2161   35.7544    8.4893 O   0  0  0  0  0  0  0  0  0  0  0  0
   20.1175   36.5959    6.3899 O   0  0  0  0  0  0  0  0  0  0  0  0
   22.2856   36.9162    7.7716 O   0  0  0  0  0  0  0  0  0  0  0  0
   19.4492   35.9222    6.1888 H   0  0  0  0  0  0  0  0  0  0  0  0
   22.8761   36.4332    8.3708 H   0  0  0  0  0  0  0  0  0  0  0  0
  1  2  1  0  0  0
  1  6  1  0  0  0
  1 13  1  0  0  0
  2  3  1  0  0  0
  2  7  1  0  0  0
  3  4  1  0  0  0
  3  8  1  0  0  0
  4  5  1  0  0  0
  4 20  1  0  0  0
  5  6  1  0  0  0
  5 27  1  0  0  0
  6  9  1  0  0  0
 13 14  1  0  0  0
 20 21  1  0  0  0
 27 28  1  0  0  0
 14 15  2  0  0  0
 14 16  1  0  0  0
 14 17  1  0  0  0
 21 22  2  0  0  0
 21 23  1  0  0  0
 21 24  1  0  0  0
 28 29  2  0  0  0
 28 30  1  0  0  0
 28 31  1  0  0  0
  7 10  1  0  0  0
  8 11  1  0  0  0
  9 12  1  0  0  0
 16 18  1  0  0  0
 17 19  1  0  0  0
 23 25  1  0  0  0
 24 26  1  0  0  0
 30 32  1  0  0  0
 31 33  1  0  0  0
M  END
> <minimizedAffinity>
-6.98826

$$$$
1H0A_I3P_A_1164


 33 33  0  0  0  0  0  0  0  0999 V2000
   23.3622   35.3216    6.2159 C   0  0  0  0  0  0  0  0  0  0  0  0
   23.2521   34.5539    4.8932 C   0  0  0  0  0  0  0  0  0  0  0  0
   24.2599   35.0809    3.8858 C   0  0  0  0  0  0  0  0  0  0  0  0
   25.6473   35.0070    4.4735 C   0  0  0  0  0  0  0  0  0  0  0  0
   25.7836   35.6626    5.8045 C   0  0  0  0  0  0  0  0  0  0  0  0
   24.7057   35.3006    6.8832 C   0  0  0  0  0  0  0  0  0  0  0  0
   23.3842   33.1174    5.0050 O   0  0  0  0  0  0  0  0  0  0  0  0
   24.0603   34.3321    2.6888 O   0  0  0  0  0  0  0  0  0  0  0  0
   24.8048   36.0080    8.1423 O   0  0  0  0  0  0  0  0  0  0  0  0
   24.2792   32.8977    5.3077 H   0  0  0  0  0  0  0  0  0  0  0  0
   24.1729   33.3870    2.8761 H   0  0  0  0  0  0  0  0  0  0  0  0
   24.6545   36.9547    7.9940 H   0  0  0  0  0  0  0  0  0  0  0  0
   22.4387   34.8041    7.2597 O   0  0  0  0  0  0  0  0  0  0  0  0
   21.2469   35.8833    7.6494 P   0  0  0  0  0  0  0  0  0  0  0  0
   20.1538   35.5381    6.7743 O   0  0  0  0  0  0  0  0  0  0  0  0
   21.9797   37.1158    7.2457 O   0  0  0  0  0  0  0  0  0  0  0  0
   20.8930   35.8334    9.0188 O   0  0  0  0  0  0  0  0  0  0  0  0
   22.1851   37.0741    6.2986 H   0  0  0  0  0  0  0  0  0  0  0  0
   20.4220   35.0053    9.2011 H   0  0  0  0  0  0  0  0  0  0  0  0
   26.5604   35.6515    3.6237 O   0  0  0  0  0  0  0  0  0  0  0  0
   27.6897   35.0124    2.6738 P   0  0  0  0  0  0  0  0  0  0  0  0
   27.1367   33.6218    2.1722 O   0  0  0  0  0  0  0  0  0  0  0  0
   27.8420   35.8847    1.4876 O   0  0  0  0  0  0  0  0  0  0  0  0
   28.7781   34.8880    3.6060 O   0  0  0  0  0  0  0  0  0  0  0  0
   27.0270   35.8613    0.9622 H   0  0  0  0  0  0  0  0  0  0  0  0
   28.5232   34.2856    4.3222 H   0  0  0  0  0  0  0  0  0  0  0  0
   27.1049   35.3315    6.2992 O   0  0  0  0  0  0  0  0  0  0  0  0
   28.2003   36.3315    6.7782 P   0  0  0  0  0  0  0  0  0  0  0  0
   29.4233   35.6280    7.3083 O   0  0  0  0  0  0  0  0  0  0  0  0
   27.7540   36.9318    8.1075 O   0  0  0  0  0  0  0  0  0  0  0  0
   28.5752   37.2911    5.6767 O   0  0  0  0  0  0  0  0  0  0  0  0
   27.5417   36.2184    8.7295 H   0  0  0  0  0  0  0  0  0  0  0  0
   28.8393   36.7913    4.8884 H   0  0  0  0  0  0  0  0  0  0  0  0
  1  2  1  0  0  0
  1  6  1  0  0  0
  1 13  1  0  0  0
  2  3  1  0  0  0
  2  7  1  0  0  0
  3  4  1  0  0  0
  3  8  1  0  0  0
  4  5  1  0  0  0
  4 20  1  0  0  0
  5  6  1  0  0  0
  5 27  1  0  0  0
  6  9  1  0  0  0
 13 14  1  0  0  0
 20 21  1  0  0  0
 27 28  1  0  0  0
 14 15  2  0  0  0
 14 16  1  0  0  0
 14 17  1  0  0  0
 21 22  2  0  0  0
 21 23  1  0  0  0
 21 24  1  0  0  0
 28 29  2  0  0  0
 28 30  1  0  0  0
 28 31  1  0  0  0
  7 10  1  0  0  0
  8 11  1  0  0  0
  9 12  1  0  0  0
 16 18  1  0  0  0
 17 19  1  0  0  0
 23 25  1  0  0  0
 24 26  1  0  0  0
 30 32  1  0  0  0
 31 33  1  0  0  0
M  END
> <minimizedAffinity>
-6.86050

$$$$
1H0A_I3P_A_1164


 33 33  0  0  0  0  0  0  0  0999 V2000
   26.1054   36.0954    5.8706 C   0  0  0  0  0  0  0  0  0  0  0  0
   25.1976   36.8067    6.8809 C   0  0  0  0  0  0  0  0  0  0  0  0
   23.7674   36.8548    6.3704 C   0  0  0  0  0  0  0  0  0  0  0  0
   23.2930   35.4558    6.0646 C   0  0  0  0  0  0  0  0  0  0  0  0
   24.1916   34.6901    5.1557 C   0  0  0  0  0  0  0  0  0  0  0  0
   25.7190   34.6921    5.5071 C   0  0  0  0  0  0  0  0  0  0  0  0
   25.2167   36.2541    8.2179 O   0  0  0  0  0  0  0  0  0  0  0  0
   23.0127   37.5565    7.3560 O   0  0  0  0  0  0  0  0  0  0  0  0
   26.5874   34.0128    4.5691 O   0  0  0  0  0  0  0  0  0  0  0  0
   24.8561   35.3538    8.2008 H   0  0  0  0  0  0  0  0  0  0  0  0
   23.0936   37.1023    8.2092 H   0  0  0  0  0  0  0  0  0  0  0  0
   26.5605   34.4702    3.7141 H   0  0  0  0  0  0  0  0  0  0  0  0
   27.5071   35.9656    6.3488 O   0  0  0  0  0  0  0  0  0  0  0  0
   28.5767   36.8354    5.4343 P   0  0  0  0  0  0  0  0  0  0  0  0
   27.7420   37.6930    4.6295 O   0  0  0  0  0  0  0  0  0  0  0  0
   29.1568   35.6831    4.6895 O   0  0  0  0  0  0  0  0  0  0  0  0
   29.5081   37.5540    6.2212 O   0  0  0  0  0  0  0  0  0  0  0  0
   28.4593   35.2449    4.1774 H   0  0  0  0  0  0  0  0  0  0  0  0
   29.0554   38.2840    6.6718 H   0  0  0  0  0  0  0  0  0  0  0  0
   22.0418   35.5043    5.4294 O   0  0  0  0  0  0  0  0  0  0  0  0
   20.5763   35.6284    6.0796 P   0  0  0  0  0  0  0  0  0  0  0  0
   19.7754   34.3346    5.6605 O   0  0  0  0  0  0  0  0  0  0  0  0
   20.7219   35.6040    7.5525 O   0  0  0  0  0  0  0  0  0  0  0  0
   20.1026   36.8236    5.4345 O   0  0  0  0  0  0  0  0  0  0  0  0
   21.0489   34.7342    7.8307 H   0  0  0  0  0  0  0  0  0  0  0  0
   20.0631   36.6797    4.4760 H   0  0  0  0  0  0  0  0  0  0  0  0
   23.6951   33.3289    5.1279 O   0  0  0  0  0  0  0  0  0  0  0  0
   22.9639   32.6257    3.9446 P   0  0  0  0  0  0  0  0  0  0  0  0
   22.7707   33.5446    2.7656 O   0  0  0  0  0  0  0  0  0  0  0  0
   21.4879   32.4905    4.3047 O   0  0  0  0  0  0  0  0  0  0  0  0
   23.6920   31.3724    3.5274 O   0  0  0  0  0  0  0  0  0  0  0  0
   21.1351   33.3589    4.5542 H   0  0  0  0  0  0  0  0  0  0  0  0
   24.6161   31.5873    3.3256 H   0  0  0  0  0  0  0  0  0  0  0  0
  1  2  1  0  0  0
  1  6  1  0  0  0
  1 13  1  0  0  0
  2  3  1  0  0  0
  2  7  1  0  0  0
  3  4  1  0  0  0
  3  8  1  0  0  0
  4  5  1  0  0  0
  4 20  1  0  0  0
  5  6  1  0  0  0
  5 27  1  0  0  0
  6  9  1  0  0  0
 13 14  1  0  0  0
 20 21  1  0  0  0
 27 28  1  0  0  0
 14 15  2  0  0  0
 14 16  1  0  0  0
 14 17  1  0  0  0
 21 22  2  0  0  0
 21 23  1  0  0  0
 21 24  1  0  0  0
 28 29  2  0  0  0
 28 30  1  0  0  0
 28 31  1  0  0  0
  7 10  1  0  0  0
  8 11  1  0  0  0
  9 12  1  0  0  0
 16 18  1  0  0  0
 17 19  1  0  0  0
 23 25  1  0  0  0
 24 26  1  0  0  0
 30 32  1  0  0  0
 31 33  1  0  0  0
M  END
> <minimizedAffinity>
-6.85715

$$$$
1H0A_I3P_A_1164


 33 33  0  0  0  0  0  0  0  0999 V2000
   22.7700   34.2112    5.3112 C   0  0  0  0  0  0  0  0  0  0  0  0
   23.7581   34.4407    4.1616 C   0  0  0  0  0  0  0  0  0  0  0  0
   24.1668   33.1170    3.5380 C   0  0  0  0  0  0  0  0  0  0  0  0
   22.9361   32.3682    3.0904 C   0  0  0  0  0  0  0  0  0  0  0  0
   21.9040   32.1979    4.1514 C   0  0  0  0  0  0  0  0  0  0  0  0
   21.5078   33.4790    4.9627 C   0  0  0  0  0  0  0  0  0  0  0  0
   23.2974   35.3418    3.1276 O   0  0  0  0  0  0  0  0  0  0  0  0
   25.1025   33.4299    2.5085 O   0  0  0  0  0  0  0  0  0  0  0  0
   20.5653   33.2802    6.0433 O   0  0  0  0  0  0  0  0  0  0  0  0
   22.5306   34.9533    2.6782 H   0  0  0  0  0  0  0  0  0  0  0  0
   24.6921   34.0360    1.8720 H   0  0  0  0  0  0  0  0  0  0  0  0
   20.9638   32.7096    6.7190 H   0  0  0  0  0  0  0  0  0  0  0  0
   22.2888   35.4803    5.9180 O   0  0  0  0  0  0  0  0  0  0  0  0
   22.6004   35.5706    7.5402 P   0  0  0  0  0  0  0  0  0  0  0  0
   21.3320   35.2823    8.1630 O   0  0  0  0  0  0  0  0  0  0  0  0
   22.9769   37.0115    7.5722 O   0  0  0  0  0  0  0  0  0  0  0  0
   23.6278   34.6868    7.9479 O   0  0  0  0  0  0  0  0  0  0  0  0
   22.2239   37.5490    7.2808 H   0  0  0  0  0  0  0  0  0  0  0  0
   23.3062   33.7729    7.8994 H   0  0  0  0  0  0  0  0  0  0  0  0
   23.2893   31.0741    2.6758 O   0  0  0  0  0  0  0  0  0  0  0  0
   23.0599   30.3659    1.2504 P   0  0  0  0  0  0  0  0  0  0  0  0
   22.8796   28.8225    1.5266 O   0  0  0  0  0  0  0  0  0  0  0  0
   21.7875   30.8685    0.6852 O   0  0  0  0  0  0  0  0  0  0  0  0
   24.3005   30.6846    0.5956 O   0  0  0  0  0  0  0  0  0  0  0  0
   21.0481   30.5698    1.2376 H   0  0  0  0  0  0  0  0  0  0  0  0
   25.0364   30.2849    1.0851 H   0  0  0  0  0  0  0  0  0  0  0  0
   20.7312   31.6417    3.5069 O   0  0  0  0  0  0  0  0  0  0  0  0
   19.9574   30.3551    3.9256 P   0  0  0  0  0  0  0  0  0  0  0  0
   19.7077   30.2968    5.4109 O   0  0  0  0  0  0  0  0  0  0  0  0
   20.9208   29.1741    3.8639 O   0  0  0  0  0  0  0  0  0  0  0  0
   18.6616   30.2316    3.1639 O   0  0  0  0  0  0  0  0  0  0  0  0
   21.7111   29.3736    4.3897 H   0  0  0  0  0  0  0  0  0  0  0  0
   18.1394   31.0407    3.2808 H   0  0  0  0  0  0  0  0  0  0  0  0
  1  2  1  0  0  0
  1  6  1  0  0  0
  1 13  1  0  0  0
  2  3  1  0  0  0
  2  7  1  0  0  0
  3  4  1  0  0  0
  3  8  1  0  0  0
  4  5  1  0  0  0
  4 20  1  0  0  0
  5  6  1  0  0  0
  5 27  1  0  0  0
  6  9  1  0  0  0
 13 14  1  0  0  0
 20 21  1  0  0  0
 27 28  1  0  0  0
 14 15  2  0  0  0
 14 16  1  0  0  0
 14 17  1  0  0  0
 21 22  2  0  0  0
 21 23  1  0  0  0
 21 24  1  0  0  0
 28 29  2  0  0  0
 28 30  1  0  0  0
 28 31  1  0  0  0
  7 10  1  0  0  0
  8 11  1  0  0  0
  9 12  1  0  0  0
 16 18  1  0  0  0
 17 19  1  0  0  0
 23 25  1  0  0  0
 24 26  1  0  0  0
 30 32  1  0  0  0
 31 33  1  0  0  0
M  END
> <minimizedAffinity>
-6.81378

$$$$
1H0A_I3P_A_1164


 33 33  0  0  0  0  0  0  0  0999 V2000
   22.7714   35.8159    6.3213 C   0  0  0  0  0  0  0  0  0  0  0  0
   21.4746   36.6337    6.3119 C   0  0  0  0  0  0  0  0  0  0  0  0
   20.7370   36.4479    4.9966 C   0  0  0  0  0  0  0  0  0  0  0  0
   20.4859   34.9791    4.7616 C   0  0  0  0  0  0  0  0  0  0  0  0
   21.7056   34.1280    4.8503 C   0  0  0  0  0  0  0  0  0  0  0  0
   22.6239   34.3389    6.1028 C   0  0  0  0  0  0  0  0  0  0  0  0
   20.5748   36.3695    7.4137 O   0  0  0  0  0  0  0  0  0  0  0  0
   19.5709   37.2652    5.0712 O   0  0  0  0  0  0  0  0  0  0  0  0
   23.8459   33.5635    6.1321 O   0  0  0  0  0  0  0  0  0  0  0  0
   20.2537   35.4560    7.3569 H   0  0  0  0  0  0  0  0  0  0  0  0
   19.0415   37.0037    5.8408 H   0  0  0  0  0  0  0  0  0  0  0  0
   24.4173   33.8325    5.3959 H   0  0  0  0  0  0  0  0  0  0  0  0
   23.5031   35.9129    7.6118 O   0  0  0  0  0  0  0  0  0  0  0  0
   25.0302   36.5241    7.4354 P   0  0  0  0  0  0  0  0  0  0  0  0
   25.5864   36.4822    8.7653 O   0  0  0  0  0  0  0  0  0  0  0  0
   24.6291   37.8876    6.9896 O   0  0  0  0  0  0  0  0  0  0  0  0
   25.8007   35.8019    6.4931 O   0  0  0  0  0  0  0  0  0  0  0  0
   24.1071   38.3151    7.6865 H   0  0  0  0  0  0  0  0  0  0  0  0
   26.0206   34.9296    6.8559 H   0  0  0  0  0  0  0  0  0  0  0  0
   19.9648   34.7843    3.4725 O   0  0  0  0  0  0  0  0  0  0  0  0
   20.5208   35.3168    2.0607 P   0  0  0  0  0  0  0  0  0  0  0  0
   20.2443   36.8699    2.0128 O   0  0  0  0  0  0  0  0  0  0  0  0
   21.9885   35.1253    2.0414 O   0  0  0  0  0  0  0  0  0  0  0  0
   19.6965   34.5648    1.1528 O   0  0  0  0  0  0  0  0  0  0  0  0
   22.3983   35.6996    2.7071 H   0  0  0  0  0  0  0  0  0  0  0  0
   18.7659   34.8022    1.2889 H   0  0  0  0  0  0  0  0  0  0  0  0
   21.2581   32.7508    4.7949 O   0  0  0  0  0  0  0  0  0  0  0  0
   21.7030   31.6649    3.7691 P   0  0  0  0  0  0  0  0  0  0  0  0
   21.2872   30.2783    4.1887 O   0  0  0  0  0  0  0  0  0  0  0  0
   23.2056   31.4497    3.9191 O   0  0  0  0  0  0  0  0  0  0  0  0
   21.1836   31.9803    2.3886 O   0  0  0  0  0  0  0  0  0  0  0  0
   23.4134   31.2555    4.8465 H   0  0  0  0  0  0  0  0  0  0  0  0
   20.2210   32.0944    2.4236 H   0  0  0  0  0  0  0  0  0  0  0  0
  1  2  1  0  0  0
  1  6  1  0  0  0
  1 13  1  0  0  0
  2  3  1  0  0  0
  2  7  1  0  0  0
  3  4  1  0  0  0
  3  8  1  0  0  0
  4  5  1  0  0  0
  4 20  1  0  0  0
  5  6  1  0  0  0
  5 27  1  0  0  0
  6  9  1  0  0  0
 13 14  1  0  0  0
 20 21  1  0  0  0
 27 28  1  0  0  0
 14 15  2  0  0  0
 14 16  1  0  0  0
 14 17  1  0  0  0
 21 22  2  0  0  0
 21 23  1  0  0  0
 21 24  1  0  0  0
 28 29  2  0  0  0
 28 30  1  0  0  0
 28 31  1  0  0  0
  7 10  1  0  0  0
  8 11  1  0  0  0
  9 12  1  0  0  0
 16 18  1  0  0  0
 17 19  1  0  0  0
 23 25  1  0  0  0
 24 26  1  0  0  0
 30 32  1  0  0  0
 31 33  1  0  0  0
M  END
> <minimizedAffinity>
-6.69483

$$$$
