1OGZ_EQU_A_1126


 21 24  0  0  0  0  0  0  0  0999 V2000
   19.8569   77.0696   11.8228 C   0  0  0  0  0  0  0  0  0  0  0  0
   18.5414   76.5438   12.0615 C   0  0  0  0  0  0  0  0  0  0  0  0
   17.5993   76.5242   11.0089 C   0  0  0  0  0  0  0  0  0  0  0  0
   18.0210   77.0685    9.6422 C   0  0  0  0  0  0  0  0  0  0  0  0
   19.3739   77.5824    9.4784 C   0  0  0  0  0  0  0  0  0  0  0  0
   20.2654   77.5733   10.5700 C   0  0  0  0  0  0  0  0  0  0  0  0
   16.2596   76.0036   11.2118 C   0  0  0  0  0  0  0  0  0  0  0  0
   15.3111   75.9985   10.1328 C   0  0  0  0  0  0  0  0  0  0  0  0
   15.6734   76.5046    8.8348 C   0  0  0  0  0  0  0  0  0  0  0  0
   17.0629   77.0478    8.5890 C   0  0  0  0  0  0  0  0  0  0  0  0
   14.6523   76.5399    7.6164 C   0  0  0  0  0  0  0  0  0  0  0  0
   15.2680   76.4532    6.1108 C   0  0  0  0  0  0  0  0  0  0  0  0
   16.3985   77.5567    5.9949 C   0  0  0  0  0  0  0  0  0  0  0  0
   17.3888   77.5752    7.1467 C   0  0  0  0  0  0  0  0  0  0  0  0
   13.5557   75.4496    7.4739 C   0  0  0  0  0  0  0  0  0  0  0  0
   12.8490   75.9480    6.1632 C   0  0  0  0  0  0  0  0  0  0  0  0
   13.9877   76.5692    5.3275 C   0  0  0  0  0  0  0  0  0  0  0  0
   15.9645   75.0656    5.6911 C   0  0  0  0  0  0  0  0  0  0  0  0
   20.7285   77.0873   12.8077 O   0  0  0  0  0  0  0  0  0  0  0  0
   13.8806   77.0908    4.1979 O   0  0  0  0  0  0  0  0  0  0  0  0
   20.4880   76.7599   13.6520 H   0  0  0  0  0  0  0  0  0  0  0  0
  1  2  2  0  0  0
  1  6  1  0  0  0
  1 19  1  0  0  0
  2  3  1  0  0  0
  3  4  2  0  0  0
  3  7  1  0  0  0
  4  5  1  0  0  0
  4 10  1  0  0  0
  5  6  2  0  0  0
  7  8  2  0  0  0
  8  9  1  0  0  0
  9 10  2  0  0  0
  9 11  1  0  0  0
 10 14  1  0  0  0
 11 12  1  0  0  0
 11 15  1  0  0  0
 12 13  1  0  0  0
 12 17  1  0  0  0
 12 18  1  0  0  0
 13 14  1  0  0  0
 15 16  1  0  0  0
 16 17  1  0  0  0
 17 20  2  0  0  0
 19 21  1  0  0  0
M  END
> <minimizedAffinity>
-9.98085

$$$$
1OGZ_EQU_A_1126


 21 24  0  0  0  0  0  0  0  0999 V2000
   12.8610   75.7206    6.4690 C   0  0  0  0  0  0  0  0  0  0  0  0
   13.9551   76.4624    5.9063 C   0  0  0  0  0  0  0  0  0  0  0  0
   15.0828   76.7520    6.7064 C   0  0  0  0  0  0  0  0  0  0  0  0
   15.0953   76.2591    8.1551 C   0  0  0  0  0  0  0  0  0  0  0  0
   13.9489   75.5106    8.6518 C   0  0  0  0  0  0  0  0  0  0  0  0
   12.8546   75.2556    7.8008 C   0  0  0  0  0  0  0  0  0  0  0  0
   16.2065   77.5013    6.1746 C   0  0  0  0  0  0  0  0  0  0  0  0
   17.3420   77.7943    7.0044 C   0  0  0  0  0  0  0  0  0  0  0  0
   17.3863   77.3478    8.3723 C   0  0  0  0  0  0  0  0  0  0  0  0
   16.2348   76.5596    8.9544 C   0  0  0  0  0  0  0  0  0  0  0  0
   18.6108   77.6661    9.3354 C   0  0  0  0  0  0  0  0  0  0  0  0
   18.9165   76.6158   10.5424 C   0  0  0  0  0  0  0  0  0  0  0  0
   17.5610   76.3882   11.3296 C   0  0  0  0  0  0  0  0  0  0  0  0
   16.3565   76.0991   10.4503 C   0  0  0  0  0  0  0  0  0  0  0  0
   20.0517   77.7821    8.7680 C   0  0  0  0  0  0  0  0  0  0  0  0
   20.8363   78.1055   10.0892 C   0  0  0  0  0  0  0  0  0  0  0  0
   20.0762   77.3291   11.1849 C   0  0  0  0  0  0  0  0  0  0  0  0
   19.4284   75.1516   10.1172 C   0  0  0  0  0  0  0  0  0  0  0  0
   11.8129   75.4564    5.7194 O   0  0  0  0  0  0  0  0  0  0  0  0
   20.3565   77.2952   12.4014 O   0  0  0  0  0  0  0  0  0  0  0  0
   11.7864   75.7514    4.8305 H   0  0  0  0  0  0  0  0  0  0  0  0
  1  2  2  0  0  0
  1  6  1  0  0  0
  1 19  1  0  0  0
  2  3  1  0  0  0
  3  4  2  0  0  0
  3  7  1  0  0  0
  4  5  1  0  0  0
  4 10  1  0  0  0
  5  6  2  0  0  0
  7  8  2  0  0  0
  8  9  1  0  0  0
  9 10  2  0  0  0
  9 11  1  0  0  0
 10 14  1  0  0  0
 11 12  1  0  0  0
 11 15  1  0  0  0
 12 13  1  0  0  0
 12 17  1  0  0  0
 12 18  1  0  0  0
 13 14  1  0  0  0
 15 16  1  0  0  0
 16 17  1  0  0  0
 17 20  2  0  0  0
 19 21  1  0  0  0
M  END
> <minimizedAffinity>
-9.77958

$$$$
1OGZ_EQU_A_1126


 21 24  0  0  0  0  0  0  0  0999 V2000
   14.7486   77.5368    4.4594 C   0  0  0  0  0  0  0  0  0  0  0  0
   14.1475   77.4157    5.7587 C   0  0  0  0  0  0  0  0  0  0  0  0
   14.9613   77.1266    6.8766 C   0  0  0  0  0  0  0  0  0  0  0  0
   16.4659   76.9524    6.6582 C   0  0  0  0  0  0  0  0  0  0  0  0
   17.0005   77.0931    5.3107 C   0  0  0  0  0  0  0  0  0  0  0  0
   16.1332   77.3824    4.2379 C   0  0  0  0  0  0  0  0  0  0  0  0
   14.3907   76.9939    8.2047 C   0  0  0  0  0  0  0  0  0  0  0  0
   15.2315   76.6914    9.3297 C   0  0  0  0  0  0  0  0  0  0  0  0
   16.6506   76.5192    9.1600 C   0  0  0  0  0  0  0  0  0  0  0  0
   17.2769   76.6574    7.7908 C   0  0  0  0  0  0  0  0  0  0  0  0
   17.6183   76.1625   10.3703 C   0  0  0  0  0  0  0  0  0  0  0  0
   19.1688   76.6513   10.2682 C   0  0  0  0  0  0  0  0  0  0  0  0
   19.7305   76.1625    8.8701 C   0  0  0  0  0  0  0  0  0  0  0  0
   18.8312   76.4641    7.6835 C   0  0  0  0  0  0  0  0  0  0  0  0
   17.3137   76.6788   11.8028 C   0  0  0  0  0  0  0  0  0  0  0  0
   18.5265   76.0520   12.5786 C   0  0  0  0  0  0  0  0  0  0  0  0
   19.6831   76.0682   11.5573 C   0  0  0  0  0  0  0  0  0  0  0  0
   19.4340   78.2367   10.3178 C   0  0  0  0  0  0  0  0  0  0  0  0
   13.9850   77.8037    3.4222 O   0  0  0  0  0  0  0  0  0  0  0  0
   20.8487   75.6628   11.7486 O   0  0  0  0  0  0  0  0  0  0  0  0
   13.0613   77.9120    3.5361 H   0  0  0  0  0  0  0  0  0  0  0  0
  1  2  2  0  0  0
  1  6  1  0  0  0
  1 19  1  0  0  0
  2  3  1  0  0  0
  3  4  2  0  0  0
  3  7  1  0  0  0
  4  5  1  0  0  0
  4 10  1  0  0  0
  5  6  2  0  0  0
  7  8  2  0  0  0
  8  9  1  0  0  0
  9 10  2  0  0  0
  9 11  1  0  0  0
 10 14  1  0  0  0
 11 12  1  0  0  0
 11 15  1  0  0  0
 12 13  1  0  0  0
 12 17  1  0  0  0
 12 18  1  0  0  0
 13 14  1  0  0  0
 15 16  1  0  0  0
 16 17  1  0  0  0
 17 20  2  0  0  0
 19 21  1  0  0  0
M  END
> <minimizedAffinity>
-9.19851

$$$$
1OGZ_EQU_A_1126


 21 24  0  0  0  0  0  0  0  0999 V2000
   13.5103   76.3489    4.7432 C   0  0  0  0  0  0  0  0  0  0  0  0
   14.8230   76.9328    4.7389 C   0  0  0  0  0  0  0  0  0  0  0  0
   15.5727   76.9661    5.9358 C   0  0  0  0  0  0  0  0  0  0  0  0
   14.9516   76.3729    7.2024 C   0  0  0  0  0  0  0  0  0  0  0  0
   13.6163   75.7962    7.1256 C   0  0  0  0  0  0  0  0  0  0  0  0
   12.9215   75.7949    5.8992 C   0  0  0  0  0  0  0  0  0  0  0  0
   16.9011   77.5499    5.9720 C   0  0  0  0  0  0  0  0  0  0  0  0
   17.6468   77.5831    7.1995 C   0  0  0  0  0  0  0  0  0  0  0  0
   17.0922   77.0360    8.4101 C   0  0  0  0  0  0  0  0  0  0  0  0
   15.7137   76.4149    8.4044 C   0  0  0  0  0  0  0  0  0  0  0  0
   17.8698   77.0689    9.7967 C   0  0  0  0  0  0  0  0  0  0  0  0
   17.5390   75.8958   10.8773 C   0  0  0  0  0  0  0  0  0  0  0  0
   15.9661   75.8452   11.0580 C   0  0  0  0  0  0  0  0  0  0  0  0
   15.1776   75.8313    9.7596 C   0  0  0  0  0  0  0  0  0  0  0  0
   19.4197   76.9790    9.8348 C   0  0  0  0  0  0  0  0  0  0  0  0
   19.6565   77.0656   11.3846 C   0  0  0  0  0  0  0  0  0  0  0  0
   18.4342   76.3516   11.9986 C   0  0  0  0  0  0  0  0  0  0  0  0
   17.9839   74.4012   10.4839 C   0  0  0  0  0  0  0  0  0  0  0  0
   12.8165   76.3233    3.6260 O   0  0  0  0  0  0  0  0  0  0  0  0
   18.2071   76.1807   13.2147 O   0  0  0  0  0  0  0  0  0  0  0  0
   13.1795   76.6833    2.8407 H   0  0  0  0  0  0  0  0  0  0  0  0
  1  2  2  0  0  0
  1  6  1  0  0  0
  1 19  1  0  0  0
  2  3  1  0  0  0
  3  4  2  0  0  0
  3  7  1  0  0  0
  4  5  1  0  0  0
  4 10  1  0  0  0
  5  6  2  0  0  0
  7  8  2  0  0  0
  8  9  1  0  0  0
  9 10  2  0  0  0
  9 11  1  0  0  0
 10 14  1  0  0  0
 11 12  1  0  0  0
 11 15  1  0  0  0
 12 13  1  0  0  0
 12 17  1  0  0  0
 12 18  1  0  0  0
 13 14  1  0  0  0
 15 16  1  0  0  0
 16 17  1  0  0  0
 17 20  2  0  0  0
 19 21  1  0  0  0
M  END
> <minimizedAffinity>
-8.99284

$$$$
1OGZ_EQU_A_1126


 21 24  0  0  0  0  0  0  0  0999 V2000
   17.7338   76.2045   11.8876 C   0  0  0  0  0  0  0  0  0  0  0  0
   16.3830   75.8939   11.5096 C   0  0  0  0  0  0  0  0  0  0  0  0
   15.9628   76.1240   10.1806 C   0  0  0  0  0  0  0  0  0  0  0  0
   16.9727   76.7002    9.1856 C   0  0  0  0  0  0  0  0  0  0  0  0
   18.3250   76.9865    9.6445 C   0  0  0  0  0  0  0  0  0  0  0  0
   18.6800   76.7336   10.9849 C   0  0  0  0  0  0  0  0  0  0  0  0
   14.6055   75.8256    9.7615 C   0  0  0  0  0  0  0  0  0  0  0  0
   14.1922   76.0734    8.4080 C   0  0  0  0  0  0  0  0  0  0  0  0
   15.1155   76.6166    7.4464 C   0  0  0  0  0  0  0  0  0  0  0  0
   16.5382   76.9321    7.8496 C   0  0  0  0  0  0  0  0  0  0  0  0
   14.6989   76.9280    5.9438 C   0  0  0  0  0  0  0  0  0  0  0  0
   15.8638   76.8632    4.8071 C   0  0  0  0  0  0  0  0  0  0  0  0
   17.0678   77.7624    5.3079 C   0  0  0  0  0  0  0  0  0  0  0  0
   17.4906   77.5145    6.7458 C   0  0  0  0  0  0  0  0  0  0  0  0
   13.6334   76.0576    5.2237 C   0  0  0  0  0  0  0  0  0  0  0  0
   13.5955   76.7775    3.8287 C   0  0  0  0  0  0  0  0  0  0  0  0
   15.0440   77.2619    3.6091 C   0  0  0  0  0  0  0  0  0  0  0  0
   16.4953   75.4167    4.4978 C   0  0  0  0  0  0  0  0  0  0  0  0
   18.1179   75.9902   13.1271 O   0  0  0  0  0  0  0  0  0  0  0  0
   15.4761   77.8866    2.6178 O   0  0  0  0  0  0  0  0  0  0  0  0
   17.5132   75.6395   13.7510 H   0  0  0  0  0  0  0  0  0  0  0  0
  1  2  2  0  0  0
  1  6  1  0  0  0
  1 19  1  0  0  0
  2  3  1  0  0  0
  3  4  2  0  0  0
  3  7  1  0  0  0
  4  5  1  0  0  0
  4 10  1  0  0  0
  5  6  2  0  0  0
  7  8  2  0  0  0
  8  9  1  0  0  0
  9 10  2  0  0  0
  9 11  1  0  0  0
 10 14  1  0  0  0
 11 12  1  0  0  0
 11 15  1  0  0  0
 12 13  1  0  0  0
 12 17  1  0  0  0
 12 18  1  0  0  0
 13 14  1  0  0  0
 15 16  1  0  0  0
 16 17  1  0  0  0
 17 20  2  0  0  0
 19 21  1  0  0  0
M  END
> <minimizedAffinity>
-8.82354

$$$$
1OGZ_EQU_A_1126


 21 24  0  0  0  0  0  0  0  0999 V2000
   15.5262   76.5375    3.8990 C   0  0  0  0  0  0  0  0  0  0  0  0
   15.9945   75.2977    4.4537 C   0  0  0  0  0  0  0  0  0  0  0  0
   16.7491   75.3116    5.6479 C   0  0  0  0  0  0  0  0  0  0  0  0
   17.0407   76.6597    6.3109 C   0  0  0  0  0  0  0  0  0  0  0  0
   16.5289   77.8732    5.6887 C   0  0  0  0  0  0  0  0  0  0  0  0
   15.7823   77.7896    4.4962 C   0  0  0  0  0  0  0  0  0  0  0  0
   17.2420   74.0802    6.2374 C   0  0  0  0  0  0  0  0  0  0  0  0
   18.0150   74.1129    7.4479 C   0  0  0  0  0  0  0  0  0  0  0  0
   18.3097   75.3635    8.0970 C   0  0  0  0  0  0  0  0  0  0  0  0
   17.8054   76.6633    7.5120 C   0  0  0  0  0  0  0  0  0  0  0  0
   19.1789   75.4522    9.4255 C   0  0  0  0  0  0  0  0  0  0  0  0
   18.8978   76.7024   10.4312 C   0  0  0  0  0  0  0  0  0  0  0  0
   18.9595   78.0297    9.5690 C   0  0  0  0  0  0  0  0  0  0  0  0
   18.1587   77.9870    8.2787 C   0  0  0  0  0  0  0  0  0  0  0  0
   19.1378   74.3070   10.4735 C   0  0  0  0  0  0  0  0  0  0  0  0
   20.1460   74.8762   11.5343 C   0  0  0  0  0  0  0  0  0  0  0  0
   19.9436   76.4046   11.4724 C   0  0  0  0  0  0  0  0  0  0  0  0
   17.4721   76.7280   11.1751 C   0  0  0  0  0  0  0  0  0  0  0  0
   14.8263   76.5177    2.7856 O   0  0  0  0  0  0  0  0  0  0  0  0
   20.5427   77.2615   12.1553 O   0  0  0  0  0  0  0  0  0  0  0  0
   14.6392   75.7020    2.3643 H   0  0  0  0  0  0  0  0  0  0  0  0
  1  2  2  0  0  0
  1  6  1  0  0  0
  1 19  1  0  0  0
  2  3  1  0  0  0
  3  4  2  0  0  0
  3  7  1  0  0  0
  4  5  1  0  0  0
  4 10  1  0  0  0
  5  6  2  0  0  0
  7  8  2  0  0  0
  8  9  1  0  0  0
  9 10  2  0  0  0
  9 11  1  0  0  0
 10 14  1  0  0  0
 11 12  1  0  0  0
 11 15  1  0  0  0
 12 13  1  0  0  0
 12 17  1  0  0  0
 12 18  1  0  0  0
 13 14  1  0  0  0
 15 16  1  0  0  0
 16 17  1  0  0  0
 17 20  2  0  0  0
 19 21  1  0  0  0
M  END
> <minimizedAffinity>
-8.73542

$$$$
1OGZ_EQU_A_1126


 21 24  0  0  0  0  0  0  0  0999 V2000
   12.5066   76.4035    1.9634 C   0  0  0  0  0  0  0  0  0  0  0  0
   13.6626   77.1818    2.3125 C   0  0  0  0  0  0  0  0  0  0  0  0
   14.1374   77.1628    3.6429 C   0  0  0  0  0  0  0  0  0  0  0  0
   13.3950   76.3052    4.6702 C   0  0  0  0  0  0  0  0  0  0  0  0
   12.2322   75.5419    4.2383 C   0  0  0  0  0  0  0  0  0  0  0  0
   11.8102   75.6051    2.8949 C   0  0  0  0  0  0  0  0  0  0  0  0
   15.3005   77.9378    4.0348 C   0  0  0  0  0  0  0  0  0  0  0  0
   15.7652   77.9136    5.3940 C   0  0  0  0  0  0  0  0  0  0  0  0
   15.0896   77.1196    6.3866 C   0  0  0  0  0  0  0  0  0  0  0  0
   13.8791   76.2959    6.0093 C   0  0  0  0  0  0  0  0  0  0  0  0
   15.5531   77.0776    7.9070 C   0  0  0  0  0  0  0  0  0  0  0  0
   15.2343   75.7256    8.7579 C   0  0  0  0  0  0  0  0  0  0  0  0
   13.6942   75.4023    8.5778 C   0  0  0  0  0  0  0  0  0  0  0  0
   13.1988   75.4486    7.1424 C   0  0  0  0  0  0  0  0  0  0  0  0
   17.0532   77.2290    8.2793 C   0  0  0  0  0  0  0  0  0  0  0  0
   16.9538   77.1309    9.8433 C   0  0  0  0  0  0  0  0  0  0  0  0
   15.7863   76.1531   10.0916 C   0  0  0  0  0  0  0  0  0  0  0  0
   16.0172   74.3911    8.3187 C   0  0  0  0  0  0  0  0  0  0  0  0
   12.0682   76.4276    0.7236 O   0  0  0  0  0  0  0  0  0  0  0  0
   15.3552   75.7777   11.2019 O   0  0  0  0  0  0  0  0  0  0  0  0
   12.5087   76.9481    0.0809 H   0  0  0  0  0  0  0  0  0  0  0  0
  1  2  2  0  0  0
  1  6  1  0  0  0
  1 19  1  0  0  0
  2  3  1  0  0  0
  3  4  2  0  0  0
  3  7  1  0  0  0
  4  5  1  0  0  0
  4 10  1  0  0  0
  5  6  2  0  0  0
  7  8  2  0  0  0
  8  9  1  0  0  0
  9 10  2  0  0  0
  9 11  1  0  0  0
 10 14  1  0  0  0
 11 12  1  0  0  0
 11 15  1  0  0  0
 12 13  1  0  0  0
 12 17  1  0  0  0
 12 18  1  0  0  0
 13 14  1  0  0  0
 15 16  1  0  0  0
 16 17  1  0  0  0
 17 20  2  0  0  0
 19 21  1  0  0  0
M  END
> <minimizedAffinity>
-8.37891

$$$$
1OGZ_EQU_A_1126


 21 24  0  0  0  0  0  0  0  0999 V2000
   16.0214   73.9558    4.1537 C   0  0  0  0  0  0  0  0  0  0  0  0
   16.1139   75.3852    4.2644 C   0  0  0  0  0  0  0  0  0  0  0  0
   16.7124   75.9563    5.4095 C   0  0  0  0  0  0  0  0  0  0  0  0
   17.2444   75.0211    6.4978 C   0  0  0  0  0  0  0  0  0  0  0  0
   17.1159   73.5823    6.3113 C   0  0  0  0  0  0  0  0  0  0  0  0
   16.5078   73.0771    5.1444 C   0  0  0  0  0  0  0  0  0  0  0  0
   16.8219   77.3959    5.5589 C   0  0  0  0  0  0  0  0  0  0  0  0
   17.4260   77.9605    6.7338 C   0  0  0  0  0  0  0  0  0  0  0  0
   17.9351   77.1103    7.7780 C   0  0  0  0  0  0  0  0  0  0  0  0
   17.8423   75.6067    7.6498 C   0  0  0  0  0  0  0  0  0  0  0  0
   18.5921   77.6884    9.1056 C   0  0  0  0  0  0  0  0  0  0  0  0
   19.7088   76.7716    9.8580 C   0  0  0  0  0  0  0  0  0  0  0  0
   19.0828   75.3308   10.0613 C   0  0  0  0  0  0  0  0  0  0  0  0
   18.4257   74.7432    8.8241 C   0  0  0  0  0  0  0  0  0  0  0  0
   19.3807   79.0259    9.0783 C   0  0  0  0  0  0  0  0  0  0  0  0
   19.7858   79.1307   10.5917 C   0  0  0  0  0  0  0  0  0  0  0  0
   19.9923   77.6671   11.0344 C   0  0  0  0  0  0  0  0  0  0  0  0
   21.0990   76.5409    9.0831 C   0  0  0  0  0  0  0  0  0  0  0  0
   15.4608   73.4305    3.0861 O   0  0  0  0  0  0  0  0  0  0  0  0
   20.3281   77.2753   12.1717 O   0  0  0  0  0  0  0  0  0  0  0  0
   15.1277   73.9871    2.4099 H   0  0  0  0  0  0  0  0  0  0  0  0
  1  2  2  0  0  0
  1  6  1  0  0  0
  1 19  1  0  0  0
  2  3  1  0  0  0
  3  4  2  0  0  0
  3  7  1  0  0  0
  4  5  1  0  0  0
  4 10  1  0  0  0
  5  6  2  0  0  0
  7  8  2  0  0  0
  8  9  1  0  0  0
  9 10  2  0  0  0
  9 11  1  0  0  0
 10 14  1  0  0  0
 11 12  1  0  0  0
 11 15  1  0  0  0
 12 13  1  0  0  0
 12 17  1  0  0  0
 12 18  1  0  0  0
 13 14  1  0  0  0
 15 16  1  0  0  0
 16 17  1  0  0  0
 17 20  2  0  0  0
 19 21  1  0  0  0
M  END
> <minimizedAffinity>
-8.26651

$$$$
1OGZ_EQU_A_1126


 21 24  0  0  0  0  0  0  0  0999 V2000
   15.5923   76.6734    1.4004 C   0  0  0  0  0  0  0  0  0  0  0  0
   15.1380   77.5629    2.4331 C   0  0  0  0  0  0  0  0  0  0  0  0
   15.3976   77.2477    3.7855 C   0  0  0  0  0  0  0  0  0  0  0  0
   16.1603   75.9590    4.1009 C   0  0  0  0  0  0  0  0  0  0  0  0
   16.5903   75.1102    2.9981 C   0  0  0  0  0  0  0  0  0  0  0  0
   16.2988   75.4826    1.6704 C   0  0  0  0  0  0  0  0  0  0  0  0
   14.9523   78.1197    4.8571 C   0  0  0  0  0  0  0  0  0  0  0  0
   15.2173   77.7801    6.2276 C   0  0  0  0  0  0  0  0  0  0  0  0
   15.9304   76.5746    6.5603 C   0  0  0  0  0  0  0  0  0  0  0  0
   16.4134   75.6484    5.4672 C   0  0  0  0  0  0  0  0  0  0  0  0
   16.2285   76.1456    8.0621 C   0  0  0  0  0  0  0  0  0  0  0  0
   17.5494   75.2338    8.3402 C   0  0  0  0  0  0  0  0  0  0  0  0
   17.4920   73.9987    7.3501 C   0  0  0  0  0  0  0  0  0  0  0  0
   17.1910   74.3566    5.9048 C   0  0  0  0  0  0  0  0  0  0  0  0
   16.4623   77.2203    9.1584 C   0  0  0  0  0  0  0  0  0  0  0  0
   16.6902   76.2905   10.4030 C   0  0  0  0  0  0  0  0  0  0  0  0
   17.3946   75.0449    9.8257 C   0  0  0  0  0  0  0  0  0  0  0  0
   18.9772   75.9308    8.0903 C   0  0  0  0  0  0  0  0  0  0  0  0
   15.3453   76.9715    0.1434 O   0  0  0  0  0  0  0  0  0  0  0  0
   17.7700   74.0403   10.4657 O   0  0  0  0  0  0  0  0  0  0  0  0
   14.8781   77.7554   -0.0692 H   0  0  0  0  0  0  0  0  0  0  0  0
  1  2  2  0  0  0
  1  6  1  0  0  0
  1 19  1  0  0  0
  2  3  1  0  0  0
  3  4  2  0  0  0
  3  7  1  0  0  0
  4  5  1  0  0  0
  4 10  1  0  0  0
  5  6  2  0  0  0
  7  8  2  0  0  0
  8  9  1  0  0  0
  9 10  2  0  0  0
  9 11  1  0  0  0
 10 14  1  0  0  0
 11 12  1  0  0  0
 11 15  1  0  0  0
 12 13  1  0  0  0
 12 17  1  0  0  0
 12 18  1  0  0  0
 13 14  1  0  0  0
 15 16  1  0  0  0
 16 17  1  0  0  0
 17 20  2  0  0  0
 19 21  1  0  0  0
M  END
> <minimizedAffinity>
-7.56008

$$$$
1OGZ_EQU_A_1126


 21 24  0  0  0  0  0  0  0  0999 V2000
   14.6699   74.5216    3.5904 C   0  0  0  0  0  0  0  0  0  0  0  0
   13.8361   74.7178    4.7438 C   0  0  0  0  0  0  0  0  0  0  0  0
   14.4326   74.8603    6.0164 C   0  0  0  0  0  0  0  0  0  0  0  0
   15.9583   74.8000    6.1179 C   0  0  0  0  0  0  0  0  0  0  0  0
   16.7353   74.6010    4.9021 C   0  0  0  0  0  0  0  0  0  0  0  0
   16.0776   74.4658    3.6628 C   0  0  0  0  0  0  0  0  0  0  0  0
   13.6236   75.0572    7.2054 C   0  0  0  0  0  0  0  0  0  0  0  0
   14.2459   75.1920    8.4933 C   0  0  0  0  0  0  0  0  0  0  0  0
   15.6784   75.1382    8.6254 C   0  0  0  0  0  0  0  0  0  0  0  0
   16.5496   74.9408    7.4056 C   0  0  0  0  0  0  0  0  0  0  0  0
   16.4115   75.2607   10.0311 C   0  0  0  0  0  0  0  0  0  0  0  0
   17.9224   75.8692   10.0456 C   0  0  0  0  0  0  0  0  0  0  0  0
   18.7712   75.0606    8.9803 C   0  0  0  0  0  0  0  0  0  0  0  0
   18.1035   74.9004    7.6253 C   0  0  0  0  0  0  0  0  0  0  0  0
   15.8064   76.1345   11.1633 C   0  0  0  0  0  0  0  0  0  0  0  0
   16.8791   75.9011   12.2861 C   0  0  0  0  0  0  0  0  0  0  0  0
   18.2089   75.7488   11.5186 C   0  0  0  0  0  0  0  0  0  0  0  0
   18.0834   77.4197    9.6496 C   0  0  0  0  0  0  0  0  0  0  0  0
   14.1082   74.3872    2.4087 O   0  0  0  0  0  0  0  0  0  0  0  0
   19.3363   75.5502   12.0179 O   0  0  0  0  0  0  0  0  0  0  0  0
   13.1753   74.4197    2.3270 H   0  0  0  0  0  0  0  0  0  0  0  0
  1  2  2  0  0  0
  1  6  1  0  0  0
  1 19  1  0  0  0
  2  3  1  0  0  0
  3  4  2  0  0  0
  3  7  1  0  0  0
  4  5  1  0  0  0
  4 10  1  0  0  0
  5  6  2  0  0  0
  7  8  2  0  0  0
  8  9  1  0  0  0
  9 10  2  0  0  0
  9 11  1  0  0  0
 10 14  1  0  0  0
 11 12  1  0  0  0
 11 15  1  0  0  0
 12 13  1  0  0  0
 12 17  1  0  0  0
 12 18  1  0  0  0
 13 14  1  0  0  0
 15 16  1  0  0  0
 16 17  1  0  0  0
 17 20  2  0  0  0
 19 21  1  0  0  0
M  END
> <minimizedAffinity>
-7.51666

$$$$
