3OZJ_BGV_A_1


 22 24  0  0  0  0  0  0  0  0999 V2000
   13.5672   15.6545   17.7151 C   0  0  0  0  0  0  0  0  0  0  0  0
   16.2953   11.3711   21.4799 C   0  0  0  0  0  0  0  0  0  0  0  0
   18.0243   13.5404   18.8070 C   0  0  0  0  0  0  0  0  0  0  0  0
   18.1747   11.9184   16.5343 O   0  0  0  0  0  0  0  0  0  0  0  0
   13.8111   17.2528   20.1615 O   0  0  0  0  0  0  0  0  0  0  0  0
   17.1170   10.5606   17.8502 C   0  0  0  0  0  0  0  0  0  0  0  0
   16.2668   10.6604   18.8218 C   0  0  0  0  0  0  0  0  0  0  0  0
   15.9294   13.7800   20.9468 C   0  0  0  0  0  0  0  0  0  0  0  0
   15.3295   15.7387   20.7060 O   0  0  0  0  0  0  0  0  0  0  0  0
   14.3735   15.4561   18.7993 C   0  0  0  0  0  0  0  0  0  0  0  0
   17.3935   11.7348   17.4129 C   0  0  0  0  0  0  0  0  0  0  0  0
   14.4491   16.2536   19.9100 C   0  0  0  0  0  0  0  0  0  0  0  0
   16.5465   12.4816   20.5039 C   0  0  0  0  0  0  0  0  0  0  0  0
   16.1260   14.8720   19.9920 C   0  0  0  0  0  0  0  0  0  0  0  0
   16.0168   12.1271   19.1662 C   0  0  0  0  0  0  0  0  0  0  0  0
   15.9696   13.8742   17.5817 C   0  0  0  0  0  0  0  0  0  0  0  0
   15.2808   14.2959   18.9287 C   0  0  0  0  0  0  0  0  0  0  0  0
   16.8358   12.8365   18.1934 C   0  0  0  0  0  0  0  0  0  0  0  0
   15.1598   13.2689   16.5814 O   0  0  0  0  0  0  0  0  0  0  0  0
   14.6691   12.4892   14.3996 C   0  0  0  0  0  0  0  0  0  0  0  0
   15.8464   14.4266   14.8787 O   0  0  0  0  0  0  0  0  0  0  0  0
   15.3067   13.4531   15.3084 C   0  0  0  0  0  0  0  0  0  0  0  0
  1 10  2  0  0  0
 20 22  1  0  0  0
  2 13  1  0  0  0
  3 18  1  0  0  0
 21 22  2  0  0  0
  4 11  2  0  0  0
  5 12  2  0  0  0
  6  7  2  0  0  0
  6 11  1  0  0  0
  7 15  1  0  0  0
  8 13  1  0  0  0
  8 14  1  0  0  0
 19 22  1  0  0  0
 19 16  1  0  0  0
  9 12  1  0  0  0
  9 14  1  0  0  0
 10 12  1  0  0  0
 10 17  1  0  0  0
 11 18  1  0  0  0
 13 15  1  0  0  0
 14 17  1  0  0  0
 15 18  1  0  0  0
 16 17  1  0  0  0
 16 18  1  0  0  0
M  END
> <minimizedAffinity>
-8.11517

$$$$
3OZJ_BGV_A_1


 22 24  0  0  0  0  0  0  0  0999 V2000
   10.6714   13.4626   18.7365 C   0  0  0  0  0  0  0  0  0  0  0  0
   16.4995   13.3331   16.2913 C   0  0  0  0  0  0  0  0  0  0  0  0
   13.7744   15.9773   15.6422 C   0  0  0  0  0  0  0  0  0  0  0  0
   12.5494   15.1936   13.2540 O   0  0  0  0  0  0  0  0  0  0  0  0
   12.1680   14.5602   21.0068 O   0  0  0  0  0  0  0  0  0  0  0  0
   13.9550   13.5586   13.4662 C   0  0  0  0  0  0  0  0  0  0  0  0
   14.5063   12.9101   14.4421 C   0  0  0  0  0  0  0  0  0  0  0  0
   14.9169   14.3758   17.9126 C   0  0  0  0  0  0  0  0  0  0  0  0
   13.7096   14.9732   19.4747 O   0  0  0  0  0  0  0  0  0  0  0  0
   11.9173   14.0211   18.7604 C   0  0  0  0  0  0  0  0  0  0  0  0
   13.1604   14.4439   13.9471 C   0  0  0  0  0  0  0  0  0  0  0  0
   12.5564   14.5304   19.8592 C   0  0  0  0  0  0  0  0  0  0  0  0
   15.2614   14.1614   16.4641 C   0  0  0  0  0  0  0  0  0  0  0  0
   13.6893   15.1486   18.1094 C   0  0  0  0  0  0  0  0  0  0  0  0
   14.1103   13.5230   15.7838 C   0  0  0  0  0  0  0  0  0  0  0  0
   11.9944   14.4593   16.2435 C   0  0  0  0  0  0  0  0  0  0  0  0
   12.7782   14.1249   17.5627 C   0  0  0  0  0  0  0  0  0  0  0  0
   13.2064   14.5979   15.3991 C   0  0  0  0  0  0  0  0  0  0  0  0
   11.1598   13.4488   15.6912 O   0  0  0  0  0  0  0  0  0  0  0  0
    9.4286   14.8268   14.8466 C   0  0  0  0  0  0  0  0  0  0  0  0
    9.1272   12.6878   15.6847 O   0  0  0  0  0  0  0  0  0  0  0  0
    9.8898   13.5819   15.4784 C   0  0  0  0  0  0  0  0  0  0  0  0
  1 10  2  0  0  0
 20 22  1  0  0  0
  2 13  1  0  0  0
  3 18  1  0  0  0
 21 22  2  0  0  0
  4 11  2  0  0  0
  5 12  2  0  0  0
  6  7  2  0  0  0
  6 11  1  0  0  0
  7 15  1  0  0  0
  8 13  1  0  0  0
  8 14  1  0  0  0
 19 22  1  0  0  0
 19 16  1  0  0  0
  9 12  1  0  0  0
  9 14  1  0  0  0
 10 12  1  0  0  0
 10 17  1  0  0  0
 11 18  1  0  0  0
 13 15  1  0  0  0
 14 17  1  0  0  0
 15 18  1  0  0  0
 16 17  1  0  0  0
 16 18  1  0  0  0
M  END
> <minimizedAffinity>
-8.10699

$$$$
3OZJ_BGV_A_1


 22 24  0  0  0  0  0  0  0  0999 V2000
   13.4065   15.8671   17.0712 C   0  0  0  0  0  0  0  0  0  0  0  0
   18.8667   12.7110   16.6363 C   0  0  0  0  0  0  0  0  0  0  0  0
   15.9593   11.9854   19.0571 C   0  0  0  0  0  0  0  0  0  0  0  0
   16.6638   13.2546   21.4469 O   0  0  0  0  0  0  0  0  0  0  0  0
   12.8031   14.1836   14.7473 O   0  0  0  0  0  0  0  0  0  0  0  0
   18.3566   13.8522   20.2341 C   0  0  0  0  0  0  0  0  0  0  0  0
   18.5756   14.1146   18.9851 C   0  0  0  0  0  0  0  0  0  0  0  0
   16.4135   12.7502   16.1877 C   0  0  0  0  0  0  0  0  0  0  0  0
   14.4750   12.9535   15.5131 O   0  0  0  0  0  0  0  0  0  0  0  0
   14.0144   14.7164   16.6574 C   0  0  0  0  0  0  0  0  0  0  0  0
   17.1166   13.5617   20.3903 C   0  0  0  0  0  0  0  0  0  0  0  0
   13.6720   13.9668   15.5638 C   0  0  0  0  0  0  0  0  0  0  0  0
   17.4920   12.7043   17.2355 C   0  0  0  0  0  0  0  0  0  0  0  0
   15.0613   12.7847   16.7472 C   0  0  0  0  0  0  0  0  0  0  0  0
   17.3205   13.8535   18.1550 C   0  0  0  0  0  0  0  0  0  0  0  0
   15.1213   14.2463   18.9127 C   0  0  0  0  0  0  0  0  0  0  0  0
   15.1815   14.1270   17.3480 C   0  0  0  0  0  0  0  0  0  0  0  0
   16.3452   13.4435   19.1555 C   0  0  0  0  0  0  0  0  0  0  0  0
   15.2927   15.5353   19.4888 O   0  0  0  0  0  0  0  0  0  0  0  0
   13.4378   15.2625   20.9358 C   0  0  0  0  0  0  0  0  0  0  0  0
   15.1462   16.7961   21.2493 O   0  0  0  0  0  0  0  0  0  0  0  0
   14.6763   15.9532   20.5477 C   0  0  0  0  0  0  0  0  0  0  0  0
  1 10  2  0  0  0
 20 22  1  0  0  0
  2 13  1  0  0  0
  3 18  1  0  0  0
 21 22  2  0  0  0
  4 11  2  0  0  0
  5 12  2  0  0  0
  6  7  2  0  0  0
  6 11  1  0  0  0
  7 15  1  0  0  0
  8 13  1  0  0  0
  8 14  1  0  0  0
 19 22  1  0  0  0
 19 16  1  0  0  0
  9 12  1  0  0  0
  9 14  1  0  0  0
 10 12  1  0  0  0
 10 17  1  0  0  0
 11 18  1  0  0  0
 13 15  1  0  0  0
 14 17  1  0  0  0
 15 18  1  0  0  0
 16 17  1  0  0  0
 16 18  1  0  0  0
M  END
> <minimizedAffinity>
-8.10478

$$$$
3OZJ_BGV_A_1


 22 24  0  0  0  0  0  0  0  0999 V2000
   12.9848   14.5782   16.6868 C   0  0  0  0  0  0  0  0  0  0  0  0
   18.8846   15.1099   18.8941 C   0  0  0  0  0  0  0  0  0  0  0  0
   16.3411   12.3397   19.7284 C   0  0  0  0  0  0  0  0  0  0  0  0
   15.1649   13.1291   22.1392 O   0  0  0  0  0  0  0  0  0  0  0  0
   14.4543   13.4945   14.3923 O   0  0  0  0  0  0  0  0  0  0  0  0
   16.4661   14.8324   21.8233 C   0  0  0  0  0  0  0  0  0  0  0  0
   16.9421   15.4794   20.8076 C   0  0  0  0  0  0  0  0  0  0  0  0
   17.3036   13.9297   17.3682 C   0  0  0  0  0  0  0  0  0  0  0  0
   16.0740   13.2168   15.8735 O   0  0  0  0  0  0  0  0  0  0  0  0
   14.2587   14.0896   16.6300 C   0  0  0  0  0  0  0  0  0  0  0  0
   15.7055   13.8894   21.4006 C   0  0  0  0  0  0  0  0  0  0  0  0
   14.8836   13.5822   15.5222 C   0  0  0  0  0  0  0  0  0  0  0  0
   17.6901   14.2088   18.7950 C   0  0  0  0  0  0  0  0  0  0  0  0
   16.1155   13.0838   17.2432 C   0  0  0  0  0  0  0  0  0  0  0  0
   16.5311   14.8032   19.5014 C   0  0  0  0  0  0  0  0  0  0  0  0
   14.4560   13.7363   19.1536 C   0  0  0  0  0  0  0  0  0  0  0  0
   15.1689   14.0719   17.7951 C   0  0  0  0  0  0  0  0  0  0  0  0
   15.7051   13.6923   19.9531 C   0  0  0  0  0  0  0  0  0  0  0  0
   13.5868   14.7157   19.7086 O   0  0  0  0  0  0  0  0  0  0  0  0
   12.2503   14.9339   21.6517 C   0  0  0  0  0  0  0  0  0  0  0  0
   11.5620   13.9349   19.6776 O   0  0  0  0  0  0  0  0  0  0  0  0
   12.4539   14.4529   20.2773 C   0  0  0  0  0  0  0  0  0  0  0  0
  1 10  2  0  0  0
 20 22  1  0  0  0
  2 13  1  0  0  0
  3 18  1  0  0  0
 21 22  2  0  0  0
  4 11  2  0  0  0
  5 12  2  0  0  0
  6  7  2  0  0  0
  6 11  1  0  0  0
  7 15  1  0  0  0
  8 13  1  0  0  0
  8 14  1  0  0  0
 19 22  1  0  0  0
 19 16  1  0  0  0
  9 12  1  0  0  0
  9 14  1  0  0  0
 10 12  1  0  0  0
 10 17  1  0  0  0
 11 18  1  0  0  0
 13 15  1  0  0  0
 14 17  1  0  0  0
 15 18  1  0  0  0
 16 17  1  0  0  0
 16 18  1  0  0  0
M  END
> <minimizedAffinity>
-8.05700

$$$$
3OZJ_BGV_A_1


 22 24  0  0  0  0  0  0  0  0999 V2000
   16.7151   14.4940   18.9617 C   0  0  0  0  0  0  0  0  0  0  0  0
   12.9167   16.5515   14.3463 C   0  0  0  0  0  0  0  0  0  0  0  0
   13.0706   12.9886   15.8029 C   0  0  0  0  0  0  0  0  0  0  0  0
   14.7264   11.5580   14.0621 O   0  0  0  0  0  0  0  0  0  0  0  0
   14.6596   15.8126   20.5849 O   0  0  0  0  0  0  0  0  0  0  0  0
   14.8485   13.5060   13.1217 C   0  0  0  0  0  0  0  0  0  0  0  0
   14.8117   14.7421   13.5057 C   0  0  0  0  0  0  0  0  0  0  0  0
   13.1491   15.8459   16.7273 C   0  0  0  0  0  0  0  0  0  0  0  0
   13.4318   15.6055   18.7562 O   0  0  0  0  0  0  0  0  0  0  0  0
   15.4392   14.8430   18.6223 C   0  0  0  0  0  0  0  0  0  0  0  0
   14.7463   12.7445   14.1493 C   0  0  0  0  0  0  0  0  0  0  0  0
   14.5202   15.4477   19.4377 C   0  0  0  0  0  0  0  0  0  0  0  0
   13.1999   15.4177   15.2861 C   0  0  0  0  0  0  0  0  0  0  0  0
   13.4611   14.7663   17.6653 C   0  0  0  0  0  0  0  0  0  0  0  0
   14.5302   14.8293   15.0042 C   0  0  0  0  0  0  0  0  0  0  0  0
   15.3319   13.2861   16.5983 C   0  0  0  0  0  0  0  0  0  0  0  0
   14.8765   14.6298   17.2718 C   0  0  0  0  0  0  0  0  0  0  0  0
   14.4602   13.4315   15.4065 C   0  0  0  0  0  0  0  0  0  0  0  0
   16.6844   13.1809   16.1712 O   0  0  0  0  0  0  0  0  0  0  0  0
   17.0522   11.1860   17.3936 C   0  0  0  0  0  0  0  0  0  0  0  0
   18.7247   12.5186   16.5016 O   0  0  0  0  0  0  0  0  0  0  0  0
   17.5549   12.3721   16.6850 C   0  0  0  0  0  0  0  0  0  0  0  0
  1 10  2  0  0  0
 20 22  1  0  0  0
  2 13  1  0  0  0
  3 18  1  0  0  0
 21 22  2  0  0  0
  4 11  2  0  0  0
  5 12  2  0  0  0
  6  7  2  0  0  0
  6 11  1  0  0  0
  7 15  1  0  0  0
  8 13  1  0  0  0
  8 14  1  0  0  0
 19 22  1  0  0  0
 19 16  1  0  0  0
  9 12  1  0  0  0
  9 14  1  0  0  0
 10 12  1  0  0  0
 10 17  1  0  0  0
 11 18  1  0  0  0
 13 15  1  0  0  0
 14 17  1  0  0  0
 15 18  1  0  0  0
 16 17  1  0  0  0
 16 18  1  0  0  0
M  END
> <minimizedAffinity>
-7.52034

$$$$
3OZJ_BGV_A_1


 22 24  0  0  0  0  0  0  0  0999 V2000
   14.1659   13.4365   16.0878 C   0  0  0  0  0  0  0  0  0  0  0  0
   13.2402   15.9632   21.8081 C   0  0  0  0  0  0  0  0  0  0  0  0
   16.5123   15.9714   19.7751 C   0  0  0  0  0  0  0  0  0  0  0  0
   17.9897   13.8110   20.7590 O   0  0  0  0  0  0  0  0  0  0  0  0
   12.8601   15.9410   15.2997 O   0  0  0  0  0  0  0  0  0  0  0  0
   16.1990   13.5693   21.9543 C   0  0  0  0  0  0  0  0  0  0  0  0
   14.9317   13.7930   21.8097 C   0  0  0  0  0  0  0  0  0  0  0  0
   13.5595   16.3415   19.3635 C   0  0  0  0  0  0  0  0  0  0  0  0
   13.4676   16.6069   17.3201 O   0  0  0  0  0  0  0  0  0  0  0  0
   14.0140   14.5921   16.7993 C   0  0  0  0  0  0  0  0  0  0  0  0
   16.8084   13.8960   20.8735 C   0  0  0  0  0  0  0  0  0  0  0  0
   13.4022   15.7374   16.3643 C   0  0  0  0  0  0  0  0  0  0  0  0
   14.1858   15.8709   20.6478 C   0  0  0  0  0  0  0  0  0  0  0  0
   14.4489   16.2246   18.2068 C   0  0  0  0  0  0  0  0  0  0  0  0
   14.6580   14.4775   20.4722 C   0  0  0  0  0  0  0  0  0  0  0  0
   15.8527   14.0381   18.4860 C   0  0  0  0  0  0  0  0  0  0  0  0
   14.4838   14.7496   18.1924 C   0  0  0  0  0  0  0  0  0  0  0  0
   15.9808   14.5597   19.8691 C   0  0  0  0  0  0  0  0  0  0  0  0
   15.8686   12.6165   18.5252 O   0  0  0  0  0  0  0  0  0  0  0  0
   17.7343   12.5322   17.0688 C   0  0  0  0  0  0  0  0  0  0  0  0
   16.9050   10.7277   18.2624 O   0  0  0  0  0  0  0  0  0  0  0  0
   16.7763   11.8777   17.9718 C   0  0  0  0  0  0  0  0  0  0  0  0
  1 10  2  0  0  0
 20 22  1  0  0  0
  2 13  1  0  0  0
  3 18  1  0  0  0
 21 22  2  0  0  0
  4 11  2  0  0  0
  5 12  2  0  0  0
  6  7  2  0  0  0
  6 11  1  0  0  0
  7 15  1  0  0  0
  8 13  1  0  0  0
  8 14  1  0  0  0
 19 22  1  0  0  0
 19 16  1  0  0  0
  9 12  1  0  0  0
  9 14  1  0  0  0
 10 12  1  0  0  0
 10 17  1  0  0  0
 11 18  1  0  0  0
 13 15  1  0  0  0
 14 17  1  0  0  0
 15 18  1  0  0  0
 16 17  1  0  0  0
 16 18  1  0  0  0
M  END
> <minimizedAffinity>
-7.46755

$$$$
3OZJ_BGV_A_1


 22 24  0  0  0  0  0  0  0  0999 V2000
   16.5661   14.2179   15.9037 C   0  0  0  0  0  0  0  0  0  0  0  0
   17.2871   15.2874   22.0924 C   0  0  0  0  0  0  0  0  0  0  0  0
   14.7770   12.8804   20.4355 C   0  0  0  0  0  0  0  0  0  0  0  0
   12.3843   14.3180   20.2722 O   0  0  0  0  0  0  0  0  0  0  0  0
   18.9073   12.5272   16.4126 O   0  0  0  0  0  0  0  0  0  0  0  0
   13.6449   15.8550   21.1338 C   0  0  0  0  0  0  0  0  0  0  0  0
   14.8943   16.1906   21.0774 C   0  0  0  0  0  0  0  0  0  0  0  0
   17.6414   13.7447   20.1648 C   0  0  0  0  0  0  0  0  0  0  0  0
   18.2367   12.6564   18.5169 O   0  0  0  0  0  0  0  0  0  0  0  0
   17.0316   13.7212   17.0876 C   0  0  0  0  0  0  0  0  0  0  0  0
   13.4492   14.8387   20.3754 C   0  0  0  0  0  0  0  0  0  0  0  0
   18.1300   12.9209   17.2549 C   0  0  0  0  0  0  0  0  0  0  0  0
   16.6367   14.4050   21.0691 C   0  0  0  0  0  0  0  0  0  0  0  0
   17.0303   12.9082   19.1306 C   0  0  0  0  0  0  0  0  0  0  0  0
   15.6826   15.1825   20.2439 C   0  0  0  0  0  0  0  0  0  0  0  0
   14.8324   14.0798   18.3396 C   0  0  0  0  0  0  0  0  0  0  0  0
   16.4008   14.0191   18.3913 C   0  0  0  0  0  0  0  0  0  0  0  0
   14.6565   14.2479   19.8032 C   0  0  0  0  0  0  0  0  0  0  0  0
   14.2309   15.1825   17.6725 O   0  0  0  0  0  0  0  0  0  0  0  0
   13.2938   15.9242   15.6278 C   0  0  0  0  0  0  0  0  0  0  0  0
   12.3890   14.2706   16.9753 O   0  0  0  0  0  0  0  0  0  0  0  0
   13.2487   15.0858   16.8348 C   0  0  0  0  0  0  0  0  0  0  0  0
  1 10  2  0  0  0
 20 22  1  0  0  0
  2 13  1  0  0  0
  3 18  1  0  0  0
 21 22  2  0  0  0
  4 11  2  0  0  0
  5 12  2  0  0  0
  6  7  2  0  0  0
  6 11  1  0  0  0
  7 15  1  0  0  0
  8 13  1  0  0  0
  8 14  1  0  0  0
 19 22  1  0  0  0
 19 16  1  0  0  0
  9 12  1  0  0  0
  9 14  1  0  0  0
 10 12  1  0  0  0
 10 17  1  0  0  0
 11 18  1  0  0  0
 13 15  1  0  0  0
 14 17  1  0  0  0
 15 18  1  0  0  0
 16 17  1  0  0  0
 16 18  1  0  0  0
M  END
> <minimizedAffinity>
-7.14748

$$$$
3OZJ_BGV_A_1


 22 24  0  0  0  0  0  0  0  0999 V2000
   12.9043   14.8117   19.0844 C   0  0  0  0  0  0  0  0  0  0  0  0
   17.2759   11.0548   16.4886 C   0  0  0  0  0  0  0  0  0  0  0  0
   16.2493   14.5740   15.3053 C   0  0  0  0  0  0  0  0  0  0  0  0
   14.3916   14.1446   13.2600 O   0  0  0  0  0  0  0  0  0  0  0  0
   15.1306   15.3261   20.9223 O   0  0  0  0  0  0  0  0  0  0  0  0
   14.7588   12.0847   13.8222 C   0  0  0  0  0  0  0  0  0  0  0  0
   15.0587   11.4425   14.9058 C   0  0  0  0  0  0  0  0  0  0  0  0
   16.7817   13.0806   17.8570 C   0  0  0  0  0  0  0  0  0  0  0  0
   16.3604   14.5270   19.2658 O   0  0  0  0  0  0  0  0  0  0  0  0
   14.2402   14.5916   18.9055 C   0  0  0  0  0  0  0  0  0  0  0  0
   14.6385   13.3329   14.0942 C   0  0  0  0  0  0  0  0  0  0  0  0
   15.2350   14.8693   19.8046 C   0  0  0  0  0  0  0  0  0  0  0  0
   16.6999   12.4393   16.4987 C   0  0  0  0  0  0  0  0  0  0  0  0
   16.1901   14.4188   17.9040 C   0  0  0  0  0  0  0  0  0  0  0  0
   15.2847   12.4163   16.0604 C   0  0  0  0  0  0  0  0  0  0  0  0
   14.0815   14.4233   16.3601 C   0  0  0  0  0  0  0  0  0  0  0  0
   14.8000   13.9762   17.6832 C   0  0  0  0  0  0  0  0  0  0  0  0
   15.0163   13.7124   15.4534 C   0  0  0  0  0  0  0  0  0  0  0  0
   12.7613   13.9486   16.1269 O   0  0  0  0  0  0  0  0  0  0  0  0
   12.1478   15.9946   15.1038 C   0  0  0  0  0  0  0  0  0  0  0  0
   10.7200   14.1998   15.4337 O   0  0  0  0  0  0  0  0  0  0  0  0
   11.8098   14.6542   15.6047 C   0  0  0  0  0  0  0  0  0  0  0  0
  1 10  2  0  0  0
 20 22  1  0  0  0
  2 13  1  0  0  0
  3 18  1  0  0  0
 21 22  2  0  0  0
  4 11  2  0  0  0
  5 12  2  0  0  0
  6  7  2  0  0  0
  6 11  1  0  0  0
  7 15  1  0  0  0
  8 13  1  0  0  0
  8 14  1  0  0  0
 19 22  1  0  0  0
 19 16  1  0  0  0
  9 12  1  0  0  0
  9 14  1  0  0  0
 10 12  1  0  0  0
 10 17  1  0  0  0
 11 18  1  0  0  0
 13 15  1  0  0  0
 14 17  1  0  0  0
 15 18  1  0  0  0
 16 17  1  0  0  0
 16 18  1  0  0  0
M  END
> <minimizedAffinity>
-7.14228

$$$$
3OZJ_BGV_A_1


 22 24  0  0  0  0  0  0  0  0999 V2000
   17.3044   12.6290   16.9265 C   0  0  0  0  0  0  0  0  0  0  0  0
   13.8070   17.6013   18.6606 C   0  0  0  0  0  0  0  0  0  0  0  0
   12.5698   14.0090   18.0252 C   0  0  0  0  0  0  0  0  0  0  0  0
   11.6203   14.0172   15.3952 O   0  0  0  0  0  0  0  0  0  0  0  0
   17.8980   12.6543   19.7980 O   0  0  0  0  0  0  0  0  0  0  0  0
   12.3279   16.0619   15.5064 C   0  0  0  0  0  0  0  0  0  0  0  0
   13.2761   16.6995   16.1158 C   0  0  0  0  0  0  0  0  0  0  0  0
   14.8729   15.4434   19.3148 C   0  0  0  0  0  0  0  0  0  0  0  0
   16.0464   13.8589   19.9203 O   0  0  0  0  0  0  0  0  0  0  0  0
   16.6166   13.2240   17.9452 C   0  0  0  0  0  0  0  0  0  0  0  0
   12.3996   14.8166   15.8069 C   0  0  0  0  0  0  0  0  0  0  0  0
   16.9425   13.1851   19.2746 C   0  0  0  0  0  0  0  0  0  0  0  0
   13.8156   16.1127   18.4798 C   0  0  0  0  0  0  0  0  0  0  0  0
   14.9292   13.9928   19.1271 C   0  0  0  0  0  0  0  0  0  0  0  0
   14.0324   15.7636   17.0563 C   0  0  0  0  0  0  0  0  0  0  0  0
   14.4545   13.4863   16.6076 C   0  0  0  0  0  0  0  0  0  0  0  0
   15.4026   14.0403   17.7304 C   0  0  0  0  0  0  0  0  0  0  0  0
   13.3781   14.4810   16.8384 C   0  0  0  0  0  0  0  0  0  0  0  0
   14.8929   13.5850   15.2582 O   0  0  0  0  0  0  0  0  0  0  0  0
   14.5579   13.1395   12.9563 C   0  0  0  0  0  0  0  0  0  0  0  0
   14.6862   11.5234   14.6118 O   0  0  0  0  0  0  0  0  0  0  0  0
   14.6788   12.6875   14.3502 C   0  0  0  0  0  0  0  0  0  0  0  0
  1 10  2  0  0  0
 20 22  1  0  0  0
  2 13  1  0  0  0
  3 18  1  0  0  0
 21 22  2  0  0  0
  4 11  2  0  0  0
  5 12  2  0  0  0
  6  7  2  0  0  0
  6 11  1  0  0  0
  7 15  1  0  0  0
  8 13  1  0  0  0
  8 14  1  0  0  0
 19 22  1  0  0  0
 19 16  1  0  0  0
  9 12  1  0  0  0
  9 14  1  0  0  0
 10 12  1  0  0  0
 10 17  1  0  0  0
 11 18  1  0  0  0
 13 15  1  0  0  0
 14 17  1  0  0  0
 15 18  1  0  0  0
 16 17  1  0  0  0
 16 18  1  0  0  0
M  END
> <minimizedAffinity>
-6.78968

$$$$
3OZJ_BGV_A_1


 22 24  0  0  0  0  0  0  0  0999 V2000
   16.0729   16.8338   21.0206 C   0  0  0  0  0  0  0  0  0  0  0  0
   12.7696   14.3560   16.2339 C   0  0  0  0  0  0  0  0  0  0  0  0
   15.0600   12.4675   18.6888 C   0  0  0  0  0  0  0  0  0  0  0  0
   17.5131   12.2336   17.3673 O   0  0  0  0  0  0  0  0  0  0  0  0
   13.4329   16.6825   22.2880 O   0  0  0  0  0  0  0  0  0  0  0  0
   16.4321   13.3741   15.8758 C   0  0  0  0  0  0  0  0  0  0  0  0
   15.4954   14.2682   15.8690 C   0  0  0  0  0  0  0  0  0  0  0  0
   13.0048   14.6585   18.6985 C   0  0  0  0  0  0  0  0  0  0  0  0
   13.0189   15.2156   20.6844 O   0  0  0  0  0  0  0  0  0  0  0  0
   14.9876   16.0835   20.6682 C   0  0  0  0  0  0  0  0  0  0  0  0
   16.7019   13.0587   17.0899 C   0  0  0  0  0  0  0  0  0  0  0  0
   13.7814   16.0488   21.3155 C   0  0  0  0  0  0  0  0  0  0  0  0
   13.5823   14.0411   17.4542 C   0  0  0  0  0  0  0  0  0  0  0  0
   13.8014   14.3994   19.8989 C   0  0  0  0  0  0  0  0  0  0  0  0
   14.9771   14.5116   17.2849 C   0  0  0  0  0  0  0  0  0  0  0  0
   16.3245   14.4557   19.2206 C   0  0  0  0  0  0  0  0  0  0  0  0
   14.9673   15.2016   19.4816 C   0  0  0  0  0  0  0  0  0  0  0  0
   15.8124   13.6360   18.0948 C   0  0  0  0  0  0  0  0  0  0  0  0
   17.4301   15.2259   18.7655 O   0  0  0  0  0  0  0  0  0  0  0  0
   18.9507   13.8850   19.9898 C   0  0  0  0  0  0  0  0  0  0  0  0
   19.5261   15.7884   18.8003 O   0  0  0  0  0  0  0  0  0  0  0  0
   18.6501   15.0665   19.1680 C   0  0  0  0  0  0  0  0  0  0  0  0
  1 10  2  0  0  0
 20 22  1  0  0  0
  2 13  1  0  0  0
  3 18  1  0  0  0
 21 22  2  0  0  0
  4 11  2  0  0  0
  5 12  2  0  0  0
  6  7  2  0  0  0
  6 11  1  0  0  0
  7 15  1  0  0  0
  8 13  1  0  0  0
  8 14  1  0  0  0
 19 22  1  0  0  0
 19 16  1  0  0  0
  9 12  1  0  0  0
  9 14  1  0  0  0
 10 12  1  0  0  0
 10 17  1  0  0  0
 11 18  1  0  0  0
 13 15  1  0  0  0
 14 17  1  0  0  0
 15 18  1  0  0  0
 16 17  1  0  0  0
 16 18  1  0  0  0
M  END
> <minimizedAffinity>
-6.56850

$$$$
