2ZJW_REF_A_336


 26 29  0  0  0  0  0  0  0  0999 V2000
   35.8551   -4.1424   11.6508 C   0  0  0  0  0  0  0  0  0  0  0  0
   36.4255   -4.7707   10.5616 C   0  0  0  0  0  0  0  0  0  0  0  0
   36.4240   -6.1403   10.5590 C   0  0  0  0  0  0  0  0  0  0  0  0
   35.8714   -6.8455   11.6233 C   0  0  0  0  0  0  0  0  0  0  0  0
   35.3319   -6.2242   12.6394 O   0  0  0  0  0  0  0  0  0  0  0  0
   35.3061   -4.9165   12.6773 C   0  0  0  0  0  0  0  0  0  0  0  0
   36.9915   -6.7657    9.4668 C   0  0  0  0  0  0  0  0  0  0  0  0
   37.0314   -8.1528    9.4107 C   0  0  0  0  0  0  0  0  0  0  0  0
   36.4956   -8.8770   10.4652 C   0  0  0  0  0  0  0  0  0  0  0  0
   35.9271   -8.2341   11.5497 C   0  0  0  0  0  0  0  0  0  0  0  0
   36.9906   -4.0738    9.4938 C   0  0  0  0  0  0  0  0  0  0  0  0
   37.5124   -4.6895    8.4731 O   0  0  0  0  0  0  0  0  0  0  0  0
   37.5232   -5.9926    8.4371 C   0  0  0  0  0  0  0  0  0  0  0  0
   35.8484   -2.7538   11.6880 C   0  0  0  0  0  0  0  0  0  0  0  0
   36.4242   -2.0436   10.6378 C   0  0  0  0  0  0  0  0  0  0  0  0
   36.9924   -2.6907    9.5453 C   0  0  0  0  0  0  0  0  0  0  0  0
   35.4484   -9.0200   12.5045 O   0  0  0  0  0  0  0  0  0  0  0  0
   36.5189  -10.2582   10.4667 O   0  0  0  0  0  0  0  0  0  0  0  0
   38.0630   -6.6287    7.3937 O   0  0  0  0  0  0  0  0  0  0  0  0
   37.5695   -1.9504    8.5253 O   0  0  0  0  0  0  0  0  0  0  0  0
   36.4470   -0.6832   10.6750 O   0  0  0  0  0  0  0  0  0  0  0  0
   34.7329   -4.2848   13.7320 O   0  0  0  0  0  0  0  0  0  0  0  0
   35.0508   -8.6442   13.2652 H   0  0  0  0  0  0  0  0  0  0  0  0
   36.8976  -10.7211    9.7455 H   0  0  0  0  0  0  0  0  0  0  0  0
   37.9524   -2.3857    7.7892 H   0  0  0  0  0  0  0  0  0  0  0  0
   36.0697   -0.2281   11.4020 H   0  0  0  0  0  0  0  0  0  0  0  0
  1  2  2  0  0  0
  1  6  1  0  0  0
  1 14  1  0  0  0
  2  3  1  0  0  0
  2 11  1  0  0  0
  3  4  2  0  0  0
  3  7  1  0  0  0
  4  5  1  0  0  0
  4 10  1  0  0  0
  5  6  1  0  0  0
  6 22  2  0  0  0
  7  8  2  0  0  0
  7 13  1  0  0  0
  8  9  1  0  0  0
  9 10  2  0  0  0
  9 18  1  0  0  0
 10 17  1  0  0  0
 11 12  1  0  0  0
 11 16  2  0  0  0
 12 13  1  0  0  0
 13 19  2  0  0  0
 14 15  2  0  0  0
 15 16  1  0  0  0
 15 21  1  0  0  0
 16 20  1  0  0  0
 17 23  1  0  0  0
 18 24  1  0  0  0
 20 25  1  0  0  0
 21 26  1  0  0  0
M  END
> <minimizedAffinity>
-10.80191

$$$$
2ZJW_REF_A_336


 26 29  0  0  0  0  0  0  0  0999 V2000
   37.0277   -6.8030    9.3959 C   0  0  0  0  0  0  0  0  0  0  0  0
   36.4583   -6.1953   10.4972 C   0  0  0  0  0  0  0  0  0  0  0  0
   36.4541   -4.8259   10.5225 C   0  0  0  0  0  0  0  0  0  0  0  0
   37.0120   -4.1009    9.4745 C   0  0  0  0  0  0  0  0  0  0  0  0
   37.5392   -4.7028    8.4405 O   0  0  0  0  0  0  0  0  0  0  0  0
   37.5567   -6.0095    8.3736 C   0  0  0  0  0  0  0  0  0  0  0  0
   35.8805   -4.2211   11.6231 C   0  0  0  0  0  0  0  0  0  0  0  0
   35.8560   -2.8354   11.7134 C   0  0  0  0  0  0  0  0  0  0  0  0
   36.4155   -2.0918   10.6850 C   0  0  0  0  0  0  0  0  0  0  0  0
   36.9822   -2.7142    9.5877 C   0  0  0  0  0  0  0  0  0  0  0  0
   35.9046   -6.9123   11.5576 C   0  0  0  0  0  0  0  0  0  0  0  0
   35.3636   -6.3156   12.5797 O   0  0  0  0  0  0  0  0  0  0  0  0
   35.3390   -5.0134   12.6330 C   0  0  0  0  0  0  0  0  0  0  0  0
   37.0557   -8.1909    9.3437 C   0  0  0  0  0  0  0  0  0  0  0  0
   36.5226   -8.9211   10.4027 C   0  0  0  0  0  0  0  0  0  0  0  0
   35.9491   -8.2945   11.5044 C   0  0  0  0  0  0  0  0  0  0  0  0
   37.4924   -1.9107    8.6643 O   0  0  0  0  0  0  0  0  0  0  0  0
   36.4288   -0.7111   10.7286 O   0  0  0  0  0  0  0  0  0  0  0  0
   34.7897   -4.3969   13.6832 O   0  0  0  0  0  0  0  0  0  0  0  0
   35.4415   -9.0546   12.5466 O   0  0  0  0  0  0  0  0  0  0  0  0
   36.5674  -10.2811   10.3752 O   0  0  0  0  0  0  0  0  0  0  0  0
   38.0963   -6.6210    7.2897 O   0  0  0  0  0  0  0  0  0  0  0  0
   37.8905   -2.2722    7.8970 H   0  0  0  0  0  0  0  0  0  0  0  0
   36.0522   -0.2619   11.4596 H   0  0  0  0  0  0  0  0  0  0  0  0
   35.0551   -8.6332   13.2889 H   0  0  0  0  0  0  0  0  0  0  0  0
   36.9494  -10.7225    9.6423 H   0  0  0  0  0  0  0  0  0  0  0  0
  1  2  2  0  0  0
  1  6  1  0  0  0
  1 14  1  0  0  0
  2  3  1  0  0  0
  2 11  1  0  0  0
  3  4  2  0  0  0
  3  7  1  0  0  0
  4  5  1  0  0  0
  4 10  1  0  0  0
  5  6  1  0  0  0
  6 22  2  0  0  0
  7  8  2  0  0  0
  7 13  1  0  0  0
  8  9  1  0  0  0
  9 10  2  0  0  0
  9 18  1  0  0  0
 10 17  1  0  0  0
 11 12  1  0  0  0
 11 16  2  0  0  0
 12 13  1  0  0  0
 13 19  2  0  0  0
 14 15  2  0  0  0
 15 16  1  0  0  0
 15 21  1  0  0  0
 16 20  1  0  0  0
 17 23  1  0  0  0
 18 24  1  0  0  0
 20 25  1  0  0  0
 21 26  1  0  0  0
M  END
> <minimizedAffinity>
-10.77560

$$$$
2ZJW_REF_A_336


 26 29  0  0  0  0  0  0  0  0999 V2000
   36.1318   -3.2825   11.4012 C   0  0  0  0  0  0  0  0  0  0  0  0
   36.5612   -3.6841   10.1519 C   0  0  0  0  0  0  0  0  0  0  0  0
   36.9098   -2.7003    9.2651 C   0  0  0  0  0  0  0  0  0  0  0  0
   36.8199   -1.3606    9.6290 C   0  0  0  0  0  0  0  0  0  0  0  0
   36.4158   -1.0090   10.8218 O   0  0  0  0  0  0  0  0  0  0  0  0
   36.0806   -1.9180   11.7012 C   0  0  0  0  0  0  0  0  0  0  0  0
   37.3425   -3.1050    8.0181 C   0  0  0  0  0  0  0  0  0  0  0  0
   37.6990   -2.1545    7.0703 C   0  0  0  0  0  0  0  0  0  0  0  0
   37.6078   -0.8123    7.4073 C   0  0  0  0  0  0  0  0  0  0  0  0
   37.1763   -0.4246    8.6628 C   0  0  0  0  0  0  0  0  0  0  0  0
   36.6462   -5.0237    9.7733 C   0  0  0  0  0  0  0  0  0  0  0  0
   37.0648   -5.3770    8.5929 O   0  0  0  0  0  0  0  0  0  0  0  0
   37.4087   -4.4657    7.7266 C   0  0  0  0  0  0  0  0  0  0  0  0
   35.7625   -4.2558   12.3210 C   0  0  0  0  0  0  0  0  0  0  0  0
   35.8253   -5.5970   11.9524 C   0  0  0  0  0  0  0  0  0  0  0  0
   36.2631   -5.9865   10.6908 C   0  0  0  0  0  0  0  0  0  0  0  0
   37.1218    0.8824    8.8796 O   0  0  0  0  0  0  0  0  0  0  0  0
   37.9385    0.1751    6.4996 O   0  0  0  0  0  0  0  0  0  0  0  0
   37.8335   -4.8238    6.5117 O   0  0  0  0  0  0  0  0  0  0  0  0
   36.2982   -7.3309   10.3546 O   0  0  0  0  0  0  0  0  0  0  0  0
   35.4415   -6.5586   12.8359 O   0  0  0  0  0  0  0  0  0  0  0  0
   35.6741   -1.5397   12.9389 O   0  0  0  0  0  0  0  0  0  0  0  0
   36.8372    1.2080    9.7108 H   0  0  0  0  0  0  0  0  0  0  0  0
   38.2340   -0.0574    5.6413 H   0  0  0  0  0  0  0  0  0  0  0  0
   36.5930   -7.5938    9.5050 H   0  0  0  0  0  0  0  0  0  0  0  0
   35.1434   -6.3174   13.6908 H   0  0  0  0  0  0  0  0  0  0  0  0
  1  2  2  0  0  0
  1  6  1  0  0  0
  1 14  1  0  0  0
  2  3  1  0  0  0
  2 11  1  0  0  0
  3  4  2  0  0  0
  3  7  1  0  0  0
  4  5  1  0  0  0
  4 10  1  0  0  0
  5  6  1  0  0  0
  6 22  2  0  0  0
  7  8  2  0  0  0
  7 13  1  0  0  0
  8  9  1  0  0  0
  9 10  2  0  0  0
  9 18  1  0  0  0
 10 17  1  0  0  0
 11 12  1  0  0  0
 11 16  2  0  0  0
 12 13  1  0  0  0
 13 19  2  0  0  0
 14 15  2  0  0  0
 15 16  1  0  0  0
 15 21  1  0  0  0
 16 20  1  0  0  0
 17 23  1  0  0  0
 18 24  1  0  0  0
 20 25  1  0  0  0
 21 26  1  0  0  0
M  END
> <minimizedAffinity>
-10.31768

$$$$
2ZJW_REF_A_336


 26 29  0  0  0  0  0  0  0  0999 V2000
   37.3830   -3.0075    7.9689 C   0  0  0  0  0  0  0  0  0  0  0  0
   36.9507   -2.6113    9.2190 C   0  0  0  0  0  0  0  0  0  0  0  0
   36.5887   -3.5984   10.0966 C   0  0  0  0  0  0  0  0  0  0  0  0
   36.6561   -4.9356    9.7187 C   0  0  0  0  0  0  0  0  0  0  0  0
   37.0755   -5.2825    8.5299 O   0  0  0  0  0  0  0  0  0  0  0  0
   37.4379   -4.3708    7.6642 C   0  0  0  0  0  0  0  0  0  0  0  0
   36.1607   -3.1994   11.3471 C   0  0  0  0  0  0  0  0  0  0  0  0
   35.7684   -4.1526   12.2779 C   0  0  0  0  0  0  0  0  0  0  0  0
   35.8175   -5.4916   11.9199 C   0  0  0  0  0  0  0  0  0  0  0  0
   36.2531   -5.8739   10.6642 C   0  0  0  0  0  0  0  0  0  0  0  0
   36.8704   -1.2735    9.6050 C   0  0  0  0  0  0  0  0  0  0  0  0
   36.4700   -0.9262   10.7935 O   0  0  0  0  0  0  0  0  0  0  0  0
   36.1224   -1.8412   11.6545 C   0  0  0  0  0  0  0  0  0  0  0  0
   37.7492   -2.0301    7.0523 C   0  0  0  0  0  0  0  0  0  0  0  0
   37.6581   -0.6893    7.4166 C   0  0  0  0  0  0  0  0  0  0  0  0
   37.2237   -0.3054    8.6812 C   0  0  0  0  0  0  0  0  0  0  0  0
   36.2568   -7.1779   10.4235 O   0  0  0  0  0  0  0  0  0  0  0  0
   35.4283   -6.4806   12.8024 O   0  0  0  0  0  0  0  0  0  0  0  0
   35.7054   -1.4887   12.8738 O   0  0  0  0  0  0  0  0  0  0  0  0
   37.1321    1.0397    9.0030 O   0  0  0  0  0  0  0  0  0  0  0  0
   37.9893    0.2784    6.5186 O   0  0  0  0  0  0  0  0  0  0  0  0
   37.8822   -4.7452    6.4384 O   0  0  0  0  0  0  0  0  0  0  0  0
   36.5412   -7.4998    9.5908 H   0  0  0  0  0  0  0  0  0  0  0  0
   35.1286   -6.2517   13.6601 H   0  0  0  0  0  0  0  0  0  0  0  0
   36.8395    1.2988    9.8547 H   0  0  0  0  0  0  0  0  0  0  0  0
   38.2842    0.0410    5.6615 H   0  0  0  0  0  0  0  0  0  0  0  0
  1  2  2  0  0  0
  1  6  1  0  0  0
  1 14  1  0  0  0
  2  3  1  0  0  0
  2 11  1  0  0  0
  3  4  2  0  0  0
  3  7  1  0  0  0
  4  5  1  0  0  0
  4 10  1  0  0  0
  5  6  1  0  0  0
  6 22  2  0  0  0
  7  8  2  0  0  0
  7 13  1  0  0  0
  8  9  1  0  0  0
  9 10  2  0  0  0
  9 18  1  0  0  0
 10 17  1  0  0  0
 11 12  1  0  0  0
 11 16  2  0  0  0
 12 13  1  0  0  0
 13 19  2  0  0  0
 14 15  2  0  0  0
 15 16  1  0  0  0
 15 21  1  0  0  0
 16 20  1  0  0  0
 17 23  1  0  0  0
 18 24  1  0  0  0
 20 25  1  0  0  0
 21 26  1  0  0  0
M  END
> <minimizedAffinity>
-10.30454

$$$$
2ZJW_REF_A_336


 26 29  0  0  0  0  0  0  0  0999 V2000
   37.2873   -5.1894    8.3021 C   0  0  0  0  0  0  0  0  0  0  0  0
   36.7471   -5.0572    9.5659 C   0  0  0  0  0  0  0  0  0  0  0  0
   36.4965   -6.2098   10.2618 C   0  0  0  0  0  0  0  0  0  0  0  0
   36.7765   -7.4491    9.6952 C   0  0  0  0  0  0  0  0  0  0  0  0
   37.2940   -7.5445    8.4982 O   0  0  0  0  0  0  0  0  0  0  0  0
   37.5557   -6.4674    7.8029 C   0  0  0  0  0  0  0  0  0  0  0  0
   35.9602   -6.0743   11.5268 C   0  0  0  0  0  0  0  0  0  0  0  0
   35.6723   -7.2062   12.2782 C   0  0  0  0  0  0  0  0  0  0  0  0
   35.9337   -8.4530   11.7298 C   0  0  0  0  0  0  0  0  0  0  0  0
   36.4752   -8.5703   10.4626 C   0  0  0  0  0  0  0  0  0  0  0  0
   36.4538   -3.8204   10.1399 C   0  0  0  0  0  0  0  0  0  0  0  0
   35.9552   -3.7219   11.3378 O   0  0  0  0  0  0  0  0  0  0  0  0
   35.7088   -4.7994   12.0290 C   0  0  0  0  0  0  0  0  0  0  0  0
   37.5452   -4.0396    7.5666 C   0  0  0  0  0  0  0  0  0  0  0  0
   37.2418   -2.7979    8.1188 C   0  0  0  0  0  0  0  0  0  0  0  0
   36.7007   -2.6804    9.3950 C   0  0  0  0  0  0  0  0  0  0  0  0
   36.6815   -9.8074   10.0321 O   0  0  0  0  0  0  0  0  0  0  0  0
   35.6562   -9.6120   12.4284 O   0  0  0  0  0  0  0  0  0  0  0  0
   35.1916   -4.7030   13.2570 O   0  0  0  0  0  0  0  0  0  0  0  0
   36.3980   -1.4279    9.9059 O   0  0  0  0  0  0  0  0  0  0  0  0
   37.4657   -1.6654    7.3979 O   0  0  0  0  0  0  0  0  0  0  0  0
   38.1033   -6.5804    6.5671 O   0  0  0  0  0  0  0  0  0  0  0  0
   37.0463   -9.9527    9.1813 H   0  0  0  0  0  0  0  0  0  0  0  0
   35.2889   -9.5637   13.2890 H   0  0  0  0  0  0  0  0  0  0  0  0
   36.0336   -1.3481   10.7655 H   0  0  0  0  0  0  0  0  0  0  0  0
   37.8295   -1.7228    6.5363 H   0  0  0  0  0  0  0  0  0  0  0  0
  1  2  2  0  0  0
  1  6  1  0  0  0
  1 14  1  0  0  0
  2  3  1  0  0  0
  2 11  1  0  0  0
  3  4  2  0  0  0
  3  7  1  0  0  0
  4  5  1  0  0  0
  4 10  1  0  0  0
  5  6  1  0  0  0
  6 22  2  0  0  0
  7  8  2  0  0  0
  7 13  1  0  0  0
  8  9  1  0  0  0
  9 10  2  0  0  0
  9 18  1  0  0  0
 10 17  1  0  0  0
 11 12  1  0  0  0
 11 16  2  0  0  0
 12 13  1  0  0  0
 13 19  2  0  0  0
 14 15  2  0  0  0
 15 16  1  0  0  0
 15 21  1  0  0  0
 16 20  1  0  0  0
 17 23  1  0  0  0
 18 24  1  0  0  0
 20 25  1  0  0  0
 21 26  1  0  0  0
M  END
> <minimizedAffinity>
-10.16223

$$$$
2ZJW_REF_A_336


 26 29  0  0  0  0  0  0  0  0999 V2000
   35.9575   -6.0726   11.5307 C   0  0  0  0  0  0  0  0  0  0  0  0
   36.5022   -6.2029   10.2686 C   0  0  0  0  0  0  0  0  0  0  0  0
   36.7457   -5.0495    9.5713 C   0  0  0  0  0  0  0  0  0  0  0  0
   36.4421   -3.8120   10.1297 C   0  0  0  0  0  0  0  0  0  0  0  0
   35.9324   -3.7180   11.3301 O   0  0  0  0  0  0  0  0  0  0  0  0
   35.6916   -4.7952   12.0327 C   0  0  0  0  0  0  0  0  0  0  0  0
   37.2941   -5.1827    8.3113 C   0  0  0  0  0  0  0  0  0  0  0  0
   37.5532   -4.0509    7.5493 C   0  0  0  0  0  0  0  0  0  0  0  0
   37.2492   -2.8068    8.0814 C   0  0  0  0  0  0  0  0  0  0  0  0
   36.7042   -2.6915    9.3472 C   0  0  0  0  0  0  0  0  0  0  0  0
   36.8017   -7.4386    9.6955 C   0  0  0  0  0  0  0  0  0  0  0  0
   37.3253   -7.5343    8.5081 O   0  0  0  0  0  0  0  0  0  0  0  0
   37.5737   -6.4557    7.8193 C   0  0  0  0  0  0  0  0  0  0  0  0
   35.6904   -7.2239   12.2607 C   0  0  0  0  0  0  0  0  0  0  0  0
   35.9677   -8.4659   11.6955 C   0  0  0  0  0  0  0  0  0  0  0  0
   36.5196   -8.5811   10.4238 C   0  0  0  0  0  0  0  0  0  0  0  0
   36.4476   -1.4571    9.7582 O   0  0  0  0  0  0  0  0  0  0  0  0
   37.4756   -1.6489    7.3627 O   0  0  0  0  0  0  0  0  0  0  0  0
   38.1059   -6.5497    6.5976 O   0  0  0  0  0  0  0  0  0  0  0  0
   36.7684   -9.8352    9.8881 O   0  0  0  0  0  0  0  0  0  0  0  0
   35.6863   -9.6018   12.3904 O   0  0  0  0  0  0  0  0  0  0  0  0
   35.1735   -4.6827   13.2813 O   0  0  0  0  0  0  0  0  0  0  0  0
   36.0777   -1.3132   10.6070 H   0  0  0  0  0  0  0  0  0  0  0  0
   37.8439   -1.6960    6.5025 H   0  0  0  0  0  0  0  0  0  0  0  0
   37.1401   -9.9134    9.0316 H   0  0  0  0  0  0  0  0  0  0  0  0
   35.3143   -9.5460   13.2486 H   0  0  0  0  0  0  0  0  0  0  0  0
  1  2  2  0  0  0
  1  6  1  0  0  0
  1 14  1  0  0  0
  2  3  1  0  0  0
  2 11  1  0  0  0
  3  4  2  0  0  0
  3  7  1  0  0  0
  4  5  1  0  0  0
  4 10  1  0  0  0
  5  6  1  0  0  0
  6 22  2  0  0  0
  7  8  2  0  0  0
  7 13  1  0  0  0
  8  9  1  0  0  0
  9 10  2  0  0  0
  9 18  1  0  0  0
 10 17  1  0  0  0
 11 12  1  0  0  0
 11 16  2  0  0  0
 12 13  1  0  0  0
 13 19  2  0  0  0
 14 15  2  0  0  0
 15 16  1  0  0  0
 15 21  1  0  0  0
 16 20  1  0  0  0
 17 23  1  0  0  0
 18 24  1  0  0  0
 20 25  1  0  0  0
 21 26  1  0  0  0
M  END
> <minimizedAffinity>
-10.14470

$$$$
2ZJW_REF_A_336


 26 29  0  0  0  0  0  0  0  0999 V2000
   36.7484   -4.5318    9.6719 C   0  0  0  0  0  0  0  0  0  0  0  0
   36.3642   -5.6694   10.3535 C   0  0  0  0  0  0  0  0  0  0  0  0
   36.5738   -6.8712    9.7311 C   0  0  0  0  0  0  0  0  0  0  0  0
   37.1448   -6.9171    8.4633 C   0  0  0  0  0  0  0  0  0  0  0  0
   37.5050   -5.8237    7.8434 O   0  0  0  0  0  0  0  0  0  0  0  0
   37.3291   -4.6557    8.4062 C   0  0  0  0  0  0  0  0  0  0  0  0
   36.1924   -8.0073   10.4167 C   0  0  0  0  0  0  0  0  0  0  0  0
   36.3678   -9.2555    9.8338 C   0  0  0  0  0  0  0  0  0  0  0  0
   36.9259   -9.3253    8.5661 C   0  0  0  0  0  0  0  0  0  0  0  0
   37.3063   -8.1772    7.8952 C   0  0  0  0  0  0  0  0  0  0  0  0
   35.7825   -5.6345   11.6206 C   0  0  0  0  0  0  0  0  0  0  0  0
   35.4392   -6.7221   12.2472 O   0  0  0  0  0  0  0  0  0  0  0  0
   35.6291   -7.8827   11.6848 C   0  0  0  0  0  0  0  0  0  0  0  0
   36.5413   -3.2963   10.2722 C   0  0  0  0  0  0  0  0  0  0  0  0
   35.9457   -3.2436   11.5297 C   0  0  0  0  0  0  0  0  0  0  0  0
   35.5669   -4.3989   12.2057 C   0  0  0  0  0  0  0  0  0  0  0  0
   37.8249   -8.3557    6.6879 O   0  0  0  0  0  0  0  0  0  0  0  0
   37.1124  -10.5397    7.9346 O   0  0  0  0  0  0  0  0  0  0  0  0
   35.2729   -9.0014   12.3221 O   0  0  0  0  0  0  0  0  0  0  0  0
   34.9631   -4.3064   13.4501 O   0  0  0  0  0  0  0  0  0  0  0  0
   35.7139   -2.0379   12.1170 O   0  0  0  0  0  0  0  0  0  0  0  0
   37.7180   -3.5300    7.7568 O   0  0  0  0  0  0  0  0  0  0  0  0
   38.1019   -7.6165    6.1831 H   0  0  0  0  0  0  0  0  0  0  0  0
   36.8642  -11.3343    8.3646 H   0  0  0  0  0  0  0  0  0  0  0  0
   34.7077   -5.0842   13.9059 H   0  0  0  0  0  0  0  0  0  0  0  0
   35.9615   -1.2478   11.6784 H   0  0  0  0  0  0  0  0  0  0  0  0
  1  2  2  0  0  0
  1  6  1  0  0  0
  1 14  1  0  0  0
  2  3  1  0  0  0
  2 11  1  0  0  0
  3  4  2  0  0  0
  3  7  1  0  0  0
  4  5  1  0  0  0
  4 10  1  0  0  0
  5  6  1  0  0  0
  6 22  2  0  0  0
  7  8  2  0  0  0
  7 13  1  0  0  0
  8  9  1  0  0  0
  9 10  2  0  0  0
  9 18  1  0  0  0
 10 17  1  0  0  0
 11 12  1  0  0  0
 11 16  2  0  0  0
 12 13  1  0  0  0
 13 19  2  0  0  0
 14 15  2  0  0  0
 15 16  1  0  0  0
 15 21  1  0  0  0
 16 20  1  0  0  0
 17 23  1  0  0  0
 18 24  1  0  0  0
 20 25  1  0  0  0
 21 26  1  0  0  0
M  END
> <minimizedAffinity>
-10.04442

$$$$
2ZJW_REF_A_336


 26 29  0  0  0  0  0  0  0  0999 V2000
   36.1933   -8.0391   10.4288 C   0  0  0  0  0  0  0  0  0  0  0  0
   36.5729   -6.8986    9.7494 C   0  0  0  0  0  0  0  0  0  0  0  0
   36.3576   -5.6988   10.3737 C   0  0  0  0  0  0  0  0  0  0  0  0
   35.7735   -5.6569   11.6357 C   0  0  0  0  0  0  0  0  0  0  0  0
   35.4295   -6.7536   12.2589 O   0  0  0  0  0  0  0  0  0  0  0  0
   35.6250   -7.9207   11.7006 C   0  0  0  0  0  0  0  0  0  0  0  0
   36.7418   -4.5604    9.6936 C   0  0  0  0  0  0  0  0  0  0  0  0
   36.5389   -3.3126   10.2686 C   0  0  0  0  0  0  0  0  0  0  0  0
   35.9489   -3.2457   11.5220 C   0  0  0  0  0  0  0  0  0  0  0  0
   35.5740   -4.3966   12.1910 C   0  0  0  0  0  0  0  0  0  0  0  0
   37.1505   -6.9285    8.4802 C   0  0  0  0  0  0  0  0  0  0  0  0
   37.5100   -5.8395    7.8652 O   0  0  0  0  0  0  0  0  0  0  0  0
   37.3232   -4.6813    8.4334 C   0  0  0  0  0  0  0  0  0  0  0  0
   36.3902   -9.2717    9.8191 C   0  0  0  0  0  0  0  0  0  0  0  0
   36.9498   -9.3174    8.5450 C   0  0  0  0  0  0  0  0  0  0  0  0
   37.3304   -8.1597    7.8741 C   0  0  0  0  0  0  0  0  0  0  0  0
   35.0150   -4.2202   13.3805 O   0  0  0  0  0  0  0  0  0  0  0  0
   35.7131   -2.0306   12.1354 O   0  0  0  0  0  0  0  0  0  0  0  0
   37.6855   -3.5605    7.8031 O   0  0  0  0  0  0  0  0  0  0  0  0
   37.8709   -8.2435    6.6004 O   0  0  0  0  0  0  0  0  0  0  0  0
   37.1238  -10.5173    7.9266 O   0  0  0  0  0  0  0  0  0  0  0  0
   35.2740   -9.0512   12.3632 O   0  0  0  0  0  0  0  0  0  0  0  0
   34.7393   -4.9613   13.8831 H   0  0  0  0  0  0  0  0  0  0  0  0
   35.9564   -1.2340   11.7062 H   0  0  0  0  0  0  0  0  0  0  0  0
   38.1273   -7.4641    6.1480 H   0  0  0  0  0  0  0  0  0  0  0  0
   36.8741  -11.3089    8.3612 H   0  0  0  0  0  0  0  0  0  0  0  0
  1  2  2  0  0  0
  1  6  1  0  0  0
  1 14  1  0  0  0
  2  3  1  0  0  0
  2 11  1  0  0  0
  3  4  2  0  0  0
  3  7  1  0  0  0
  4  5  1  0  0  0
  4 10  1  0  0  0
  5  6  1  0  0  0
  6 22  2  0  0  0
  7  8  2  0  0  0
  7 13  1  0  0  0
  8  9  1  0  0  0
  9 10  2  0  0  0
  9 18  1  0  0  0
 10 17  1  0  0  0
 11 12  1  0  0  0
 11 16  2  0  0  0
 12 13  1  0  0  0
 13 19  2  0  0  0
 14 15  2  0  0  0
 15 16  1  0  0  0
 15 21  1  0  0  0
 16 20  1  0  0  0
 17 23  1  0  0  0
 18 24  1  0  0  0
 20 25  1  0  0  0
 21 26  1  0  0  0
M  END
> <minimizedAffinity>
-10.03419

$$$$
2ZJW_REF_A_336


 26 29  0  0  0  0  0  0  0  0999 V2000
   36.0628   -4.6003   11.3994 C   0  0  0  0  0  0  0  0  0  0  0  0
   36.5568   -4.2605   10.1555 C   0  0  0  0  0  0  0  0  0  0  0  0
   36.8465   -5.2873    9.2967 C   0  0  0  0  0  0  0  0  0  0  0  0
   36.6494   -6.6080    9.6867 C   0  0  0  0  0  0  0  0  0  0  0  0
   36.1741   -6.9007   10.8691 O   0  0  0  0  0  0  0  0  0  0  0  0
   35.8773   -5.9491   11.7168 C   0  0  0  0  0  0  0  0  0  0  0  0
   37.3365   -4.9443    8.0523 C   0  0  0  0  0  0  0  0  0  0  0  0
   37.6606   -5.9406    7.1407 C   0  0  0  0  0  0  0  0  0  0  0  0
   37.4819   -7.2651    7.5113 C   0  0  0  0  0  0  0  0  0  0  0  0
   36.9859   -7.5906    8.7605 C   0  0  0  0  0  0  0  0  0  0  0  0
   36.7671   -2.9404    9.7576 C   0  0  0  0  0  0  0  0  0  0  0  0
   37.2234   -2.6457    8.5751 O   0  0  0  0  0  0  0  0  0  0  0  0
   37.5051   -3.5990    7.7318 C   0  0  0  0  0  0  0  0  0  0  0  0
   35.7672   -3.5824   12.2971 C   0  0  0  0  0  0  0  0  0  0  0  0
   35.9880   -2.2600   11.9212 C   0  0  0  0  0  0  0  0  0  0  0  0
   36.4832   -1.9329   10.6630 C   0  0  0  0  0  0  0  0  0  0  0  0
   36.8581   -8.8858    9.0145 O   0  0  0  0  0  0  0  0  0  0  0  0
   37.7987   -8.2962    6.6483 O   0  0  0  0  0  0  0  0  0  0  0  0
   37.9791   -3.3011    6.5189 O   0  0  0  0  0  0  0  0  0  0  0  0
   36.7041   -0.6057   10.3295 O   0  0  0  0  0  0  0  0  0  0  0  0
   35.7267   -1.2552   12.8013 O   0  0  0  0  0  0  0  0  0  0  0  0
   35.3740   -6.2664   12.9359 O   0  0  0  0  0  0  0  0  0  0  0  0
   36.5273   -9.1702    9.8438 H   0  0  0  0  0  0  0  0  0  0  0  0
   38.1367   -8.1061    5.7953 H   0  0  0  0  0  0  0  0  0  0  0  0
   37.0376   -0.3848    9.4822 H   0  0  0  0  0  0  0  0  0  0  0  0
   35.3927   -1.4542   13.6538 H   0  0  0  0  0  0  0  0  0  0  0  0
  1  2  2  0  0  0
  1  6  1  0  0  0
  1 14  1  0  0  0
  2  3  1  0  0  0
  2 11  1  0  0  0
  3  4  2  0  0  0
  3  7  1  0  0  0
  4  5  1  0  0  0
  4 10  1  0  0  0
  5  6  1  0  0  0
  6 22  2  0  0  0
  7  8  2  0  0  0
  7 13  1  0  0  0
  8  9  1  0  0  0
  9 10  2  0  0  0
  9 18  1  0  0  0
 10 17  1  0  0  0
 11 12  1  0  0  0
 11 16  2  0  0  0
 12 13  1  0  0  0
 13 19  2  0  0  0
 14 15  2  0  0  0
 15 16  1  0  0  0
 15 21  1  0  0  0
 16 20  1  0  0  0
 17 23  1  0  0  0
 18 24  1  0  0  0
 20 25  1  0  0  0
 21 26  1  0  0  0
M  END
> <minimizedAffinity>
-10.00806

$$$$
2ZJW_REF_A_336


 26 29  0  0  0  0  0  0  0  0999 V2000
   36.1651   -5.1488   11.0671 C   0  0  0  0  0  0  0  0  0  0  0  0
   36.6628   -5.4066    9.8052 C   0  0  0  0  0  0  0  0  0  0  0  0
   36.7679   -6.7200    9.4316 C   0  0  0  0  0  0  0  0  0  0  0  0
   36.3893   -7.7332   10.3065 C   0  0  0  0  0  0  0  0  0  0  0  0
   35.9151   -7.4597   11.4939 O   0  0  0  0  0  0  0  0  0  0  0  0
   35.7914   -6.2178   11.8869 C   0  0  0  0  0  0  0  0  0  0  0  0
   37.2621   -6.9745    8.1678 C   0  0  0  0  0  0  0  0  0  0  0  0
   37.4040   -8.2864    7.7346 C   0  0  0  0  0  0  0  0  0  0  0  0
   37.0425   -9.3134    8.5937 C   0  0  0  0  0  0  0  0  0  0  0  0
   36.5451   -9.0402    9.8549 C   0  0  0  0  0  0  0  0  0  0  0  0
   37.0540   -4.3991    8.9237 C   0  0  0  0  0  0  0  0  0  0  0  0
   37.5098   -4.6679    7.7348 O   0  0  0  0  0  0  0  0  0  0  0  0
   37.6184   -5.9074    7.3461 C   0  0  0  0  0  0  0  0  0  0  0  0
   36.0541   -3.8270   11.4799 C   0  0  0  0  0  0  0  0  0  0  0  0
   36.4567   -2.8104   10.6179 C   0  0  0  0  0  0  0  0  0  0  0  0
   36.9533   -3.0856    9.3479 C   0  0  0  0  0  0  0  0  0  0  0  0
   36.2343  -10.0944   10.5969 O   0  0  0  0  0  0  0  0  0  0  0  0
   37.1736  -10.6365    8.2187 O   0  0  0  0  0  0  0  0  0  0  0  0
   38.0912   -6.1879    6.1285 O   0  0  0  0  0  0  0  0  0  0  0  0
   37.3581   -2.0478    8.5229 O   0  0  0  0  0  0  0  0  0  0  0  0
   36.3771   -1.5127   11.0206 O   0  0  0  0  0  0  0  0  0  0  0  0
   35.2871   -5.9480   13.1169 O   0  0  0  0  0  0  0  0  0  0  0  0
   35.8925   -9.9747   11.4611 H   0  0  0  0  0  0  0  0  0  0  0  0
   37.5077  -10.8521    7.3703 H   0  0  0  0  0  0  0  0  0  0  0  0
   37.6927   -2.2325    7.6674 H   0  0  0  0  0  0  0  0  0  0  0  0
   36.0456   -1.3060   11.8722 H   0  0  0  0  0  0  0  0  0  0  0  0
  1  2  2  0  0  0
  1  6  1  0  0  0
  1 14  1  0  0  0
  2  3  1  0  0  0
  2 11  1  0  0  0
  3  4  2  0  0  0
  3  7  1  0  0  0
  4  5  1  0  0  0
  4 10  1  0  0  0
  5  6  1  0  0  0
  6 22  2  0  0  0
  7  8  2  0  0  0
  7 13  1  0  0  0
  8  9  1  0  0  0
  9 10  2  0  0  0
  9 18  1  0  0  0
 10 17  1  0  0  0
 11 12  1  0  0  0
 11 16  2  0  0  0
 12 13  1  0  0  0
 13 19  2  0  0  0
 14 15  2  0  0  0
 15 16  1  0  0  0
 15 21  1  0  0  0
 16 20  1  0  0  0
 17 23  1  0  0  0
 18 24  1  0  0  0
 20 25  1  0  0  0
 21 26  1  0  0  0
M  END
> <minimizedAffinity>
-9.95983

$$$$
