6CE6_EYP_A_1307


 24 26  0  0  0  0  0  0  0  0999 V2000
    0.9208    1.7157    7.7689 C   0  0  0  0  0  0  0  0  0  0  0  0
   -1.0192    2.6157    7.2036 C   0  0  0  0  0  0  0  0  0  0  0  0
   -1.8694    3.5655    6.6616 C   0  0  0  0  0  0  0  0  0  0  0  0
   -3.1923    3.6254    7.0985 C   0  0  0  0  0  0  0  0  0  0  0  0
   -5.2133    4.4794    7.3335 C   0  0  0  0  0  0  0  0  0  0  0  0
   -4.0890    4.6040    6.7051 N   0  0  0  0  0  0  0  0  0  0  0  0
   -5.3274    3.1542    8.4663 S   0  0  0  0  0  0  0  0  0  0  0  0
   -3.6696    2.7138    8.0497 C   0  0  0  0  0  0  0  0  0  0  0  0
   -2.8497    1.6882    8.5495 C   0  0  0  0  0  0  0  0  0  0  0  0
   -1.5069    1.6813    8.1285 C   0  0  0  0  0  0  0  0  0  0  0  0
    0.3653    2.5989    7.0090 N   0  0  0  0  0  0  0  0  0  0  0  0
   -0.1544    0.7608    8.7593 S   0  0  0  0  0  0  0  0  0  0  0  0
    2.4040    1.6502    7.9606 C   0  0  0  0  0  0  0  0  0  0  0  0
    3.0044    2.8278    8.7008 C   0  0  0  0  0  0  0  0  0  0  0  0
    2.5985    4.6021    7.1443 O   0  0  0  0  0  0  0  0  0  0  0  0
    3.3950    4.0133    7.8706 C   0  0  0  0  0  0  0  0  0  0  0  0
    4.6826    4.2986    7.9559 O   0  0  0  0  0  0  0  0  0  0  0  0
    1.6970    4.3467    7.1335 H   0  0  0  0  0  0  0  0  0  0  0  0
   -6.3214    5.4584    7.1269 C   0  0  0  0  0  0  0  0  0  0  0  0
   -5.8913    6.8788    7.3851 C   0  0  0  0  0  0  0  0  0  0  0  0
   -5.2588    7.0626    8.7360 C   0  0  0  0  0  0  0  0  0  0  0  0
   -3.9543    7.0595    8.6997 O   0  0  0  0  0  0  0  0  0  0  0  0
   -5.8968    7.2044    9.7530 O   0  0  0  0  0  0  0  0  0  0  0  0
   -3.5087    6.9455    7.8833 H   0  0  0  0  0  0  0  0  0  0  0  0
 13 14  1  0  0  0
 13  1  1  0  0  0
 17 16  2  0  0  0
 14 16  1  0  0  0
 11  1  2  0  0  0
 11  2  1  0  0  0
  1 12  1  0  0  0
  3  2  2  0  0  0
  3  4  1  0  0  0
 16 15  1  0  0  0
  2 10  1  0  0  0
  6  4  1  0  0  0
  6  5  2  0  0  0
  4  8  2  0  0  0
 23 21  2  0  0  0
 19  5  1  0  0  0
 19 20  1  0  0  0
 12 10  1  0  0  0
  5  7  1  0  0  0
 10  9  2  0  0  0
  8  9  1  0  0  0
  8  7  1  0  0  0
 21 20  1  0  0  0
 21 22  1  0  0  0
 15 18  1  0  0  0
 22 24  1  0  0  0
M  END
> <minimizedAffinity>
-6.79777

$$$$
6CE6_EYP_A_1307


 24 26  0  0  0  0  0  0  0  0999 V2000
    0.7983    2.0640    7.4765 C   0  0  0  0  0  0  0  0  0  0  0  0
   -1.3606    2.1204    7.9549 C   0  0  0  0  0  0  0  0  0  0  0  0
   -2.5617    1.6552    8.4646 C   0  0  0  0  0  0  0  0  0  0  0  0
   -3.7587    2.1654    7.9633 C   0  0  0  0  0  0  0  0  0  0  0  0
   -5.9385    2.2732    7.6379 C   0  0  0  0  0  0  0  0  0  0  0  0
   -5.0082    1.6899    8.3226 N   0  0  0  0  0  0  0  0  0  0  0  0
   -5.4156    3.4785    6.4862 S   0  0  0  0  0  0  0  0  0  0  0  0
   -3.7504    3.1633    6.9795 C   0  0  0  0  0  0  0  0  0  0  0  0
   -2.5451    3.7113    6.5097 C   0  0  0  0  0  0  0  0  0  0  0  0
   -1.3527    3.1441    6.9967 C   0  0  0  0  0  0  0  0  0  0  0  0
   -0.1175    1.5368    8.2178 N   0  0  0  0  0  0  0  0  0  0  0  0
    0.2901    3.3608    6.4236 S   0  0  0  0  0  0  0  0  0  0  0  0
    2.1668    1.4688    7.3580 C   0  0  0  0  0  0  0  0  0  0  0  0
    3.1362    1.8750    8.4490 C   0  0  0  0  0  0  0  0  0  0  0  0
    3.6139    4.1820    8.0191 O   0  0  0  0  0  0  0  0  0  0  0  0
    3.1838    3.3327    8.7951 C   0  0  0  0  0  0  0  0  0  0  0  0
    2.7843    3.5809   10.0302 O   0  0  0  0  0  0  0  0  0  0  0  0
    3.8803    3.9354    7.1552 H   0  0  0  0  0  0  0  0  0  0  0  0
   -7.3706    1.8838    7.8001 C   0  0  0  0  0  0  0  0  0  0  0  0
   -7.9784    1.3753    6.5189 C   0  0  0  0  0  0  0  0  0  0  0  0
   -7.2832    0.1543    5.9854 C   0  0  0  0  0  0  0  0  0  0  0  0
   -6.9241    0.2696    4.7361 O   0  0  0  0  0  0  0  0  0  0  0  0
   -7.0737   -0.8331    6.6505 O   0  0  0  0  0  0  0  0  0  0  0  0
   -7.1113    1.0581    4.2657 H   0  0  0  0  0  0  0  0  0  0  0  0
 13 14  1  0  0  0
 13  1  1  0  0  0
 17 16  2  0  0  0
 14 16  1  0  0  0
 11  1  2  0  0  0
 11  2  1  0  0  0
  1 12  1  0  0  0
  3  2  2  0  0  0
  3  4  1  0  0  0
 16 15  1  0  0  0
  2 10  1  0  0  0
  6  4  1  0  0  0
  6  5  2  0  0  0
  4  8  2  0  0  0
 23 21  2  0  0  0
 19  5  1  0  0  0
 19 20  1  0  0  0
 12 10  1  0  0  0
  5  7  1  0  0  0
 10  9  2  0  0  0
  8  9  1  0  0  0
  8  7  1  0  0  0
 21 20  1  0  0  0
 21 22  1  0  0  0
 15 18  1  0  0  0
 22 24  1  0  0  0
M  END
> <minimizedAffinity>
-6.68281

$$$$
6CE6_EYP_A_1307


 24 26  0  0  0  0  0  0  0  0999 V2000
    0.0424    2.5819    7.2239 C   0  0  0  0  0  0  0  0  0  0  0  0
   -1.9814    2.1679    8.0149 C   0  0  0  0  0  0  0  0  0  0  0  0
   -2.9624    1.4562    8.6857 C   0  0  0  0  0  0  0  0  0  0  0  0
   -4.3027    1.6842    8.3759 C   0  0  0  0  0  0  0  0  0  0  0  0
   -6.4766    1.3056    8.3760 C   0  0  0  0  0  0  0  0  0  0  0  0
   -5.3504    0.9500    8.9049 N   0  0  0  0  0  0  0  0  0  0  0  0
   -6.4068    2.5817    7.1848 S   0  0  0  0  0  0  0  0  0  0  0  0
   -4.6590    2.6470    7.4220 C   0  0  0  0  0  0  0  0  0  0  0  0
   -3.6861    3.4407    6.7917 C   0  0  0  0  0  0  0  0  0  0  0  0
   -2.3398    3.1561    7.0869 C   0  0  0  0  0  0  0  0  0  0  0  0
   -0.6157    1.8754    8.0806 N   0  0  0  0  0  0  0  0  0  0  0  0
   -0.8876    3.7216    6.2834 S   0  0  0  0  0  0  0  0  0  0  0  0
    1.4753    2.3009    6.8937 C   0  0  0  0  0  0  0  0  0  0  0  0
    2.3241    1.8522    8.0657 C   0  0  0  0  0  0  0  0  0  0  0  0
    2.6593    3.9236    9.2200 O   0  0  0  0  0  0  0  0  0  0  0  0
    3.1510    2.9067    8.7374 C   0  0  0  0  0  0  0  0  0  0  0  0
    4.4471    2.6530    8.6870 O   0  0  0  0  0  0  0  0  0  0  0  0
    1.7294    4.0387    9.2224 H   0  0  0  0  0  0  0  0  0  0  0  0
   -7.7483    0.6127    8.7387 C   0  0  0  0  0  0  0  0  0  0  0  0
   -7.6754   -0.8764    8.5226 C   0  0  0  0  0  0  0  0  0  0  0  0
   -7.6078   -1.2545    7.0696 C   0  0  0  0  0  0  0  0  0  0  0  0
   -6.6770   -2.1309    6.8074 O   0  0  0  0  0  0  0  0  0  0  0  0
   -8.3464   -0.7955    6.2300 O   0  0  0  0  0  0  0  0  0  0  0  0
   -6.1310   -2.4548    7.4964 H   0  0  0  0  0  0  0  0  0  0  0  0
 13 14  1  0  0  0
 13  1  1  0  0  0
 17 16  2  0  0  0
 14 16  1  0  0  0
 11  1  2  0  0  0
 11  2  1  0  0  0
  1 12  1  0  0  0
  3  2  2  0  0  0
  3  4  1  0  0  0
 16 15  1  0  0  0
  2 10  1  0  0  0
  6  4  1  0  0  0
  6  5  2  0  0  0
  4  8  2  0  0  0
 23 21  2  0  0  0
 19  5  1  0  0  0
 19 20  1  0  0  0
 12 10  1  0  0  0
  5  7  1  0  0  0
 10  9  2  0  0  0
  8  9  1  0  0  0
  8  7  1  0  0  0
 21 20  1  0  0  0
 21 22  1  0  0  0
 15 18  1  0  0  0
 22 24  1  0  0  0
M  END
> <minimizedAffinity>
-6.57909

$$$$
6CE6_EYP_A_1307


 24 26  0  0  0  0  0  0  0  0999 V2000
   -6.1393    2.8694    9.2600 C   0  0  0  0  0  0  0  0  0  0  0  0
   -4.1112    2.3276    8.5626 C   0  0  0  0  0  0  0  0  0  0  0  0
   -2.8417    1.7802    8.6495 C   0  0  0  0  0  0  0  0  0  0  0  0
   -1.8376    2.2484    7.8028 C   0  0  0  0  0  0  0  0  0  0  0  0
    0.2189    2.5097    7.0469 C   0  0  0  0  0  0  0  0  0  0  0  0
   -0.5144    1.8499    7.8843 N   0  0  0  0  0  0  0  0  0  0  0  0
   -0.6057    3.6825    6.0485 S   0  0  0  0  0  0  0  0  0  0  0  0
   -2.1145    3.2371    6.8491 C   0  0  0  0  0  0  0  0  0  0  0  0
   -3.4139    3.7452    6.6847 C   0  0  0  0  0  0  0  0  0  0  0  0
   -4.3962    3.2909    7.5843 C   0  0  0  0  0  0  0  0  0  0  0  0
   -5.1302    2.0987    9.4923 N   0  0  0  0  0  0  0  0  0  0  0  0
   -6.0108    3.9135    7.8665 S   0  0  0  0  0  0  0  0  0  0  0  0
   -7.2630    3.0255   10.2367 C   0  0  0  0  0  0  0  0  0  0  0  0
   -7.1025    4.1695   11.2169 C   0  0  0  0  0  0  0  0  0  0  0  0
   -5.0955    3.6344   12.4091 O   0  0  0  0  0  0  0  0  0  0  0  0
   -5.7138    4.4365   11.7142 C   0  0  0  0  0  0  0  0  0  0  0  0
   -5.2719    5.6376   11.3840 O   0  0  0  0  0  0  0  0  0  0  0  0
   -5.4697    2.7979   12.6046 H   0  0  0  0  0  0  0  0  0  0  0  0
    1.6965    2.3031    6.9909 C   0  0  0  0  0  0  0  0  0  0  0  0
    2.2712    1.8876    8.3200 C   0  0  0  0  0  0  0  0  0  0  0  0
    3.1305    2.9508    8.9444 C   0  0  0  0  0  0  0  0  0  0  0  0
    4.3969    2.8270    8.6544 O   0  0  0  0  0  0  0  0  0  0  0  0
    2.6899    3.8350    9.6411 O   0  0  0  0  0  0  0  0  0  0  0  0
    4.6858    2.1221    8.1089 H   0  0  0  0  0  0  0  0  0  0  0  0
 13 14  1  0  0  0
 13  1  1  0  0  0
 17 16  2  0  0  0
 14 16  1  0  0  0
 11  1  2  0  0  0
 11  2  1  0  0  0
  1 12  1  0  0  0
  3  2  2  0  0  0
  3  4  1  0  0  0
 16 15  1  0  0  0
  2 10  1  0  0  0
  6  4  1  0  0  0
  6  5  2  0  0  0
  4  8  2  0  0  0
 23 21  2  0  0  0
 19  5  1  0  0  0
 19 20  1  0  0  0
 12 10  1  0  0  0
  5  7  1  0  0  0
 10  9  2  0  0  0
  8  9  1  0  0  0
  8  7  1  0  0  0
 21 20  1  0  0  0
 21 22  1  0  0  0
 15 18  1  0  0  0
 22 24  1  0  0  0
M  END
> <minimizedAffinity>
-6.49433

$$$$
6CE6_EYP_A_1307


 24 26  0  0  0  0  0  0  0  0999 V2000
   -6.5011    2.9391    7.2571 C   0  0  0  0  0  0  0  0  0  0  0  0
   -4.2986    3.1153    7.3624 C   0  0  0  0  0  0  0  0  0  0  0  0
   -3.0340    3.5039    6.9519 C   0  0  0  0  0  0  0  0  0  0  0  0
   -1.9217    2.7974    7.4082 C   0  0  0  0  0  0  0  0  0  0  0  0
    0.1935    2.1733    7.4823 C   0  0  0  0  0  0  0  0  0  0  0  0
   -0.6290    3.0322    6.9722 N   0  0  0  0  0  0  0  0  0  0  0  0
   -0.4949    0.9858    8.5632 S   0  0  0  0  0  0  0  0  0  0  0  0
   -2.0749    1.7274    8.3001 C   0  0  0  0  0  0  0  0  0  0  0  0
   -3.3396    1.3704    8.7969 C   0  0  0  0  0  0  0  0  0  0  0  0
   -4.4484    2.0679    8.2826 C   0  0  0  0  0  0  0  0  0  0  0  0
   -5.4873    3.6004    6.8087 N   0  0  0  0  0  0  0  0  0  0  0  0
   -6.1559    1.7013    8.4392 S   0  0  0  0  0  0  0  0  0  0  0  0
   -7.8648    3.0661    6.6527 C   0  0  0  0  0  0  0  0  0  0  0  0
   -7.9828    2.5563    5.2310 C   0  0  0  0  0  0  0  0  0  0  0  0
   -6.5026    0.9885    4.1885 O   0  0  0  0  0  0  0  0  0  0  0  0
   -7.4357    1.1868    4.9622 C   0  0  0  0  0  0  0  0  0  0  0  0
   -8.1063    0.2341    5.5863 O   0  0  0  0  0  0  0  0  0  0  0  0
   -6.0709    1.7127    3.7798 H   0  0  0  0  0  0  0  0  0  0  0  0
    1.6397    2.1806    7.1117 C   0  0  0  0  0  0  0  0  0  0  0  0
    2.5408    1.9782    8.3018 C   0  0  0  0  0  0  0  0  0  0  0  0
    3.1229    3.2630    8.8206 C   0  0  0  0  0  0  0  0  0  0  0  0
    2.7771    3.5263   10.0511 O   0  0  0  0  0  0  0  0  0  0  0  0
    3.8438    3.9771    8.1637 O   0  0  0  0  0  0  0  0  0  0  0  0
    2.2150    2.9380   10.5158 H   0  0  0  0  0  0  0  0  0  0  0  0
 13 14  1  0  0  0
 13  1  1  0  0  0
 17 16  2  0  0  0
 14 16  1  0  0  0
 11  1  2  0  0  0
 11  2  1  0  0  0
  1 12  1  0  0  0
  3  2  2  0  0  0
  3  4  1  0  0  0
 16 15  1  0  0  0
  2 10  1  0  0  0
  6  4  1  0  0  0
  6  5  2  0  0  0
  4  8  2  0  0  0
 23 21  2  0  0  0
 19  5  1  0  0  0
 19 20  1  0  0  0
 12 10  1  0  0  0
  5  7  1  0  0  0
 10  9  2  0  0  0
  8  9  1  0  0  0
  8  7  1  0  0  0
 21 20  1  0  0  0
 21 22  1  0  0  0
 15 18  1  0  0  0
 22 24  1  0  0  0
M  END
> <minimizedAffinity>
-6.35100

$$$$
6CE6_EYP_A_1307


 24 26  0  0  0  0  0  0  0  0999 V2000
   -5.7639    3.3498    6.4135 C   0  0  0  0  0  0  0  0  0  0  0  0
   -3.6070    3.2858    6.9002 C   0  0  0  0  0  0  0  0  0  0  0  0
   -2.2528    3.4992    6.7018 C   0  0  0  0  0  0  0  0  0  0  0  0
   -1.3303    2.7082    7.3856 C   0  0  0  0  0  0  0  0  0  0  0  0
    0.6481    1.8585    7.8683 C   0  0  0  0  0  0  0  0  0  0  0  0
    0.0368    2.7642    7.1752 N   0  0  0  0  0  0  0  0  0  0  0  0
   -0.3555    0.8381    8.8702 S   0  0  0  0  0  0  0  0  0  0  0  0
   -1.7640    1.7305    8.2911 C   0  0  0  0  0  0  0  0  0  0  0  0
   -3.1291    1.5546    8.5726 C   0  0  0  0  0  0  0  0  0  0  0  0
   -4.0395    2.3322    7.8328 C   0  0  0  0  0  0  0  0  0  0  0  0
   -4.6149    3.8588    6.1187 N   0  0  0  0  0  0  0  0  0  0  0  0
   -5.7805    2.1714    7.7017 S   0  0  0  0  0  0  0  0  0  0  0  0
   -6.9782    3.5839    5.5698 C   0  0  0  0  0  0  0  0  0  0  0  0
   -7.0003    2.8254    4.2586 C   0  0  0  0  0  0  0  0  0  0  0  0
   -4.9909    3.1178    2.9888 O   0  0  0  0  0  0  0  0  0  0  0  0
   -6.1780    3.3935    3.1414 C   0  0  0  0  0  0  0  0  0  0  0  0
   -6.8466    4.2601    2.4006 O   0  0  0  0  0  0  0  0  0  0  0  0
   -4.5791    2.4922    3.5518 H   0  0  0  0  0  0  0  0  0  0  0  0
    2.1261    1.6767    7.7615 C   0  0  0  0  0  0  0  0  0  0  0  0
    2.8888    2.6162    8.6589 C   0  0  0  0  0  0  0  0  0  0  0  0
    3.3894    3.8365    7.9385 C   0  0  0  0  0  0  0  0  0  0  0  0
    2.4568    4.4618    7.2734 O   0  0  0  0  0  0  0  0  0  0  0  0
    4.5405    4.2036    7.9770 O   0  0  0  0  0  0  0  0  0  0  0  0
    1.5790    4.1341    7.2769 H   0  0  0  0  0  0  0  0  0  0  0  0
 13 14  1  0  0  0
 13  1  1  0  0  0
 17 16  2  0  0  0
 14 16  1  0  0  0
 11  1  2  0  0  0
 11  2  1  0  0  0
  1 12  1  0  0  0
  3  2  2  0  0  0
  3  4  1  0  0  0
 16 15  1  0  0  0
  2 10  1  0  0  0
  6  4  1  0  0  0
  6  5  2  0  0  0
  4  8  2  0  0  0
 23 21  2  0  0  0
 19  5  1  0  0  0
 19 20  1  0  0  0
 12 10  1  0  0  0
  5  7  1  0  0  0
 10  9  2  0  0  0
  8  9  1  0  0  0
  8  7  1  0  0  0
 21 20  1  0  0  0
 21 22  1  0  0  0
 15 18  1  0  0  0
 22 24  1  0  0  0
M  END
> <minimizedAffinity>
-6.34640

$$$$
6CE6_EYP_A_1307


 24 26  0  0  0  0  0  0  0  0999 V2000
   -5.5213    4.1983    7.3759 C   0  0  0  0  0  0  0  0  0  0  0  0
   -3.5662    3.1638    7.3825 C   0  0  0  0  0  0  0  0  0  0  0  0
   -2.5586    2.3543    7.8810 C   0  0  0  0  0  0  0  0  0  0  0  0
   -1.2562    2.5188    7.4110 C   0  0  0  0  0  0  0  0  0  0  0  0
    0.9341    2.2537    7.3722 C   0  0  0  0  0  0  0  0  0  0  0  0
   -0.1623    1.8415    7.9221 N   0  0  0  0  0  0  0  0  0  0  0  0
    0.7737    3.5007    6.1592 S   0  0  0  0  0  0  0  0  0  0  0  0
   -0.9718    3.4678    6.4198 C   0  0  0  0  0  0  0  0  0  0  0  0
   -1.9914    4.2398    5.8384 C   0  0  0  0  0  0  0  0  0  0  0  0
   -3.2874    4.0879    6.3654 C   0  0  0  0  0  0  0  0  0  0  0  0
   -4.8521    3.2414    7.9261 N   0  0  0  0  0  0  0  0  0  0  0  0
   -4.7116    5.0763    6.1024 S   0  0  0  0  0  0  0  0  0  0  0  0
   -6.8272    4.6770    7.9298 C   0  0  0  0  0  0  0  0  0  0  0  0
   -6.7121    5.6805    9.0589 C   0  0  0  0  0  0  0  0  0  0  0  0
   -4.4293    6.1908    9.5731 O   0  0  0  0  0  0  0  0  0  0  0  0
   -5.4665    5.6143    9.8903 C   0  0  0  0  0  0  0  0  0  0  0  0
   -5.5921    4.8239   10.9421 O   0  0  0  0  0  0  0  0  0  0  0  0
   -4.4112    6.7378    8.8126 H   0  0  0  0  0  0  0  0  0  0  0  0
    2.2589    1.7177    7.8042 C   0  0  0  0  0  0  0  0  0  0  0  0
    2.9006    2.5610    8.8749 C   0  0  0  0  0  0  0  0  0  0  0  0
    4.1252    3.2868    8.3929 C   0  0  0  0  0  0  0  0  0  0  0  0
    3.8573    4.4330    7.8294 O   0  0  0  0  0  0  0  0  0  0  0  0
    5.2462    2.8528    8.5202 O   0  0  0  0  0  0  0  0  0  0  0  0
    2.9692    4.7228    7.7562 H   0  0  0  0  0  0  0  0  0  0  0  0
 13 14  1  0  0  0
 13  1  1  0  0  0
 17 16  2  0  0  0
 14 16  1  0  0  0
 11  1  2  0  0  0
 11  2  1  0  0  0
  1 12  1  0  0  0
  3  2  2  0  0  0
  3  4  1  0  0  0
 16 15  1  0  0  0
  2 10  1  0  0  0
  6  4  1  0  0  0
  6  5  2  0  0  0
  4  8  2  0  0  0
 23 21  2  0  0  0
 19  5  1  0  0  0
 19 20  1  0  0  0
 12 10  1  0  0  0
  5  7  1  0  0  0
 10  9  2  0  0  0
  8  9  1  0  0  0
  8  7  1  0  0  0
 21 20  1  0  0  0
 21 22  1  0  0  0
 15 18  1  0  0  0
 22 24  1  0  0  0
M  END
> <minimizedAffinity>
-6.27816

$$$$
6CE6_EYP_A_1307


 24 26  0  0  0  0  0  0  0  0999 V2000
    0.9398    1.7933    7.8195 C   0  0  0  0  0  0  0  0  0  0  0  0
   -1.0132    2.6373    7.2139 C   0  0  0  0  0  0  0  0  0  0  0  0
   -1.8788    3.5612    6.6519 C   0  0  0  0  0  0  0  0  0  0  0  0
   -3.2109    3.5861    7.0635 C   0  0  0  0  0  0  0  0  0  0  0  0
   -5.2587    4.3848    7.2568 C   0  0  0  0  0  0  0  0  0  0  0  0
   -4.1266    4.5381    6.6492 N   0  0  0  0  0  0  0  0  0  0  0  0
   -5.3578    3.0612    8.3928 S   0  0  0  0  0  0  0  0  0  0  0  0
   -3.6809    2.6652    8.0094 C   0  0  0  0  0  0  0  0  0  0  0  0
   -2.8427    1.6645    8.5288 C   0  0  0  0  0  0  0  0  0  0  0  0
   -1.4924    1.6932    8.1333 C   0  0  0  0  0  0  0  0  0  0  0  0
    0.3747    2.6580    7.0455 N   0  0  0  0  0  0  0  0  0  0  0  0
   -0.1273    0.8127    8.7934 S   0  0  0  0  0  0  0  0  0  0  0  0
    2.4204    1.7696    8.0394 C   0  0  0  0  0  0  0  0  0  0  0  0
    2.9869    3.0081    8.7029 C   0  0  0  0  0  0  0  0  0  0  0  0
    2.6321    4.6830    7.0282 O   0  0  0  0  0  0  0  0  0  0  0  0
    3.4117    4.1213    7.7932 C   0  0  0  0  0  0  0  0  0  0  0  0
    4.7077    4.3723    7.8589 O   0  0  0  0  0  0  0  0  0  0  0  0
    1.7233    4.4551    7.0349 H   0  0  0  0  0  0  0  0  0  0  0  0
   -6.3893    5.3320    7.0252 C   0  0  0  0  0  0  0  0  0  0  0  0
   -6.8691    5.3189    5.5973 C   0  0  0  0  0  0  0  0  0  0  0  0
   -7.8116    4.1848    5.3068 C   0  0  0  0  0  0  0  0  0  0  0  0
   -7.3286    3.3164    4.4609 O   0  0  0  0  0  0  0  0  0  0  0  0
   -8.9055    4.0860    5.8117 O   0  0  0  0  0  0  0  0  0  0  0  0
   -6.4735    3.4408    4.0986 H   0  0  0  0  0  0  0  0  0  0  0  0
 13 14  1  0  0  0
 13  1  1  0  0  0
 17 16  2  0  0  0
 14 16  1  0  0  0
 11  1  2  0  0  0
 11  2  1  0  0  0
  1 12  1  0  0  0
  3  2  2  0  0  0
  3  4  1  0  0  0
 16 15  1  0  0  0
  2 10  1  0  0  0
  6  4  1  0  0  0
  6  5  2  0  0  0
  4  8  2  0  0  0
 23 21  2  0  0  0
 19  5  1  0  0  0
 19 20  1  0  0  0
 12 10  1  0  0  0
  5  7  1  0  0  0
 10  9  2  0  0  0
  8  9  1  0  0  0
  8  7  1  0  0  0
 21 20  1  0  0  0
 21 22  1  0  0  0
 15 18  1  0  0  0
 22 24  1  0  0  0
M  END
> <minimizedAffinity>
-6.17482

$$$$
6CE6_EYP_A_1307


 24 26  0  0  0  0  0  0  0  0999 V2000
   -5.9987    1.9982    9.7065 C   0  0  0  0  0  0  0  0  0  0  0  0
   -3.9700    1.7703    8.8547 C   0  0  0  0  0  0  0  0  0  0  0  0
   -2.6360    1.3977    8.8317 C   0  0  0  0  0  0  0  0  0  0  0  0
   -1.7645    2.0365    7.9503 C   0  0  0  0  0  0  0  0  0  0  0  0
    0.1813    2.6100    7.0822 C   0  0  0  0  0  0  0  0  0  0  0  0
   -0.3976    1.8189    7.9268 N   0  0  0  0  0  0  0  0  0  0  0  0
   -0.8595    3.7036    6.2030 S   0  0  0  0  0  0  0  0  0  0  0  0
   -2.2362    3.0207    7.0712 C   0  0  0  0  0  0  0  0  0  0  0  0
   -3.5999    3.3538    7.0168 C   0  0  0  0  0  0  0  0  0  0  0  0
   -4.4480    2.7292    7.9502 C   0  0  0  0  0  0  0  0  0  0  0  0
   -4.8823    1.3625    9.8326 N   0  0  0  0  0  0  0  0  0  0  0  0
   -6.1076    3.1124    8.3667 S   0  0  0  0  0  0  0  0  0  0  0  0
   -7.0625    1.9548   10.7590 C   0  0  0  0  0  0  0  0  0  0  0  0
   -8.4565    2.2930   10.2716 C   0  0  0  0  0  0  0  0  0  0  0  0
   -9.3026    0.0718    9.9780 O   0  0  0  0  0  0  0  0  0  0  0  0
   -9.1902    1.2123    9.5362 C   0  0  0  0  0  0  0  0  0  0  0  0
   -9.6297    1.6034    8.3526 O   0  0  0  0  0  0  0  0  0  0  0  0
   -8.9670   -0.1366   10.8276 H   0  0  0  0  0  0  0  0  0  0  0  0
    1.6658    2.6096    6.9224 C   0  0  0  0  0  0  0  0  0  0  0  0
    2.3303    3.7110    7.7064 C   0  0  0  0  0  0  0  0  0  0  0  0
    3.0859    3.2041    8.9027 C   0  0  0  0  0  0  0  0  0  0  0  0
    4.0893    2.4308    8.5894 O   0  0  0  0  0  0  0  0  0  0  0  0
    2.7948    3.4900   10.0406 O   0  0  0  0  0  0  0  0  0  0  0  0
    4.2715    2.2409    7.6901 H   0  0  0  0  0  0  0  0  0  0  0  0
 13 14  1  0  0  0
 13  1  1  0  0  0
 17 16  2  0  0  0
 14 16  1  0  0  0
 11  1  2  0  0  0
 11  2  1  0  0  0
  1 12  1  0  0  0
  3  2  2  0  0  0
  3  4  1  0  0  0
 16 15  1  0  0  0
  2 10  1  0  0  0
  6  4  1  0  0  0
  6  5  2  0  0  0
  4  8  2  0  0  0
 23 21  2  0  0  0
 19  5  1  0  0  0
 19 20  1  0  0  0
 12 10  1  0  0  0
  5  7  1  0  0  0
 10  9  2  0  0  0
  8  9  1  0  0  0
  8  7  1  0  0  0
 21 20  1  0  0  0
 21 22  1  0  0  0
 15 18  1  0  0  0
 22 24  1  0  0  0
M  END
> <minimizedAffinity>
-5.94834

$$$$
6CE6_EYP_A_1307


 24 26  0  0  0  0  0  0  0  0999 V2000
   -0.0230    2.1316    7.4157 C   0  0  0  0  0  0  0  0  0  0  0  0
   -1.9449    3.1507    7.0148 C   0  0  0  0  0  0  0  0  0  0  0  0
   -2.7774    4.1579    6.5550 C   0  0  0  0  0  0  0  0  0  0  0  0
   -4.0581    4.2826    7.0923 C   0  0  0  0  0  0  0  0  0  0  0  0
   -6.0033    5.2435    7.4947 C   0  0  0  0  0  0  0  0  0  0  0  0
   -4.9241    5.3180    6.7847 N   0  0  0  0  0  0  0  0  0  0  0  0
   -6.1081    3.9032    8.6105 S   0  0  0  0  0  0  0  0  0  0  0  0
   -4.5143    3.3794    8.0617 C   0  0  0  0  0  0  0  0  0  0  0  0
   -3.7196    2.2992    8.4803 C   0  0  0  0  0  0  0  0  0  0  0  0
   -2.4147    2.2259    7.9583 C   0  0  0  0  0  0  0  0  0  0  0  0
   -0.5822    3.0604    6.7151 N   0  0  0  0  0  0  0  0  0  0  0  0
   -1.0739    1.2179    8.4689 S   0  0  0  0  0  0  0  0  0  0  0  0
    1.4643    1.9791    7.4928 C   0  0  0  0  0  0  0  0  0  0  0  0
    2.2196    3.2494    7.8260 C   0  0  0  0  0  0  0  0  0  0  0  0
    4.3738    2.6665    8.6954 O   0  0  0  0  0  0  0  0  0  0  0  0
    3.2621    3.1478    8.8984 C   0  0  0  0  0  0  0  0  0  0  0  0
    2.8293    3.5618   10.0766 O   0  0  0  0  0  0  0  0  0  0  0  0
    4.6154    2.3931    7.8323 H   0  0  0  0  0  0  0  0  0  0  0  0
   -7.0657    6.2872    7.3894 C   0  0  0  0  0  0  0  0  0  0  0  0
   -6.5252    7.6808    7.5763 C   0  0  0  0  0  0  0  0  0  0  0  0
   -6.2412    8.0106    9.0148 C   0  0  0  0  0  0  0  0  0  0  0  0
   -5.2235    8.8129    9.1690 O   0  0  0  0  0  0  0  0  0  0  0  0
   -6.8949    7.5790    9.9355 O   0  0  0  0  0  0  0  0  0  0  0  0
   -4.7503    9.1186    8.4202 H   0  0  0  0  0  0  0  0  0  0  0  0
 13 14  1  0  0  0
 13  1  1  0  0  0
 17 16  2  0  0  0
 14 16  1  0  0  0
 11  1  2  0  0  0
 11  2  1  0  0  0
  1 12  1  0  0  0
  3  2  2  0  0  0
  3  4  1  0  0  0
 16 15  1  0  0  0
  2 10  1  0  0  0
  6  4  1  0  0  0
  6  5  2  0  0  0
  4  8  2  0  0  0
 23 21  2  0  0  0
 19  5  1  0  0  0
 19 20  1  0  0  0
 12 10  1  0  0  0
  5  7  1  0  0  0
 10  9  2  0  0  0
  8  9  1  0  0  0
  8  7  1  0  0  0
 21 20  1  0  0  0
 21 22  1  0  0  0
 15 18  1  0  0  0
 22 24  1  0  0  0
M  END
> <minimizedAffinity>
-5.73328

$$$$
