4MSA_2ZM_A_900


 13 14  0  0  0  0  0  0  0  0999 V2000
    4.5774  -28.8309  -32.1047 C   0  0  0  0  0  0  0  0  0  0  0  0
    5.1953  -29.7969  -32.9078 C   0  0  0  0  0  0  0  0  0  0  0  0
    5.2207  -29.7017  -34.2944 C   0  0  0  0  0  0  0  0  0  0  0  0
    4.5939  -28.5830  -34.8407 C   0  0  0  0  0  0  0  0  0  0  0  0
    4.4601  -28.2045  -36.1253 N   0  0  0  0  0  0  0  0  0  0  0  0
    3.7821  -27.0342  -36.1424 C   0  0  0  0  0  0  0  0  0  0  0  0
    3.4802  -26.6625  -34.8811 N   0  0  0  0  0  0  0  0  0  0  0  0
    3.9796  -27.6050  -34.0490 C   0  0  0  0  0  0  0  0  0  0  0  0
    3.9485  -27.7041  -32.6553 C   0  0  0  0  0  0  0  0  0  0  0  0
    4.7957  -28.6923  -36.9119 H   0  0  0  0  0  0  0  0  0  0  0  0
    5.2513  -29.8773  -30.2548 O   0  0  0  0  0  0  0  0  0  0  0  0
    4.5771  -28.9906  -30.7646 N   0  0  0  0  0  0  0  0  0  0  0  0
    3.9008  -28.2702  -30.0388 O   0  0  0  0  0  0  0  0  0  0  0  0
  6  5  1  0  0  0
  6  7  2  0  0  0
  5  4  1  0  0  0
  7  8  1  0  0  0
  4  8  2  0  0  0
  4  3  1  0  0  0
  8  9  1  0  0  0
  3  2  2  0  0  0
  9  1  2  0  0  0
  2  1  1  0  0  0
  1 12  1  0  0  0
 12 13  2  0  0  0
 12 11  1  0  0  0
  5 10  1  0  0  0
M  CHG 1  11  -1
M  CHG 1  12   1
M  END
> <minimizedAffinity>
-6.06021

$$$$
4MSA_2ZM_A_900


 13 14  0  0  0  0  0  0  0  0999 V2000
    4.0240  -27.5512  -34.3841 C   0  0  0  0  0  0  0  0  0  0  0  0
    3.2839  -26.6030  -33.6680 C   0  0  0  0  0  0  0  0  0  0  0  0
    3.1448  -26.6613  -32.2861 C   0  0  0  0  0  0  0  0  0  0  0  0
    3.7891  -27.7224  -31.6523 C   0  0  0  0  0  0  0  0  0  0  0  0
    3.8537  -28.0430  -30.3468 N   0  0  0  0  0  0  0  0  0  0  0  0
    4.6124  -29.1569  -30.2321 C   0  0  0  0  0  0  0  0  0  0  0  0
    5.0315  -29.5519  -31.4522 N   0  0  0  0  0  0  0  0  0  0  0  0
    4.5396  -28.6729  -32.3552 C   0  0  0  0  0  0  0  0  0  0  0  0
    4.6740  -28.6179  -33.7452 C   0  0  0  0  0  0  0  0  0  0  0  0
    3.4254  -27.5540  -29.6074 H   0  0  0  0  0  0  0  0  0  0  0  0
    3.8207  -26.3865  -36.2745 O   0  0  0  0  0  0  0  0  0  0  0  0
    4.1082  -27.4440  -35.7268 N   0  0  0  0  0  0  0  0  0  0  0  0
    4.4564  -28.3936  -36.4197 O   0  0  0  0  0  0  0  0  0  0  0  0
  6  5  1  0  0  0
  6  7  2  0  0  0
  5  4  1  0  0  0
  7  8  1  0  0  0
  4  8  2  0  0  0
  4  3  1  0  0  0
  8  9  1  0  0  0
  3  2  2  0  0  0
  9  1  2  0  0  0
  2  1  1  0  0  0
  1 12  1  0  0  0
 12 13  2  0  0  0
 12 11  1  0  0  0
  5 10  1  0  0  0
M  CHG 1  11  -1
M  CHG 1  12   1
M  END
> <minimizedAffinity>
-6.00798

$$$$
4MSA_2ZM_A_900


 13 14  0  0  0  0  0  0  0  0999 V2000
    4.5207  -28.6008  -31.7940 C   0  0  0  0  0  0  0  0  0  0  0  0
    3.7151  -27.4559  -31.7826 C   0  0  0  0  0  0  0  0  0  0  0  0
    3.3317  -26.8082  -32.9513 C   0  0  0  0  0  0  0  0  0  0  0  0
    3.7966  -27.3682  -34.1400 C   0  0  0  0  0  0  0  0  0  0  0  0
    3.5936  -26.9890  -35.4152 N   0  0  0  0  0  0  0  0  0  0  0  0
    4.2450  -27.8641  -36.2150 C   0  0  0  0  0  0  0  0  0  0  0  0
    4.8635  -28.7976  -35.4625 N   0  0  0  0  0  0  0  0  0  0  0  0
    4.5957  -28.5177  -34.1663 C   0  0  0  0  0  0  0  0  0  0  0  0
    4.9866  -29.1652  -32.9910 C   0  0  0  0  0  0  0  0  0  0  0  0
    3.0655  -26.2133  -35.7129 H   0  0  0  0  0  0  0  0  0  0  0  0
    5.5126  -30.2153  -30.6188 O   0  0  0  0  0  0  0  0  0  0  0  0
    4.8678  -29.1737  -30.6223 N   0  0  0  0  0  0  0  0  0  0  0  0
    4.5384  -28.6782  -29.5504 O   0  0  0  0  0  0  0  0  0  0  0  0
  6  5  1  0  0  0
  6  7  2  0  0  0
  5  4  1  0  0  0
  7  8  1  0  0  0
  4  8  2  0  0  0
  4  3  1  0  0  0
  8  9  1  0  0  0
  3  2  2  0  0  0
  9  1  2  0  0  0
  2  1  1  0  0  0
  1 12  1  0  0  0
 12 13  2  0  0  0
 12 11  1  0  0  0
  5 10  1  0  0  0
M  CHG 1  11  -1
M  CHG 1  12   1
M  END
> <minimizedAffinity>
-5.98993

$$$$
4MSA_2ZM_A_900


 13 14  0  0  0  0  0  0  0  0999 V2000
    4.4025  -27.5364  -33.3298 C   0  0  0  0  0  0  0  0  0  0  0  0
    3.8026  -27.6579  -32.0708 C   0  0  0  0  0  0  0  0  0  0  0  0
    4.1619  -28.6557  -31.1721 C   0  0  0  0  0  0  0  0  0  0  0  0
    5.1592  -29.5309  -31.5987 C   0  0  0  0  0  0  0  0  0  0  0  0
    5.7254  -30.5755  -30.9665 N   0  0  0  0  0  0  0  0  0  0  0  0
    6.6582  -31.1020  -31.7926 C   0  0  0  0  0  0  0  0  0  0  0  0
    6.6919  -30.4046  -32.9471 N   0  0  0  0  0  0  0  0  0  0  0  0
    5.7736  -29.4158  -32.8517 C   0  0  0  0  0  0  0  0  0  0  0  0
    5.4079  -28.4165  -33.7578 C   0  0  0  0  0  0  0  0  0  0  0  0
    5.5009  -30.8986  -30.0641 H   0  0  0  0  0  0  0  0  0  0  0  0
    3.2374  -26.8086  -35.0860 O   0  0  0  0  0  0  0  0  0  0  0  0
    3.9977  -26.5525  -34.1602 N   0  0  0  0  0  0  0  0  0  0  0  0
    4.3872  -25.3990  -34.0163 O   0  0  0  0  0  0  0  0  0  0  0  0
  6  5  1  0  0  0
  6  7  2  0  0  0
  5  4  1  0  0  0
  7  8  1  0  0  0
  4  8  2  0  0  0
  4  3  1  0  0  0
  8  9  1  0  0  0
  3  2  2  0  0  0
  9  1  2  0  0  0
  2  1  1  0  0  0
  1 12  1  0  0  0
 12 13  2  0  0  0
 12 11  1  0  0  0
  5 10  1  0  0  0
M  CHG 1  11  -1
M  CHG 1  12   1
M  END
> <minimizedAffinity>
-5.75350

$$$$
4MSA_2ZM_A_900


 13 14  0  0  0  0  0  0  0  0999 V2000
    4.3754  -27.9595  -33.2812 C   0  0  0  0  0  0  0  0  0  0  0  0
    5.0922  -28.2960  -34.4356 C   0  0  0  0  0  0  0  0  0  0  0  0
    6.0225  -29.3288  -34.4554 C   0  0  0  0  0  0  0  0  0  0  0  0
    6.1996  -30.0135  -33.2543 C   0  0  0  0  0  0  0  0  0  0  0  0
    7.0035  -31.0513  -32.9577 N   0  0  0  0  0  0  0  0  0  0  0  0
    6.8048  -31.3695  -31.6582 C   0  0  0  0  0  0  0  0  0  0  0  0
    5.8828  -30.5435  -31.1214 N   0  0  0  0  0  0  0  0  0  0  0  0
    5.4833  -29.6931  -32.0946 C   0  0  0  0  0  0  0  0  0  0  0  0
    4.5527  -28.6506  -32.0731 C   0  0  0  0  0  0  0  0  0  0  0  0
    7.6251  -31.4990  -33.5762 H   0  0  0  0  0  0  0  0  0  0  0  0
    3.1544  -26.4722  -34.4074 O   0  0  0  0  0  0  0  0  0  0  0  0
    3.4962  -26.9366  -33.3265 N   0  0  0  0  0  0  0  0  0  0  0  0
    3.0367  -26.4474  -32.3005 O   0  0  0  0  0  0  0  0  0  0  0  0
  6  5  1  0  0  0
  6  7  2  0  0  0
  5  4  1  0  0  0
  7  8  1  0  0  0
  4  8  2  0  0  0
  4  3  1  0  0  0
  8  9  1  0  0  0
  3  2  2  0  0  0
  9  1  2  0  0  0
  2  1  1  0  0  0
  1 12  1  0  0  0
 12 13  2  0  0  0
 12 11  1  0  0  0
  5 10  1  0  0  0
M  CHG 1  11  -1
M  CHG 1  12   1
M  END
> <minimizedAffinity>
-5.74942

$$$$
4MSA_2ZM_A_900


 13 14  0  0  0  0  0  0  0  0999 V2000
    4.6803  -27.9026  -34.5077 C   0  0  0  0  0  0  0  0  0  0  0  0
    5.7551  -28.7965  -34.4338 C   0  0  0  0  0  0  0  0  0  0  0  0
    6.1015  -29.4429  -33.2529 C   0  0  0  0  0  0  0  0  0  0  0  0
    5.3121  -29.1490  -32.1424 C   0  0  0  0  0  0  0  0  0  0  0  0
    5.3824  -29.6126  -30.8809 N   0  0  0  0  0  0  0  0  0  0  0  0
    4.3840  -29.0367  -30.1729 C   0  0  0  0  0  0  0  0  0  0  0  0
    3.6777  -28.2084  -30.9699 N   0  0  0  0  0  0  0  0  0  0  0  0
    4.2290  -28.2636  -32.2041 C   0  0  0  0  0  0  0  0  0  0  0  0
    3.8848  -27.6089  -33.3899 C   0  0  0  0  0  0  0  0  0  0  0  0
    6.0426  -30.2560  -30.5351 H   0  0  0  0  0  0  0  0  0  0  0  0
    4.3952  -26.0753  -35.7531 O   0  0  0  0  0  0  0  0  0  0  0  0
    4.4056  -27.2983  -35.6828 N   0  0  0  0  0  0  0  0  0  0  0  0
    4.1507  -27.9510  -36.6888 O   0  0  0  0  0  0  0  0  0  0  0  0
  6  5  1  0  0  0
  6  7  2  0  0  0
  5  4  1  0  0  0
  7  8  1  0  0  0
  4  8  2  0  0  0
  4  3  1  0  0  0
  8  9  1  0  0  0
  3  2  2  0  0  0
  9  1  2  0  0  0
  2  1  1  0  0  0
  1 12  1  0  0  0
 12 13  2  0  0  0
 12 11  1  0  0  0
  5 10  1  0  0  0
M  CHG 1  11  -1
M  CHG 1  12   1
M  END
> <minimizedAffinity>
-5.72328

$$$$
4MSA_2ZM_A_900


 13 14  0  0  0  0  0  0  0  0999 V2000
    5.6219  -29.8837  -31.8187 C   0  0  0  0  0  0  0  0  0  0  0  0
    4.8711  -29.5409  -30.6879 C   0  0  0  0  0  0  0  0  0  0  0  0
    3.9463  -28.5031  -30.6994 C   0  0  0  0  0  0  0  0  0  0  0  0
    3.8084  -27.8220  -31.9077 C   0  0  0  0  0  0  0  0  0  0  0  0
    3.0025  -26.7961  -32.2382 N   0  0  0  0  0  0  0  0  0  0  0  0
    3.2284  -26.4955  -33.5375 C   0  0  0  0  0  0  0  0  0  0  0  0
    4.1722  -27.3185  -34.0395 N   0  0  0  0  0  0  0  0  0  0  0  0
    4.5467  -28.1599  -33.0485 C   0  0  0  0  0  0  0  0  0  0  0  0
    5.4811  -29.1990  -33.0351 C   0  0  0  0  0  0  0  0  0  0  0  0
    2.3628  -26.3451  -31.6410 H   0  0  0  0  0  0  0  0  0  0  0  0
    7.1256  -31.2515  -32.7350 O   0  0  0  0  0  0  0  0  0  0  0  0
    6.5131  -30.8939  -31.7361 N   0  0  0  0  0  0  0  0  0  0  0  0
    6.7167  -31.4770  -30.6770 O   0  0  0  0  0  0  0  0  0  0  0  0
  6  5  1  0  0  0
  6  7  2  0  0  0
  5  4  1  0  0  0
  7  8  1  0  0  0
  4  8  2  0  0  0
  4  3  1  0  0  0
  8  9  1  0  0  0
  3  2  2  0  0  0
  9  1  2  0  0  0
  2  1  1  0  0  0
  1 12  1  0  0  0
 12 13  2  0  0  0
 12 11  1  0  0  0
  5 10  1  0  0  0
M  CHG 1  11  -1
M  CHG 1  12   1
M  END
> <minimizedAffinity>
-5.64475

$$$$
4MSA_2ZM_A_900


 13 14  0  0  0  0  0  0  0  0999 V2000
    5.8857  -29.8769  -32.5553 C   0  0  0  0  0  0  0  0  0  0  0  0
    5.9973  -29.5658  -33.9157 C   0  0  0  0  0  0  0  0  0  0  0  0
    5.2592  -28.5462  -34.5055 C   0  0  0  0  0  0  0  0  0  0  0  0
    4.3990  -27.8479  -33.6599 C   0  0  0  0  0  0  0  0  0  0  0  0
    3.5737  -26.8172  -33.9206 N   0  0  0  0  0  0  0  0  0  0  0  0
    2.9576  -26.4789  -32.7649 C   0  0  0  0  0  0  0  0  0  0  0  0
    3.3803  -27.2849  -31.7689 N   0  0  0  0  0  0  0  0  0  0  0  0
    4.2838  -28.1428  -32.2959 C   0  0  0  0  0  0  0  0  0  0  0  0
    5.0212  -29.1721  -31.7042 C   0  0  0  0  0  0  0  0  0  0  0  0
    3.4420  -26.3865  -34.7960 H   0  0  0  0  0  0  0  0  0  0  0  0
    6.4828  -31.2172  -30.8764 O   0  0  0  0  0  0  0  0  0  0  0  0
    6.6217  -30.8883  -32.0483 N   0  0  0  0  0  0  0  0  0  0  0  0
    7.4438  -31.4831  -32.7364 O   0  0  0  0  0  0  0  0  0  0  0  0
  6  5  1  0  0  0
  6  7  2  0  0  0
  5  4  1  0  0  0
  7  8  1  0  0  0
  4  8  2  0  0  0
  4  3  1  0  0  0
  8  9  1  0  0  0
  3  2  2  0  0  0
  9  1  2  0  0  0
  2  1  1  0  0  0
  1 12  1  0  0  0
 12 13  2  0  0  0
 12 11  1  0  0  0
  5 10  1  0  0  0
M  CHG 1  11  -1
M  CHG 1  12   1
M  END
> <minimizedAffinity>
-5.57928

$$$$
4MSA_2ZM_A_900


 13 14  0  0  0  0  0  0  0  0999 V2000
    4.2117  -27.5779  -33.8308 C   0  0  0  0  0  0  0  0  0  0  0  0
    4.2522  -27.7991  -35.2125 C   0  0  0  0  0  0  0  0  0  0  0  0
    4.7616  -28.9706  -35.7608 C   0  0  0  0  0  0  0  0  0  0  0  0
    5.2303  -29.9166  -34.8508 C   0  0  0  0  0  0  0  0  0  0  0  0
    5.7623  -31.1346  -35.0623 N   0  0  0  0  0  0  0  0  0  0  0  0
    6.0493  -31.6751  -33.8560 C   0  0  0  0  0  0  0  0  0  0  0  0
    5.7073  -30.8131  -32.8761 N   0  0  0  0  0  0  0  0  0  0  0  0
    5.1881  -29.7120  -33.4663 C   0  0  0  0  0  0  0  0  0  0  0  0
    4.6819  -28.5316  -32.9153 C   0  0  0  0  0  0  0  0  0  0  0  0
    5.9152  -31.5568  -35.9385 H   0  0  0  0  0  0  0  0  0  0  0  0
    2.7255  -26.4143  -32.6440 O   0  0  0  0  0  0  0  0  0  0  0  0
    3.7163  -26.4123  -33.3645 N   0  0  0  0  0  0  0  0  0  0  0  0
    4.2319  -25.3396  -33.6586 O   0  0  0  0  0  0  0  0  0  0  0  0
  6  5  1  0  0  0
  6  7  2  0  0  0
  5  4  1  0  0  0
  7  8  1  0  0  0
  4  8  2  0  0  0
  4  3  1  0  0  0
  8  9  1  0  0  0
  3  2  2  0  0  0
  9  1  2  0  0  0
  2  1  1  0  0  0
  1 12  1  0  0  0
 12 13  2  0  0  0
 12 11  1  0  0  0
  5 10  1  0  0  0
M  CHG 1  11  -1
M  CHG 1  12   1
M  END
> <minimizedAffinity>
-5.53149

$$$$
4MSA_2ZM_A_900


 13 14  0  0  0  0  0  0  0  0999 V2000
    4.3361  -27.8836  -33.7774 C   0  0  0  0  0  0  0  0  0  0  0  0
    4.1964  -28.3022  -32.4488 C   0  0  0  0  0  0  0  0  0  0  0  0
    5.0005  -29.2920  -31.8954 C   0  0  0  0  0  0  0  0  0  0  0  0
    5.9587  -29.8445  -32.7434 C   0  0  0  0  0  0  0  0  0  0  0  0
    6.8804  -30.7965  -32.5075 N   0  0  0  0  0  0  0  0  0  0  0  0
    7.5875  -30.9779  -33.6462 C   0  0  0  0  0  0  0  0  0  0  0  0
    7.1251  -30.1521  -34.6077 N   0  0  0  0  0  0  0  0  0  0  0  0
    6.1150  -29.4294  -34.0715 C   0  0  0  0  0  0  0  0  0  0  0  0
    5.3023  -28.4388  -34.6298 C   0  0  0  0  0  0  0  0  0  0  0  0
    7.0158  -31.2752  -31.6580 H   0  0  0  0  0  0  0  0  0  0  0  0
    2.9047  -26.2000  -33.4806 O   0  0  0  0  0  0  0  0  0  0  0  0
    3.5136  -26.9267  -34.2564 N   0  0  0  0  0  0  0  0  0  0  0  0
    3.3497  -26.7746  -35.4618 O   0  0  0  0  0  0  0  0  0  0  0  0
  6  5  1  0  0  0
  6  7  2  0  0  0
  5  4  1  0  0  0
  7  8  1  0  0  0
  4  8  2  0  0  0
  4  3  1  0  0  0
  8  9  1  0  0  0
  3  2  2  0  0  0
  9  1  2  0  0  0
  2  1  1  0  0  0
  1 12  1  0  0  0
 12 13  2  0  0  0
 12 11  1  0  0  0
  5 10  1  0  0  0
M  CHG 1  11  -1
M  CHG 1  12   1
M  END
> <minimizedAffinity>
-5.51858

$$$$
