4ZZX_FSU_A_1584


 20 21  0  0  0  0  0  0  0  0999 V2000
    7.8039   16.0000   57.2774 C   0  0  0  0  0  0  0  0  0  0  0  0
    6.6518   15.3184   57.3669 N   0  0  0  0  0  0  0  0  0  0  0  0
    8.7916   15.6363   58.3221 C   0  0  0  0  0  0  0  0  0  0  0  0
    8.0699   14.6886   59.0077 C   0  0  0  0  0  0  0  0  0  0  0  0
   10.0954   15.9696   58.7161 C   0  0  0  0  0  0  0  0  0  0  0  0
    6.7631   14.4600   58.4314 C   0  0  0  0  0  0  0  0  0  0  0  0
    8.0219   16.9042   56.3842 O   0  0  0  0  0  0  0  0  0  0  0  0
    8.6394   14.0455   60.1093 C   0  0  0  0  0  0  0  0  0  0  0  0
   10.6434   15.3269   59.8379 C   0  0  0  0  0  0  0  0  0  0  0  0
    9.9202   14.3553   60.5331 C   0  0  0  0  0  0  0  0  0  0  0  0
   10.9476   16.9725   57.9962 C   0  0  0  0  0  0  0  0  0  0  0  0
   12.0672   16.6412   57.6455 O   0  0  0  0  0  0  0  0  0  0  0  0
   10.4732   18.1667   57.6420 N   0  0  0  0  0  0  0  0  0  0  0  0
    9.5699   18.4403   57.9220 H   0  0  0  0  0  0  0  0  0  0  0  0
   11.0261   18.7752   57.1004 H   0  0  0  0  0  0  0  0  0  0  0  0
    5.5000   15.4492   56.4705 C   0  0  0  0  0  0  0  0  0  0  0  0
    5.1897   14.1224   55.8142 C   0  0  0  0  0  0  0  0  0  0  0  0
    5.2258   14.2866   54.2925 C   0  0  0  0  0  0  0  0  0  0  0  0
    3.8723   14.3506   53.8408 O   0  0  0  0  0  0  0  0  0  0  0  0
    3.3424   13.0333   53.6259 C   0  0  0  0  0  0  0  0  0  0  0  0
  1  2  1  0  0  0
  1  3  1  0  0  0
  1  7  2  0  0  0
  2  6  1  0  0  0
  2 16  1  0  0  0
  3  4  2  0  0  0
  3  5  1  0  0  0
  4  6  1  0  0  0
  4  8  1  0  0  0
  5 11  1  0  0  0
  5  9  2  0  0  0
 11 12  2  0  0  0
 11 13  1  0  0  0
 16 17  1  0  0  0
  8 10  2  0  0  0
  9 10  1  0  0  0
 17 18  1  0  0  0
 19 18  1  0  0  0
 19 20  1  0  0  0
 13 14  1  0  0  0
 13 15  1  0  0  0
M  END
> <minimizedAffinity>
-8.32002

$$$$
4ZZX_FSU_A_1584


 20 21  0  0  0  0  0  0  0  0999 V2000
    8.0831   14.8392   58.9234 C   0  0  0  0  0  0  0  0  0  0  0  0
    8.0626   13.9269   59.9068 N   0  0  0  0  0  0  0  0  0  0  0  0
    9.3513   15.6041   58.8496 C   0  0  0  0  0  0  0  0  0  0  0  0
   10.0325   15.0310   59.8969 C   0  0  0  0  0  0  0  0  0  0  0  0
    9.9408   16.6155   58.0777 C   0  0  0  0  0  0  0  0  0  0  0  0
    9.2735   13.9867   60.5491 C   0  0  0  0  0  0  0  0  0  0  0  0
    7.0852   15.0493   58.1342 O   0  0  0  0  0  0  0  0  0  0  0  0
   11.3287   15.4566   60.1975 C   0  0  0  0  0  0  0  0  0  0  0  0
   11.2367   17.0438   58.4076 C   0  0  0  0  0  0  0  0  0  0  0  0
   11.9390   16.4590   59.4635 C   0  0  0  0  0  0  0  0  0  0  0  0
    9.2652   17.2627   56.9049 C   0  0  0  0  0  0  0  0  0  0  0  0
    9.6291   18.3750   56.5635 O   0  0  0  0  0  0  0  0  0  0  0  0
    8.3618   16.6118   56.1721 N   0  0  0  0  0  0  0  0  0  0  0  0
    8.0638   15.7133   56.4424 H   0  0  0  0  0  0  0  0  0  0  0  0
    7.9927   17.0296   55.3607 H   0  0  0  0  0  0  0  0  0  0  0  0
    6.9577   13.0150   60.2150 C   0  0  0  0  0  0  0  0  0  0  0  0
    6.2763   13.4281   61.5005 C   0  0  0  0  0  0  0  0  0  0  0  0
    5.9639   12.1823   62.3338 C   0  0  0  0  0  0  0  0  0  0  0  0
    6.7259   12.2761   63.5384 O   0  0  0  0  0  0  0  0  0  0  0  0
    8.0633   11.7939   63.3359 C   0  0  0  0  0  0  0  0  0  0  0  0
  1  2  1  0  0  0
  1  3  1  0  0  0
  1  7  2  0  0  0
  2  6  1  0  0  0
  2 16  1  0  0  0
  3  4  2  0  0  0
  3  5  1  0  0  0
  4  6  1  0  0  0
  4  8  1  0  0  0
  5 11  1  0  0  0
  5  9  2  0  0  0
 11 12  2  0  0  0
 11 13  1  0  0  0
 16 17  1  0  0  0
  8 10  2  0  0  0
  9 10  1  0  0  0
 17 18  1  0  0  0
 19 18  1  0  0  0
 19 20  1  0  0  0
 13 14  1  0  0  0
 13 15  1  0  0  0
M  END
> <minimizedAffinity>
-8.18090

$$$$
4ZZX_FSU_A_1584


 20 21  0  0  0  0  0  0  0  0999 V2000
    8.0873   14.8657   58.8747 C   0  0  0  0  0  0  0  0  0  0  0  0
    8.0566   13.9510   59.8556 N   0  0  0  0  0  0  0  0  0  0  0  0
    9.3573   15.6289   58.8142 C   0  0  0  0  0  0  0  0  0  0  0  0
   10.0282   15.0521   59.8660 C   0  0  0  0  0  0  0  0  0  0  0  0
    9.9552   16.6413   58.0500 C   0  0  0  0  0  0  0  0  0  0  0  0
    9.2618   14.0073   60.5088 C   0  0  0  0  0  0  0  0  0  0  0  0
    7.0969   15.0793   58.0770 O   0  0  0  0  0  0  0  0  0  0  0  0
   11.3222   15.4749   60.1793 C   0  0  0  0  0  0  0  0  0  0  0  0
   11.2487   17.0668   58.3926 C   0  0  0  0  0  0  0  0  0  0  0  0
   11.9406   16.4782   59.4533 C   0  0  0  0  0  0  0  0  0  0  0  0
    9.2911   17.2924   56.8729 C   0  0  0  0  0  0  0  0  0  0  0  0
    9.6632   18.4029   56.5344 O   0  0  0  0  0  0  0  0  0  0  0  0
    8.3894   16.6465   56.1337 N   0  0  0  0  0  0  0  0  0  0  0  0
    8.0847   15.7495   56.4015 H   0  0  0  0  0  0  0  0  0  0  0  0
    8.0280   17.0665   55.3199 H   0  0  0  0  0  0  0  0  0  0  0  0
    6.9476   13.0400   60.1515 C   0  0  0  0  0  0  0  0  0  0  0  0
    6.4431   13.2639   61.5597 C   0  0  0  0  0  0  0  0  0  0  0  0
    4.9485   13.5927   61.5183 C   0  0  0  0  0  0  0  0  0  0  0  0
    4.6805   14.1887   60.2482 O   0  0  0  0  0  0  0  0  0  0  0  0
    3.9187   15.3963   60.4008 C   0  0  0  0  0  0  0  0  0  0  0  0
  1  2  1  0  0  0
  1  3  1  0  0  0
  1  7  2  0  0  0
  2  6  1  0  0  0
  2 16  1  0  0  0
  3  4  2  0  0  0
  3  5  1  0  0  0
  4  6  1  0  0  0
  4  8  1  0  0  0
  5 11  1  0  0  0
  5  9  2  0  0  0
 11 12  2  0  0  0
 11 13  1  0  0  0
 16 17  1  0  0  0
  8 10  2  0  0  0
  9 10  1  0  0  0
 17 18  1  0  0  0
 19 18  1  0  0  0
 19 20  1  0  0  0
 13 14  1  0  0  0
 13 15  1  0  0  0
M  END
> <minimizedAffinity>
-8.01698

$$$$
4ZZX_FSU_A_1584


 20 21  0  0  0  0  0  0  0  0999 V2000
    7.8433   15.9907   57.4352 C   0  0  0  0  0  0  0  0  0  0  0  0
    6.6912   15.3202   57.5864 N   0  0  0  0  0  0  0  0  0  0  0  0
    8.8797   15.6220   58.4296 C   0  0  0  0  0  0  0  0  0  0  0  0
    8.1855   14.6838   59.1554 C   0  0  0  0  0  0  0  0  0  0  0  0
   10.2049   15.9447   58.7551 C   0  0  0  0  0  0  0  0  0  0  0  0
    6.8489   14.4650   58.6477 C   0  0  0  0  0  0  0  0  0  0  0  0
    8.0235   16.8892   56.5280 O   0  0  0  0  0  0  0  0  0  0  0  0
    8.8047   14.0398   60.2294 C   0  0  0  0  0  0  0  0  0  0  0  0
   10.8037   15.3015   59.8503 C   0  0  0  0  0  0  0  0  0  0  0  0
   10.1082   14.3395   60.5858 C   0  0  0  0  0  0  0  0  0  0  0  0
   11.0283   16.9369   57.9881 C   0  0  0  0  0  0  0  0  0  0  0  0
   12.1280   16.5958   57.5875 O   0  0  0  0  0  0  0  0  0  0  0  0
   10.5449   18.1315   57.6476 N   0  0  0  0  0  0  0  0  0  0  0  0
    9.6575   18.4129   57.9677 H   0  0  0  0  0  0  0  0  0  0  0  0
   11.0753   18.7324   57.0759 H   0  0  0  0  0  0  0  0  0  0  0  0
    5.4963   15.4580   56.7495 C   0  0  0  0  0  0  0  0  0  0  0  0
    4.3514   14.6577   57.3294 C   0  0  0  0  0  0  0  0  0  0  0  0
    3.3158   15.6124   57.9294 C   0  0  0  0  0  0  0  0  0  0  0  0
    2.9300   15.0774   59.1963 O   0  0  0  0  0  0  0  0  0  0  0  0
    3.6765   15.6907   60.2588 C   0  0  0  0  0  0  0  0  0  0  0  0
  1  2  1  0  0  0
  1  3  1  0  0  0
  1  7  2  0  0  0
  2  6  1  0  0  0
  2 16  1  0  0  0
  3  4  2  0  0  0
  3  5  1  0  0  0
  4  6  1  0  0  0
  4  8  1  0  0  0
  5 11  1  0  0  0
  5  9  2  0  0  0
 11 12  2  0  0  0
 11 13  1  0  0  0
 16 17  1  0  0  0
  8 10  2  0  0  0
  9 10  1  0  0  0
 17 18  1  0  0  0
 19 18  1  0  0  0
 19 20  1  0  0  0
 13 14  1  0  0  0
 13 15  1  0  0  0
M  END
> <minimizedAffinity>
-7.97909

$$$$
4ZZX_FSU_A_1584


 20 21  0  0  0  0  0  0  0  0999 V2000
    7.7172   15.2855   58.0503 C   0  0  0  0  0  0  0  0  0  0  0  0
    7.1512   14.3219   58.7926 N   0  0  0  0  0  0  0  0  0  0  0  0
    9.0695   15.6767   58.5164 C   0  0  0  0  0  0  0  0  0  0  0  0
    9.1963   14.8390   59.5986 C   0  0  0  0  0  0  0  0  0  0  0  0
   10.1021   16.5584   58.1663 C   0  0  0  0  0  0  0  0  0  0  0  0
    8.0436   13.9841   59.7784 C   0  0  0  0  0  0  0  0  0  0  0  0
    7.1306   15.8375   57.0433 O   0  0  0  0  0  0  0  0  0  0  0  0
   10.3674   14.8612   60.3599 C   0  0  0  0  0  0  0  0  0  0  0  0
   11.2635   16.5804   58.9553 C   0  0  0  0  0  0  0  0  0  0  0  0
   11.4039   15.7248   60.0500 C   0  0  0  0  0  0  0  0  0  0  0  0
   10.0407   17.4778   56.9824 C   0  0  0  0  0  0  0  0  0  0  0  0
    9.8567   16.9948   55.8783 O   0  0  0  0  0  0  0  0  0  0  0  0
   10.0753   18.8027   57.1240 N   0  0  0  0  0  0  0  0  0  0  0  0
   10.2236   19.1991   58.0129 H   0  0  0  0  0  0  0  0  0  0  0  0
    9.9527   19.3849   56.3396 H   0  0  0  0  0  0  0  0  0  0  0  0
    5.8330   13.7222   58.5686 C   0  0  0  0  0  0  0  0  0  0  0  0
    5.5617   12.6467   59.5967 C   0  0  0  0  0  0  0  0  0  0  0  0
    5.0952   11.3720   58.8886 C   0  0  0  0  0  0  0  0  0  0  0  0
    6.2000   10.4667   58.8742 O   0  0  0  0  0  0  0  0  0  0  0  0
    6.9678   10.5781   60.0826 C   0  0  0  0  0  0  0  0  0  0  0  0
  1  2  1  0  0  0
  1  3  1  0  0  0
  1  7  2  0  0  0
  2  6  1  0  0  0
  2 16  1  0  0  0
  3  4  2  0  0  0
  3  5  1  0  0  0
  4  6  1  0  0  0
  4  8  1  0  0  0
  5 11  1  0  0  0
  5  9  2  0  0  0
 11 12  2  0  0  0
 11 13  1  0  0  0
 16 17  1  0  0  0
  8 10  2  0  0  0
  9 10  1  0  0  0
 17 18  1  0  0  0
 19 18  1  0  0  0
 19 20  1  0  0  0
 13 14  1  0  0  0
 13 15  1  0  0  0
M  END
> <minimizedAffinity>
-7.94983

$$$$
4ZZX_FSU_A_1584


 20 21  0  0  0  0  0  0  0  0999 V2000
    9.4840   14.3867   60.2450 C   0  0  0  0  0  0  0  0  0  0  0  0
    8.4275   13.6207   60.5563 N   0  0  0  0  0  0  0  0  0  0  0  0
    9.2643   15.2467   59.0570 C   0  0  0  0  0  0  0  0  0  0  0  0
    7.9810   14.8762   58.7330 C   0  0  0  0  0  0  0  0  0  0  0  0
    9.9455   16.2113   58.3008 C   0  0  0  0  0  0  0  0  0  0  0  0
    7.4373   13.8962   59.6474 C   0  0  0  0  0  0  0  0  0  0  0  0
   10.5941   14.3587   60.9004 O   0  0  0  0  0  0  0  0  0  0  0  0
    7.3432   15.4673   57.6397 C   0  0  0  0  0  0  0  0  0  0  0  0
    9.2952   16.7796   57.1936 C   0  0  0  0  0  0  0  0  0  0  0  0
    7.9876   16.4160   56.8647 C   0  0  0  0  0  0  0  0  0  0  0  0
   11.3347   16.6818   58.6161 C   0  0  0  0  0  0  0  0  0  0  0  0
   12.1056   16.8823   57.6932 O   0  0  0  0  0  0  0  0  0  0  0  0
   11.7047   16.9838   59.8605 N   0  0  0  0  0  0  0  0  0  0  0  0
   11.0868   16.8243   60.6102 H   0  0  0  0  0  0  0  0  0  0  0  0
   12.5958   17.3665   60.0299 H   0  0  0  0  0  0  0  0  0  0  0  0
    8.3416   12.6850   61.6806 C   0  0  0  0  0  0  0  0  0  0  0  0
    6.8997   12.3166   61.9507 C   0  0  0  0  0  0  0  0  0  0  0  0
    6.7650   10.7925   62.0019 C   0  0  0  0  0  0  0  0  0  0  0  0
    5.7143   10.4295   61.1049 O   0  0  0  0  0  0  0  0  0  0  0  0
    4.7743   11.5050   60.9570 C   0  0  0  0  0  0  0  0  0  0  0  0
  1  2  1  0  0  0
  1  3  1  0  0  0
  1  7  2  0  0  0
  2  6  1  0  0  0
  2 16  1  0  0  0
  3  4  2  0  0  0
  3  5  1  0  0  0
  4  6  1  0  0  0
  4  8  1  0  0  0
  5 11  1  0  0  0
  5  9  2  0  0  0
 11 12  2  0  0  0
 11 13  1  0  0  0
 16 17  1  0  0  0
  8 10  2  0  0  0
  9 10  1  0  0  0
 17 18  1  0  0  0
 19 18  1  0  0  0
 19 20  1  0  0  0
 13 14  1  0  0  0
 13 15  1  0  0  0
M  END
> <minimizedAffinity>
-7.77341

$$$$
4ZZX_FSU_A_1584


 20 21  0  0  0  0  0  0  0  0999 V2000
    6.3442   15.1815   59.2377 C   0  0  0  0  0  0  0  0  0  0  0  0
    7.6280   14.9941   58.8965 N   0  0  0  0  0  0  0  0  0  0  0  0
    5.9107   14.3593   60.3931 C   0  0  0  0  0  0  0  0  0  0  0  0
    7.0812   13.6886   60.6562 C   0  0  0  0  0  0  0  0  0  0  0  0
    4.7666   14.1396   61.1735 C   0  0  0  0  0  0  0  0  0  0  0  0
    8.1549   14.0735   59.7668 C   0  0  0  0  0  0  0  0  0  0  0  0
    5.5548   15.9810   58.6047 O   0  0  0  0  0  0  0  0  0  0  0  0
    7.1366   12.7782   61.7144 C   0  0  0  0  0  0  0  0  0  0  0  0
    4.8360   13.2060   62.2201 C   0  0  0  0  0  0  0  0  0  0  0  0
    6.0246   12.5285   62.5000 C   0  0  0  0  0  0  0  0  0  0  0  0
    3.4671   14.8579   60.9591 C   0  0  0  0  0  0  0  0  0  0  0  0
    3.0442   15.5757   61.8491 O   0  0  0  0  0  0  0  0  0  0  0  0
    2.8282   14.8128   59.7902 N   0  0  0  0  0  0  0  0  0  0  0  0
    3.1645   14.2351   59.0674 H   0  0  0  0  0  0  0  0  0  0  0  0
    2.0199   15.3570   59.6496 H   0  0  0  0  0  0  0  0  0  0  0  0
    8.3405   15.6734   57.8111 C   0  0  0  0  0  0  0  0  0  0  0  0
    9.6607   16.2191   58.3078 C   0  0  0  0  0  0  0  0  0  0  0  0
   10.0388   17.4577   57.4912 C   0  0  0  0  0  0  0  0  0  0  0  0
   11.3973   17.7715   57.8015 O   0  0  0  0  0  0  0  0  0  0  0  0
   12.0347   16.6740   58.4733 C   0  0  0  0  0  0  0  0  0  0  0  0
  1  2  1  0  0  0
  1  3  1  0  0  0
  1  7  2  0  0  0
  2  6  1  0  0  0
  2 16  1  0  0  0
  3  4  2  0  0  0
  3  5  1  0  0  0
  4  6  1  0  0  0
  4  8  1  0  0  0
  5 11  1  0  0  0
  5  9  2  0  0  0
 11 12  2  0  0  0
 11 13  1  0  0  0
 16 17  1  0  0  0
  8 10  2  0  0  0
  9 10  1  0  0  0
 17 18  1  0  0  0
 19 18  1  0  0  0
 19 20  1  0  0  0
 13 14  1  0  0  0
 13 15  1  0  0  0
M  END
> <minimizedAffinity>
-7.68189

$$$$
4ZZX_FSU_A_1584


 20 21  0  0  0  0  0  0  0  0999 V2000
    9.4711   14.3134   60.3244 C   0  0  0  0  0  0  0  0  0  0  0  0
    8.4663   13.4873   60.6526 N   0  0  0  0  0  0  0  0  0  0  0  0
    9.1829   15.1572   59.1394 C   0  0  0  0  0  0  0  0  0  0  0  0
    7.9186   14.7116   58.8358 C   0  0  0  0  0  0  0  0  0  0  0  0
    9.7945   16.1589   58.3721 C   0  0  0  0  0  0  0  0  0  0  0  0
    7.4477   13.7028   59.7591 C   0  0  0  0  0  0  0  0  0  0  0  0
   10.5910   14.3516   60.9624 O   0  0  0  0  0  0  0  0  0  0  0  0
    7.2303   15.2625   57.7522 C   0  0  0  0  0  0  0  0  0  0  0  0
    9.0948   16.6863   57.2749 C   0  0  0  0  0  0  0  0  0  0  0  0
    7.8059   16.2462   56.9666 C   0  0  0  0  0  0  0  0  0  0  0  0
   11.1585   16.7105   58.6654 C   0  0  0  0  0  0  0  0  0  0  0  0
   11.8900   16.9842   57.7294 O   0  0  0  0  0  0  0  0  0  0  0  0
   11.5412   17.0041   59.9079 N   0  0  0  0  0  0  0  0  0  0  0  0
   10.9551   16.7857   60.6682 H   0  0  0  0  0  0  0  0  0  0  0  0
   12.4101   17.4394   60.0654 H   0  0  0  0  0  0  0  0  0  0  0  0
    8.4529   12.5498   61.7788 C   0  0  0  0  0  0  0  0  0  0  0  0
    7.0383   12.3356   62.2694 C   0  0  0  0  0  0  0  0  0  0  0  0
    6.5854   10.9173   61.9127 C   0  0  0  0  0  0  0  0  0  0  0  0
    7.1968   10.0290   62.8493 O   0  0  0  0  0  0  0  0  0  0  0  0
    7.6768    8.8455   62.1928 C   0  0  0  0  0  0  0  0  0  0  0  0
  1  2  1  0  0  0
  1  3  1  0  0  0
  1  7  2  0  0  0
  2  6  1  0  0  0
  2 16  1  0  0  0
  3  4  2  0  0  0
  3  5  1  0  0  0
  4  6  1  0  0  0
  4  8  1  0  0  0
  5 11  1  0  0  0
  5  9  2  0  0  0
 11 12  2  0  0  0
 11 13  1  0  0  0
 16 17  1  0  0  0
  8 10  2  0  0  0
  9 10  1  0  0  0
 17 18  1  0  0  0
 19 18  1  0  0  0
 19 20  1  0  0  0
 13 14  1  0  0  0
 13 15  1  0  0  0
M  END
> <minimizedAffinity>
-7.61582

$$$$
4ZZX_FSU_A_1584


 20 21  0  0  0  0  0  0  0  0999 V2000
    7.9121   14.3083   59.3770 C   0  0  0  0  0  0  0  0  0  0  0  0
    6.7490   14.0406   58.7644 N   0  0  0  0  0  0  0  0  0  0  0  0
    8.7327   15.3245   58.6750 C   0  0  0  0  0  0  0  0  0  0  0  0
    7.9124   15.5901   57.6046 C   0  0  0  0  0  0  0  0  0  0  0  0
    9.9586   15.9892   58.8221 C   0  0  0  0  0  0  0  0  0  0  0  0
    6.6814   14.8318   57.6456 C   0  0  0  0  0  0  0  0  0  0  0  0
    8.2923   13.7189   60.4591 O   0  0  0  0  0  0  0  0  0  0  0  0
    8.2997   16.5347   56.6511 C   0  0  0  0  0  0  0  0  0  0  0  0
   10.3399   16.9206   57.8429 C   0  0  0  0  0  0  0  0  0  0  0  0
    9.5069   17.2034   56.7583 C   0  0  0  0  0  0  0  0  0  0  0  0
   10.8872   15.7682   59.9795 C   0  0  0  0  0  0  0  0  0  0  0  0
   11.1897   16.7229   60.6746 O   0  0  0  0  0  0  0  0  0  0  0  0
   11.2973   14.5474   60.3232 N   0  0  0  0  0  0  0  0  0  0  0  0
   11.0565   13.7722   59.7661 H   0  0  0  0  0  0  0  0  0  0  0  0
   11.8411   14.4209   61.1341 H   0  0  0  0  0  0  0  0  0  0  0  0
    5.7276   13.0969   59.2265 C   0  0  0  0  0  0  0  0  0  0  0  0
    4.3452   13.6094   58.8887 C   0  0  0  0  0  0  0  0  0  0  0  0
    3.6953   14.1880   60.1483 C   0  0  0  0  0  0  0  0  0  0  0  0
    2.7121   15.1325   59.7223 O   0  0  0  0  0  0  0  0  0  0  0  0
    3.1112   15.7689   58.4984 C   0  0  0  0  0  0  0  0  0  0  0  0
  1  2  1  0  0  0
  1  3  1  0  0  0
  1  7  2  0  0  0
  2  6  1  0  0  0
  2 16  1  0  0  0
  3  4  2  0  0  0
  3  5  1  0  0  0
  4  6  1  0  0  0
  4  8  1  0  0  0
  5 11  1  0  0  0
  5  9  2  0  0  0
 11 12  2  0  0  0
 11 13  1  0  0  0
 16 17  1  0  0  0
  8 10  2  0  0  0
  9 10  1  0  0  0
 17 18  1  0  0  0
 19 18  1  0  0  0
 19 20  1  0  0  0
 13 14  1  0  0  0
 13 15  1  0  0  0
M  END
> <minimizedAffinity>
-7.38352

$$$$
4ZZX_FSU_A_1584


 20 21  0  0  0  0  0  0  0  0999 V2000
    7.9499   14.1391   59.6543 C   0  0  0  0  0  0  0  0  0  0  0  0
    6.7539   13.8003   59.1498 N   0  0  0  0  0  0  0  0  0  0  0  0
    8.6655   15.1600   58.8513 C   0  0  0  0  0  0  0  0  0  0  0  0
    7.7502   15.3498   57.8436 C   0  0  0  0  0  0  0  0  0  0  0  0
    9.8688   15.8796   58.8729 C   0  0  0  0  0  0  0  0  0  0  0  0
    6.5612   14.5439   58.0130 C   0  0  0  0  0  0  0  0  0  0  0  0
    8.4422   13.6084   60.7215 O   0  0  0  0  0  0  0  0  0  0  0  0
    8.0170   16.2716   56.8284 C   0  0  0  0  0  0  0  0  0  0  0  0
   10.1280   16.7869   57.8332 C   0  0  0  0  0  0  0  0  0  0  0  0
    9.1983   16.9929   56.8117 C   0  0  0  0  0  0  0  0  0  0  0  0
   10.8969   15.7421   59.9568 C   0  0  0  0  0  0  0  0  0  0  0  0
   11.2366   16.7407   60.5679 O   0  0  0  0  0  0  0  0  0  0  0  0
   11.3610   14.5505   60.3327 N   0  0  0  0  0  0  0  0  0  0  0  0
   11.0905   13.7401   59.8434 H   0  0  0  0  0  0  0  0  0  0  0  0
   11.9743   14.4807   61.0996 H   0  0  0  0  0  0  0  0  0  0  0  0
    5.8159   12.8343   59.7278 C   0  0  0  0  0  0  0  0  0  0  0  0
    5.9635   11.4883   59.0540 C   0  0  0  0  0  0  0  0  0  0  0  0
    6.8964   10.6031   59.8848 C   0  0  0  0  0  0  0  0  0  0  0  0
    6.2137   10.2911   61.1001 O   0  0  0  0  0  0  0  0  0  0  0  0
    7.1328    9.8121   62.0941 C   0  0  0  0  0  0  0  0  0  0  0  0
  1  2  1  0  0  0
  1  3  1  0  0  0
  1  7  2  0  0  0
  2  6  1  0  0  0
  2 16  1  0  0  0
  3  4  2  0  0  0
  3  5  1  0  0  0
  4  6  1  0  0  0
  4  8  1  0  0  0
  5 11  1  0  0  0
  5  9  2  0  0  0
 11 12  2  0  0  0
 11 13  1  0  0  0
 16 17  1  0  0  0
  8 10  2  0  0  0
  9 10  1  0  0  0
 17 18  1  0  0  0
 19 18  1  0  0  0
 19 20  1  0  0  0
 13 14  1  0  0  0
 13 15  1  0  0  0
M  END
> <minimizedAffinity>
-7.33033

$$$$
