3FAT_AMQ_A_427


 17 17  0  0  0  0  0  0  0  0999 V2000
   10.7688   51.7248   20.7896 C   0  0  0  0  0  0  0  0  0  0  0  0
   10.0737   52.2009   19.5085 C   0  0  0  0  0  0  0  0  0  0  0  0
   10.4352   53.3289   18.7781 C   0  0  0  0  0  0  0  0  0  0  0  0
    8.9924   51.6515   18.8280 C   0  0  0  0  0  0  0  0  0  0  0  0
    8.2159   50.3920   19.2102 C   0  0  0  0  0  0  0  0  0  0  0  0
   11.4627   54.1707   19.0970 O   0  0  0  0  0  0  0  0  0  0  0  0
    9.6544   53.4727   17.7152 N   0  0  0  0  0  0  0  0  0  0  0  0
    8.7191   52.4066   17.7292 O   0  0  0  0  0  0  0  0  0  0  0  0
   11.9772   54.0125   19.8639 H   0  0  0  0  0  0  0  0  0  0  0  0
   12.2336   49.7406   20.8922 N   0  0  0  0  0  0  0  0  0  0  0  0
   12.1693   51.1506   20.4651 C   0  0  0  0  0  0  0  0  0  0  0  0
   13.1564   49.3624   20.6784 H   0  0  0  0  0  0  0  0  0  0  0  0
   11.5225   49.2026   20.3969 H   0  0  0  0  0  0  0  0  0  0  0  0
   13.2552   51.9391   21.1911 C   0  0  0  0  0  0  0  0  0  0  0  0
   13.4603   53.1087   20.7922 O   0  0  0  0  0  0  0  0  0  0  0  0
   13.8908   51.3529   22.0967 O   0  0  0  0  0  0  0  0  0  0  0  0
   13.6682   50.4734   22.3314 H   0  0  0  0  0  0  0  0  0  0  0  0
 10 11  1  0  0  0
 11 14  1  0  0  0
 11  1  1  0  0  0
 14 15  2  0  0  0
 14 16  1  0  0  0
  1  2  1  0  0  0
  2  3  1  0  0  0
  2  4  2  0  0  0
  3  6  1  0  0  0
  3  7  2  0  0  0
  4  5  1  0  0  0
  4  8  1  0  0  0
  7  8  1  0  0  0
 10 12  1  0  0  0
 10 13  1  0  0  0
 16 17  1  0  0  0
  6  9  1  0  0  0
M  END
> <minimizedAffinity>
-8.08800

$$$$
3FAT_AMQ_A_427


 17 17  0  0  0  0  0  0  0  0999 V2000
   10.4832   52.0696   20.4231 C   0  0  0  0  0  0  0  0  0  0  0  0
   11.8377   51.6566   21.0111 C   0  0  0  0  0  0  0  0  0  0  0  0
   12.4617   50.4324   20.7911 C   0  0  0  0  0  0  0  0  0  0  0  0
   12.6964   52.3638   21.8458 C   0  0  0  0  0  0  0  0  0  0  0  0
   12.4849   53.7760   22.3902 C   0  0  0  0  0  0  0  0  0  0  0  0
   11.9576   49.4257   20.0175 O   0  0  0  0  0  0  0  0  0  0  0  0
   13.6263   50.3760   21.4242 N   0  0  0  0  0  0  0  0  0  0  0  0
   13.7956   51.6061   22.1098 O   0  0  0  0  0  0  0  0  0  0  0  0
   11.1269   49.5294   19.5966 H   0  0  0  0  0  0  0  0  0  0  0  0
   11.1700   54.0340   19.0955 N   0  0  0  0  0  0  0  0  0  0  0  0
   10.6647   52.6519   19.0003 C   0  0  0  0  0  0  0  0  0  0  0  0
   11.2895   54.4175   18.1579 H   0  0  0  0  0  0  0  0  0  0  0  0
   12.0673   54.0353   19.5804 H   0  0  0  0  0  0  0  0  0  0  0  0
    9.3368   52.6594   18.2489 C   0  0  0  0  0  0  0  0  0  0  0  0
    8.7902   51.5474   18.0654 O   0  0  0  0  0  0  0  0  0  0  0  0
    8.9120   53.7612   17.8325 O   0  0  0  0  0  0  0  0  0  0  0  0
    9.3877   54.5470   18.0175 H   0  0  0  0  0  0  0  0  0  0  0  0
 10 11  1  0  0  0
 11 14  1  0  0  0
 11  1  1  0  0  0
 14 15  2  0  0  0
 14 16  1  0  0  0
  1  2  1  0  0  0
  2  3  1  0  0  0
  2  4  2  0  0  0
  3  6  1  0  0  0
  3  7  2  0  0  0
  4  5  1  0  0  0
  4  8  1  0  0  0
  7  8  1  0  0  0
 10 12  1  0  0  0
 10 13  1  0  0  0
 16 17  1  0  0  0
  6  9  1  0  0  0
M  END
> <minimizedAffinity>
-8.03072

$$$$
3FAT_AMQ_A_427


 17 17  0  0  0  0  0  0  0  0999 V2000
   11.0863   51.6256   20.8601 C   0  0  0  0  0  0  0  0  0  0  0  0
   10.9112   52.7445   19.8263 C   0  0  0  0  0  0  0  0  0  0  0  0
   10.0274   52.7055   18.7522 C   0  0  0  0  0  0  0  0  0  0  0  0
   11.5545   53.9738   19.7306 C   0  0  0  0  0  0  0  0  0  0  0  0
   12.6256   54.5211   20.6732 C   0  0  0  0  0  0  0  0  0  0  0  0
    9.1880   51.6660   18.4677 O   0  0  0  0  0  0  0  0  0  0  0  0
   10.0969   53.8247   18.0433 N   0  0  0  0  0  0  0  0  0  0  0  0
   11.0735   54.6527   18.6536 O   0  0  0  0  0  0  0  0  0  0  0  0
    9.1882   50.9017   19.0098 H   0  0  0  0  0  0  0  0  0  0  0  0
   11.9972   49.4412   20.1589 N   0  0  0  0  0  0  0  0  0  0  0  0
   12.3681   50.8097   20.5640 C   0  0  0  0  0  0  0  0  0  0  0  0
   12.8418   48.9037   19.9638 H   0  0  0  0  0  0  0  0  0  0  0  0
   11.4177   49.4801   19.3204 H   0  0  0  0  0  0  0  0  0  0  0  0
   13.2572   50.7371   21.8018 C   0  0  0  0  0  0  0  0  0  0  0  0
   13.8272   51.7983   22.1457 O   0  0  0  0  0  0  0  0  0  0  0  0
   13.3901   49.6224   22.3563 O   0  0  0  0  0  0  0  0  0  0  0  0
   12.9228   48.8784   22.0305 H   0  0  0  0  0  0  0  0  0  0  0  0
 10 11  1  0  0  0
 11 14  1  0  0  0
 11  1  1  0  0  0
 14 15  2  0  0  0
 14 16  1  0  0  0
  1  2  1  0  0  0
  2  3  1  0  0  0
  2  4  2  0  0  0
  3  6  1  0  0  0
  3  7  2  0  0  0
  4  5  1  0  0  0
  4  8  1  0  0  0
  7  8  1  0  0  0
 10 12  1  0  0  0
 10 13  1  0  0  0
 16 17  1  0  0  0
  6  9  1  0  0  0
M  END
> <minimizedAffinity>
-7.85106

$$$$
3FAT_AMQ_A_427


 17 17  0  0  0  0  0  0  0  0999 V2000
   11.0797   51.8507   20.8962 C   0  0  0  0  0  0  0  0  0  0  0  0
   10.1468   51.9564   19.6839 C   0  0  0  0  0  0  0  0  0  0  0  0
    9.1831   51.0149   19.3358 C   0  0  0  0  0  0  0  0  0  0  0  0
   10.0568   52.9517   18.7167 C   0  0  0  0  0  0  0  0  0  0  0  0
   10.8967   54.2259   18.6351 C   0  0  0  0  0  0  0  0  0  0  0  0
    8.9291   49.8639   20.0262 O   0  0  0  0  0  0  0  0  0  0  0  0
    8.5283   51.3913   18.2450 N   0  0  0  0  0  0  0  0  0  0  0  0
    9.0753   52.6323   17.8297 O   0  0  0  0  0  0  0  0  0  0  0  0
    9.4293   49.6562   20.7909 H   0  0  0  0  0  0  0  0  0  0  0  0
   11.9119   49.6524   20.1426 N   0  0  0  0  0  0  0  0  0  0  0  0
   12.3299   51.0077   20.5464 C   0  0  0  0  0  0  0  0  0  0  0  0
   12.7358   49.0970   19.9121 H   0  0  0  0  0  0  0  0  0  0  0  0
   11.3036   49.7133   19.3261 H   0  0  0  0  0  0  0  0  0  0  0  0
   13.2613   50.9018   21.7503 C   0  0  0  0  0  0  0  0  0  0  0  0
   13.4446   49.7543   22.2181 O   0  0  0  0  0  0  0  0  0  0  0  0
   13.7375   51.9643   22.2107 O   0  0  0  0  0  0  0  0  0  0  0  0
   13.5471   52.7820   21.7947 H   0  0  0  0  0  0  0  0  0  0  0  0
 10 11  1  0  0  0
 11 14  1  0  0  0
 11  1  1  0  0  0
 14 15  2  0  0  0
 14 16  1  0  0  0
  1  2  1  0  0  0
  2  3  1  0  0  0
  2  4  2  0  0  0
  3  6  1  0  0  0
  3  7  2  0  0  0
  4  5  1  0  0  0
  4  8  1  0  0  0
  7  8  1  0  0  0
 10 12  1  0  0  0
 10 13  1  0  0  0
 16 17  1  0  0  0
  6  9  1  0  0  0
M  END
> <minimizedAffinity>
-7.75692

$$$$
3FAT_AMQ_A_427


 17 17  0  0  0  0  0  0  0  0999 V2000
   11.1442   51.6715   20.8475 C   0  0  0  0  0  0  0  0  0  0  0  0
   11.1129   52.8866   19.9129 C   0  0  0  0  0  0  0  0  0  0  0  0
   11.9862   53.9678   19.9823 C   0  0  0  0  0  0  0  0  0  0  0  0
   10.2593   53.1692   18.8518 C   0  0  0  0  0  0  0  0  0  0  0  0
    9.1102   52.2980   18.3458 C   0  0  0  0  0  0  0  0  0  0  0  0
   12.9976   54.0988   20.8912 O   0  0  0  0  0  0  0  0  0  0  0  0
   11.7151   54.8548   19.0337 N   0  0  0  0  0  0  0  0  0  0  0  0
   10.6077   54.3621   18.2971 O   0  0  0  0  0  0  0  0  0  0  0  0
   13.1359   53.4344   21.5372 H   0  0  0  0  0  0  0  0  0  0  0  0
   11.8299   49.4240   20.0914 N   0  0  0  0  0  0  0  0  0  0  0  0
   12.3362   50.7483   20.4966 C   0  0  0  0  0  0  0  0  0  0  0  0
   12.6154   48.8158   19.8603 H   0  0  0  0  0  0  0  0  0  0  0  0
   11.2269   49.5257   19.2750 H   0  0  0  0  0  0  0  0  0  0  0  0
   13.2586   50.5800   21.7004 C   0  0  0  0  0  0  0  0  0  0  0  0
   13.2598   49.4558   22.2528 O   0  0  0  0  0  0  0  0  0  0  0  0
   13.9102   51.5809   22.0765 O   0  0  0  0  0  0  0  0  0  0  0  0
   13.8489   52.3857   21.6007 H   0  0  0  0  0  0  0  0  0  0  0  0
 10 11  1  0  0  0
 11 14  1  0  0  0
 11  1  1  0  0  0
 14 15  2  0  0  0
 14 16  1  0  0  0
  1  2  1  0  0  0
  2  3  1  0  0  0
  2  4  2  0  0  0
  3  6  1  0  0  0
  3  7  2  0  0  0
  4  5  1  0  0  0
  4  8  1  0  0  0
  7  8  1  0  0  0
 10 12  1  0  0  0
 10 13  1  0  0  0
 16 17  1  0  0  0
  6  9  1  0  0  0
M  END
> <minimizedAffinity>
-7.56284

$$$$
3FAT_AMQ_A_427


 17 17  0  0  0  0  0  0  0  0999 V2000
   10.0313   52.2180   20.6281 C   0  0  0  0  0  0  0  0  0  0  0  0
   11.4955   51.8804   20.9336 C   0  0  0  0  0  0  0  0  0  0  0  0
   12.1036   50.6577   20.6662 C   0  0  0  0  0  0  0  0  0  0  0  0
   12.4863   52.6669   21.5115 C   0  0  0  0  0  0  0  0  0  0  0  0
   12.3435   54.1104   21.9922 C   0  0  0  0  0  0  0  0  0  0  0  0
   11.4834   49.5851   20.0908 O   0  0  0  0  0  0  0  0  0  0  0  0
   13.3785   50.6747   21.0329 N   0  0  0  0  0  0  0  0  0  0  0  0
   13.6447   51.9558   21.5804 O   0  0  0  0  0  0  0  0  0  0  0  0
   10.5781   49.6385   19.8549 H   0  0  0  0  0  0  0  0  0  0  0  0
    9.2725   52.8724   18.3723 N   0  0  0  0  0  0  0  0  0  0  0  0
    9.6438   51.7203   19.2145 C   0  0  0  0  0  0  0  0  0  0  0  0
    9.0171   52.5444   17.4408 H   0  0  0  0  0  0  0  0  0  0  0  0
   10.0642   53.5117   18.3024 H   0  0  0  0  0  0  0  0  0  0  0  0
    8.4620   50.7581   19.2883 C   0  0  0  0  0  0  0  0  0  0  0  0
    7.4220   51.1886   19.8381 O   0  0  0  0  0  0  0  0  0  0  0  0
    8.6268   49.6011   18.8391 O   0  0  0  0  0  0  0  0  0  0  0  0
    9.4418   49.3644   18.4418 H   0  0  0  0  0  0  0  0  0  0  0  0
 10 11  1  0  0  0
 11 14  1  0  0  0
 11  1  1  0  0  0
 14 15  2  0  0  0
 14 16  1  0  0  0
  1  2  1  0  0  0
  2  3  1  0  0  0
  2  4  2  0  0  0
  3  6  1  0  0  0
  3  7  2  0  0  0
  4  5  1  0  0  0
  4  8  1  0  0  0
  7  8  1  0  0  0
 10 12  1  0  0  0
 10 13  1  0  0  0
 16 17  1  0  0  0
  6  9  1  0  0  0
M  END
> <minimizedAffinity>
-7.26584

$$$$
3FAT_AMQ_A_427


 17 17  0  0  0  0  0  0  0  0999 V2000
   11.0593   52.3617   21.0577 C   0  0  0  0  0  0  0  0  0  0  0  0
   10.3695   52.5393   19.6999 C   0  0  0  0  0  0  0  0  0  0  0  0
   10.5752   53.6104   18.8358 C   0  0  0  0  0  0  0  0  0  0  0  0
    9.4397   51.7244   19.0628 C   0  0  0  0  0  0  0  0  0  0  0  0
    8.8687   50.4068   19.5855 C   0  0  0  0  0  0  0  0  0  0  0  0
   11.4232   54.6548   19.0731 O   0  0  0  0  0  0  0  0  0  0  0  0
    9.8450   53.4765   17.7362 N   0  0  0  0  0  0  0  0  0  0  0  0
    9.1063   52.2722   17.8624 O   0  0  0  0  0  0  0  0  0  0  0  0
   11.9114   54.6896   19.8721 H   0  0  0  0  0  0  0  0  0  0  0  0
   12.9766   52.3158   19.5036 N   0  0  0  0  0  0  0  0  0  0  0  0
   12.5396   51.9522   20.8642 C   0  0  0  0  0  0  0  0  0  0  0  0
   13.9520   52.0460   19.3762 H   0  0  0  0  0  0  0  0  0  0  0  0
   12.8828   53.3233   19.3742 H   0  0  0  0  0  0  0  0  0  0  0  0
   12.7109   50.4482   21.0553 C   0  0  0  0  0  0  0  0  0  0  0  0
   13.4041   50.0825   22.0324 O   0  0  0  0  0  0  0  0  0  0  0  0
   12.1893   49.6921   20.2044 O   0  0  0  0  0  0  0  0  0  0  0  0
   11.6842   50.0540   19.5030 H   0  0  0  0  0  0  0  0  0  0  0  0
 10 11  1  0  0  0
 11 14  1  0  0  0
 11  1  1  0  0  0
 14 15  2  0  0  0
 14 16  1  0  0  0
  1  2  1  0  0  0
  2  3  1  0  0  0
  2  4  2  0  0  0
  3  6  1  0  0  0
  3  7  2  0  0  0
  4  5  1  0  0  0
  4  8  1  0  0  0
  7  8  1  0  0  0
 10 12  1  0  0  0
 10 13  1  0  0  0
 16 17  1  0  0  0
  6  9  1  0  0  0
M  END
> <minimizedAffinity>
-7.16082

$$$$
3FAT_AMQ_A_427


 17 17  0  0  0  0  0  0  0  0999 V2000
    9.8802   52.0740   20.4097 C   0  0  0  0  0  0  0  0  0  0  0  0
   11.3908   52.3335   20.3666 C   0  0  0  0  0  0  0  0  0  0  0  0
   11.9869   53.4882   19.8689 C   0  0  0  0  0  0  0  0  0  0  0  0
   12.4429   51.5266   20.7865 C   0  0  0  0  0  0  0  0  0  0  0  0
   12.3354   50.1393   21.4183 C   0  0  0  0  0  0  0  0  0  0  0  0
   11.3108   54.5560   19.3504 O   0  0  0  0  0  0  0  0  0  0  0  0
   13.3075   53.4219   19.9778 N   0  0  0  0  0  0  0  0  0  0  0  0
   13.6218   52.1688   20.5631 O   0  0  0  0  0  0  0  0  0  0  0  0
   10.3752   54.5393   19.3017 H   0  0  0  0  0  0  0  0  0  0  0  0
    8.8549   52.7614   18.2721 N   0  0  0  0  0  0  0  0  0  0  0  0
    9.3713   51.6037   19.0255 C   0  0  0  0  0  0  0  0  0  0  0  0
    8.5196   52.4513   17.3600 H   0  0  0  0  0  0  0  0  0  0  0  0
    9.6012   53.4450   18.1456 H   0  0  0  0  0  0  0  0  0  0  0  0
    8.2545   50.5762   19.1837 C   0  0  0  0  0  0  0  0  0  0  0  0
    8.4032   49.4890   18.5797 O   0  0  0  0  0  0  0  0  0  0  0  0
    7.2556   50.9051   19.8632 O   0  0  0  0  0  0  0  0  0  0  0  0
    7.2293   51.7426   20.2826 H   0  0  0  0  0  0  0  0  0  0  0  0
 10 11  1  0  0  0
 11 14  1  0  0  0
 11  1  1  0  0  0
 14 15  2  0  0  0
 14 16  1  0  0  0
  1  2  1  0  0  0
  2  3  1  0  0  0
  2  4  2  0  0  0
  3  6  1  0  0  0
  3  7  2  0  0  0
  4  5  1  0  0  0
  4  8  1  0  0  0
  7  8  1  0  0  0
 10 12  1  0  0  0
 10 13  1  0  0  0
 16 17  1  0  0  0
  6  9  1  0  0  0
M  END
> <minimizedAffinity>
-6.94277

$$$$
3FAT_AMQ_A_427


 17 17  0  0  0  0  0  0  0  0999 V2000
   10.6250   52.0226   20.6222 C   0  0  0  0  0  0  0  0  0  0  0  0
    9.7408   51.9255   19.3732 C   0  0  0  0  0  0  0  0  0  0  0  0
    8.9628   50.8236   19.0315 C   0  0  0  0  0  0  0  0  0  0  0  0
    9.5287   52.8553   18.3608 C   0  0  0  0  0  0  0  0  0  0  0  0
   10.1479   54.2483   18.2543 C   0  0  0  0  0  0  0  0  0  0  0  0
    8.8739   49.6726   19.7619 O   0  0  0  0  0  0  0  0  0  0  0  0
    8.3024   51.0443   17.9023 N   0  0  0  0  0  0  0  0  0  0  0  0
    8.6531   52.3433   17.4535 O   0  0  0  0  0  0  0  0  0  0  0  0
    9.3681   49.5801   20.5525 H   0  0  0  0  0  0  0  0  0  0  0  0
   12.8836   51.0495   20.4103 N   0  0  0  0  0  0  0  0  0  0  0  0
   12.0981   52.2836   20.2246 C   0  0  0  0  0  0  0  0  0  0  0  0
   13.8542   51.2216   20.1483 H   0  0  0  0  0  0  0  0  0  0  0  0
   12.4988   50.3099   19.8226 H   0  0  0  0  0  0  0  0  0  0  0  0
   12.6999   53.3894   21.0866 C   0  0  0  0  0  0  0  0  0  0  0  0
   12.4217   53.3625   22.3077 O   0  0  0  0  0  0  0  0  0  0  0  0
   13.3866   54.2644   20.5118 O   0  0  0  0  0  0  0  0  0  0  0  0
   13.5451   54.2050   19.5902 H   0  0  0  0  0  0  0  0  0  0  0  0
 10 11  1  0  0  0
 11 14  1  0  0  0
 11  1  1  0  0  0
 14 15  2  0  0  0
 14 16  1  0  0  0
  1  2  1  0  0  0
  2  3  1  0  0  0
  2  4  2  0  0  0
  3  6  1  0  0  0
  3  7  2  0  0  0
  4  5  1  0  0  0
  4  8  1  0  0  0
  7  8  1  0  0  0
 10 12  1  0  0  0
 10 13  1  0  0  0
 16 17  1  0  0  0
  6  9  1  0  0  0
M  END
> <minimizedAffinity>
-6.82653

$$$$
3FAT_AMQ_A_427


 17 17  0  0  0  0  0  0  0  0999 V2000
    9.7430   52.0908   20.3726 C   0  0  0  0  0  0  0  0  0  0  0  0
   11.2656   52.2663   20.3265 C   0  0  0  0  0  0  0  0  0  0  0  0
   12.1912   51.2904   20.6831 C   0  0  0  0  0  0  0  0  0  0  0  0
   12.0212   53.3696   19.9441 C   0  0  0  0  0  0  0  0  0  0  0  0
   11.4900   54.7170   19.4566 C   0  0  0  0  0  0  0  0  0  0  0  0
   11.8750   50.0361   21.1221 O   0  0  0  0  0  0  0  0  0  0  0  0
   13.4308   51.7361   20.5259 N   0  0  0  0  0  0  0  0  0  0  0  0
   13.3444   53.0708   20.0537 O   0  0  0  0  0  0  0  0  0  0  0  0
   10.9771   49.7834   21.2114 H   0  0  0  0  0  0  0  0  0  0  0  0
    8.5527   52.7456   18.3117 N   0  0  0  0  0  0  0  0  0  0  0  0
    9.2100   51.6182   18.9983 C   0  0  0  0  0  0  0  0  0  0  0  0
    8.2015   52.4341   17.4061 H   0  0  0  0  0  0  0  0  0  0  0  0
    9.2261   53.4992   18.1742 H   0  0  0  0  0  0  0  0  0  0  0  0
    8.2010   50.4871   19.1728 C   0  0  0  0  0  0  0  0  0  0  0  0
    8.4412   49.4218   18.5591 O   0  0  0  0  0  0  0  0  0  0  0  0
    7.1894   50.7150   19.8746 O   0  0  0  0  0  0  0  0  0  0  0  0
    7.0913   51.5443   20.2996 H   0  0  0  0  0  0  0  0  0  0  0  0
 10 11  1  0  0  0
 11 14  1  0  0  0
 11  1  1  0  0  0
 14 15  2  0  0  0
 14 16  1  0  0  0
  1  2  1  0  0  0
  2  3  1  0  0  0
  2  4  2  0  0  0
  3  6  1  0  0  0
  3  7  2  0  0  0
  4  5  1  0  0  0
  4  8  1  0  0  0
  7  8  1  0  0  0
 10 12  1  0  0  0
 10 13  1  0  0  0
 16 17  1  0  0  0
  6  9  1  0  0  0
M  END
> <minimizedAffinity>
-6.43120

$$$$
