3D0E_G93_A_1


 35 38  0  0  0  0  0  0  0  0999 V2000
   22.4025  -18.5779    9.6628 N   0  0  0  0  0  0  0  0  0  0  0  0
   23.0202  -16.8680    8.2963 N   0  0  0  0  0  0  0  0  0  0  0  0
   23.3094  -18.2881    6.2285 C   0  0  0  0  0  0  0  0  0  0  0  0
   23.2073  -19.5596    5.7865 N   0  0  0  0  0  0  0  0  0  0  0  0
   23.0126  -18.0003    7.5642 C   0  0  0  0  0  0  0  0  0  0  0  0
   22.6452  -17.2551    9.5372 C   0  0  0  0  0  0  0  0  0  0  0  0
   22.6348  -19.0453    8.4170 C   0  0  0  0  0  0  0  0  0  0  0  0
   22.5420  -20.3582    7.9357 C   0  0  0  0  0  0  0  0  0  0  0  0
   22.8459  -20.5715    6.5868 C   0  0  0  0  0  0  0  0  0  0  0  0
   21.8712  -14.3876    9.2274 N   0  0  0  0  0  0  0  0  0  0  0  0
   22.2093  -14.9085   10.4434 C   0  0  0  0  0  0  0  0  0  0  0  0
   22.2093  -14.1837   11.5743 N   0  0  0  0  0  0  0  0  0  0  0  0
   22.6288  -15.1746   12.5280 O   0  0  0  0  0  0  0  0  0  0  0  0
   22.8642  -16.4769   11.9445 N   0  0  0  0  0  0  0  0  0  0  0  0
   22.5565  -16.2394   10.6471 C   0  0  0  0  0  0  0  0  0  0  0  0
   21.6346  -13.4352    9.1484 H   0  0  0  0  0  0  0  0  0  0  0  0
   21.8639  -14.9644    8.4296 H   0  0  0  0  0  0  0  0  0  0  0  0
   23.6389  -17.3812    5.3729 C   0  0  0  0  0  0  0  0  0  0  0  0
   23.8120  -16.6416    4.4473 C   0  0  0  0  0  0  0  0  0  0  0  0
   23.8481  -15.5880    3.4089 C   0  0  0  0  0  0  0  0  0  0  0  0
   22.9272  -14.4425    3.8157 C   0  0  0  0  0  0  0  0  0  0  0  0
   25.2800  -15.0937    3.2515 C   0  0  0  0  0  0  0  0  0  0  0  0
   23.4266  -16.1263    2.1520 O   0  0  0  0  0  0  0  0  0  0  0  0
   22.5148  -16.4484    2.2277 H   0  0  0  0  0  0  0  0  0  0  0  0
   21.9642  -19.3265   10.8566 C   0  0  0  0  0  0  0  0  0  0  0  0
   23.1109  -19.9623   11.6061 C   0  0  0  0  0  0  0  0  0  0  0  0
   22.1663  -21.4193    8.7308 O   0  0  0  0  0  0  0  0  0  0  0  0
   22.4110  -22.7805    8.3458 C   0  0  0  0  0  0  0  0  0  0  0  0
   21.8493  -23.7666    9.3651 C   0  0  0  0  0  0  0  0  0  0  0  0
   20.5423  -23.2542    9.9555 C   0  0  0  0  0  0  0  0  0  0  0  0
   20.0777  -24.0993   11.0494 N   0  0  0  0  0  0  0  0  0  0  0  0
   20.9827  -24.6932   12.0186 C   0  0  0  0  0  0  0  0  0  0  0  0
   22.3284  -25.0903   11.4146 C   0  0  0  0  0  0  0  0  0  0  0  0
   22.8479  -23.9969   10.4911 C   0  0  0  0  0  0  0  0  0  0  0  0
   19.5795  -24.8760   10.6148 H   0  0  0  0  0  0  0  0  0  0  0  0
 18  3  1  0  0  0
 18 19  3  0  0  0
  1  6  1  0  0  0
  1 25  1  0  0  0
  1  7  1  0  0  0
  2  5  1  0  0  0
  2  6  2  0  0  0
  3  4  2  0  0  0
  3  5  1  0  0  0
 27  8  1  0  0  0
 27 28  1  0  0  0
  4  9  1  0  0  0
  5  7  2  0  0  0
 10 11  1  0  0  0
 11 12  2  0  0  0
 11 15  1  0  0  0
 12 13  1  0  0  0
 13 14  1  0  0  0
 14 15  2  0  0  0
 15  6  1  0  0  0
 25 26  1  0  0  0
 19 20  1  0  0  0
 20 21  1  0  0  0
 20 22  1  0  0  0
 20 23  1  0  0  0
  7  8  1  0  0  0
  8  9  2  0  0  0
 28 29  1  0  0  0
 29 30  1  0  0  0
 29 34  1  0  0  0
 30 31  1  0  0  0
 31 32  1  0  0  0
 32 33  1  0  0  0
 33 34  1  0  0  0
 10 16  1  0  0  0
 10 17  1  0  0  0
 23 24  1  0  0  0
 31 35  1  0  0  0
M  END
> <minimizedAffinity>
-11.08893

$$$$
3D0E_G93_A_1


 35 38  0  0  0  0  0  0  0  0999 V2000
   22.0171  -22.3814    8.5311 N   0  0  0  0  0  0  0  0  0  0  0  0
   21.1385  -24.4060    9.0804 N   0  0  0  0  0  0  0  0  0  0  0  0
   21.0970  -23.9966   11.5717 C   0  0  0  0  0  0  0  0  0  0  0  0
   21.3930  -23.0655   12.5034 N   0  0  0  0  0  0  0  0  0  0  0  0
   21.3194  -23.7104   10.2213 C   0  0  0  0  0  0  0  0  0  0  0  0
   21.5603  -23.5766    8.0983 C   0  0  0  0  0  0  0  0  0  0  0  0
   21.8639  -22.4685    9.8702 C   0  0  0  0  0  0  0  0  0  0  0  0
   22.1685  -21.5208   10.8566 C   0  0  0  0  0  0  0  0  0  0  0  0
   21.9125  -21.8719   12.1865 C   0  0  0  0  0  0  0  0  0  0  0  0
   19.0995  -23.9602    6.4507 N   0  0  0  0  0  0  0  0  0  0  0  0
   20.3429  -24.2127    5.9463 C   0  0  0  0  0  0  0  0  0  0  0  0
   20.5489  -24.6362    4.6883 N   0  0  0  0  0  0  0  0  0  0  0  0
   21.9825  -24.7460    4.6737 O   0  0  0  0  0  0  0  0  0  0  0  0
   22.6044  -24.3772    5.9264 N   0  0  0  0  0  0  0  0  0  0  0  0
   21.5211  -24.0311    6.6618 C   0  0  0  0  0  0  0  0  0  0  0  0
   18.3023  -24.1092    5.8925 H   0  0  0  0  0  0  0  0  0  0  0  0
   19.0001  -23.6291    7.3725 H   0  0  0  0  0  0  0  0  0  0  0  0
   20.5753  -25.1043   11.9766 C   0  0  0  0  0  0  0  0  0  0  0  0
   19.9428  -26.0084   12.4415 C   0  0  0  0  0  0  0  0  0  0  0  0
   19.0499  -27.1348   12.7931 C   0  0  0  0  0  0  0  0  0  0  0  0
   19.8465  -28.4354   12.7858 C   0  0  0  0  0  0  0  0  0  0  0  0
   18.4494  -26.8826   14.1697 C   0  0  0  0  0  0  0  0  0  0  0  0
   17.9757  -27.2188   11.8518 O   0  0  0  0  0  0  0  0  0  0  0  0
   18.3346  -27.3796   10.9651 H   0  0  0  0  0  0  0  0  0  0  0  0
   22.5306  -21.2477    7.7383 C   0  0  0  0  0  0  0  0  0  0  0  0
   21.4364  -20.3306    7.2458 C   0  0  0  0  0  0  0  0  0  0  0  0
   22.6966  -20.2822   10.5632 O   0  0  0  0  0  0  0  0  0  0  0  0
   22.8515  -19.2660   11.5654 C   0  0  0  0  0  0  0  0  0  0  0  0
   22.3646  -17.9068   11.0731 C   0  0  0  0  0  0  0  0  0  0  0  0
   22.7067  -17.7056    9.6028 C   0  0  0  0  0  0  0  0  0  0  0  0
   22.4000  -16.3507    9.1591 N   0  0  0  0  0  0  0  0  0  0  0  0
   22.6269  -15.1834    9.9938 C   0  0  0  0  0  0  0  0  0  0  0  0
   22.3847  -15.4537   11.4777 C   0  0  0  0  0  0  0  0  0  0  0  0
   22.9950  -16.7865   11.8890 C   0  0  0  0  0  0  0  0  0  0  0  0
   21.4060  -16.3462    8.9307 H   0  0  0  0  0  0  0  0  0  0  0  0
 18  3  1  0  0  0
 18 19  3  0  0  0
  1  6  1  0  0  0
  1 25  1  0  0  0
  1  7  1  0  0  0
  2  5  1  0  0  0
  2  6  2  0  0  0
  3  4  2  0  0  0
  3  5  1  0  0  0
 27  8  1  0  0  0
 27 28  1  0  0  0
  4  9  1  0  0  0
  5  7  2  0  0  0
 10 11  1  0  0  0
 11 12  2  0  0  0
 11 15  1  0  0  0
 12 13  1  0  0  0
 13 14  1  0  0  0
 14 15  2  0  0  0
 15  6  1  0  0  0
 25 26  1  0  0  0
 19 20  1  0  0  0
 20 21  1  0  0  0
 20 22  1  0  0  0
 20 23  1  0  0  0
  7  8  1  0  0  0
  8  9  2  0  0  0
 28 29  1  0  0  0
 29 30  1  0  0  0
 29 34  1  0  0  0
 30 31  1  0  0  0
 31 32  1  0  0  0
 32 33  1  0  0  0
 33 34  1  0  0  0
 10 16  1  0  0  0
 10 17  1  0  0  0
 23 24  1  0  0  0
 31 35  1  0  0  0
M  END
> <minimizedAffinity>
-9.06125

$$$$
3D0E_G93_A_1


 35 38  0  0  0  0  0  0  0  0999 V2000
   22.1187  -21.4026    8.8961 N   0  0  0  0  0  0  0  0  0  0  0  0
   21.5661  -20.8105   11.0214 N   0  0  0  0  0  0  0  0  0  0  0  0
   21.2840  -23.1698   11.8763 C   0  0  0  0  0  0  0  0  0  0  0  0
   21.3655  -24.4603   11.4885 N   0  0  0  0  0  0  0  0  0  0  0  0
   21.5619  -22.1572   10.9529 C   0  0  0  0  0  0  0  0  0  0  0  0
   21.9086  -20.4015    9.7782 C   0  0  0  0  0  0  0  0  0  0  0  0
   21.8996  -22.5087    9.6397 C   0  0  0  0  0  0  0  0  0  0  0  0
   21.9715  -23.8557    9.2598 C   0  0  0  0  0  0  0  0  0  0  0  0
   21.6886  -24.8155   10.2377 C   0  0  0  0  0  0  0  0  0  0  0  0
   22.8752  -18.2787   11.6429 N   0  0  0  0  0  0  0  0  0  0  0  0
   22.4392  -17.9788   10.3843 C   0  0  0  0  0  0  0  0  0  0  0  0
   22.4222  -16.7277    9.8955 N   0  0  0  0  0  0  0  0  0  0  0  0
   21.8903  -16.9608    8.5802 O   0  0  0  0  0  0  0  0  0  0  0  0
   21.6066  -18.3527    8.3084 N   0  0  0  0  0  0  0  0  0  0  0  0
   21.9993  -18.9290    9.4694 C   0  0  0  0  0  0  0  0  0  0  0  0
   23.1745  -17.5592   12.2446 H   0  0  0  0  0  0  0  0  0  0  0  0
   22.8904  -19.2144   11.9487 H   0  0  0  0  0  0  0  0  0  0  0  0
   20.9916  -22.9323   13.1096 C   0  0  0  0  0  0  0  0  0  0  0  0
   20.5799  -22.5728   14.1750 C   0  0  0  0  0  0  0  0  0  0  0  0
   19.9181  -22.3246   15.4750 C   0  0  0  0  0  0  0  0  0  0  0  0
   19.0875  -21.0486   15.3865 C   0  0  0  0  0  0  0  0  0  0  0  0
   19.0339  -23.5161   15.8185 C   0  0  0  0  0  0  0  0  0  0  0  0
   20.9011  -22.1929   16.5062 O   0  0  0  0  0  0  0  0  0  0  0  0
   21.4777  -21.4383   16.3088 H   0  0  0  0  0  0  0  0  0  0  0  0
   22.5171  -21.3146    7.4780 C   0  0  0  0  0  0  0  0  0  0  0  0
   23.9664  -20.9305    7.2967 C   0  0  0  0  0  0  0  0  0  0  0  0
   22.3079  -24.2540    7.9841 O   0  0  0  0  0  0  0  0  0  0  0  0
   21.5668  -25.2648    7.2841 C   0  0  0  0  0  0  0  0  0  0  0  0
   21.4959  -24.9800    5.7872 C   0  0  0  0  0  0  0  0  0  0  0  0
   20.0545  -24.7787    5.3388 C   0  0  0  0  0  0  0  0  0  0  0  0
   19.9518  -24.6720    3.8880 N   0  0  0  0  0  0  0  0  0  0  0  0
   20.7548  -25.4785    2.9850 C   0  0  0  0  0  0  0  0  0  0  0  0
   22.1582  -25.7571    3.5202 C   0  0  0  0  0  0  0  0  0  0  0  0
   22.1080  -26.1278    4.9960 C   0  0  0  0  0  0  0  0  0  0  0  0
   20.1607  -23.6998    3.6605 H   0  0  0  0  0  0  0  0  0  0  0  0
 18  3  1  0  0  0
 18 19  3  0  0  0
  1  6  1  0  0  0
  1 25  1  0  0  0
  1  7  1  0  0  0
  2  5  1  0  0  0
  2  6  2  0  0  0
  3  4  2  0  0  0
  3  5  1  0  0  0
 27  8  1  0  0  0
 27 28  1  0  0  0
  4  9  1  0  0  0
  5  7  2  0  0  0
 10 11  1  0  0  0
 11 12  2  0  0  0
 11 15  1  0  0  0
 12 13  1  0  0  0
 13 14  1  0  0  0
 14 15  2  0  0  0
 15  6  1  0  0  0
 25 26  1  0  0  0
 19 20  1  0  0  0
 20 21  1  0  0  0
 20 22  1  0  0  0
 20 23  1  0  0  0
  7  8  1  0  0  0
  8  9  2  0  0  0
 28 29  1  0  0  0
 29 30  1  0  0  0
 29 34  1  0  0  0
 30 31  1  0  0  0
 31 32  1  0  0  0
 32 33  1  0  0  0
 33 34  1  0  0  0
 10 16  1  0  0  0
 10 17  1  0  0  0
 23 24  1  0  0  0
 31 35  1  0  0  0
M  END
> <minimizedAffinity>
-8.47501

$$$$
3D0E_G93_A_1


 35 38  0  0  0  0  0  0  0  0999 V2000
   21.5344  -25.7558    7.2196 N   0  0  0  0  0  0  0  0  0  0  0  0
   21.9148  -23.7085    6.3048 N   0  0  0  0  0  0  0  0  0  0  0  0
   22.3702  -22.5339    8.4932 C   0  0  0  0  0  0  0  0  0  0  0  0
   22.4454  -22.7513    9.8235 N   0  0  0  0  0  0  0  0  0  0  0  0
   22.0646  -23.5989    7.6404 C   0  0  0  0  0  0  0  0  0  0  0  0
   21.6059  -25.0090    6.0963 C   0  0  0  0  0  0  0  0  0  0  0  0
   21.8243  -24.8640    8.1918 C   0  0  0  0  0  0  0  0  0  0  0  0
   21.9024  -25.0629    9.5767 C   0  0  0  0  0  0  0  0  0  0  0  0
   22.2206  -23.9543   10.3687 C   0  0  0  0  0  0  0  0  0  0  0  0
   19.5486  -23.9409    4.2137 N   0  0  0  0  0  0  0  0  0  0  0  0
   20.3597  -24.9834    3.8682 C   0  0  0  0  0  0  0  0  0  0  0  0
   20.3002  -25.5900    2.6712 N   0  0  0  0  0  0  0  0  0  0  0  0
   21.3272  -26.5848    2.8232 O   0  0  0  0  0  0  0  0  0  0  0  0
   21.9853  -26.5458    4.1106 N   0  0  0  0  0  0  0  0  0  0  0  0
   21.3467  -25.5053    4.6970 C   0  0  0  0  0  0  0  0  0  0  0  0
   18.8673  -23.6167    3.5812 H   0  0  0  0  0  0  0  0  0  0  0  0
   19.6451  -23.5133    5.0952 H   0  0  0  0  0  0  0  0  0  0  0  0
   22.6304  -21.3457    8.0649 C   0  0  0  0  0  0  0  0  0  0  0  0
   22.6607  -20.2161    7.6689 C   0  0  0  0  0  0  0  0  0  0  0  0
   22.7292  -18.7591    7.4195 C   0  0  0  0  0  0  0  0  0  0  0  0
   22.4311  -18.0080    8.7129 C   0  0  0  0  0  0  0  0  0  0  0  0
   24.1186  -18.4075    6.9043 C   0  0  0  0  0  0  0  0  0  0  0  0
   21.7798  -18.3904    6.4146 O   0  0  0  0  0  0  0  0  0  0  0  0
   20.8849  -18.6054    6.7209 H   0  0  0  0  0  0  0  0  0  0  0  0
   21.2407  -27.1956    7.3534 C   0  0  0  0  0  0  0  0  0  0  0  0
   22.4808  -28.0562    7.3037 C   0  0  0  0  0  0  0  0  0  0  0  0
   21.6840  -26.2886   10.1677 O   0  0  0  0  0  0  0  0  0  0  0  0
   21.4578  -26.4215   11.5792 C   0  0  0  0  0  0  0  0  0  0  0  0
   19.9705  -26.4084   11.9177 C   0  0  0  0  0  0  0  0  0  0  0  0
   19.5869  -25.1216   12.6363 C   0  0  0  0  0  0  0  0  0  0  0  0
   18.2101  -25.1623   13.1153 N   0  0  0  0  0  0  0  0  0  0  0  0
   17.6099  -26.3628   13.6715 C   0  0  0  0  0  0  0  0  0  0  0  0
   18.1052  -27.6437   13.0024 C   0  0  0  0  0  0  0  0  0  0  0  0
   19.6135  -27.5969   12.7998 C   0  0  0  0  0  0  0  0  0  0  0  0
   17.6268  -24.8959   12.3222 H   0  0  0  0  0  0  0  0  0  0  0  0
 18  3  1  0  0  0
 18 19  3  0  0  0
  1  6  1  0  0  0
  1 25  1  0  0  0
  1  7  1  0  0  0
  2  5  1  0  0  0
  2  6  2  0  0  0
  3  4  2  0  0  0
  3  5  1  0  0  0
 27  8  1  0  0  0
 27 28  1  0  0  0
  4  9  1  0  0  0
  5  7  2  0  0  0
 10 11  1  0  0  0
 11 12  2  0  0  0
 11 15  1  0  0  0
 12 13  1  0  0  0
 13 14  1  0  0  0
 14 15  2  0  0  0
 15  6  1  0  0  0
 25 26  1  0  0  0
 19 20  1  0  0  0
 20 21  1  0  0  0
 20 22  1  0  0  0
 20 23  1  0  0  0
  7  8  1  0  0  0
  8  9  2  0  0  0
 28 29  1  0  0  0
 29 30  1  0  0  0
 29 34  1  0  0  0
 30 31  1  0  0  0
 31 32  1  0  0  0
 32 33  1  0  0  0
 33 34  1  0  0  0
 10 16  1  0  0  0
 10 17  1  0  0  0
 23 24  1  0  0  0
 31 35  1  0  0  0
M  END
> <minimizedAffinity>
-8.33602

$$$$
