1I2S_CIT_A_1300


 17 16  0  0  0  0  0  0  0  0999 V2000
   25.4733   -4.2631   12.7074 C   0  0  0  0  0  0  0  0  0  0  0  0
   25.3923   -2.9811   13.3881 O   0  0  0  0  0  0  0  0  0  0  0  0
   24.5083   -2.8747   13.7729 H   0  0  0  0  0  0  0  0  0  0  0  0
   26.9240   -4.4231   12.0833 C   0  0  0  0  0  0  0  0  0  0  0  0
   27.5776   -5.4968   12.0502 O   0  0  0  0  0  0  0  0  0  0  0  0
   27.4234   -3.1987   11.5585 O   0  0  0  0  0  0  0  0  0  0  0  0
   26.9017   -2.4217   11.6046 H   0  0  0  0  0  0  0  0  0  0  0  0
   25.1811   -5.3861   13.7770 C   0  0  0  0  0  0  0  0  0  0  0  0
   25.2729   -4.8086   15.2340 C   0  0  0  0  0  0  0  0  0  0  0  0
   26.6121   -4.5515   15.6134 O   0  0  0  0  0  0  0  0  0  0  0  0
   24.3073   -4.5828   16.0097 O   0  0  0  0  0  0  0  0  0  0  0  0
   23.4308   -4.7627   15.7315 H   0  0  0  0  0  0  0  0  0  0  0  0
   24.4179   -4.3836   11.5254 C   0  0  0  0  0  0  0  0  0  0  0  0
   24.4350   -3.0651   10.6454 C   0  0  0  0  0  0  0  0  0  0  0  0
   25.1260   -2.8812    9.5959 O   0  0  0  0  0  0  0  0  0  0  0  0
   23.5749   -2.0568   11.1592 O   0  0  0  0  0  0  0  0  0  0  0  0
   23.0757   -2.2178   11.9356 H   0  0  0  0  0  0  0  0  0  0  0  0
  9 10  2  0  0  0
  9 11  1  0  0  0
  9  8  1  0  0  0
  8  1  1  0  0  0
  1  2  1  0  0  0
  1 13  1  0  0  0
  1  4  1  0  0  0
 13 14  1  0  0  0
 14 15  2  0  0  0
 14 16  1  0  0  0
  4  5  2  0  0  0
  4  6  1  0  0  0
 11 12  1  0  0  0
  2  3  1  0  0  0
 16 17  1  0  0  0
  6  7  1  0  0  0
M  END
> <minimizedAffinity>
-6.80411

$$$$
1I2S_CIT_A_1300


 17 16  0  0  0  0  0  0  0  0999 V2000
   25.3831   -3.9800   12.4892 C   0  0  0  0  0  0  0  0  0  0  0  0
   25.7666   -2.7411   13.1458 O   0  0  0  0  0  0  0  0  0  0  0  0
   26.5188   -2.9070   13.7354 H   0  0  0  0  0  0  0  0  0  0  0  0
   24.1524   -3.6933   11.5286 C   0  0  0  0  0  0  0  0  0  0  0  0
   24.1621   -2.8768   10.5725 O   0  0  0  0  0  0  0  0  0  0  0  0
   23.0090   -4.4676   11.8712 O   0  0  0  0  0  0  0  0  0  0  0  0
   23.0464   -5.0646   12.5924 H   0  0  0  0  0  0  0  0  0  0  0  0
   26.6363   -4.4940   11.6793 C   0  0  0  0  0  0  0  0  0  0  0  0
   27.4312   -3.2920   11.0564 C   0  0  0  0  0  0  0  0  0  0  0  0
   28.8279   -3.5220   11.0717 O   0  0  0  0  0  0  0  0  0  0  0  0
   26.9372   -2.2334   10.5871 O   0  0  0  0  0  0  0  0  0  0  0  0
   26.0085   -2.1083   10.5901 H   0  0  0  0  0  0  0  0  0  0  0  0
   24.9409   -5.0987   13.5278 C   0  0  0  0  0  0  0  0  0  0  0  0
   25.4049   -4.6969   14.9894 C   0  0  0  0  0  0  0  0  0  0  0  0
   26.6005   -4.4729   15.3540 O   0  0  0  0  0  0  0  0  0  0  0  0
   24.3177   -4.6106   15.9010 O   0  0  0  0  0  0  0  0  0  0  0  0
   23.4447   -4.7808   15.6064 H   0  0  0  0  0  0  0  0  0  0  0  0
  9 10  2  0  0  0
  9 11  1  0  0  0
  9  8  1  0  0  0
  8  1  1  0  0  0
  1  2  1  0  0  0
  1 13  1  0  0  0
  1  4  1  0  0  0
 13 14  1  0  0  0
 14 15  2  0  0  0
 14 16  1  0  0  0
  4  5  2  0  0  0
  4  6  1  0  0  0
 11 12  1  0  0  0
  2  3  1  0  0  0
 16 17  1  0  0  0
  6  7  1  0  0  0
M  END
> <minimizedAffinity>
-6.62429

$$$$
1I2S_CIT_A_1300


 17 16  0  0  0  0  0  0  0  0999 V2000
   25.3934   -3.9007   12.6103 C   0  0  0  0  0  0  0  0  0  0  0  0
   25.6454   -2.6473   13.3020 O   0  0  0  0  0  0  0  0  0  0  0  0
   26.3494   -2.7753   13.9570 H   0  0  0  0  0  0  0  0  0  0  0  0
   24.2404   -3.6761   11.5427 C   0  0  0  0  0  0  0  0  0  0  0  0
   24.3368   -2.9455   10.5239 O   0  0  0  0  0  0  0  0  0  0  0  0
   23.0576   -4.3974   11.8664 O   0  0  0  0  0  0  0  0  0  0  0  0
   23.0299   -4.9304   12.6366 H   0  0  0  0  0  0  0  0  0  0  0  0
   26.7417   -4.3377   11.9162 C   0  0  0  0  0  0  0  0  0  0  0  0
   26.6907   -5.8498   11.4971 C   0  0  0  0  0  0  0  0  0  0  0  0
   27.5565   -6.6431   12.2877 O   0  0  0  0  0  0  0  0  0  0  0  0
   25.9853   -6.3472   10.5806 O   0  0  0  0  0  0  0  0  0  0  0  0
   25.4211   -5.7976   10.0731 H   0  0  0  0  0  0  0  0  0  0  0  0
   24.9228   -5.0501   13.6017 C   0  0  0  0  0  0  0  0  0  0  0  0
   25.3869   -4.7159   15.0803 C   0  0  0  0  0  0  0  0  0  0  0  0
   26.5828   -4.5116   15.4552 O   0  0  0  0  0  0  0  0  0  0  0  0
   24.2993   -4.6682   15.9942 O   0  0  0  0  0  0  0  0  0  0  0  0
   23.4261   -4.8227   15.6918 H   0  0  0  0  0  0  0  0  0  0  0  0
  9 10  2  0  0  0
  9 11  1  0  0  0
  9  8  1  0  0  0
  8  1  1  0  0  0
  1  2  1  0  0  0
  1 13  1  0  0  0
  1  4  1  0  0  0
 13 14  1  0  0  0
 14 15  2  0  0  0
 14 16  1  0  0  0
  4  5  2  0  0  0
  4  6  1  0  0  0
 11 12  1  0  0  0
  2  3  1  0  0  0
 16 17  1  0  0  0
  6  7  1  0  0  0
M  END
> <minimizedAffinity>
-6.42597

$$$$
1I2S_CIT_A_1300


 17 16  0  0  0  0  0  0  0  0999 V2000
   25.3879   -4.4441   13.0326 C   0  0  0  0  0  0  0  0  0  0  0  0
   23.9483   -4.6437   13.0645 O   0  0  0  0  0  0  0  0  0  0  0  0
   23.5109   -3.8077   13.2896 H   0  0  0  0  0  0  0  0  0  0  0  0
   26.0896   -5.8192   12.6634 C   0  0  0  0  0  0  0  0  0  0  0  0
   25.4855   -6.8562   12.2884 O   0  0  0  0  0  0  0  0  0  0  0  0
   27.5036   -5.7592   12.8088 O   0  0  0  0  0  0  0  0  0  0  0  0
   27.9122   -4.9647   13.0912 H   0  0  0  0  0  0  0  0  0  0  0  0
   25.6882   -3.3368   11.9490 C   0  0  0  0  0  0  0  0  0  0  0  0
   24.4757   -3.1732   10.9653 C   0  0  0  0  0  0  0  0  0  0  0  0
   24.4087   -4.2366   10.0334 O   0  0  0  0  0  0  0  0  0  0  0  0
   23.6379   -2.2335   10.9628 O   0  0  0  0  0  0  0  0  0  0  0  0
   23.7070   -1.5425   11.5919 H   0  0  0  0  0  0  0  0  0  0  0  0
   25.9596   -3.9664   14.4364 C   0  0  0  0  0  0  0  0  0  0  0  0
   25.4666   -4.9424   15.5843 C   0  0  0  0  0  0  0  0  0  0  0  0
   26.1439   -5.8847   16.0999 O   0  0  0  0  0  0  0  0  0  0  0  0
   24.1371   -4.6631   16.0023 O   0  0  0  0  0  0  0  0  0  0  0  0
   23.6588   -3.9618   15.6055 H   0  0  0  0  0  0  0  0  0  0  0  0
  9 10  2  0  0  0
  9 11  1  0  0  0
  9  8  1  0  0  0
  8  1  1  0  0  0
  1  2  1  0  0  0
  1 13  1  0  0  0
  1  4  1  0  0  0
 13 14  1  0  0  0
 14 15  2  0  0  0
 14 16  1  0  0  0
  4  5  2  0  0  0
  4  6  1  0  0  0
 11 12  1  0  0  0
  2  3  1  0  0  0
 16 17  1  0  0  0
  6  7  1  0  0  0
M  END
> <minimizedAffinity>
-6.34298

$$$$
1I2S_CIT_A_1300


 17 16  0  0  0  0  0  0  0  0999 V2000
   25.1749   -5.0424   12.7710 C   0  0  0  0  0  0  0  0  0  0  0  0
   24.4837   -6.1793   13.3566 O   0  0  0  0  0  0  0  0  0  0  0  0
   25.0622   -6.6104   14.0051 H   0  0  0  0  0  0  0  0  0  0  0  0
   24.2170   -4.3477   11.7129 C   0  0  0  0  0  0  0  0  0  0  0  0
   24.6023   -3.6089   10.7712 O   0  0  0  0  0  0  0  0  0  0  0  0
   22.8463   -4.6481   11.9474 O   0  0  0  0  0  0  0  0  0  0  0  0
   22.6041   -5.2040   12.6618 H   0  0  0  0  0  0  0  0  0  0  0  0
   25.5438   -4.0561   13.9464 C   0  0  0  0  0  0  0  0  0  0  0  0
   25.3271   -4.7425   15.3416 C   0  0  0  0  0  0  0  0  0  0  0  0
   26.4649   -5.4816   15.7453 O   0  0  0  0  0  0  0  0  0  0  0  0
   24.2911   -4.6755   16.0537 O   0  0  0  0  0  0  0  0  0  0  0  0
   23.5526   -4.1786   15.7609 H   0  0  0  0  0  0  0  0  0  0  0  0
   26.5056   -5.4720   12.0158 C   0  0  0  0  0  0  0  0  0  0  0  0
   26.8318   -6.9946   12.3136 C   0  0  0  0  0  0  0  0  0  0  0  0
   26.5329   -7.9780   11.5678 O   0  0  0  0  0  0  0  0  0  0  0  0
   27.5141   -7.1736   13.5476 O   0  0  0  0  0  0  0  0  0  0  0  0
   27.7229   -6.4310   14.0795 H   0  0  0  0  0  0  0  0  0  0  0  0
  9 10  2  0  0  0
  9 11  1  0  0  0
  9  8  1  0  0  0
  8  1  1  0  0  0
  1  2  1  0  0  0
  1 13  1  0  0  0
  1  4  1  0  0  0
 13 14  1  0  0  0
 14 15  2  0  0  0
 14 16  1  0  0  0
  4  5  2  0  0  0
  4  6  1  0  0  0
 11 12  1  0  0  0
  2  3  1  0  0  0
 16 17  1  0  0  0
  6  7  1  0  0  0
M  END
> <minimizedAffinity>
-6.31900

$$$$
1I2S_CIT_A_1300


 17 16  0  0  0  0  0  0  0  0999 V2000
   25.6158   -6.0497   14.1012 C   0  0  0  0  0  0  0  0  0  0  0  0
   26.9185   -5.8779   13.4795 O   0  0  0  0  0  0  0  0  0  0  0  0
   27.1605   -6.6894   13.0064 H   0  0  0  0  0  0  0  0  0  0  0  0
   25.2335   -4.7152   14.8710 C   0  0  0  0  0  0  0  0  0  0  0  0
   25.6219   -3.5635   14.5491 O   0  0  0  0  0  0  0  0  0  0  0  0
   24.3920   -4.9611   15.9916 O   0  0  0  0  0  0  0  0  0  0  0  0
   24.1266   -5.8364   16.1950 H   0  0  0  0  0  0  0  0  0  0  0  0
   24.5812   -6.3666   12.9525 C   0  0  0  0  0  0  0  0  0  0  0  0
   24.2363   -5.0703   12.1368 C   0  0  0  0  0  0  0  0  0  0  0  0
   25.3473   -4.6081   11.3912 O   0  0  0  0  0  0  0  0  0  0  0  0
   23.1265   -4.4763   12.1132 O   0  0  0  0  0  0  0  0  0  0  0  0
   22.4083   -4.8052   12.6171 H   0  0  0  0  0  0  0  0  0  0  0  0
   25.6046   -7.2402   15.1539 C   0  0  0  0  0  0  0  0  0  0  0  0
   26.7859   -7.0559   16.1950 C   0  0  0  0  0  0  0  0  0  0  0  0
   26.6528   -6.8464   17.4403 O   0  0  0  0  0  0  0  0  0  0  0  0
   28.0670   -7.1434   15.5853 O   0  0  0  0  0  0  0  0  0  0  0  0
   28.1377   -7.2988   14.6640 H   0  0  0  0  0  0  0  0  0  0  0  0
  9 10  2  0  0  0
  9 11  1  0  0  0
  9  8  1  0  0  0
  8  1  1  0  0  0
  1  2  1  0  0  0
  1 13  1  0  0  0
  1  4  1  0  0  0
 13 14  1  0  0  0
 14 15  2  0  0  0
 14 16  1  0  0  0
  4  5  2  0  0  0
  4  6  1  0  0  0
 11 12  1  0  0  0
  2  3  1  0  0  0
 16 17  1  0  0  0
  6  7  1  0  0  0
M  END
> <minimizedAffinity>
-6.13585

$$$$
1I2S_CIT_A_1300


 17 16  0  0  0  0  0  0  0  0999 V2000
   25.5980   -5.0631   13.3797 C   0  0  0  0  0  0  0  0  0  0  0  0
   24.5120   -5.0064   14.3444 O   0  0  0  0  0  0  0  0  0  0  0  0
   24.2342   -5.9075   14.5718 H   0  0  0  0  0  0  0  0  0  0  0  0
   26.0417   -3.5827   13.0174 C   0  0  0  0  0  0  0  0  0  0  0  0
   25.5097   -2.5403   13.4770 O   0  0  0  0  0  0  0  0  0  0  0  0
   27.1237   -3.5547   12.0939 O   0  0  0  0  0  0  0  0  0  0  0  0
   27.4900   -4.3568   11.7770 H   0  0  0  0  0  0  0  0  0  0  0  0
   26.7798   -5.8705   14.0444 C   0  0  0  0  0  0  0  0  0  0  0  0
   26.3250   -6.5105   15.4040 C   0  0  0  0  0  0  0  0  0  0  0  0
   25.7952   -7.8103   15.2211 O   0  0  0  0  0  0  0  0  0  0  0  0
   26.4006   -5.9777   16.5421 O   0  0  0  0  0  0  0  0  0  0  0  0
   26.7561   -5.1155   16.6331 H   0  0  0  0  0  0  0  0  0  0  0  0
   25.1674   -5.7868   12.0320 C   0  0  0  0  0  0  0  0  0  0  0  0
   24.1446   -4.8786   11.2305 C   0  0  0  0  0  0  0  0  0  0  0  0
   24.3305   -4.3958   10.0708 O   0  0  0  0  0  0  0  0  0  0  0  0
   22.9480   -4.6346   11.9579 O   0  0  0  0  0  0  0  0  0  0  0  0
   22.8357   -5.0027   12.8122 H   0  0  0  0  0  0  0  0  0  0  0  0
  9 10  2  0  0  0
  9 11  1  0  0  0
  9  8  1  0  0  0
  8  1  1  0  0  0
  1  2  1  0  0  0
  1 13  1  0  0  0
  1  4  1  0  0  0
 13 14  1  0  0  0
 14 15  2  0  0  0
 14 16  1  0  0  0
  4  5  2  0  0  0
  4  6  1  0  0  0
 11 12  1  0  0  0
  2  3  1  0  0  0
 16 17  1  0  0  0
  6  7  1  0  0  0
M  END
> <minimizedAffinity>
-6.06738

$$$$
1I2S_CIT_A_1300


 17 16  0  0  0  0  0  0  0  0999 V2000
   24.4402   -4.2772   11.3968 C   0  0  0  0  0  0  0  0  0  0  0  0
   23.1529   -4.6119   11.9834 O   0  0  0  0  0  0  0  0  0  0  0  0
   23.0734   -5.5756   12.0604 H   0  0  0  0  0  0  0  0  0  0  0  0
   24.5559   -2.6986   11.2771 C   0  0  0  0  0  0  0  0  0  0  0  0
   25.5635   -2.0246   11.6109 O   0  0  0  0  0  0  0  0  0  0  0  0
   23.3742   -2.1099   10.7470 O   0  0  0  0  0  0  0  0  0  0  0  0
   22.6464   -2.6509   10.5113 H   0  0  0  0  0  0  0  0  0  0  0  0
   25.5584   -4.8650   12.3427 C   0  0  0  0  0  0  0  0  0  0  0  0
   25.2561   -4.5244   13.8452 C   0  0  0  0  0  0  0  0  0  0  0  0
   24.7233   -5.6374   14.5388 O   0  0  0  0  0  0  0  0  0  0  0  0
   25.4459   -3.4166   14.4123 O   0  0  0  0  0  0  0  0  0  0  0  0
   25.8001   -2.6969   13.9279 H   0  0  0  0  0  0  0  0  0  0  0  0
   24.6152   -4.8908    9.9413 C   0  0  0  0  0  0  0  0  0  0  0  0
   25.7832   -4.1430    9.1733 C   0  0  0  0  0  0  0  0  0  0  0  0
   27.0021   -4.4982    9.1477 O   0  0  0  0  0  0  0  0  0  0  0  0
   25.3289   -2.9831    8.4888 O   0  0  0  0  0  0  0  0  0  0  0  0
   24.4239   -2.7428    8.5237 H   0  0  0  0  0  0  0  0  0  0  0  0
  9 10  2  0  0  0
  9 11  1  0  0  0
  9  8  1  0  0  0
  8  1  1  0  0  0
  1  2  1  0  0  0
  1 13  1  0  0  0
  1  4  1  0  0  0
 13 14  1  0  0  0
 14 15  2  0  0  0
 14 16  1  0  0  0
  4  5  2  0  0  0
  4  6  1  0  0  0
 11 12  1  0  0  0
  2  3  1  0  0  0
 16 17  1  0  0  0
  6  7  1  0  0  0
M  END
> <minimizedAffinity>
-6.06100

$$$$
1I2S_CIT_A_1300


 17 16  0  0  0  0  0  0  0  0999 V2000
   26.0170   -3.6500   10.7088 C   0  0  0  0  0  0  0  0  0  0  0  0
   25.5483   -2.4433   11.3703 O   0  0  0  0  0  0  0  0  0  0  0  0
   25.8473   -2.4435   12.2930 H   0  0  0  0  0  0  0  0  0  0  0  0
   25.5207   -3.6358    9.2012 C   0  0  0  0  0  0  0  0  0  0  0  0
   25.3273   -2.5980    8.5180 O   0  0  0  0  0  0  0  0  0  0  0  0
   25.3063   -4.9467    8.6916 O   0  0  0  0  0  0  0  0  0  0  0  0
   25.4632   -5.6926    9.2365 H   0  0  0  0  0  0  0  0  0  0  0  0
   27.5928   -3.6552   10.7948 C   0  0  0  0  0  0  0  0  0  0  0  0
   28.2073   -2.5467    9.8682 C   0  0  0  0  0  0  0  0  0  0  0  0
   29.1638   -3.0822    8.9726 O   0  0  0  0  0  0  0  0  0  0  0  0
   27.9199   -1.3211    9.8790 O   0  0  0  0  0  0  0  0  0  0  0  0
   27.2825   -0.9946   10.4832 H   0  0  0  0  0  0  0  0  0  0  0  0
   25.4546   -4.9684   11.3950 C   0  0  0  0  0  0  0  0  0  0  0  0
   24.3473   -4.5936   12.4659 C   0  0  0  0  0  0  0  0  0  0  0  0
   24.5454   -4.4121   13.7070 O   0  0  0  0  0  0  0  0  0  0  0  0
   23.0521   -4.4786   11.8918 O   0  0  0  0  0  0  0  0  0  0  0  0
   22.9329   -4.6176   10.9728 H   0  0  0  0  0  0  0  0  0  0  0  0
  9 10  2  0  0  0
  9 11  1  0  0  0
  9  8  1  0  0  0
  8  1  1  0  0  0
  1  2  1  0  0  0
  1 13  1  0  0  0
  1  4  1  0  0  0
 13 14  1  0  0  0
 14 15  2  0  0  0
 14 16  1  0  0  0
  4  5  2  0  0  0
  4  6  1  0  0  0
 11 12  1  0  0  0
  2  3  1  0  0  0
 16 17  1  0  0  0
  6  7  1  0  0  0
M  END
> <minimizedAffinity>
-5.89679

$$$$
1I2S_CIT_A_1300


 17 16  0  0  0  0  0  0  0  0999 V2000
   25.2826   -5.5618   13.3539 C   0  0  0  0  0  0  0  0  0  0  0  0
   24.4022   -4.6198   14.0253 O   0  0  0  0  0  0  0  0  0  0  0  0
   23.4851   -4.7866   13.7568 H   0  0  0  0  0  0  0  0  0  0  0  0
   26.7783   -5.2771   13.8026 C   0  0  0  0  0  0  0  0  0  0  0  0
   27.8007   -5.6394   13.1665 O   0  0  0  0  0  0  0  0  0  0  0  0
   26.8462   -4.5590   15.0289 O   0  0  0  0  0  0  0  0  0  0  0  0
   26.0580   -4.3088   15.4695 H   0  0  0  0  0  0  0  0  0  0  0  0
   24.8254   -7.0145   13.7678 C   0  0  0  0  0  0  0  0  0  0  0  0
   25.3003   -7.3567   15.2245 C   0  0  0  0  0  0  0  0  0  0  0  0
   24.7086   -6.5009   16.1843 O   0  0  0  0  0  0  0  0  0  0  0  0
   26.1044   -8.2681   15.5527 O   0  0  0  0  0  0  0  0  0  0  0  0
   26.4809   -8.8198   14.8955 H   0  0  0  0  0  0  0  0  0  0  0  0
   25.2137   -5.4260   11.7720 C   0  0  0  0  0  0  0  0  0  0  0  0
   24.1197   -4.3529   11.3660 C   0  0  0  0  0  0  0  0  0  0  0  0
   24.3300   -3.2939   10.6976 O   0  0  0  0  0  0  0  0  0  0  0  0
   22.8236   -4.6905   11.8418 O   0  0  0  0  0  0  0  0  0  0  0  0
   22.6952   -5.4781   12.3330 H   0  0  0  0  0  0  0  0  0  0  0  0
  9 10  2  0  0  0
  9 11  1  0  0  0
  9  8  1  0  0  0
  8  1  1  0  0  0
  1  2  1  0  0  0
  1 13  1  0  0  0
  1  4  1  0  0  0
 13 14  1  0  0  0
 14 15  2  0  0  0
 14 16  1  0  0  0
  4  5  2  0  0  0
  4  6  1  0  0  0
 11 12  1  0  0  0
  2  3  1  0  0  0
 16 17  1  0  0  0
  6  7  1  0  0  0
M  END
> <minimizedAffinity>
-5.85132

$$$$
