4LUZ_1XT_A_201


 39 43  0  0  0  0  0  0  0  0999 V2000
  -10.0807   11.7198  -24.8144 C   0  0  0  0  0  0  0  0  0  0  0  0
   -9.0146   10.8651  -25.0403 C   0  0  0  0  0  0  0  0  0  0  0  0
   -7.7150   11.2789  -24.7803 C   0  0  0  0  0  0  0  0  0  0  0  0
   -7.4821   12.5544  -24.2943 C   0  0  0  0  0  0  0  0  0  0  0  0
   -8.5558   13.4042  -24.0700 C   0  0  0  0  0  0  0  0  0  0  0  0
   -9.8558   12.9964  -24.3250 C   0  0  0  0  0  0  0  0  0  0  0  0
   -6.0972   13.0392  -23.9893 C   0  0  0  0  0  0  0  0  0  0  0  0
   -5.5589   14.3059  -24.3593 C   0  0  0  0  0  0  0  0  0  0  0  0
   -4.2350   14.3062  -23.8429 C   0  0  0  0  0  0  0  0  0  0  0  0
   -4.0567   13.1489  -23.2310 N   0  0  0  0  0  0  0  0  0  0  0  0
   -5.1410   12.4020  -23.3077 N   0  0  0  0  0  0  0  0  0  0  0  0
   -5.1959   11.1025  -22.7211 C   0  0  0  0  0  0  0  0  0  0  0  0
   -4.7992    9.9969  -23.4568 C   0  0  0  0  0  0  0  0  0  0  0  0
   -4.8338    8.7389  -22.8788 C   0  0  0  0  0  0  0  0  0  0  0  0
   -5.2564    8.5966  -21.5694 C   0  0  0  0  0  0  0  0  0  0  0  0
   -5.6471    9.7019  -20.8277 C   0  0  0  0  0  0  0  0  0  0  0  0
   -5.6094   10.9603  -21.4047 C   0  0  0  0  0  0  0  0  0  0  0  0
   -4.4193    7.5419  -23.6711 C   0  0  0  0  0  0  0  0  0  0  0  0
   -3.2070   15.3825  -23.9355 C   0  0  0  0  0  0  0  0  0  0  0  0
   -3.3965   16.3343  -24.7401 O   0  0  0  0  0  0  0  0  0  0  0  0
   -2.1751   15.3477  -23.2153 O   0  0  0  0  0  0  0  0  0  0  0  0
   -4.1676   16.3516  -25.2721 H   0  0  0  0  0  0  0  0  0  0  0  0
  -11.3621   11.3008  -25.0833 O   0  0  0  0  0  0  0  0  0  0  0  0
  -11.9256   10.3499  -24.2604 C   0  0  0  0  0  0  0  0  0  0  0  0
  -15.1129   11.5763  -21.7187 C   0  0  0  0  0  0  0  0  0  0  0  0
  -15.4002   10.9843  -22.9440 C   0  0  0  0  0  0  0  0  0  0  0  0
  -14.3656   10.5789  -23.7744 C   0  0  0  0  0  0  0  0  0  0  0  0
  -13.0501   10.7748  -23.3773 C   0  0  0  0  0  0  0  0  0  0  0  0
  -12.7642   11.3684  -22.1576 C   0  0  0  0  0  0  0  0  0  0  0  0
  -13.7975   11.7663  -21.3234 C   0  0  0  0  0  0  0  0  0  0  0  0
  -17.3297   13.2561  -19.4372 C   0  0  0  0  0  0  0  0  0  0  0  0
  -18.1666   12.1552  -19.6771 C   0  0  0  0  0  0  0  0  0  0  0  0
  -17.4374   11.3334  -20.5985 C   0  0  0  0  0  0  0  0  0  0  0  0
  -16.2337   12.0133  -20.8355 C   0  0  0  0  0  0  0  0  0  0  0  0
  -16.2220   13.1197  -20.1314 O   0  0  0  0  0  0  0  0  0  0  0  0
  -17.5998   14.4280  -18.5518 C   0  0  0  0  0  0  0  0  0  0  0  0
  -18.6117   14.4454  -17.7923 O   0  0  0  0  0  0  0  0  0  0  0  0
  -16.7919   15.4019  -18.5876 O   0  0  0  0  0  0  0  0  0  0  0  0
  -19.1996   13.7159  -17.7783 H   0  0  0  0  0  0  0  0  0  0  0  0
 23  1  1  0  0  0
 23 24  1  0  0  0
  2  1  2  0  0  0
  2  3  1  0  0  0
  1  6  1  0  0  0
 21 19  2  0  0  0
  3  4  2  0  0  0
 24 28  1  0  0  0
  6  5  2  0  0  0
  4  5  1  0  0  0
  4  7  1  0  0  0
  8  7  2  0  0  0
  8  9  1  0  0  0
  7 11  1  0  0  0
 29 28  2  0  0  0
 29 30  1  0  0  0
 28 27  1  0  0  0
 19  9  1  0  0  0
 19 20  1  0  0  0
  9 10  2  0  0  0
 18 14  1  0  0  0
 13 14  2  0  0  0
 13 12  1  0  0  0
 11 10  1  0  0  0
 11 12  1  0  0  0
 30 25  2  0  0  0
 14 15  1  0  0  0
 27 26  2  0  0  0
 12 17  2  0  0  0
 25 26  1  0  0  0
 25 34  1  0  0  0
 15 16  2  0  0  0
 17 16  1  0  0  0
 34 33  2  0  0  0
 34 35  1  0  0  0
 33 32  1  0  0  0
 35 31  1  0  0  0
 32 31  2  0  0  0
 31 36  1  0  0  0
 36 38  2  0  0  0
 36 37  1  0  0  0
 37 39  1  0  0  0
 20 22  1  0  0  0
M  END
> <minimizedAffinity>
-8.86731

$$$$
4LUZ_1XT_A_201


 39 43  0  0  0  0  0  0  0  0999 V2000
  -12.3807   10.5141  -25.8672 C   0  0  0  0  0  0  0  0  0  0  0  0
  -12.0810   10.2921  -24.5335 C   0  0  0  0  0  0  0  0  0  0  0  0
  -10.8525   10.6799  -24.0153 C   0  0  0  0  0  0  0  0  0  0  0  0
   -9.9199   11.2902  -24.8368 C   0  0  0  0  0  0  0  0  0  0  0  0
  -10.2283   11.5096  -26.1717 C   0  0  0  0  0  0  0  0  0  0  0  0
  -11.4538   11.1273  -26.6946 C   0  0  0  0  0  0  0  0  0  0  0  0
   -8.5861   11.7350  -24.3178 C   0  0  0  0  0  0  0  0  0  0  0  0
   -7.5492   10.8784  -23.8461 C   0  0  0  0  0  0  0  0  0  0  0  0
   -6.4912   11.7527  -23.4779 C   0  0  0  0  0  0  0  0  0  0  0  0
   -6.8981   12.9836  -23.7324 N   0  0  0  0  0  0  0  0  0  0  0  0
   -8.1207   12.9840  -24.2272 N   0  0  0  0  0  0  0  0  0  0  0  0
   -8.7821   14.1972  -24.5831 C   0  0  0  0  0  0  0  0  0  0  0  0
   -8.2425   15.0141  -25.5641 C   0  0  0  0  0  0  0  0  0  0  0  0
   -8.8966   16.1810  -25.9225 C   0  0  0  0  0  0  0  0  0  0  0  0
  -10.0873   16.5179  -25.3044 C   0  0  0  0  0  0  0  0  0  0  0  0
  -10.6341   15.6988  -24.3274 C   0  0  0  0  0  0  0  0  0  0  0  0
   -9.9816   14.5304  -23.9713 C   0  0  0  0  0  0  0  0  0  0  0  0
   -8.3132   17.0719  -26.9705 C   0  0  0  0  0  0  0  0  0  0  0  0
   -5.1545   11.4014  -22.9179 C   0  0  0  0  0  0  0  0  0  0  0  0
   -4.1526   11.4200  -23.6828 O   0  0  0  0  0  0  0  0  0  0  0  0
   -5.0268   11.1033  -21.7014 O   0  0  0  0  0  0  0  0  0  0  0  0
   -4.2575   11.6431  -24.5868 H   0  0  0  0  0  0  0  0  0  0  0  0
  -13.5974   10.1184  -26.3699 O   0  0  0  0  0  0  0  0  0  0  0  0
  -14.6605   10.9898  -26.2715 C   0  0  0  0  0  0  0  0  0  0  0  0
  -16.1960   11.8287  -22.3906 C   0  0  0  0  0  0  0  0  0  0  0  0
  -16.4187   10.5807  -22.9624 C   0  0  0  0  0  0  0  0  0  0  0  0
  -15.9171   10.3004  -24.2250 C   0  0  0  0  0  0  0  0  0  0  0  0
  -15.2022   11.2726  -24.9107 C   0  0  0  0  0  0  0  0  0  0  0  0
  -14.9835   12.5177  -24.3419 C   0  0  0  0  0  0  0  0  0  0  0  0
  -15.4774   12.7959  -23.0767 C   0  0  0  0  0  0  0  0  0  0  0  0
  -17.3296   13.2955  -19.3076 C   0  0  0  0  0  0  0  0  0  0  0  0
  -17.6350   11.9693  -18.9645 C   0  0  0  0  0  0  0  0  0  0  0  0
  -17.2431   11.1950  -20.1059 C   0  0  0  0  0  0  0  0  0  0  0  0
  -16.7446   12.1213  -21.0339 C   0  0  0  0  0  0  0  0  0  0  0  0
  -16.8129   13.3242  -20.5158 O   0  0  0  0  0  0  0  0  0  0  0  0
  -17.5395   14.5206  -18.4796 C   0  0  0  0  0  0  0  0  0  0  0  0
  -17.0155   15.6234  -18.8117 O   0  0  0  0  0  0  0  0  0  0  0  0
  -18.2504   14.4217  -17.4369 O   0  0  0  0  0  0  0  0  0  0  0  0
  -16.4921   15.6789  -19.5869 H   0  0  0  0  0  0  0  0  0  0  0  0
 23  1  1  0  0  0
 23 24  1  0  0  0
  2  1  2  0  0  0
  2  3  1  0  0  0
  1  6  1  0  0  0
 21 19  2  0  0  0
  3  4  2  0  0  0
 24 28  1  0  0  0
  6  5  2  0  0  0
  4  5  1  0  0  0
  4  7  1  0  0  0
  8  7  2  0  0  0
  8  9  1  0  0  0
  7 11  1  0  0  0
 29 28  2  0  0  0
 29 30  1  0  0  0
 28 27  1  0  0  0
 19  9  1  0  0  0
 19 20  1  0  0  0
  9 10  2  0  0  0
 18 14  1  0  0  0
 13 14  2  0  0  0
 13 12  1  0  0  0
 11 10  1  0  0  0
 11 12  1  0  0  0
 30 25  2  0  0  0
 14 15  1  0  0  0
 27 26  2  0  0  0
 12 17  2  0  0  0
 25 26  1  0  0  0
 25 34  1  0  0  0
 15 16  2  0  0  0
 17 16  1  0  0  0
 34 33  2  0  0  0
 34 35  1  0  0  0
 33 32  1  0  0  0
 35 31  1  0  0  0
 32 31  2  0  0  0
 31 36  1  0  0  0
 36 38  2  0  0  0
 36 37  1  0  0  0
 37 39  1  0  0  0
 20 22  1  0  0  0
M  END
> <minimizedAffinity>
-7.52971

$$$$
4LUZ_1XT_A_201


 39 43  0  0  0  0  0  0  0  0999 V2000
   -7.1705   13.6416  -24.4929 C   0  0  0  0  0  0  0  0  0  0  0  0
   -8.3531   13.1497  -23.9663 C   0  0  0  0  0  0  0  0  0  0  0  0
   -9.5356   13.8637  -24.1069 C   0  0  0  0  0  0  0  0  0  0  0  0
   -9.5331   15.0761  -24.7757 C   0  0  0  0  0  0  0  0  0  0  0  0
   -8.3441   15.5616  -25.3010 C   0  0  0  0  0  0  0  0  0  0  0  0
   -7.1607   14.8525  -25.1663 C   0  0  0  0  0  0  0  0  0  0  0  0
  -10.7876   15.8750  -24.9606 C   0  0  0  0  0  0  0  0  0  0  0  0
  -10.8507   17.2625  -25.2805 C   0  0  0  0  0  0  0  0  0  0  0  0
  -12.2385   17.5565  -25.3624 C   0  0  0  0  0  0  0  0  0  0  0  0
  -12.8887   16.4320  -25.1212 N   0  0  0  0  0  0  0  0  0  0  0  0
  -12.0493   15.4417  -24.8885 N   0  0  0  0  0  0  0  0  0  0  0  0
  -12.5114   14.1227  -24.6011 C   0  0  0  0  0  0  0  0  0  0  0  0
  -12.8855   13.7898  -23.3087 C   0  0  0  0  0  0  0  0  0  0  0  0
  -13.3530   12.5152  -23.0359 C   0  0  0  0  0  0  0  0  0  0  0  0
  -13.4507   11.5868  -24.0566 C   0  0  0  0  0  0  0  0  0  0  0  0
  -13.0842   11.9189  -25.3528 C   0  0  0  0  0  0  0  0  0  0  0  0
  -12.6196   13.1944  -25.6262 C   0  0  0  0  0  0  0  0  0  0  0  0
  -13.7459   12.1468  -21.6422 C   0  0  0  0  0  0  0  0  0  0  0  0
  -12.8901   18.8625  -25.6689 C   0  0  0  0  0  0  0  0  0  0  0  0
  -12.1776   19.8094  -26.0990 O   0  0  0  0  0  0  0  0  0  0  0  0
  -14.1301   19.0131  -25.5124 O   0  0  0  0  0  0  0  0  0  0  0  0
  -11.2555   19.6878  -26.2123 H   0  0  0  0  0  0  0  0  0  0  0  0
   -6.0050   12.9289  -24.3401 O   0  0  0  0  0  0  0  0  0  0  0  0
   -5.6627   12.4979  -23.0768 C   0  0  0  0  0  0  0  0  0  0  0  0
   -4.2807    8.4906  -22.6833 C   0  0  0  0  0  0  0  0  0  0  0  0
   -5.0418    9.0577  -21.6668 C   0  0  0  0  0  0  0  0  0  0  0  0
   -5.4983   10.3617  -21.7915 C   0  0  0  0  0  0  0  0  0  0  0  0
   -5.1846   11.0927  -22.9289 C   0  0  0  0  0  0  0  0  0  0  0  0
   -4.4227   10.5283  -23.9402 C   0  0  0  0  0  0  0  0  0  0  0  0
   -3.9730    9.2224  -23.8201 C   0  0  0  0  0  0  0  0  0  0  0  0
   -2.5232    5.4559  -21.8812 C   0  0  0  0  0  0  0  0  0  0  0  0
   -3.5059    4.8535  -22.6820 C   0  0  0  0  0  0  0  0  0  0  0  0
   -4.3395    5.9360  -23.1171 C   0  0  0  0  0  0  0  0  0  0  0  0
   -3.7904    7.0887  -22.5363 C   0  0  0  0  0  0  0  0  0  0  0  0
   -2.7346    6.7524  -21.8348 O   0  0  0  0  0  0  0  0  0  0  0  0
   -1.3966    4.7858  -21.1655 C   0  0  0  0  0  0  0  0  0  0  0  0
   -1.2677    4.8996  -19.9120 O   0  0  0  0  0  0  0  0  0  0  0  0
   -0.5748    4.1074  -21.8488 O   0  0  0  0  0  0  0  0  0  0  0  0
   -1.8853    5.4056  -19.4215 H   0  0  0  0  0  0  0  0  0  0  0  0
 23  1  1  0  0  0
 23 24  1  0  0  0
  2  1  2  0  0  0
  2  3  1  0  0  0
  1  6  1  0  0  0
 21 19  2  0  0  0
  3  4  2  0  0  0
 24 28  1  0  0  0
  6  5  2  0  0  0
  4  5  1  0  0  0
  4  7  1  0  0  0
  8  7  2  0  0  0
  8  9  1  0  0  0
  7 11  1  0  0  0
 29 28  2  0  0  0
 29 30  1  0  0  0
 28 27  1  0  0  0
 19  9  1  0  0  0
 19 20  1  0  0  0
  9 10  2  0  0  0
 18 14  1  0  0  0
 13 14  2  0  0  0
 13 12  1  0  0  0
 11 10  1  0  0  0
 11 12  1  0  0  0
 30 25  2  0  0  0
 14 15  1  0  0  0
 27 26  2  0  0  0
 12 17  2  0  0  0
 25 26  1  0  0  0
 25 34  1  0  0  0
 15 16  2  0  0  0
 17 16  1  0  0  0
 34 33  2  0  0  0
 34 35  1  0  0  0
 33 32  1  0  0  0
 35 31  1  0  0  0
 32 31  2  0  0  0
 31 36  1  0  0  0
 36 38  2  0  0  0
 36 37  1  0  0  0
 37 39  1  0  0  0
 20 22  1  0  0  0
M  END
> <minimizedAffinity>
-7.26635

$$$$
4LUZ_1XT_A_201


 39 43  0  0  0  0  0  0  0  0999 V2000
   -8.9510   12.1036  -24.1474 C   0  0  0  0  0  0  0  0  0  0  0  0
   -9.6797   13.2566  -24.3868 C   0  0  0  0  0  0  0  0  0  0  0  0
  -11.0391   13.2995  -24.1071 C   0  0  0  0  0  0  0  0  0  0  0  0
  -11.6713   12.1824  -23.5878 C   0  0  0  0  0  0  0  0  0  0  0  0
  -10.9337   11.0313  -23.3503 C   0  0  0  0  0  0  0  0  0  0  0  0
   -9.5759   10.9828  -23.6249 C   0  0  0  0  0  0  0  0  0  0  0  0
  -13.1339   12.1872  -23.2607 C   0  0  0  0  0  0  0  0  0  0  0  0
  -13.6942   12.3122  -21.9562 C   0  0  0  0  0  0  0  0  0  0  0  0
  -15.1005   12.2760  -22.1567 C   0  0  0  0  0  0  0  0  0  0  0  0
  -15.3045   12.1535  -23.4563 N   0  0  0  0  0  0  0  0  0  0  0  0
  -14.1607   12.1042  -24.1113 N   0  0  0  0  0  0  0  0  0  0  0  0
  -14.1183   11.9727  -25.5314 C   0  0  0  0  0  0  0  0  0  0  0  0
  -13.8351   10.7416  -26.1015 C   0  0  0  0  0  0  0  0  0  0  0  0
  -13.8146   10.6114  -27.4800 C   0  0  0  0  0  0  0  0  0  0  0  0
  -14.0848   11.7092  -28.2772 C   0  0  0  0  0  0  0  0  0  0  0  0
  -14.3761   12.9412  -27.7099 C   0  0  0  0  0  0  0  0  0  0  0  0
  -14.3997   13.0706  -26.3313 C   0  0  0  0  0  0  0  0  0  0  0  0
  -13.4975    9.2897  -28.1003 C   0  0  0  0  0  0  0  0  0  0  0  0
  -16.1825   12.3660  -21.1344 C   0  0  0  0  0  0  0  0  0  0  0  0
  -16.8559   11.3332  -20.8717 O   0  0  0  0  0  0  0  0  0  0  0  0
  -16.4114   13.4498  -20.5363 O   0  0  0  0  0  0  0  0  0  0  0  0
  -16.6783   10.5310  -21.3221 H   0  0  0  0  0  0  0  0  0  0  0  0
   -7.6073   12.0714  -24.4360 O   0  0  0  0  0  0  0  0  0  0  0  0
   -6.7157   11.9761  -23.3896 C   0  0  0  0  0  0  0  0  0  0  0  0
   -4.6205    8.2990  -22.9292 C   0  0  0  0  0  0  0  0  0  0  0  0
   -5.1051    8.9589  -21.8050 C   0  0  0  0  0  0  0  0  0  0  0  0
   -5.7921   10.1553  -21.9494 C   0  0  0  0  0  0  0  0  0  0  0  0
   -5.9839   10.6878  -23.2167 C   0  0  0  0  0  0  0  0  0  0  0  0
   -5.4975   10.0316  -24.3368 C   0  0  0  0  0  0  0  0  0  0  0  0
   -4.8179    8.8317  -24.1941 C   0  0  0  0  0  0  0  0  0  0  0  0
   -2.2180    5.6896  -22.3288 C   0  0  0  0  0  0  0  0  0  0  0  0
   -3.2730    4.8408  -22.6974 C   0  0  0  0  0  0  0  0  0  0  0  0
   -4.3679    5.7201  -22.9873 C   0  0  0  0  0  0  0  0  0  0  0  0
   -3.8782    7.0151  -22.7619 C   0  0  0  0  0  0  0  0  0  0  0  0
   -2.6237    6.9385  -22.3875 O   0  0  0  0  0  0  0  0  0  0  0  0
   -0.8360    5.2981  -21.9198 C   0  0  0  0  0  0  0  0  0  0  0  0
   -0.3835    4.1473  -22.1882 O   0  0  0  0  0  0  0  0  0  0  0  0
   -0.1355    6.1470  -21.2945 O   0  0  0  0  0  0  0  0  0  0  0  0
   -0.9156    3.5311  -22.6519 H   0  0  0  0  0  0  0  0  0  0  0  0
 23  1  1  0  0  0
 23 24  1  0  0  0
  2  1  2  0  0  0
  2  3  1  0  0  0
  1  6  1  0  0  0
 21 19  2  0  0  0
  3  4  2  0  0  0
 24 28  1  0  0  0
  6  5  2  0  0  0
  4  5  1  0  0  0
  4  7  1  0  0  0
  8  7  2  0  0  0
  8  9  1  0  0  0
  7 11  1  0  0  0
 29 28  2  0  0  0
 29 30  1  0  0  0
 28 27  1  0  0  0
 19  9  1  0  0  0
 19 20  1  0  0  0
  9 10  2  0  0  0
 18 14  1  0  0  0
 13 14  2  0  0  0
 13 12  1  0  0  0
 11 10  1  0  0  0
 11 12  1  0  0  0
 30 25  2  0  0  0
 14 15  1  0  0  0
 27 26  2  0  0  0
 12 17  2  0  0  0
 25 26  1  0  0  0
 25 34  1  0  0  0
 15 16  2  0  0  0
 17 16  1  0  0  0
 34 33  2  0  0  0
 34 35  1  0  0  0
 33 32  1  0  0  0
 35 31  1  0  0  0
 32 31  2  0  0  0
 31 36  1  0  0  0
 36 38  2  0  0  0
 36 37  1  0  0  0
 37 39  1  0  0  0
 20 22  1  0  0  0
M  END
> <minimizedAffinity>
-7.19887

$$$$
4LUZ_1XT_A_201


 39 43  0  0  0  0  0  0  0  0999 V2000
  -12.4003   10.6171  -25.6936 C   0  0  0  0  0  0  0  0  0  0  0  0
  -12.1401   10.6048  -24.3334 C   0  0  0  0  0  0  0  0  0  0  0  0
  -10.8782   10.9336  -23.8564 C   0  0  0  0  0  0  0  0  0  0  0  0
   -9.8726   11.2737  -24.7454 C   0  0  0  0  0  0  0  0  0  0  0  0
  -10.1418   11.2843  -26.1065 C   0  0  0  0  0  0  0  0  0  0  0  0
  -11.4001   10.9597  -26.5890 C   0  0  0  0  0  0  0  0  0  0  0  0
   -8.4994   11.6461  -24.2745 C   0  0  0  0  0  0  0  0  0  0  0  0
   -7.5155   10.7410  -23.7804 C   0  0  0  0  0  0  0  0  0  0  0  0
   -6.3902   11.5537  -23.4764 C   0  0  0  0  0  0  0  0  0  0  0  0
   -6.7144   12.7969  -23.7843 N   0  0  0  0  0  0  0  0  0  0  0  0
   -7.9447   12.8613  -24.2553 N   0  0  0  0  0  0  0  0  0  0  0  0
   -8.5262   14.1003  -24.6588 C   0  0  0  0  0  0  0  0  0  0  0  0
   -7.9166   14.8586  -25.6458 C   0  0  0  0  0  0  0  0  0  0  0  0
   -8.4935   16.0508  -26.0504 C   0  0  0  0  0  0  0  0  0  0  0  0
   -9.6777   16.4714  -25.4721 C   0  0  0  0  0  0  0  0  0  0  0  0
  -10.2944   15.7111  -24.4893 C   0  0  0  0  0  0  0  0  0  0  0  0
   -9.7192   14.5174  -24.0869 C   0  0  0  0  0  0  0  0  0  0  0  0
   -7.8343   16.8788  -27.1051 C   0  0  0  0  0  0  0  0  0  0  0  0
   -5.0695   11.1348  -22.9249 C   0  0  0  0  0  0  0  0  0  0  0  0
   -4.0529   11.2043  -23.6671 O   0  0  0  0  0  0  0  0  0  0  0  0
   -4.9694   10.7305  -21.7369 O   0  0  0  0  0  0  0  0  0  0  0  0
   -4.1371   11.5064  -24.5500 H   0  0  0  0  0  0  0  0  0  0  0  0
  -13.6517   10.2820  -26.1536 O   0  0  0  0  0  0  0  0  0  0  0  0
  -14.4273   11.2710  -26.7188 C   0  0  0  0  0  0  0  0  0  0  0  0
  -14.1488   15.1939  -25.0891 C   0  0  0  0  0  0  0  0  0  0  0  0
  -14.8633   14.2155  -24.4062 C   0  0  0  0  0  0  0  0  0  0  0  0
  -14.9539   12.9344  -24.9304 C   0  0  0  0  0  0  0  0  0  0  0  0
  -14.3354   12.6419  -26.1381 C   0  0  0  0  0  0  0  0  0  0  0  0
  -13.6264   13.6184  -26.8204 C   0  0  0  0  0  0  0  0  0  0  0  0
  -13.5285   14.8968  -26.2931 C   0  0  0  0  0  0  0  0  0  0  0  0
  -14.5556   18.2624  -23.2560 C   0  0  0  0  0  0  0  0  0  0  0  0
  -13.5029   18.7110  -24.0686 C   0  0  0  0  0  0  0  0  0  0  0  0
  -13.1818   17.5916  -24.9052 C   0  0  0  0  0  0  0  0  0  0  0  0
  -14.0622   16.5702  -24.5186 C   0  0  0  0  0  0  0  0  0  0  0  0
  -14.8409   17.0164  -23.5623 O   0  0  0  0  0  0  0  0  0  0  0  0
  -15.2734   19.0271  -22.1928 C   0  0  0  0  0  0  0  0  0  0  0  0
  -14.8499   19.0303  -21.0005 O   0  0  0  0  0  0  0  0  0  0  0  0
  -16.3170   19.6654  -22.5181 O   0  0  0  0  0  0  0  0  0  0  0  0
  -14.0756   18.5523  -20.7770 H   0  0  0  0  0  0  0  0  0  0  0  0
 23  1  1  0  0  0
 23 24  1  0  0  0
  2  1  2  0  0  0
  2  3  1  0  0  0
  1  6  1  0  0  0
 21 19  2  0  0  0
  3  4  2  0  0  0
 24 28  1  0  0  0
  6  5  2  0  0  0
  4  5  1  0  0  0
  4  7  1  0  0  0
  8  7  2  0  0  0
  8  9  1  0  0  0
  7 11  1  0  0  0
 29 28  2  0  0  0
 29 30  1  0  0  0
 28 27  1  0  0  0
 19  9  1  0  0  0
 19 20  1  0  0  0
  9 10  2  0  0  0
 18 14  1  0  0  0
 13 14  2  0  0  0
 13 12  1  0  0  0
 11 10  1  0  0  0
 11 12  1  0  0  0
 30 25  2  0  0  0
 14 15  1  0  0  0
 27 26  2  0  0  0
 12 17  2  0  0  0
 25 26  1  0  0  0
 25 34  1  0  0  0
 15 16  2  0  0  0
 17 16  1  0  0  0
 34 33  2  0  0  0
 34 35  1  0  0  0
 33 32  1  0  0  0
 35 31  1  0  0  0
 32 31  2  0  0  0
 31 36  1  0  0  0
 36 38  2  0  0  0
 36 37  1  0  0  0
 37 39  1  0  0  0
 20 22  1  0  0  0
M  END
> <minimizedAffinity>
-7.13423

$$$$
4LUZ_1XT_A_201


 39 43  0  0  0  0  0  0  0  0999 V2000
  -14.6946   12.7144  -23.0295 C   0  0  0  0  0  0  0  0  0  0  0  0
  -14.4527   12.1065  -21.8089 C   0  0  0  0  0  0  0  0  0  0  0  0
  -15.3732   12.2154  -20.7751 C   0  0  0  0  0  0  0  0  0  0  0  0
  -16.5392   12.9377  -20.9638 C   0  0  0  0  0  0  0  0  0  0  0  0
  -16.7743   13.5432  -22.1900 C   0  0  0  0  0  0  0  0  0  0  0  0
  -15.8607   13.4362  -23.2270 C   0  0  0  0  0  0  0  0  0  0  0  0
  -17.5654   13.0723  -19.8798 C   0  0  0  0  0  0  0  0  0  0  0  0
  -17.5803   14.0764  -18.8685 C   0  0  0  0  0  0  0  0  0  0  0  0
  -18.7386   13.7985  -18.0936 C   0  0  0  0  0  0  0  0  0  0  0  0
  -19.3217   12.7422  -18.6319 N   0  0  0  0  0  0  0  0  0  0  0  0
  -18.6454   12.3119  -19.6794 N   0  0  0  0  0  0  0  0  0  0  0  0
  -19.0761   11.1793  -20.4327 C   0  0  0  0  0  0  0  0  0  0  0  0
  -18.1606   10.4685  -21.1928 C   0  0  0  0  0  0  0  0  0  0  0  0
  -18.5765    9.3574  -21.9070 C   0  0  0  0  0  0  0  0  0  0  0  0
  -19.9005    8.9608  -21.8498 C   0  0  0  0  0  0  0  0  0  0  0  0
  -20.8179    9.6654  -21.0841 C   0  0  0  0  0  0  0  0  0  0  0  0
  -20.4013   10.7747  -20.3674 C   0  0  0  0  0  0  0  0  0  0  0  0
  -17.5968    8.5947  -22.7381 C   0  0  0  0  0  0  0  0  0  0  0  0
  -19.2499   14.5317  -16.8999 C   0  0  0  0  0  0  0  0  0  0  0  0
  -20.3159   14.1357  -16.3558 O   0  0  0  0  0  0  0  0  0  0  0  0
  -18.6227   15.5202  -16.4370 O   0  0  0  0  0  0  0  0  0  0  0  0
  -20.7757   13.3989  -16.7075 H   0  0  0  0  0  0  0  0  0  0  0  0
  -13.7717   12.6058  -24.0425 O   0  0  0  0  0  0  0  0  0  0  0  0
  -13.2616   11.3587  -24.3317 C   0  0  0  0  0  0  0  0  0  0  0  0
   -9.0345   10.9767  -24.6614 C   0  0  0  0  0  0  0  0  0  0  0  0
   -9.6403   10.8533  -23.4156 C   0  0  0  0  0  0  0  0  0  0  0  0
  -11.0178   10.9728  -23.3028 C   0  0  0  0  0  0  0  0  0  0  0  0
  -11.7799   11.2220  -24.4358 C   0  0  0  0  0  0  0  0  0  0  0  0
  -11.1753   11.3486  -25.6768 C   0  0  0  0  0  0  0  0  0  0  0  0
   -9.7996   11.2213  -25.7917 C   0  0  0  0  0  0  0  0  0  0  0  0
   -5.5712   10.0249  -24.4603 C   0  0  0  0  0  0  0  0  0  0  0  0
   -5.3670   11.1708  -25.2445 C   0  0  0  0  0  0  0  0  0  0  0  0
   -6.6774   11.7175  -25.4442 C   0  0  0  0  0  0  0  0  0  0  0  0
   -7.5514   10.8516  -24.7704 C   0  0  0  0  0  0  0  0  0  0  0  0
   -6.8550    9.8906  -24.2125 O   0  0  0  0  0  0  0  0  0  0  0  0
   -4.5384    9.0686  -23.9610 C   0  0  0  0  0  0  0  0  0  0  0  0
   -4.5633    7.8514  -24.3058 O   0  0  0  0  0  0  0  0  0  0  0  0
   -3.6438    9.5095  -23.1815 O   0  0  0  0  0  0  0  0  0  0  0  0
   -5.2327    7.5418  -24.8837 H   0  0  0  0  0  0  0  0  0  0  0  0
 23  1  1  0  0  0
 23 24  1  0  0  0
  2  1  2  0  0  0
  2  3  1  0  0  0
  1  6  1  0  0  0
 21 19  2  0  0  0
  3  4  2  0  0  0
 24 28  1  0  0  0
  6  5  2  0  0  0
  4  5  1  0  0  0
  4  7  1  0  0  0
  8  7  2  0  0  0
  8  9  1  0  0  0
  7 11  1  0  0  0
 29 28  2  0  0  0
 29 30  1  0  0  0
 28 27  1  0  0  0
 19  9  1  0  0  0
 19 20  1  0  0  0
  9 10  2  0  0  0
 18 14  1  0  0  0
 13 14  2  0  0  0
 13 12  1  0  0  0
 11 10  1  0  0  0
 11 12  1  0  0  0
 30 25  2  0  0  0
 14 15  1  0  0  0
 27 26  2  0  0  0
 12 17  2  0  0  0
 25 26  1  0  0  0
 25 34  1  0  0  0
 15 16  2  0  0  0
 17 16  1  0  0  0
 34 33  2  0  0  0
 34 35  1  0  0  0
 33 32  1  0  0  0
 35 31  1  0  0  0
 32 31  2  0  0  0
 31 36  1  0  0  0
 36 38  2  0  0  0
 36 37  1  0  0  0
 37 39  1  0  0  0
 20 22  1  0  0  0
M  END
> <minimizedAffinity>
-6.91032

$$$$
4LUZ_1XT_A_201


 39 43  0  0  0  0  0  0  0  0999 V2000
   -7.4983   15.6692  -26.6946 C   0  0  0  0  0  0  0  0  0  0  0  0
   -8.4601   14.9155  -27.3462 C   0  0  0  0  0  0  0  0  0  0  0  0
   -9.7646   14.8792  -26.8720 C   0  0  0  0  0  0  0  0  0  0  0  0
  -10.1064   15.5988  -25.7396 C   0  0  0  0  0  0  0  0  0  0  0  0
   -9.1369   16.3521  -25.0930 C   0  0  0  0  0  0  0  0  0  0  0  0
   -7.8335   16.3947  -25.5627 C   0  0  0  0  0  0  0  0  0  0  0  0
  -11.5043   15.5976  -25.1989 C   0  0  0  0  0  0  0  0  0  0  0  0
  -12.3545   16.7361  -25.0887 C   0  0  0  0  0  0  0  0  0  0  0  0
  -13.5658   16.2366  -24.5386 C   0  0  0  0  0  0  0  0  0  0  0  0
  -13.4079   14.9359  -24.3688 N   0  0  0  0  0  0  0  0  0  0  0  0
  -12.2069   14.5515  -24.7553 N   0  0  0  0  0  0  0  0  0  0  0  0
  -11.7956   13.1879  -24.6701 C   0  0  0  0  0  0  0  0  0  0  0  0
  -10.5221   12.8791  -24.2187 C   0  0  0  0  0  0  0  0  0  0  0  0
  -10.1318   11.5542  -24.1173 C   0  0  0  0  0  0  0  0  0  0  0  0
  -11.0188   10.5493  -24.4595 C   0  0  0  0  0  0  0  0  0  0  0  0
  -12.2968   10.8547  -24.9045 C   0  0  0  0  0  0  0  0  0  0  0  0
  -12.6880   12.1794  -25.0029 C   0  0  0  0  0  0  0  0  0  0  0  0
   -8.7560   11.2156  -23.6434 C   0  0  0  0  0  0  0  0  0  0  0  0
  -14.8100   16.9890  -24.2073 C   0  0  0  0  0  0  0  0  0  0  0  0
  -15.0169   18.0971  -24.7717 O   0  0  0  0  0  0  0  0  0  0  0  0
  -15.6438   16.5212  -23.3883 O   0  0  0  0  0  0  0  0  0  0  0  0
  -14.3905   18.4373  -25.3799 H   0  0  0  0  0  0  0  0  0  0  0  0
   -6.2084   15.6906  -27.1696 O   0  0  0  0  0  0  0  0  0  0  0  0
   -5.1762   15.5634  -26.2655 C   0  0  0  0  0  0  0  0  0  0  0  0
   -5.0848   12.0829  -23.8159 C   0  0  0  0  0  0  0  0  0  0  0  0
   -5.2063   11.9494  -25.1949 C   0  0  0  0  0  0  0  0  0  0  0  0
   -5.2325   13.0799  -25.9983 C   0  0  0  0  0  0  0  0  0  0  0  0
   -5.1442   14.3371  -25.4168 C   0  0  0  0  0  0  0  0  0  0  0  0
   -5.0268   14.4699  -24.0419 C   0  0  0  0  0  0  0  0  0  0  0  0
   -4.9923   13.3403  -23.2389 C   0  0  0  0  0  0  0  0  0  0  0  0
   -4.6524    8.8099  -22.3871 C   0  0  0  0  0  0  0  0  0  0  0  0
   -5.3370    9.3622  -21.2935 C   0  0  0  0  0  0  0  0  0  0  0  0
   -5.6108   10.7163  -21.6774 C   0  0  0  0  0  0  0  0  0  0  0  0
   -5.0629   10.8601  -22.9606 C   0  0  0  0  0  0  0  0  0  0  0  0
   -4.5248    9.7212  -23.3256 O   0  0  0  0  0  0  0  0  0  0  0  0
   -4.1235    7.4196  -22.5210 C   0  0  0  0  0  0  0  0  0  0  0  0
   -2.9631    7.1266  -22.1105 O   0  0  0  0  0  0  0  0  0  0  0  0
   -4.8662    6.5478  -23.0602 O   0  0  0  0  0  0  0  0  0  0  0  0
   -2.4265    7.7843  -21.7138 H   0  0  0  0  0  0  0  0  0  0  0  0
 23  1  1  0  0  0
 23 24  1  0  0  0
  2  1  2  0  0  0
  2  3  1  0  0  0
  1  6  1  0  0  0
 21 19  2  0  0  0
  3  4  2  0  0  0
 24 28  1  0  0  0
  6  5  2  0  0  0
  4  5  1  0  0  0
  4  7  1  0  0  0
  8  7  2  0  0  0
  8  9  1  0  0  0
  7 11  1  0  0  0
 29 28  2  0  0  0
 29 30  1  0  0  0
 28 27  1  0  0  0
 19  9  1  0  0  0
 19 20  1  0  0  0
  9 10  2  0  0  0
 18 14  1  0  0  0
 13 14  2  0  0  0
 13 12  1  0  0  0
 11 10  1  0  0  0
 11 12  1  0  0  0
 30 25  2  0  0  0
 14 15  1  0  0  0
 27 26  2  0  0  0
 12 17  2  0  0  0
 25 26  1  0  0  0
 25 34  1  0  0  0
 15 16  2  0  0  0
 17 16  1  0  0  0
 34 33  2  0  0  0
 34 35  1  0  0  0
 33 32  1  0  0  0
 35 31  1  0  0  0
 32 31  2  0  0  0
 31 36  1  0  0  0
 36 38  2  0  0  0
 36 37  1  0  0  0
 37 39  1  0  0  0
 20 22  1  0  0  0
M  END
> <minimizedAffinity>
-6.89036

$$$$
4LUZ_1XT_A_201


 39 43  0  0  0  0  0  0  0  0999 V2000
  -10.4524   10.6288  -24.4606 C   0  0  0  0  0  0  0  0  0  0  0  0
  -10.0660   10.8460  -25.7727 C   0  0  0  0  0  0  0  0  0  0  0  0
   -8.7766   11.2708  -26.0643 C   0  0  0  0  0  0  0  0  0  0  0  0
   -7.8716   11.4809  -25.0377 C   0  0  0  0  0  0  0  0  0  0  0  0
   -8.2665   11.2603  -23.7260 C   0  0  0  0  0  0  0  0  0  0  0  0
   -9.5513   10.8337  -23.4282 C   0  0  0  0  0  0  0  0  0  0  0  0
   -6.4668   11.9285  -25.3069 C   0  0  0  0  0  0  0  0  0  0  0  0
   -5.2874   11.1760  -25.0349 C   0  0  0  0  0  0  0  0  0  0  0  0
   -4.2169   12.0036  -25.4688 C   0  0  0  0  0  0  0  0  0  0  0  0
   -4.7526   13.1116  -25.9493 N   0  0  0  0  0  0  0  0  0  0  0  0
   -6.0682   13.0762  -25.8625 N   0  0  0  0  0  0  0  0  0  0  0  0
   -6.8762   14.1607  -26.3174 C   0  0  0  0  0  0  0  0  0  0  0  0
   -7.5540   14.9475  -25.3995 C   0  0  0  0  0  0  0  0  0  0  0  0
   -8.3213   16.0121  -25.8417 C   0  0  0  0  0  0  0  0  0  0  0  0
   -8.3988   16.2870  -27.1952 C   0  0  0  0  0  0  0  0  0  0  0  0
   -7.7156   15.5061  -28.1161 C   0  0  0  0  0  0  0  0  0  0  0  0
   -6.9458   14.4434  -27.6737 C   0  0  0  0  0  0  0  0  0  0  0  0
   -9.0643   16.8560  -24.8578 C   0  0  0  0  0  0  0  0  0  0  0  0
   -2.7533   11.7208  -25.4241 C   0  0  0  0  0  0  0  0  0  0  0  0
   -1.9920   12.3381  -26.2168 O   0  0  0  0  0  0  0  0  0  0  0  0
   -2.2853   10.8901  -24.6021 O   0  0  0  0  0  0  0  0  0  0  0  0
   -2.3495   12.9547  -26.8251 H   0  0  0  0  0  0  0  0  0  0  0  0
  -11.7342   10.2158  -24.1845 O   0  0  0  0  0  0  0  0  0  0  0  0
  -12.7740   11.0724  -24.4743 C   0  0  0  0  0  0  0  0  0  0  0  0
  -15.6721   11.7919  -21.4400 C   0  0  0  0  0  0  0  0  0  0  0  0
  -14.3227   11.9780  -21.1592 C   0  0  0  0  0  0  0  0  0  0  0  0
  -13.3743   11.7490  -22.1452 C   0  0  0  0  0  0  0  0  0  0  0  0
  -13.7809   11.3284  -23.4039 C   0  0  0  0  0  0  0  0  0  0  0  0
  -15.1258   11.1395  -23.6824 C   0  0  0  0  0  0  0  0  0  0  0  0
  -16.0749   11.3760  -22.6999 C   0  0  0  0  0  0  0  0  0  0  0  0
  -17.7705   13.1117  -18.8331 C   0  0  0  0  0  0  0  0  0  0  0  0
  -18.3476   11.8326  -18.8577 C   0  0  0  0  0  0  0  0  0  0  0  0
  -17.6240   11.1226  -19.8717 C   0  0  0  0  0  0  0  0  0  0  0  0
  -16.6835   12.0362  -20.3702 C   0  0  0  0  0  0  0  0  0  0  0  0
  -16.8091   13.1723  -19.7274 O   0  0  0  0  0  0  0  0  0  0  0  0
  -18.1474   14.2629  -17.9595 C   0  0  0  0  0  0  0  0  0  0  0  0
  -19.0658   14.1470  -17.0970 O   0  0  0  0  0  0  0  0  0  0  0  0
  -17.5261   15.3554  -18.1108 O   0  0  0  0  0  0  0  0  0  0  0  0
  -19.5155   13.3309  -16.9982 H   0  0  0  0  0  0  0  0  0  0  0  0
 23  1  1  0  0  0
 23 24  1  0  0  0
  2  1  2  0  0  0
  2  3  1  0  0  0
  1  6  1  0  0  0
 21 19  2  0  0  0
  3  4  2  0  0  0
 24 28  1  0  0  0
  6  5  2  0  0  0
  4  5  1  0  0  0
  4  7  1  0  0  0
  8  7  2  0  0  0
  8  9  1  0  0  0
  7 11  1  0  0  0
 29 28  2  0  0  0
 29 30  1  0  0  0
 28 27  1  0  0  0
 19  9  1  0  0  0
 19 20  1  0  0  0
  9 10  2  0  0  0
 18 14  1  0  0  0
 13 14  2  0  0  0
 13 12  1  0  0  0
 11 10  1  0  0  0
 11 12  1  0  0  0
 30 25  2  0  0  0
 14 15  1  0  0  0
 27 26  2  0  0  0
 12 17  2  0  0  0
 25 26  1  0  0  0
 25 34  1  0  0  0
 15 16  2  0  0  0
 17 16  1  0  0  0
 34 33  2  0  0  0
 34 35  1  0  0  0
 33 32  1  0  0  0
 35 31  1  0  0  0
 32 31  2  0  0  0
 31 36  1  0  0  0
 36 38  2  0  0  0
 36 37  1  0  0  0
 37 39  1  0  0  0
 20 22  1  0  0  0
M  END
> <minimizedAffinity>
-6.80308

$$$$
4LUZ_1XT_A_201


 39 43  0  0  0  0  0  0  0  0999 V2000
   -9.7583   16.5600  -25.6881 C   0  0  0  0  0  0  0  0  0  0  0  0
   -8.7203   15.9758  -26.3947 C   0  0  0  0  0  0  0  0  0  0  0  0
   -8.1026   14.8282  -25.9156 C   0  0  0  0  0  0  0  0  0  0  0  0
   -8.5247   14.2650  -24.7233 C   0  0  0  0  0  0  0  0  0  0  0  0
   -9.5658   14.8561  -24.0218 C   0  0  0  0  0  0  0  0  0  0  0  0
  -10.1884   16.0003  -24.4959 C   0  0  0  0  0  0  0  0  0  0  0  0
   -7.8944   13.0210  -24.1744 C   0  0  0  0  0  0  0  0  0  0  0  0
   -6.5796   12.9238  -23.6328 C   0  0  0  0  0  0  0  0  0  0  0  0
   -6.4458   11.5654  -23.2377 C   0  0  0  0  0  0  0  0  0  0  0  0
   -7.5868   10.9637  -23.5231 N   0  0  0  0  0  0  0  0  0  0  0  0
   -8.4421   11.8071  -24.0680 N   0  0  0  0  0  0  0  0  0  0  0  0
   -9.7486   11.3935  -24.4654 C   0  0  0  0  0  0  0  0  0  0  0  0
  -10.1048   11.4276  -25.8044 C   0  0  0  0  0  0  0  0  0  0  0  0
  -11.3663   11.0065  -26.1905 C   0  0  0  0  0  0  0  0  0  0  0  0
  -12.2581   10.5476  -25.2378 C   0  0  0  0  0  0  0  0  0  0  0  0
  -11.9023   10.5052  -23.8976 C   0  0  0  0  0  0  0  0  0  0  0  0
  -10.6397   10.9233  -23.5119 C   0  0  0  0  0  0  0  0  0  0  0  0
  -11.7602   11.0527  -27.6309 C   0  0  0  0  0  0  0  0  0  0  0  0
   -5.2706   10.8976  -22.6079 C   0  0  0  0  0  0  0  0  0  0  0  0
   -5.3039   10.6504  -21.3722 O   0  0  0  0  0  0  0  0  0  0  0  0
   -4.2688   10.5758  -23.2992 O   0  0  0  0  0  0  0  0  0  0  0  0
   -6.0538   10.8936  -20.8658 H   0  0  0  0  0  0  0  0  0  0  0  0
  -10.3564   17.7004  -26.1691 O   0  0  0  0  0  0  0  0  0  0  0  0
  -11.6303   17.6030  -26.6854 C   0  0  0  0  0  0  0  0  0  0  0  0
  -14.8773   18.3148  -24.0258 C   0  0  0  0  0  0  0  0  0  0  0  0
  -15.0677   17.5069  -25.1417 C   0  0  0  0  0  0  0  0  0  0  0  0
  -14.0122   17.2681  -26.0095 C   0  0  0  0  0  0  0  0  0  0  0  0
  -12.7746   17.8448  -25.7597 C   0  0  0  0  0  0  0  0  0  0  0  0
  -12.5861   18.6531  -24.6492 C   0  0  0  0  0  0  0  0  0  0  0  0
  -13.6383   18.8855  -23.7770 C   0  0  0  0  0  0  0  0  0  0  0  0
  -17.4649   18.1863  -21.5300 C   0  0  0  0  0  0  0  0  0  0  0  0
  -17.7828   19.4660  -22.0106 C   0  0  0  0  0  0  0  0  0  0  0  0
  -16.8294   19.7145  -23.0524 C   0  0  0  0  0  0  0  0  0  0  0  0
  -16.0211   18.5691  -23.1016 C   0  0  0  0  0  0  0  0  0  0  0  0
  -16.4386   17.7124  -22.2007 O   0  0  0  0  0  0  0  0  0  0  0  0
  -18.1417   17.4329  -20.4324 C   0  0  0  0  0  0  0  0  0  0  0  0
  -17.6621   16.3430  -20.0045 O   0  0  0  0  0  0  0  0  0  0  0  0
  -19.2083   17.9130  -19.9484 O   0  0  0  0  0  0  0  0  0  0  0  0
  -16.8716   16.0019  -20.3742 H   0  0  0  0  0  0  0  0  0  0  0  0
 23  1  1  0  0  0
 23 24  1  0  0  0
  2  1  2  0  0  0
  2  3  1  0  0  0
  1  6  1  0  0  0
 21 19  2  0  0  0
  3  4  2  0  0  0
 24 28  1  0  0  0
  6  5  2  0  0  0
  4  5  1  0  0  0
  4  7  1  0  0  0
  8  7  2  0  0  0
  8  9  1  0  0  0
  7 11  1  0  0  0
 29 28  2  0  0  0
 29 30  1  0  0  0
 28 27  1  0  0  0
 19  9  1  0  0  0
 19 20  1  0  0  0
  9 10  2  0  0  0
 18 14  1  0  0  0
 13 14  2  0  0  0
 13 12  1  0  0  0
 11 10  1  0  0  0
 11 12  1  0  0  0
 30 25  2  0  0  0
 14 15  1  0  0  0
 27 26  2  0  0  0
 12 17  2  0  0  0
 25 26  1  0  0  0
 25 34  1  0  0  0
 15 16  2  0  0  0
 17 16  1  0  0  0
 34 33  2  0  0  0
 34 35  1  0  0  0
 33 32  1  0  0  0
 35 31  1  0  0  0
 32 31  2  0  0  0
 31 36  1  0  0  0
 36 38  2  0  0  0
 36 37  1  0  0  0
 37 39  1  0  0  0
 20 22  1  0  0  0
M  END
> <minimizedAffinity>
-6.70719

$$$$
4LUZ_1XT_A_201


 39 43  0  0  0  0  0  0  0  0999 V2000
  -14.1978   10.6486  -23.1895 C   0  0  0  0  0  0  0  0  0  0  0  0
  -15.5593   10.4711  -23.3705 C   0  0  0  0  0  0  0  0  0  0  0  0
  -16.4691   11.2325  -22.6492 C   0  0  0  0  0  0  0  0  0  0  0  0
  -16.0136   12.1737  -21.7416 C   0  0  0  0  0  0  0  0  0  0  0  0
  -14.6479   12.3458  -21.5667 C   0  0  0  0  0  0  0  0  0  0  0  0
  -13.7343   11.5908  -22.2855 C   0  0  0  0  0  0  0  0  0  0  0  0
  -16.9593   13.0251  -20.9498 C   0  0  0  0  0  0  0  0  0  0  0  0
  -17.1486   12.9667  -19.5384 C   0  0  0  0  0  0  0  0  0  0  0  0
  -18.1239   13.9615  -19.2583 C   0  0  0  0  0  0  0  0  0  0  0  0
  -18.4402   14.5299  -20.4083 N   0  0  0  0  0  0  0  0  0  0  0  0
  -17.7621   13.9919  -21.4034 N   0  0  0  0  0  0  0  0  0  0  0  0
  -17.9297   14.4374  -22.7485 C   0  0  0  0  0  0  0  0  0  0  0  0
  -16.9411   15.2000  -23.3502 C   0  0  0  0  0  0  0  0  0  0  0  0
  -17.0964   15.6142  -24.6625 C   0  0  0  0  0  0  0  0  0  0  0  0
  -18.2332   15.2568  -25.3650 C   0  0  0  0  0  0  0  0  0  0  0  0
  -19.2212   14.4872  -24.7683 C   0  0  0  0  0  0  0  0  0  0  0  0
  -19.0644   14.0704  -23.4570 C   0  0  0  0  0  0  0  0  0  0  0  0
  -16.0398   16.4470  -25.3123 C   0  0  0  0  0  0  0  0  0  0  0  0
  -18.7053   14.3400  -17.9383 C   0  0  0  0  0  0  0  0  0  0  0  0
  -18.2376   15.3432  -17.3349 O   0  0  0  0  0  0  0  0  0  0  0  0
  -19.6533   13.6774  -17.4411 O   0  0  0  0  0  0  0  0  0  0  0  0
  -17.5319   15.8302  -17.7128 H   0  0  0  0  0  0  0  0  0  0  0  0
  -13.3072    9.8829  -23.9039 O   0  0  0  0  0  0  0  0  0  0  0  0
  -12.6679   10.4573  -24.9812 C   0  0  0  0  0  0  0  0  0  0  0  0
   -8.5450   11.4399  -24.5820 C   0  0  0  0  0  0  0  0  0  0  0  0
   -9.2577   11.0027  -23.4707 C   0  0  0  0  0  0  0  0  0  0  0  0
  -10.6004   10.6771  -23.5958 C   0  0  0  0  0  0  0  0  0  0  0  0
  -11.2236   10.7979  -24.8301 C   0  0  0  0  0  0  0  0  0  0  0  0
  -10.5137   11.2372  -25.9369 C   0  0  0  0  0  0  0  0  0  0  0  0
   -9.1698   11.5549  -25.8145 C   0  0  0  0  0  0  0  0  0  0  0  0
   -4.9503   11.5769  -24.5865 C   0  0  0  0  0  0  0  0  0  0  0  0
   -5.1468   12.8052  -23.9366 C   0  0  0  0  0  0  0  0  0  0  0  0
   -6.5704   12.9428  -23.8340 C   0  0  0  0  0  0  0  0  0  0  0  0
   -7.1024   11.7924  -24.4349 C   0  0  0  0  0  0  0  0  0  0  0  0
   -6.1173   11.0318  -24.8485 O   0  0  0  0  0  0  0  0  0  0  0  0
   -3.6503   10.9404  -24.9545 C   0  0  0  0  0  0  0  0  0  0  0  0
   -3.1204   11.1570  -26.0829 O   0  0  0  0  0  0  0  0  0  0  0  0
   -3.0992   10.1766  -24.1088 O   0  0  0  0  0  0  0  0  0  0  0  0
   -3.5420   11.7253  -26.6971 H   0  0  0  0  0  0  0  0  0  0  0  0
 23  1  1  0  0  0
 23 24  1  0  0  0
  2  1  2  0  0  0
  2  3  1  0  0  0
  1  6  1  0  0  0
 21 19  2  0  0  0
  3  4  2  0  0  0
 24 28  1  0  0  0
  6  5  2  0  0  0
  4  5  1  0  0  0
  4  7  1  0  0  0
  8  7  2  0  0  0
  8  9  1  0  0  0
  7 11  1  0  0  0
 29 28  2  0  0  0
 29 30  1  0  0  0
 28 27  1  0  0  0
 19  9  1  0  0  0
 19 20  1  0  0  0
  9 10  2  0  0  0
 18 14  1  0  0  0
 13 14  2  0  0  0
 13 12  1  0  0  0
 11 10  1  0  0  0
 11 12  1  0  0  0
 30 25  2  0  0  0
 14 15  1  0  0  0
 27 26  2  0  0  0
 12 17  2  0  0  0
 25 26  1  0  0  0
 25 34  1  0  0  0
 15 16  2  0  0  0
 17 16  1  0  0  0
 34 33  2  0  0  0
 34 35  1  0  0  0
 33 32  1  0  0  0
 35 31  1  0  0  0
 32 31  2  0  0  0
 31 36  1  0  0  0
 36 38  2  0  0  0
 36 37  1  0  0  0
 37 39  1  0  0  0
 20 22  1  0  0  0
M  END
> <minimizedAffinity>
-6.56857

$$$$
