4AGP_P51_A_1292


 31 33  0  0  0  0  0  0  0  0999 V2000
   91.5131   93.0443  -45.8284 C   0  0  0  0  0  0  0  0  0  0  0  0
   90.9640   95.2938  -45.0965 C   0  0  0  0  0  0  0  0  0  0  0  0
   91.4255   95.9744  -42.8301 O   0  0  0  0  0  0  0  0  0  0  0  0
   92.0099   92.7345  -44.5587 C   0  0  0  0  0  0  0  0  0  0  0  0
   90.9945   94.3240  -46.1029 C   0  0  0  0  0  0  0  0  0  0  0  0
   91.9662   93.7279  -43.5738 C   0  0  0  0  0  0  0  0  0  0  0  0
   91.4534   95.0149  -43.7930 C   0  0  0  0  0  0  0  0  0  0  0  0
   92.7040   93.2537  -41.6422 I   0  0  0  0  0  0  0  0  0  0  0  0
   91.0731   96.8210  -43.0224 H   0  0  0  0  0  0  0  0  0  0  0  0
   91.5461   92.0705  -46.8794 C   0  0  0  0  0  0  0  0  0  0  0  0
   91.5233   91.2565  -47.7554 C   0  0  0  0  0  0  0  0  0  0  0  0
   91.5182   90.3063  -48.8854 C   0  0  0  0  0  0  0  0  0  0  0  0
   90.1817   89.9155  -49.2111 O   0  0  0  0  0  0  0  0  0  0  0  0
   89.7430   88.6693  -48.8356 C   0  0  0  0  0  0  0  0  0  0  0  0
   90.6326   87.6336  -49.1368 C   0  0  0  0  0  0  0  0  0  0  0  0
   90.3172   86.3112  -48.8142 C   0  0  0  0  0  0  0  0  0  0  0  0
   89.1078   86.0175  -48.1875 C   0  0  0  0  0  0  0  0  0  0  0  0
   88.2109   87.0458  -47.8884 C   0  0  0  0  0  0  0  0  0  0  0  0
   88.5320   88.3704  -48.2099 C   0  0  0  0  0  0  0  0  0  0  0  0
   90.3898   96.6411  -45.4228 C   0  0  0  0  0  0  0  0  0  0  0  0
   90.8440   97.7034  -44.4849 N   0  0  0  0  0  0  0  0  0  0  0  0
   89.6810   98.5347  -44.0090 C   0  0  0  0  0  0  0  0  0  0  0  0
   90.2195   99.5413  -43.0106 C   0  0  0  0  0  0  0  0  0  0  0  0
   91.1551  100.4508  -43.7967 C   0  0  0  0  0  0  0  0  0  0  0  0
   92.3993   99.6435  -44.2045 C   0  0  0  0  0  0  0  0  0  0  0  0
   91.9186   98.5346  -45.1218 C   0  0  0  0  0  0  0  0  0  0  0  0
   91.5582  101.6884  -42.9738 N   0  0  0  0  0  0  0  0  0  0  0  0
   93.0598  101.9822  -43.0842 C   0  0  0  0  0  0  0  0  0  0  0  0
   93.2238  103.3680  -43.6792 C   0  0  0  0  0  0  0  0  0  0  0  0
   91.1713  101.6424  -41.5010 C   0  0  0  0  0  0  0  0  0  0  0  0
   92.3455  101.3738  -40.5705 C   0  0  0  0  0  0  0  0  0  0  0  0
  1 10  1  0  0  0
  1  4  1  0  0  0
  1  5  2  0  0  0
 10 11  3  0  0  0
 11 12  1  0  0  0
 12 13  1  0  0  0
 13 14  1  0  0  0
 14 15  1  0  0  0
 14 19  2  0  0  0
  2 20  1  0  0  0
  2  5  1  0  0  0
  2  7  2  0  0  0
 21 20  1  0  0  0
 21 22  1  0  0  0
 21 26  1  0  0  0
  3  7  1  0  0  0
  4  6  2  0  0  0
 27 24  1  0  0  0
 27 28  1  0  0  0
 27 30  1  0  0  0
 22 23  1  0  0  0
  6  7  1  0  0  0
  6  8  1  0  0  0
 23 24  1  0  0  0
 24 25  1  0  0  0
 28 29  1  0  0  0
 30 31  1  0  0  0
 25 26  1  0  0  0
 15 16  2  0  0  0
 16 17  1  0  0  0
 17 18  2  0  0  0
 18 19  1  0  0  0
  3  9  1  0  0  0
M  END
> <minimizedAffinity>
-7.26722

$$$$
4AGP_P51_A_1292


 31 33  0  0  0  0  0  0  0  0999 V2000
   91.5195   93.2267  -45.6952 C   0  0  0  0  0  0  0  0  0  0  0  0
   90.9959   95.4621  -44.9038 C   0  0  0  0  0  0  0  0  0  0  0  0
   91.4328   96.0663  -42.6109 O   0  0  0  0  0  0  0  0  0  0  0  0
   91.9911   92.8705  -44.4281 C   0  0  0  0  0  0  0  0  0  0  0  0
   91.0263   94.5227  -45.9386 C   0  0  0  0  0  0  0  0  0  0  0  0
   91.9481   93.8343  -43.4142 C   0  0  0  0  0  0  0  0  0  0  0  0
   91.4601   95.1359  -43.6020 C   0  0  0  0  0  0  0  0  0  0  0  0
   92.6476   93.2898  -41.4870 I   0  0  0  0  0  0  0  0  0  0  0  0
   91.0974   96.9241  -42.7828 H   0  0  0  0  0  0  0  0  0  0  0  0
   91.5531   92.2847  -46.7747 C   0  0  0  0  0  0  0  0  0  0  0  0
   91.6150   91.5278  -47.6987 C   0  0  0  0  0  0  0  0  0  0  0  0
   91.7276   90.5437  -48.7936 C   0  0  0  0  0  0  0  0  0  0  0  0
   91.3172   91.1207  -50.0360 O   0  0  0  0  0  0  0  0  0  0  0  0
   89.9870   91.4015  -50.2317 C   0  0  0  0  0  0  0  0  0  0  0  0
   89.1529   90.2801  -50.1938 C   0  0  0  0  0  0  0  0  0  0  0  0
   87.7745   90.4146  -50.3794 C   0  0  0  0  0  0  0  0  0  0  0  0
   87.2225   91.6741  -50.6043 C   0  0  0  0  0  0  0  0  0  0  0  0
   88.0497   92.7989  -50.6494 C   0  0  0  0  0  0  0  0  0  0  0  0
   89.4302   92.6606  -50.4593 C   0  0  0  0  0  0  0  0  0  0  0  0
   90.4492   96.8282  -45.1978 C   0  0  0  0  0  0  0  0  0  0  0  0
   91.2011   97.9106  -44.5067 N   0  0  0  0  0  0  0  0  0  0  0  0
   90.2622   98.9565  -43.9639 C   0  0  0  0  0  0  0  0  0  0  0  0
   91.1003   99.9784  -43.2202 C   0  0  0  0  0  0  0  0  0  0  0  0
   91.9824  100.6405  -44.2709 C   0  0  0  0  0  0  0  0  0  0  0  0
   93.0161   99.6138  -44.7643 C   0  0  0  0  0  0  0  0  0  0  0  0
   92.2362   98.4920  -45.4242 C   0  0  0  0  0  0  0  0  0  0  0  0
   92.6856  101.8895  -43.7082 N   0  0  0  0  0  0  0  0  0  0  0  0
   92.1453  102.2733  -42.3247 C   0  0  0  0  0  0  0  0  0  0  0  0
   93.3273  102.4270  -41.3860 C   0  0  0  0  0  0  0  0  0  0  0  0
   92.6484  103.1168  -44.6102 C   0  0  0  0  0  0  0  0  0  0  0  0
   91.4029  103.1953  -45.4816 C   0  0  0  0  0  0  0  0  0  0  0  0
  1 10  1  0  0  0
  1  4  1  0  0  0
  1  5  2  0  0  0
 10 11  3  0  0  0
 11 12  1  0  0  0
 12 13  1  0  0  0
 13 14  1  0  0  0
 14 15  1  0  0  0
 14 19  2  0  0  0
  2 20  1  0  0  0
  2  5  1  0  0  0
  2  7  2  0  0  0
 21 20  1  0  0  0
 21 22  1  0  0  0
 21 26  1  0  0  0
  3  7  1  0  0  0
  4  6  2  0  0  0
 27 24  1  0  0  0
 27 28  1  0  0  0
 27 30  1  0  0  0
 22 23  1  0  0  0
  6  7  1  0  0  0
  6  8  1  0  0  0
 23 24  1  0  0  0
 24 25  1  0  0  0
 28 29  1  0  0  0
 30 31  1  0  0  0
 25 26  1  0  0  0
 15 16  2  0  0  0
 16 17  1  0  0  0
 17 18  2  0  0  0
 18 19  1  0  0  0
  3  9  1  0  0  0
M  END
> <minimizedAffinity>
-7.06950

$$$$
4AGP_P51_A_1292


 31 33  0  0  0  0  0  0  0  0999 V2000
   91.4940   93.3781  -45.6609 C   0  0  0  0  0  0  0  0  0  0  0  0
   91.0172   95.6457  -44.9343 C   0  0  0  0  0  0  0  0  0  0  0  0
   91.3997   96.2864  -42.6416 O   0  0  0  0  0  0  0  0  0  0  0  0
   91.9132   93.0354  -44.3718 C   0  0  0  0  0  0  0  0  0  0  0  0
   91.0506   94.6832  -45.9475 C   0  0  0  0  0  0  0  0  0  0  0  0
   91.8687   94.0223  -43.3804 C   0  0  0  0  0  0  0  0  0  0  0  0
   91.4288   95.3340  -43.6115 C   0  0  0  0  0  0  0  0  0  0  0  0
   92.4883   93.4988  -41.4203 I   0  0  0  0  0  0  0  0  0  0  0  0
   91.0975   97.1504  -42.8424 H   0  0  0  0  0  0  0  0  0  0  0  0
   91.5319   92.4118  -46.7186 C   0  0  0  0  0  0  0  0  0  0  0  0
   91.5657   91.6434  -47.6345 C   0  0  0  0  0  0  0  0  0  0  0  0
   91.6784   90.6755  -48.7437 C   0  0  0  0  0  0  0  0  0  0  0  0
   91.1008   91.2071  -49.9390 O   0  0  0  0  0  0  0  0  0  0  0  0
   89.9677   90.6210  -50.4478 C   0  0  0  0  0  0  0  0  0  0  0  0
   89.3261   91.3751  -51.4350 C   0  0  0  0  0  0  0  0  0  0  0  0
   88.1588   90.9036  -52.0412 C   0  0  0  0  0  0  0  0  0  0  0  0
   87.6262   89.6730  -51.6621 C   0  0  0  0  0  0  0  0  0  0  0  0
   88.2579   88.9162  -50.6724 C   0  0  0  0  0  0  0  0  0  0  0  0
   89.4297   89.3902  -50.0697 C   0  0  0  0  0  0  0  0  0  0  0  0
   90.5242   97.0214  -45.2747 C   0  0  0  0  0  0  0  0  0  0  0  0
   90.3129   97.8717  -44.0718 N   0  0  0  0  0  0  0  0  0  0  0  0
   88.8845   98.3443  -43.9907 C   0  0  0  0  0  0  0  0  0  0  0  0
   88.7408   99.1405  -42.7080 C   0  0  0  0  0  0  0  0  0  0  0  0
   89.6311  100.3654  -42.8739 C   0  0  0  0  0  0  0  0  0  0  0  0
   91.1009   99.9121  -42.8565 C   0  0  0  0  0  0  0  0  0  0  0  0
   91.2929   99.0078  -44.0595 C   0  0  0  0  0  0  0  0  0  0  0  0
   89.3711  101.4031  -41.7663 N   0  0  0  0  0  0  0  0  0  0  0  0
   88.8086  102.7130  -42.3329 C   0  0  0  0  0  0  0  0  0  0  0  0
   88.9205  102.6561  -43.8448 C   0  0  0  0  0  0  0  0  0  0  0  0
   90.5700  101.7226  -40.8822 C   0  0  0  0  0  0  0  0  0  0  0  0
   90.3739  102.9556  -40.0116 C   0  0  0  0  0  0  0  0  0  0  0  0
  1 10  1  0  0  0
  1  4  1  0  0  0
  1  5  2  0  0  0
 10 11  3  0  0  0
 11 12  1  0  0  0
 12 13  1  0  0  0
 13 14  1  0  0  0
 14 15  1  0  0  0
 14 19  2  0  0  0
  2 20  1  0  0  0
  2  5  1  0  0  0
  2  7  2  0  0  0
 21 20  1  0  0  0
 21 22  1  0  0  0
 21 26  1  0  0  0
  3  7  1  0  0  0
  4  6  2  0  0  0
 27 24  1  0  0  0
 27 28  1  0  0  0
 27 30  1  0  0  0
 22 23  1  0  0  0
  6  7  1  0  0  0
  6  8  1  0  0  0
 23 24  1  0  0  0
 24 25  1  0  0  0
 28 29  1  0  0  0
 30 31  1  0  0  0
 25 26  1  0  0  0
 15 16  2  0  0  0
 16 17  1  0  0  0
 17 18  2  0  0  0
 18 19  1  0  0  0
  3  9  1  0  0  0
M  END
> <minimizedAffinity>
-6.57657

$$$$
4AGP_P51_A_1292


 31 33  0  0  0  0  0  0  0  0999 V2000
   88.9740   98.4728  -43.9516 C   0  0  0  0  0  0  0  0  0  0  0  0
   88.6000  100.3944  -42.5147 C   0  0  0  0  0  0  0  0  0  0  0  0
   86.3701  101.2579  -42.2062 O   0  0  0  0  0  0  0  0  0  0  0  0
   87.6067   98.3967  -44.2339 C   0  0  0  0  0  0  0  0  0  0  0  0
   89.4738   99.4664  -43.0885 C   0  0  0  0  0  0  0  0  0  0  0  0
   86.7585   99.3399  -43.6425 C   0  0  0  0  0  0  0  0  0  0  0  0
   87.2061  100.3534  -42.7823 C   0  0  0  0  0  0  0  0  0  0  0  0
   84.6861   99.2360  -44.0835 I   0  0  0  0  0  0  0  0  0  0  0  0
   86.7145  101.9182  -41.6376 H   0  0  0  0  0  0  0  0  0  0  0  0
   89.8870   97.5242  -44.5178 C   0  0  0  0  0  0  0  0  0  0  0  0
   90.6773   96.7367  -44.9488 C   0  0  0  0  0  0  0  0  0  0  0  0
   91.6005   95.7095  -45.4707 C   0  0  0  0  0  0  0  0  0  0  0  0
   91.3155   94.4330  -44.8923 O   0  0  0  0  0  0  0  0  0  0  0  0
   91.8453   94.1269  -43.6626 C   0  0  0  0  0  0  0  0  0  0  0  0
   93.0677   93.4504  -43.7175 C   0  0  0  0  0  0  0  0  0  0  0  0
   93.7229   93.0729  -42.5425 C   0  0  0  0  0  0  0  0  0  0  0  0
   93.1575   93.3707  -41.3042 C   0  0  0  0  0  0  0  0  0  0  0  0
   91.9337   94.0412  -41.2409 C   0  0  0  0  0  0  0  0  0  0  0  0
   91.2817   94.4212  -42.4205 C   0  0  0  0  0  0  0  0  0  0  0  0
   89.1720  101.4478  -41.6120 C   0  0  0  0  0  0  0  0  0  0  0  0
   90.6576  101.5119  -41.6707 N   0  0  0  0  0  0  0  0  0  0  0  0
   91.2535  101.4648  -40.2876 C   0  0  0  0  0  0  0  0  0  0  0  0
   92.7622  101.4644  -40.4420 C   0  0  0  0  0  0  0  0  0  0  0  0
   93.1198  102.8095  -41.0609 C   0  0  0  0  0  0  0  0  0  0  0  0
   92.6070  102.8367  -42.5109 C   0  0  0  0  0  0  0  0  0  0  0  0
   91.0957  102.7224  -42.4414 C   0  0  0  0  0  0  0  0  0  0  0  0
   94.6383  103.0616  -41.0186 N   0  0  0  0  0  0  0  0  0  0  0  0
   95.0204  104.0584  -39.9170 C   0  0  0  0  0  0  0  0  0  0  0  0
   93.7404  104.6372  -39.3440 C   0  0  0  0  0  0  0  0  0  0  0  0
   95.2571  103.5185  -42.3337 C   0  0  0  0  0  0  0  0  0  0  0  0
   95.9561  104.8675  -42.2423 C   0  0  0  0  0  0  0  0  0  0  0  0
  1 10  1  0  0  0
  1  4  1  0  0  0
  1  5  2  0  0  0
 10 11  3  0  0  0
 11 12  1  0  0  0
 12 13  1  0  0  0
 13 14  1  0  0  0
 14 15  1  0  0  0
 14 19  2  0  0  0
  2 20  1  0  0  0
  2  5  1  0  0  0
  2  7  2  0  0  0
 21 20  1  0  0  0
 21 22  1  0  0  0
 21 26  1  0  0  0
  3  7  1  0  0  0
  4  6  2  0  0  0
 27 24  1  0  0  0
 27 28  1  0  0  0
 27 30  1  0  0  0
 22 23  1  0  0  0
  6  7  1  0  0  0
  6  8  1  0  0  0
 23 24  1  0  0  0
 24 25  1  0  0  0
 28 29  1  0  0  0
 30 31  1  0  0  0
 25 26  1  0  0  0
 15 16  2  0  0  0
 16 17  1  0  0  0
 17 18  2  0  0  0
 18 19  1  0  0  0
  3  9  1  0  0  0
M  END
> <minimizedAffinity>
-6.24695

$$$$
4AGP_P51_A_1292


 31 33  0  0  0  0  0  0  0  0999 V2000
   90.5656   95.5517  -45.5476 C   0  0  0  0  0  0  0  0  0  0  0  0
   90.6619   97.5116  -44.1169 C   0  0  0  0  0  0  0  0  0  0  0  0
   89.1661   99.3632  -44.5004 O   0  0  0  0  0  0  0  0  0  0  0  0
   89.5299   96.1250  -46.2916 C   0  0  0  0  0  0  0  0  0  0  0  0
   91.1304   96.2391  -44.4565 C   0  0  0  0  0  0  0  0  0  0  0  0
   89.0829   97.3996  -45.9250 C   0  0  0  0  0  0  0  0  0  0  0  0
   89.6161   98.1295  -44.8524 C   0  0  0  0  0  0  0  0  0  0  0  0
   87.5232   98.2777  -47.0637 I   0  0  0  0  0  0  0  0  0  0  0  0
   89.5531   99.8139  -43.7757 H   0  0  0  0  0  0  0  0  0  0  0  0
   91.0532   94.2429  -45.8688 C   0  0  0  0  0  0  0  0  0  0  0  0
   91.4259   93.1313  -46.1054 C   0  0  0  0  0  0  0  0  0  0  0  0
   91.8554   91.7659  -46.4674 C   0  0  0  0  0  0  0  0  0  0  0  0
   92.1269   91.6762  -47.8686 O   0  0  0  0  0  0  0  0  0  0  0  0
   91.2041   91.0729  -48.6876 C   0  0  0  0  0  0  0  0  0  0  0  0
   90.6466   91.9233  -49.6472 C   0  0  0  0  0  0  0  0  0  0  0  0
   89.6911   91.4464  -50.5483 C   0  0  0  0  0  0  0  0  0  0  0  0
   89.2876   90.1138  -50.4939 C   0  0  0  0  0  0  0  0  0  0  0  0
   89.8355   89.2591  -49.5344 C   0  0  0  0  0  0  0  0  0  0  0  0
   90.7955   89.7396  -48.6353 C   0  0  0  0  0  0  0  0  0  0  0  0
   91.2990   98.2192  -42.9572 C   0  0  0  0  0  0  0  0  0  0  0  0
   91.4804   99.6760  -43.2004 N   0  0  0  0  0  0  0  0  0  0  0  0
   92.6104   99.9240  -44.1657 C   0  0  0  0  0  0  0  0  0  0  0  0
   92.6805  101.4192  -44.4096 C   0  0  0  0  0  0  0  0  0  0  0  0
   93.0602  102.0438  -43.0732 C   0  0  0  0  0  0  0  0  0  0  0  0
   91.8763  101.8899  -42.1034 C   0  0  0  0  0  0  0  0  0  0  0  0
   91.6694  100.4006  -41.9002 C   0  0  0  0  0  0  0  0  0  0  0  0
   93.4394  103.5276  -43.2339 N   0  0  0  0  0  0  0  0  0  0  0  0
   93.0917  104.0568  -44.6312 C   0  0  0  0  0  0  0  0  0  0  0  0
   94.3355  104.7050  -45.2097 C   0  0  0  0  0  0  0  0  0  0  0  0
   94.8936  103.8626  -42.9271 C   0  0  0  0  0  0  0  0  0  0  0  0
   95.0738  104.6997  -41.6687 C   0  0  0  0  0  0  0  0  0  0  0  0
  1 10  1  0  0  0
  1  4  1  0  0  0
  1  5  2  0  0  0
 10 11  3  0  0  0
 11 12  1  0  0  0
 12 13  1  0  0  0
 13 14  1  0  0  0
 14 15  1  0  0  0
 14 19  2  0  0  0
  2 20  1  0  0  0
  2  5  1  0  0  0
  2  7  2  0  0  0
 21 20  1  0  0  0
 21 22  1  0  0  0
 21 26  1  0  0  0
  3  7  1  0  0  0
  4  6  2  0  0  0
 27 24  1  0  0  0
 27 28  1  0  0  0
 27 30  1  0  0  0
 22 23  1  0  0  0
  6  7  1  0  0  0
  6  8  1  0  0  0
 23 24  1  0  0  0
 24 25  1  0  0  0
 28 29  1  0  0  0
 30 31  1  0  0  0
 25 26  1  0  0  0
 15 16  2  0  0  0
 16 17  1  0  0  0
 17 18  2  0  0  0
 18 19  1  0  0  0
  3  9  1  0  0  0
M  END
> <minimizedAffinity>
-6.20388

$$$$
4AGP_P51_A_1292


 31 33  0  0  0  0  0  0  0  0999 V2000
   91.4265   93.4848  -45.7057 C   0  0  0  0  0  0  0  0  0  0  0  0
   90.7532   95.6469  -44.8285 C   0  0  0  0  0  0  0  0  0  0  0  0
   91.2851   96.2485  -42.5552 O   0  0  0  0  0  0  0  0  0  0  0  0
   92.0129   93.1519  -44.4808 C   0  0  0  0  0  0  0  0  0  0  0  0
   90.8007   94.7331  -45.8853 C   0  0  0  0  0  0  0  0  0  0  0  0
   91.9492   94.0892  -43.4435 C   0  0  0  0  0  0  0  0  0  0  0  0
   91.3317   95.3425  -43.5679 C   0  0  0  0  0  0  0  0  0  0  0  0
   92.8234   93.5783  -41.5794 I   0  0  0  0  0  0  0  0  0  0  0  0
   90.8613   97.0741  -42.6842 H   0  0  0  0  0  0  0  0  0  0  0  0
   91.4745   92.5694  -46.8073 C   0  0  0  0  0  0  0  0  0  0  0  0
   91.5645   91.8024  -47.7206 C   0  0  0  0  0  0  0  0  0  0  0  0
   91.6411   90.8027  -48.8043 C   0  0  0  0  0  0  0  0  0  0  0  0
   91.2007   91.3654  -50.0431 O   0  0  0  0  0  0  0  0  0  0  0  0
   89.8564   91.5649  -50.2423 C   0  0  0  0  0  0  0  0  0  0  0  0
   89.5163   92.8768  -50.5858 C   0  0  0  0  0  0  0  0  0  0  0  0
   88.1834   93.2268  -50.8164 C   0  0  0  0  0  0  0  0  0  0  0  0
   87.1820   92.2644  -50.7044 C   0  0  0  0  0  0  0  0  0  0  0  0
   87.5128   90.9528  -50.3560 C   0  0  0  0  0  0  0  0  0  0  0  0
   88.8502   90.6048  -50.1291 C   0  0  0  0  0  0  0  0  0  0  0  0
   90.0643   96.9609  -45.0535 C   0  0  0  0  0  0  0  0  0  0  0  0
   90.9406   97.9646  -45.7162 N   0  0  0  0  0  0  0  0  0  0  0  0
   91.9383   98.5351  -44.7418 C   0  0  0  0  0  0  0  0  0  0  0  0
   92.8300   99.4908  -45.5109 C   0  0  0  0  0  0  0  0  0  0  0  0
   91.9257  100.6257  -45.9741 C   0  0  0  0  0  0  0  0  0  0  0  0
   90.9651  100.0839  -47.0463 C   0  0  0  0  0  0  0  0  0  0  0  0
   90.1095   99.0278  -46.3721 C   0  0  0  0  0  0  0  0  0  0  0  0
   92.7446  101.8066  -46.5273 N   0  0  0  0  0  0  0  0  0  0  0  0
   92.5015  103.0932  -45.7281 C   0  0  0  0  0  0  0  0  0  0  0  0
   91.5258  102.7739  -44.6111 C   0  0  0  0  0  0  0  0  0  0  0  0
   92.5411  102.0999  -48.0085 C   0  0  0  0  0  0  0  0  0  0  0  0
   92.2871  103.5701  -48.3094 C   0  0  0  0  0  0  0  0  0  0  0  0
  1 10  1  0  0  0
  1  4  1  0  0  0
  1  5  2  0  0  0
 10 11  3  0  0  0
 11 12  1  0  0  0
 12 13  1  0  0  0
 13 14  1  0  0  0
 14 15  1  0  0  0
 14 19  2  0  0  0
  2 20  1  0  0  0
  2  5  1  0  0  0
  2  7  2  0  0  0
 21 20  1  0  0  0
 21 22  1  0  0  0
 21 26  1  0  0  0
  3  7  1  0  0  0
  4  6  2  0  0  0
 27 24  1  0  0  0
 27 28  1  0  0  0
 27 30  1  0  0  0
 22 23  1  0  0  0
  6  7  1  0  0  0
  6  8  1  0  0  0
 23 24  1  0  0  0
 24 25  1  0  0  0
 28 29  1  0  0  0
 30 31  1  0  0  0
 25 26  1  0  0  0
 15 16  2  0  0  0
 16 17  1  0  0  0
 17 18  2  0  0  0
 18 19  1  0  0  0
  3  9  1  0  0  0
M  END
> <minimizedAffinity>
-6.16920

$$$$
4AGP_P51_A_1292


 31 33  0  0  0  0  0  0  0  0999 V2000
   91.4488   93.5814  -45.6000 C   0  0  0  0  0  0  0  0  0  0  0  0
   90.7934   95.7006  -44.6116 C   0  0  0  0  0  0  0  0  0  0  0  0
   91.4013   96.2126  -42.3353 O   0  0  0  0  0  0  0  0  0  0  0  0
   92.0799   93.2030  -44.4110 C   0  0  0  0  0  0  0  0  0  0  0  0
   90.8094   94.8311  -45.7061 C   0  0  0  0  0  0  0  0  0  0  0  0
   92.0470   94.0966  -43.3345 C   0  0  0  0  0  0  0  0  0  0  0  0
   91.4177   95.3492  -43.3856 C   0  0  0  0  0  0  0  0  0  0  0  0
   92.9894   93.5166  -41.5246 I   0  0  0  0  0  0  0  0  0  0  0  0
   90.9680   97.0395  -42.4154 H   0  0  0  0  0  0  0  0  0  0  0  0
   91.4636   92.7122  -46.7393 C   0  0  0  0  0  0  0  0  0  0  0  0
   91.4311   92.0055  -47.7037 C   0  0  0  0  0  0  0  0  0  0  0  0
   91.4468   91.1758  -48.9249 C   0  0  0  0  0  0  0  0  0  0  0  0
   90.1757   91.2150  -49.5789 O   0  0  0  0  0  0  0  0  0  0  0  0
   89.6567   90.0524  -50.0940 C   0  0  0  0  0  0  0  0  0  0  0  0
   90.0628   88.8959  -49.4214 C   0  0  0  0  0  0  0  0  0  0  0  0
   89.6147   87.6393  -49.8369 C   0  0  0  0  0  0  0  0  0  0  0  0
   88.7564   87.5330  -50.9294 C   0  0  0  0  0  0  0  0  0  0  0  0
   88.3506   88.6831  -51.6104 C   0  0  0  0  0  0  0  0  0  0  0  0
   88.7988   89.9411  -51.1890 C   0  0  0  0  0  0  0  0  0  0  0  0
   90.0889   97.0173  -44.7581 C   0  0  0  0  0  0  0  0  0  0  0  0
   90.7967   97.9502  -45.6763 N   0  0  0  0  0  0  0  0  0  0  0  0
   91.9286   98.6479  -44.9674 C   0  0  0  0  0  0  0  0  0  0  0  0
   92.6346   99.5209  -45.9869 C   0  0  0  0  0  0  0  0  0  0  0  0
   91.6212  100.5783  -46.4057 C   0  0  0  0  0  0  0  0  0  0  0  0
   90.5077   99.8981  -47.2202 C   0  0  0  0  0  0  0  0  0  0  0  0
   89.8241   98.9149  -46.2886 C   0  0  0  0  0  0  0  0  0  0  0  0
   92.2854  101.6990  -47.2267 N   0  0  0  0  0  0  0  0  0  0  0  0
   93.5125  101.1923  -47.9952 C   0  0  0  0  0  0  0  0  0  0  0  0
   94.4078  102.3822  -48.2859 C   0  0  0  0  0  0  0  0  0  0  0  0
   92.6775  102.9393  -46.4335 C   0  0  0  0  0  0  0  0  0  0  0  0
   92.3200  102.8562  -44.9563 C   0  0  0  0  0  0  0  0  0  0  0  0
  1 10  1  0  0  0
  1  4  1  0  0  0
  1  5  2  0  0  0
 10 11  3  0  0  0
 11 12  1  0  0  0
 12 13  1  0  0  0
 13 14  1  0  0  0
 14 15  1  0  0  0
 14 19  2  0  0  0
  2 20  1  0  0  0
  2  5  1  0  0  0
  2  7  2  0  0  0
 21 20  1  0  0  0
 21 22  1  0  0  0
 21 26  1  0  0  0
  3  7  1  0  0  0
  4  6  2  0  0  0
 27 24  1  0  0  0
 27 28  1  0  0  0
 27 30  1  0  0  0
 22 23  1  0  0  0
  6  7  1  0  0  0
  6  8  1  0  0  0
 23 24  1  0  0  0
 24 25  1  0  0  0
 28 29  1  0  0  0
 30 31  1  0  0  0
 25 26  1  0  0  0
 15 16  2  0  0  0
 16 17  1  0  0  0
 17 18  2  0  0  0
 18 19  1  0  0  0
  3  9  1  0  0  0
M  END
> <minimizedAffinity>
-6.14762

$$$$
4AGP_P51_A_1292


 31 33  0  0  0  0  0  0  0  0999 V2000
   90.6786   95.7545  -45.7419 C   0  0  0  0  0  0  0  0  0  0  0  0
   91.3143   98.0062  -45.0915 C   0  0  0  0  0  0  0  0  0  0  0  0
   89.6712   99.7706  -45.0789 O   0  0  0  0  0  0  0  0  0  0  0  0
   89.3606   96.1701  -45.9545 C   0  0  0  0  0  0  0  0  0  0  0  0
   91.6569   96.6679  -45.3052 C   0  0  0  0  0  0  0  0  0  0  0  0
   89.0501   97.5162  -45.7302 C   0  0  0  0  0  0  0  0  0  0  0  0
   89.9880   98.4674  -45.3027 C   0  0  0  0  0  0  0  0  0  0  0  0
   87.0546   98.1515  -46.0688 I   0  0  0  0  0  0  0  0  0  0  0  0
   90.3316  100.3710  -44.7937 H   0  0  0  0  0  0  0  0  0  0  0  0
   91.0502   94.3849  -45.9417 C   0  0  0  0  0  0  0  0  0  0  0  0
   91.3921   93.2459  -46.0696 C   0  0  0  0  0  0  0  0  0  0  0  0
   91.7451   91.8184  -46.2019 C   0  0  0  0  0  0  0  0  0  0  0  0
   92.2097   91.5331  -47.5240 O   0  0  0  0  0  0  0  0  0  0  0  0
   91.3005   91.1534  -48.4809 C   0  0  0  0  0  0  0  0  0  0  0  0
   90.9572   89.7987  -48.4399 C   0  0  0  0  0  0  0  0  0  0  0  0
   90.0438   89.2703  -49.3558 C   0  0  0  0  0  0  0  0  0  0  0  0
   89.4682   90.0960  -50.3194 C   0  0  0  0  0  0  0  0  0  0  0  0
   89.8103   91.4494  -50.3707 C   0  0  0  0  0  0  0  0  0  0  0  0
   90.7233   91.9762  -49.4488 C   0  0  0  0  0  0  0  0  0  0  0  0
   92.3877   98.9530  -44.6410 C   0  0  0  0  0  0  0  0  0  0  0  0
   91.8802   99.9998  -43.7131 N   0  0  0  0  0  0  0  0  0  0  0  0
   92.6460  101.2864  -43.8822 C   0  0  0  0  0  0  0  0  0  0  0  0
   92.0226  102.3121  -42.9553 C   0  0  0  0  0  0  0  0  0  0  0  0
   92.2689  101.8025  -41.5411 C   0  0  0  0  0  0  0  0  0  0  0  0
   91.4146  100.5435  -41.3154 C   0  0  0  0  0  0  0  0  0  0  0  0
   91.9083   99.4991  -42.2990 C   0  0  0  0  0  0  0  0  0  0  0  0
   91.9366  102.8781  -40.4904 N   0  0  0  0  0  0  0  0  0  0  0  0
   92.9135  102.8415  -39.3082 C   0  0  0  0  0  0  0  0  0  0  0  0
   94.3083  102.6135  -39.8596 C   0  0  0  0  0  0  0  0  0  0  0  0
   90.5111  102.8425  -39.9539 C   0  0  0  0  0  0  0  0  0  0  0  0
   89.5940  103.8767  -40.5911 C   0  0  0  0  0  0  0  0  0  0  0  0
  1 10  1  0  0  0
  1  4  1  0  0  0
  1  5  2  0  0  0
 10 11  3  0  0  0
 11 12  1  0  0  0
 12 13  1  0  0  0
 13 14  1  0  0  0
 14 15  1  0  0  0
 14 19  2  0  0  0
  2 20  1  0  0  0
  2  5  1  0  0  0
  2  7  2  0  0  0
 21 20  1  0  0  0
 21 22  1  0  0  0
 21 26  1  0  0  0
  3  7  1  0  0  0
  4  6  2  0  0  0
 27 24  1  0  0  0
 27 28  1  0  0  0
 27 30  1  0  0  0
 22 23  1  0  0  0
  6  7  1  0  0  0
  6  8  1  0  0  0
 23 24  1  0  0  0
 24 25  1  0  0  0
 28 29  1  0  0  0
 30 31  1  0  0  0
 25 26  1  0  0  0
 15 16  2  0  0  0
 16 17  1  0  0  0
 17 18  2  0  0  0
 18 19  1  0  0  0
  3  9  1  0  0  0
M  END
> <minimizedAffinity>
-6.09319

$$$$
4AGP_P51_A_1292


 31 33  0  0  0  0  0  0  0  0999 V2000
   90.2176   98.3531  -43.7594 C   0  0  0  0  0  0  0  0  0  0  0  0
   90.7368  100.0968  -42.1509 C   0  0  0  0  0  0  0  0  0  0  0  0
   89.0625  101.7236  -41.5484 O   0  0  0  0  0  0  0  0  0  0  0  0
   88.9183   98.8493  -43.9030 C   0  0  0  0  0  0  0  0  0  0  0  0
   91.1279   98.9704  -42.8805 C   0  0  0  0  0  0  0  0  0  0  0  0
   88.5579   99.9775  -43.1574 C   0  0  0  0  0  0  0  0  0  0  0  0
   89.4282  100.6339  -42.2746 C   0  0  0  0  0  0  0  0  0  0  0  0
   86.5923  100.7415  -43.3874 I   0  0  0  0  0  0  0  0  0  0  0  0
   89.6783  102.1297  -40.9706 H   0  0  0  0  0  0  0  0  0  0  0  0
   90.6368   97.1918  -44.4870 C   0  0  0  0  0  0  0  0  0  0  0  0
   91.0167   96.2105  -45.0557 C   0  0  0  0  0  0  0  0  0  0  0  0
   91.4162   94.9684  -45.7467 C   0  0  0  0  0  0  0  0  0  0  0  0
   91.1673   93.8280  -44.9205 O   0  0  0  0  0  0  0  0  0  0  0  0
   91.7652   93.7579  -43.6860 C   0  0  0  0  0  0  0  0  0  0  0  0
   93.0734   93.2649  -43.7098 C   0  0  0  0  0  0  0  0  0  0  0  0
   93.8046   93.1362  -42.5261 C   0  0  0  0  0  0  0  0  0  0  0  0
   93.2298   93.5007  -41.3102 C   0  0  0  0  0  0  0  0  0  0  0  0
   91.9213   93.9887  -41.2772 C   0  0  0  0  0  0  0  0  0  0  0  0
   91.1928   94.1198  -42.4659 C   0  0  0  0  0  0  0  0  0  0  0  0
   91.7396  100.7362  -41.2359 C   0  0  0  0  0  0  0  0  0  0  0  0
   92.2608  102.0262  -41.7639 N   0  0  0  0  0  0  0  0  0  0  0  0
   92.8645  101.8432  -43.1322 C   0  0  0  0  0  0  0  0  0  0  0  0
   93.3048  103.2095  -43.6216 C   0  0  0  0  0  0  0  0  0  0  0  0
   94.4128  103.6555  -42.6763 C   0  0  0  0  0  0  0  0  0  0  0  0
   93.7966  103.9458  -41.2971 C   0  0  0  0  0  0  0  0  0  0  0  0
   93.2260  102.6348  -40.7896 C   0  0  0  0  0  0  0  0  0  0  0  0
   95.1445  104.8987  -43.2151 N   0  0  0  0  0  0  0  0  0  0  0  0
   96.6636  104.6905  -43.2621 C   0  0  0  0  0  0  0  0  0  0  0  0
   97.1074  104.8013  -44.7087 C   0  0  0  0  0  0  0  0  0  0  0  0
   94.8471  106.1976  -42.4765 C   0  0  0  0  0  0  0  0  0  0  0  0
   96.0465  106.7616  -41.7282 C   0  0  0  0  0  0  0  0  0  0  0  0
  1 10  1  0  0  0
  1  4  1  0  0  0
  1  5  2  0  0  0
 10 11  3  0  0  0
 11 12  1  0  0  0
 12 13  1  0  0  0
 13 14  1  0  0  0
 14 15  1  0  0  0
 14 19  2  0  0  0
  2 20  1  0  0  0
  2  5  1  0  0  0
  2  7  2  0  0  0
 21 20  1  0  0  0
 21 22  1  0  0  0
 21 26  1  0  0  0
  3  7  1  0  0  0
  4  6  2  0  0  0
 27 24  1  0  0  0
 27 28  1  0  0  0
 27 30  1  0  0  0
 22 23  1  0  0  0
  6  7  1  0  0  0
  6  8  1  0  0  0
 23 24  1  0  0  0
 24 25  1  0  0  0
 28 29  1  0  0  0
 30 31  1  0  0  0
 25 26  1  0  0  0
 15 16  2  0  0  0
 16 17  1  0  0  0
 17 18  2  0  0  0
 18 19  1  0  0  0
  3  9  1  0  0  0
M  END
> <minimizedAffinity>
-5.99422

$$$$
4AGP_P51_A_1292


 31 33  0  0  0  0  0  0  0  0999 V2000
   89.8120   97.4982  -45.2890 C   0  0  0  0  0  0  0  0  0  0  0  0
   89.2652   99.3042  -43.7603 C   0  0  0  0  0  0  0  0  0  0  0  0
   87.8876  101.1393  -44.5001 O   0  0  0  0  0  0  0  0  0  0  0  0
   89.0743   98.1129  -46.3054 C   0  0  0  0  0  0  0  0  0  0  0  0
   89.9054   98.0876  -44.0138 C   0  0  0  0  0  0  0  0  0  0  0  0
   88.4445   99.3294  -46.0188 C   0  0  0  0  0  0  0  0  0  0  0  0
   88.5123   99.9620  -44.7687 C   0  0  0  0  0  0  0  0  0  0  0  0
   87.3393  100.2715  -47.5651 I   0  0  0  0  0  0  0  0  0  0  0  0
   87.9610  101.5253  -43.6495 H   0  0  0  0  0  0  0  0  0  0  0  0
   90.4657   96.2443  -45.5217 C   0  0  0  0  0  0  0  0  0  0  0  0
   90.9716   95.1745  -45.6952 C   0  0  0  0  0  0  0  0  0  0  0  0
   91.5843   93.8627  -45.9846 C   0  0  0  0  0  0  0  0  0  0  0  0
   91.4197   92.9727  -44.8774 O   0  0  0  0  0  0  0  0  0  0  0  0
   91.8651   93.3633  -43.6383 C   0  0  0  0  0  0  0  0  0  0  0  0
   93.1989   93.0338  -43.3786 C   0  0  0  0  0  0  0  0  0  0  0  0
   93.7868   93.3676  -42.1557 C   0  0  0  0  0  0  0  0  0  0  0  0
   93.0421   94.0339  -41.1846 C   0  0  0  0  0  0  0  0  0  0  0  0
   91.7073   94.3615  -41.4340 C   0  0  0  0  0  0  0  0  0  0  0  0
   91.1224   94.0286  -42.6621 C   0  0  0  0  0  0  0  0  0  0  0  0
   89.4003   99.9089  -42.3936 C   0  0  0  0  0  0  0  0  0  0  0  0
   90.2698  101.1165  -42.3815 N   0  0  0  0  0  0  0  0  0  0  0  0
   91.6748  100.7726  -42.8032 C   0  0  0  0  0  0  0  0  0  0  0  0
   92.4706  102.0633  -42.8301 C   0  0  0  0  0  0  0  0  0  0  0  0
   92.5207  102.5540  -41.3889 C   0  0  0  0  0  0  0  0  0  0  0  0
   91.1105  103.0062  -40.9731 C   0  0  0  0  0  0  0  0  0  0  0  0
   90.2223  101.7778  -41.0354 C   0  0  0  0  0  0  0  0  0  0  0  0
   93.5299  103.7051  -41.2220 N   0  0  0  0  0  0  0  0  0  0  0  0
   94.1501  104.1186  -42.5628 C   0  0  0  0  0  0  0  0  0  0  0  0
   95.6520  104.2182  -42.3736 C   0  0  0  0  0  0  0  0  0  0  0  0
   94.6480  103.4476  -40.2197 C   0  0  0  0  0  0  0  0  0  0  0  0
   94.2527  103.7355  -38.7784 C   0  0  0  0  0  0  0  0  0  0  0  0
  1 10  1  0  0  0
  1  4  1  0  0  0
  1  5  2  0  0  0
 10 11  3  0  0  0
 11 12  1  0  0  0
 12 13  1  0  0  0
 13 14  1  0  0  0
 14 15  1  0  0  0
 14 19  2  0  0  0
  2 20  1  0  0  0
  2  5  1  0  0  0
  2  7  2  0  0  0
 21 20  1  0  0  0
 21 22  1  0  0  0
 21 26  1  0  0  0
  3  7  1  0  0  0
  4  6  2  0  0  0
 27 24  1  0  0  0
 27 28  1  0  0  0
 27 30  1  0  0  0
 22 23  1  0  0  0
  6  7  1  0  0  0
  6  8  1  0  0  0
 23 24  1  0  0  0
 24 25  1  0  0  0
 28 29  1  0  0  0
 30 31  1  0  0  0
 25 26  1  0  0  0
 15 16  2  0  0  0
 16 17  1  0  0  0
 17 18  2  0  0  0
 18 19  1  0  0  0
  3  9  1  0  0  0
M  END
> <minimizedAffinity>
-5.76614

$$$$
