2VC9_NOK_A_1909


 19 19  0  0  0  0  0  0  0  0999 V2000
   17.7827   -4.0702    8.3983 C   0  0  0  0  0  0  0  0  0  0  0  0
   17.8065   -2.5692    8.7118 C   0  0  0  0  0  0  0  0  0  0  0  0
   18.9974   -1.9556    8.0780 N   0  0  0  0  0  0  0  0  0  0  0  0
   20.3048   -2.5504    8.4724 C   0  0  0  0  0  0  0  0  0  0  0  0
   20.3122   -4.0880    8.3630 C   0  0  0  0  0  0  0  0  0  0  0  0
   21.5124   -4.5672    8.9964 O   0  0  0  0  0  0  0  0  0  0  0  0
   19.0414   -4.7284    8.9719 C   0  0  0  0  0  0  0  0  0  0  0  0
   19.0098   -6.1415    8.7520 O   0  0  0  0  0  0  0  0  0  0  0  0
   19.0130   -0.9667    8.3274 H   0  0  0  0  0  0  0  0  0  0  0  0
   21.5125   -4.3040    9.9299 H   0  0  0  0  0  0  0  0  0  0  0  0
   18.9857   -6.3199    7.7988 H   0  0  0  0  0  0  0  0  0  0  0  0
   14.6473   -6.1207    9.1283 C   0  0  0  0  0  0  0  0  0  0  0  0
   15.9181   -5.6826    8.4192 C   0  0  0  0  0  0  0  0  0  0  0  0
   16.2917   -6.2890    7.4212 O   0  0  0  0  0  0  0  0  0  0  0  0
   16.5526   -4.6423    8.9648 N   0  0  0  0  0  0  0  0  0  0  0  0
   16.1803   -4.2405    9.7827 H   0  0  0  0  0  0  0  0  0  0  0  0
   21.4212   -1.9594    7.6004 C   0  0  0  0  0  0  0  0  0  0  0  0
   21.6438   -2.7736    6.4504 O   0  0  0  0  0  0  0  0  0  0  0  0
   21.9108   -3.6630    6.7306 H   0  0  0  0  0  0  0  0  0  0  0  0
 12 13  1  0  0  0
 13 14  2  0  0  0
 13 15  1  0  0  0
 15  1  1  0  0  0
  1  2  1  0  0  0
  1  7  1  0  0  0
  2  3  1  0  0  0
  3  4  1  0  0  0
  4 17  1  0  0  0
  4  5  1  0  0  0
 17 18  1  0  0  0
  5  6  1  0  0  0
  5  7  1  0  0  0
  7  8  1  0  0  0
 15 16  1  0  0  0
  3  9  1  0  0  0
 18 19  1  0  0  0
  6 10  1  0  0  0
  8 11  1  0  0  0
M  END
> <minimizedAffinity>
-7.06773

$$$$
2VC9_NOK_A_1909


 19 19  0  0  0  0  0  0  0  0999 V2000
   19.3277   -4.4647    8.6850 C   0  0  0  0  0  0  0  0  0  0  0  0
   18.9462   -5.5743    9.6725 C   0  0  0  0  0  0  0  0  0  0  0  0
   17.5186   -5.9261    9.4858 N   0  0  0  0  0  0  0  0  0  0  0  0
   16.5603   -4.7962    9.6378 C   0  0  0  0  0  0  0  0  0  0  0  0
   16.9691   -3.5588    8.8144 C   0  0  0  0  0  0  0  0  0  0  0  0
   16.1313   -2.4626    9.2240 O   0  0  0  0  0  0  0  0  0  0  0  0
   18.4731   -3.2237    8.9612 C   0  0  0  0  0  0  0  0  0  0  0  0
   18.8578   -2.1507    8.0971 O   0  0  0  0  0  0  0  0  0  0  0  0
   17.2770   -6.6392   10.1740 H   0  0  0  0  0  0  0  0  0  0  0  0
   16.2660   -2.2881   10.1686 H   0  0  0  0  0  0  0  0  0  0  0  0
   18.7168   -2.4127    7.1738 H   0  0  0  0  0  0  0  0  0  0  0  0
   23.0137   -3.6409    8.1346 C   0  0  0  0  0  0  0  0  0  0  0  0
   21.5483   -3.8637    7.7991 C   0  0  0  0  0  0  0  0  0  0  0  0
   21.1673   -3.7293    6.6415 O   0  0  0  0  0  0  0  0  0  0  0  0
   20.7646   -4.1898    8.8296 N   0  0  0  0  0  0  0  0  0  0  0  0
   21.1669   -4.2489    9.7262 H   0  0  0  0  0  0  0  0  0  0  0  0
   15.1550   -5.2563    9.2262 C   0  0  0  0  0  0  0  0  0  0  0  0
   15.2305   -6.2345    8.1907 O   0  0  0  0  0  0  0  0  0  0  0  0
   15.6680   -5.8507    7.4146 H   0  0  0  0  0  0  0  0  0  0  0  0
 12 13  1  0  0  0
 13 14  2  0  0  0
 13 15  1  0  0  0
 15  1  1  0  0  0
  1  2  1  0  0  0
  1  7  1  0  0  0
  2  3  1  0  0  0
  3  4  1  0  0  0
  4 17  1  0  0  0
  4  5  1  0  0  0
 17 18  1  0  0  0
  5  6  1  0  0  0
  5  7  1  0  0  0
  7  8  1  0  0  0
 15 16  1  0  0  0
  3  9  1  0  0  0
 18 19  1  0  0  0
  6 10  1  0  0  0
  8 11  1  0  0  0
M  END
> <minimizedAffinity>
-6.71228

$$$$
2VC9_NOK_A_1909


 19 19  0  0  0  0  0  0  0  0999 V2000
   18.3732   -2.8841    9.0910 C   0  0  0  0  0  0  0  0  0  0  0  0
   17.1364   -1.9782    9.1320 C   0  0  0  0  0  0  0  0  0  0  0  0
   16.1907   -2.4870   10.1534 N   0  0  0  0  0  0  0  0  0  0  0  0
   15.7487   -3.8966    9.9643 C   0  0  0  0  0  0  0  0  0  0  0  0
   16.9287   -4.8603    9.7298 C   0  0  0  0  0  0  0  0  0  0  0  0
   16.3854   -6.1266    9.3145 O   0  0  0  0  0  0  0  0  0  0  0  0
   17.9489   -4.3050    8.7067 C   0  0  0  0  0  0  0  0  0  0  0  0
   19.0942   -5.1545    8.5947 O   0  0  0  0  0  0  0  0  0  0  0  0
   15.3621   -1.8922   10.1400 H   0  0  0  0  0  0  0  0  0  0  0  0
   15.8873   -6.0101    8.4904 H   0  0  0  0  0  0  0  0  0  0  0  0
   19.5492   -5.1983    9.4503 H   0  0  0  0  0  0  0  0  0  0  0  0
   21.4909   -1.7429    7.2079 C   0  0  0  0  0  0  0  0  0  0  0  0
   20.6551   -2.4148    8.2847 C   0  0  0  0  0  0  0  0  0  0  0  0
   21.2147   -3.0026    9.2037 O   0  0  0  0  0  0  0  0  0  0  0  0
   19.3323   -2.3154    8.1329 N   0  0  0  0  0  0  0  0  0  0  0  0
   18.9838   -1.8403    7.3442 H   0  0  0  0  0  0  0  0  0  0  0  0
   14.9400   -4.3493   11.1879 C   0  0  0  0  0  0  0  0  0  0  0  0
   15.7331   -4.2695   12.3710 O   0  0  0  0  0  0  0  0  0  0  0  0
   16.5060   -4.8487   12.2818 H   0  0  0  0  0  0  0  0  0  0  0  0
 12 13  1  0  0  0
 13 14  2  0  0  0
 13 15  1  0  0  0
 15  1  1  0  0  0
  1  2  1  0  0  0
  1  7  1  0  0  0
  2  3  1  0  0  0
  3  4  1  0  0  0
  4 17  1  0  0  0
  4  5  1  0  0  0
 17 18  1  0  0  0
  5  6  1  0  0  0
  5  7  1  0  0  0
  7  8  1  0  0  0
 15 16  1  0  0  0
  3  9  1  0  0  0
 18 19  1  0  0  0
  6 10  1  0  0  0
  8 11  1  0  0  0
M  END
> <minimizedAffinity>
-6.37114

$$$$
2VC9_NOK_A_1909


 19 19  0  0  0  0  0  0  0  0999 V2000
   17.6626   -4.6847    9.6458 C   0  0  0  0  0  0  0  0  0  0  0  0
   18.7844   -5.6345    9.2087 C   0  0  0  0  0  0  0  0  0  0  0  0
   20.0864   -4.9336    9.3099 N   0  0  0  0  0  0  0  0  0  0  0  0
   20.1915   -3.6716    8.5259 C   0  0  0  0  0  0  0  0  0  0  0  0
   18.9987   -2.7251    8.7656 C   0  0  0  0  0  0  0  0  0  0  0  0
   19.0711   -1.6714    7.7879 O   0  0  0  0  0  0  0  0  0  0  0  0
   17.6401   -3.4653    8.7188 C   0  0  0  0  0  0  0  0  0  0  0  0
   16.5576   -2.5963    9.0638 O   0  0  0  0  0  0  0  0  0  0  0  0
   20.8132   -5.5698    8.9823 H   0  0  0  0  0  0  0  0  0  0  0  0
   19.0150   -2.0521    6.8975 H   0  0  0  0  0  0  0  0  0  0  0  0
   16.6744   -2.2797    9.9732 H   0  0  0  0  0  0  0  0  0  0  0  0
   14.5857   -6.7231    8.6731 C   0  0  0  0  0  0  0  0  0  0  0  0
   15.9293   -6.0293    8.5211 C   0  0  0  0  0  0  0  0  0  0  0  0
   16.5077   -6.0648    7.4406 O   0  0  0  0  0  0  0  0  0  0  0  0
   16.3922   -5.4241    9.6174 N   0  0  0  0  0  0  0  0  0  0  0  0
   15.8592   -5.4752   10.4435 H   0  0  0  0  0  0  0  0  0  0  0  0
   21.5039   -2.9572    8.8771 C   0  0  0  0  0  0  0  0  0  0  0  0
   21.8843   -2.0641    7.8319 O   0  0  0  0  0  0  0  0  0  0  0  0
   22.0166   -2.5643    7.0114 H   0  0  0  0  0  0  0  0  0  0  0  0
 12 13  1  0  0  0
 13 14  2  0  0  0
 13 15  1  0  0  0
 15  1  1  0  0  0
  1  2  1  0  0  0
  1  7  1  0  0  0
  2  3  1  0  0  0
  3  4  1  0  0  0
  4 17  1  0  0  0
  4  5  1  0  0  0
 17 18  1  0  0  0
  5  6  1  0  0  0
  5  7  1  0  0  0
  7  8  1  0  0  0
 15 16  1  0  0  0
  3  9  1  0  0  0
 18 19  1  0  0  0
  6 10  1  0  0  0
  8 11  1  0  0  0
M  END
> <minimizedAffinity>
-6.19041

$$$$
2VC9_NOK_A_1909


 19 19  0  0  0  0  0  0  0  0999 V2000
   17.4874   -3.7861    8.3831 C   0  0  0  0  0  0  0  0  0  0  0  0
   17.7219   -2.2965    8.6621 C   0  0  0  0  0  0  0  0  0  0  0  0
   19.0278   -1.8911    8.0904 N   0  0  0  0  0  0  0  0  0  0  0  0
   20.2034   -2.6634    8.5803 C   0  0  0  0  0  0  0  0  0  0  0  0
   19.9821   -4.1872    8.5078 C   0  0  0  0  0  0  0  0  0  0  0  0
   21.0556   -4.8213    9.2267 O   0  0  0  0  0  0  0  0  0  0  0  0
   18.5948   -4.6078    9.0502 C   0  0  0  0  0  0  0  0  0  0  0  0
   18.3604   -6.0063    8.8621 O   0  0  0  0  0  0  0  0  0  0  0  0
   19.1797   -0.9082    8.3170 H   0  0  0  0  0  0  0  0  0  0  0  0
   21.0411   -4.5306   10.1520 H   0  0  0  0  0  0  0  0  0  0  0  0
   18.3654   -6.2103    7.9138 H   0  0  0  0  0  0  0  0  0  0  0  0
   14.3420   -4.3395   10.4732 C   0  0  0  0  0  0  0  0  0  0  0  0
   15.7433   -3.8666   10.1235 C   0  0  0  0  0  0  0  0  0  0  0  0
   16.4036   -3.2641   10.9626 O   0  0  0  0  0  0  0  0  0  0  0  0
   16.1532   -4.1468    8.8841 N   0  0  0  0  0  0  0  0  0  0  0  0
   15.5344   -4.6158    8.2788 H   0  0  0  0  0  0  0  0  0  0  0  0
   21.4463   -2.2770    7.7668 C   0  0  0  0  0  0  0  0  0  0  0  0
   21.6444   -3.1901    6.6889 O   0  0  0  0  0  0  0  0  0  0  0  0
   21.7739   -4.0841    7.0421 H   0  0  0  0  0  0  0  0  0  0  0  0
 12 13  1  0  0  0
 13 14  2  0  0  0
 13 15  1  0  0  0
 15  1  1  0  0  0
  1  2  1  0  0  0
  1  7  1  0  0  0
  2  3  1  0  0  0
  3  4  1  0  0  0
  4 17  1  0  0  0
  4  5  1  0  0  0
 17 18  1  0  0  0
  5  6  1  0  0  0
  5  7  1  0  0  0
  7  8  1  0  0  0
 15 16  1  0  0  0
  3  9  1  0  0  0
 18 19  1  0  0  0
  6 10  1  0  0  0
  8 11  1  0  0  0
M  END
> <minimizedAffinity>
-6.11313

$$$$
2VC9_NOK_A_1909


 19 19  0  0  0  0  0  0  0  0999 V2000
   16.1729   -2.4990   10.0623 C   0  0  0  0  0  0  0  0  0  0  0  0
   15.9238   -1.2266    9.2435 C   0  0  0  0  0  0  0  0  0  0  0  0
   16.4521   -0.0566    9.9842 N   0  0  0  0  0  0  0  0  0  0  0  0
   15.8946    0.1345   11.3520 C   0  0  0  0  0  0  0  0  0  0  0  0
   15.9360   -1.1564   12.1934 C   0  0  0  0  0  0  0  0  0  0  0  0
   15.1575   -0.9305   13.3826 O   0  0  0  0  0  0  0  0  0  0  0  0
   15.4398   -2.3914   11.4031 C   0  0  0  0  0  0  0  0  0  0  0  0
   15.6005   -3.5958   12.1577 O   0  0  0  0  0  0  0  0  0  0  0  0
   16.2455    0.7808    9.4397 H   0  0  0  0  0  0  0  0  0  0  0  0
   14.2415   -0.7281   13.1358 H   0  0  0  0  0  0  0  0  0  0  0  0
   16.5421   -3.7391   12.3413 H   0  0  0  0  0  0  0  0  0  0  0  0
   15.7133   -5.9183    8.4296 C   0  0  0  0  0  0  0  0  0  0  0  0
   16.3048   -4.8509    9.3354 C   0  0  0  0  0  0  0  0  0  0  0  0
   17.2533   -5.1322   10.0596 O   0  0  0  0  0  0  0  0  0  0  0  0
   15.7174   -3.6536    9.2744 N   0  0  0  0  0  0  0  0  0  0  0  0
   14.9448   -3.5387    8.6751 H   0  0  0  0  0  0  0  0  0  0  0  0
   16.6666    1.2504   12.0695 C   0  0  0  0  0  0  0  0  0  0  0  0
   17.5923    0.6991   13.0044 O   0  0  0  0  0  0  0  0  0  0  0  0
   17.1112    0.1817   13.6690 H   0  0  0  0  0  0  0  0  0  0  0  0
 12 13  1  0  0  0
 13 14  2  0  0  0
 13 15  1  0  0  0
 15  1  1  0  0  0
  1  2  1  0  0  0
  1  7  1  0  0  0
  2  3  1  0  0  0
  3  4  1  0  0  0
  4 17  1  0  0  0
  4  5  1  0  0  0
 17 18  1  0  0  0
  5  6  1  0  0  0
  5  7  1  0  0  0
  7  8  1  0  0  0
 15 16  1  0  0  0
  3  9  1  0  0  0
 18 19  1  0  0  0
  6 10  1  0  0  0
  8 11  1  0  0  0
M  END
> <minimizedAffinity>
-6.03261

$$$$
2VC9_NOK_A_1909


 19 19  0  0  0  0  0  0  0  0999 V2000
   16.3966   -2.5093   10.4043 C   0  0  0  0  0  0  0  0  0  0  0  0
   14.9361   -2.9769   10.4067 C   0  0  0  0  0  0  0  0  0  0  0  0
   14.8892   -4.4369   10.1562 N   0  0  0  0  0  0  0  0  0  0  0  0
   15.5363   -4.8861    8.8922 C   0  0  0  0  0  0  0  0  0  0  0  0
   16.9547   -4.3089    8.7161 C   0  0  0  0  0  0  0  0  0  0  0  0
   17.3810   -4.5946    7.3715 O   0  0  0  0  0  0  0  0  0  0  0  0
   17.0189   -2.7954    9.0340 C   0  0  0  0  0  0  0  0  0  0  0  0
   18.3619   -2.3058    8.9840 O   0  0  0  0  0  0  0  0  0  0  0  0
   13.9098   -4.7204   10.1271 H   0  0  0  0  0  0  0  0  0  0  0  0
   16.7740   -4.1728    6.7434 H   0  0  0  0  0  0  0  0  0  0  0  0
   18.8959   -2.7574    9.6561 H   0  0  0  0  0  0  0  0  0  0  0  0
   16.2279    0.8995   12.1130 C   0  0  0  0  0  0  0  0  0  0  0  0
   16.1796   -0.6120   11.9633 C   0  0  0  0  0  0  0  0  0  0  0  0
   15.9350   -1.3077   12.9429 O   0  0  0  0  0  0  0  0  0  0  0  0
   16.4252   -1.0775   10.7363 N   0  0  0  0  0  0  0  0  0  0  0  0
   16.6349   -0.4331   10.0221 H   0  0  0  0  0  0  0  0  0  0  0  0
   15.5888   -6.4198    8.8596 C   0  0  0  0  0  0  0  0  0  0  0  0
   14.4707   -6.9452    8.1464 O   0  0  0  0  0  0  0  0  0  0  0  0
   13.6500   -6.6750    8.5873 H   0  0  0  0  0  0  0  0  0  0  0  0
 12 13  1  0  0  0
 13 14  2  0  0  0
 13 15  1  0  0  0
 15  1  1  0  0  0
  1  2  1  0  0  0
  1  7  1  0  0  0
  2  3  1  0  0  0
  3  4  1  0  0  0
  4 17  1  0  0  0
  4  5  1  0  0  0
 17 18  1  0  0  0
  5  6  1  0  0  0
  5  7  1  0  0  0
  7  8  1  0  0  0
 15 16  1  0  0  0
  3  9  1  0  0  0
 18 19  1  0  0  0
  6 10  1  0  0  0
  8 11  1  0  0  0
M  END
> <minimizedAffinity>
-5.86977

$$$$
2VC9_NOK_A_1909


 19 19  0  0  0  0  0  0  0  0999 V2000
   16.1071   -0.9085    9.6499 C   0  0  0  0  0  0  0  0  0  0  0  0
   17.3931   -0.8340    8.8178 C   0  0  0  0  0  0  0  0  0  0  0  0
   17.5523   -2.0910    8.0490 N   0  0  0  0  0  0  0  0  0  0  0  0
   17.5789   -3.3364    8.8655 C   0  0  0  0  0  0  0  0  0  0  0  0
   16.4121   -3.4102    9.8701 C   0  0  0  0  0  0  0  0  0  0  0  0
   16.6713   -4.5079   10.7641 O   0  0  0  0  0  0  0  0  0  0  0  0
   16.2059   -2.0792   10.6329 C   0  0  0  0  0  0  0  0  0  0  0  0
   15.0459   -2.1283   11.4685 O   0  0  0  0  0  0  0  0  0  0  0  0
   18.4292   -2.0349    7.5310 H   0  0  0  0  0  0  0  0  0  0  0  0
   17.5032   -4.3500   11.2373 H   0  0  0  0  0  0  0  0  0  0  0  0
   14.2576   -2.2630   10.9196 H   0  0  0  0  0  0  0  0  0  0  0  0
   16.4231    2.1791   11.8714 C   0  0  0  0  0  0  0  0  0  0  0  0
   16.7884    0.8437   11.2445 C   0  0  0  0  0  0  0  0  0  0  0  0
   17.8249    0.2824   11.5817 O   0  0  0  0  0  0  0  0  0  0  0  0
   15.9256    0.3777   10.3385 N   0  0  0  0  0  0  0  0  0  0  0  0
   15.1326    0.9194   10.1218 H   0  0  0  0  0  0  0  0  0  0  0  0
   17.5473   -4.5589    7.9378 C   0  0  0  0  0  0  0  0  0  0  0  0
   18.0008   -5.7231    8.6263 O   0  0  0  0  0  0  0  0  0  0  0  0
   18.9136   -5.5872    8.9249 H   0  0  0  0  0  0  0  0  0  0  0  0
 12 13  1  0  0  0
 13 14  2  0  0  0
 13 15  1  0  0  0
 15  1  1  0  0  0
  1  2  1  0  0  0
  1  7  1  0  0  0
  2  3  1  0  0  0
  3  4  1  0  0  0
  4 17  1  0  0  0
  4  5  1  0  0  0
 17 18  1  0  0  0
  5  6  1  0  0  0
  5  7  1  0  0  0
  7  8  1  0  0  0
 15 16  1  0  0  0
  3  9  1  0  0  0
 18 19  1  0  0  0
  6 10  1  0  0  0
  8 11  1  0  0  0
M  END
> <minimizedAffinity>
-5.62781

$$$$
2VC9_NOK_A_1909


 19 19  0  0  0  0  0  0  0  0999 V2000
   18.1508   -3.3196    8.6980 C   0  0  0  0  0  0  0  0  0  0  0  0
   19.3270   -2.3366    8.6536 C   0  0  0  0  0  0  0  0  0  0  0  0
   20.5113   -3.0161    8.0772 N   0  0  0  0  0  0  0  0  0  0  0  0
   20.9434   -4.2519    8.7874 C   0  0  0  0  0  0  0  0  0  0  0  0
   19.7768   -5.2270    9.0412 C   0  0  0  0  0  0  0  0  0  0  0  0
   20.2466   -6.2494    9.9386 O   0  0  0  0  0  0  0  0  0  0  0  0
   18.5183   -4.5109    9.5881 C   0  0  0  0  0  0  0  0  0  0  0  0
   17.4113   -5.4097    9.7009 O   0  0  0  0  0  0  0  0  0  0  0  0
   21.2897   -2.3571    8.0891 H   0  0  0  0  0  0  0  0  0  0  0  0
   20.5236   -5.8433   10.7748 H   0  0  0  0  0  0  0  0  0  0  0  0
   17.1813   -5.7511    8.8226 H   0  0  0  0  0  0  0  0  0  0  0  0
   15.4131   -0.7700    9.4549 C   0  0  0  0  0  0  0  0  0  0  0  0
   16.6606   -1.3594    8.8179 C   0  0  0  0  0  0  0  0  0  0  0  0
   17.2986   -0.6922    8.0110 O   0  0  0  0  0  0  0  0  0  0  0  0
   16.9668   -2.6032    9.1942 N   0  0  0  0  0  0  0  0  0  0  0  0
   16.3732   -3.0611    9.8325 H   0  0  0  0  0  0  0  0  0  0  0  0
   22.0423   -4.9522    7.9763 C   0  0  0  0  0  0  0  0  0  0  0  0
   23.0442   -4.0182    7.5777 O   0  0  0  0  0  0  0  0  0  0  0  0
   22.6432   -3.3310    7.0229 H   0  0  0  0  0  0  0  0  0  0  0  0
 12 13  1  0  0  0
 13 14  2  0  0  0
 13 15  1  0  0  0
 15  1  1  0  0  0
  1  2  1  0  0  0
  1  7  1  0  0  0
  2  3  1  0  0  0
  3  4  1  0  0  0
  4 17  1  0  0  0
  4  5  1  0  0  0
 17 18  1  0  0  0
  5  6  1  0  0  0
  5  7  1  0  0  0
  7  8  1  0  0  0
 15 16  1  0  0  0
  3  9  1  0  0  0
 18 19  1  0  0  0
  6 10  1  0  0  0
  8 11  1  0  0  0
M  END
> <minimizedAffinity>
-5.17345

$$$$
2VC9_NOK_A_1909


 19 19  0  0  0  0  0  0  0  0999 V2000
   15.1492   -2.4218   10.5223 C   0  0  0  0  0  0  0  0  0  0  0  0
   15.6121   -2.8697   11.9140 C   0  0  0  0  0  0  0  0  0  0  0  0
   15.5329   -1.7224   12.8489 N   0  0  0  0  0  0  0  0  0  0  0  0
   16.3131   -0.5193   12.4463 C   0  0  0  0  0  0  0  0  0  0  0  0
   16.0461   -0.1023   10.9865 C   0  0  0  0  0  0  0  0  0  0  0  0
   17.0201    0.8953   10.6298 O   0  0  0  0  0  0  0  0  0  0  0  0
   16.0700   -1.3074   10.0154 C   0  0  0  0  0  0  0  0  0  0  0  0
   15.7002   -0.9194    8.6892 O   0  0  0  0  0  0  0  0  0  0  0  0
   15.8774   -2.0319   13.7577 H   0  0  0  0  0  0  0  0  0  0  0  0
   17.9110    0.5194   10.7067 H   0  0  0  0  0  0  0  0  0  0  0  0
   14.7918   -0.5793    8.6933 H   0  0  0  0  0  0  0  0  0  0  0  0
   16.0619   -5.5120    8.4762 C   0  0  0  0  0  0  0  0  0  0  0  0
   16.2332   -4.3610    9.4536 C   0  0  0  0  0  0  0  0  0  0  0  0
   17.3104   -4.2039   10.0178 O   0  0  0  0  0  0  0  0  0  0  0  0
   15.1564   -3.5923    9.6327 N   0  0  0  0  0  0  0  0  0  0  0  0
   14.3304   -3.8194    9.1475 H   0  0  0  0  0  0  0  0  0  0  0  0
   15.9840    0.6452   13.3905 C   0  0  0  0  0  0  0  0  0  0  0  0
   17.0092    1.6359   13.3417 O   0  0  0  0  0  0  0  0  0  0  0  0
   17.8516    1.2434   13.6195 H   0  0  0  0  0  0  0  0  0  0  0  0
 12 13  1  0  0  0
 13 14  2  0  0  0
 13 15  1  0  0  0
 15  1  1  0  0  0
  1  2  1  0  0  0
  1  7  1  0  0  0
  2  3  1  0  0  0
  3  4  1  0  0  0
  4 17  1  0  0  0
  4  5  1  0  0  0
 17 18  1  0  0  0
  5  6  1  0  0  0
  5  7  1  0  0  0
  7  8  1  0  0  0
 15 16  1  0  0  0
  3  9  1  0  0  0
 18 19  1  0  0  0
  6 10  1  0  0  0
  8 11  1  0  0  0
M  END
> <minimizedAffinity>
-5.15680

$$$$
