4ZZZ_FSU_A_2019


 20 21  0  0  0  0  0  0  0  0999 V2000
   64.2399    7.6905    8.1314 C   0  0  0  0  0  0  0  0  0  0  0  0
   63.4057    8.6648    8.4971 N   0  0  0  0  0  0  0  0  0  0  0  0
   63.9670    6.5288    8.7630 C   0  0  0  0  0  0  0  0  0  0  0  0
   62.8947    6.8192    9.5551 C   0  0  0  0  0  0  0  0  0  0  0  0
   64.5146    5.2549    8.7332 C   0  0  0  0  0  0  0  0  0  0  0  0
   62.5537    8.1217    9.3901 C   0  0  0  0  0  0  0  0  0  0  0  0
   65.2103    7.9618    7.2413 O   0  0  0  0  0  0  0  0  0  0  0  0
   62.3266    5.8907   10.3680 C   0  0  0  0  0  0  0  0  0  0  0  0
   63.9366    4.2766    9.5741 C   0  0  0  0  0  0  0  0  0  0  0  0
   62.8425    4.5943   10.3744 C   0  0  0  0  0  0  0  0  0  0  0  0
   65.5857    4.7717    7.9326 C   0  0  0  0  0  0  0  0  0  0  0  0
   65.4536    3.7610    7.2171 O   0  0  0  0  0  0  0  0  0  0  0  0
   66.7346    5.4709    7.9101 N   0  0  0  0  0  0  0  0  0  0  0  0
   66.8361    6.2694    8.4769 H   0  0  0  0  0  0  0  0  0  0  0  0
   67.4741    5.1840    7.3269 H   0  0  0  0  0  0  0  0  0  0  0  0
   63.3907   10.1137    8.0092 C   0  0  0  0  0  0  0  0  0  0  0  0
   61.9791   10.6045    7.6156 C   0  0  0  0  0  0  0  0  0  0  0  0
   62.0024   11.3041    6.2820 C   0  0  0  0  0  0  0  0  0  0  0  0
   62.1894   12.7210    6.5106 O   0  0  0  0  0  0  0  0  0  0  0  0
   61.5087   13.1979    7.7010 C   0  0  0  0  0  0  0  0  0  0  0  0
  1  2  1  0  0  0
  1  3  1  0  0  0
  1  7  2  0  0  0
  2  6  1  0  0  0
  2 16  1  0  0  0
  3  4  2  0  0  0
  3  5  1  0  0  0
  4  6  1  0  0  0
  4  8  1  0  0  0
  5 11  1  0  0  0
  5  9  2  0  0  0
 11 12  2  0  0  0
 11 13  1  0  0  0
 16 17  1  0  0  0
  8 10  2  0  0  0
  9 10  1  0  0  0
 17 18  1  0  0  0
 19 18  1  0  0  0
 19 20  1  0  0  0
 13 14  1  0  0  0
 13 15  1  0  0  0
M  END
> <minimizedAffinity>
-8.51254

$$$$
4ZZZ_FSU_A_2019


 20 21  0  0  0  0  0  0  0  0999 V2000
   63.3685    6.9519    9.2781 C   0  0  0  0  0  0  0  0  0  0  0  0
   62.3357    6.9355   10.1219 N   0  0  0  0  0  0  0  0  0  0  0  0
   63.9162    5.7270    9.1268 C   0  0  0  0  0  0  0  0  0  0  0  0
   63.1605    4.9186    9.9250 C   0  0  0  0  0  0  0  0  0  0  0  0
   64.9707    5.2196    8.3824 C   0  0  0  0  0  0  0  0  0  0  0  0
   62.1969    5.6576   10.5295 C   0  0  0  0  0  0  0  0  0  0  0  0
   63.7366    8.1179    8.7193 O   0  0  0  0  0  0  0  0  0  0  0  0
   63.4138    3.5899   10.0510 C   0  0  0  0  0  0  0  0  0  0  0  0
   65.2491    3.8389    8.5027 C   0  0  0  0  0  0  0  0  0  0  0  0
   64.4651    3.0319    9.3229 C   0  0  0  0  0  0  0  0  0  0  0  0
   65.8164    5.9040    7.4669 C   0  0  0  0  0  0  0  0  0  0  0  0
   65.3508    6.4975    6.4760 O   0  0  0  0  0  0  0  0  0  0  0  0
   67.1347    5.9560    7.7288 N   0  0  0  0  0  0  0  0  0  0  0  0
   67.4997    5.4858    8.5129 H   0  0  0  0  0  0  0  0  0  0  0  0
   67.7345    6.4644    7.1363 H   0  0  0  0  0  0  0  0  0  0  0  0
   61.4612    8.1140   10.5505 C   0  0  0  0  0  0  0  0  0  0  0  0
   61.8407    8.6747   11.9398 C   0  0  0  0  0  0  0  0  0  0  0  0
   62.1353   10.1498   11.8652 C   0  0  0  0  0  0  0  0  0  0  0  0
   63.3930   10.3319   11.1725 O   0  0  0  0  0  0  0  0  0  0  0  0
   64.5359    9.8757   11.9430 C   0  0  0  0  0  0  0  0  0  0  0  0
  1  2  1  0  0  0
  1  3  1  0  0  0
  1  7  2  0  0  0
  2  6  1  0  0  0
  2 16  1  0  0  0
  3  4  2  0  0  0
  3  5  1  0  0  0
  4  6  1  0  0  0
  4  8  1  0  0  0
  5 11  1  0  0  0
  5  9  2  0  0  0
 11 12  2  0  0  0
 11 13  1  0  0  0
 16 17  1  0  0  0
  8 10  2  0  0  0
  9 10  1  0  0  0
 17 18  1  0  0  0
 19 18  1  0  0  0
 19 20  1  0  0  0
 13 14  1  0  0  0
 13 15  1  0  0  0
M  END
> <minimizedAffinity>
-8.02083

$$$$
4ZZZ_FSU_A_2019


 20 21  0  0  0  0  0  0  0  0999 V2000
   63.4883    7.7299    8.9620 C   0  0  0  0  0  0  0  0  0  0  0  0
   62.4547    8.0568    9.7390 N   0  0  0  0  0  0  0  0  0  0  0  0
   63.7772    6.4129    9.0342 C   0  0  0  0  0  0  0  0  0  0  0  0
   62.8539    5.9121    9.9051 C   0  0  0  0  0  0  0  0  0  0  0  0
   64.7225    5.5916    8.4380 C   0  0  0  0  0  0  0  0  0  0  0  0
   62.0481    6.9162   10.3323 C   0  0  0  0  0  0  0  0  0  0  0  0
   64.0998    8.6922    8.2499 O   0  0  0  0  0  0  0  0  0  0  0  0
   62.8270    4.5985   10.2505 C   0  0  0  0  0  0  0  0  0  0  0  0
   64.7097    4.2219    8.7872 C   0  0  0  0  0  0  0  0  0  0  0  0
   63.7586    3.7317    9.6780 C   0  0  0  0  0  0  0  0  0  0  0  0
   65.7112    5.9354    7.4757 C   0  0  0  0  0  0  0  0  0  0  0  0
   65.3969    6.3858    6.3580 O   0  0  0  0  0  0  0  0  0  0  0  0
   67.0066    5.8275    7.8217 N   0  0  0  0  0  0  0  0  0  0  0  0
   67.2519    5.4711    8.7060 H   0  0  0  0  0  0  0  0  0  0  0  0
   67.7094    6.1049    7.1906 H   0  0  0  0  0  0  0  0  0  0  0  0
   61.8300    9.4393    9.9294 C   0  0  0  0  0  0  0  0  0  0  0  0
   60.9492    9.8742    8.7363 C   0  0  0  0  0  0  0  0  0  0  0  0
   61.5368   11.0731    8.0394 C   0  0  0  0  0  0  0  0  0  0  0  0
   61.6090   10.7898    6.6218 O   0  0  0  0  0  0  0  0  0  0  0  0
   61.2552   11.9310    5.7970 C   0  0  0  0  0  0  0  0  0  0  0  0
  1  2  1  0  0  0
  1  3  1  0  0  0
  1  7  2  0  0  0
  2  6  1  0  0  0
  2 16  1  0  0  0
  3  4  2  0  0  0
  3  5  1  0  0  0
  4  6  1  0  0  0
  4  8  1  0  0  0
  5 11  1  0  0  0
  5  9  2  0  0  0
 11 12  2  0  0  0
 11 13  1  0  0  0
 16 17  1  0  0  0
  8 10  2  0  0  0
  9 10  1  0  0  0
 17 18  1  0  0  0
 19 18  1  0  0  0
 19 20  1  0  0  0
 13 14  1  0  0  0
 13 15  1  0  0  0
M  END
> <minimizedAffinity>
-7.99235

$$$$
4ZZZ_FSU_A_2019


 20 21  0  0  0  0  0  0  0  0999 V2000
   63.2742    7.1485    9.2449 C   0  0  0  0  0  0  0  0  0  0  0  0
   62.2228    7.2308   10.0614 N   0  0  0  0  0  0  0  0  0  0  0  0
   63.7479    5.8871    9.1577 C   0  0  0  0  0  0  0  0  0  0  0  0
   62.9249    5.1608    9.9680 C   0  0  0  0  0  0  0  0  0  0  0  0
   64.7860    5.2851    8.4622 C   0  0  0  0  0  0  0  0  0  0  0  0
   61.9952    5.9822   10.5167 C   0  0  0  0  0  0  0  0  0  0  0  0
   63.7272    8.2652    8.6490 O   0  0  0  0  0  0  0  0  0  0  0  0
   63.0918    3.8255   10.1543 C   0  0  0  0  0  0  0  0  0  0  0  0
   64.9749    3.8963    8.6455 C   0  0  0  0  0  0  0  0  0  0  0  0
   64.1232    3.1741    9.4770 C   0  0  0  0  0  0  0  0  0  0  0  0
   65.6939    5.8773    7.5420 C   0  0  0  0  0  0  0  0  0  0  0  0
   65.2888    6.4741    6.5268 O   0  0  0  0  0  0  0  0  0  0  0  0
   67.0084    5.8392    7.8247 N   0  0  0  0  0  0  0  0  0  0  0  0
   67.3256    5.3666    8.6280 H   0  0  0  0  0  0  0  0  0  0  0  0
   67.6533    6.2838    7.2283 H   0  0  0  0  0  0  0  0  0  0  0  0
   61.4135    8.4777   10.4190 C   0  0  0  0  0  0  0  0  0  0  0  0
   59.8884    8.2278   10.4237 C   0  0  0  0  0  0  0  0  0  0  0  0
   59.1586    9.3520   11.1107 C   0  0  0  0  0  0  0  0  0  0  0  0
   57.8317    8.8914   11.4601 O   0  0  0  0  0  0  0  0  0  0  0  0
   57.3157    9.5122   12.6668 C   0  0  0  0  0  0  0  0  0  0  0  0
  1  2  1  0  0  0
  1  3  1  0  0  0
  1  7  2  0  0  0
  2  6  1  0  0  0
  2 16  1  0  0  0
  3  4  2  0  0  0
  3  5  1  0  0  0
  4  6  1  0  0  0
  4  8  1  0  0  0
  5 11  1  0  0  0
  5  9  2  0  0  0
 11 12  2  0  0  0
 11 13  1  0  0  0
 16 17  1  0  0  0
  8 10  2  0  0  0
  9 10  1  0  0  0
 17 18  1  0  0  0
 19 18  1  0  0  0
 19 20  1  0  0  0
 13 14  1  0  0  0
 13 15  1  0  0  0
M  END
> <minimizedAffinity>
-7.93740

$$$$
4ZZZ_FSU_A_2019


 20 21  0  0  0  0  0  0  0  0999 V2000
   62.8117    5.0011   10.0711 C   0  0  0  0  0  0  0  0  0  0  0  0
   62.0168    5.8879   10.6716 N   0  0  0  0  0  0  0  0  0  0  0  0
   63.6479    5.5889    9.1889 C   0  0  0  0  0  0  0  0  0  0  0  0
   63.3427    6.9164    9.2678 C   0  0  0  0  0  0  0  0  0  0  0  0
   64.6431    5.1294    8.3392 C   0  0  0  0  0  0  0  0  0  0  0  0
   62.3489    7.0961   10.1734 C   0  0  0  0  0  0  0  0  0  0  0  0
   62.6878    3.6987   10.3805 O   0  0  0  0  0  0  0  0  0  0  0  0
   63.9749    7.8477    8.5071 C   0  0  0  0  0  0  0  0  0  0  0  0
   65.3103    6.0849    7.5392 C   0  0  0  0  0  0  0  0  0  0  0  0
   64.9833    7.4348    7.6356 C   0  0  0  0  0  0  0  0  0  0  0  0
   65.1216    3.8005    8.1756 C   0  0  0  0  0  0  0  0  0  0  0  0
   65.2876    3.3075    7.0441 O   0  0  0  0  0  0  0  0  0  0  0  0
   65.4586    3.1012    9.2741 N   0  0  0  0  0  0  0  0  0  0  0  0
   65.3261    3.4937   10.1673 H   0  0  0  0  0  0  0  0  0  0  0  0
   65.8376    2.1970    9.1850 H   0  0  0  0  0  0  0  0  0  0  0  0
   60.9424    5.6162   11.7250 C   0  0  0  0  0  0  0  0  0  0  0  0
   60.9348    6.6606   12.8641 C   0  0  0  0  0  0  0  0  0  0  0  0
   59.9305    6.2956   13.9254 C   0  0  0  0  0  0  0  0  0  0  0  0
   58.6280    6.7672   13.5059 O   0  0  0  0  0  0  0  0  0  0  0  0
   57.5861    5.7682   13.6619 C   0  0  0  0  0  0  0  0  0  0  0  0
  1  2  1  0  0  0
  1  3  1  0  0  0
  1  7  2  0  0  0
  2  6  1  0  0  0
  2 16  1  0  0  0
  3  4  2  0  0  0
  3  5  1  0  0  0
  4  6  1  0  0  0
  4  8  1  0  0  0
  5 11  1  0  0  0
  5  9  2  0  0  0
 11 12  2  0  0  0
 11 13  1  0  0  0
 16 17  1  0  0  0
  8 10  2  0  0  0
  9 10  1  0  0  0
 17 18  1  0  0  0
 19 18  1  0  0  0
 19 20  1  0  0  0
 13 14  1  0  0  0
 13 15  1  0  0  0
M  END
> <minimizedAffinity>
-7.90216

$$$$
4ZZZ_FSU_A_2019


 20 21  0  0  0  0  0  0  0  0999 V2000
   62.8677    6.5229    9.8459 C   0  0  0  0  0  0  0  0  0  0  0  0
   61.9319    6.0110   10.6467 N   0  0  0  0  0  0  0  0  0  0  0  0
   63.6925    5.5706    9.3603 C   0  0  0  0  0  0  0  0  0  0  0  0
   63.2193    4.4087    9.8969 C   0  0  0  0  0  0  0  0  0  0  0  0
   64.7869    5.5755    8.5084 C   0  0  0  0  0  0  0  0  0  0  0  0
   62.1451    4.6799   10.6797 C   0  0  0  0  0  0  0  0  0  0  0  0
   62.8934    7.8508    9.6375 O   0  0  0  0  0  0  0  0  0  0  0  0
   63.8046    3.2085    9.6471 C   0  0  0  0  0  0  0  0  0  0  0  0
   65.4092    4.3352    8.2387 C   0  0  0  0  0  0  0  0  0  0  0  0
   64.9098    3.1615    8.7967 C   0  0  0  0  0  0  0  0  0  0  0  0
   65.3700    6.6776    7.8249 C   0  0  0  0  0  0  0  0  0  0  0  0
   66.5861    6.7030    7.5578 O   0  0  0  0  0  0  0  0  0  0  0  0
   64.5652    7.6717    7.4087 N   0  0  0  0  0  0  0  0  0  0  0  0
   63.6042    7.6488    7.6214 H   0  0  0  0  0  0  0  0  0  0  0  0
   64.9371    8.4222    6.8914 H   0  0  0  0  0  0  0  0  0  0  0  0
   60.8219    6.7604   11.3842 C   0  0  0  0  0  0  0  0  0  0  0  0
   61.1131    6.9423   12.8910 C   0  0  0  0  0  0  0  0  0  0  0  0
   59.9301    6.5248   13.7244 C   0  0  0  0  0  0  0  0  0  0  0  0
   59.8681    5.0788   13.7407 O   0  0  0  0  0  0  0  0  0  0  0  0
   58.5803    4.5619   13.3137 C   0  0  0  0  0  0  0  0  0  0  0  0
  1  2  1  0  0  0
  1  3  1  0  0  0
  1  7  2  0  0  0
  2  6  1  0  0  0
  2 16  1  0  0  0
  3  4  2  0  0  0
  3  5  1  0  0  0
  4  6  1  0  0  0
  4  8  1  0  0  0
  5 11  1  0  0  0
  5  9  2  0  0  0
 11 12  2  0  0  0
 11 13  1  0  0  0
 16 17  1  0  0  0
  8 10  2  0  0  0
  9 10  1  0  0  0
 17 18  1  0  0  0
 19 18  1  0  0  0
 19 20  1  0  0  0
 13 14  1  0  0  0
 13 15  1  0  0  0
M  END
> <minimizedAffinity>
-7.89884

$$$$
4ZZZ_FSU_A_2019


 20 21  0  0  0  0  0  0  0  0999 V2000
   63.8867    7.4969    8.4616 C   0  0  0  0  0  0  0  0  0  0  0  0
   63.0169    8.3883    8.9388 N   0  0  0  0  0  0  0  0  0  0  0  0
   63.7179    6.2787    9.0189 C   0  0  0  0  0  0  0  0  0  0  0  0
   62.6745    6.4443    9.8823 C   0  0  0  0  0  0  0  0  0  0  0  0
   64.3380    5.0473    8.8684 C   0  0  0  0  0  0  0  0  0  0  0  0
   62.2482    7.7310    9.8306 C   0  0  0  0  0  0  0  0  0  0  0  0
   64.7897    7.8910    7.5469 O   0  0  0  0  0  0  0  0  0  0  0  0
   62.2074    5.4268   10.6519 C   0  0  0  0  0  0  0  0  0  0  0  0
   63.8655    3.9776    9.6627 C   0  0  0  0  0  0  0  0  0  0  0  0
   62.7992    4.1684   10.5374 C   0  0  0  0  0  0  0  0  0  0  0  0
   65.3912    4.6903    7.9823 C   0  0  0  0  0  0  0  0  0  0  0  0
   65.2509    3.7796    7.1446 O   0  0  0  0  0  0  0  0  0  0  0  0
   66.5300    5.4051    8.0201 N   0  0  0  0  0  0  0  0  0  0  0  0
   66.6379    6.1245    8.6836 H   0  0  0  0  0  0  0  0  0  0  0  0
   67.2556    5.2090    7.3843 H   0  0  0  0  0  0  0  0  0  0  0  0
   62.8894    9.8641    8.5601 C   0  0  0  0  0  0  0  0  0  0  0  0
   63.3420   10.8190    9.6878 C   0  0  0  0  0  0  0  0  0  0  0  0
   62.1672   11.5541   10.2775 C   0  0  0  0  0  0  0  0  0  0  0  0
   62.5636   12.9225   10.5327 O   0  0  0  0  0  0  0  0  0  0  0  0
   63.4133   13.0579   11.7022 C   0  0  0  0  0  0  0  0  0  0  0  0
  1  2  1  0  0  0
  1  3  1  0  0  0
  1  7  2  0  0  0
  2  6  1  0  0  0
  2 16  1  0  0  0
  3  4  2  0  0  0
  3  5  1  0  0  0
  4  6  1  0  0  0
  4  8  1  0  0  0
  5 11  1  0  0  0
  5  9  2  0  0  0
 11 12  2  0  0  0
 11 13  1  0  0  0
 16 17  1  0  0  0
  8 10  2  0  0  0
  9 10  1  0  0  0
 17 18  1  0  0  0
 19 18  1  0  0  0
 19 20  1  0  0  0
 13 14  1  0  0  0
 13 15  1  0  0  0
M  END
> <minimizedAffinity>
-7.78477

$$$$
4ZZZ_FSU_A_2019


 20 21  0  0  0  0  0  0  0  0999 V2000
   63.1386    4.6088    9.8967 C   0  0  0  0  0  0  0  0  0  0  0  0
   62.1163    4.9255   10.6927 N   0  0  0  0  0  0  0  0  0  0  0  0
   63.6093    5.6833    9.2280 C   0  0  0  0  0  0  0  0  0  0  0  0
   62.8253    6.7157    9.6537 C   0  0  0  0  0  0  0  0  0  0  0  0
   64.6311    5.8867    8.3126 C   0  0  0  0  0  0  0  0  0  0  0  0
   61.9168    6.2512   10.5475 C   0  0  0  0  0  0  0  0  0  0  0  0
   63.5503    3.3303    9.8402 O   0  0  0  0  0  0  0  0  0  0  0  0
   62.9864    7.9821    9.1892 C   0  0  0  0  0  0  0  0  0  0  0  0
   64.8120    7.1984    7.8177 C   0  0  0  0  0  0  0  0  0  0  0  0
   64.0007    8.2375    8.2656 C   0  0  0  0  0  0  0  0  0  0  0  0
   65.5681    4.9429    7.8096 C   0  0  0  0  0  0  0  0  0  0  0  0
   66.7947    5.1256    7.9234 O   0  0  0  0  0  0  0  0  0  0  0  0
   65.1014    3.8061    7.2626 N   0  0  0  0  0  0  0  0  0  0  0  0
   64.1312    3.6646    7.1740 H   0  0  0  0  0  0  0  0  0  0  0  0
   65.7301    3.1155    6.9509 H   0  0  0  0  0  0  0  0  0  0  0  0
   61.3192    3.9928   11.6050 C   0  0  0  0  0  0  0  0  0  0  0  0
   59.9840    4.6085   12.0809 C   0  0  0  0  0  0  0  0  0  0  0  0
   59.9716    4.7820   13.5770 C   0  0  0  0  0  0  0  0  0  0  0  0
   58.9744    5.7749   13.9153 O   0  0  0  0  0  0  0  0  0  0  0  0
   57.6331    5.3912   13.5133 C   0  0  0  0  0  0  0  0  0  0  0  0
  1  2  1  0  0  0
  1  3  1  0  0  0
  1  7  2  0  0  0
  2  6  1  0  0  0
  2 16  1  0  0  0
  3  4  2  0  0  0
  3  5  1  0  0  0
  4  6  1  0  0  0
  4  8  1  0  0  0
  5 11  1  0  0  0
  5  9  2  0  0  0
 11 12  2  0  0  0
 11 13  1  0  0  0
 16 17  1  0  0  0
  8 10  2  0  0  0
  9 10  1  0  0  0
 17 18  1  0  0  0
 19 18  1  0  0  0
 19 20  1  0  0  0
 13 14  1  0  0  0
 13 15  1  0  0  0
M  END
> <minimizedAffinity>
-7.77357

$$$$
4ZZZ_FSU_A_2019


 20 21  0  0  0  0  0  0  0  0999 V2000
   62.5382    6.5415    9.8311 C   0  0  0  0  0  0  0  0  0  0  0  0
   63.1634    7.6206    9.3583 N   0  0  0  0  0  0  0  0  0  0  0  0
   63.2714    5.4199    9.6647 C   0  0  0  0  0  0  0  0  0  0  0  0
   64.4154    5.8515    9.0591 C   0  0  0  0  0  0  0  0  0  0  0  0
   63.0848    4.0819    9.9784 C   0  0  0  0  0  0  0  0  0  0  0  0
   64.3476    7.1937    8.8747 C   0  0  0  0  0  0  0  0  0  0  0  0
   61.3156    6.6802   10.3727 O   0  0  0  0  0  0  0  0  0  0  0  0
   65.4135    4.9976    8.7122 C   0  0  0  0  0  0  0  0  0  0  0  0
   64.1130    3.1791    9.6231 C   0  0  0  0  0  0  0  0  0  0  0  0
   65.2725    3.6408    9.0059 C   0  0  0  0  0  0  0  0  0  0  0  0
   61.9889    3.4764   10.6523 C   0  0  0  0  0  0  0  0  0  0  0  0
   61.7060    3.7773   11.8272 O   0  0  0  0  0  0  0  0  0  0  0  0
   61.2149    2.6136    9.9699 N   0  0  0  0  0  0  0  0  0  0  0  0
   61.4412    2.3777    9.0413 H   0  0  0  0  0  0  0  0  0  0  0  0
   60.4221    2.2180   10.3991 H   0  0  0  0  0  0  0  0  0  0  0  0
   62.6637    9.0655    9.3608 C   0  0  0  0  0  0  0  0  0  0  0  0
   62.8821    9.7831    8.0096 C   0  0  0  0  0  0  0  0  0  0  0  0
   63.2731   11.2224    8.2190 C   0  0  0  0  0  0  0  0  0  0  0  0
   63.0807   11.9356    6.9743 O   0  0  0  0  0  0  0  0  0  0  0  0
   61.8569   11.5603    6.2892 C   0  0  0  0  0  0  0  0  0  0  0  0
  1  2  1  0  0  0
  1  3  1  0  0  0
  1  7  2  0  0  0
  2  6  1  0  0  0
  2 16  1  0  0  0
  3  4  2  0  0  0
  3  5  1  0  0  0
  4  6  1  0  0  0
  4  8  1  0  0  0
  5 11  1  0  0  0
  5  9  2  0  0  0
 11 12  2  0  0  0
 11 13  1  0  0  0
 16 17  1  0  0  0
  8 10  2  0  0  0
  9 10  1  0  0  0
 17 18  1  0  0  0
 19 18  1  0  0  0
 19 20  1  0  0  0
 13 14  1  0  0  0
 13 15  1  0  0  0
M  END
> <minimizedAffinity>
-7.61409

$$$$
4ZZZ_FSU_A_2019


 20 21  0  0  0  0  0  0  0  0999 V2000
   62.5100    6.9035    9.7362 C   0  0  0  0  0  0  0  0  0  0  0  0
   62.4349    8.1851    9.3744 N   0  0  0  0  0  0  0  0  0  0  0  0
   63.5659    6.2805    9.1704 C   0  0  0  0  0  0  0  0  0  0  0  0
   64.1705    7.2505    8.4253 C   0  0  0  0  0  0  0  0  0  0  0  0
   64.0776    4.9925    9.2252 C   0  0  0  0  0  0  0  0  0  0  0  0
   63.4797    8.4110    8.5524 C   0  0  0  0  0  0  0  0  0  0  0  0
   61.5740    6.4019   10.5605 O   0  0  0  0  0  0  0  0  0  0  0  0
   65.2820    7.0025    7.6846 C   0  0  0  0  0  0  0  0  0  0  0  0
   65.2332    4.7166    8.4592 C   0  0  0  0  0  0  0  0  0  0  0  0
   65.8344    5.7214    7.7059 C   0  0  0  0  0  0  0  0  0  0  0  0
   63.6094    3.8871    9.9871 C   0  0  0  0  0  0  0  0  0  0  0  0
   64.3520    3.2966   10.7938 O   0  0  0  0  0  0  0  0  0  0  0  0
   62.3182    3.5288    9.8693 N   0  0  0  0  0  0  0  0  0  0  0  0
   61.7336    3.9976    9.2307 H   0  0  0  0  0  0  0  0  0  0  0  0
   61.9578    2.7979   10.4216 H   0  0  0  0  0  0  0  0  0  0  0  0
   61.3889    9.2158    9.8000 C   0  0  0  0  0  0  0  0  0  0  0  0
   61.2997   10.4202    8.8357 C   0  0  0  0  0  0  0  0  0  0  0  0
   60.3227   11.4479    9.3434 C   0  0  0  0  0  0  0  0  0  0  0  0
   60.1730   12.4757    8.3353 O   0  0  0  0  0  0  0  0  0  0  0  0
   61.4286   12.8348    7.7010 C   0  0  0  0  0  0  0  0  0  0  0  0
  1  2  1  0  0  0
  1  3  1  0  0  0
  1  7  2  0  0  0
  2  6  1  0  0  0
  2 16  1  0  0  0
  3  4  2  0  0  0
  3  5  1  0  0  0
  4  6  1  0  0  0
  4  8  1  0  0  0
  5 11  1  0  0  0
  5  9  2  0  0  0
 11 12  2  0  0  0
 11 13  1  0  0  0
 16 17  1  0  0  0
  8 10  2  0  0  0
  9 10  1  0  0  0
 17 18  1  0  0  0
 19 18  1  0  0  0
 19 20  1  0  0  0
 13 14  1  0  0  0
 13 15  1  0  0  0
M  END
> <minimizedAffinity>
-7.55301

$$$$
