1OLS_TDP_A_601


 30 31  0  0  0  0  0  0  0  0999 V2000
   75.2554    2.1901    7.0317 N   0  0  0  0  0  0  0  0  0  0  0  0
   75.1127    3.5360    6.6581 C   0  0  0  0  0  0  0  0  0  0  0  0
   73.4366    3.8613    6.2848 S   0  0  0  0  0  0  0  0  0  0  0  0
   72.9749    2.1959    6.6302 C   0  0  0  0  0  0  0  0  0  0  0  0
   73.9982    1.3876    7.0112 C   0  0  0  0  0  0  0  0  0  0  0  0
   73.9325   -0.1050    7.3721 C   0  0  0  0  0  0  0  0  0  0  0  0
   76.5584    1.6287    7.4289 C   0  0  0  0  0  0  0  0  0  0  0  0
   76.7728    0.7703   11.1504 N   0  0  0  0  0  0  0  0  0  0  0  0
   77.1394    1.9573   11.6895 C   0  0  0  0  0  0  0  0  0  0  0  0
   77.3262    1.9895   13.1971 C   0  0  0  0  0  0  0  0  0  0  0  0
   77.3331    3.0775   10.9463 N   0  0  0  0  0  0  0  0  0  0  0  0
   77.1463    2.9664    9.6062 C   0  0  0  0  0  0  0  0  0  0  0  0
   77.3522    4.1198    8.9062 N   0  0  0  0  0  0  0  0  0  0  0  0
   76.7615    1.7365    8.9425 C   0  0  0  0  0  0  0  0  0  0  0  0
   76.5868    0.6505    9.8229 C   0  0  0  0  0  0  0  0  0  0  0  0
   77.6130    4.9428    9.3792 H   0  0  0  0  0  0  0  0  0  0  0  0
   77.2399    4.1287    7.9281 H   0  0  0  0  0  0  0  0  0  0  0  0
   71.4929    1.9031    6.4671 C   0  0  0  0  0  0  0  0  0  0  0  0
   70.6769    3.2391    6.3182 C   0  0  0  0  0  0  0  0  0  0  0  0
   69.2860    2.9349    6.5217 O   0  0  0  0  0  0  0  0  0  0  0  0
   68.4378    3.8281    7.4819 P   0  0  0  0  0  0  0  0  0  0  0  0
   69.1373    4.0651    8.7480 O   0  0  0  0  0  0  0  0  0  0  0  0
   67.1068    3.1495    7.6971 O   0  0  0  0  0  0  0  0  0  0  0  0
   66.6734    3.0089    6.8408 H   0  0  0  0  0  0  0  0  0  0  0  0
   68.2030    5.2103    6.7306 O   0  0  0  0  0  0  0  0  0  0  0  0
   67.9784    5.5556    5.1721 P   0  0  0  0  0  0  0  0  0  0  0  0
   66.8401    6.5980    5.1693 O   0  0  0  0  0  0  0  0  0  0  0  0
   69.2559    6.1523    4.7322 O   0  0  0  0  0  0  0  0  0  0  0  0
   67.6229    4.3282    4.4199 O   0  0  0  0  0  0  0  0  0  0  0  0
   66.7791    3.9805    4.7487 H   0  0  0  0  0  0  0  0  0  0  0  0
  8  9  2  0  0  0
  8 15  1  0  0  0
  9 10  1  0  0  0
  9 11  1  0  0  0
 11 12  2  0  0  0
 12 13  1  0  0  0
 12 14  1  0  0  0
 14 15  2  0  0  0
 14  7  1  0  0  0
  7  1  1  0  0  0
  1  2  2  0  0  0
  1  5  1  0  0  0
  2  3  1  0  0  0
  3  4  1  0  0  0
  4  5  2  0  0  0
  4 18  1  0  0  0
  5  6  1  0  0  0
 18 19  1  0  0  0
 19 20  1  0  0  0
 20 21  1  0  0  0
 21 25  1  0  0  0
 21 22  2  0  0  0
 21 23  1  0  0  0
 25 26  1  0  0  0
 26 27  2  0  0  0
 26 28  1  0  0  0
 26 29  1  0  0  0
 13 16  1  0  0  0
 13 17  1  0  0  0
 23 24  1  0  0  0
 29 30  1  0  0  0
M  CHG 1   1   1
M  CHG 1  28  -1
M  END
> <minimizedAffinity>
-10.41540

$$$$
1OLS_TDP_A_601


 30 31  0  0  0  0  0  0  0  0999 V2000
   75.4794    2.5252    7.0071 N   0  0  0  0  0  0  0  0  0  0  0  0
   75.3203    3.8859    6.6996 C   0  0  0  0  0  0  0  0  0  0  0  0
   73.6489    4.1995    6.2965 S   0  0  0  0  0  0  0  0  0  0  0  0
   73.2111    2.5101    6.5423 C   0  0  0  0  0  0  0  0  0  0  0  0
   74.2394    1.7020    6.9098 C   0  0  0  0  0  0  0  0  0  0  0  0
   74.1936    0.1916    7.1911 C   0  0  0  0  0  0  0  0  0  0  0  0
   76.7821    1.9679    7.4113 C   0  0  0  0  0  0  0  0  0  0  0  0
   77.2027    3.0990   11.0412 N   0  0  0  0  0  0  0  0  0  0  0  0
   77.1769    1.9192   11.7055 C   0  0  0  0  0  0  0  0  0  0  0  0
   77.3195    1.9877   13.2167 C   0  0  0  0  0  0  0  0  0  0  0  0
   77.0362    0.7221   11.0794 N   0  0  0  0  0  0  0  0  0  0  0  0
   76.9145    0.7457    9.7274 C   0  0  0  0  0  0  0  0  0  0  0  0
   76.7770   -0.4821    9.1477 N   0  0  0  0  0  0  0  0  0  0  0  0
   76.9239    1.9600    8.9357 C   0  0  0  0  0  0  0  0  0  0  0  0
   77.0814    3.1321    9.7012 C   0  0  0  0  0  0  0  0  0  0  0  0
   76.7736   -1.2927    9.7064 H   0  0  0  0  0  0  0  0  0  0  0  0
   76.6813   -0.5573    8.1707 H   0  0  0  0  0  0  0  0  0  0  0  0
   71.7402    2.1990    6.3226 C   0  0  0  0  0  0  0  0  0  0  0  0
   70.8473    2.9874    7.3494 C   0  0  0  0  0  0  0  0  0  0  0  0
   69.5076    3.0343    6.8285 O   0  0  0  0  0  0  0  0  0  0  0  0
   68.4406    3.9298    7.5351 P   0  0  0  0  0  0  0  0  0  0  0  0
   68.9350    4.4382    8.8178 O   0  0  0  0  0  0  0  0  0  0  0  0
   67.1833    3.1122    7.7050 O   0  0  0  0  0  0  0  0  0  0  0  0
   66.8856    2.7931    6.8387 H   0  0  0  0  0  0  0  0  0  0  0  0
   68.1434    5.1456    6.5536 O   0  0  0  0  0  0  0  0  0  0  0  0
   68.1945    5.2596    4.9464 P   0  0  0  0  0  0  0  0  0  0  0  0
   67.4380    6.5671    4.6294 O   0  0  0  0  0  0  0  0  0  0  0  0
   69.6312    5.3772    4.6242 O   0  0  0  0  0  0  0  0  0  0  0  0
   67.5569    4.0731    4.3266 O   0  0  0  0  0  0  0  0  0  0  0  0
   66.6184    4.0459    4.5704 H   0  0  0  0  0  0  0  0  0  0  0  0
  8  9  2  0  0  0
  8 15  1  0  0  0
  9 10  1  0  0  0
  9 11  1  0  0  0
 11 12  2  0  0  0
 12 13  1  0  0  0
 12 14  1  0  0  0
 14 15  2  0  0  0
 14  7  1  0  0  0
  7  1  1  0  0  0
  1  2  2  0  0  0
  1  5  1  0  0  0
  2  3  1  0  0  0
  3  4  1  0  0  0
  4  5  2  0  0  0
  4 18  1  0  0  0
  5  6  1  0  0  0
 18 19  1  0  0  0
 19 20  1  0  0  0
 20 21  1  0  0  0
 21 25  1  0  0  0
 21 22  2  0  0  0
 21 23  1  0  0  0
 25 26  1  0  0  0
 26 27  2  0  0  0
 26 28  1  0  0  0
 26 29  1  0  0  0
 13 16  1  0  0  0
 13 17  1  0  0  0
 23 24  1  0  0  0
 29 30  1  0  0  0
M  CHG 1   1   1
M  CHG 1  28  -1
M  END
> <minimizedAffinity>
-10.26088

$$$$
1OLS_TDP_A_601


 30 31  0  0  0  0  0  0  0  0999 V2000
   75.3235    1.6056    7.2583 N   0  0  0  0  0  0  0  0  0  0  0  0
   75.0039    0.2963    7.6521 C   0  0  0  0  0  0  0  0  0  0  0  0
   73.3038    0.0036    7.3726 S   0  0  0  0  0  0  0  0  0  0  0  0
   73.0656    1.6335    6.7459 C   0  0  0  0  0  0  0  0  0  0  0  0
   74.1825    2.4066    6.7280 C   0  0  0  0  0  0  0  0  0  0  0  0
   74.3099    3.8631    6.2538 C   0  0  0  0  0  0  0  0  0  0  0  0
   76.6966    2.1314    7.3532 C   0  0  0  0  0  0  0  0  0  0  0  0
   77.6207    1.9858    3.6441 N   0  0  0  0  0  0  0  0  0  0  0  0
   78.2318    3.1806    3.4621 C   0  0  0  0  0  0  0  0  0  0  0  0
   78.7423    3.4757    2.0617 C   0  0  0  0  0  0  0  0  0  0  0  0
   78.3970    4.0854    4.4615 N   0  0  0  0  0  0  0  0  0  0  0  0
   77.9129    3.7469    5.6838 C   0  0  0  0  0  0  0  0  0  0  0  0
   78.1054    4.6891    6.6523 N   0  0  0  0  0  0  0  0  0  0  0  0
   77.2394    2.4952    5.9687 C   0  0  0  0  0  0  0  0  0  0  0  0
   77.1365    1.6424    4.8519 C   0  0  0  0  0  0  0  0  0  0  0  0
   78.5657    5.5317    6.4347 H   0  0  0  0  0  0  0  0  0  0  0  0
   77.7841    4.5261    7.5685 H   0  0  0  0  0  0  0  0  0  0  0  0
   71.6456    1.9388    6.2997 C   0  0  0  0  0  0  0  0  0  0  0  0
   70.8950    2.7940    7.3851 C   0  0  0  0  0  0  0  0  0  0  0  0
   69.4921    2.7810    7.0686 O   0  0  0  0  0  0  0  0  0  0  0  0
   68.5634    3.8926    7.6530 P   0  0  0  0  0  0  0  0  0  0  0  0
   69.0264    4.3371    8.9706 O   0  0  0  0  0  0  0  0  0  0  0  0
   67.1581    3.3448    7.7098 O   0  0  0  0  0  0  0  0  0  0  0  0
   66.8855    3.0612    6.8231 H   0  0  0  0  0  0  0  0  0  0  0  0
   68.6080    5.1089    6.6290 O   0  0  0  0  0  0  0  0  0  0  0  0
   68.3849    5.1726    5.0338 P   0  0  0  0  0  0  0  0  0  0  0  0
   67.5083    6.4244    4.8177 O   0  0  0  0  0  0  0  0  0  0  0  0
   69.7385    5.3599    4.4729 O   0  0  0  0  0  0  0  0  0  0  0  0
   67.7268    3.9323    4.5571 O   0  0  0  0  0  0  0  0  0  0  0  0
   66.8452    3.8606    4.9552 H   0  0  0  0  0  0  0  0  0  0  0  0
  8  9  2  0  0  0
  8 15  1  0  0  0
  9 10  1  0  0  0
  9 11  1  0  0  0
 11 12  2  0  0  0
 12 13  1  0  0  0
 12 14  1  0  0  0
 14 15  2  0  0  0
 14  7  1  0  0  0
  7  1  1  0  0  0
  1  2  2  0  0  0
  1  5  1  0  0  0
  2  3  1  0  0  0
  3  4  1  0  0  0
  4  5  2  0  0  0
  4 18  1  0  0  0
  5  6  1  0  0  0
 18 19  1  0  0  0
 19 20  1  0  0  0
 20 21  1  0  0  0
 21 25  1  0  0  0
 21 22  2  0  0  0
 21 23  1  0  0  0
 25 26  1  0  0  0
 26 27  2  0  0  0
 26 28  1  0  0  0
 26 29  1  0  0  0
 13 16  1  0  0  0
 13 17  1  0  0  0
 23 24  1  0  0  0
 29 30  1  0  0  0
M  CHG 1   1   1
M  CHG 1  28  -1
M  END
> <minimizedAffinity>
-9.65873

$$$$
1OLS_TDP_A_601


 30 31  0  0  0  0  0  0  0  0999 V2000
   74.7747    1.2701    7.1965 N   0  0  0  0  0  0  0  0  0  0  0  0
   74.1639    0.0229    7.4037 C   0  0  0  0  0  0  0  0  0  0  0  0
   72.4614    0.1393    7.0264 S   0  0  0  0  0  0  0  0  0  0  0  0
   72.6098    1.8454    6.6102 C   0  0  0  0  0  0  0  0  0  0  0  0
   73.8626    2.3560    6.7343 C   0  0  0  0  0  0  0  0  0  0  0  0
   74.3216    3.7969    6.4597 C   0  0  0  0  0  0  0  0  0  0  0  0
   76.2186    1.4722    7.4093 C   0  0  0  0  0  0  0  0  0  0  0  0
   76.6825    0.7946   11.1453 N   0  0  0  0  0  0  0  0  0  0  0  0
   77.1110    1.9978   11.5957 C   0  0  0  0  0  0  0  0  0  0  0  0
   77.4064    2.1002   13.0826 C   0  0  0  0  0  0  0  0  0  0  0  0
   77.2735    3.0748   10.7842 N   0  0  0  0  0  0  0  0  0  0  0  0
   76.9885    2.9019    9.4682 C   0  0  0  0  0  0  0  0  0  0  0  0
   77.1669    4.0138    8.6972 N   0  0  0  0  0  0  0  0  0  0  0  0
   76.5322    1.6501    8.8972 C   0  0  0  0  0  0  0  0  0  0  0  0
   76.3991    0.6136    9.8421 C   0  0  0  0  0  0  0  0  0  0  0  0
   77.4778    4.8529    9.1078 H   0  0  0  0  0  0  0  0  0  0  0  0
   76.9848    3.9769    7.7304 H   0  0  0  0  0  0  0  0  0  0  0  0
   71.3164    2.5010    6.1563 C   0  0  0  0  0  0  0  0  0  0  0  0
   70.4706    2.9748    7.3944 C   0  0  0  0  0  0  0  0  0  0  0  0
   70.9918    4.2429    7.8291 O   0  0  0  0  0  0  0  0  0  0  0  0
   70.1360    5.5339    7.6275 P   0  0  0  0  0  0  0  0  0  0  0  0
   70.9033    6.5826    6.9493 O   0  0  0  0  0  0  0  0  0  0  0  0
   69.6470    5.9863    8.9819 O   0  0  0  0  0  0  0  0  0  0  0  0
   69.1451    5.2695    9.4004 H   0  0  0  0  0  0  0  0  0  0  0  0
   68.8873    5.1185    6.7342 O   0  0  0  0  0  0  0  0  0  0  0  0
   68.6536    5.1553    5.1397 P   0  0  0  0  0  0  0  0  0  0  0  0
   67.9952    3.7974    4.8160 O   0  0  0  0  0  0  0  0  0  0  0  0
   67.7138    6.2743    4.9241 O   0  0  0  0  0  0  0  0  0  0  0  0
   69.9452    5.3396    4.4352 O   0  0  0  0  0  0  0  0  0  0  0  0
   70.5208    4.5789    4.6110 H   0  0  0  0  0  0  0  0  0  0  0  0
  8  9  2  0  0  0
  8 15  1  0  0  0
  9 10  1  0  0  0
  9 11  1  0  0  0
 11 12  2  0  0  0
 12 13  1  0  0  0
 12 14  1  0  0  0
 14 15  2  0  0  0
 14  7  1  0  0  0
  7  1  1  0  0  0
  1  2  2  0  0  0
  1  5  1  0  0  0
  2  3  1  0  0  0
  3  4  1  0  0  0
  4  5  2  0  0  0
  4 18  1  0  0  0
  5  6  1  0  0  0
 18 19  1  0  0  0
 19 20  1  0  0  0
 20 21  1  0  0  0
 21 25  1  0  0  0
 21 22  2  0  0  0
 21 23  1  0  0  0
 25 26  1  0  0  0
 26 27  2  0  0  0
 26 28  1  0  0  0
 26 29  1  0  0  0
 13 16  1  0  0  0
 13 17  1  0  0  0
 23 24  1  0  0  0
 29 30  1  0  0  0
M  CHG 1   1   1
M  CHG 1  28  -1
M  END
> <minimizedAffinity>
-9.26647

$$$$
1OLS_TDP_A_601


 30 31  0  0  0  0  0  0  0  0999 V2000
   75.2028    2.7244    6.6946 N   0  0  0  0  0  0  0  0  0  0  0  0
   74.8064    4.0379    6.3964 C   0  0  0  0  0  0  0  0  0  0  0  0
   73.0627    4.1129    6.3064 S   0  0  0  0  0  0  0  0  0  0  0  0
   72.9113    2.3932    6.6616 C   0  0  0  0  0  0  0  0  0  0  0  0
   74.0898    1.7431    6.8460 C   0  0  0  0  0  0  0  0  0  0  0  0
   74.3023    0.2534    7.1596 C   0  0  0  0  0  0  0  0  0  0  0  0
   76.6209    2.3600    6.8592 C   0  0  0  0  0  0  0  0  0  0  0  0
   77.9861    1.0723    3.5261 N   0  0  0  0  0  0  0  0  0  0  0  0
   78.6135    2.1694    3.0394 C   0  0  0  0  0  0  0  0  0  0  0  0
   79.2891    2.0210    1.6865 C   0  0  0  0  0  0  0  0  0  0  0  0
   78.6560    3.3522    3.7057 N   0  0  0  0  0  0  0  0  0  0  0  0
   78.0282    3.4036    4.9083 C   0  0  0  0  0  0  0  0  0  0  0  0
   78.1015    4.6130    5.5365 N   0  0  0  0  0  0  0  0  0  0  0  0
   77.3265    2.2831    5.5028 C   0  0  0  0  0  0  0  0  0  0  0  0
   77.3600    1.1144    4.7166 C   0  0  0  0  0  0  0  0  0  0  0  0
   78.5838    5.3593    5.1127 H   0  0  0  0  0  0  0  0  0  0  0  0
   77.6721    4.7390    6.4134 H   0  0  0  0  0  0  0  0  0  0  0  0
   71.4814    1.8837    6.7262 C   0  0  0  0  0  0  0  0  0  0  0  0
   70.5781    2.8700    7.5534 C   0  0  0  0  0  0  0  0  0  0  0  0
   69.5810    3.4079    6.6674 O   0  0  0  0  0  0  0  0  0  0  0  0
   68.2194    3.9003    7.2531 P   0  0  0  0  0  0  0  0  0  0  0  0
   68.4094    4.6123    8.5201 O   0  0  0  0  0  0  0  0  0  0  0  0
   67.3196    2.6994    7.4162 O   0  0  0  0  0  0  0  0  0  0  0  0
   67.2167    2.2540    6.5607 H   0  0  0  0  0  0  0  0  0  0  0  0
   67.5872    4.8828    6.1739 O   0  0  0  0  0  0  0  0  0  0  0  0
   68.1983    5.5316    4.8306 P   0  0  0  0  0  0  0  0  0  0  0  0
   68.1081    4.4021    3.7826 O   0  0  0  0  0  0  0  0  0  0  0  0
   67.2845    6.6447    4.5024 O   0  0  0  0  0  0  0  0  0  0  0  0
   69.5934    5.9766    5.0635 O   0  0  0  0  0  0  0  0  0  0  0  0
   70.1469    5.2084    5.2741 H   0  0  0  0  0  0  0  0  0  0  0  0
  8  9  2  0  0  0
  8 15  1  0  0  0
  9 10  1  0  0  0
  9 11  1  0  0  0
 11 12  2  0  0  0
 12 13  1  0  0  0
 12 14  1  0  0  0
 14 15  2  0  0  0
 14  7  1  0  0  0
  7  1  1  0  0  0
  1  2  2  0  0  0
  1  5  1  0  0  0
  2  3  1  0  0  0
  3  4  1  0  0  0
  4  5  2  0  0  0
  4 18  1  0  0  0
  5  6  1  0  0  0
 18 19  1  0  0  0
 19 20  1  0  0  0
 20 21  1  0  0  0
 21 25  1  0  0  0
 21 22  2  0  0  0
 21 23  1  0  0  0
 25 26  1  0  0  0
 26 27  2  0  0  0
 26 28  1  0  0  0
 26 29  1  0  0  0
 13 16  1  0  0  0
 13 17  1  0  0  0
 23 24  1  0  0  0
 29 30  1  0  0  0
M  CHG 1   1   1
M  CHG 1  28  -1
M  END
> <minimizedAffinity>
-8.54594

$$$$
1OLS_TDP_A_601


 30 31  0  0  0  0  0  0  0  0999 V2000
   75.2445    2.1919    6.9844 N   0  0  0  0  0  0  0  0  0  0  0  0
   75.1462    3.5361    6.5907 C   0  0  0  0  0  0  0  0  0  0  0  0
   73.4807    3.9128    6.2186 S   0  0  0  0  0  0  0  0  0  0  0  0
   72.9639    2.2696    6.5912 C   0  0  0  0  0  0  0  0  0  0  0  0
   73.9606    1.4327    6.9808 C   0  0  0  0  0  0  0  0  0  0  0  0
   73.8455   -0.0511    7.3648 C   0  0  0  0  0  0  0  0  0  0  0  0
   76.5293    1.5924    7.3854 C   0  0  0  0  0  0  0  0  0  0  0  0
   76.7522    0.7446   11.1088 N   0  0  0  0  0  0  0  0  0  0  0  0
   77.1210    1.9329   11.6436 C   0  0  0  0  0  0  0  0  0  0  0  0
   77.3116    1.9693   13.1506 C   0  0  0  0  0  0  0  0  0  0  0  0
   77.3137    3.0509   10.8967 N   0  0  0  0  0  0  0  0  0  0  0  0
   77.1235    2.9360    9.5574 C   0  0  0  0  0  0  0  0  0  0  0  0
   77.3285    4.0872    8.8535 N   0  0  0  0  0  0  0  0  0  0  0  0
   76.7362    1.7044    8.8982 C   0  0  0  0  0  0  0  0  0  0  0  0
   76.5629    0.6211    9.7821 C   0  0  0  0  0  0  0  0  0  0  0  0
   77.5911    4.9114    9.3235 H   0  0  0  0  0  0  0  0  0  0  0  0
   77.2137    4.0934    7.8757 H   0  0  0  0  0  0  0  0  0  0  0  0
   71.4721    2.0252    6.4380 C   0  0  0  0  0  0  0  0  0  0  0  0
   70.6540    3.2913    6.8858 C   0  0  0  0  0  0  0  0  0  0  0  0
   70.4533    4.1222    5.7292 O   0  0  0  0  0  0  0  0  0  0  0  0
   69.6802    5.4712    5.8784 P   0  0  0  0  0  0  0  0  0  0  0  0
   68.7334    5.4232    6.9962 O   0  0  0  0  0  0  0  0  0  0  0  0
   68.9857    5.7586    4.5695 O   0  0  0  0  0  0  0  0  0  0  0  0
   69.6407    5.7829    3.8544 H   0  0  0  0  0  0  0  0  0  0  0  0
   70.7726    6.5956    6.1470 O   0  0  0  0  0  0  0  0  0  0  0  0
   71.1989    7.3725    7.4936 P   0  0  0  0  0  0  0  0  0  0  0  0
   70.3471    6.7173    8.6015 O   0  0  0  0  0  0  0  0  0  0  0  0
   72.6336    7.0660    7.6653 O   0  0  0  0  0  0  0  0  0  0  0  0
   70.9289    8.8240    7.3567 O   0  0  0  0  0  0  0  0  0  0  0  0
   69.9757    8.9667    7.2472 H   0  0  0  0  0  0  0  0  0  0  0  0
  8  9  2  0  0  0
  8 15  1  0  0  0
  9 10  1  0  0  0
  9 11  1  0  0  0
 11 12  2  0  0  0
 12 13  1  0  0  0
 12 14  1  0  0  0
 14 15  2  0  0  0
 14  7  1  0  0  0
  7  1  1  0  0  0
  1  2  2  0  0  0
  1  5  1  0  0  0
  2  3  1  0  0  0
  3  4  1  0  0  0
  4  5  2  0  0  0
  4 18  1  0  0  0
  5  6  1  0  0  0
 18 19  1  0  0  0
 19 20  1  0  0  0
 20 21  1  0  0  0
 21 25  1  0  0  0
 21 22  2  0  0  0
 21 23  1  0  0  0
 25 26  1  0  0  0
 26 27  2  0  0  0
 26 28  1  0  0  0
 26 29  1  0  0  0
 13 16  1  0  0  0
 13 17  1  0  0  0
 23 24  1  0  0  0
 29 30  1  0  0  0
M  CHG 1   1   1
M  CHG 1  28  -1
M  END
> <minimizedAffinity>
-7.82943

$$$$
1OLS_TDP_A_601


 30 31  0  0  0  0  0  0  0  0999 V2000
   72.9241    2.3713    6.7760 N   0  0  0  0  0  0  0  0  0  0  0  0
   73.1977    3.7141    6.4703 C   0  0  0  0  0  0  0  0  0  0  0  0
   74.9270    3.9658    6.4528 S   0  0  0  0  0  0  0  0  0  0  0  0
   75.2363    2.2790    6.8590 C   0  0  0  0  0  0  0  0  0  0  0  0
   74.1228    1.5164    7.0147 C   0  0  0  0  0  0  0  0  0  0  0  0
   74.0487    0.0239    7.3745 C   0  0  0  0  0  0  0  0  0  0  0  0
   71.5457    1.8543    6.8370 C   0  0  0  0  0  0  0  0  0  0  0  0
   69.2004    4.0283    4.7381 N   0  0  0  0  0  0  0  0  0  0  0  0
   68.7098    4.8847    5.6654 C   0  0  0  0  0  0  0  0  0  0  0  0
   67.7137    5.9210    5.1729 C   0  0  0  0  0  0  0  0  0  0  0  0
   69.0742    4.8450    6.9733 N   0  0  0  0  0  0  0  0  0  0  0  0
   69.9688    3.8896    7.3337 C   0  0  0  0  0  0  0  0  0  0  0  0
   70.3021    3.8935    8.6572 N   0  0  0  0  0  0  0  0  0  0  0  0
   70.5401    2.9276    6.4121 C   0  0  0  0  0  0  0  0  0  0  0  0
   70.0865    3.0771    5.0866 C   0  0  0  0  0  0  0  0  0  0  0  0
   69.9008    4.5569    9.2639 H   0  0  0  0  0  0  0  0  0  0  0  0
   70.9438    3.2329    9.0052 H   0  0  0  0  0  0  0  0  0  0  0  0
   76.7071    1.9124    6.9629 C   0  0  0  0  0  0  0  0  0  0  0  0
   77.5976    2.9775    6.2244 C   0  0  0  0  0  0  0  0  0  0  0  0
   78.4875    2.2755    5.3392 O   0  0  0  0  0  0  0  0  0  0  0  0
   77.9617    1.7856    3.9524 P   0  0  0  0  0  0  0  0  0  0  0  0
   76.6877    2.4237    3.6087 O   0  0  0  0  0  0  0  0  0  0  0  0
   77.8379    0.2822    4.0044 O   0  0  0  0  0  0  0  0  0  0  0  0
   78.6970   -0.1052    4.2339 H   0  0  0  0  0  0  0  0  0  0  0  0
   79.0676    2.1810    2.8798 O   0  0  0  0  0  0  0  0  0  0  0  0
   79.1993    1.8495    1.3077 P   0  0  0  0  0  0  0  0  0  0  0  0
   78.7139    0.3900    1.1804 O   0  0  0  0  0  0  0  0  0  0  0  0
   78.2675    2.7863    0.6475 O   0  0  0  0  0  0  0  0  0  0  0  0
   80.6036    2.0191    0.8628 O   0  0  0  0  0  0  0  0  0  0  0  0
   81.1689    1.3816    1.3263 H   0  0  0  0  0  0  0  0  0  0  0  0
  8  9  2  0  0  0
  8 15  1  0  0  0
  9 10  1  0  0  0
  9 11  1  0  0  0
 11 12  2  0  0  0
 12 13  1  0  0  0
 12 14  1  0  0  0
 14 15  2  0  0  0
 14  7  1  0  0  0
  7  1  1  0  0  0
  1  2  2  0  0  0
  1  5  1  0  0  0
  2  3  1  0  0  0
  3  4  1  0  0  0
  4  5  2  0  0  0
  4 18  1  0  0  0
  5  6  1  0  0  0
 18 19  1  0  0  0
 19 20  1  0  0  0
 20 21  1  0  0  0
 21 25  1  0  0  0
 21 22  2  0  0  0
 21 23  1  0  0  0
 25 26  1  0  0  0
 26 27  2  0  0  0
 26 28  1  0  0  0
 26 29  1  0  0  0
 13 16  1  0  0  0
 13 17  1  0  0  0
 23 24  1  0  0  0
 29 30  1  0  0  0
M  CHG 1   1   1
M  CHG 1  28  -1
M  END
> <minimizedAffinity>
-7.46250

$$$$
1OLS_TDP_A_601


 30 31  0  0  0  0  0  0  0  0999 V2000
   71.1807    3.1615    6.6558 N   0  0  0  0  0  0  0  0  0  0  0  0
   71.6053    4.4996    6.6325 C   0  0  0  0  0  0  0  0  0  0  0  0
   73.3509    4.5549    6.5704 S   0  0  0  0  0  0  0  0  0  0  0  0
   73.4662    2.7963    6.5838 C   0  0  0  0  0  0  0  0  0  0  0  0
   72.2740    2.1470    6.6347 C   0  0  0  0  0  0  0  0  0  0  0  0
   72.0309    0.6297    6.6668 C   0  0  0  0  0  0  0  0  0  0  0  0
   69.7525    2.8006    6.6828 C   0  0  0  0  0  0  0  0  0  0  0  0
   67.3976    5.7876    6.2770 N   0  0  0  0  0  0  0  0  0  0  0  0
   67.3500    5.9240    4.9305 C   0  0  0  0  0  0  0  0  0  0  0  0
   66.4831    7.0499    4.3923 C   0  0  0  0  0  0  0  0  0  0  0  0
   68.0280    5.1091    4.0812 N   0  0  0  0  0  0  0  0  0  0  0  0
   68.7803    4.1271    4.6405 C   0  0  0  0  0  0  0  0  0  0  0  0
   69.4397    3.3364    3.7446 N   0  0  0  0  0  0  0  0  0  0  0  0
   68.8963    3.9116    6.0693 C   0  0  0  0  0  0  0  0  0  0  0  0
   68.1419    4.8180    6.8402 C   0  0  0  0  0  0  0  0  0  0  0  0
   69.3453    3.5023    2.7788 H   0  0  0  0  0  0  0  0  0  0  0  0
   70.0097    2.6000    4.0642 H   0  0  0  0  0  0  0  0  0  0  0  0
   74.8843    2.2544    6.5212 C   0  0  0  0  0  0  0  0  0  0  0  0
   75.9109    3.4166    6.2597 C   0  0  0  0  0  0  0  0  0  0  0  0
   76.5141    3.1951    4.9730 O   0  0  0  0  0  0  0  0  0  0  0  0
   78.0594    3.3555    4.8121 P   0  0  0  0  0  0  0  0  0  0  0  0
   78.7816    2.6860    5.8977 O   0  0  0  0  0  0  0  0  0  0  0  0
   78.3727    4.8311    4.7588 O   0  0  0  0  0  0  0  0  0  0  0  0
   77.8789    5.2404    4.0311 H   0  0  0  0  0  0  0  0  0  0  0  0
   78.4444    2.6901    3.4197 O   0  0  0  0  0  0  0  0  0  0  0  0
   77.8745    2.9218    1.9297 P   0  0  0  0  0  0  0  0  0  0  0  0
   79.1349    3.1333    1.0644 O   0  0  0  0  0  0  0  0  0  0  0  0
   77.1928    1.6568    1.5879 O   0  0  0  0  0  0  0  0  0  0  0  0
   76.9672    4.0943    1.9033 O   0  0  0  0  0  0  0  0  0  0  0  0
   77.4653    4.8939    2.1344 H   0  0  0  0  0  0  0  0  0  0  0  0
  8  9  2  0  0  0
  8 15  1  0  0  0
  9 10  1  0  0  0
  9 11  1  0  0  0
 11 12  2  0  0  0
 12 13  1  0  0  0
 12 14  1  0  0  0
 14 15  2  0  0  0
 14  7  1  0  0  0
  7  1  1  0  0  0
  1  2  2  0  0  0
  1  5  1  0  0  0
  2  3  1  0  0  0
  3  4  1  0  0  0
  4  5  2  0  0  0
  4 18  1  0  0  0
  5  6  1  0  0  0
 18 19  1  0  0  0
 19 20  1  0  0  0
 20 21  1  0  0  0
 21 25  1  0  0  0
 21 22  2  0  0  0
 21 23  1  0  0  0
 25 26  1  0  0  0
 26 27  2  0  0  0
 26 28  1  0  0  0
 26 29  1  0  0  0
 13 16  1  0  0  0
 13 17  1  0  0  0
 23 24  1  0  0  0
 29 30  1  0  0  0
M  CHG 1   1   1
M  CHG 1  28  -1
M  END
> <minimizedAffinity>
-7.46137

$$$$
