5NLK_92E_A_1201


 36 38  0  0  0  0  0  0  0  0999 V2000
    8.2215   15.3225    9.0456 C   0  0  0  0  0  0  0  0  0  0  0  0
   10.6126   15.1927    8.8048 C   0  0  0  0  0  0  0  0  0  0  0  0
    9.3229   13.2233    9.3280 C   0  0  0  0  0  0  0  0  0  0  0  0
    9.4370   15.9561    8.7962 C   0  0  0  0  0  0  0  0  0  0  0  0
    8.1355   13.9601    9.2982 C   0  0  0  0  0  0  0  0  0  0  0  0
   10.5698   13.8230    9.0827 C   0  0  0  0  0  0  0  0  0  0  0  0
    9.6040   19.3857    7.3564 C   0  0  0  0  0  0  0  0  0  0  0  0
    9.7932   17.8628    7.3895 C   0  0  0  0  0  0  0  0  0  0  0  0
    9.3673   17.2844    8.5423 N   0  0  0  0  0  0  0  0  0  0  0  0
   10.2951   17.2915    6.4198 O   0  0  0  0  0  0  0  0  0  0  0  0
    8.9838   17.8674    9.2367 H   0  0  0  0  0  0  0  0  0  0  0  0
   11.7329   13.0267    9.0949 C   0  0  0  0  0  0  0  0  0  0  0  0
   11.6099   11.7865    9.6187 N   0  0  0  0  0  0  0  0  0  0  0  0
   12.7989   13.4797    8.6852 O   0  0  0  0  0  0  0  0  0  0  0  0
   10.7212   11.4613    9.8902 H   0  0  0  0  0  0  0  0  0  0  0  0
   14.9390    9.3285   10.0419 C   0  0  0  0  0  0  0  0  0  0  0  0
   14.2396    9.7523   11.1727 C   0  0  0  0  0  0  0  0  0  0  0  0
   13.4013   10.5512    8.6543 C   0  0  0  0  0  0  0  0  0  0  0  0
   14.5188    9.7270    8.7763 C   0  0  0  0  0  0  0  0  0  0  0  0
   12.6898   10.9842    9.7761 C   0  0  0  0  0  0  0  0  0  0  0  0
   13.1253   10.5803   11.0498 C   0  0  0  0  0  0  0  0  0  0  0  0
   14.5862    9.6402    6.2848 C   0  0  0  0  0  0  0  0  0  0  0  0
   15.2073    9.2875    7.6449 C   0  0  0  0  0  0  0  0  0  0  0  0
   16.2284    8.6080    7.7267 O   0  0  0  0  0  0  0  0  0  0  0  0
   12.4179   11.0187   12.1312 O   0  0  0  0  0  0  0  0  0  0  0  0
   12.1850   11.3378   14.4975 C   0  0  0  0  0  0  0  0  0  0  0  0
   13.0017   10.6680   13.3904 C   0  0  0  0  0  0  0  0  0  0  0  0
    6.4794   12.2501    9.0896 C   0  0  0  0  0  0  0  0  0  0  0  0
    6.9055   13.4528    9.5564 N   0  0  0  0  0  0  0  0  0  0  0  0
    7.1238   11.5044    8.3527 O   0  0  0  0  0  0  0  0  0  0  0  0
    6.2889   13.9833   10.1110 H   0  0  0  0  0  0  0  0  0  0  0  0
    3.1228   11.8736    9.9028 C   0  0  0  0  0  0  0  0  0  0  0  0
    3.5900   10.6920   10.3214 C   0  0  0  0  0  0  0  0  0  0  0  0
    4.1330   12.5936    9.3964 C   0  0  0  0  0  0  0  0  0  0  0  0
    5.2483   11.8745    9.4853 C   0  0  0  0  0  0  0  0  0  0  0  0
    4.9712   10.6723   10.0579 O   0  0  0  0  0  0  0  0  0  0  0  0
 33 36  1  0  0  0
 33 32  2  0  0  0
 36 35  1  0  0  0
 32 34  1  0  0  0
 35 34  2  0  0  0
 35 28  1  0  0  0
 30 28  2  0  0  0
 28 29  1  0  0  0
 29  5  1  0  0  0
 14 12  2  0  0  0
  3  5  2  0  0  0
  3  6  1  0  0  0
  5  1  1  0  0  0
 12  6  1  0  0  0
 12 13  1  0  0  0
  6  2  2  0  0  0
  1  4  2  0  0  0
 26 27  1  0  0  0
 27 25  1  0  0  0
 17 16  2  0  0  0
 17 21  1  0  0  0
 16 19  1  0  0  0
 25 21  1  0  0  0
 21 20  2  0  0  0
 24 23  2  0  0  0
 19 23  1  0  0  0
 19 18  2  0  0  0
 23 22  1  0  0  0
 20 18  1  0  0  0
 20 13  1  0  0  0
  2  4  1  0  0  0
  4  9  1  0  0  0
  9  8  1  0  0  0
  8 10  2  0  0  0
  8  7  1  0  0  0
  9 11  1  0  0  0
 29 31  1  0  0  0
 13 15  1  0  0  0
M  END
> <minimizedAffinity>
-9.22863

$$$$
5NLK_92E_A_1201


 36 38  0  0  0  0  0  0  0  0999 V2000
    8.3527   15.3269    8.9176 C   0  0  0  0  0  0  0  0  0  0  0  0
   10.7495   15.2334    8.7204 C   0  0  0  0  0  0  0  0  0  0  0  0
    9.4930   13.2763    9.3580 C   0  0  0  0  0  0  0  0  0  0  0  0
    9.5584   15.9686    8.6429 C   0  0  0  0  0  0  0  0  0  0  0  0
    8.2912   13.9832    9.2611 C   0  0  0  0  0  0  0  0  0  0  0  0
   10.7308   13.8852    9.0902 C   0  0  0  0  0  0  0  0  0  0  0  0
    9.6995   19.3000    6.9862 C   0  0  0  0  0  0  0  0  0  0  0  0
    9.9274   17.7888    7.1291 C   0  0  0  0  0  0  0  0  0  0  0  0
    9.4650   17.2748    8.2982 N   0  0  0  0  0  0  0  0  0  0  0  0
   10.4879   17.1704    6.2225 O   0  0  0  0  0  0  0  0  0  0  0  0
    9.0350   17.8904    8.9348 H   0  0  0  0  0  0  0  0  0  0  0  0
   11.9100   13.1171    9.1733 C   0  0  0  0  0  0  0  0  0  0  0  0
   11.7608   11.8166    9.5111 N   0  0  0  0  0  0  0  0  0  0  0  0
   13.0056   13.6408    8.9869 O   0  0  0  0  0  0  0  0  0  0  0  0
   10.8555   11.4412    9.6044 H   0  0  0  0  0  0  0  0  0  0  0  0
   15.0502    9.3716   10.2226 C   0  0  0  0  0  0  0  0  0  0  0  0
   14.7167    9.7252    8.9144 C   0  0  0  0  0  0  0  0  0  0  0  0
   13.1842   10.6586   11.0271 C   0  0  0  0  0  0  0  0  0  0  0  0
   14.2831    9.8406   11.2851 C   0  0  0  0  0  0  0  0  0  0  0  0
   12.8369   11.0220    9.7234 C   0  0  0  0  0  0  0  0  0  0  0  0
   13.6149   10.5390    8.6573 C   0  0  0  0  0  0  0  0  0  0  0  0
   13.8552   10.2170   13.7130 C   0  0  0  0  0  0  0  0  0  0  0  0
   14.6281    9.5022   12.5941 C   0  0  0  0  0  0  0  0  0  0  0  0
   15.5379    8.7148   12.8452 O   0  0  0  0  0  0  0  0  0  0  0  0
   13.2547   10.9031    7.3925 O   0  0  0  0  0  0  0  0  0  0  0  0
   14.3026    9.9635    5.4497 C   0  0  0  0  0  0  0  0  0  0  0  0
   14.3597   11.0758    6.4989 C   0  0  0  0  0  0  0  0  0  0  0  0
    6.6304   12.2786    9.0455 C   0  0  0  0  0  0  0  0  0  0  0  0
    7.0681   13.4678    9.5357 N   0  0  0  0  0  0  0  0  0  0  0  0
    7.2560   11.5547    8.2716 O   0  0  0  0  0  0  0  0  0  0  0  0
    6.4656   13.9817   10.1206 H   0  0  0  0  0  0  0  0  0  0  0  0
    3.2842   11.8525    9.8768 C   0  0  0  0  0  0  0  0  0  0  0  0
    3.7842   10.7108   10.3625 C   0  0  0  0  0  0  0  0  0  0  0  0
    4.2744   12.5713    9.3307 C   0  0  0  0  0  0  0  0  0  0  0  0
    5.4097   11.8909    9.4613 C   0  0  0  0  0  0  0  0  0  0  0  0
    5.1660   10.7159   10.1015 O   0  0  0  0  0  0  0  0  0  0  0  0
 33 36  1  0  0  0
 33 32  2  0  0  0
 36 35  1  0  0  0
 32 34  1  0  0  0
 35 34  2  0  0  0
 35 28  1  0  0  0
 30 28  2  0  0  0
 28 29  1  0  0  0
 29  5  1  0  0  0
 14 12  2  0  0  0
  3  5  2  0  0  0
  3  6  1  0  0  0
  5  1  1  0  0  0
 12  6  1  0  0  0
 12 13  1  0  0  0
  6  2  2  0  0  0
  1  4  2  0  0  0
 26 27  1  0  0  0
 27 25  1  0  0  0
 17 16  2  0  0  0
 17 21  1  0  0  0
 16 19  1  0  0  0
 25 21  1  0  0  0
 21 20  2  0  0  0
 24 23  2  0  0  0
 19 23  1  0  0  0
 19 18  2  0  0  0
 23 22  1  0  0  0
 20 18  1  0  0  0
 20 13  1  0  0  0
  2  4  1  0  0  0
  4  9  1  0  0  0
  9  8  1  0  0  0
  8 10  2  0  0  0
  8  7  1  0  0  0
  9 11  1  0  0  0
 29 31  1  0  0  0
 13 15  1  0  0  0
M  END
> <minimizedAffinity>
-8.58650

$$$$
5NLK_92E_A_1201


 36 38  0  0  0  0  0  0  0  0999 V2000
    9.4149   12.7539    9.4850 C   0  0  0  0  0  0  0  0  0  0  0  0
   10.7116   14.6738    8.8336 C   0  0  0  0  0  0  0  0  0  0  0  0
    8.3058   14.7974    8.9434 C   0  0  0  0  0  0  0  0  0  0  0  0
   10.6573   13.3301    9.2294 C   0  0  0  0  0  0  0  0  0  0  0  0
    8.2297   13.4669    9.3648 C   0  0  0  0  0  0  0  0  0  0  0  0
    9.5380   15.4169    8.6744 C   0  0  0  0  0  0  0  0  0  0  0  0
   13.7160   11.2345    8.8900 C   0  0  0  0  0  0  0  0  0  0  0  0
   12.5851   12.1598    8.4201 C   0  0  0  0  0  0  0  0  0  0  0  0
   11.7292   12.5228    9.4103 N   0  0  0  0  0  0  0  0  0  0  0  0
   12.5271   12.4957    7.2359 O   0  0  0  0  0  0  0  0  0  0  0  0
   11.8988   12.1772   10.3164 H   0  0  0  0  0  0  0  0  0  0  0  0
    9.5586   16.7707    8.2819 C   0  0  0  0  0  0  0  0  0  0  0  0
   10.4067   17.0960    7.2806 N   0  0  0  0  0  0  0  0  0  0  0  0
    8.8638   17.5970    8.8682 O   0  0  0  0  0  0  0  0  0  0  0  0
   10.9055   16.3845    6.8179 H   0  0  0  0  0  0  0  0  0  0  0  0
   10.8876   21.0541    6.0945 C   0  0  0  0  0  0  0  0  0  0  0  0
   11.7910   20.4825    6.9915 C   0  0  0  0  0  0  0  0  0  0  0  0
    9.6853   18.9727    6.0066 C   0  0  0  0  0  0  0  0  0  0  0  0
    9.8305   20.2973    5.5973 C   0  0  0  0  0  0  0  0  0  0  0  0
   10.5810   18.3853    6.9038 C   0  0  0  0  0  0  0  0  0  0  0  0
   11.6420   19.1595    7.4038 C   0  0  0  0  0  0  0  0  0  0  0  0
    7.4987   21.0757    5.1778 C   0  0  0  0  0  0  0  0  0  0  0  0
    8.9385   20.8636    4.6859 C   0  0  0  0  0  0  0  0  0  0  0  0
    9.2679   21.1309    3.5322 O   0  0  0  0  0  0  0  0  0  0  0  0
   12.5018   18.5666    8.2820 O   0  0  0  0  0  0  0  0  0  0  0  0
   14.0438   17.5790    6.7321 C   0  0  0  0  0  0  0  0  0  0  0  0
   13.8709   18.5932    7.8648 C   0  0  0  0  0  0  0  0  0  0  0  0
    5.8465   13.2983    9.3169 C   0  0  0  0  0  0  0  0  0  0  0  0
    7.0759   12.7995    9.6100 N   0  0  0  0  0  0  0  0  0  0  0  0
    5.6255   14.4125    8.8433 O   0  0  0  0  0  0  0  0  0  0  0  0
    7.1314   11.9070   10.0218 H   0  0  0  0  0  0  0  0  0  0  0  0
    3.6224   10.7189   10.0019 C   0  0  0  0  0  0  0  0  0  0  0  0
    2.7651   11.7435    9.9337 C   0  0  0  0  0  0  0  0  0  0  0  0
    4.8656   11.1680    9.7825 C   0  0  0  0  0  0  0  0  0  0  0  0
    4.8088   12.4807    9.5774 C   0  0  0  0  0  0  0  0  0  0  0  0
    3.5173   12.8995    9.6592 O   0  0  0  0  0  0  0  0  0  0  0  0
 33 36  1  0  0  0
 33 32  2  0  0  0
 36 35  1  0  0  0
 32 34  1  0  0  0
 35 34  2  0  0  0
 35 28  1  0  0  0
 30 28  2  0  0  0
 28 29  1  0  0  0
 29  5  1  0  0  0
 14 12  2  0  0  0
  3  5  2  0  0  0
  3  6  1  0  0  0
  5  1  1  0  0  0
 12  6  1  0  0  0
 12 13  1  0  0  0
  6  2  2  0  0  0
  1  4  2  0  0  0
 26 27  1  0  0  0
 27 25  1  0  0  0
 17 16  2  0  0  0
 17 21  1  0  0  0
 16 19  1  0  0  0
 25 21  1  0  0  0
 21 20  2  0  0  0
 24 23  2  0  0  0
 19 23  1  0  0  0
 19 18  2  0  0  0
 23 22  1  0  0  0
 20 18  1  0  0  0
 20 13  1  0  0  0
  2  4  1  0  0  0
  4  9  1  0  0  0
  9  8  1  0  0  0
  8 10  2  0  0  0
  8  7  1  0  0  0
  9 11  1  0  0  0
 29 31  1  0  0  0
 13 15  1  0  0  0
M  END
> <minimizedAffinity>
-8.48657

$$$$
5NLK_92E_A_1201


 36 38  0  0  0  0  0  0  0  0999 V2000
   14.5917    9.5158   10.0596 C   0  0  0  0  0  0  0  0  0  0  0  0
   12.9699   10.6707   11.4116 C   0  0  0  0  0  0  0  0  0  0  0  0
   12.7723   10.6488    9.0083 C   0  0  0  0  0  0  0  0  0  0  0  0
   14.1392    9.9031   11.3190 C   0  0  0  0  0  0  0  0  0  0  0  0
   13.9211    9.8610    8.8940 C   0  0  0  0  0  0  0  0  0  0  0  0
   12.2821   11.0617   10.2588 C   0  0  0  0  0  0  0  0  0  0  0  0
   16.5779    9.4707   14.0991 C   0  0  0  0  0  0  0  0  0  0  0  0
   15.8974   10.1838   12.9224 C   0  0  0  0  0  0  0  0  0  0  0  0
   14.8802    9.4746   12.3683 N   0  0  0  0  0  0  0  0  0  0  0  0
   16.2974   11.2955   12.5721 O   0  0  0  0  0  0  0  0  0  0  0  0
   14.6683    8.5938   12.7537 H   0  0  0  0  0  0  0  0  0  0  0  0
   11.1015   11.8297   10.3178 C   0  0  0  0  0  0  0  0  0  0  0  0
   10.8208   12.5895    9.2354 N   0  0  0  0  0  0  0  0  0  0  0  0
   10.4074   11.8230   11.3315 O   0  0  0  0  0  0  0  0  0  0  0  0
   11.3891   12.5202    8.4345 H   0  0  0  0  0  0  0  0  0  0  0  0
    7.5565   15.1679    9.2429 C   0  0  0  0  0  0  0  0  0  0  0  0
    8.8520   15.6865    9.2581 C   0  0  0  0  0  0  0  0  0  0  0  0
    8.4669   12.9417    9.2204 C   0  0  0  0  0  0  0  0  0  0  0  0
    7.3608   13.7901    9.2221 C   0  0  0  0  0  0  0  0  0  0  0  0
    9.7704   13.4446    9.2353 C   0  0  0  0  0  0  0  0  0  0  0  0
    9.9572   14.8373    9.2613 C   0  0  0  0  0  0  0  0  0  0  0  0
    5.9385   11.7415    9.2089 C   0  0  0  0  0  0  0  0  0  0  0  0
    6.0654   13.2724    9.1878 C   0  0  0  0  0  0  0  0  0  0  0  0
    5.0768   13.9965    9.0916 O   0  0  0  0  0  0  0  0  0  0  0  0
   11.2386   15.3059    9.2800 O   0  0  0  0  0  0  0  0  0  0  0  0
   12.2542   17.4792    9.3015 C   0  0  0  0  0  0  0  0  0  0  0  0
   11.4432   16.4750    8.4798 C   0  0  0  0  0  0  0  0  0  0  0  0
   14.8605   10.3129    6.7437 C   0  0  0  0  0  0  0  0  0  0  0  0
   14.4657    9.4555    7.7210 N   0  0  0  0  0  0  0  0  0  0  0  0
   14.7365   11.5367    6.7785 O   0  0  0  0  0  0  0  0  0  0  0  0
   14.5810    8.4896    7.5692 H   0  0  0  0  0  0  0  0  0  0  0  0
   15.7224    8.6550    3.8148 C   0  0  0  0  0  0  0  0  0  0  0  0
   16.9336    9.0673    4.2052 C   0  0  0  0  0  0  0  0  0  0  0  0
   14.8084    9.0648    4.7048 C   0  0  0  0  0  0  0  0  0  0  0  0
   15.4303    9.7436    5.6646 C   0  0  0  0  0  0  0  0  0  0  0  0
   16.7653    9.7784    5.4066 O   0  0  0  0  0  0  0  0  0  0  0  0
 33 36  1  0  0  0
 33 32  2  0  0  0
 36 35  1  0  0  0
 32 34  1  0  0  0
 35 34  2  0  0  0
 35 28  1  0  0  0
 30 28  2  0  0  0
 28 29  1  0  0  0
 29  5  1  0  0  0
 14 12  2  0  0  0
  3  5  2  0  0  0
  3  6  1  0  0  0
  5  1  1  0  0  0
 12  6  1  0  0  0
 12 13  1  0  0  0
  6  2  2  0  0  0
  1  4  2  0  0  0
 26 27  1  0  0  0
 27 25  1  0  0  0
 17 16  2  0  0  0
 17 21  1  0  0  0
 16 19  1  0  0  0
 25 21  1  0  0  0
 21 20  2  0  0  0
 24 23  2  0  0  0
 19 23  1  0  0  0
 19 18  2  0  0  0
 23 22  1  0  0  0
 20 18  1  0  0  0
 20 13  1  0  0  0
  2  4  1  0  0  0
  4  9  1  0  0  0
  9  8  1  0  0  0
  8 10  2  0  0  0
  8  7  1  0  0  0
  9 11  1  0  0  0
 29 31  1  0  0  0
 13 15  1  0  0  0
M  END
> <minimizedAffinity>
-8.33943

$$$$
5NLK_92E_A_1201


 36 38  0  0  0  0  0  0  0  0999 V2000
   14.1001   10.6499   10.1671 C   0  0  0  0  0  0  0  0  0  0  0  0
   12.3546   11.9255    9.1097 C   0  0  0  0  0  0  0  0  0  0  0  0
   12.0493   11.0310   11.3283 C   0  0  0  0  0  0  0  0  0  0  0  0
   13.6374   11.3621    9.0627 C   0  0  0  0  0  0  0  0  0  0  0  0
   13.3351   10.4833   11.3136 C   0  0  0  0  0  0  0  0  0  0  0  0
   11.5435   11.7557   10.2358 C   0  0  0  0  0  0  0  0  0  0  0  0
   15.7006   10.8734    6.0022 C   0  0  0  0  0  0  0  0  0  0  0  0
   14.6548   10.5133    7.0664 C   0  0  0  0  0  0  0  0  0  0  0  0
   14.5002   11.4639    8.0241 N   0  0  0  0  0  0  0  0  0  0  0  0
   14.0545    9.4398    6.9897 O   0  0  0  0  0  0  0  0  0  0  0  0
   15.0499   12.2780    7.9591 H   0  0  0  0  0  0  0  0  0  0  0  0
   10.2511   12.3128   10.3162 C   0  0  0  0  0  0  0  0  0  0  0  0
    9.8697   13.1039    9.2883 N   0  0  0  0  0  0  0  0  0  0  0  0
    9.5480   12.1086   11.3028 O   0  0  0  0  0  0  0  0  0  0  0  0
   10.4571   13.1952    8.5036 H   0  0  0  0  0  0  0  0  0  0  0  0
    6.2245   15.1050    9.3986 C   0  0  0  0  0  0  0  0  0  0  0  0
    7.4151   15.8313    9.3494 C   0  0  0  0  0  0  0  0  0  0  0  0
    7.4913   13.0605    9.3707 C   0  0  0  0  0  0  0  0  0  0  0  0
    6.2603   13.7136    9.4076 C   0  0  0  0  0  0  0  0  0  0  0  0
    8.6924   13.7727    9.3209 C   0  0  0  0  0  0  0  0  0  0  0  0
    8.6454   15.1774    9.3174 C   0  0  0  0  0  0  0  0  0  0  0  0
    5.1996   11.4573    9.4652 C   0  0  0  0  0  0  0  0  0  0  0  0
    5.0690   12.9877    9.4378 C   0  0  0  0  0  0  0  0  0  0  0  0
    3.9702   13.5368    9.3910 O   0  0  0  0  0  0  0  0  0  0  0  0
    9.8306   15.8522    9.2729 O   0  0  0  0  0  0  0  0  0  0  0  0
    9.9493   17.9021    8.0324 C   0  0  0  0  0  0  0  0  0  0  0  0
   10.1492   16.3859    7.9834 C   0  0  0  0  0  0  0  0  0  0  0  0
   13.7470   10.0707   13.6310 C   0  0  0  0  0  0  0  0  0  0  0  0
   13.8725    9.7478   12.3172 N   0  0  0  0  0  0  0  0  0  0  0  0
   13.1807   11.0728   14.0662 O   0  0  0  0  0  0  0  0  0  0  0  0
   14.3801    8.9377   12.0821 H   0  0  0  0  0  0  0  0  0  0  0  0
   14.8583    8.1812   16.3263 C   0  0  0  0  0  0  0  0  0  0  0  0
   15.4719    7.5341   15.3292 C   0  0  0  0  0  0  0  0  0  0  0  0
   14.1460    9.1973   15.8209 C   0  0  0  0  0  0  0  0  0  0  0  0
   14.2977    9.2015   14.4997 C   0  0  0  0  0  0  0  0  0  0  0  0
   15.1193    8.1819   14.1319 O   0  0  0  0  0  0  0  0  0  0  0  0
 33 36  1  0  0  0
 33 32  2  0  0  0
 36 35  1  0  0  0
 32 34  1  0  0  0
 35 34  2  0  0  0
 35 28  1  0  0  0
 30 28  2  0  0  0
 28 29  1  0  0  0
 29  5  1  0  0  0
 14 12  2  0  0  0
  3  5  2  0  0  0
  3  6  1  0  0  0
  5  1  1  0  0  0
 12  6  1  0  0  0
 12 13  1  0  0  0
  6  2  2  0  0  0
  1  4  2  0  0  0
 26 27  1  0  0  0
 27 25  1  0  0  0
 17 16  2  0  0  0
 17 21  1  0  0  0
 16 19  1  0  0  0
 25 21  1  0  0  0
 21 20  2  0  0  0
 24 23  2  0  0  0
 19 23  1  0  0  0
 19 18  2  0  0  0
 23 22  1  0  0  0
 20 18  1  0  0  0
 20 13  1  0  0  0
  2  4  1  0  0  0
  4  9  1  0  0  0
  9  8  1  0  0  0
  8 10  2  0  0  0
  8  7  1  0  0  0
  9 11  1  0  0  0
 29 31  1  0  0  0
 13 15  1  0  0  0
M  END
> <minimizedAffinity>
-8.30629

$$$$
5NLK_92E_A_1201


 36 38  0  0  0  0  0  0  0  0999 V2000
   15.0148   10.5450    9.2569 C   0  0  0  0  0  0  0  0  0  0  0  0
   13.5120   12.4223    9.1592 C   0  0  0  0  0  0  0  0  0  0  0  0
   12.7386   10.2693    9.9220 C   0  0  0  0  0  0  0  0  0  0  0  0
   14.7918   11.8871    8.9570 C   0  0  0  0  0  0  0  0  0  0  0  0
   14.0133    9.7215    9.7531 C   0  0  0  0  0  0  0  0  0  0  0  0
   12.4705   11.6176    9.6310 C   0  0  0  0  0  0  0  0  0  0  0  0
   17.4250   13.5829    6.9436 C   0  0  0  0  0  0  0  0  0  0  0  0
   16.1454   12.7713    7.1886 C   0  0  0  0  0  0  0  0  0  0  0  0
   15.8661   12.5754    8.5033 N   0  0  0  0  0  0  0  0  0  0  0  0
   15.4880   12.3682    6.2274 O   0  0  0  0  0  0  0  0  0  0  0  0
   16.4834   12.9578    9.1681 H   0  0  0  0  0  0  0  0  0  0  0  0
   11.1739   12.1260    9.8490 C   0  0  0  0  0  0  0  0  0  0  0  0
   10.7146   13.0173    8.9421 N   0  0  0  0  0  0  0  0  0  0  0  0
   10.5361   11.7921   10.8445 O   0  0  0  0  0  0  0  0  0  0  0  0
   11.2515   13.2130    8.1405 H   0  0  0  0  0  0  0  0  0  0  0  0
    7.0411   14.8913    9.4874 C   0  0  0  0  0  0  0  0  0  0  0  0
    8.2162   15.6435    9.5159 C   0  0  0  0  0  0  0  0  0  0  0  0
    8.3419   12.9068    9.0934 C   0  0  0  0  0  0  0  0  0  0  0  0
    7.1017   13.5173    9.2737 C   0  0  0  0  0  0  0  0  0  0  0  0
    9.5277   13.6453    9.1188 C   0  0  0  0  0  0  0  0  0  0  0  0
    9.4559   15.0313    9.3404 C   0  0  0  0  0  0  0  0  0  0  0  0
    4.6082   13.5564    9.2994 C   0  0  0  0  0  0  0  0  0  0  0  0
    5.9251   12.7686    9.2264 C   0  0  0  0  0  0  0  0  0  0  0  0
    5.9359   11.5402    9.1829 O   0  0  0  0  0  0  0  0  0  0  0  0
   10.6267   15.7317    9.3656 O   0  0  0  0  0  0  0  0  0  0  0  0
   11.7981   16.1198    7.3083 C   0  0  0  0  0  0  0  0  0  0  0  0
   10.7667   16.6714    8.2948 C   0  0  0  0  0  0  0  0  0  0  0  0
   14.8502    7.9789   11.1579 C   0  0  0  0  0  0  0  0  0  0  0  0
   14.3329    8.4246    9.9832 N   0  0  0  0  0  0  0  0  0  0  0  0
   15.1302    8.6859   12.1255 O   0  0  0  0  0  0  0  0  0  0  0  0
   14.1825    7.7717    9.2619 H   0  0  0  0  0  0  0  0  0  0  0  0
   15.2145    4.5506   10.7294 C   0  0  0  0  0  0  0  0  0  0  0  0
   15.5422    4.6522   12.0224 C   0  0  0  0  0  0  0  0  0  0  0  0
   14.9189    5.7672   10.2519 C   0  0  0  0  0  0  0  0  0  0  0  0
   15.0603    6.6511   11.2355 C   0  0  0  0  0  0  0  0  0  0  0  0
   15.4490    6.0113   12.3711 O   0  0  0  0  0  0  0  0  0  0  0  0
 33 36  1  0  0  0
 33 32  2  0  0  0
 36 35  1  0  0  0
 32 34  1  0  0  0
 35 34  2  0  0  0
 35 28  1  0  0  0
 30 28  2  0  0  0
 28 29  1  0  0  0
 29  5  1  0  0  0
 14 12  2  0  0  0
  3  5  2  0  0  0
  3  6  1  0  0  0
  5  1  1  0  0  0
 12  6  1  0  0  0
 12 13  1  0  0  0
  6  2  2  0  0  0
  1  4  2  0  0  0
 26 27  1  0  0  0
 27 25  1  0  0  0
 17 16  2  0  0  0
 17 21  1  0  0  0
 16 19  1  0  0  0
 25 21  1  0  0  0
 21 20  2  0  0  0
 24 23  2  0  0  0
 19 23  1  0  0  0
 19 18  2  0  0  0
 23 22  1  0  0  0
 20 18  1  0  0  0
 20 13  1  0  0  0
  2  4  1  0  0  0
  4  9  1  0  0  0
  9  8  1  0  0  0
  8 10  2  0  0  0
  8  7  1  0  0  0
  9 11  1  0  0  0
 29 31  1  0  0  0
 13 15  1  0  0  0
M  END
> <minimizedAffinity>
-8.28090

$$$$
5NLK_92E_A_1201


 36 38  0  0  0  0  0  0  0  0999 V2000
   15.0344    9.2920    8.3712 C   0  0  0  0  0  0  0  0  0  0  0  0
   13.3320   10.6530    9.3919 C   0  0  0  0  0  0  0  0  0  0  0  0
   14.0167   11.0475    7.1135 C   0  0  0  0  0  0  0  0  0  0  0  0
   14.2550    9.6019    9.4836 C   0  0  0  0  0  0  0  0  0  0  0  0
   14.9245    9.9865    7.1741 C   0  0  0  0  0  0  0  0  0  0  0  0
   13.2120   11.3938    8.2122 C   0  0  0  0  0  0  0  0  0  0  0  0
   15.3613    8.0734   12.6934 C   0  0  0  0  0  0  0  0  0  0  0  0
   15.3270    9.1207   11.5717 C   0  0  0  0  0  0  0  0  0  0  0  0
   14.4523    8.8256   10.5755 N   0  0  0  0  0  0  0  0  0  0  0  0
   16.0583   10.1101   11.6416 O   0  0  0  0  0  0  0  0  0  0  0  0
   13.9289    7.9953   10.6519 H   0  0  0  0  0  0  0  0  0  0  0  0
   12.2910   12.4535    8.0862 C   0  0  0  0  0  0  0  0  0  0  0  0
   11.6022   12.7903    9.1996 N   0  0  0  0  0  0  0  0  0  0  0  0
   12.1126   12.9939    6.9974 O   0  0  0  0  0  0  0  0  0  0  0  0
   11.8194   12.3528   10.0544 H   0  0  0  0  0  0  0  0  0  0  0  0
    8.5380   15.6011    9.0821 C   0  0  0  0  0  0  0  0  0  0  0  0
    9.8684   16.0221    9.0679 C   0  0  0  0  0  0  0  0  0  0  0  0
    9.2808   13.3152    9.1718 C   0  0  0  0  0  0  0  0  0  0  0  0
    8.2406   14.2423    9.1325 C   0  0  0  0  0  0  0  0  0  0  0  0
   10.6180   13.7199    9.1580 C   0  0  0  0  0  0  0  0  0  0  0  0
   10.9076   15.0944    9.1121 C   0  0  0  0  0  0  0  0  0  0  0  0
    6.6714   12.3045    9.1774 C   0  0  0  0  0  0  0  0  0  0  0  0
    6.9103   13.8213    9.1277 C   0  0  0  0  0  0  0  0  0  0  0  0
    5.9761   14.6148    9.0346 O   0  0  0  0  0  0  0  0  0  0  0  0
   12.2203   15.4668    9.1039 O   0  0  0  0  0  0  0  0  0  0  0  0
   13.9152   16.0170    7.4977 C   0  0  0  0  0  0  0  0  0  0  0  0
   12.5531   16.4060    8.0761 C   0  0  0  0  0  0  0  0  0  0  0  0
   15.3133    9.0940    4.9918 C   0  0  0  0  0  0  0  0  0  0  0  0
   15.7520    9.6198    6.1653 N   0  0  0  0  0  0  0  0  0  0  0  0
   14.1392    8.8473    4.7178 O   0  0  0  0  0  0  0  0  0  0  0  0
   16.7212    9.7408    6.2892 H   0  0  0  0  0  0  0  0  0  0  0  0
   18.1247    8.2253    3.1449 C   0  0  0  0  0  0  0  0  0  0  0  0
   17.3390    8.6764    2.1606 C   0  0  0  0  0  0  0  0  0  0  0  0
   17.4724    8.3243    4.3111 C   0  0  0  0  0  0  0  0  0  0  0  0
   16.2668    8.8346    4.0770 C   0  0  0  0  0  0  0  0  0  0  0  0
   16.1248    9.0769    2.7462 O   0  0  0  0  0  0  0  0  0  0  0  0
 33 36  1  0  0  0
 33 32  2  0  0  0
 36 35  1  0  0  0
 32 34  1  0  0  0
 35 34  2  0  0  0
 35 28  1  0  0  0
 30 28  2  0  0  0
 28 29  1  0  0  0
 29  5  1  0  0  0
 14 12  2  0  0  0
  3  5  2  0  0  0
  3  6  1  0  0  0
  5  1  1  0  0  0
 12  6  1  0  0  0
 12 13  1  0  0  0
  6  2  2  0  0  0
  1  4  2  0  0  0
 26 27  1  0  0  0
 27 25  1  0  0  0
 17 16  2  0  0  0
 17 21  1  0  0  0
 16 19  1  0  0  0
 25 21  1  0  0  0
 21 20  2  0  0  0
 24 23  2  0  0  0
 19 23  1  0  0  0
 19 18  2  0  0  0
 23 22  1  0  0  0
 20 18  1  0  0  0
 20 13  1  0  0  0
  2  4  1  0  0  0
  4  9  1  0  0  0
  9  8  1  0  0  0
  8 10  2  0  0  0
  8  7  1  0  0  0
  9 11  1  0  0  0
 29 31  1  0  0  0
 13 15  1  0  0  0
M  END
> <minimizedAffinity>
-8.19043

$$$$
5NLK_92E_A_1201


 36 38  0  0  0  0  0  0  0  0999 V2000
    8.5744   14.6873    9.1998 C   0  0  0  0  0  0  0  0  0  0  0  0
   10.9439   14.7406    8.7817 C   0  0  0  0  0  0  0  0  0  0  0  0
    9.8210   12.6513    9.2168 C   0  0  0  0  0  0  0  0  0  0  0  0
    9.7262   15.4206    8.9232 C   0  0  0  0  0  0  0  0  0  0  0  0
    8.5917   13.3057    9.3357 C   0  0  0  0  0  0  0  0  0  0  0  0
   11.0065   13.3528    8.9392 C   0  0  0  0  0  0  0  0  0  0  0  0
    9.5705   18.9622    7.7848 C   0  0  0  0  0  0  0  0  0  0  0  0
    9.8542   17.4581    7.6690 C   0  0  0  0  0  0  0  0  0  0  0  0
    9.5559   16.7577    8.7938 N   0  0  0  0  0  0  0  0  0  0  0  0
   10.3126   17.0053    6.6185 O   0  0  0  0  0  0  0  0  0  0  0  0
    9.1932   17.2533    9.5633 H   0  0  0  0  0  0  0  0  0  0  0  0
   12.2140   12.6389    8.7992 C   0  0  0  0  0  0  0  0  0  0  0  0
   13.0353   13.0321    7.7999 N   0  0  0  0  0  0  0  0  0  0  0  0
   12.4590   11.6849    9.5334 O   0  0  0  0  0  0  0  0  0  0  0  0
   12.8078   13.8314    7.2721 H   0  0  0  0  0  0  0  0  0  0  0  0
   16.4787   10.8897    6.8740 C   0  0  0  0  0  0  0  0  0  0  0  0
   16.5346   11.9263    7.8066 C   0  0  0  0  0  0  0  0  0  0  0  0
   14.1273   11.3034    6.5817 C   0  0  0  0  0  0  0  0  0  0  0  0
   15.2706   10.5740    6.2590 C   0  0  0  0  0  0  0  0  0  0  0  0
   14.1661   12.3439    7.5133 C   0  0  0  0  0  0  0  0  0  0  0  0
   15.3919   12.6581    8.1249 C   0  0  0  0  0  0  0  0  0  0  0  0
   16.5521    8.8978    4.9295 C   0  0  0  0  0  0  0  0  0  0  0  0
   15.2114    9.5251    5.3406 C   0  0  0  0  0  0  0  0  0  0  0  0
   14.1504    9.1541    4.8430 O   0  0  0  0  0  0  0  0  0  0  0  0
   15.4072   13.6807    9.0281 O   0  0  0  0  0  0  0  0  0  0  0  0
   15.8642   15.9952    9.4637 C   0  0  0  0  0  0  0  0  0  0  0  0
   16.2909   14.7519    8.6805 C   0  0  0  0  0  0  0  0  0  0  0  0
    6.2182   13.1049    9.1443 C   0  0  0  0  0  0  0  0  0  0  0  0
    7.4182   12.6963    9.6333 N   0  0  0  0  0  0  0  0  0  0  0  0
    6.0412   14.0848    8.4212 O   0  0  0  0  0  0  0  0  0  0  0  0
    7.4363   11.9172   10.2349 H   0  0  0  0  0  0  0  0  0  0  0  0
    3.1372   11.7054    9.9308 C   0  0  0  0  0  0  0  0  0  0  0  0
    3.9319   10.6609   10.1898 C   0  0  0  0  0  0  0  0  0  0  0  0
    3.8846   12.7360    9.5128 C   0  0  0  0  0  0  0  0  0  0  0  0
    5.1583   12.3537    9.4989 C   0  0  0  0  0  0  0  0  0  0  0  0
    5.2513   11.0619    9.9142 O   0  0  0  0  0  0  0  0  0  0  0  0
 33 36  1  0  0  0
 33 32  2  0  0  0
 36 35  1  0  0  0
 32 34  1  0  0  0
 35 34  2  0  0  0
 35 28  1  0  0  0
 30 28  2  0  0  0
 28 29  1  0  0  0
 29  5  1  0  0  0
 14 12  2  0  0  0
  3  5  2  0  0  0
  3  6  1  0  0  0
  5  1  1  0  0  0
 12  6  1  0  0  0
 12 13  1  0  0  0
  6  2  2  0  0  0
  1  4  2  0  0  0
 26 27  1  0  0  0
 27 25  1  0  0  0
 17 16  2  0  0  0
 17 21  1  0  0  0
 16 19  1  0  0  0
 25 21  1  0  0  0
 21 20  2  0  0  0
 24 23  2  0  0  0
 19 23  1  0  0  0
 19 18  2  0  0  0
 23 22  1  0  0  0
 20 18  1  0  0  0
 20 13  1  0  0  0
  2  4  1  0  0  0
  4  9  1  0  0  0
  9  8  1  0  0  0
  8 10  2  0  0  0
  8  7  1  0  0  0
  9 11  1  0  0  0
 29 31  1  0  0  0
 13 15  1  0  0  0
M  END
> <minimizedAffinity>
-8.18483

$$$$
5NLK_92E_A_1201


 36 38  0  0  0  0  0  0  0  0999 V2000
    8.5261   15.0586    8.9568 C   0  0  0  0  0  0  0  0  0  0  0  0
    9.5252   12.8900    9.2587 C   0  0  0  0  0  0  0  0  0  0  0  0
   10.9033   14.8414    8.9297 C   0  0  0  0  0  0  0  0  0  0  0  0
    8.3771   13.6883    9.1594 C   0  0  0  0  0  0  0  0  0  0  0  0
    9.7731   15.6601    8.8542 C   0  0  0  0  0  0  0  0  0  0  0  0
   10.7979   13.4549    9.1326 C   0  0  0  0  0  0  0  0  0  0  0  0
    4.6850   13.2985    9.4412 C   0  0  0  0  0  0  0  0  0  0  0  0
    6.0149   14.0555    9.3208 C   0  0  0  0  0  0  0  0  0  0  0  0
    7.1024   13.2437    9.2640 N   0  0  0  0  0  0  0  0  0  0  0  0
    6.0120   15.2873    9.2870 O   0  0  0  0  0  0  0  0  0  0  0  0
    6.9545   12.2711    9.3012 H   0  0  0  0  0  0  0  0  0  0  0  0
   11.9718   12.6808    9.2317 C   0  0  0  0  0  0  0  0  0  0  0  0
   11.8570   11.4875    9.8566 N   0  0  0  0  0  0  0  0  0  0  0  0
   13.0384   13.1142    8.8030 O   0  0  0  0  0  0  0  0  0  0  0  0
   10.9683   11.1725   10.1397 H   0  0  0  0  0  0  0  0  0  0  0  0
   15.2104    9.1232   10.5418 C   0  0  0  0  0  0  0  0  0  0  0  0
   14.5301    9.6936   11.6186 C   0  0  0  0  0  0  0  0  0  0  0  0
   13.6377   10.1402    9.0325 C   0  0  0  0  0  0  0  0  0  0  0  0
   14.7630    9.3447    9.2425 C   0  0  0  0  0  0  0  0  0  0  0  0
   12.9452   10.7184   10.0994 C   0  0  0  0  0  0  0  0  0  0  0  0
   13.4080   10.4927   11.4071 C   0  0  0  0  0  0  0  0  0  0  0  0
   16.4112    7.6241    8.5060 C   0  0  0  0  0  0  0  0  0  0  0  0
   15.4324    8.7587    8.1675 C   0  0  0  0  0  0  0  0  0  0  0  0
   15.2907    9.1607    7.0145 O   0  0  0  0  0  0  0  0  0  0  0  0
   12.7188   11.0708   12.4332 O   0  0  0  0  0  0  0  0  0  0  0  0
   12.1985   11.2178   14.7705 C   0  0  0  0  0  0  0  0  0  0  0  0
   13.2081   10.7228   13.7327 C   0  0  0  0  0  0  0  0  0  0  0  0
   10.3080   17.5532    7.4977 C   0  0  0  0  0  0  0  0  0  0  0  0
    9.8013   16.9963    8.6286 N   0  0  0  0  0  0  0  0  0  0  0  0
   10.8347   16.9337    6.5740 O   0  0  0  0  0  0  0  0  0  0  0  0
    9.4356   17.5942    9.3200 H   0  0  0  0  0  0  0  0  0  0  0  0
    9.4077   20.9027    7.2971 C   0  0  0  0  0  0  0  0  0  0  0  0
   10.7389   21.0237    7.2455 C   0  0  0  0  0  0  0  0  0  0  0  0
    9.0857   19.6059    7.3967 C   0  0  0  0  0  0  0  0  0  0  0  0
   10.2086   18.8935    7.4133 C   0  0  0  0  0  0  0  0  0  0  0  0
   11.2791   19.7275    7.3206 O   0  0  0  0  0  0  0  0  0  0  0  0
 33 36  1  0  0  0
 33 32  2  0  0  0
 36 35  1  0  0  0
 32 34  1  0  0  0
 35 34  2  0  0  0
 35 28  1  0  0  0
 30 28  2  0  0  0
 28 29  1  0  0  0
 29  5  1  0  0  0
 14 12  2  0  0  0
  3  5  2  0  0  0
  3  6  1  0  0  0
  5  1  1  0  0  0
 12  6  1  0  0  0
 12 13  1  0  0  0
  6  2  2  0  0  0
  1  4  2  0  0  0
 26 27  1  0  0  0
 27 25  1  0  0  0
 17 16  2  0  0  0
 17 21  1  0  0  0
 16 19  1  0  0  0
 25 21  1  0  0  0
 21 20  2  0  0  0
 24 23  2  0  0  0
 19 23  1  0  0  0
 19 18  2  0  0  0
 23 22  1  0  0  0
 20 18  1  0  0  0
 20 13  1  0  0  0
  2  4  1  0  0  0
  4  9  1  0  0  0
  9  8  1  0  0  0
  8 10  2  0  0  0
  8  7  1  0  0  0
  9 11  1  0  0  0
 29 31  1  0  0  0
 13 15  1  0  0  0
M  END
> <minimizedAffinity>
-8.09115

$$$$
5NLK_92E_A_1201


 36 38  0  0  0  0  0  0  0  0999 V2000
   15.0401    9.4546    8.4978 C   0  0  0  0  0  0  0  0  0  0  0  0
   13.9886   11.1141    7.1076 C   0  0  0  0  0  0  0  0  0  0  0  0
   13.2949   10.8127    9.3974 C   0  0  0  0  0  0  0  0  0  0  0  0
   14.9324   10.0892    7.2621 C   0  0  0  0  0  0  0  0  0  0  0  0
   14.2471    9.8063    9.5817 C   0  0  0  0  0  0  0  0  0  0  0  0
   13.1527   11.4777    8.1677 C   0  0  0  0  0  0  0  0  0  0  0  0
   16.5605    8.6767    4.2262 C   0  0  0  0  0  0  0  0  0  0  0  0
   15.3941    9.0752    5.1409 C   0  0  0  0  0  0  0  0  0  0  0  0
   15.7860    9.6590    6.3030 N   0  0  0  0  0  0  0  0  0  0  0  0
   14.2366    8.8503    4.7826 O   0  0  0  0  0  0  0  0  0  0  0  0
   16.7511    9.7767    6.4577 H   0  0  0  0  0  0  0  0  0  0  0  0
   12.1967   12.5065    8.0461 C   0  0  0  0  0  0  0  0  0  0  0  0
   11.5309   12.8481    9.1720 N   0  0  0  0  0  0  0  0  0  0  0  0
   11.9703   13.0164    6.9515 O   0  0  0  0  0  0  0  0  0  0  0  0
   11.7861   12.4368   10.0293 H   0  0  0  0  0  0  0  0  0  0  0  0
    8.3806   15.5632    9.0822 C   0  0  0  0  0  0  0  0  0  0  0  0
    9.6974   16.0253    9.0657 C   0  0  0  0  0  0  0  0  0  0  0  0
    9.1943   13.3009    9.1556 C   0  0  0  0  0  0  0  0  0  0  0  0
    8.1257   14.1956    9.1255 C   0  0  0  0  0  0  0  0  0  0  0  0
   10.5182   13.7470    9.1395 C   0  0  0  0  0  0  0  0  0  0  0  0
   10.7649   15.1301    9.1008 C   0  0  0  0  0  0  0  0  0  0  0  0
    6.6176   12.2095    9.1545 C   0  0  0  0  0  0  0  0  0  0  0  0
    6.8090   13.7335    9.1228 C   0  0  0  0  0  0  0  0  0  0  0  0
    5.8502   14.4988    9.0452 O   0  0  0  0  0  0  0  0  0  0  0  0
   12.0654   15.5430    9.0901 O   0  0  0  0  0  0  0  0  0  0  0  0
   13.4331   16.1497    7.2149 C   0  0  0  0  0  0  0  0  0  0  0  0
   12.3309   16.6086    8.1718 C   0  0  0  0  0  0  0  0  0  0  0  0
   14.9837    9.6240   11.8476 C   0  0  0  0  0  0  0  0  0  0  0  0
   14.4158    9.1037   10.7284 N   0  0  0  0  0  0  0  0  0  0  0  0
   15.4476   10.7594   11.9478 O   0  0  0  0  0  0  0  0  0  0  0  0
   14.1110    8.1678   10.7515 H   0  0  0  0  0  0  0  0  0  0  0  0
   15.0246    8.0578   14.9484 C   0  0  0  0  0  0  0  0  0  0  0  0
   15.1802    6.9918   14.1555 C   0  0  0  0  0  0  0  0  0  0  0  0
   14.9329    9.1606   14.1929 C   0  0  0  0  0  0  0  0  0  0  0  0
   15.0252    8.8040   12.9150 C   0  0  0  0  0  0  0  0  0  0  0  0
   15.1822    7.4558   12.8280 O   0  0  0  0  0  0  0  0  0  0  0  0
 33 36  1  0  0  0
 33 32  2  0  0  0
 36 35  1  0  0  0
 32 34  1  0  0  0
 35 34  2  0  0  0
 35 28  1  0  0  0
 30 28  2  0  0  0
 28 29  1  0  0  0
 29  5  1  0  0  0
 14 12  2  0  0  0
  3  5  2  0  0  0
  3  6  1  0  0  0
  5  1  1  0  0  0
 12  6  1  0  0  0
 12 13  1  0  0  0
  6  2  2  0  0  0
  1  4  2  0  0  0
 26 27  1  0  0  0
 27 25  1  0  0  0
 17 16  2  0  0  0
 17 21  1  0  0  0
 16 19  1  0  0  0
 25 21  1  0  0  0
 21 20  2  0  0  0
 24 23  2  0  0  0
 19 23  1  0  0  0
 19 18  2  0  0  0
 23 22  1  0  0  0
 20 18  1  0  0  0
 20 13  1  0  0  0
  2  4  1  0  0  0
  4  9  1  0  0  0
  9  8  1  0  0  0
  8 10  2  0  0  0
  8  7  1  0  0  0
  9 11  1  0  0  0
 29 31  1  0  0  0
 13 15  1  0  0  0
M  END
> <minimizedAffinity>
-8.05116

$$$$
