1DET_2GP_A_105


 31 33  0  0  0  0  0  0  0  0999 V2000
   23.4670  -43.9566    3.5461 C   0  0  0  0  0  0  0  0  0  0  0  0
   23.6412  -45.3914    3.3851 O   0  0  0  0  0  0  0  0  0  0  0  0
   23.2064  -43.7247    5.0050 C   0  0  0  0  0  0  0  0  0  0  0  0
   21.8614  -43.2570    5.2709 O   0  0  0  0  0  0  0  0  0  0  0  0
   23.1153  -45.1098    5.6661 C   0  0  0  0  0  0  0  0  0  0  0  0
   23.1361  -46.0661    4.5089 C   0  0  0  0  0  0  0  0  0  0  0  0
   21.2219  -43.9112    4.9485 H   0  0  0  0  0  0  0  0  0  0  0  0
   23.8891  -47.3529    4.6825 N   0  0  0  0  0  0  0  0  0  0  0  0
   23.4870  -48.6206    5.0133 C   0  0  0  0  0  0  0  0  0  0  0  0
   24.4571  -49.4751    5.0270 N   0  0  0  0  0  0  0  0  0  0  0  0
   25.5894  -48.7017    4.6882 C   0  0  0  0  0  0  0  0  0  0  0  0
   26.9620  -49.0743    4.5295 C   0  0  0  0  0  0  0  0  0  0  0  0
   27.4188  -50.1908    4.6771 O   0  0  0  0  0  0  0  0  0  0  0  0
   27.7616  -47.9666    4.2428 N   0  0  0  0  0  0  0  0  0  0  0  0
   27.3319  -46.6648    4.0573 C   0  0  0  0  0  0  0  0  0  0  0  0
   28.2769  -45.7986    3.7373 N   0  0  0  0  0  0  0  0  0  0  0  0
   26.0492  -46.3242    4.1711 N   0  0  0  0  0  0  0  0  0  0  0  0
   25.2575  -47.3799    4.4868 C   0  0  0  0  0  0  0  0  0  0  0  0
   28.7296  -48.1282    4.1646 H   0  0  0  0  0  0  0  0  0  0  0  0
   29.2127  -46.0956    3.6645 H   0  0  0  0  0  0  0  0  0  0  0  0
   28.0453  -44.8562    3.5716 H   0  0  0  0  0  0  0  0  0  0  0  0
   25.8679  -43.5186    3.7446 O   0  0  0  0  0  0  0  0  0  0  0  0
   24.7154  -43.3387    2.9018 C   0  0  0  0  0  0  0  0  0  0  0  0
   26.6443  -43.1217    3.3196 H   0  0  0  0  0  0  0  0  0  0  0  0
   24.0366  -45.2757    6.6597 O   0  0  0  0  0  0  0  0  0  0  0  0
   23.7883  -45.6760    8.0777 P   0  0  0  0  0  0  0  0  0  0  0  0
   24.7726  -45.4802    9.0739 O   0  0  0  0  0  0  0  0  0  0  0  0
   23.0761  -46.8757    8.3242 O   0  0  0  0  0  0  0  0  0  0  0  0
   22.8266  -44.6638    8.5024 O   0  0  0  0  0  0  0  0  0  0  0  0
   22.9892  -47.0094    9.2810 H   0  0  0  0  0  0  0  0  0  0  0  0
   22.5813  -44.8190    9.4280 H   0  0  0  0  0  0  0  0  0  0  0  0
 26 27  2  0  0  0
 26 28  1  0  0  0
 26 29  1  0  0  0
 26 25  1  0  0  0
 22 23  1  0  0  0
 23  1  1  0  0  0
  1  2  1  0  0  0
  1  3  1  0  0  0
  2  6  1  0  0  0
  3  4  1  0  0  0
  3  5  1  0  0  0
  5 25  1  0  0  0
  5  6  1  0  0  0
  6  8  1  0  0  0
  8  9  1  0  0  0
  8 18  1  0  0  0
  9 10  2  0  0  0
 10 11  1  0  0  0
 11 12  1  0  0  0
 11 18  2  0  0  0
 12 13  2  0  0  0
 12 14  1  0  0  0
 14 15  1  0  0  0
 15 16  1  0  0  0
 15 17  2  0  0  0
 17 18  1  0  0  0
 28 30  1  0  0  0
 29 31  1  0  0  0
 22 24  1  0  0  0
  4  7  1  0  0  0
 14 19  1  0  0  0
 16 20  1  0  0  0
 16 21  1  0  0  0
M  END
> <minimizedAffinity>
-8.13468

$$$$
1DET_2GP_A_105


 31 33  0  0  0  0  0  0  0  0999 V2000
   27.5239  -46.7288    3.1146 C   0  0  0  0  0  0  0  0  0  0  0  0
   26.7627  -45.5757    3.5686 O   0  0  0  0  0  0  0  0  0  0  0  0
   26.7596  -47.9403    3.5598 C   0  0  0  0  0  0  0  0  0  0  0  0
   27.4542  -48.7041    4.5760 O   0  0  0  0  0  0  0  0  0  0  0  0
   25.5776  -47.4351    4.4035 C   0  0  0  0  0  0  0  0  0  0  0  0
   25.8431  -45.9654    4.5564 C   0  0  0  0  0  0  0  0  0  0  0  0
   27.6117  -48.1427    5.3512 H   0  0  0  0  0  0  0  0  0  0  0  0
   24.6643  -45.0371    4.5165 N   0  0  0  0  0  0  0  0  0  0  0  0
   24.1130  -44.2874    3.5104 C   0  0  0  0  0  0  0  0  0  0  0  0
   23.0608  -43.6336    3.8805 N   0  0  0  0  0  0  0  0  0  0  0  0
   22.9174  -43.9742    5.2437 C   0  0  0  0  0  0  0  0  0  0  0  0
   21.9355  -43.5795    6.2072 C   0  0  0  0  0  0  0  0  0  0  0  0
   21.0016  -42.8283    6.0059 O   0  0  0  0  0  0  0  0  0  0  0  0
   22.2121  -44.1145    7.4664 N   0  0  0  0  0  0  0  0  0  0  0  0
   23.2467  -44.9747    7.7881 C   0  0  0  0  0  0  0  0  0  0  0  0
   23.2657  -45.3906    9.0421 N   0  0  0  0  0  0  0  0  0  0  0  0
   24.1408  -45.3696    6.8832 N   0  0  0  0  0  0  0  0  0  0  0  0
   23.9129  -44.8312    5.6587 C   0  0  0  0  0  0  0  0  0  0  0  0
   21.6099  -43.8531    8.2001 H   0  0  0  0  0  0  0  0  0  0  0  0
   22.5840  -45.0718    9.6768 H   0  0  0  0  0  0  0  0  0  0  0  0
   23.9617  -46.0192    9.3418 H   0  0  0  0  0  0  0  0  0  0  0  0
   28.5791  -45.3425    1.3941 O   0  0  0  0  0  0  0  0  0  0  0  0
   27.7362  -46.4880    1.6139 C   0  0  0  0  0  0  0  0  0  0  0  0
   28.7002  -45.2083    0.4411 H   0  0  0  0  0  0  0  0  0  0  0  0
   24.3710  -47.8260    3.8985 O   0  0  0  0  0  0  0  0  0  0  0  0
   23.3248  -48.6540    4.5710 P   0  0  0  0  0  0  0  0  0  0  0  0
   22.2943  -49.2728    3.8262 O   0  0  0  0  0  0  0  0  0  0  0  0
   22.8288  -48.2235    5.8265 O   0  0  0  0  0  0  0  0  0  0  0  0
   24.0866  -49.8425    4.9411 O   0  0  0  0  0  0  0  0  0  0  0  0
   22.1608  -48.8516    6.1428 H   0  0  0  0  0  0  0  0  0  0  0  0
   23.5044  -50.4711    5.3959 H   0  0  0  0  0  0  0  0  0  0  0  0
 26 27  2  0  0  0
 26 28  1  0  0  0
 26 29  1  0  0  0
 26 25  1  0  0  0
 22 23  1  0  0  0
 23  1  1  0  0  0
  1  2  1  0  0  0
  1  3  1  0  0  0
  2  6  1  0  0  0
  3  4  1  0  0  0
  3  5  1  0  0  0
  5 25  1  0  0  0
  5  6  1  0  0  0
  6  8  1  0  0  0
  8  9  1  0  0  0
  8 18  1  0  0  0
  9 10  2  0  0  0
 10 11  1  0  0  0
 11 12  1  0  0  0
 11 18  2  0  0  0
 12 13  2  0  0  0
 12 14  1  0  0  0
 14 15  1  0  0  0
 15 16  1  0  0  0
 15 17  2  0  0  0
 17 18  1  0  0  0
 28 30  1  0  0  0
 29 31  1  0  0  0
 22 24  1  0  0  0
  4  7  1  0  0  0
 14 19  1  0  0  0
 16 20  1  0  0  0
 16 21  1  0  0  0
M  END
> <minimizedAffinity>
-7.54537

$$$$
1DET_2GP_A_105


 31 33  0  0  0  0  0  0  0  0999 V2000
   25.6230  -47.8976    4.6283 C   0  0  0  0  0  0  0  0  0  0  0  0
   25.5146  -46.9379    5.7156 O   0  0  0  0  0  0  0  0  0  0  0  0
   24.2234  -48.3323    4.3085 C   0  0  0  0  0  0  0  0  0  0  0  0
   23.9745  -49.7209    4.6373 O   0  0  0  0  0  0  0  0  0  0  0  0
   23.3037  -47.6697    5.3473 C   0  0  0  0  0  0  0  0  0  0  0  0
   24.2543  -47.0444    6.3268 C   0  0  0  0  0  0  0  0  0  0  0  0
   24.1269  -49.8611    5.5849 H   0  0  0  0  0  0  0  0  0  0  0  0
   23.8805  -45.7109    6.9055 N   0  0  0  0  0  0  0  0  0  0  0  0
   23.2675  -45.3520    8.0775 C   0  0  0  0  0  0  0  0  0  0  0  0
   23.1548  -44.0722    8.2222 N   0  0  0  0  0  0  0  0  0  0  0  0
   23.7312  -43.5501    7.0431 C   0  0  0  0  0  0  0  0  0  0  0  0
   23.9164  -42.1977    6.6132 C   0  0  0  0  0  0  0  0  0  0  0  0
   23.5797  -41.2031    7.2253 O   0  0  0  0  0  0  0  0  0  0  0  0
   24.4845  -42.1403    5.3394 N   0  0  0  0  0  0  0  0  0  0  0  0
   24.8981  -43.2141    4.5715 C   0  0  0  0  0  0  0  0  0  0  0  0
   25.4606  -42.8996    3.4180 N   0  0  0  0  0  0  0  0  0  0  0  0
   24.7571  -44.4719    4.9866 N   0  0  0  0  0  0  0  0  0  0  0  0
   24.1720  -44.5532    6.2081 C   0  0  0  0  0  0  0  0  0  0  0  0
   24.6028  -41.2448    4.9478 H   0  0  0  0  0  0  0  0  0  0  0  0
   25.5435  -41.9554    3.1520 H   0  0  0  0  0  0  0  0  0  0  0  0
   25.7968  -43.6096    2.8246 H   0  0  0  0  0  0  0  0  0  0  0  0
   27.8490  -47.2142    3.8711 O   0  0  0  0  0  0  0  0  0  0  0  0
   26.4462  -47.1753    3.5530 C   0  0  0  0  0  0  0  0  0  0  0  0
   28.3501  -46.7531    3.1803 H   0  0  0  0  0  0  0  0  0  0  0  0
   22.3524  -46.8773    4.7723 O   0  0  0  0  0  0  0  0  0  0  0  0
   20.9905  -47.2777    4.3060 P   0  0  0  0  0  0  0  0  0  0  0  0
   20.7566  -47.6333    2.9575 O   0  0  0  0  0  0  0  0  0  0  0  0
   19.8691  -46.5889    4.8308 O   0  0  0  0  0  0  0  0  0  0  0  0
   20.8476  -48.5942    4.9192 O   0  0  0  0  0  0  0  0  0  0  0  0
   19.0569  -46.9506    4.4430 H   0  0  0  0  0  0  0  0  0  0  0  0
   19.9834  -48.9677    4.6853 H   0  0  0  0  0  0  0  0  0  0  0  0
 26 27  2  0  0  0
 26 28  1  0  0  0
 26 29  1  0  0  0
 26 25  1  0  0  0
 22 23  1  0  0  0
 23  1  1  0  0  0
  1  2  1  0  0  0
  1  3  1  0  0  0
  2  6  1  0  0  0
  3  4  1  0  0  0
  3  5  1  0  0  0
  5 25  1  0  0  0
  5  6  1  0  0  0
  6  8  1  0  0  0
  8  9  1  0  0  0
  8 18  1  0  0  0
  9 10  2  0  0  0
 10 11  1  0  0  0
 11 12  1  0  0  0
 11 18  2  0  0  0
 12 13  2  0  0  0
 12 14  1  0  0  0
 14 15  1  0  0  0
 15 16  1  0  0  0
 15 17  2  0  0  0
 17 18  1  0  0  0
 28 30  1  0  0  0
 29 31  1  0  0  0
 22 24  1  0  0  0
  4  7  1  0  0  0
 14 19  1  0  0  0
 16 20  1  0  0  0
 16 21  1  0  0  0
M  END
> <minimizedAffinity>
-7.17495

$$$$
1DET_2GP_A_105


 31 33  0  0  0  0  0  0  0  0999 V2000
   23.2360  -44.6898    6.2673 C   0  0  0  0  0  0  0  0  0  0  0  0
   24.4583  -44.7230    5.4801 O   0  0  0  0  0  0  0  0  0  0  0  0
   22.4849  -45.9444    5.9328 C   0  0  0  0  0  0  0  0  0  0  0  0
   21.2532  -45.6904    5.2140 O   0  0  0  0  0  0  0  0  0  0  0  0
   23.2736  -46.6509    4.8179 C   0  0  0  0  0  0  0  0  0  0  0  0
   24.3347  -45.6585    4.4395 C   0  0  0  0  0  0  0  0  0  0  0  0
   21.4519  -45.2256    4.3861 H   0  0  0  0  0  0  0  0  0  0  0  0
   25.6965  -46.1906    4.0999 N   0  0  0  0  0  0  0  0  0  0  0  0
   26.6835  -46.7567    4.8637 C   0  0  0  0  0  0  0  0  0  0  0  0
   27.7150  -47.1210    4.1745 N   0  0  0  0  0  0  0  0  0  0  0  0
   27.3809  -46.7532    2.8523 C   0  0  0  0  0  0  0  0  0  0  0  0
   28.1084  -46.9022    1.6289 C   0  0  0  0  0  0  0  0  0  0  0  0
   29.2132  -47.3950    1.5125 O   0  0  0  0  0  0  0  0  0  0  0  0
   27.4186  -46.3402    0.5533 N   0  0  0  0  0  0  0  0  0  0  0  0
   26.1628  -45.7612    0.5906 C   0  0  0  0  0  0  0  0  0  0  0  0
   25.6960  -45.3500   -0.5751 N   0  0  0  0  0  0  0  0  0  0  0  0
   25.4709  -45.6535    1.7237 N   0  0  0  0  0  0  0  0  0  0  0  0
   26.1390  -46.1602    2.7904 C   0  0  0  0  0  0  0  0  0  0  0  0
   27.8719  -46.3577   -0.3205 H   0  0  0  0  0  0  0  0  0  0  0  0
   26.2432  -45.4499   -1.3874 H   0  0  0  0  0  0  0  0  0  0  0  0
   24.8010  -44.9438   -0.6314 H   0  0  0  0  0  0  0  0  0  0  0  0
   23.6741  -43.0640    8.0451 O   0  0  0  0  0  0  0  0  0  0  0  0
   23.7087  -44.4630    7.7097 C   0  0  0  0  0  0  0  0  0  0  0  0
   23.9760  -42.9430    8.9589 H   0  0  0  0  0  0  0  0  0  0  0  0
   23.6621  -47.9110    5.1713 O   0  0  0  0  0  0  0  0  0  0  0  0
   23.7671  -49.1144    4.2920 P   0  0  0  0  0  0  0  0  0  0  0  0
   24.9766  -49.8398    4.1898 O   0  0  0  0  0  0  0  0  0  0  0  0
   23.1024  -49.0947    3.0409 O   0  0  0  0  0  0  0  0  0  0  0  0
   22.9763  -50.0894    5.0362 O   0  0  0  0  0  0  0  0  0  0  0  0
   23.2556  -49.9344    2.5801 H   0  0  0  0  0  0  0  0  0  0  0  0
   22.9678  -50.9325    4.5567 H   0  0  0  0  0  0  0  0  0  0  0  0
 26 27  2  0  0  0
 26 28  1  0  0  0
 26 29  1  0  0  0
 26 25  1  0  0  0
 22 23  1  0  0  0
 23  1  1  0  0  0
  1  2  1  0  0  0
  1  3  1  0  0  0
  2  6  1  0  0  0
  3  4  1  0  0  0
  3  5  1  0  0  0
  5 25  1  0  0  0
  5  6  1  0  0  0
  6  8  1  0  0  0
  8  9  1  0  0  0
  8 18  1  0  0  0
  9 10  2  0  0  0
 10 11  1  0  0  0
 11 12  1  0  0  0
 11 18  2  0  0  0
 12 13  2  0  0  0
 12 14  1  0  0  0
 14 15  1  0  0  0
 15 16  1  0  0  0
 15 17  2  0  0  0
 17 18  1  0  0  0
 28 30  1  0  0  0
 29 31  1  0  0  0
 22 24  1  0  0  0
  4  7  1  0  0  0
 14 19  1  0  0  0
 16 20  1  0  0  0
 16 21  1  0  0  0
M  END
> <minimizedAffinity>
-7.16466

$$$$
1DET_2GP_A_105


 31 33  0  0  0  0  0  0  0  0999 V2000
   23.0017  -41.8345    5.6228 C   0  0  0  0  0  0  0  0  0  0  0  0
   23.0263  -43.2182    6.0697 O   0  0  0  0  0  0  0  0  0  0  0  0
   23.6628  -41.8145    4.2764 C   0  0  0  0  0  0  0  0  0  0  0  0
   24.9264  -41.1062    4.2784 O   0  0  0  0  0  0  0  0  0  0  0  0
   24.1841  -43.2373    4.0159 C   0  0  0  0  0  0  0  0  0  0  0  0
   23.9616  -43.9493    5.3188 C   0  0  0  0  0  0  0  0  0  0  0  0
   25.5322  -41.5275    4.9079 H   0  0  0  0  0  0  0  0  0  0  0  0
   23.5249  -45.3842    5.2624 N   0  0  0  0  0  0  0  0  0  0  0  0
   22.3050  -45.9855    5.4315 C   0  0  0  0  0  0  0  0  0  0  0  0
   22.3417  -47.2672    5.2663 N   0  0  0  0  0  0  0  0  0  0  0  0
   23.6991  -47.5285    4.9762 C   0  0  0  0  0  0  0  0  0  0  0  0
   24.3728  -48.7574    4.6861 C   0  0  0  0  0  0  0  0  0  0  0  0
   23.8602  -49.8586    4.6456 O   0  0  0  0  0  0  0  0  0  0  0  0
   25.7439  -48.5596    4.5145 N   0  0  0  0  0  0  0  0  0  0  0  0
   26.4126  -47.3489    4.5423 C   0  0  0  0  0  0  0  0  0  0  0  0
   27.7089  -47.4141    4.2948 N   0  0  0  0  0  0  0  0  0  0  0  0
   25.7798  -46.2008    4.7783 N   0  0  0  0  0  0  0  0  0  0  0  0
   24.4500  -46.3736    4.9855 C   0  0  0  0  0  0  0  0  0  0  0  0
   26.2906  -49.3633    4.3577 H   0  0  0  0  0  0  0  0  0  0  0  0
   28.1345  -48.2857    4.1259 H   0  0  0  0  0  0  0  0  0  0  0  0
   28.2491  -46.5912    4.2794 H   0  0  0  0  0  0  0  0  0  0  0  0
   20.7628  -42.4241    6.4197 O   0  0  0  0  0  0  0  0  0  0  0  0
   21.5302  -41.4143    5.7399 C   0  0  0  0  0  0  0  0  0  0  0  0
   19.8377  -42.1392    6.4830 H   0  0  0  0  0  0  0  0  0  0  0  0
   23.6602  -43.7856    2.8808 O   0  0  0  0  0  0  0  0  0  0  0  0
   24.3949  -44.4692    1.7738 P   0  0  0  0  0  0  0  0  0  0  0  0
   24.3658  -43.9594    0.4552 O   0  0  0  0  0  0  0  0  0  0  0  0
   24.4100  -45.8858    1.7493 O   0  0  0  0  0  0  0  0  0  0  0  0
   25.7811  -44.1604    2.1093 O   0  0  0  0  0  0  0  0  0  0  0  0
   24.9193  -46.1905    0.9820 H   0  0  0  0  0  0  0  0  0  0  0  0
   26.3700  -44.5585    1.4492 H   0  0  0  0  0  0  0  0  0  0  0  0
 26 27  2  0  0  0
 26 28  1  0  0  0
 26 29  1  0  0  0
 26 25  1  0  0  0
 22 23  1  0  0  0
 23  1  1  0  0  0
  1  2  1  0  0  0
  1  3  1  0  0  0
  2  6  1  0  0  0
  3  4  1  0  0  0
  3  5  1  0  0  0
  5 25  1  0  0  0
  5  6  1  0  0  0
  6  8  1  0  0  0
  8  9  1  0  0  0
  8 18  1  0  0  0
  9 10  2  0  0  0
 10 11  1  0  0  0
 11 12  1  0  0  0
 11 18  2  0  0  0
 12 13  2  0  0  0
 12 14  1  0  0  0
 14 15  1  0  0  0
 15 16  1  0  0  0
 15 17  2  0  0  0
 17 18  1  0  0  0
 28 30  1  0  0  0
 29 31  1  0  0  0
 22 24  1  0  0  0
  4  7  1  0  0  0
 14 19  1  0  0  0
 16 20  1  0  0  0
 16 21  1  0  0  0
M  END
> <minimizedAffinity>
-6.71249

$$$$
1DET_2GP_A_105


 31 33  0  0  0  0  0  0  0  0999 V2000
   24.0240  -45.7374    8.0105 C   0  0  0  0  0  0  0  0  0  0  0  0
   24.4252  -46.1320    6.6694 O   0  0  0  0  0  0  0  0  0  0  0  0
   23.1736  -44.5119    7.8526 C   0  0  0  0  0  0  0  0  0  0  0  0
   23.7941  -43.3205    8.3947 O   0  0  0  0  0  0  0  0  0  0  0  0
   23.2010  -44.1408    6.3607 C   0  0  0  0  0  0  0  0  0  0  0  0
   24.2280  -45.0664    5.7756 C   0  0  0  0  0  0  0  0  0  0  0  0
   24.6394  -43.1633    7.9457 H   0  0  0  0  0  0  0  0  0  0  0  0
   23.9645  -45.6227    4.4067 N   0  0  0  0  0  0  0  0  0  0  0  0
   22.8094  -45.9823    3.7626 C   0  0  0  0  0  0  0  0  0  0  0  0
   23.0078  -46.3952    2.5537 N   0  0  0  0  0  0  0  0  0  0  0  0
   24.4089  -46.3098    2.3965 C   0  0  0  0  0  0  0  0  0  0  0  0
   25.2438  -46.6161    1.2752 C   0  0  0  0  0  0  0  0  0  0  0  0
   24.8659  -47.0376    0.1997 O   0  0  0  0  0  0  0  0  0  0  0  0
   26.5941  -46.4373    1.5803 N   0  0  0  0  0  0  0  0  0  0  0  0
   27.1151  -45.9638    2.7712 C   0  0  0  0  0  0  0  0  0  0  0  0
   28.4291  -45.8283    2.7982 N   0  0  0  0  0  0  0  0  0  0  0  0
   26.3354  -45.6459    3.8033 N   0  0  0  0  0  0  0  0  0  0  0  0
   25.0194  -45.8476    3.5417 C   0  0  0  0  0  0  0  0  0  0  0  0
   27.2415  -46.6721    0.8767 H   0  0  0  0  0  0  0  0  0  0  0  0
   28.9658  -46.0763    2.0110 H   0  0  0  0  0  0  0  0  0  0  0  0
   28.8715  -45.4794    3.6055 H   0  0  0  0  0  0  0  0  0  0  0  0
   22.9366  -47.8903    7.5882 O   0  0  0  0  0  0  0  0  0  0  0  0
   23.4061  -47.0033    8.6196 C   0  0  0  0  0  0  0  0  0  0  0  0
   22.5507  -48.6823    7.9939 H   0  0  0  0  0  0  0  0  0  0  0  0
   21.9545  -44.1220    5.8045 O   0  0  0  0  0  0  0  0  0  0  0  0
   21.0494  -42.9457    5.6317 P   0  0  0  0  0  0  0  0  0  0  0  0
   20.4098  -42.3483    6.7424 O   0  0  0  0  0  0  0  0  0  0  0  0
   20.1963  -42.9124    4.5009 O   0  0  0  0  0  0  0  0  0  0  0  0
   22.0036  -41.8869    5.3187 O   0  0  0  0  0  0  0  0  0  0  0  0
   19.6695  -42.0981    4.5172 H   0  0  0  0  0  0  0  0  0  0  0  0
   21.5276  -41.0529    5.1814 H   0  0  0  0  0  0  0  0  0  0  0  0
 26 27  2  0  0  0
 26 28  1  0  0  0
 26 29  1  0  0  0
 26 25  1  0  0  0
 22 23  1  0  0  0
 23  1  1  0  0  0
  1  2  1  0  0  0
  1  3  1  0  0  0
  2  6  1  0  0  0
  3  4  1  0  0  0
  3  5  1  0  0  0
  5 25  1  0  0  0
  5  6  1  0  0  0
  6  8  1  0  0  0
  8  9  1  0  0  0
  8 18  1  0  0  0
  9 10  2  0  0  0
 10 11  1  0  0  0
 11 12  1  0  0  0
 11 18  2  0  0  0
 12 13  2  0  0  0
 12 14  1  0  0  0
 14 15  1  0  0  0
 15 16  1  0  0  0
 15 17  2  0  0  0
 17 18  1  0  0  0
 28 30  1  0  0  0
 29 31  1  0  0  0
 22 24  1  0  0  0
  4  7  1  0  0  0
 14 19  1  0  0  0
 16 20  1  0  0  0
 16 21  1  0  0  0
M  END
> <minimizedAffinity>
-6.67394

$$$$
1DET_2GP_A_105


 31 33  0  0  0  0  0  0  0  0999 V2000
   23.4929  -45.7623    0.9863 C   0  0  0  0  0  0  0  0  0  0  0  0
   23.0706  -45.4159    2.3341 O   0  0  0  0  0  0  0  0  0  0  0  0
   24.9748  -45.9847    1.0530 C   0  0  0  0  0  0  0  0  0  0  0  0
   25.7293  -44.9827    0.3283 O   0  0  0  0  0  0  0  0  0  0  0  0
   25.4138  -45.6298    2.4831 C   0  0  0  0  0  0  0  0  0  0  0  0
   24.1826  -45.0355    3.1035 C   0  0  0  0  0  0  0  0  0  0  0  0
   25.5371  -44.1055    0.6950 H   0  0  0  0  0  0  0  0  0  0  0  0
   23.9074  -45.3511    4.5448 N   0  0  0  0  0  0  0  0  0  0  0  0
   23.6852  -46.5310    5.2056 C   0  0  0  0  0  0  0  0  0  0  0  0
   23.5176  -46.3782    6.4784 N   0  0  0  0  0  0  0  0  0  0  0  0
   23.6279  -44.9825    6.6653 C   0  0  0  0  0  0  0  0  0  0  0  0
   23.5457  -44.1895    7.8538 C   0  0  0  0  0  0  0  0  0  0  0  0
   23.3453  -44.6080    8.9770 O   0  0  0  0  0  0  0  0  0  0  0  0
   23.6568  -42.8278    7.5675 N   0  0  0  0  0  0  0  0  0  0  0  0
   23.8851  -42.2618    6.3260 C   0  0  0  0  0  0  0  0  0  0  0  0
   24.0086  -40.9463    6.3195 N   0  0  0  0  0  0  0  0  0  0  0  0
   23.9961  -43.0025    5.2246 N   0  0  0  0  0  0  0  0  0  0  0  0
   23.8538  -44.3287    5.4739 C   0  0  0  0  0  0  0  0  0  0  0  0
   23.5631  -42.2072    8.3260 H   0  0  0  0  0  0  0  0  0  0  0  0
   23.9187  -40.4393    7.1586 H   0  0  0  0  0  0  0  0  0  0  0  0
   24.1904  -40.4731    5.4756 H   0  0  0  0  0  0  0  0  0  0  0  0
   22.9503  -48.1330    1.2710 O   0  0  0  0  0  0  0  0  0  0  0  0
   22.5793  -46.9266    0.5799 C   0  0  0  0  0  0  0  0  0  0  0  0
   22.3617  -48.8548    1.0003 H   0  0  0  0  0  0  0  0  0  0  0  0
   26.0184  -46.6760    3.1184 O   0  0  0  0  0  0  0  0  0  0  0  0
   27.4758  -46.8591    3.3922 P   0  0  0  0  0  0  0  0  0  0  0  0
   28.3884  -47.1152    2.3429 O   0  0  0  0  0  0  0  0  0  0  0  0
   27.8586  -47.5699    4.5565 O   0  0  0  0  0  0  0  0  0  0  0  0
   27.8834  -45.4978    3.7244 O   0  0  0  0  0  0  0  0  0  0  0  0
   28.8264  -47.6114    4.6064 H   0  0  0  0  0  0  0  0  0  0  0  0
   28.8321  -45.4845    3.9265 H   0  0  0  0  0  0  0  0  0  0  0  0
 26 27  2  0  0  0
 26 28  1  0  0  0
 26 29  1  0  0  0
 26 25  1  0  0  0
 22 23  1  0  0  0
 23  1  1  0  0  0
  1  2  1  0  0  0
  1  3  1  0  0  0
  2  6  1  0  0  0
  3  4  1  0  0  0
  3  5  1  0  0  0
  5 25  1  0  0  0
  5  6  1  0  0  0
  6  8  1  0  0  0
  8  9  1  0  0  0
  8 18  1  0  0  0
  9 10  2  0  0  0
 10 11  1  0  0  0
 11 12  1  0  0  0
 11 18  2  0  0  0
 12 13  2  0  0  0
 12 14  1  0  0  0
 14 15  1  0  0  0
 15 16  1  0  0  0
 15 17  2  0  0  0
 17 18  1  0  0  0
 28 30  1  0  0  0
 29 31  1  0  0  0
 22 24  1  0  0  0
  4  7  1  0  0  0
 14 19  1  0  0  0
 16 20  1  0  0  0
 16 21  1  0  0  0
M  END
> <minimizedAffinity>
-6.60125

$$$$
1DET_2GP_A_105


 31 33  0  0  0  0  0  0  0  0999 V2000
   26.0437  -45.3384    2.7222 C   0  0  0  0  0  0  0  0  0  0  0  0
   24.9243  -46.2198    2.4304 O   0  0  0  0  0  0  0  0  0  0  0  0
   25.9035  -44.9417    4.1620 C   0  0  0  0  0  0  0  0  0  0  0  0
   25.5990  -43.5358    4.3331 O   0  0  0  0  0  0  0  0  0  0  0  0
   24.5770  -45.5383    4.6606 C   0  0  0  0  0  0  0  0  0  0  0  0
   23.9346  -46.0831    3.4178 C   0  0  0  0  0  0  0  0  0  0  0  0
   24.7679  -43.3273    3.8785 H   0  0  0  0  0  0  0  0  0  0  0  0
   23.1809  -47.3760    3.5330 N   0  0  0  0  0  0  0  0  0  0  0  0
   23.5532  -48.6816    3.3462 C   0  0  0  0  0  0  0  0  0  0  0  0
   22.5991  -49.5218    3.5813 N   0  0  0  0  0  0  0  0  0  0  0  0
   21.5091  -48.6985    3.9408 C   0  0  0  0  0  0  0  0  0  0  0  0
   20.1715  -49.0336    4.3239 C   0  0  0  0  0  0  0  0  0  0  0  0
   19.7129  -50.1563    4.4022 O   0  0  0  0  0  0  0  0  0  0  0  0
   19.4012  -47.8899    4.5410 N   0  0  0  0  0  0  0  0  0  0  0  0
   19.8355  -46.5781    4.4758 C   0  0  0  0  0  0  0  0  0  0  0  0
   18.9279  -45.6672    4.7797 N   0  0  0  0  0  0  0  0  0  0  0  0
   21.0898  -46.2673    4.1528 N   0  0  0  0  0  0  0  0  0  0  0  0
   21.8481  -47.3639    3.9005 C   0  0  0  0  0  0  0  0  0  0  0  0
   18.4525  -48.0312    4.7630 H   0  0  0  0  0  0  0  0  0  0  0  0
   18.0120  -45.9434    5.0125 H   0  0  0  0  0  0  0  0  0  0  0  0
   19.1674  -44.7123    4.7733 H   0  0  0  0  0  0  0  0  0  0  0  0
   28.2329  -45.2635    1.6281 O   0  0  0  0  0  0  0  0  0  0  0  0
   27.2843  -46.1267    2.2808 C   0  0  0  0  0  0  0  0  0  0  0  0
   29.0078  -45.7806    1.3578 H   0  0  0  0  0  0  0  0  0  0  0  0
   24.7492  -46.3790    5.7223 O   0  0  0  0  0  0  0  0  0  0  0  0
   23.8993  -46.4899    6.9462 P   0  0  0  0  0  0  0  0  0  0  0  0
   24.3370  -45.9728    8.1874 O   0  0  0  0  0  0  0  0  0  0  0  0
   23.1600  -47.6817    7.1473 O   0  0  0  0  0  0  0  0  0  0  0  0
   22.8422  -45.5268    6.6556 O   0  0  0  0  0  0  0  0  0  0  0  0
   22.6579  -47.6151    7.9746 H   0  0  0  0  0  0  0  0  0  0  0  0
   22.2122  -45.5058    7.3930 H   0  0  0  0  0  0  0  0  0  0  0  0
 26 27  2  0  0  0
 26 28  1  0  0  0
 26 29  1  0  0  0
 26 25  1  0  0  0
 22 23  1  0  0  0
 23  1  1  0  0  0
  1  2  1  0  0  0
  1  3  1  0  0  0
  2  6  1  0  0  0
  3  4  1  0  0  0
  3  5  1  0  0  0
  5 25  1  0  0  0
  5  6  1  0  0  0
  6  8  1  0  0  0
  8  9  1  0  0  0
  8 18  1  0  0  0
  9 10  2  0  0  0
 10 11  1  0  0  0
 11 12  1  0  0  0
 11 18  2  0  0  0
 12 13  2  0  0  0
 12 14  1  0  0  0
 14 15  1  0  0  0
 15 16  1  0  0  0
 15 17  2  0  0  0
 17 18  1  0  0  0
 28 30  1  0  0  0
 29 31  1  0  0  0
 22 24  1  0  0  0
  4  7  1  0  0  0
 14 19  1  0  0  0
 16 20  1  0  0  0
 16 21  1  0  0  0
M  END
> <minimizedAffinity>
-6.57358

$$$$
1DET_2GP_A_105


 31 33  0  0  0  0  0  0  0  0999 V2000
   26.0330  -45.0490    3.6525 C   0  0  0  0  0  0  0  0  0  0  0  0
   24.9027  -45.8885    3.2881 O   0  0  0  0  0  0  0  0  0  0  0  0
   25.5912  -44.2363    4.8334 C   0  0  0  0  0  0  0  0  0  0  0  0
   25.4767  -42.8234    4.5353 O   0  0  0  0  0  0  0  0  0  0  0  0
   24.1047  -44.5560    5.0620 C   0  0  0  0  0  0  0  0  0  0  0  0
   23.7264  -45.3914    3.8733 C   0  0  0  0  0  0  0  0  0  0  0  0
   24.8336  -42.6948    3.8206 H   0  0  0  0  0  0  0  0  0  0  0  0
   22.7759  -46.5312    4.0975 N   0  0  0  0  0  0  0  0  0  0  0  0
   22.9585  -47.8882    4.1552 C   0  0  0  0  0  0  0  0  0  0  0  0
   21.8694  -48.5384    4.4054 N   0  0  0  0  0  0  0  0  0  0  0  0
   20.8909  -47.5252    4.5089 C   0  0  0  0  0  0  0  0  0  0  0  0
   19.4887  -47.6049    4.7838 C   0  0  0  0  0  0  0  0  0  0  0  0
   18.8579  -48.6251    4.9794 O   0  0  0  0  0  0  0  0  0  0  0  0
   18.8867  -46.3464    4.7352 N   0  0  0  0  0  0  0  0  0  0  0  0
   19.5214  -45.1360    4.5210 C   0  0  0  0  0  0  0  0  0  0  0  0
   18.7407  -44.0715    4.5773 N   0  0  0  0  0  0  0  0  0  0  0  0
   20.8325  -45.0586    4.2992 N   0  0  0  0  0  0  0  0  0  0  0  0
   21.4331  -46.2753    4.3048 C   0  0  0  0  0  0  0  0  0  0  0  0
   17.9114  -46.3172    4.8667 H   0  0  0  0  0  0  0  0  0  0  0  0
   17.7761  -44.1768    4.7437 H   0  0  0  0  0  0  0  0  0  0  0  0
   19.1236  -43.1731    4.4529 H   0  0  0  0  0  0  0  0  0  0  0  0
   28.3300  -45.6093    3.0158 O   0  0  0  0  0  0  0  0  0  0  0  0
   27.2064  -46.0251    3.8129 C   0  0  0  0  0  0  0  0  0  0  0  0
   29.0591  -46.2386    3.1315 H   0  0  0  0  0  0  0  0  0  0  0  0
   23.8644  -45.0575    6.3087 O   0  0  0  0  0  0  0  0  0  0  0  0
   23.3043  -44.3355    7.4909 P   0  0  0  0  0  0  0  0  0  0  0  0
   23.8247  -43.0844    7.8952 O   0  0  0  0  0  0  0  0  0  0  0  0
   22.9215  -45.0944    8.6245 O   0  0  0  0  0  0  0  0  0  0  0  0
   22.0125  -43.8921    6.9768 O   0  0  0  0  0  0  0  0  0  0  0  0
   22.5780  -44.5005    9.3102 H   0  0  0  0  0  0  0  0  0  0  0  0
   21.5415  -43.3996    7.6672 H   0  0  0  0  0  0  0  0  0  0  0  0
 26 27  2  0  0  0
 26 28  1  0  0  0
 26 29  1  0  0  0
 26 25  1  0  0  0
 22 23  1  0  0  0
 23  1  1  0  0  0
  1  2  1  0  0  0
  1  3  1  0  0  0
  2  6  1  0  0  0
  3  4  1  0  0  0
  3  5  1  0  0  0
  5 25  1  0  0  0
  5  6  1  0  0  0
  6  8  1  0  0  0
  8  9  1  0  0  0
  8 18  1  0  0  0
  9 10  2  0  0  0
 10 11  1  0  0  0
 11 12  1  0  0  0
 11 18  2  0  0  0
 12 13  2  0  0  0
 12 14  1  0  0  0
 14 15  1  0  0  0
 15 16  1  0  0  0
 15 17  2  0  0  0
 17 18  1  0  0  0
 28 30  1  0  0  0
 29 31  1  0  0  0
 22 24  1  0  0  0
  4  7  1  0  0  0
 14 19  1  0  0  0
 16 20  1  0  0  0
 16 21  1  0  0  0
M  END
> <minimizedAffinity>
-6.53980

$$$$
1DET_2GP_A_105


 31 33  0  0  0  0  0  0  0  0999 V2000
   26.5619  -45.7171    2.8587 C   0  0  0  0  0  0  0  0  0  0  0  0
   25.6053  -46.7946    2.6616 O   0  0  0  0  0  0  0  0  0  0  0  0
   26.1112  -44.9713    4.0797 C   0  0  0  0  0  0  0  0  0  0  0  0
   25.6518  -43.6296    3.7842 O   0  0  0  0  0  0  0  0  0  0  0  0
   24.7738  -45.5943    4.5128 C   0  0  0  0  0  0  0  0  0  0  0  0
   24.4356  -46.5395    3.3964 C   0  0  0  0  0  0  0  0  0  0  0  0
   24.9083  -43.6720    3.1626 H   0  0  0  0  0  0  0  0  0  0  0  0
   23.7957  -47.8472    3.7611 N   0  0  0  0  0  0  0  0  0  0  0  0
   24.2839  -48.9789    4.3603 C   0  0  0  0  0  0  0  0  0  0  0  0
   23.3856  -49.8928    4.5311 N   0  0  0  0  0  0  0  0  0  0  0  0
   22.2152  -49.3171    3.9891 C   0  0  0  0  0  0  0  0  0  0  0  0
   20.8824  -49.8288    3.8885 C   0  0  0  0  0  0  0  0  0  0  0  0
   20.5077  -50.9204    4.2693 O   0  0  0  0  0  0  0  0  0  0  0  0
   20.0419  -48.9359    3.2215 N   0  0  0  0  0  0  0  0  0  0  0  0
   20.3785  -47.6776    2.7553 C   0  0  0  0  0  0  0  0  0  0  0  0
   19.3891  -46.9961    2.2054 N   0  0  0  0  0  0  0  0  0  0  0  0
   21.6107  -47.1874    2.8798 N   0  0  0  0  0  0  0  0  0  0  0  0
   22.4553  -48.0547    3.4927 C   0  0  0  0  0  0  0  0  0  0  0  0
   19.1156  -49.2315    3.0673 H   0  0  0  0  0  0  0  0  0  0  0  0
   18.4936  -47.3991    2.1345 H   0  0  0  0  0  0  0  0  0  0  0  0
   19.5473  -46.0854    1.8666 H   0  0  0  0  0  0  0  0  0  0  0  0
   27.9227  -47.5470    3.7502 O   0  0  0  0  0  0  0  0  0  0  0  0
   27.9313  -46.4099    2.8684 C   0  0  0  0  0  0  0  0  0  0  0  0
   28.7959  -47.9695    3.7415 H   0  0  0  0  0  0  0  0  0  0  0  0
   24.8145  -46.0846    5.7862 O   0  0  0  0  0  0  0  0  0  0  0  0
   23.7589  -45.9807    6.8387 P   0  0  0  0  0  0  0  0  0  0  0  0
   23.8988  -45.0879    7.9262 O   0  0  0  0  0  0  0  0  0  0  0  0
   23.1099  -47.1671    7.2613 O   0  0  0  0  0  0  0  0  0  0  0  0
   22.6919  -45.2967    6.1153 O   0  0  0  0  0  0  0  0  0  0  0  0
   22.4539  -46.9517    7.9426 H   0  0  0  0  0  0  0  0  0  0  0  0
   21.9326  -45.1677    6.7049 H   0  0  0  0  0  0  0  0  0  0  0  0
 26 27  2  0  0  0
 26 28  1  0  0  0
 26 29  1  0  0  0
 26 25  1  0  0  0
 22 23  1  0  0  0
 23  1  1  0  0  0
  1  2  1  0  0  0
  1  3  1  0  0  0
  2  6  1  0  0  0
  3  4  1  0  0  0
  3  5  1  0  0  0
  5 25  1  0  0  0
  5  6  1  0  0  0
  6  8  1  0  0  0
  8  9  1  0  0  0
  8 18  1  0  0  0
  9 10  2  0  0  0
 10 11  1  0  0  0
 11 12  1  0  0  0
 11 18  2  0  0  0
 12 13  2  0  0  0
 12 14  1  0  0  0
 14 15  1  0  0  0
 15 16  1  0  0  0
 15 17  2  0  0  0
 17 18  1  0  0  0
 28 30  1  0  0  0
 29 31  1  0  0  0
 22 24  1  0  0  0
  4  7  1  0  0  0
 14 19  1  0  0  0
 16 20  1  0  0  0
 16 21  1  0  0  0
M  END
> <minimizedAffinity>
-6.31539

$$$$
