6CSS_FBJ_A_804


 11 11  0  0  0  0  0  0  0  0999 V2000
   28.3708   -3.7779   -7.5001 C   0  0  0  0  0  0  0  0  0  0  0  0
   27.2974   -4.6863   -7.1960 N   0  0  0  0  0  0  0  0  0  0  0  0
   28.7010   -2.9419   -6.6685 O   0  0  0  0  0  0  0  0  0  0  0  0
   26.6009   -4.6887   -6.0280 O   0  0  0  0  0  0  0  0  0  0  0  0
   27.0506   -5.3507   -7.8793 H   0  0  0  0  0  0  0  0  0  0  0  0
   26.9415   -3.9907   -5.4470 H   0  0  0  0  0  0  0  0  0  0  0  0
   29.1501   -3.8694   -8.9752 C   0  0  0  0  0  0  0  0  0  0  0  0
   30.0622   -3.1245   -9.5226 C   0  0  0  0  0  0  0  0  0  0  0  0
   30.8315   -3.7658  -10.7160 C   0  0  0  0  0  0  0  0  0  0  0  0
   30.2175   -5.1833  -10.7981 C   0  0  0  0  0  0  0  0  0  0  0  0
   29.2126   -5.2853   -9.6105 C   0  0  0  0  0  0  0  0  0  0  0  0
  9 10  1  0  0  0
  9  8  1  0  0  0
 10 11  1  0  0  0
  8  7  2  0  0  0
 11  7  1  0  0  0
  7  1  1  0  0  0
  2  1  1  0  0  0
  2  4  1  0  0  0
  1  3  2  0  0  0
  2  5  1  0  0  0
  4  6  1  0  0  0
M  END
> <minimizedAffinity>
-6.41441

$$$$
6CSS_FBJ_A_804


 11 11  0  0  0  0  0  0  0  0999 V2000
   27.2109   -3.9146   -6.5838 C   0  0  0  0  0  0  0  0  0  0  0  0
   26.3905   -2.7800   -6.2534 N   0  0  0  0  0  0  0  0  0  0  0  0
   27.1031   -4.9425   -5.9271 O   0  0  0  0  0  0  0  0  0  0  0  0
   25.4821   -2.7575   -5.2416 O   0  0  0  0  0  0  0  0  0  0  0  0
   26.4936   -1.9651   -6.7962 H   0  0  0  0  0  0  0  0  0  0  0  0
   25.4801   -3.6159   -4.7898 H   0  0  0  0  0  0  0  0  0  0  0  0
   28.2972   -3.8198   -7.8497 C   0  0  0  0  0  0  0  0  0  0  0  0
   29.4438   -3.2213   -7.9665 C   0  0  0  0  0  0  0  0  0  0  0  0
   30.3434   -3.7084   -9.1416 C   0  0  0  0  0  0  0  0  0  0  0  0
   29.5039   -4.8470   -9.7674 C   0  0  0  0  0  0  0  0  0  0  0  0
   28.2367   -4.9890   -8.8703 C   0  0  0  0  0  0  0  0  0  0  0  0
  9 10  1  0  0  0
  9  8  1  0  0  0
 10 11  1  0  0  0
  8  7  2  0  0  0
 11  7  1  0  0  0
  7  1  1  0  0  0
  2  1  1  0  0  0
  2  4  1  0  0  0
  1  3  2  0  0  0
  2  5  1  0  0  0
  4  6  1  0  0  0
M  END
> <minimizedAffinity>
-6.05243

$$$$
6CSS_FBJ_A_804


 11 11  0  0  0  0  0  0  0  0999 V2000
   29.1252   -3.5125   -7.9864 C   0  0  0  0  0  0  0  0  0  0  0  0
   27.6891   -3.5291   -8.0708 N   0  0  0  0  0  0  0  0  0  0  0  0
   29.6594   -3.1307   -6.9528 O   0  0  0  0  0  0  0  0  0  0  0  0
   26.8562   -3.1424   -7.0678 O   0  0  0  0  0  0  0  0  0  0  0  0
   27.2821   -3.8414   -8.9111 H   0  0  0  0  0  0  0  0  0  0  0  0
   27.3810   -2.8597   -6.3026 H   0  0  0  0  0  0  0  0  0  0  0  0
   30.0445   -4.0082   -9.2904 C   0  0  0  0  0  0  0  0  0  0  0  0
   29.9609   -5.0458  -10.0669 C   0  0  0  0  0  0  0  0  0  0  0  0
   30.7326   -4.9435  -11.4165 C   0  0  0  0  0  0  0  0  0  0  0  0
   31.3296   -3.5174  -11.3632 C   0  0  0  0  0  0  0  0  0  0  0  0
   30.7978   -2.8784  -10.0442 C   0  0  0  0  0  0  0  0  0  0  0  0
  9 10  1  0  0  0
  9  8  1  0  0  0
 10 11  1  0  0  0
  8  7  2  0  0  0
 11  7  1  0  0  0
  7  1  1  0  0  0
  2  1  1  0  0  0
  2  4  1  0  0  0
  1  3  2  0  0  0
  2  5  1  0  0  0
  4  6  1  0  0  0
M  END
> <minimizedAffinity>
-5.80850

$$$$
6CSS_FBJ_A_804


 11 11  0  0  0  0  0  0  0  0999 V2000
   28.5095   -4.1020   -8.4017 C   0  0  0  0  0  0  0  0  0  0  0  0
   28.6251   -3.2583   -7.2422 N   0  0  0  0  0  0  0  0  0  0  0  0
   27.4677   -4.7165   -8.5932 O   0  0  0  0  0  0  0  0  0  0  0  0
   27.6437   -3.0861   -6.3166 O   0  0  0  0  0  0  0  0  0  0  0  0
   29.4714   -2.7730   -7.1099 H   0  0  0  0  0  0  0  0  0  0  0  0
   26.8697   -3.6159   -6.5638 H   0  0  0  0  0  0  0  0  0  0  0  0
   29.7890   -4.2370   -9.4676 C   0  0  0  0  0  0  0  0  0  0  0  0
   30.1228   -5.1677  -10.3095 C   0  0  0  0  0  0  0  0  0  0  0  0
   31.1362   -4.7466  -11.4154 C   0  0  0  0  0  0  0  0  0  0  0  0
   31.3639   -3.2456  -11.1185 C   0  0  0  0  0  0  0  0  0  0  0  0
   30.4154   -2.8938   -9.9323 C   0  0  0  0  0  0  0  0  0  0  0  0
  9 10  1  0  0  0
  9  8  1  0  0  0
 10 11  1  0  0  0
  8  7  2  0  0  0
 11  7  1  0  0  0
  7  1  1  0  0  0
  2  1  1  0  0  0
  2  4  1  0  0  0
  1  3  2  0  0  0
  2  5  1  0  0  0
  4  6  1  0  0  0
M  END
> <minimizedAffinity>
-5.72126

$$$$
6CSS_FBJ_A_804


 11 11  0  0  0  0  0  0  0  0999 V2000
   31.3635   -2.2146  -10.4391 C   0  0  0  0  0  0  0  0  0  0  0  0
   31.7202   -1.0573   -9.6626 N   0  0  0  0  0  0  0  0  0  0  0  0
   31.7464   -2.2980  -11.5993 O   0  0  0  0  0  0  0  0  0  0  0  0
   32.4670   -0.0204  -10.1279 O   0  0  0  0  0  0  0  0  0  0  0  0
   31.4023   -1.0129   -8.7319 H   0  0  0  0  0  0  0  0  0  0  0  0
   32.7135   -0.1882  -11.0510 H   0  0  0  0  0  0  0  0  0  0  0  0
   30.4349   -3.4246   -9.7570 C   0  0  0  0  0  0  0  0  0  0  0  0
   29.4304   -3.3886   -8.9347 C   0  0  0  0  0  0  0  0  0  0  0  0
   28.5717   -4.6864   -8.8601 C   0  0  0  0  0  0  0  0  0  0  0  0
   29.2479   -5.6059   -9.9042 C   0  0  0  0  0  0  0  0  0  0  0  0
   30.3796   -4.7548  -10.5567 C   0  0  0  0  0  0  0  0  0  0  0  0
  9 10  1  0  0  0
  9  8  1  0  0  0
 10 11  1  0  0  0
  8  7  2  0  0  0
 11  7  1  0  0  0
  7  1  1  0  0  0
  2  1  1  0  0  0
  2  4  1  0  0  0
  1  3  2  0  0  0
  2  5  1  0  0  0
  4  6  1  0  0  0
M  END
> <minimizedAffinity>
-5.58193

$$$$
6CSS_FBJ_A_804


 11 11  0  0  0  0  0  0  0  0999 V2000
   31.7144   -2.3817  -10.0934 C   0  0  0  0  0  0  0  0  0  0  0  0
   31.3659   -0.9929  -10.2322 N   0  0  0  0  0  0  0  0  0  0  0  0
   32.8928   -2.6945   -9.9792 O   0  0  0  0  0  0  0  0  0  0  0  0
   32.2656    0.0268  -10.2489 O   0  0  0  0  0  0  0  0  0  0  0  0
   30.4122   -0.7653  -10.3209 H   0  0  0  0  0  0  0  0  0  0  0  0
   33.1620   -0.3313  -10.1537 H   0  0  0  0  0  0  0  0  0  0  0  0
   30.5173   -3.5473  -10.0915 C   0  0  0  0  0  0  0  0  0  0  0  0
   30.4770   -4.7507  -10.5779 C   0  0  0  0  0  0  0  0  0  0  0  0
   29.3523   -5.6698  -10.0143 C   0  0  0  0  0  0  0  0  0  0  0  0
   28.6632   -4.7652   -8.9656 C   0  0  0  0  0  0  0  0  0  0  0  0
   29.4807   -3.4378   -8.9401 C   0  0  0  0  0  0  0  0  0  0  0  0
  9 10  1  0  0  0
  9  8  1  0  0  0
 10 11  1  0  0  0
  8  7  2  0  0  0
 11  7  1  0  0  0
  7  1  1  0  0  0
  2  1  1  0  0  0
  2  4  1  0  0  0
  1  3  2  0  0  0
  2  5  1  0  0  0
  4  6  1  0  0  0
M  END
> <minimizedAffinity>
-5.53242

$$$$
6CSS_FBJ_A_804


 11 11  0  0  0  0  0  0  0  0999 V2000
   31.3643   -4.6109  -11.5288 C   0  0  0  0  0  0  0  0  0  0  0  0
   31.9406   -5.9056  -11.7761 N   0  0  0  0  0  0  0  0  0  0  0  0
   31.5907   -3.6959  -12.3105 O   0  0  0  0  0  0  0  0  0  0  0  0
   32.7396   -6.2009  -12.8362 O   0  0  0  0  0  0  0  0  0  0  0  0
   31.7435   -6.6261  -11.1348 H   0  0  0  0  0  0  0  0  0  0  0  0
   32.8533   -5.4097  -13.3857 H   0  0  0  0  0  0  0  0  0  0  0  0
   30.4002   -4.3682  -10.1860 C   0  0  0  0  0  0  0  0  0  0  0  0
   30.0387   -3.2889   -9.5606 C   0  0  0  0  0  0  0  0  0  0  0  0
   28.8079   -3.4352   -8.6168 C   0  0  0  0  0  0  0  0  0  0  0  0
   28.3993   -4.9143   -8.8123 C   0  0  0  0  0  0  0  0  0  0  0  0
   29.3578   -5.4840   -9.9021 C   0  0  0  0  0  0  0  0  0  0  0  0
  9 10  1  0  0  0
  9  8  1  0  0  0
 10 11  1  0  0  0
  8  7  2  0  0  0
 11  7  1  0  0  0
  7  1  1  0  0  0
  2  1  1  0  0  0
  2  4  1  0  0  0
  1  3  2  0  0  0
  2  5  1  0  0  0
  4  6  1  0  0  0
M  END
> <minimizedAffinity>
-5.49501

$$$$
6CSS_FBJ_A_804


 11 11  0  0  0  0  0  0  0  0999 V2000
   31.4224   -5.1606  -11.0769 C   0  0  0  0  0  0  0  0  0  0  0  0
   31.3550   -5.4406  -12.4864 N   0  0  0  0  0  0  0  0  0  0  0  0
   32.5051   -5.2141  -10.5073 O   0  0  0  0  0  0  0  0  0  0  0  0
   32.4265   -5.7706  -13.2561 O   0  0  0  0  0  0  0  0  0  0  0  0
   30.4741   -5.3900  -12.9231 H   0  0  0  0  0  0  0  0  0  0  0  0
   33.2264   -5.7852  -12.7076 H   0  0  0  0  0  0  0  0  0  0  0  0
   30.0329   -4.7701  -10.2353 C   0  0  0  0  0  0  0  0  0  0  0  0
   29.1294   -5.5063   -9.6623 C   0  0  0  0  0  0  0  0  0  0  0  0
   28.2196   -4.7771   -8.6290 C   0  0  0  0  0  0  0  0  0  0  0  0
   28.7913   -3.3398   -8.6225 C   0  0  0  0  0  0  0  0  0  0  0  0
   30.0247   -3.3640   -9.5758 C   0  0  0  0  0  0  0  0  0  0  0  0
  9 10  1  0  0  0
  9  8  1  0  0  0
 10 11  1  0  0  0
  8  7  2  0  0  0
 11  7  1  0  0  0
  7  1  1  0  0  0
  2  1  1  0  0  0
  2  4  1  0  0  0
  1  3  2  0  0  0
  2  5  1  0  0  0
  4  6  1  0  0  0
M  END
> <minimizedAffinity>
-5.47661

$$$$
6CSS_FBJ_A_804


 11 11  0  0  0  0  0  0  0  0999 V2000
   31.2399   -2.3725  -10.7955 C   0  0  0  0  0  0  0  0  0  0  0  0
   30.2565   -2.5079   -9.7543 N   0  0  0  0  0  0  0  0  0  0  0  0
   31.4999   -3.3382  -11.5023 O   0  0  0  0  0  0  0  0  0  0  0  0
   29.5762   -3.6541   -9.4845 O   0  0  0  0  0  0  0  0  0  0  0  0
   30.0630   -1.7177   -9.1998 H   0  0  0  0  0  0  0  0  0  0  0  0
   29.8590   -4.3500  -10.0983 H   0  0  0  0  0  0  0  0  0  0  0  0
   32.0146   -0.9106  -11.0281 C   0  0  0  0  0  0  0  0  0  0  0  0
   32.8678   -0.2551  -10.3009 C   0  0  0  0  0  0  0  0  0  0  0  0
   33.6735    0.8547  -11.0401 C   0  0  0  0  0  0  0  0  0  0  0  0
   33.1618    0.7387  -12.4953 C   0  0  0  0  0  0  0  0  0  0  0  0
   32.1741   -0.4676  -12.5082 C   0  0  0  0  0  0  0  0  0  0  0  0
  9 10  1  0  0  0
  9  8  1  0  0  0
 10 11  1  0  0  0
  8  7  2  0  0  0
 11  7  1  0  0  0
  7  1  1  0  0  0
  2  1  1  0  0  0
  2  4  1  0  0  0
  1  3  2  0  0  0
  2  5  1  0  0  0
  4  6  1  0  0  0
M  END
> <minimizedAffinity>
-3.91408

$$$$
6CSS_FBJ_A_804


 11 11  0  0  0  0  0  0  0  0999 V2000
   31.2023   -5.0154  -10.9543 C   0  0  0  0  0  0  0  0  0  0  0  0
   32.3943   -5.8206  -10.9303 N   0  0  0  0  0  0  0  0  0  0  0  0
   30.1134   -5.5537  -10.7992 O   0  0  0  0  0  0  0  0  0  0  0  0
   32.4075   -7.1679  -10.7461 O   0  0  0  0  0  0  0  0  0  0  0  0
   33.2583   -5.3657  -11.0556 H   0  0  0  0  0  0  0  0  0  0  0  0
   31.4985   -7.4882  -10.6360 H   0  0  0  0  0  0  0  0  0  0  0  0
   31.3132   -3.3656  -11.1939 C   0  0  0  0  0  0  0  0  0  0  0  0
   31.2208   -2.3616  -10.3756 C   0  0  0  0  0  0  0  0  0  0  0  0
   31.7934   -1.0098  -10.8973 C   0  0  0  0  0  0  0  0  0  0  0  0
   32.3493   -1.3876  -12.2906 C   0  0  0  0  0  0  0  0  0  0  0  0
   32.1359   -2.9252  -12.4355 C   0  0  0  0  0  0  0  0  0  0  0  0
  9 10  1  0  0  0
  9  8  1  0  0  0
 10 11  1  0  0  0
  8  7  2  0  0  0
 11  7  1  0  0  0
  7  1  1  0  0  0
  2  1  1  0  0  0
  2  4  1  0  0  0
  1  3  2  0  0  0
  2  5  1  0  0  0
  4  6  1  0  0  0
M  END
> <minimizedAffinity>
-3.79112

$$$$
