4AFG_QMR_A_1214


 17 20  0  0  0  0  0  0  0  0999 V2000
   46.3022   -4.3052   13.8189 C   0  0  0  0  0  0  0  0  0  0  0  0
   44.8169   -4.2546   13.6391 N   0  0  0  0  0  0  0  0  0  0  0  0
   44.3392   -3.2330   12.5707 C   0  0  0  0  0  0  0  0  0  0  0  0
   45.1430   -2.0254   12.5848 C   0  0  0  0  0  0  0  0  0  0  0  0
   46.5752   -2.3374   12.5088 C   0  0  0  0  0  0  0  0  0  0  0  0
   46.9515   -2.9893   13.7407 C   0  0  0  0  0  0  0  0  0  0  0  0
   46.2033   -2.1259   14.5542 C   0  0  0  0  0  0  0  0  0  0  0  0
   46.4251   -1.8032   15.9234 C   0  0  0  0  0  0  0  0  0  0  0  0
   45.5561   -0.8931   16.5943 C   0  0  0  0  0  0  0  0  0  0  0  0
   45.7945   -0.5675   17.9381 N   0  0  0  0  0  0  0  0  0  0  0  0
   44.9651    0.2848   18.5720 C   0  0  0  0  0  0  0  0  0  0  0  0
   43.8862    0.8719   17.9219 C   0  0  0  0  0  0  0  0  0  0  0  0
   43.6610    0.5790   16.6254 N   0  0  0  0  0  0  0  0  0  0  0  0
   44.5153   -0.3287   15.9576 C   0  0  0  0  0  0  0  0  0  0  0  0
   44.2748   -0.6153   14.5916 C   0  0  0  0  0  0  0  0  0  0  0  0
   45.1314   -1.5345   13.9064 C   0  0  0  0  0  0  0  0  0  0  0  0
   44.3949   -4.0034   14.5331 H   0  0  0  0  0  0  0  0  0  0  0  0
  1  2  1  0  0  0
  1  6  1  0  0  0
  2  3  1  0  0  0
  3  4  1  0  0  0
  4  5  1  0  0  0
  4 16  1  0  0  0
  5  6  1  0  0  0
  6  7  1  0  0  0
  7  8  2  0  0  0
  7 16  1  0  0  0
  8  9  1  0  0  0
  9 10  2  0  0  0
  9 14  1  0  0  0
 10 11  1  0  0  0
 11 12  2  0  0  0
 12 13  1  0  0  0
 13 14  2  0  0  0
 14 15  1  0  0  0
 15 16  2  0  0  0
  2 17  1  0  0  0
M  END
> <minimizedAffinity>
-9.10458

$$$$
4AFG_QMR_A_1214


 17 20  0  0  0  0  0  0  0  0999 V2000
   44.2760   -0.7695   14.0738 C   0  0  0  0  0  0  0  0  0  0  0  0
   44.7882   -1.4363   15.3124 N   0  0  0  0  0  0  0  0  0  0  0  0
   46.3255   -1.6595   15.3261 C   0  0  0  0  0  0  0  0  0  0  0  0
   46.8291   -2.0113   14.0119 C   0  0  0  0  0  0  0  0  0  0  0  0
   46.3776   -1.0547   12.9944 C   0  0  0  0  0  0  0  0  0  0  0  0
   44.9500   -1.2098   12.8445 C   0  0  0  0  0  0  0  0  0  0  0  0
   44.9870   -2.6110   12.8894 C   0  0  0  0  0  0  0  0  0  0  0  0
   44.0527   -3.5288   12.3302 C   0  0  0  0  0  0  0  0  0  0  0  0
   44.2561   -4.9332   12.4720 C   0  0  0  0  0  0  0  0  0  0  0  0
   43.3395   -5.8290   11.9012 N   0  0  0  0  0  0  0  0  0  0  0  0
   43.5292   -7.1553   12.0461 C   0  0  0  0  0  0  0  0  0  0  0  0
   44.6263   -7.6649   12.7303 C   0  0  0  0  0  0  0  0  0  0  0  0
   45.5218   -6.8113   13.2658 N   0  0  0  0  0  0  0  0  0  0  0  0
   45.3208   -5.4177   13.1345 C   0  0  0  0  0  0  0  0  0  0  0  0
   46.2779   -4.5336   13.6896 C   0  0  0  0  0  0  0  0  0  0  0  0
   46.0833   -3.1211   13.5650 C   0  0  0  0  0  0  0  0  0  0  0  0
   44.3323   -2.3447   15.3985 H   0  0  0  0  0  0  0  0  0  0  0  0
  1  2  1  0  0  0
  1  6  1  0  0  0
  2  3  1  0  0  0
  3  4  1  0  0  0
  4  5  1  0  0  0
  4 16  1  0  0  0
  5  6  1  0  0  0
  6  7  1  0  0  0
  7  8  2  0  0  0
  7 16  1  0  0  0
  8  9  1  0  0  0
  9 10  2  0  0  0
  9 14  1  0  0  0
 10 11  1  0  0  0
 11 12  2  0  0  0
 12 13  1  0  0  0
 13 14  2  0  0  0
 14 15  1  0  0  0
 15 16  2  0  0  0
  2 17  1  0  0  0
M  END
> <minimizedAffinity>
-8.03641

$$$$
4AFG_QMR_A_1214


 17 20  0  0  0  0  0  0  0  0999 V2000
   47.7371   -0.0905   18.5341 C   0  0  0  0  0  0  0  0  0  0  0  0
   47.1873    1.2060   18.0263 N   0  0  0  0  0  0  0  0  0  0  0  0
   45.6897    1.4396   18.3669 C   0  0  0  0  0  0  0  0  0  0  0  0
   44.9236    0.2099   18.2925 C   0  0  0  0  0  0  0  0  0  0  0  0
   45.5515   -0.8578   19.0798 C   0  0  0  0  0  0  0  0  0  0  0  0
   46.7929   -1.2120   18.4334 C   0  0  0  0  0  0  0  0  0  0  0  0
   46.2578   -1.1683   17.1377 C   0  0  0  0  0  0  0  0  0  0  0  0
   46.7139   -1.8599   15.9794 C   0  0  0  0  0  0  0  0  0  0  0  0
   46.0370   -1.6963   14.7350 C   0  0  0  0  0  0  0  0  0  0  0  0
   46.4831   -2.3968   13.6041 N   0  0  0  0  0  0  0  0  0  0  0  0
   45.8474   -2.2318   12.4273 C   0  0  0  0  0  0  0  0  0  0  0  0
   44.7413   -1.3991   12.3061 C   0  0  0  0  0  0  0  0  0  0  0  0
   44.2947   -0.7368   13.3921 N   0  0  0  0  0  0  0  0  0  0  0  0
   44.9669   -0.8898   14.6267 C   0  0  0  0  0  0  0  0  0  0  0  0
   44.4771   -0.1991   15.7621 C   0  0  0  0  0  0  0  0  0  0  0  0
   45.1512   -0.3443   17.0162 C   0  0  0  0  0  0  0  0  0  0  0  0
   47.2908    1.2218   17.0117 H   0  0  0  0  0  0  0  0  0  0  0  0
  1  2  1  0  0  0
  1  6  1  0  0  0
  2  3  1  0  0  0
  3  4  1  0  0  0
  4  5  1  0  0  0
  4 16  1  0  0  0
  5  6  1  0  0  0
  6  7  1  0  0  0
  7  8  2  0  0  0
  7 16  1  0  0  0
  8  9  1  0  0  0
  9 10  2  0  0  0
  9 14  1  0  0  0
 10 11  1  0  0  0
 11 12  2  0  0  0
 12 13  1  0  0  0
 13 14  2  0  0  0
 14 15  1  0  0  0
 15 16  2  0  0  0
  2 17  1  0  0  0
M  END
> <minimizedAffinity>
-7.22104

$$$$
4AFG_QMR_A_1214


 17 20  0  0  0  0  0  0  0  0999 V2000
   47.6474   -2.4141   13.5448 C   0  0  0  0  0  0  0  0  0  0  0  0
   46.9389   -1.9266   12.3195 N   0  0  0  0  0  0  0  0  0  0  0  0
   45.5655   -1.2576   12.6018 C   0  0  0  0  0  0  0  0  0  0  0  0
   44.8530   -1.9254   13.6746 C   0  0  0  0  0  0  0  0  0  0  0  0
   45.6979   -2.0712   14.8658 C   0  0  0  0  0  0  0  0  0  0  0  0
   46.7518   -3.0056   14.5486 C   0  0  0  0  0  0  0  0  0  0  0  0
   45.9095   -3.8907   13.8600 C   0  0  0  0  0  0  0  0  0  0  0  0
   46.0890   -5.2886   13.6564 C   0  0  0  0  0  0  0  0  0  0  0  0
   45.1176   -6.0365   12.9278 C   0  0  0  0  0  0  0  0  0  0  0  0
   45.2946   -7.4169   12.7489 N   0  0  0  0  0  0  0  0  0  0  0  0
   44.3800   -8.1186   12.0510 C   0  0  0  0  0  0  0  0  0  0  0  0
   43.2473   -7.5141   11.5189 C   0  0  0  0  0  0  0  0  0  0  0  0
   43.0601   -6.1916   11.7022 N   0  0  0  0  0  0  0  0  0  0  0  0
   44.0241   -5.4441   12.4174 C   0  0  0  0  0  0  0  0  0  0  0  0
   43.8063   -4.0586   12.6146 C   0  0  0  0  0  0  0  0  0  0  0  0
   44.7766   -3.2915   13.3347 C   0  0  0  0  0  0  0  0  0  0  0  0
   46.7858   -2.7227   11.7005 H   0  0  0  0  0  0  0  0  0  0  0  0
  1  2  1  0  0  0
  1  6  1  0  0  0
  2  3  1  0  0  0
  3  4  1  0  0  0
  4  5  1  0  0  0
  4 16  1  0  0  0
  5  6  1  0  0  0
  6  7  1  0  0  0
  7  8  2  0  0  0
  7 16  1  0  0  0
  8  9  1  0  0  0
  9 10  2  0  0  0
  9 14  1  0  0  0
 10 11  1  0  0  0
 11 12  2  0  0  0
 12 13  1  0  0  0
 13 14  2  0  0  0
 14 15  1  0  0  0
 15 16  2  0  0  0
  2 17  1  0  0  0
M  END
> <minimizedAffinity>
-7.08870

$$$$
4AFG_QMR_A_1214


 17 20  0  0  0  0  0  0  0  0999 V2000
   44.6615   -1.2335   12.2149 C   0  0  0  0  0  0  0  0  0  0  0  0
   46.1566   -1.1592   12.2012 N   0  0  0  0  0  0  0  0  0  0  0  0
   46.8638   -2.4871   12.5886 C   0  0  0  0  0  0  0  0  0  0  0  0
   46.1490   -3.1904   13.6369 C   0  0  0  0  0  0  0  0  0  0  0  0
   44.7297   -3.3507   13.2994 C   0  0  0  0  0  0  0  0  0  0  0  0
   44.1207   -2.0418   13.3165 C   0  0  0  0  0  0  0  0  0  0  0  0
   44.7856   -1.6272   14.4797 C   0  0  0  0  0  0  0  0  0  0  0  0
   44.3711   -0.6406   15.4193 C   0  0  0  0  0  0  0  0  0  0  0  0
   45.1807   -0.3506   16.5569 C   0  0  0  0  0  0  0  0  0  0  0  0
   44.7541    0.6099   17.4865 N   0  0  0  0  0  0  0  0  0  0  0  0
   45.5266    0.8890   18.5548 C   0  0  0  0  0  0  0  0  0  0  0  0
   46.7312    0.2320   18.7756 C   0  0  0  0  0  0  0  0  0  0  0  0
   47.1394   -0.7057   17.8972 N   0  0  0  0  0  0  0  0  0  0  0  0
   46.3441   -0.9917   16.7636 C   0  0  0  0  0  0  0  0  0  0  0  0
   46.7788   -1.9897   15.8575 C   0  0  0  0  0  0  0  0  0  0  0  0
   45.9831   -2.2856   14.7053 C   0  0  0  0  0  0  0  0  0  0  0  0
   46.4471   -0.4377   12.8611 H   0  0  0  0  0  0  0  0  0  0  0  0
  1  2  1  0  0  0
  1  6  1  0  0  0
  2  3  1  0  0  0
  3  4  1  0  0  0
  4  5  1  0  0  0
  4 16  1  0  0  0
  5  6  1  0  0  0
  6  7  1  0  0  0
  7  8  2  0  0  0
  7 16  1  0  0  0
  8  9  1  0  0  0
  9 10  2  0  0  0
  9 14  1  0  0  0
 10 11  1  0  0  0
 11 12  2  0  0  0
 12 13  1  0  0  0
 13 14  2  0  0  0
 14 15  1  0  0  0
 15 16  2  0  0  0
  2 17  1  0  0  0
M  END
> <minimizedAffinity>
-6.97805

$$$$
4AFG_QMR_A_1214


 17 20  0  0  0  0  0  0  0  0999 V2000
   45.3994   -1.9931   12.1174 C   0  0  0  0  0  0  0  0  0  0  0  0
   46.8047   -1.6329   12.4868 N   0  0  0  0  0  0  0  0  0  0  0  0
   47.5450   -2.7211   13.3121 C   0  0  0  0  0  0  0  0  0  0  0  0
   46.6578   -3.3775   14.2538 C   0  0  0  0  0  0  0  0  0  0  0  0
   45.4407   -3.8610   13.5913 C   0  0  0  0  0  0  0  0  0  0  0  0
   44.6755   -2.7090   13.1771 C   0  0  0  0  0  0  0  0  0  0  0  0
   44.8988   -1.9968   14.3645 C   0  0  0  0  0  0  0  0  0  0  0  0
   44.0885   -0.9751   14.9369 C   0  0  0  0  0  0  0  0  0  0  0  0
   44.4737   -0.3595   16.1643 C   0  0  0  0  0  0  0  0  0  0  0  0
   43.6586    0.6330   16.7294 N   0  0  0  0  0  0  0  0  0  0  0  0
   44.0309    1.2200   17.8839 C   0  0  0  0  0  0  0  0  0  0  0  0
   45.1956    0.8521   18.5469 C   0  0  0  0  0  0  0  0  0  0  0  0
   45.9749   -0.1138   18.0204 N   0  0  0  0  0  0  0  0  0  0  0  0
   45.6014   -0.7222   16.7998 C   0  0  0  0  0  0  0  0  0  0  0  0
   46.4224   -1.7457   16.2666 C   0  0  0  0  0  0  0  0  0  0  0  0
   46.0556   -2.3666   15.0304 C   0  0  0  0  0  0  0  0  0  0  0  0
   46.7807   -0.7748   13.0377 H   0  0  0  0  0  0  0  0  0  0  0  0
  1  2  1  0  0  0
  1  6  1  0  0  0
  2  3  1  0  0  0
  3  4  1  0  0  0
  4  5  1  0  0  0
  4 16  1  0  0  0
  5  6  1  0  0  0
  6  7  1  0  0  0
  7  8  2  0  0  0
  7 16  1  0  0  0
  8  9  1  0  0  0
  9 10  2  0  0  0
  9 14  1  0  0  0
 10 11  1  0  0  0
 11 12  2  0  0  0
 12 13  1  0  0  0
 13 14  2  0  0  0
 14 15  1  0  0  0
 15 16  2  0  0  0
  2 17  1  0  0  0
M  END
> <minimizedAffinity>
-6.68354

$$$$
