4L9I_8PR_A_601


 25 28  0  0  0  0  0  0  0  0999 V2000
  -21.7003  -41.2920   26.6545 C   0  0  0  0  0  0  0  0  0  0  0  0
  -20.9121  -42.2073   25.7240 C   0  0  0  0  0  0  0  0  0  0  0  0
  -22.8883  -43.2842   27.6346 C   0  0  0  0  0  0  0  0  0  0  0  0
  -22.2110  -42.0166   27.8035 N   0  0  0  0  0  0  0  0  0  0  0  0
  -22.0917  -44.1941   26.7016 C   0  0  0  0  0  0  0  0  0  0  0  0
  -21.6970  -43.4743   25.4016 C   0  0  0  0  0  0  0  0  0  0  0  0
  -22.8696  -41.3941   28.2716 H   0  0  0  0  0  0  0  0  0  0  0  0
  -18.6858  -46.8905   22.0225 F   0  0  0  0  0  0  0  0  0  0  0  0
  -20.6011  -45.5545   22.4213 C   0  0  0  0  0  0  0  0  0  0  0  0
  -18.9291  -45.7570   24.1157 C   0  0  0  0  0  0  0  0  0  0  0  0
  -21.3512  -44.7167   23.2471 C   0  0  0  0  0  0  0  0  0  0  0  0
  -19.6803  -44.9135   24.9477 C   0  0  0  0  0  0  0  0  0  0  0  0
  -19.3895  -46.0808   22.8448 C   0  0  0  0  0  0  0  0  0  0  0  0
  -20.9057  -44.3861   24.5238 C   0  0  0  0  0  0  0  0  0  0  0  0
  -22.9007  -45.4612   26.4609 C   0  0  0  0  0  0  0  0  0  0  0  0
  -23.2231  -46.0377   27.7271 O   0  0  0  0  0  0  0  0  0  0  0  0
  -23.1736  -48.0614   28.9861 C   0  0  0  0  0  0  0  0  0  0  0  0
  -22.4815  -49.1119   29.5714 C   0  0  0  0  0  0  0  0  0  0  0  0
  -21.1079  -47.0915   28.1398 C   0  0  0  0  0  0  0  0  0  0  0  0
  -18.8766  -49.5253   29.5811 C   0  0  0  0  0  0  0  0  0  0  0  0
  -20.1935  -50.0269   29.8915 O   0  0  0  0  0  0  0  0  0  0  0  0
  -19.1046  -48.3973   28.7568 O   0  0  0  0  0  0  0  0  0  0  0  0
  -22.4931  -47.0548   28.2768 C   0  0  0  0  0  0  0  0  0  0  0  0
  -21.1013  -49.1302   29.4124 C   0  0  0  0  0  0  0  0  0  0  0  0
  -20.4411  -48.1519   28.7268 C   0  0  0  0  0  0  0  0  0  0  0  0
  8 13  1  0  0  0
 13  9  2  0  0  0
  9 11  1  0  0  0
 13 10  1  0  0  0
 10 12  2  0  0  0
 23 17  2  0  0  0
 17 18  1  0  0  0
 11 14  2  0  0  0
 12 14  1  0  0  0
 24 18  2  0  0  0
 19 23  1  0  0  0
 19 25  2  0  0  0
  2  1  1  0  0  0
  1  4  1  0  0  0
  2  6  1  0  0  0
  5  3  1  0  0  0
  4  3  1  0  0  0
 22 20  1  0  0  0
 21 20  1  0  0  0
  5 15  1  0  0  0
 15 16  1  0  0  0
 16 23  1  0  0  0
 24 21  1  0  0  0
 25 22  1  0  0  0
 14  6  1  0  0  0
 25 24  1  0  0  0
  6  5  1  0  0  0
  4  7  1  0  0  0
M  END
> <minimizedAffinity>
-8.50692

$$$$
4L9I_8PR_A_601


 25 28  0  0  0  0  0  0  0  0999 V2000
  -22.8231  -45.2922   28.4053 C   0  0  0  0  0  0  0  0  0  0  0  0
  -22.4803  -44.6033   27.0890 C   0  0  0  0  0  0  0  0  0  0  0  0
  -21.2751  -47.1937   27.8324 C   0  0  0  0  0  0  0  0  0  0  0  0
  -21.7956  -46.2419   28.7902 N   0  0  0  0  0  0  0  0  0  0  0  0
  -20.9343  -46.4949   26.5177 C   0  0  0  0  0  0  0  0  0  0  0  0
  -22.0953  -45.6190   26.0189 C   0  0  0  0  0  0  0  0  0  0  0  0
  -22.1765  -46.7860   29.5644 H   0  0  0  0  0  0  0  0  0  0  0  0
  -20.7361  -43.0286   21.1610 F   0  0  0  0  0  0  0  0  0  0  0  0
  -21.7408  -44.8327   22.3220 C   0  0  0  0  0  0  0  0  0  0  0  0
  -20.6891  -43.0759   23.5529 C   0  0  0  0  0  0  0  0  0  0  0  0
  -22.0758  -45.4797   23.5118 C   0  0  0  0  0  0  0  0  0  0  0  0
  -21.0260  -43.7233   24.7510 C   0  0  0  0  0  0  0  0  0  0  0  0
  -21.0474  -43.6313   22.3301 C   0  0  0  0  0  0  0  0  0  0  0  0
  -21.7209  -44.9385   24.7442 C   0  0  0  0  0  0  0  0  0  0  0  0
  -20.5073  -47.5522   25.5088 C   0  0  0  0  0  0  0  0  0  0  0  0
  -19.1273  -47.3509   25.2015 O   0  0  0  0  0  0  0  0  0  0  0  0
  -18.0025  -45.6538   23.9614 C   0  0  0  0  0  0  0  0  0  0  0  0
  -17.5614  -45.1166   22.7606 C   0  0  0  0  0  0  0  0  0  0  0  0
  -18.9757  -47.5690   22.8174 C   0  0  0  0  0  0  0  0  0  0  0  0
  -18.1570  -46.5219   19.4688 C   0  0  0  0  0  0  0  0  0  0  0  0
  -17.5302  -45.5320   20.3109 O   0  0  0  0  0  0  0  0  0  0  0  0
  -18.6753  -47.4851   20.3676 O   0  0  0  0  0  0  0  0  0  0  0  0
  -18.7080  -46.8707   23.9919 C   0  0  0  0  0  0  0  0  0  0  0  0
  -17.8334  -45.8372   21.6042 C   0  0  0  0  0  0  0  0  0  0  0  0
  -18.5205  -47.0162   21.6338 C   0  0  0  0  0  0  0  0  0  0  0  0
  8 13  1  0  0  0
 13  9  2  0  0  0
  9 11  1  0  0  0
 13 10  1  0  0  0
 10 12  2  0  0  0
 23 17  2  0  0  0
 17 18  1  0  0  0
 11 14  2  0  0  0
 12 14  1  0  0  0
 24 18  2  0  0  0
 19 23  1  0  0  0
 19 25  2  0  0  0
  2  1  1  0  0  0
  1  4  1  0  0  0
  2  6  1  0  0  0
  5  3  1  0  0  0
  4  3  1  0  0  0
 22 20  1  0  0  0
 21 20  1  0  0  0
  5 15  1  0  0  0
 15 16  1  0  0  0
 16 23  1  0  0  0
 24 21  1  0  0  0
 25 22  1  0  0  0
 14  6  1  0  0  0
 25 24  1  0  0  0
  6  5  1  0  0  0
  4  7  1  0  0  0
M  END
> <minimizedAffinity>
-8.19622

$$$$
4L9I_8PR_A_601


 25 28  0  0  0  0  0  0  0  0999 V2000
  -21.5430  -40.9827   25.8727 C   0  0  0  0  0  0  0  0  0  0  0  0
  -20.9107  -42.1562   25.1326 C   0  0  0  0  0  0  0  0  0  0  0  0
  -22.6191  -42.5702   27.5044 C   0  0  0  0  0  0  0  0  0  0  0  0
  -21.9009  -41.3437   27.2319 N   0  0  0  0  0  0  0  0  0  0  0  0
  -21.9787  -43.7397   26.7594 C   0  0  0  0  0  0  0  0  0  0  0  0
  -21.7569  -43.4170   25.2726 C   0  0  0  0  0  0  0  0  0  0  0  0
  -22.4754  -40.5827   27.5941 H   0  0  0  0  0  0  0  0  0  0  0  0
  -19.3166  -47.7766   22.5903 F   0  0  0  0  0  0  0  0  0  0  0  0
  -21.1430  -46.2949   22.8743 C   0  0  0  0  0  0  0  0  0  0  0  0
  -19.2286  -46.0940   24.2893 C   0  0  0  0  0  0  0  0  0  0  0  0
  -21.7534  -45.2260   23.5311 C   0  0  0  0  0  0  0  0  0  0  0  0
  -19.8391  -45.0179   24.9506 C   0  0  0  0  0  0  0  0  0  0  0  0
  -19.8818  -46.7378   23.2449 C   0  0  0  0  0  0  0  0  0  0  0  0
  -21.1140  -44.5733   24.5813 C   0  0  0  0  0  0  0  0  0  0  0  0
  -22.8374  -44.9774   26.9804 C   0  0  0  0  0  0  0  0  0  0  0  0
  -22.2580  -45.7455   28.0358 O   0  0  0  0  0  0  0  0  0  0  0  0
  -23.1502  -47.8002   28.8514 C   0  0  0  0  0  0  0  0  0  0  0  0
  -23.1720  -49.1871   28.8855 C   0  0  0  0  0  0  0  0  0  0  0  0
  -21.3480  -47.8080   27.2155 C   0  0  0  0  0  0  0  0  0  0  0  0
  -20.9366  -51.3836   27.0568 C   0  0  0  0  0  0  0  0  0  0  0  0
  -22.0804  -51.1982   27.9166 O   0  0  0  0  0  0  0  0  0  0  0  0
  -20.6163  -50.0839   26.5962 O   0  0  0  0  0  0  0  0  0  0  0  0
  -22.2429  -47.1127   28.0246 C   0  0  0  0  0  0  0  0  0  0  0  0
  -22.2754  -49.8571   28.0623 C   0  0  0  0  0  0  0  0  0  0  0  0
  -21.3933  -49.1897   27.2625 C   0  0  0  0  0  0  0  0  0  0  0  0
  8 13  1  0  0  0
 13  9  2  0  0  0
  9 11  1  0  0  0
 13 10  1  0  0  0
 10 12  2  0  0  0
 23 17  2  0  0  0
 17 18  1  0  0  0
 11 14  2  0  0  0
 12 14  1  0  0  0
 24 18  2  0  0  0
 19 23  1  0  0  0
 19 25  2  0  0  0
  2  1  1  0  0  0
  1  4  1  0  0  0
  2  6  1  0  0  0
  5  3  1  0  0  0
  4  3  1  0  0  0
 22 20  1  0  0  0
 21 20  1  0  0  0
  5 15  1  0  0  0
 15 16  1  0  0  0
 16 23  1  0  0  0
 24 21  1  0  0  0
 25 22  1  0  0  0
 14  6  1  0  0  0
 25 24  1  0  0  0
  6  5  1  0  0  0
  4  7  1  0  0  0
M  END
> <minimizedAffinity>
-8.15131

$$$$
4L9I_8PR_A_601


 25 28  0  0  0  0  0  0  0  0999 V2000
  -19.4042  -45.7378   22.8522 C   0  0  0  0  0  0  0  0  0  0  0  0
  -19.7205  -44.3164   23.3044 C   0  0  0  0  0  0  0  0  0  0  0  0
  -21.3050  -46.6221   24.2471 C   0  0  0  0  0  0  0  0  0  0  0  0
  -20.5510  -46.6127   23.0119 N   0  0  0  0  0  0  0  0  0  0  0  0
  -21.6174  -45.1947   24.6919 C   0  0  0  0  0  0  0  0  0  0  0  0
  -20.3616  -44.3076   24.6879 C   0  0  0  0  0  0  0  0  0  0  0  0
  -20.2137  -47.5646   22.8689 H   0  0  0  0  0  0  0  0  0  0  0  0
  -21.7306  -39.0331   26.2569 F   0  0  0  0  0  0  0  0  0  0  0  0
  -21.2710  -40.6240   24.5629 C   0  0  0  0  0  0  0  0  0  0  0  0
  -21.1845  -41.2840   26.8574 C   0  0  0  0  0  0  0  0  0  0  0  0
  -20.9302  -41.9178   24.1673 C   0  0  0  0  0  0  0  0  0  0  0  0
  -20.8433  -42.5862   26.4626 C   0  0  0  0  0  0  0  0  0  0  0  0
  -21.4003  -40.2955   25.9044 C   0  0  0  0  0  0  0  0  0  0  0  0
  -20.7071  -42.9179   25.1095 C   0  0  0  0  0  0  0  0  0  0  0  0
  -22.3023  -45.2544   26.0504 C   0  0  0  0  0  0  0  0  0  0  0  0
  -21.3917  -45.8273   26.9896 O   0  0  0  0  0  0  0  0  0  0  0  0
  -22.9680  -47.0958   28.2502 C   0  0  0  0  0  0  0  0  0  0  0  0
  -23.3139  -48.2231   28.9814 C   0  0  0  0  0  0  0  0  0  0  0  0
  -20.7274  -47.9622   27.8588 C   0  0  0  0  0  0  0  0  0  0  0  0
  -21.1056  -50.9918   29.7715 C   0  0  0  0  0  0  0  0  0  0  0  0
  -22.4182  -50.3931   29.7961 O   0  0  0  0  0  0  0  0  0  0  0  0
  -20.3482  -50.1664   28.9060 O   0  0  0  0  0  0  0  0  0  0  0  0
  -21.6826  -46.9626   27.6938 C   0  0  0  0  0  0  0  0  0  0  0  0
  -22.3460  -49.2098   29.1237 C   0  0  0  0  0  0  0  0  0  0  0  0
  -21.0980  -49.0788   28.5864 C   0  0  0  0  0  0  0  0  0  0  0  0
  8 13  1  0  0  0
 13  9  2  0  0  0
  9 11  1  0  0  0
 13 10  1  0  0  0
 10 12  2  0  0  0
 23 17  2  0  0  0
 17 18  1  0  0  0
 11 14  2  0  0  0
 12 14  1  0  0  0
 24 18  2  0  0  0
 19 23  1  0  0  0
 19 25  2  0  0  0
  2  1  1  0  0  0
  1  4  1  0  0  0
  2  6  1  0  0  0
  5  3  1  0  0  0
  4  3  1  0  0  0
 22 20  1  0  0  0
 21 20  1  0  0  0
  5 15  1  0  0  0
 15 16  1  0  0  0
 16 23  1  0  0  0
 24 21  1  0  0  0
 25 22  1  0  0  0
 14  6  1  0  0  0
 25 24  1  0  0  0
  6  5  1  0  0  0
  4  7  1  0  0  0
M  END
> <minimizedAffinity>
-8.14887

$$$$
4L9I_8PR_A_601


 25 28  0  0  0  0  0  0  0  0999 V2000
  -21.4607  -40.8423   25.1869 C   0  0  0  0  0  0  0  0  0  0  0  0
  -20.7285  -42.0445   24.6011 C   0  0  0  0  0  0  0  0  0  0  0  0
  -22.4369  -42.2972   26.9954 C   0  0  0  0  0  0  0  0  0  0  0  0
  -21.8110  -41.0609   26.5781 N   0  0  0  0  0  0  0  0  0  0  0  0
  -21.6968  -43.4955   26.4043 C   0  0  0  0  0  0  0  0  0  0  0  0
  -21.4772  -43.3410   24.8904 C   0  0  0  0  0  0  0  0  0  0  0  0
  -22.4479  -40.3086   26.8402 H   0  0  0  0  0  0  0  0  0  0  0  0
  -18.6666  -47.7917   22.7814 F   0  0  0  0  0  0  0  0  0  0  0  0
  -20.6033  -46.4298   22.8641 C   0  0  0  0  0  0  0  0  0  0  0  0
  -18.7380  -45.9163   24.2658 C   0  0  0  0  0  0  0  0  0  0  0  0
  -21.3044  -45.3396   23.3802 C   0  0  0  0  0  0  0  0  0  0  0  0
  -19.4398  -44.8184   24.7854 C   0  0  0  0  0  0  0  0  0  0  0  0
  -19.3204  -46.7281   23.2995 C   0  0  0  0  0  0  0  0  0  0  0  0
  -20.7365  -44.5194   24.3510 C   0  0  0  0  0  0  0  0  0  0  0  0
  -22.4610  -44.7602   26.7711 C   0  0  0  0  0  0  0  0  0  0  0  0
  -21.7862  -45.3956   27.8575 O   0  0  0  0  0  0  0  0  0  0  0  0
  -21.3385  -47.3849   26.6224 C   0  0  0  0  0  0  0  0  0  0  0  0
  -21.0506  -48.7410   26.5654 C   0  0  0  0  0  0  0  0  0  0  0  0
  -21.3576  -47.4291   29.0559 C   0  0  0  0  0  0  0  0  0  0  0  0
  -20.7482  -50.9612   29.4194 C   0  0  0  0  0  0  0  0  0  0  0  0
  -20.6469  -50.7304   27.9987 O   0  0  0  0  0  0  0  0  0  0  0  0
  -20.9093  -49.6732   29.9842 O   0  0  0  0  0  0  0  0  0  0  0  0
  -21.4944  -46.7315   27.8586 C   0  0  0  0  0  0  0  0  0  0  0  0
  -20.9103  -49.4121   27.7739 C   0  0  0  0  0  0  0  0  0  0  0  0
  -21.0645  -48.7784   28.9730 C   0  0  0  0  0  0  0  0  0  0  0  0
  8 13  1  0  0  0
 13  9  2  0  0  0
  9 11  1  0  0  0
 13 10  1  0  0  0
 10 12  2  0  0  0
 23 17  2  0  0  0
 17 18  1  0  0  0
 11 14  2  0  0  0
 12 14  1  0  0  0
 24 18  2  0  0  0
 19 23  1  0  0  0
 19 25  2  0  0  0
  2  1  1  0  0  0
  1  4  1  0  0  0
  2  6  1  0  0  0
  5  3  1  0  0  0
  4  3  1  0  0  0
 22 20  1  0  0  0
 21 20  1  0  0  0
  5 15  1  0  0  0
 15 16  1  0  0  0
 16 23  1  0  0  0
 24 21  1  0  0  0
 25 22  1  0  0  0
 14  6  1  0  0  0
 25 24  1  0  0  0
  6  5  1  0  0  0
  4  7  1  0  0  0
M  END
> <minimizedAffinity>
-7.94211

$$$$
4L9I_8PR_A_601


 25 28  0  0  0  0  0  0  0  0999 V2000
  -22.8123  -43.9035   28.7441 C   0  0  0  0  0  0  0  0  0  0  0  0
  -22.2601  -42.7954   27.8542 C   0  0  0  0  0  0  0  0  0  0  0  0
  -22.1928  -45.6245   27.0133 C   0  0  0  0  0  0  0  0  0  0  0  0
  -22.2496  -45.1946   28.3940 N   0  0  0  0  0  0  0  0  0  0  0  0
  -21.6384  -44.5085   26.1300 C   0  0  0  0  0  0  0  0  0  0  0  0
  -22.3566  -43.1722   26.3799 C   0  0  0  0  0  0  0  0  0  0  0  0
  -22.7946  -45.8959   28.8956 H   0  0  0  0  0  0  0  0  0  0  0  0
  -20.1917  -39.1318   23.0415 F   0  0  0  0  0  0  0  0  0  0  0  0
  -20.5071  -41.4205   23.5653 C   0  0  0  0  0  0  0  0  0  0  0  0
  -21.4596  -39.7443   24.9762 C   0  0  0  0  0  0  0  0  0  0  0  0
  -21.0319  -42.4217   24.3831 C   0  0  0  0  0  0  0  0  0  0  0  0
  -21.9900  -40.7487   25.7995 C   0  0  0  0  0  0  0  0  0  0  0  0
  -20.7137  -40.0792   23.8521 C   0  0  0  0  0  0  0  0  0  0  0  0
  -21.7777  -42.1027   25.5144 C   0  0  0  0  0  0  0  0  0  0  0  0
  -21.7116  -44.9639   24.6790 C   0  0  0  0  0  0  0  0  0  0  0  0
  -20.6897  -45.9372   24.4598 O   0  0  0  0  0  0  0  0  0  0  0  0
  -19.9854  -45.4159   22.2428 C   0  0  0  0  0  0  0  0  0  0  0  0
  -18.9869  -45.2134   21.3009 C   0  0  0  0  0  0  0  0  0  0  0  0
  -18.3404  -45.8586   23.9811 C   0  0  0  0  0  0  0  0  0  0  0  0
  -15.4230  -45.5575   21.8889 C   0  0  0  0  0  0  0  0  0  0  0  0
  -16.5179  -45.1968   21.0211 O   0  0  0  0  0  0  0  0  0  0  0  0
  -16.0135  -45.7278   23.1641 O   0  0  0  0  0  0  0  0  0  0  0  0
  -19.6667  -45.7395   23.5744 C   0  0  0  0  0  0  0  0  0  0  0  0
  -17.6719  -45.3291   21.7342 C   0  0  0  0  0  0  0  0  0  0  0  0
  -17.3631  -45.6459   23.0255 C   0  0  0  0  0  0  0  0  0  0  0  0
  8 13  1  0  0  0
 13  9  2  0  0  0
  9 11  1  0  0  0
 13 10  1  0  0  0
 10 12  2  0  0  0
 23 17  2  0  0  0
 17 18  1  0  0  0
 11 14  2  0  0  0
 12 14  1  0  0  0
 24 18  2  0  0  0
 19 23  1  0  0  0
 19 25  2  0  0  0
  2  1  1  0  0  0
  1  4  1  0  0  0
  2  6  1  0  0  0
  5  3  1  0  0  0
  4  3  1  0  0  0
 22 20  1  0  0  0
 21 20  1  0  0  0
  5 15  1  0  0  0
 15 16  1  0  0  0
 16 23  1  0  0  0
 24 21  1  0  0  0
 25 22  1  0  0  0
 14  6  1  0  0  0
 25 24  1  0  0  0
  6  5  1  0  0  0
  4  7  1  0  0  0
M  END
> <minimizedAffinity>
-7.84894

$$$$
4L9I_8PR_A_601


 25 28  0  0  0  0  0  0  0  0999 V2000
  -20.7977  -41.2632   20.3873 C   0  0  0  0  0  0  0  0  0  0  0  0
  -21.0512  -41.0869   21.8804 C   0  0  0  0  0  0  0  0  0  0  0  0
  -20.8572  -43.7662   20.6559 C   0  0  0  0  0  0  0  0  0  0  0  0
  -21.2259  -42.5713   19.9274 N   0  0  0  0  0  0  0  0  0  0  0  0
  -21.1149  -43.5805   22.1499 C   0  0  0  0  0  0  0  0  0  0  0  0
  -20.5080  -42.2692   22.6754 C   0  0  0  0  0  0  0  0  0  0  0  0
  -20.8604  -42.6820   18.9816 H   0  0  0  0  0  0  0  0  0  0  0  0
  -21.6598  -41.6802   28.1965 F   0  0  0  0  0  0  0  0  0  0  0  0
  -21.8802  -40.9416   25.9565 C   0  0  0  0  0  0  0  0  0  0  0  0
  -20.5685  -42.8796   26.4370 C   0  0  0  0  0  0  0  0  0  0  0  0
  -21.5988  -41.0757   24.5966 C   0  0  0  0  0  0  0  0  0  0  0  0
  -20.2851  -43.0181   25.0700 C   0  0  0  0  0  0  0  0  0  0  0  0
  -21.3704  -41.8367   26.8855 C   0  0  0  0  0  0  0  0  0  0  0  0
  -20.7944  -42.1124   24.1320 C   0  0  0  0  0  0  0  0  0  0  0  0
  -20.6010  -44.8123   22.8823 C   0  0  0  0  0  0  0  0  0  0  0  0
  -21.7242  -45.5600   23.3502 O   0  0  0  0  0  0  0  0  0  0  0  0
  -20.8345  -47.2157   24.8165 C   0  0  0  0  0  0  0  0  0  0  0  0
  -20.8151  -47.8728   26.0384 C   0  0  0  0  0  0  0  0  0  0  0  0
  -22.6387  -45.7603   25.5589 C   0  0  0  0  0  0  0  0  0  0  0  0
  -23.0564  -47.2344   28.8195 C   0  0  0  0  0  0  0  0  0  0  0  0
  -21.9113  -47.9174   28.2680 O   0  0  0  0  0  0  0  0  0  0  0  0
  -23.3751  -46.2364   27.8675 O   0  0  0  0  0  0  0  0  0  0  0  0
  -21.7416  -46.1677   24.5749 C   0  0  0  0  0  0  0  0  0  0  0  0
  -21.7138  -47.4414   27.0062 C   0  0  0  0  0  0  0  0  0  0  0  0
  -22.5958  -46.4266   26.7704 C   0  0  0  0  0  0  0  0  0  0  0  0
  8 13  1  0  0  0
 13  9  2  0  0  0
  9 11  1  0  0  0
 13 10  1  0  0  0
 10 12  2  0  0  0
 23 17  2  0  0  0
 17 18  1  0  0  0
 11 14  2  0  0  0
 12 14  1  0  0  0
 24 18  2  0  0  0
 19 23  1  0  0  0
 19 25  2  0  0  0
  2  1  1  0  0  0
  1  4  1  0  0  0
  2  6  1  0  0  0
  5  3  1  0  0  0
  4  3  1  0  0  0
 22 20  1  0  0  0
 21 20  1  0  0  0
  5 15  1  0  0  0
 15 16  1  0  0  0
 16 23  1  0  0  0
 24 21  1  0  0  0
 25 22  1  0  0  0
 14  6  1  0  0  0
 25 24  1  0  0  0
  6  5  1  0  0  0
  4  7  1  0  0  0
M  END
> <minimizedAffinity>
-7.83559

$$$$
4L9I_8PR_A_601


 25 28  0  0  0  0  0  0  0  0999 V2000
  -21.2988  -48.6704   22.1014 C   0  0  0  0  0  0  0  0  0  0  0  0
  -21.6510  -48.4340   23.5659 C   0  0  0  0  0  0  0  0  0  0  0  0
  -19.4372  -46.9821   22.2596 C   0  0  0  0  0  0  0  0  0  0  0  0
  -19.9359  -48.2646   21.8116 N   0  0  0  0  0  0  0  0  0  0  0  0
  -19.7943  -46.7543   23.7271 C   0  0  0  0  0  0  0  0  0  0  0  0
  -21.2841  -47.0191   24.0000 C   0  0  0  0  0  0  0  0  0  0  0  0
  -19.8374  -48.2774   20.7964 H   0  0  0  0  0  0  0  0  0  0  0  0
  -22.3948  -46.1853   29.4979 F   0  0  0  0  0  0  0  0  0  0  0  0
  -21.1738  -47.2761   27.7859 C   0  0  0  0  0  0  0  0  0  0  0  0
  -22.8493  -45.6754   27.2047 C   0  0  0  0  0  0  0  0  0  0  0  0
  -20.8964  -47.4913   26.4356 C   0  0  0  0  0  0  0  0  0  0  0  0
  -22.5716  -45.8884   25.8462 C   0  0  0  0  0  0  0  0  0  0  0  0
  -22.1479  -46.3716   28.1821 C   0  0  0  0  0  0  0  0  0  0  0  0
  -21.5926  -46.8049   25.4447 C   0  0  0  0  0  0  0  0  0  0  0  0
  -19.3565  -45.3487   24.1149 C   0  0  0  0  0  0  0  0  0  0  0  0
  -20.1086  -44.4128   23.3418 O   0  0  0  0  0  0  0  0  0  0  0  0
  -20.7539  -43.0735   25.2054 C   0  0  0  0  0  0  0  0  0  0  0  0
  -21.1458  -41.8600   25.7521 C   0  0  0  0  0  0  0  0  0  0  0  0
  -20.5958  -42.0913   22.9841 C   0  0  0  0  0  0  0  0  0  0  0  0
  -21.6987  -38.7871   23.9035 C   0  0  0  0  0  0  0  0  0  0  0  0
  -21.6151  -39.4929   25.1592 O   0  0  0  0  0  0  0  0  0  0  0  0
  -21.1868  -39.6938   22.9444 O   0  0  0  0  0  0  0  0  0  0  0  0
  -20.4829  -43.1916   23.8298 C   0  0  0  0  0  0  0  0  0  0  0  0
  -21.2421  -40.7757   24.8887 C   0  0  0  0  0  0  0  0  0  0  0  0
  -20.9821  -40.8913   23.5537 C   0  0  0  0  0  0  0  0  0  0  0  0
  8 13  1  0  0  0
 13  9  2  0  0  0
  9 11  1  0  0  0
 13 10  1  0  0  0
 10 12  2  0  0  0
 23 17  2  0  0  0
 17 18  1  0  0  0
 11 14  2  0  0  0
 12 14  1  0  0  0
 24 18  2  0  0  0
 19 23  1  0  0  0
 19 25  2  0  0  0
  2  1  1  0  0  0
  1  4  1  0  0  0
  2  6  1  0  0  0
  5  3  1  0  0  0
  4  3  1  0  0  0
 22 20  1  0  0  0
 21 20  1  0  0  0
  5 15  1  0  0  0
 15 16  1  0  0  0
 16 23  1  0  0  0
 24 21  1  0  0  0
 25 22  1  0  0  0
 14  6  1  0  0  0
 25 24  1  0  0  0
  6  5  1  0  0  0
  4  7  1  0  0  0
M  END
> <minimizedAffinity>
-7.81838

$$$$
4L9I_8PR_A_601


 25 28  0  0  0  0  0  0  0  0999 V2000
  -21.3203  -40.1877   26.2072 C   0  0  0  0  0  0  0  0  0  0  0  0
  -21.4346  -41.7042   26.3171 C   0  0  0  0  0  0  0  0  0  0  0  0
  -21.0180  -40.3747   23.7143 C   0  0  0  0  0  0  0  0  0  0  0  0
  -21.6175  -39.7296   24.8626 N   0  0  0  0  0  0  0  0  0  0  0  0
  -21.1375  -41.8928   23.8330 C   0  0  0  0  0  0  0  0  0  0  0  0
  -20.6576  -42.3980   25.2036 C   0  0  0  0  0  0  0  0  0  0  0  0
  -21.3434  -38.7479   24.8218 H   0  0  0  0  0  0  0  0  0  0  0  0
  -21.1747  -48.0324   25.5805 F   0  0  0  0  0  0  0  0  0  0  0  0
  -19.8613  -46.1093   25.1464 C   0  0  0  0  0  0  0  0  0  0  0  0
  -22.1610  -45.8584   25.7432 C   0  0  0  0  0  0  0  0  0  0  0  0
  -19.7254  -44.7243   25.0468 C   0  0  0  0  0  0  0  0  0  0  0  0
  -22.0270  -44.4654   25.6455 C   0  0  0  0  0  0  0  0  0  0  0  0
  -21.0737  -46.6874   25.4930 C   0  0  0  0  0  0  0  0  0  0  0  0
  -20.8056  -43.8808   25.2905 C   0  0  0  0  0  0  0  0  0  0  0  0
  -20.3895  -42.5256   22.6676 C   0  0  0  0  0  0  0  0  0  0  0  0
  -21.3100  -43.3210   21.9197 O   0  0  0  0  0  0  0  0  0  0  0  0
  -21.8743  -45.6303   22.0979 C   0  0  0  0  0  0  0  0  0  0  0  0
  -21.6479  -46.9639   21.7893 C   0  0  0  0  0  0  0  0  0  0  0  0
  -19.9849  -44.9303   20.7326 C   0  0  0  0  0  0  0  0  0  0  0  0
  -18.9244  -48.2313   19.7541 C   0  0  0  0  0  0  0  0  0  0  0  0
  -20.1430  -48.4571   20.4930 O   0  0  0  0  0  0  0  0  0  0  0  0
  -18.8108  -46.8230   19.6659 O   0  0  0  0  0  0  0  0  0  0  0  0
  -21.0476  -44.6183   21.5765 C   0  0  0  0  0  0  0  0  0  0  0  0
  -20.5870  -47.2478   20.9381 C   0  0  0  0  0  0  0  0  0  0  0  0
  -19.7833  -46.2660   20.4348 C   0  0  0  0  0  0  0  0  0  0  0  0
  8 13  1  0  0  0
 13  9  2  0  0  0
  9 11  1  0  0  0
 13 10  1  0  0  0
 10 12  2  0  0  0
 23 17  2  0  0  0
 17 18  1  0  0  0
 11 14  2  0  0  0
 12 14  1  0  0  0
 24 18  2  0  0  0
 19 23  1  0  0  0
 19 25  2  0  0  0
  2  1  1  0  0  0
  1  4  1  0  0  0
  2  6  1  0  0  0
  5  3  1  0  0  0
  4  3  1  0  0  0
 22 20  1  0  0  0
 21 20  1  0  0  0
  5 15  1  0  0  0
 15 16  1  0  0  0
 16 23  1  0  0  0
 24 21  1  0  0  0
 25 22  1  0  0  0
 14  6  1  0  0  0
 25 24  1  0  0  0
  6  5  1  0  0  0
  4  7  1  0  0  0
M  END
> <minimizedAffinity>
-7.80632

$$$$
4L9I_8PR_A_601


 25 28  0  0  0  0  0  0  0  0999 V2000
  -22.4635  -47.5013   28.7643 C   0  0  0  0  0  0  0  0  0  0  0  0
  -22.2362  -46.0110   28.5360 C   0  0  0  0  0  0  0  0  0  0  0  0
  -22.0059  -47.9607   26.3312 C   0  0  0  0  0  0  0  0  0  0  0  0
  -21.8343  -48.2987   27.7279 N   0  0  0  0  0  0  0  0  0  0  0  0
  -21.7760  -46.4667   26.1121 C   0  0  0  0  0  0  0  0  0  0  0  0
  -22.5820  -45.6133   27.1051 C   0  0  0  0  0  0  0  0  0  0  0  0
  -22.1807  -49.2512   27.8421 H   0  0  0  0  0  0  0  0  0  0  0  0
  -21.6144  -40.0866   26.2830 F   0  0  0  0  0  0  0  0  0  0  0  0
  -23.1192  -41.8938   26.5685 C   0  0  0  0  0  0  0  0  0  0  0  0
  -20.7656  -42.3032   26.5853 C   0  0  0  0  0  0  0  0  0  0  0  0
  -23.3674  -43.2524   26.7662 C   0  0  0  0  0  0  0  0  0  0  0  0
  -21.0119  -43.6697   26.7858 C   0  0  0  0  0  0  0  0  0  0  0  0
  -21.8232  -41.4080   26.4758 C   0  0  0  0  0  0  0  0  0  0  0  0
  -22.3193  -44.1621   26.8740 C   0  0  0  0  0  0  0  0  0  0  0  0
  -22.0851  -46.1419   24.6571 C   0  0  0  0  0  0  0  0  0  0  0  0
  -20.9005  -45.6261   24.0488 O   0  0  0  0  0  0  0  0  0  0  0  0
  -20.8594  -45.5018   21.6685 C   0  0  0  0  0  0  0  0  0  0  0  0
  -20.8783  -44.7708   20.4893 C   0  0  0  0  0  0  0  0  0  0  0  0
  -21.0297  -43.4720   23.0009 C   0  0  0  0  0  0  0  0  0  0  0  0
  -20.9829  -41.1521   20.2450 C   0  0  0  0  0  0  0  0  0  0  0  0
  -21.0107  -42.4492   19.6135 O   0  0  0  0  0  0  0  0  0  0  0  0
  -21.1164  -41.4208   21.6284 O   0  0  0  0  0  0  0  0  0  0  0  0
  -20.9317  -44.8585   22.9177 C   0  0  0  0  0  0  0  0  0  0  0  0
  -20.9858  -43.3900   20.5994 C   0  0  0  0  0  0  0  0  0  0  0  0
  -21.0528  -42.7660   21.8116 C   0  0  0  0  0  0  0  0  0  0  0  0
  8 13  1  0  0  0
 13  9  2  0  0  0
  9 11  1  0  0  0
 13 10  1  0  0  0
 10 12  2  0  0  0
 23 17  2  0  0  0
 17 18  1  0  0  0
 11 14  2  0  0  0
 12 14  1  0  0  0
 24 18  2  0  0  0
 19 23  1  0  0  0
 19 25  2  0  0  0
  2  1  1  0  0  0
  1  4  1  0  0  0
  2  6  1  0  0  0
  5  3  1  0  0  0
  4  3  1  0  0  0
 22 20  1  0  0  0
 21 20  1  0  0  0
  5 15  1  0  0  0
 15 16  1  0  0  0
 16 23  1  0  0  0
 24 21  1  0  0  0
 25 22  1  0  0  0
 14  6  1  0  0  0
 25 24  1  0  0  0
  6  5  1  0  0  0
  4  7  1  0  0  0
M  END
> <minimizedAffinity>
-7.79501

$$$$
