2QBS_024_A_800


 30 32  0  0  0  0  0  0  0  0999 V2000
   44.7152   14.0181    0.7212 S   0  0  0  0  0  0  0  0  0  0  0  0
   44.7048   15.4789    1.5989 C   0  0  0  0  0  0  0  0  0  0  0  0
   45.5665   15.3645    2.7213 C   0  0  0  0  0  0  0  0  0  0  0  0
   46.1938   14.0890    2.7988 C   0  0  0  0  0  0  0  0  0  0  0  0
   45.8124   13.2093    1.7479 C   0  0  0  0  0  0  0  0  0  0  0  0
   47.4104   13.6552    4.2127 Br  0  0  0  0  0  0  0  0  0  0  0  0
   46.2129   11.7932    1.4759 C   0  0  0  0  0  0  0  0  0  0  0  0
   47.4190   11.1812    1.9695 C   0  0  0  0  0  0  0  0  0  0  0  0
   47.6833    9.8096    1.6631 C   0  0  0  0  0  0  0  0  0  0  0  0
   46.7660    9.0423    0.8706 C   0  0  0  0  0  0  0  0  0  0  0  0
   45.5723    9.6377    0.3744 C   0  0  0  0  0  0  0  0  0  0  0  0
   45.3057   11.0033    0.6836 C   0  0  0  0  0  0  0  0  0  0  0  0
   48.8606    9.1714    2.1601 N   0  0  0  0  0  0  0  0  0  0  0  0
   49.5958    9.3546    1.5316 H   0  0  0  0  0  0  0  0  0  0  0  0
   49.3695    8.3782    3.2100 C   0  0  0  0  0  0  0  0  0  0  0  0
   48.6057    7.0557    3.3803 C   0  0  0  0  0  0  0  0  0  0  0  0
   49.2287    6.2827    4.5693 C   0  0  0  0  0  0  0  0  0  0  0  0
   50.7582    6.0563    4.3935 C   0  0  0  0  0  0  0  0  0  0  0  0
   51.5367    7.3646    4.0768 C   0  0  0  0  0  0  0  0  0  0  0  0
   50.8760    8.1441    2.9235 C   0  0  0  0  0  0  0  0  0  0  0  0
   43.9092   16.5651    1.1783 C   0  0  0  0  0  0  0  0  0  0  0  0
   43.4673   16.5394    0.0279 O   0  0  0  0  0  0  0  0  0  0  0  0
   43.6678   17.5008    1.9351 O   0  0  0  0  0  0  0  0  0  0  0  0
   44.0138   17.5004    2.8059 H   0  0  0  0  0  0  0  0  0  0  0  0
   45.8161   16.3671    3.6950 O   0  0  0  0  0  0  0  0  0  0  0  0
   47.0118   17.1290    3.5302 C   0  0  0  0  0  0  0  0  0  0  0  0
   47.5176   17.5087    4.9182 C   0  0  0  0  0  0  0  0  0  0  0  0
   48.7184   17.7925    5.0659 O   0  0  0  0  0  0  0  0  0  0  0  0
   46.7163   17.5246    5.8449 O   0  0  0  0  0  0  0  0  0  0  0  0
   49.2994   17.7684    4.3312 H   0  0  0  0  0  0  0  0  0  0  0  0
  1  2  1  0  0  0
  1  5  1  0  0  0
  2  3  2  0  0  0
  2 21  1  0  0  0
  3  4  1  0  0  0
  3 25  1  0  0  0
  4  5  2  0  0  0
  4  6  1  0  0  0
  5  7  1  0  0  0
 21 22  2  0  0  0
 21 23  1  0  0  0
  7  8  1  0  0  0
  7 12  2  0  0  0
  8  9  2  0  0  0
  9 10  1  0  0  0
  9 13  1  0  0  0
 10 11  2  0  0  0
 11 12  1  0  0  0
 25 26  1  0  0  0
 26 27  1  0  0  0
 27 28  1  0  0  0
 27 29  2  0  0  0
 13 15  1  0  0  0
 15 16  1  0  0  0
 15 20  1  0  0  0
 16 17  1  0  0  0
 17 18  1  0  0  0
 18 19  1  0  0  0
 19 20  1  0  0  0
 23 24  1  0  0  0
 28 30  1  0  0  0
 13 14  1  0  0  0
M  END
> <minimizedAffinity>
-8.91039

$$$$
2QBS_024_A_800


 30 32  0  0  0  0  0  0  0  0999 V2000
   50.7818    8.3201    3.3225 S   0  0  0  0  0  0  0  0  0  0  0  0
   51.4697    7.0203    4.1836 C   0  0  0  0  0  0  0  0  0  0  0  0
   50.7440    5.8315    3.9084 C   0  0  0  0  0  0  0  0  0  0  0  0
   49.6676    6.0478    3.0023 C   0  0  0  0  0  0  0  0  0  0  0  0
   49.5478    7.4019    2.5834 C   0  0  0  0  0  0  0  0  0  0  0  0
   48.5190    4.6178    2.4518 Br  0  0  0  0  0  0  0  0  0  0  0  0
   48.5540    8.0500    1.6712 C   0  0  0  0  0  0  0  0  0  0  0  0
   47.7541    9.1942    2.0230 C   0  0  0  0  0  0  0  0  0  0  0  0
   46.8537    9.7421    1.0565 C   0  0  0  0  0  0  0  0  0  0  0  0
   46.7375    9.1647   -0.2518 C   0  0  0  0  0  0  0  0  0  0  0  0
   47.5207    8.0314   -0.6096 C   0  0  0  0  0  0  0  0  0  0  0  0
   48.4219    7.4879    0.3515 C   0  0  0  0  0  0  0  0  0  0  0  0
   46.0661   10.8912    1.3715 N   0  0  0  0  0  0  0  0  0  0  0  0
   45.1645   10.5845    1.6210 H   0  0  0  0  0  0  0  0  0  0  0  0
   46.0899   12.2990    1.4609 C   0  0  0  0  0  0  0  0  0  0  0  0
   44.6924   12.9264    1.3390 C   0  0  0  0  0  0  0  0  0  0  0  0
   44.8402   14.4659    1.4239 C   0  0  0  0  0  0  0  0  0  0  0  0
   45.5746   14.9209    2.7183 C   0  0  0  0  0  0  0  0  0  0  0  0
   46.9303   14.1921    2.9393 C   0  0  0  0  0  0  0  0  0  0  0  0
   46.7737   12.6651    2.8043 C   0  0  0  0  0  0  0  0  0  0  0  0
   52.5863    7.2231    5.0214 C   0  0  0  0  0  0  0  0  0  0  0  0
   52.8443    8.3795    5.3613 O   0  0  0  0  0  0  0  0  0  0  0  0
   53.2738    6.2780    5.3964 O   0  0  0  0  0  0  0  0  0  0  0  0
   53.0599    5.4067    5.1261 H   0  0  0  0  0  0  0  0  0  0  0  0
   51.0066    4.5434    4.4444 O   0  0  0  0  0  0  0  0  0  0  0  0
   50.2948    4.1917    5.6305 C   0  0  0  0  0  0  0  0  0  0  0  0
   51.3208    3.9078    6.7229 C   0  0  0  0  0  0  0  0  0  0  0  0
   51.7428    2.7479    6.8675 O   0  0  0  0  0  0  0  0  0  0  0  0
   51.6987    4.8401    7.4223 O   0  0  0  0  0  0  0  0  0  0  0  0
   51.4283    2.0623    6.3116 H   0  0  0  0  0  0  0  0  0  0  0  0
  1  2  1  0  0  0
  1  5  1  0  0  0
  2  3  2  0  0  0
  2 21  1  0  0  0
  3  4  1  0  0  0
  3 25  1  0  0  0
  4  5  2  0  0  0
  4  6  1  0  0  0
  5  7  1  0  0  0
 21 22  2  0  0  0
 21 23  1  0  0  0
  7  8  1  0  0  0
  7 12  2  0  0  0
  8  9  2  0  0  0
  9 10  1  0  0  0
  9 13  1  0  0  0
 10 11  2  0  0  0
 11 12  1  0  0  0
 25 26  1  0  0  0
 26 27  1  0  0  0
 27 28  1  0  0  0
 27 29  2  0  0  0
 13 15  1  0  0  0
 15 16  1  0  0  0
 15 20  1  0  0  0
 16 17  1  0  0  0
 17 18  1  0  0  0
 18 19  1  0  0  0
 19 20  1  0  0  0
 23 24  1  0  0  0
 28 30  1  0  0  0
 13 14  1  0  0  0
M  END
> <minimizedAffinity>
-8.11155

$$$$
2QBS_024_A_800


 30 32  0  0  0  0  0  0  0  0999 V2000
   49.4917    9.8286   -0.2168 S   0  0  0  0  0  0  0  0  0  0  0  0
   50.5465    8.5498    0.1787 C   0  0  0  0  0  0  0  0  0  0  0  0
   50.0302    7.8357    1.2919 C   0  0  0  0  0  0  0  0  0  0  0  0
   48.7956    8.3703    1.7571 C   0  0  0  0  0  0  0  0  0  0  0  0
   48.3585    9.5038    1.0170 C   0  0  0  0  0  0  0  0  0  0  0  0
   47.8702    7.6034    3.2480 Br  0  0  0  0  0  0  0  0  0  0  0  0
   47.1470   10.3654    1.1891 C   0  0  0  0  0  0  0  0  0  0  0  0
   47.1271   11.6004    1.9289 C   0  0  0  0  0  0  0  0  0  0  0  0
   45.9125   12.3515    2.0035 C   0  0  0  0  0  0  0  0  0  0  0  0
   44.7193   11.8882    1.3553 C   0  0  0  0  0  0  0  0  0  0  0  0
   44.7263   10.6671    0.6241 C   0  0  0  0  0  0  0  0  0  0  0  0
   45.9378    9.9205    0.5451 C   0  0  0  0  0  0  0  0  0  0  0  0
   45.8715   13.5917    2.7108 N   0  0  0  0  0  0  0  0  0  0  0  0
   45.3651   13.4519    3.5434 H   0  0  0  0  0  0  0  0  0  0  0  0
   46.2813   14.9411    2.6691 C   0  0  0  0  0  0  0  0  0  0  0  0
   45.1150   15.9231    2.8613 C   0  0  0  0  0  0  0  0  0  0  0  0
   45.6725   17.3654    2.7717 C   0  0  0  0  0  0  0  0  0  0  0  0
   46.8248   17.6202    3.7862 C   0  0  0  0  0  0  0  0  0  0  0  0
   47.9533   16.5532    3.7089 C   0  0  0  0  0  0  0  0  0  0  0  0
   47.3771   15.1247    3.7515 C   0  0  0  0  0  0  0  0  0  0  0  0
   51.7309    8.3401   -0.5579 C   0  0  0  0  0  0  0  0  0  0  0  0
   52.2641    9.3232   -1.0764 O   0  0  0  0  0  0  0  0  0  0  0  0
   52.2104    7.2164   -0.6757 O   0  0  0  0  0  0  0  0  0  0  0  0
   51.7888    6.4826   -0.2733 H   0  0  0  0  0  0  0  0  0  0  0  0
   50.6279    6.7116    1.9200 O   0  0  0  0  0  0  0  0  0  0  0  0
   51.6675    6.9864    2.8586 C   0  0  0  0  0  0  0  0  0  0  0  0
   52.7448    5.9204    2.6865 C   0  0  0  0  0  0  0  0  0  0  0  0
   52.9711    5.1348    3.6225 O   0  0  0  0  0  0  0  0  0  0  0  0
   53.3512    5.8727    1.6229 O   0  0  0  0  0  0  0  0  0  0  0  0
   52.4850    5.2044    4.4205 H   0  0  0  0  0  0  0  0  0  0  0  0
  1  2  1  0  0  0
  1  5  1  0  0  0
  2  3  2  0  0  0
  2 21  1  0  0  0
  3  4  1  0  0  0
  3 25  1  0  0  0
  4  5  2  0  0  0
  4  6  1  0  0  0
  5  7  1  0  0  0
 21 22  2  0  0  0
 21 23  1  0  0  0
  7  8  1  0  0  0
  7 12  2  0  0  0
  8  9  2  0  0  0
  9 10  1  0  0  0
  9 13  1  0  0  0
 10 11  2  0  0  0
 11 12  1  0  0  0
 25 26  1  0  0  0
 26 27  1  0  0  0
 27 28  1  0  0  0
 27 29  2  0  0  0
 13 15  1  0  0  0
 15 16  1  0  0  0
 15 20  1  0  0  0
 16 17  1  0  0  0
 17 18  1  0  0  0
 18 19  1  0  0  0
 19 20  1  0  0  0
 23 24  1  0  0  0
 28 30  1  0  0  0
 13 14  1  0  0  0
M  END
> <minimizedAffinity>
-7.83287

$$$$
2QBS_024_A_800


 30 32  0  0  0  0  0  0  0  0999 V2000
   48.7942    8.7280    3.1182 S   0  0  0  0  0  0  0  0  0  0  0  0
   50.2401    8.0036    2.5809 C   0  0  0  0  0  0  0  0  0  0  0  0
   50.4843    8.3744    1.2324 C   0  0  0  0  0  0  0  0  0  0  0  0
   49.4776    9.2369    0.7137 C   0  0  0  0  0  0  0  0  0  0  0  0
   48.4470    9.5265    1.6505 C   0  0  0  0  0  0  0  0  0  0  0  0
   49.5517    9.8965   -1.0826 Br  0  0  0  0  0  0  0  0  0  0  0  0
   47.2103   10.3567    1.5052 C   0  0  0  0  0  0  0  0  0  0  0  0
   47.0328   11.6591    2.0926 C   0  0  0  0  0  0  0  0  0  0  0  0
   45.8130   12.3694    1.8633 C   0  0  0  0  0  0  0  0  0  0  0  0
   44.7688   11.7996    1.0612 C   0  0  0  0  0  0  0  0  0  0  0  0
   44.9318   10.5114    0.4783 C   0  0  0  0  0  0  0  0  0  0  0  0
   46.1493    9.8050    0.7023 C   0  0  0  0  0  0  0  0  0  0  0  0
   45.6207   13.6730    2.4146 N   0  0  0  0  0  0  0  0  0  0  0  0
   44.7710   13.6720    2.9118 H   0  0  0  0  0  0  0  0  0  0  0  0
   46.1862   14.9614    2.5169 C   0  0  0  0  0  0  0  0  0  0  0  0
   45.1428   16.0460    2.8278 C   0  0  0  0  0  0  0  0  0  0  0  0
   45.8661   17.4142    2.8912 C   0  0  0  0  0  0  0  0  0  0  0  0
   47.0377   17.4190    3.9154 C   0  0  0  0  0  0  0  0  0  0  0  0
   48.0333   16.2424    3.7097 C   0  0  0  0  0  0  0  0  0  0  0  0
   47.2933   14.8952    3.6014 C   0  0  0  0  0  0  0  0  0  0  0  0
   50.9894    7.1710    3.4382 C   0  0  0  0  0  0  0  0  0  0  0  0
   50.3720    6.4985    4.2664 O   0  0  0  0  0  0  0  0  0  0  0  0
   52.2132    7.1210    3.3584 O   0  0  0  0  0  0  0  0  0  0  0  0
   52.6628    7.6407    2.7214 H   0  0  0  0  0  0  0  0  0  0  0  0
   51.5845    7.9648    0.4341 O   0  0  0  0  0  0  0  0  0  0  0  0
   51.4061    6.7723   -0.3298 C   0  0  0  0  0  0  0  0  0  0  0  0
   52.5393    5.8160    0.0274 C   0  0  0  0  0  0  0  0  0  0  0  0
   53.2979    6.1042    0.9687 O   0  0  0  0  0  0  0  0  0  0  0  0
   52.6612    4.7881   -0.6281 O   0  0  0  0  0  0  0  0  0  0  0  0
   53.1710    6.9008    1.4455 H   0  0  0  0  0  0  0  0  0  0  0  0
  1  2  1  0  0  0
  1  5  1  0  0  0
  2  3  2  0  0  0
  2 21  1  0  0  0
  3  4  1  0  0  0
  3 25  1  0  0  0
  4  5  2  0  0  0
  4  6  1  0  0  0
  5  7  1  0  0  0
 21 22  2  0  0  0
 21 23  1  0  0  0
  7  8  1  0  0  0
  7 12  2  0  0  0
  8  9  2  0  0  0
  9 10  1  0  0  0
  9 13  1  0  0  0
 10 11  2  0  0  0
 11 12  1  0  0  0
 25 26  1  0  0  0
 26 27  1  0  0  0
 27 28  1  0  0  0
 27 29  2  0  0  0
 13 15  1  0  0  0
 15 16  1  0  0  0
 15 20  1  0  0  0
 16 17  1  0  0  0
 17 18  1  0  0  0
 18 19  1  0  0  0
 19 20  1  0  0  0
 23 24  1  0  0  0
 28 30  1  0  0  0
 13 14  1  0  0  0
M  END
> <minimizedAffinity>
-7.78208

$$$$
2QBS_024_A_800


 30 32  0  0  0  0  0  0  0  0999 V2000
   48.8758    6.3015    4.4675 S   0  0  0  0  0  0  0  0  0  0  0  0
   50.1665    5.1918    4.5521 C   0  0  0  0  0  0  0  0  0  0  0  0
   50.9346    5.2655    3.3604 C   0  0  0  0  0  0  0  0  0  0  0  0
   50.4287    6.2310    2.4449 C   0  0  0  0  0  0  0  0  0  0  0  0
   49.2639    6.8977    2.9164 C   0  0  0  0  0  0  0  0  0  0  0  0
   51.2695    6.5442    0.7531 Br  0  0  0  0  0  0  0  0  0  0  0  0
   48.4175    7.9468    2.2663 C   0  0  0  0  0  0  0  0  0  0  0  0
   48.3318    9.3129    2.7126 C   0  0  0  0  0  0  0  0  0  0  0  0
   47.5056   10.2329    1.9942 C   0  0  0  0  0  0  0  0  0  0  0  0
   46.7627    9.8103    0.8418 C   0  0  0  0  0  0  0  0  0  0  0  0
   46.8370    8.4615    0.3935 C   0  0  0  0  0  0  0  0  0  0  0  0
   47.6642    7.5453    1.1060 C   0  0  0  0  0  0  0  0  0  0  0  0
   47.4214   11.5993    2.4015 N   0  0  0  0  0  0  0  0  0  0  0  0
   47.9662   11.7100    3.2140 H   0  0  0  0  0  0  0  0  0  0  0  0
   46.8537   12.8506    2.0813 C   0  0  0  0  0  0  0  0  0  0  0  0
   45.3644   12.7520    1.7155 C   0  0  0  0  0  0  0  0  0  0  0  0
   44.8551   14.1707    1.3591 C   0  0  0  0  0  0  0  0  0  0  0  0
   45.1102   15.1968    2.5008 C   0  0  0  0  0  0  0  0  0  0  0  0
   46.5866   15.2130    2.9886 C   0  0  0  0  0  0  0  0  0  0  0  0
   47.0914   13.7893    3.2932 C   0  0  0  0  0  0  0  0  0  0  0  0
   50.3353    4.3698    5.6858 C   0  0  0  0  0  0  0  0  0  0  0  0
   49.8180    3.2511    5.6639 O   0  0  0  0  0  0  0  0  0  0  0  0
   50.9761    4.7589    6.6577 O   0  0  0  0  0  0  0  0  0  0  0  0
   51.3611    5.6131    6.6536 H   0  0  0  0  0  0  0  0  0  0  0  0
   52.0841    4.4913    3.0522 O   0  0  0  0  0  0  0  0  0  0  0  0
   53.3471    5.0741    3.3722 C   0  0  0  0  0  0  0  0  0  0  0  0
   53.8816    4.3738    4.6173 C   0  0  0  0  0  0  0  0  0  0  0  0
   54.4343    3.2672    4.4966 O   0  0  0  0  0  0  0  0  0  0  0  0
   53.7501    4.9318    5.7001 O   0  0  0  0  0  0  0  0  0  0  0  0
   54.5151    2.8737    3.6501 H   0  0  0  0  0  0  0  0  0  0  0  0
  1  2  1  0  0  0
  1  5  1  0  0  0
  2  3  2  0  0  0
  2 21  1  0  0  0
  3  4  1  0  0  0
  3 25  1  0  0  0
  4  5  2  0  0  0
  4  6  1  0  0  0
  5  7  1  0  0  0
 21 22  2  0  0  0
 21 23  1  0  0  0
  7  8  1  0  0  0
  7 12  2  0  0  0
  8  9  2  0  0  0
  9 10  1  0  0  0
  9 13  1  0  0  0
 10 11  2  0  0  0
 11 12  1  0  0  0
 25 26  1  0  0  0
 26 27  1  0  0  0
 27 28  1  0  0  0
 27 29  2  0  0  0
 13 15  1  0  0  0
 15 16  1  0  0  0
 15 20  1  0  0  0
 16 17  1  0  0  0
 17 18  1  0  0  0
 18 19  1  0  0  0
 19 20  1  0  0  0
 23 24  1  0  0  0
 28 30  1  0  0  0
 13 14  1  0  0  0
M  END
> <minimizedAffinity>
-7.72055

$$$$
2QBS_024_A_800


 30 32  0  0  0  0  0  0  0  0999 V2000
   44.5539   11.1521   -1.6949 S   0  0  0  0  0  0  0  0  0  0  0  0
   45.5140    9.7860   -1.3539 C   0  0  0  0  0  0  0  0  0  0  0  0
   46.3812   10.0746   -0.2674 C   0  0  0  0  0  0  0  0  0  0  0  0
   46.2083   11.3966    0.2314 C   0  0  0  0  0  0  0  0  0  0  0  0
   45.2193   12.1388   -0.4719 C   0  0  0  0  0  0  0  0  0  0  0  0
   47.2471   12.0576    1.6981 Br  0  0  0  0  0  0  0  0  0  0  0  0
   44.7532   13.5491   -0.2886 C   0  0  0  0  0  0  0  0  0  0  0  0
   44.6882   14.2244    0.9813 C   0  0  0  0  0  0  0  0  0  0  0  0
   44.2479   15.5841    1.0286 C   0  0  0  0  0  0  0  0  0  0  0  0
   43.8693   16.2775   -0.1690 C   0  0  0  0  0  0  0  0  0  0  0  0
   43.9262   15.6190   -1.4294 C   0  0  0  0  0  0  0  0  0  0  0  0
   44.3697   14.2653   -1.4780 C   0  0  0  0  0  0  0  0  0  0  0  0
   44.1968   16.2849    2.2722 N   0  0  0  0  0  0  0  0  0  0  0  0
   43.2536   16.3528    2.5460 H   0  0  0  0  0  0  0  0  0  0  0  0
   44.9850   16.9166    3.2571 C   0  0  0  0  0  0  0  0  0  0  0  0
   44.8709   16.2421    4.6332 C   0  0  0  0  0  0  0  0  0  0  0  0
   45.7509   17.0288    5.6361 C   0  0  0  0  0  0  0  0  0  0  0  0
   47.2288   17.1464    5.1633 C   0  0  0  0  0  0  0  0  0  0  0  0
   47.3646   17.6941    3.7144 C   0  0  0  0  0  0  0  0  0  0  0  0
   46.4472   16.9314    2.7391 C   0  0  0  0  0  0  0  0  0  0  0  0
   45.3820    8.6058   -2.1150 C   0  0  0  0  0  0  0  0  0  0  0  0
   44.2575    8.3125   -2.5259 O   0  0  0  0  0  0  0  0  0  0  0  0
   46.3557    7.8989   -2.3573 O   0  0  0  0  0  0  0  0  0  0  0  0
   47.2018    8.1405   -2.0352 H   0  0  0  0  0  0  0  0  0  0  0  0
   47.3367    9.1927    0.3024 O   0  0  0  0  0  0  0  0  0  0  0  0
   46.8325    8.2028    1.1986 C   0  0  0  0  0  0  0  0  0  0  0  0
   47.7862    8.1200    2.3861 C   0  0  0  0  0  0  0  0  0  0  0  0
   47.5660    7.2847    3.2796 O   0  0  0  0  0  0  0  0  0  0  0  0
   48.7449    8.8823    2.4163 O   0  0  0  0  0  0  0  0  0  0  0  0
   46.8211    6.7195    3.2193 H   0  0  0  0  0  0  0  0  0  0  0  0
  1  2  1  0  0  0
  1  5  1  0  0  0
  2  3  2  0  0  0
  2 21  1  0  0  0
  3  4  1  0  0  0
  3 25  1  0  0  0
  4  5  2  0  0  0
  4  6  1  0  0  0
  5  7  1  0  0  0
 21 22  2  0  0  0
 21 23  1  0  0  0
  7  8  1  0  0  0
  7 12  2  0  0  0
  8  9  2  0  0  0
  9 10  1  0  0  0
  9 13  1  0  0  0
 10 11  2  0  0  0
 11 12  1  0  0  0
 25 26  1  0  0  0
 26 27  1  0  0  0
 27 28  1  0  0  0
 27 29  2  0  0  0
 13 15  1  0  0  0
 15 16  1  0  0  0
 15 20  1  0  0  0
 16 17  1  0  0  0
 17 18  1  0  0  0
 18 19  1  0  0  0
 19 20  1  0  0  0
 23 24  1  0  0  0
 28 30  1  0  0  0
 13 14  1  0  0  0
M  END
> <minimizedAffinity>
-7.32519

$$$$
2QBS_024_A_800


 30 32  0  0  0  0  0  0  0  0999 V2000
   47.3686   13.2576    3.5774 S   0  0  0  0  0  0  0  0  0  0  0  0
   46.1714   14.4620    3.7205 C   0  0  0  0  0  0  0  0  0  0  0  0
   45.3130   14.4147    2.5906 C   0  0  0  0  0  0  0  0  0  0  0  0
   45.6780   13.3908    1.6716 C   0  0  0  0  0  0  0  0  0  0  0  0
   46.8236   12.6518    2.0780 C   0  0  0  0  0  0  0  0  0  0  0  0
   44.6928   13.0971    0.0560 Br  0  0  0  0  0  0  0  0  0  0  0  0
   47.5411   11.5261    1.4014 C   0  0  0  0  0  0  0  0  0  0  0  0
   47.7491   10.2271    1.9865 C   0  0  0  0  0  0  0  0  0  0  0  0
   48.4297    9.2210    1.2318 C   0  0  0  0  0  0  0  0  0  0  0  0
   48.9076    9.4919   -0.0935 C   0  0  0  0  0  0  0  0  0  0  0  0
   48.7107   10.7733   -0.6808 C   0  0  0  0  0  0  0  0  0  0  0  0
   48.0281   11.7751    0.0688 C   0  0  0  0  0  0  0  0  0  0  0  0
   48.6282    7.9168    1.7794 N   0  0  0  0  0  0  0  0  0  0  0  0
   47.7899    7.4111    1.6755 H   0  0  0  0  0  0  0  0  0  0  0  0
   49.5696    7.0782    2.4126 C   0  0  0  0  0  0  0  0  0  0  0  0
   50.9848    7.6772    2.4269 C   0  0  0  0  0  0  0  0  0  0  0  0
   51.9344    6.6673    3.1180 C   0  0  0  0  0  0  0  0  0  0  0  0
   51.4497    6.2778    4.5446 C   0  0  0  0  0  0  0  0  0  0  0  0
   49.9695    5.8027    4.5780 C   0  0  0  0  0  0  0  0  0  0  0  0
   49.0462    6.7952    3.8451 C   0  0  0  0  0  0  0  0  0  0  0  0
   46.1476   15.3235    4.8371 C   0  0  0  0  0  0  0  0  0  0  0  0
   45.4940   14.9685    5.8201 O   0  0  0  0  0  0  0  0  0  0  0  0
   46.7581   16.3882    4.8259 O   0  0  0  0  0  0  0  0  0  0  0  0
   47.2489   16.6389    4.0681 H   0  0  0  0  0  0  0  0  0  0  0  0
   44.2027   15.2639    2.3426 O   0  0  0  0  0  0  0  0  0  0  0  0
   44.4203   16.3461    1.4377 C   0  0  0  0  0  0  0  0  0  0  0  0
   44.7839   17.5770    2.2619 C   0  0  0  0  0  0  0  0  0  0  0  0
   45.9809   17.8115    2.5002 O   0  0  0  0  0  0  0  0  0  0  0  0
   43.8775   18.2989    2.6600 O   0  0  0  0  0  0  0  0  0  0  0  0
   46.6446   17.2342    2.1774 H   0  0  0  0  0  0  0  0  0  0  0  0
  1  2  1  0  0  0
  1  5  1  0  0  0
  2  3  2  0  0  0
  2 21  1  0  0  0
  3  4  1  0  0  0
  3 25  1  0  0  0
  4  5  2  0  0  0
  4  6  1  0  0  0
  5  7  1  0  0  0
 21 22  2  0  0  0
 21 23  1  0  0  0
  7  8  1  0  0  0
  7 12  2  0  0  0
  8  9  2  0  0  0
  9 10  1  0  0  0
  9 13  1  0  0  0
 10 11  2  0  0  0
 11 12  1  0  0  0
 25 26  1  0  0  0
 26 27  1  0  0  0
 27 28  1  0  0  0
 27 29  2  0  0  0
 13 15  1  0  0  0
 15 16  1  0  0  0
 15 20  1  0  0  0
 16 17  1  0  0  0
 17 18  1  0  0  0
 18 19  1  0  0  0
 19 20  1  0  0  0
 23 24  1  0  0  0
 28 30  1  0  0  0
 13 14  1  0  0  0
M  END
> <minimizedAffinity>
-7.17551

$$$$
2QBS_024_A_800


 30 32  0  0  0  0  0  0  0  0999 V2000
   47.8535    8.0299    2.7793 S   0  0  0  0  0  0  0  0  0  0  0  0
   48.8162    6.8175    2.0668 C   0  0  0  0  0  0  0  0  0  0  0  0
   48.8960    7.0366    0.6664 C   0  0  0  0  0  0  0  0  0  0  0  0
   48.1697    8.1890    0.2530 C   0  0  0  0  0  0  0  0  0  0  0  0
   47.5167    8.8575    1.3254 C   0  0  0  0  0  0  0  0  0  0  0  0
   48.1038    8.7258   -1.5841 Br  0  0  0  0  0  0  0  0  0  0  0  0
   46.6442   10.0735    1.3218 C   0  0  0  0  0  0  0  0  0  0  0  0
   46.8632   11.2327    2.1472 C   0  0  0  0  0  0  0  0  0  0  0  0
   45.9736   12.3470    2.0382 C   0  0  0  0  0  0  0  0  0  0  0  0
   44.8694   12.3208    1.1225 C   0  0  0  0  0  0  0  0  0  0  0  0
   44.6412   11.1789    0.3041 C   0  0  0  0  0  0  0  0  0  0  0  0
   45.5303   10.0699    0.4086 C   0  0  0  0  0  0  0  0  0  0  0  0
   46.1821   13.5187    2.8281 N   0  0  0  0  0  0  0  0  0  0  0  0
   46.0559   13.2760    3.7738 H   0  0  0  0  0  0  0  0  0  0  0  0
   46.5002   14.8918    2.7673 C   0  0  0  0  0  0  0  0  0  0  0  0
   45.2623   15.7949    2.8837 C   0  0  0  0  0  0  0  0  0  0  0  0
   45.7234   17.2699    2.7788 C   0  0  0  0  0  0  0  0  0  0  0  0
   46.8100   17.6282    3.8336 C   0  0  0  0  0  0  0  0  0  0  0  0
   48.0111   16.6405    3.8327 C   0  0  0  0  0  0  0  0  0  0  0  0
   47.5325   15.1769    3.8895 C   0  0  0  0  0  0  0  0  0  0  0  0
   49.3857    5.7955    2.8548 C   0  0  0  0  0  0  0  0  0  0  0  0
   48.9370    5.6315    3.9911 O   0  0  0  0  0  0  0  0  0  0  0  0
   50.2959    5.0963    2.4198 O   0  0  0  0  0  0  0  0  0  0  0  0
   50.6222    5.2379    1.5529 H   0  0  0  0  0  0  0  0  0  0  0  0
   49.5990    6.2349   -0.2710 O   0  0  0  0  0  0  0  0  0  0  0  0
   48.8464    5.2124   -0.9231 C   0  0  0  0  0  0  0  0  0  0  0  0
   49.5522    3.8834   -0.6742 C   0  0  0  0  0  0  0  0  0  0  0  0
   49.2915    3.2464    0.3607 O   0  0  0  0  0  0  0  0  0  0  0  0
   50.3543    3.4853   -1.5104 O   0  0  0  0  0  0  0  0  0  0  0  0
   48.6715    3.5856    0.9759 H   0  0  0  0  0  0  0  0  0  0  0  0
  1  2  1  0  0  0
  1  5  1  0  0  0
  2  3  2  0  0  0
  2 21  1  0  0  0
  3  4  1  0  0  0
  3 25  1  0  0  0
  4  5  2  0  0  0
  4  6  1  0  0  0
  5  7  1  0  0  0
 21 22  2  0  0  0
 21 23  1  0  0  0
  7  8  1  0  0  0
  7 12  2  0  0  0
  8  9  2  0  0  0
  9 10  1  0  0  0
  9 13  1  0  0  0
 10 11  2  0  0  0
 11 12  1  0  0  0
 25 26  1  0  0  0
 26 27  1  0  0  0
 27 28  1  0  0  0
 27 29  2  0  0  0
 13 15  1  0  0  0
 15 16  1  0  0  0
 15 20  1  0  0  0
 16 17  1  0  0  0
 17 18  1  0  0  0
 18 19  1  0  0  0
 19 20  1  0  0  0
 23 24  1  0  0  0
 28 30  1  0  0  0
 13 14  1  0  0  0
M  END
> <minimizedAffinity>
-6.91035

$$$$
2QBS_024_A_800


 30 32  0  0  0  0  0  0  0  0999 V2000
   47.5328    7.2234    3.3114 S   0  0  0  0  0  0  0  0  0  0  0  0
   49.0657    6.5210    3.5586 C   0  0  0  0  0  0  0  0  0  0  0  0
   50.0160    7.1435    2.7071 C   0  0  0  0  0  0  0  0  0  0  0  0
   49.4391    8.1664    1.9026 C   0  0  0  0  0  0  0  0  0  0  0  0
   48.0426    8.3313    2.1177 C   0  0  0  0  0  0  0  0  0  0  0  0
   50.4898    9.1757    0.6598 Br  0  0  0  0  0  0  0  0  0  0  0  0
   47.0656    9.2626    1.4711 C   0  0  0  0  0  0  0  0  0  0  0  0
   46.8608   10.6305    1.8709 C   0  0  0  0  0  0  0  0  0  0  0  0
   45.9141   11.4326    1.1600 C   0  0  0  0  0  0  0  0  0  0  0  0
   45.1681   10.8906    0.0608 C   0  0  0  0  0  0  0  0  0  0  0  0
   45.3598    9.5388   -0.3410 C   0  0  0  0  0  0  0  0  0  0  0  0
   46.3068    8.7402    0.3638 C   0  0  0  0  0  0  0  0  0  0  0  0
   45.7089   12.7993    1.5207 N   0  0  0  0  0  0  0  0  0  0  0  0
   45.2285   13.2410    0.7835 H   0  0  0  0  0  0  0  0  0  0  0  0
   45.9334   13.7566    2.5325 C   0  0  0  0  0  0  0  0  0  0  0  0
   47.4163   13.8794    2.9167 C   0  0  0  0  0  0  0  0  0  0  0  0
   47.5416   14.9320    4.0460 C   0  0  0  0  0  0  0  0  0  0  0  0
   46.9247   16.3044    3.6490 C   0  0  0  0  0  0  0  0  0  0  0  0
   45.4673   16.1885    3.1194 C   0  0  0  0  0  0  0  0  0  0  0  0
   45.3518   15.1042    2.0306 C   0  0  0  0  0  0  0  0  0  0  0  0
   49.2364    5.4763    4.4908 C   0  0  0  0  0  0  0  0  0  0  0  0
   49.5206    5.7843    5.6500 O   0  0  0  0  0  0  0  0  0  0  0  0
   49.1052    4.3030    4.1549 O   0  0  0  0  0  0  0  0  0  0  0  0
   48.8889    4.0909    3.2682 H   0  0  0  0  0  0  0  0  0  0  0  0
   51.3971    6.8276    2.6162 O   0  0  0  0  0  0  0  0  0  0  0  0
   52.2120    7.2178    3.7212 C   0  0  0  0  0  0  0  0  0  0  0  0
   52.7235    5.9482    4.3944 C   0  0  0  0  0  0  0  0  0  0  0  0
   52.5972    5.8248    5.6245 O   0  0  0  0  0  0  0  0  0  0  0  0
   53.2413    5.0867    3.6938 O   0  0  0  0  0  0  0  0  0  0  0  0
   52.1952    6.5073    6.1250 H   0  0  0  0  0  0  0  0  0  0  0  0
  1  2  1  0  0  0
  1  5  1  0  0  0
  2  3  2  0  0  0
  2 21  1  0  0  0
  3  4  1  0  0  0
  3 25  1  0  0  0
  4  5  2  0  0  0
  4  6  1  0  0  0
  5  7  1  0  0  0
 21 22  2  0  0  0
 21 23  1  0  0  0
  7  8  1  0  0  0
  7 12  2  0  0  0
  8  9  2  0  0  0
  9 10  1  0  0  0
  9 13  1  0  0  0
 10 11  2  0  0  0
 11 12  1  0  0  0
 25 26  1  0  0  0
 26 27  1  0  0  0
 27 28  1  0  0  0
 27 29  2  0  0  0
 13 15  1  0  0  0
 15 16  1  0  0  0
 15 20  1  0  0  0
 16 17  1  0  0  0
 17 18  1  0  0  0
 18 19  1  0  0  0
 19 20  1  0  0  0
 23 24  1  0  0  0
 28 30  1  0  0  0
 13 14  1  0  0  0
M  END
> <minimizedAffinity>
-6.81238

$$$$
2QBS_024_A_800


 30 32  0  0  0  0  0  0  0  0999 V2000
   47.6268    7.8915   -0.9430 S   0  0  0  0  0  0  0  0  0  0  0  0
   48.5722    6.5350   -0.5301 C   0  0  0  0  0  0  0  0  0  0  0  0
   48.6930    6.4528    0.8821 C   0  0  0  0  0  0  0  0  0  0  0  0
   47.9998    7.5013    1.5502 C   0  0  0  0  0  0  0  0  0  0  0  0
   47.3521    8.4037    0.6614 C   0  0  0  0  0  0  0  0  0  0  0  0
   47.9908    7.6382    3.4603 Br  0  0  0  0  0  0  0  0  0  0  0  0
   46.5499    9.6349    0.9447 C   0  0  0  0  0  0  0  0  0  0  0  0
   46.9899   10.7143    1.7899 C   0  0  0  0  0  0  0  0  0  0  0  0
   46.1439   11.8537    1.9665 C   0  0  0  0  0  0  0  0  0  0  0  0
   44.8671   11.9305    1.3166 C   0  0  0  0  0  0  0  0  0  0  0  0
   44.4204   10.8680    0.4817 C   0  0  0  0  0  0  0  0  0  0  0  0
   45.2651    9.7344    0.3011 C   0  0  0  0  0  0  0  0  0  0  0  0
   46.5664   12.9488    2.7804 N   0  0  0  0  0  0  0  0  0  0  0  0
   46.7818   12.5991    3.6751 H   0  0  0  0  0  0  0  0  0  0  0  0
   46.7921   14.3414    2.7887 C   0  0  0  0  0  0  0  0  0  0  0  0
   45.4935   15.1552    2.6752 C   0  0  0  0  0  0  0  0  0  0  0  0
   45.8604   16.6600    2.6678 C   0  0  0  0  0  0  0  0  0  0  0  0
   46.7018   17.0717    3.9104 C   0  0  0  0  0  0  0  0  0  0  0  0
   47.9487   16.1688    4.1298 C   0  0  0  0  0  0  0  0  0  0  0  0
   47.5729   14.6750    4.0869 C   0  0  0  0  0  0  0  0  0  0  0  0
   49.1081    5.6997   -1.5324 C   0  0  0  0  0  0  0  0  0  0  0  0
   49.3142    4.5191   -1.2437 O   0  0  0  0  0  0  0  0  0  0  0  0
   49.3587    6.1373   -2.6514 O   0  0  0  0  0  0  0  0  0  0  0  0
   49.1943    7.0382   -2.8497 H   0  0  0  0  0  0  0  0  0  0  0  0
   49.4108    5.4663    1.6081 O   0  0  0  0  0  0  0  0  0  0  0  0
   50.6610    5.8715    2.1649 C   0  0  0  0  0  0  0  0  0  0  0  0
   51.6789    5.9316    1.0306 C   0  0  0  0  0  0  0  0  0  0  0  0
   52.0833    7.0403    0.6410 O   0  0  0  0  0  0  0  0  0  0  0  0
   52.0681    4.8776    0.5419 O   0  0  0  0  0  0  0  0  0  0  0  0
   51.7608    7.8237    1.0412 H   0  0  0  0  0  0  0  0  0  0  0  0
  1  2  1  0  0  0
  1  5  1  0  0  0
  2  3  2  0  0  0
  2 21  1  0  0  0
  3  4  1  0  0  0
  3 25  1  0  0  0
  4  5  2  0  0  0
  4  6  1  0  0  0
  5  7  1  0  0  0
 21 22  2  0  0  0
 21 23  1  0  0  0
  7  8  1  0  0  0
  7 12  2  0  0  0
  8  9  2  0  0  0
  9 10  1  0  0  0
  9 13  1  0  0  0
 10 11  2  0  0  0
 11 12  1  0  0  0
 25 26  1  0  0  0
 26 27  1  0  0  0
 27 28  1  0  0  0
 27 29  2  0  0  0
 13 15  1  0  0  0
 15 16  1  0  0  0
 15 20  1  0  0  0
 16 17  1  0  0  0
 17 18  1  0  0  0
 18 19  1  0  0  0
 19 20  1  0  0  0
 23 24  1  0  0  0
 28 30  1  0  0  0
 13 14  1  0  0  0
M  END
> <minimizedAffinity>
-6.56680

$$$$
