3UEV_MYR_A_5412


 17 16  0  0  0  0  0  0  0  0999 V2000
   -2.0487   10.1679   17.7918 C   0  0  0  0  0  0  0  0  0  0  0  0
   -2.1889    8.6871   18.1244 C   0  0  0  0  0  0  0  0  0  0  0  0
   -2.0900    8.4595   19.6304 C   0  0  0  0  0  0  0  0  0  0  0  0
   -2.1870    6.9783   19.9742 C   0  0  0  0  0  0  0  0  0  0  0  0
   -0.8569    6.2364   19.8087 C   0  0  0  0  0  0  0  0  0  0  0  0
   -0.8253    4.9707   20.6328 C   0  0  0  0  0  0  0  0  0  0  0  0
    0.1526    4.2105   20.4756 O   0  0  0  0  0  0  0  0  0  0  0  0
   -1.7562    4.7302   21.4438 O   0  0  0  0  0  0  0  0  0  0  0  0
   -2.4708    5.3303   21.5281 H   0  0  0  0  0  0  0  0  0  0  0  0
   -2.3046   11.0463   19.0139 C   0  0  0  0  0  0  0  0  0  0  0  0
   -2.3374   12.5027   18.5937 C   0  0  0  0  0  0  0  0  0  0  0  0
   -3.6120   12.8586   17.8256 C   0  0  0  0  0  0  0  0  0  0  0  0
   -3.6690   14.3640   17.6452 C   0  0  0  0  0  0  0  0  0  0  0  0
   -2.3720   15.0688   18.0604 C   0  0  0  0  0  0  0  0  0  0  0  0
   -2.6808   16.5394   18.0234 C   0  0  0  0  0  0  0  0  0  0  0  0
   -4.0030   16.8321   17.3708 C   0  0  0  0  0  0  0  0  0  0  0  0
   -3.8765   18.0896   16.5553 C   0  0  0  0  0  0  0  0  0  0  0  0
  6  7  2  0  0  0
  6  8  1  0  0  0
  6  5  1  0  0  0
  5  4  1  0  0  0
  4  3  1  0  0  0
  3  2  1  0  0  0
  2  1  1  0  0  0
  1 10  1  0  0  0
 10 11  1  0  0  0
 11 12  1  0  0  0
 12 13  1  0  0  0
 13 14  1  0  0  0
 14 15  1  0  0  0
 15 16  1  0  0  0
 16 17  1  0  0  0
  8  9  1  0  0  0
M  END
> <minimizedAffinity>
-6.67489

$$$$
3UEV_MYR_A_5412


 17 16  0  0  0  0  0  0  0  0999 V2000
   -3.4356   13.0861   17.9804 C   0  0  0  0  0  0  0  0  0  0  0  0
   -2.0852   13.4618   18.5791 C   0  0  0  0  0  0  0  0  0  0  0  0
   -1.8515   14.9670   18.4840 C   0  0  0  0  0  0  0  0  0  0  0  0
   -2.8018   15.6130   17.4834 C   0  0  0  0  0  0  0  0  0  0  0  0
   -3.0470   17.0991   17.7633 C   0  0  0  0  0  0  0  0  0  0  0  0
   -4.1248   17.6588   16.8649 C   0  0  0  0  0  0  0  0  0  0  0  0
   -3.8970   18.7557   16.3138 O   0  0  0  0  0  0  0  0  0  0  0  0
   -5.1905   17.0136   16.6913 O   0  0  0  0  0  0  0  0  0  0  0  0
   -5.3177   16.1935   17.1263 H   0  0  0  0  0  0  0  0  0  0  0  0
   -3.6158   11.5721   17.9031 C   0  0  0  0  0  0  0  0  0  0  0  0
   -2.4181   10.8862   18.5307 C   0  0  0  0  0  0  0  0  0  0  0  0
   -1.8291    9.8008   17.6271 C   0  0  0  0  0  0  0  0  0  0  0  0
   -2.2670    8.4436   18.1454 C   0  0  0  0  0  0  0  0  0  0  0  0
   -2.5663    8.4423   19.6493 C   0  0  0  0  0  0  0  0  0  0  0  0
   -1.9187    7.1982   20.1897 C   0  0  0  0  0  0  0  0  0  0  0  0
   -0.8484    6.6659   19.2783 C   0  0  0  0  0  0  0  0  0  0  0  0
   -0.0603    5.6161   20.0127 C   0  0  0  0  0  0  0  0  0  0  0  0
  6  7  2  0  0  0
  6  8  1  0  0  0
  6  5  1  0  0  0
  5  4  1  0  0  0
  4  3  1  0  0  0
  3  2  1  0  0  0
  2  1  1  0  0  0
  1 10  1  0  0  0
 10 11  1  0  0  0
 11 12  1  0  0  0
 12 13  1  0  0  0
 13 14  1  0  0  0
 14 15  1  0  0  0
 15 16  1  0  0  0
 16 17  1  0  0  0
  8  9  1  0  0  0
M  END
> <minimizedAffinity>
-6.62160

$$$$
3UEV_MYR_A_5412


 17 16  0  0  0  0  0  0  0  0999 V2000
   -2.4742    9.3560   19.2658 C   0  0  0  0  0  0  0  0  0  0  0  0
   -2.2862    8.4360   18.0652 C   0  0  0  0  0  0  0  0  0  0  0  0
   -1.9668    7.0140   18.5185 C   0  0  0  0  0  0  0  0  0  0  0  0
   -1.1500    7.0130   19.8047 C   0  0  0  0  0  0  0  0  0  0  0  0
   -0.2577    5.7758   19.9469 C   0  0  0  0  0  0  0  0  0  0  0  0
   -0.9943    4.6387   20.6152 C   0  0  0  0  0  0  0  0  0  0  0  0
   -0.6176    3.4786   20.3485 O   0  0  0  0  0  0  0  0  0  0  0  0
   -1.9353    4.8870   21.4120 O   0  0  0  0  0  0  0  0  0  0  0  0
   -2.1836    5.7743   21.5819 H   0  0  0  0  0  0  0  0  0  0  0  0
   -2.2636   10.8209   18.8910 C   0  0  0  0  0  0  0  0  0  0  0  0
   -3.4930   11.3426   18.1732 C   0  0  0  0  0  0  0  0  0  0  0  0
   -3.4290   12.8520   17.9305 C   0  0  0  0  0  0  0  0  0  0  0  0
   -2.2149   13.4108   18.6487 C   0  0  0  0  0  0  0  0  0  0  0  0
   -2.0100   14.9109   18.4054 C   0  0  0  0  0  0  0  0  0  0  0  0
   -3.2691   15.3881   17.7372 C   0  0  0  0  0  0  0  0  0  0  0  0
   -3.1147   16.7553   17.1316 C   0  0  0  0  0  0  0  0  0  0  0  0
   -4.4593   17.4286   17.0989 C   0  0  0  0  0  0  0  0  0  0  0  0
  6  7  2  0  0  0
  6  8  1  0  0  0
  6  5  1  0  0  0
  5  4  1  0  0  0
  4  3  1  0  0  0
  3  2  1  0  0  0
  2  1  1  0  0  0
  1 10  1  0  0  0
 10 11  1  0  0  0
 11 12  1  0  0  0
 12 13  1  0  0  0
 13 14  1  0  0  0
 14 15  1  0  0  0
 15 16  1  0  0  0
 16 17  1  0  0  0
  8  9  1  0  0  0
M  END
> <minimizedAffinity>
-6.45236

$$$$
3UEV_MYR_A_5412


 17 16  0  0  0  0  0  0  0  0999 V2000
   -1.9835    9.9440   17.7989 C   0  0  0  0  0  0  0  0  0  0  0  0
   -2.0676    8.4518   18.0975 C   0  0  0  0  0  0  0  0  0  0  0  0
   -2.3263    8.2113   19.5823 C   0  0  0  0  0  0  0  0  0  0  0  0
   -3.0922    6.9136   19.8080 C   0  0  0  0  0  0  0  0  0  0  0  0
   -4.5532    6.9933   19.3538 C   0  0  0  0  0  0  0  0  0  0  0  0
   -4.8890    5.8879   18.3805 C   0  0  0  0  0  0  0  0  0  0  0  0
   -3.9551    5.4330   17.6879 O   0  0  0  0  0  0  0  0  0  0  0  0
   -6.0689    5.4586   18.3059 O   0  0  0  0  0  0  0  0  0  0  0  0
   -6.7380    5.8309   18.8460 H   0  0  0  0  0  0  0  0  0  0  0  0
   -3.3454   10.6217   17.9277 C   0  0  0  0  0  0  0  0  0  0  0  0
   -3.2673   11.7238   18.9660 C   0  0  0  0  0  0  0  0  0  0  0  0
   -1.9573   12.5101   18.8832 C   0  0  0  0  0  0  0  0  0  0  0  0
   -2.2661   13.9277   18.4391 C   0  0  0  0  0  0  0  0  0  0  0  0
   -3.6095   14.0501   17.7098 C   0  0  0  0  0  0  0  0  0  0  0  0
   -3.4907   15.2739   16.8453 C   0  0  0  0  0  0  0  0  0  0  0  0
   -2.9730   16.4643   17.6036 C   0  0  0  0  0  0  0  0  0  0  0  0
   -3.8647   17.6437   17.3275 C   0  0  0  0  0  0  0  0  0  0  0  0
  6  7  2  0  0  0
  6  8  1  0  0  0
  6  5  1  0  0  0
  5  4  1  0  0  0
  4  3  1  0  0  0
  3  2  1  0  0  0
  2  1  1  0  0  0
  1 10  1  0  0  0
 10 11  1  0  0  0
 11 12  1  0  0  0
 12 13  1  0  0  0
 13 14  1  0  0  0
 14 15  1  0  0  0
 15 16  1  0  0  0
 16 17  1  0  0  0
  8  9  1  0  0  0
M  END
> <minimizedAffinity>
-6.02355

$$$$
3UEV_MYR_A_5412


 17 16  0  0  0  0  0  0  0  0999 V2000
   -2.1359    9.9457   19.5395 C   0  0  0  0  0  0  0  0  0  0  0  0
   -2.7848    9.2718   18.3362 C   0  0  0  0  0  0  0  0  0  0  0  0
   -2.0280    8.0029   17.9538 C   0  0  0  0  0  0  0  0  0  0  0  0
   -2.9026    6.7659   18.1167 C   0  0  0  0  0  0  0  0  0  0  0  0
   -3.8725    6.8692   19.2981 C   0  0  0  0  0  0  0  0  0  0  0  0
   -3.2025    6.4858   20.5965 C   0  0  0  0  0  0  0  0  0  0  0  0
   -3.3375    7.2663   21.5616 O   0  0  0  0  0  0  0  0  0  0  0  0
   -2.5537    5.4108   20.6709 O   0  0  0  0  0  0  0  0  0  0  0  0
   -2.4790    4.8557   19.9197 H   0  0  0  0  0  0  0  0  0  0  0  0
   -2.7183   11.3347   19.7890 C   0  0  0  0  0  0  0  0  0  0  0  0
   -1.6026   12.3614   19.7802 C   0  0  0  0  0  0  0  0  0  0  0  0
   -1.8888   13.5241   18.8276 C   0  0  0  0  0  0  0  0  0  0  0  0
   -3.0690   13.1555   17.9481 C   0  0  0  0  0  0  0  0  0  0  0  0
   -3.5509   14.3171   17.0706 C   0  0  0  0  0  0  0  0  0  0  0  0
   -3.2451   15.5661   17.8490 C   0  0  0  0  0  0  0  0  0  0  0  0
   -3.1749   16.7857   16.9728 C   0  0  0  0  0  0  0  0  0  0  0  0
   -4.4840   17.5218   17.0561 C   0  0  0  0  0  0  0  0  0  0  0  0
  6  7  2  0  0  0
  6  8  1  0  0  0
  6  5  1  0  0  0
  5  4  1  0  0  0
  4  3  1  0  0  0
  3  2  1  0  0  0
  2  1  1  0  0  0
  1 10  1  0  0  0
 10 11  1  0  0  0
 11 12  1  0  0  0
 12 13  1  0  0  0
 13 14  1  0  0  0
 14 15  1  0  0  0
 15 16  1  0  0  0
 16 17  1  0  0  0
  8  9  1  0  0  0
M  END
> <minimizedAffinity>
-5.77056

$$$$
3UEV_MYR_A_5412


 17 16  0  0  0  0  0  0  0  0999 V2000
   -2.4922   11.3762   19.0407 C   0  0  0  0  0  0  0  0  0  0  0  0
   -3.1944   10.1688   18.4306 C   0  0  0  0  0  0  0  0  0  0  0  0
   -2.1901    9.0666   18.1052 C   0  0  0  0  0  0  0  0  0  0  0  0
   -2.1163    8.0361   19.2251 C   0  0  0  0  0  0  0  0  0  0  0  0
   -2.0428    6.5953   18.7098 C   0  0  0  0  0  0  0  0  0  0  0  0
   -3.3713    6.1406   18.1528 C   0  0  0  0  0  0  0  0  0  0  0  0
   -3.3484    5.4434   17.1173 O   0  0  0  0  0  0  0  0  0  0  0  0
   -4.4368    6.4588   18.7405 O   0  0  0  0  0  0  0  0  0  0  0  0
   -4.4053    6.9843   19.5157 H   0  0  0  0  0  0  0  0  0  0  0  0
   -2.9145   12.6762   18.3608 C   0  0  0  0  0  0  0  0  0  0  0  0
   -1.9527   13.7842   18.7431 C   0  0  0  0  0  0  0  0  0  0  0  0
   -2.1965   15.0676   17.9464 C   0  0  0  0  0  0  0  0  0  0  0  0
   -3.2656   14.7992   16.9038 C   0  0  0  0  0  0  0  0  0  0  0  0
   -4.1054   16.0384   16.5711 C   0  0  0  0  0  0  0  0  0  0  0  0
   -3.6790   17.0922   17.5545 C   0  0  0  0  0  0  0  0  0  0  0  0
   -4.0883   18.4744   17.1282 C   0  0  0  0  0  0  0  0  0  0  0  0
   -3.8188   18.6306   15.6567 C   0  0  0  0  0  0  0  0  0  0  0  0
  6  7  2  0  0  0
  6  8  1  0  0  0
  6  5  1  0  0  0
  5  4  1  0  0  0
  4  3  1  0  0  0
  3  2  1  0  0  0
  2  1  1  0  0  0
  1 10  1  0  0  0
 10 11  1  0  0  0
 11 12  1  0  0  0
 12 13  1  0  0  0
 13 14  1  0  0  0
 14 15  1  0  0  0
 15 16  1  0  0  0
 16 17  1  0  0  0
  8  9  1  0  0  0
M  END
> <minimizedAffinity>
-5.73951

$$$$
3UEV_MYR_A_5412


 17 16  0  0  0  0  0  0  0  0999 V2000
   -1.9192   11.0782   19.4662 C   0  0  0  0  0  0  0  0  0  0  0  0
   -1.7564   12.5837   19.2928 C   0  0  0  0  0  0  0  0  0  0  0  0
   -2.7633   13.1235   18.2809 C   0  0  0  0  0  0  0  0  0  0  0  0
   -2.5763   14.6190   18.0572 C   0  0  0  0  0  0  0  0  0  0  0  0
   -3.6316   15.2219   17.1244 C   0  0  0  0  0  0  0  0  0  0  0  0
   -3.8037   16.7023   17.3707 C   0  0  0  0  0  0  0  0  0  0  0  0
   -2.9056   17.2828   18.0151 O   0  0  0  0  0  0  0  0  0  0  0  0
   -4.8162   17.2969   16.9196 O   0  0  0  0  0  0  0  0  0  0  0  0
   -5.4653   16.8196   16.4411 H   0  0  0  0  0  0  0  0  0  0  0  0
   -2.2767   10.3950   18.1486 C   0  0  0  0  0  0  0  0  0  0  0  0
   -2.8371    9.0143   18.4289 C   0  0  0  0  0  0  0  0  0  0  0  0
   -1.7586    7.9295   18.3911 C   0  0  0  0  0  0  0  0  0  0  0  0
   -1.6402    7.3106   19.7714 C   0  0  0  0  0  0  0  0  0  0  0  0
   -2.9519    7.3547   20.5645 C   0  0  0  0  0  0  0  0  0  0  0  0
   -3.5991    6.0150   20.3510 C   0  0  0  0  0  0  0  0  0  0  0  0
   -4.9119    6.1206   19.6264 C   0  0  0  0  0  0  0  0  0  0  0  0
   -4.7332    5.6224   18.2185 C   0  0  0  0  0  0  0  0  0  0  0  0
  6  7  2  0  0  0
  6  8  1  0  0  0
  6  5  1  0  0  0
  5  4  1  0  0  0
  4  3  1  0  0  0
  3  2  1  0  0  0
  2  1  1  0  0  0
  1 10  1  0  0  0
 10 11  1  0  0  0
 11 12  1  0  0  0
 12 13  1  0  0  0
 13 14  1  0  0  0
 14 15  1  0  0  0
 15 16  1  0  0  0
 16 17  1  0  0  0
  8  9  1  0  0  0
M  END
> <minimizedAffinity>
-5.72610

$$$$
3UEV_MYR_A_5412


 17 16  0  0  0  0  0  0  0  0999 V2000
   -2.1539   11.3274   18.3043 C   0  0  0  0  0  0  0  0  0  0  0  0
   -3.0152   12.5674   18.5135 C   0  0  0  0  0  0  0  0  0  0  0  0
   -2.1444   13.8124   18.6589 C   0  0  0  0  0  0  0  0  0  0  0  0
   -2.4181   14.8132   17.5431 C   0  0  0  0  0  0  0  0  0  0  0  0
   -3.8410   15.3798   17.5821 C   0  0  0  0  0  0  0  0  0  0  0  0
   -3.8574   16.8522   17.2448 C   0  0  0  0  0  0  0  0  0  0  0  0
   -3.1250   17.6022   17.9230 O   0  0  0  0  0  0  0  0  0  0  0  0
   -4.5813   17.2694   16.3046 O   0  0  0  0  0  0  0  0  0  0  0  0
   -5.1154   16.6690   15.8226 H   0  0  0  0  0  0  0  0  0  0  0  0
   -2.4097   10.2759   19.3811 C   0  0  0  0  0  0  0  0  0  0  0  0
   -2.3075    8.8911   18.7722 C   0  0  0  0  0  0  0  0  0  0  0  0
   -1.8712    7.8373   19.7921 C   0  0  0  0  0  0  0  0  0  0  0  0
   -1.2357    6.6752   19.0519 C   0  0  0  0  0  0  0  0  0  0  0  0
   -0.2205    5.9031   19.9032 C   0  0  0  0  0  0  0  0  0  0  0  0
   -0.9816    4.7489   20.4931 C   0  0  0  0  0  0  0  0  0  0  0  0
   -0.1795    3.9959   21.5174 C   0  0  0  0  0  0  0  0  0  0  0  0
   -0.5196    2.5337   21.4243 C   0  0  0  0  0  0  0  0  0  0  0  0
  6  7  2  0  0  0
  6  8  1  0  0  0
  6  5  1  0  0  0
  5  4  1  0  0  0
  4  3  1  0  0  0
  3  2  1  0  0  0
  2  1  1  0  0  0
  1 10  1  0  0  0
 10 11  1  0  0  0
 11 12  1  0  0  0
 12 13  1  0  0  0
 13 14  1  0  0  0
 14 15  1  0  0  0
 15 16  1  0  0  0
 16 17  1  0  0  0
  8  9  1  0  0  0
M  END
> <minimizedAffinity>
-5.62088

$$$$
3UEV_MYR_A_5412


 17 16  0  0  0  0  0  0  0  0999 V2000
   -1.4903    7.7282   18.9961 C   0  0  0  0  0  0  0  0  0  0  0  0
   -2.3625    6.4852   19.1273 C   0  0  0  0  0  0  0  0  0  0  0  0
   -3.4513    6.4732   18.0578 C   0  0  0  0  0  0  0  0  0  0  0  0
   -4.6871    5.7197   18.5338 C   0  0  0  0  0  0  0  0  0  0  0  0
   -5.5095    6.5053   19.5602 C   0  0  0  0  0  0  0  0  0  0  0  0
   -6.9868    6.4360   19.2524 C   0  0  0  0  0  0  0  0  0  0  0  0
   -7.4782    7.3761   18.5940 O   0  0  0  0  0  0  0  0  0  0  0  0
   -7.6615    5.4508   19.6475 O   0  0  0  0  0  0  0  0  0  0  0  0
   -7.2497    4.7678   20.1394 H   0  0  0  0  0  0  0  0  0  0  0  0
   -2.2885    8.9248   18.4846 C   0  0  0  0  0  0  0  0  0  0  0  0
   -2.3291   10.0010   19.5519 C   0  0  0  0  0  0  0  0  0  0  0  0
   -2.4246   11.4076   18.9572 C   0  0  0  0  0  0  0  0  0  0  0  0
   -3.8098   11.5950   18.3670 C   0  0  0  0  0  0  0  0  0  0  0  0
   -3.9087   12.8125   17.4399 C   0  0  0  0  0  0  0  0  0  0  0  0
   -3.0795   13.8845   18.0900 C   0  0  0  0  0  0  0  0  0  0  0  0
   -3.4907   15.2661   17.6634 C   0  0  0  0  0  0  0  0  0  0  0  0
   -2.4198   16.2409   18.0700 C   0  0  0  0  0  0  0  0  0  0  0  0
  6  7  2  0  0  0
  6  8  1  0  0  0
  6  5  1  0  0  0
  5  4  1  0  0  0
  4  3  1  0  0  0
  3  2  1  0  0  0
  2  1  1  0  0  0
  1 10  1  0  0  0
 10 11  1  0  0  0
 11 12  1  0  0  0
 12 13  1  0  0  0
 13 14  1  0  0  0
 14 15  1  0  0  0
 15 16  1  0  0  0
 16 17  1  0  0  0
  8  9  1  0  0  0
M  END
> <minimizedAffinity>
-5.53451

$$$$
3UEV_MYR_A_5412


 17 16  0  0  0  0  0  0  0  0999 V2000
   -3.1507    8.4829   18.9254 C   0  0  0  0  0  0  0  0  0  0  0  0
   -3.4281    6.9851   18.9775 C   0  0  0  0  0  0  0  0  0  0  0  0
   -2.9527    6.3024   17.6980 C   0  0  0  0  0  0  0  0  0  0  0  0
   -3.5366    4.9011   17.5681 C   0  0  0  0  0  0  0  0  0  0  0  0
   -4.4640    4.5283   18.7292 C   0  0  0  0  0  0  0  0  0  0  0  0
   -5.9125    4.5307   18.3005 C   0  0  0  0  0  0  0  0  0  0  0  0
   -6.7707    4.3306   19.1849 O   0  0  0  0  0  0  0  0  0  0  0  0
   -6.2069    4.7417   17.0959 O   0  0  0  0  0  0  0  0  0  0  0  0
   -5.5284    4.8869   16.4663 H   0  0  0  0  0  0  0  0  0  0  0  0
   -2.0117    8.8116   17.9634 C   0  0  0  0  0  0  0  0  0  0  0  0
   -1.9191   10.3140   17.7814 C   0  0  0  0  0  0  0  0  0  0  0  0
   -3.2904   10.9915   17.8261 C   0  0  0  0  0  0  0  0  0  0  0  0
   -3.2222   12.1689   18.7808 C   0  0  0  0  0  0  0  0  0  0  0  0
   -1.8614   12.8757   18.7675 C   0  0  0  0  0  0  0  0  0  0  0  0
   -2.1524   14.3073   18.4141 C   0  0  0  0  0  0  0  0  0  0  0  0
   -3.5411   14.4933   17.8694 C   0  0  0  0  0  0  0  0  0  0  0  0
   -3.4467   14.9623   16.4433 C   0  0  0  0  0  0  0  0  0  0  0  0
  6  7  2  0  0  0
  6  8  1  0  0  0
  6  5  1  0  0  0
  5  4  1  0  0  0
  4  3  1  0  0  0
  3  2  1  0  0  0
  2  1  1  0  0  0
  1 10  1  0  0  0
 10 11  1  0  0  0
 11 12  1  0  0  0
 12 13  1  0  0  0
 13 14  1  0  0  0
 14 15  1  0  0  0
 15 16  1  0  0  0
 16 17  1  0  0  0
  8  9  1  0  0  0
M  END
> <minimizedAffinity>
-5.41370

$$$$
