3RF4_FUN_A_201


 25 26  0  0  0  0  0  0  0  0999 V2000
  -50.1720   46.7569   13.3924 C   0  0  0  0  0  0  0  0  0  0  0  0
  -49.1108   47.7226   12.9596 C   0  0  0  0  0  0  0  0  0  0  0  0
  -49.2097   49.2484   13.1657 Cl  0  0  0  0  0  0  0  0  0  0  0  0
  -47.9779   47.2674   12.2658 C   0  0  0  0  0  0  0  0  0  0  0  0
  -47.8132   45.8960   12.0177 C   0  0  0  0  0  0  0  0  0  0  0  0
  -48.8314   44.9707   12.4866 C   0  0  0  0  0  0  0  0  0  0  0  0
  -49.9899   45.3779   13.2364 C   0  0  0  0  0  0  0  0  0  0  0  0
  -52.3842   46.0099   14.4028 N   0  0  0  0  0  0  0  0  0  0  0  0
  -51.5917   47.2353   14.1644 S   0  0  0  0  0  0  0  0  0  0  0  0
  -51.1386   47.8177   15.4420 O   0  0  0  0  0  0  0  0  0  0  0  0
  -52.2624   48.1501   13.1529 O   0  0  0  0  0  0  0  0  0  0  0  0
  -53.2567   46.2549   14.8709 H   0  0  0  0  0  0  0  0  0  0  0  0
  -51.8511   45.3693   14.9910 H   0  0  0  0  0  0  0  0  0  0  0  0
  -48.5995   43.5005   12.3047 C   0  0  0  0  0  0  0  0  0  0  0  0
  -48.1445   43.1227   11.2145 O   0  0  0  0  0  0  0  0  0  0  0  0
  -48.8852   42.7383   13.2387 O   0  0  0  0  0  0  0  0  0  0  0  0
  -47.9479   43.7494   10.5463 H   0  0  0  0  0  0  0  0  0  0  0  0
  -46.6721   45.4129   11.3457 N   0  0  0  0  0  0  0  0  0  0  0  0
  -46.1705   44.6231   11.6520 H   0  0  0  0  0  0  0  0  0  0  0  0
  -46.2851   46.1899   10.1375 C   0  0  0  0  0  0  0  0  0  0  0  0
  -46.8475   45.6303    8.8730 C   0  0  0  0  0  0  0  0  0  0  0  0
  -47.3813   46.4162    7.8636 C   0  0  0  0  0  0  0  0  0  0  0  0
  -47.7866   45.5646    6.8509 C   0  0  0  0  0  0  0  0  0  0  0  0
  -47.5025   44.2787    7.2565 C   0  0  0  0  0  0  0  0  0  0  0  0
  -46.8732   44.2808    8.5197 O   0  0  0  0  0  0  0  0  0  0  0  0
  8  9  1  0  0  0
  9 10  2  0  0  0
  9 11  2  0  0  0
  9  1  1  0  0  0
  1  2  2  0  0  0
  1  7  1  0  0  0
  2  3  1  0  0  0
  2  4  1  0  0  0
  4  5  2  0  0  0
  5 18  1  0  0  0
  5  6  1  0  0  0
 18 20  1  0  0  0
 20 21  1  0  0  0
 21 22  2  0  0  0
 21 25  1  0  0  0
 22 23  1  0  0  0
 23 24  2  0  0  0
 24 25  1  0  0  0
  6  7  2  0  0  0
  6 14  1  0  0  0
 14 15  1  0  0  0
 14 16  2  0  0  0
  8 12  1  0  0  0
  8 13  1  0  0  0
 18 19  1  0  0  0
 15 17  1  0  0  0
M  END
> <minimizedAffinity>
-7.44063

$$$$
3RF4_FUN_A_201


 25 26  0  0  0  0  0  0  0  0999 V2000
  -48.9262   48.2679   13.0136 C   0  0  0  0  0  0  0  0  0  0  0  0
  -47.7293   48.3468   12.1150 C   0  0  0  0  0  0  0  0  0  0  0  0
  -46.9689   49.6562   11.8189 Cl  0  0  0  0  0  0  0  0  0  0  0  0
  -47.2793   47.2056   11.4313 C   0  0  0  0  0  0  0  0  0  0  0  0
  -47.9225   45.9738   11.6264 C   0  0  0  0  0  0  0  0  0  0  0  0
  -49.0528   45.9087   12.5380 C   0  0  0  0  0  0  0  0  0  0  0  0
  -49.5294   47.0364   13.2938 C   0  0  0  0  0  0  0  0  0  0  0  0
  -50.7091   49.1209   14.6155 N   0  0  0  0  0  0  0  0  0  0  0  0
  -49.5683   49.6072   13.8101 S   0  0  0  0  0  0  0  0  0  0  0  0
  -48.4763   50.0744   14.6853 O   0  0  0  0  0  0  0  0  0  0  0  0
  -50.0248   50.5151   12.6801 O   0  0  0  0  0  0  0  0  0  0  0  0
  -51.1294   49.9035   15.1168 H   0  0  0  0  0  0  0  0  0  0  0  0
  -50.3805   48.4252   15.2851 H   0  0  0  0  0  0  0  0  0  0  0  0
  -49.6709   44.5711   12.8159 C   0  0  0  0  0  0  0  0  0  0  0  0
  -48.9710   43.7251   13.3928 O   0  0  0  0  0  0  0  0  0  0  0  0
  -50.8362   44.3714   12.4458 O   0  0  0  0  0  0  0  0  0  0  0  0
  -48.0948   43.9373   13.6484 H   0  0  0  0  0  0  0  0  0  0  0  0
  -47.4730   44.8096   10.9709 N   0  0  0  0  0  0  0  0  0  0  0  0
  -47.8072   43.9112   11.1958 H   0  0  0  0  0  0  0  0  0  0  0  0
  -46.4541   45.0445    9.9125 C   0  0  0  0  0  0  0  0  0  0  0  0
  -47.0346   45.0964    8.5382 C   0  0  0  0  0  0  0  0  0  0  0  0
  -47.3029   46.2804    7.8691 C   0  0  0  0  0  0  0  0  0  0  0  0
  -47.8147   45.9439    6.6282 C   0  0  0  0  0  0  0  0  0  0  0  0
  -47.8576   44.5683    6.5602 C   0  0  0  0  0  0  0  0  0  0  0  0
  -47.3376   43.9934    7.7394 O   0  0  0  0  0  0  0  0  0  0  0  0
  8  9  1  0  0  0
  9 10  2  0  0  0
  9 11  2  0  0  0
  9  1  1  0  0  0
  1  2  2  0  0  0
  1  7  1  0  0  0
  2  3  1  0  0  0
  2  4  1  0  0  0
  4  5  2  0  0  0
  5 18  1  0  0  0
  5  6  1  0  0  0
 18 20  1  0  0  0
 20 21  1  0  0  0
 21 22  2  0  0  0
 21 25  1  0  0  0
 22 23  1  0  0  0
 23 24  2  0  0  0
 24 25  1  0  0  0
  6  7  2  0  0  0
  6 14  1  0  0  0
 14 15  1  0  0  0
 14 16  2  0  0  0
  8 12  1  0  0  0
  8 13  1  0  0  0
 18 19  1  0  0  0
 15 17  1  0  0  0
M  END
> <minimizedAffinity>
-6.97160

$$$$
3RF4_FUN_A_201


 25 26  0  0  0  0  0  0  0  0999 V2000
  -49.1388   46.6028   14.2036 C   0  0  0  0  0  0  0  0  0  0  0  0
  -48.7828   45.4624   13.2987 C   0  0  0  0  0  0  0  0  0  0  0  0
  -49.1210   43.9893   13.6084 Cl  0  0  0  0  0  0  0  0  0  0  0  0
  -48.0431   45.6909   12.1270 C   0  0  0  0  0  0  0  0  0  0  0  0
  -47.6759   46.9987   11.7749 C   0  0  0  0  0  0  0  0  0  0  0  0
  -48.0710   48.0963   12.6422 C   0  0  0  0  0  0  0  0  0  0  0  0
  -48.8625   47.9235   13.8313 C   0  0  0  0  0  0  0  0  0  0  0  0
  -50.1358   47.7455   16.2463 N   0  0  0  0  0  0  0  0  0  0  0  0
  -49.9605   46.3990   15.6608 S   0  0  0  0  0  0  0  0  0  0  0  0
  -51.2642   45.8277   15.2724 O   0  0  0  0  0  0  0  0  0  0  0  0
  -49.0174   45.5439   16.4909 O   0  0  0  0  0  0  0  0  0  0  0  0
  -50.6315   47.6682   17.1344 H   0  0  0  0  0  0  0  0  0  0  0  0
  -50.6753   48.3274   15.6054 H   0  0  0  0  0  0  0  0  0  0  0  0
  -47.7607   49.4976   12.2082 C   0  0  0  0  0  0  0  0  0  0  0  0
  -46.5682   49.7948   12.0408 O   0  0  0  0  0  0  0  0  0  0  0  0
  -48.7011   50.2891   12.0536 O   0  0  0  0  0  0  0  0  0  0  0  0
  -45.9015   49.1500   12.1738 H   0  0  0  0  0  0  0  0  0  0  0  0
  -46.9556   47.2554   10.5908 N   0  0  0  0  0  0  0  0  0  0  0  0
  -46.9041   48.1506   10.1843 H   0  0  0  0  0  0  0  0  0  0  0  0
  -46.2792   46.0676   10.0031 C   0  0  0  0  0  0  0  0  0  0  0  0
  -46.8712   45.6374    8.7020 C   0  0  0  0  0  0  0  0  0  0  0  0
  -47.4287   46.5201    7.7902 C   0  0  0  0  0  0  0  0  0  0  0  0
  -47.8576   45.7743    6.7061 C   0  0  0  0  0  0  0  0  0  0  0  0
  -47.5638   44.4548    6.9727 C   0  0  0  0  0  0  0  0  0  0  0  0
  -46.9049   44.3306    8.2145 O   0  0  0  0  0  0  0  0  0  0  0  0
  8  9  1  0  0  0
  9 10  2  0  0  0
  9 11  2  0  0  0
  9  1  1  0  0  0
  1  2  2  0  0  0
  1  7  1  0  0  0
  2  3  1  0  0  0
  2  4  1  0  0  0
  4  5  2  0  0  0
  5 18  1  0  0  0
  5  6  1  0  0  0
 18 20  1  0  0  0
 20 21  1  0  0  0
 21 22  2  0  0  0
 21 25  1  0  0  0
 22 23  1  0  0  0
 23 24  2  0  0  0
 24 25  1  0  0  0
  6  7  2  0  0  0
  6 14  1  0  0  0
 14 15  1  0  0  0
 14 16  2  0  0  0
  8 12  1  0  0  0
  8 13  1  0  0  0
 18 19  1  0  0  0
 15 17  1  0  0  0
M  END
> <minimizedAffinity>
-6.64843

$$$$
3RF4_FUN_A_201


 25 26  0  0  0  0  0  0  0  0999 V2000
  -47.9019   45.2881   12.0287 C   0  0  0  0  0  0  0  0  0  0  0  0
  -47.2562   46.3653   11.2108 C   0  0  0  0  0  0  0  0  0  0  0  0
  -46.3381   46.0855   10.0029 Cl  0  0  0  0  0  0  0  0  0  0  0  0
  -47.4128   47.7152   11.5653 C   0  0  0  0  0  0  0  0  0  0  0  0
  -48.2168   48.0621   12.6619 C   0  0  0  0  0  0  0  0  0  0  0  0
  -48.8719   47.0050   13.4143 C   0  0  0  0  0  0  0  0  0  0  0  0
  -48.7786   45.6109   13.0709 C   0  0  0  0  0  0  0  0  0  0  0  0
  -48.5541   42.9144   12.6710 N   0  0  0  0  0  0  0  0  0  0  0  0
  -47.7014   43.6456   11.7093 S   0  0  0  0  0  0  0  0  0  0  0  0
  -48.2049   43.4733   10.3332 O   0  0  0  0  0  0  0  0  0  0  0  0
  -46.2241   43.4041   11.9718 O   0  0  0  0  0  0  0  0  0  0  0  0
  -48.4626   41.9110   12.5122 H   0  0  0  0  0  0  0  0  0  0  0  0
  -49.5272   43.1917   12.5419 H   0  0  0  0  0  0  0  0  0  0  0  0
  -49.8068   47.3897   14.5217 C   0  0  0  0  0  0  0  0  0  0  0  0
  -49.3126   47.9061   15.5354 O   0  0  0  0  0  0  0  0  0  0  0  0
  -51.0160   47.1616   14.3789 O   0  0  0  0  0  0  0  0  0  0  0  0
  -48.3884   48.0532   15.5832 H   0  0  0  0  0  0  0  0  0  0  0  0
  -48.4094   49.4115   13.0212 N   0  0  0  0  0  0  0  0  0  0  0  0
  -49.2680   49.8767   12.8963 H   0  0  0  0  0  0  0  0  0  0  0  0
  -47.2136   50.0778   13.6040 C   0  0  0  0  0  0  0  0  0  0  0  0
  -46.5951   51.0819   12.6888 C   0  0  0  0  0  0  0  0  0  0  0  0
  -45.3192   50.9491   12.1635 C   0  0  0  0  0  0  0  0  0  0  0  0
  -45.0914   52.0490   11.3551 C   0  0  0  0  0  0  0  0  0  0  0  0
  -46.2215   52.8360   11.4033 C   0  0  0  0  0  0  0  0  0  0  0  0
  -47.2124   52.2384   12.2112 O   0  0  0  0  0  0  0  0  0  0  0  0
  8  9  1  0  0  0
  9 10  2  0  0  0
  9 11  2  0  0  0
  9  1  1  0  0  0
  1  2  2  0  0  0
  1  7  1  0  0  0
  2  3  1  0  0  0
  2  4  1  0  0  0
  4  5  2  0  0  0
  5 18  1  0  0  0
  5  6  1  0  0  0
 18 20  1  0  0  0
 20 21  1  0  0  0
 21 22  2  0  0  0
 21 25  1  0  0  0
 22 23  1  0  0  0
 23 24  2  0  0  0
 24 25  1  0  0  0
  6  7  2  0  0  0
  6 14  1  0  0  0
 14 15  1  0  0  0
 14 16  2  0  0  0
  8 12  1  0  0  0
  8 13  1  0  0  0
 18 19  1  0  0  0
 15 17  1  0  0  0
M  END
> <minimizedAffinity>
-6.43876

$$$$
3RF4_FUN_A_201


 25 26  0  0  0  0  0  0  0  0999 V2000
  -48.1027   44.8980   12.3933 C   0  0  0  0  0  0  0  0  0  0  0  0
  -47.7388   46.2526   11.8653 C   0  0  0  0  0  0  0  0  0  0  0  0
  -46.8606   46.4744   10.6163 Cl  0  0  0  0  0  0  0  0  0  0  0  0
  -48.1406   47.4117   12.5489 C   0  0  0  0  0  0  0  0  0  0  0  0
  -48.9276   47.3047   13.7058 C   0  0  0  0  0  0  0  0  0  0  0  0
  -49.3089   45.9830   14.1755 C   0  0  0  0  0  0  0  0  0  0  0  0
  -48.9594   44.7660   13.4923 C   0  0  0  0  0  0  0  0  0  0  0  0
  -48.2309   42.3573   12.4205 N   0  0  0  0  0  0  0  0  0  0  0  0
  -47.5971   43.4624   11.6697 S   0  0  0  0  0  0  0  0  0  0  0  0
  -48.1333   43.5324   10.2970 O   0  0  0  0  0  0  0  0  0  0  0  0
  -46.0889   43.4755   11.8559 O   0  0  0  0  0  0  0  0  0  0  0  0
  -47.9503   41.4650   12.0136 H   0  0  0  0  0  0  0  0  0  0  0  0
  -49.2455   42.4499   12.3699 H   0  0  0  0  0  0  0  0  0  0  0  0
  -50.2307   45.8815   15.3538 C   0  0  0  0  0  0  0  0  0  0  0  0
  -49.7724   45.3980   16.4000 O   0  0  0  0  0  0  0  0  0  0  0  0
  -51.4003   46.2683   15.2227 O   0  0  0  0  0  0  0  0  0  0  0  0
  -48.8773   45.1233   16.4364 H   0  0  0  0  0  0  0  0  0  0  0  0
  -49.3642   48.4546   14.3944 N   0  0  0  0  0  0  0  0  0  0  0  0
  -49.6289   48.4370   15.3425 H   0  0  0  0  0  0  0  0  0  0  0  0
  -49.3936   49.6969   13.5764 C   0  0  0  0  0  0  0  0  0  0  0  0
  -50.7576   50.0392   13.0754 C   0  0  0  0  0  0  0  0  0  0  0  0
  -51.9106   49.4066   13.5134 C   0  0  0  0  0  0  0  0  0  0  0  0
  -52.9760   49.9888   12.8493 C   0  0  0  0  0  0  0  0  0  0  0  0
  -52.4612   50.9577   12.0158 C   0  0  0  0  0  0  0  0  0  0  0  0
  -51.0597   51.0448   12.1567 O   0  0  0  0  0  0  0  0  0  0  0  0
  8  9  1  0  0  0
  9 10  2  0  0  0
  9 11  2  0  0  0
  9  1  1  0  0  0
  1  2  2  0  0  0
  1  7  1  0  0  0
  2  3  1  0  0  0
  2  4  1  0  0  0
  4  5  2  0  0  0
  5 18  1  0  0  0
  5  6  1  0  0  0
 18 20  1  0  0  0
 20 21  1  0  0  0
 21 22  2  0  0  0
 21 25  1  0  0  0
 22 23  1  0  0  0
 23 24  2  0  0  0
 24 25  1  0  0  0
  6  7  2  0  0  0
  6 14  1  0  0  0
 14 15  1  0  0  0
 14 16  2  0  0  0
  8 12  1  0  0  0
  8 13  1  0  0  0
 18 19  1  0  0  0
 15 17  1  0  0  0
M  END
> <minimizedAffinity>
-6.13601

$$$$
3RF4_FUN_A_201


 25 26  0  0  0  0  0  0  0  0999 V2000
  -47.7726   46.0544   11.7373 C   0  0  0  0  0  0  0  0  0  0  0  0
  -48.4955   45.7328   13.0101 C   0  0  0  0  0  0  0  0  0  0  0  0
  -48.8815   44.3004   13.4340 Cl  0  0  0  0  0  0  0  0  0  0  0  0
  -48.9236   46.7634   13.8626 C   0  0  0  0  0  0  0  0  0  0  0  0
  -48.6319   48.0993   13.5470 C   0  0  0  0  0  0  0  0  0  0  0  0
  -47.8892   48.3872   12.3312 C   0  0  0  0  0  0  0  0  0  0  0  0
  -47.3922   47.3691   11.4443 C   0  0  0  0  0  0  0  0  0  0  0  0
  -48.5235   44.2278   10.1335 N   0  0  0  0  0  0  0  0  0  0  0  0
  -47.2919   44.8784   10.6299 S   0  0  0  0  0  0  0  0  0  0  0  0
  -46.6333   45.6367    9.5492 O   0  0  0  0  0  0  0  0  0  0  0  0
  -46.4478   43.9248   11.4592 O   0  0  0  0  0  0  0  0  0  0  0  0
  -48.2773   43.5053    9.4569 H   0  0  0  0  0  0  0  0  0  0  0  0
  -49.1192   44.9242    9.6856 H   0  0  0  0  0  0  0  0  0  0  0  0
  -47.4965   49.8073   12.0528 C   0  0  0  0  0  0  0  0  0  0  0  0
  -48.3950   50.5962   11.7229 O   0  0  0  0  0  0  0  0  0  0  0  0
  -46.3014   50.1188   12.1501 O   0  0  0  0  0  0  0  0  0  0  0  0
  -49.2820   50.2993   11.6672 H   0  0  0  0  0  0  0  0  0  0  0  0
  -49.0290   49.1489   14.4002 N   0  0  0  0  0  0  0  0  0  0  0  0
  -48.3898   49.7927   14.7825 H   0  0  0  0  0  0  0  0  0  0  0  0
  -50.4895   49.2076   14.6776 C   0  0  0  0  0  0  0  0  0  0  0  0
  -51.2656   49.8920   13.6017 C   0  0  0  0  0  0  0  0  0  0  0  0
  -52.3421   49.3093   12.9511 C   0  0  0  0  0  0  0  0  0  0  0  0
  -52.8184   50.2328   12.0371 C   0  0  0  0  0  0  0  0  0  0  0  0
  -52.0268   51.3563   12.1371 C   0  0  0  0  0  0  0  0  0  0  0  0
  -51.0519   51.1926   13.1442 O   0  0  0  0  0  0  0  0  0  0  0  0
  8  9  1  0  0  0
  9 10  2  0  0  0
  9 11  2  0  0  0
  9  1  1  0  0  0
  1  2  2  0  0  0
  1  7  1  0  0  0
  2  3  1  0  0  0
  2  4  1  0  0  0
  4  5  2  0  0  0
  5 18  1  0  0  0
  5  6  1  0  0  0
 18 20  1  0  0  0
 20 21  1  0  0  0
 21 22  2  0  0  0
 21 25  1  0  0  0
 22 23  1  0  0  0
 23 24  2  0  0  0
 24 25  1  0  0  0
  6  7  2  0  0  0
  6 14  1  0  0  0
 14 15  1  0  0  0
 14 16  2  0  0  0
  8 12  1  0  0  0
  8 13  1  0  0  0
 18 19  1  0  0  0
 15 17  1  0  0  0
M  END
> <minimizedAffinity>
-6.10945

$$$$
3RF4_FUN_A_201


 25 26  0  0  0  0  0  0  0  0999 V2000
  -48.2070   45.1043   12.3557 C   0  0  0  0  0  0  0  0  0  0  0  0
  -47.7536   46.3942   11.7418 C   0  0  0  0  0  0  0  0  0  0  0  0
  -46.8215   46.4745   10.5150 Cl  0  0  0  0  0  0  0  0  0  0  0  0
  -48.1172   47.6213   12.3199 C   0  0  0  0  0  0  0  0  0  0  0  0
  -48.9490   47.6434   13.4500 C   0  0  0  0  0  0  0  0  0  0  0  0
  -49.4160   46.3827   14.0026 C   0  0  0  0  0  0  0  0  0  0  0  0
  -49.1076   45.1006   13.4271 C   0  0  0  0  0  0  0  0  0  0  0  0
  -48.1746   43.5445   10.3461 N   0  0  0  0  0  0  0  0  0  0  0  0
  -47.7529   43.5936   11.7626 S   0  0  0  0  0  0  0  0  0  0  0  0
  -46.2813   43.5834   11.8671 O   0  0  0  0  0  0  0  0  0  0  0  0
  -48.5431   42.6172   12.6181 O   0  0  0  0  0  0  0  0  0  0  0  0
  -47.9177   42.6421    9.9460 H   0  0  0  0  0  0  0  0  0  0  0  0
  -47.7114   44.2907    9.8274 H   0  0  0  0  0  0  0  0  0  0  0  0
  -50.3828   46.4189   15.1482 C   0  0  0  0  0  0  0  0  0  0  0  0
  -50.1647   45.6619   16.1063 O   0  0  0  0  0  0  0  0  0  0  0  0
  -51.3532   47.1856   15.0771 O   0  0  0  0  0  0  0  0  0  0  0  0
  -49.4115   45.1045   16.1009 H   0  0  0  0  0  0  0  0  0  0  0  0
  -49.3480   48.8635   14.0324 N   0  0  0  0  0  0  0  0  0  0  0  0
  -50.2935   49.1105   14.1518 H   0  0  0  0  0  0  0  0  0  0  0  0
  -48.2286   49.7489   14.4525 C   0  0  0  0  0  0  0  0  0  0  0  0
  -47.7278   50.6259   13.3532 C   0  0  0  0  0  0  0  0  0  0  0  0
  -46.3901   50.7167   13.0012 C   0  0  0  0  0  0  0  0  0  0  0  0
  -46.3034   51.6040   11.9427 C   0  0  0  0  0  0  0  0  0  0  0  0
  -47.5801   52.0445   11.6697 C   0  0  0  0  0  0  0  0  0  0  0  0
  -48.5169   51.4196   12.5203 O   0  0  0  0  0  0  0  0  0  0  0  0
  8  9  1  0  0  0
  9 10  2  0  0  0
  9 11  2  0  0  0
  9  1  1  0  0  0
  1  2  2  0  0  0
  1  7  1  0  0  0
  2  3  1  0  0  0
  2  4  1  0  0  0
  4  5  2  0  0  0
  5 18  1  0  0  0
  5  6  1  0  0  0
 18 20  1  0  0  0
 20 21  1  0  0  0
 21 22  2  0  0  0
 21 25  1  0  0  0
 22 23  1  0  0  0
 23 24  2  0  0  0
 24 25  1  0  0  0
  6  7  2  0  0  0
  6 14  1  0  0  0
 14 15  1  0  0  0
 14 16  2  0  0  0
  8 12  1  0  0  0
  8 13  1  0  0  0
 18 19  1  0  0  0
 15 17  1  0  0  0
M  END
> <minimizedAffinity>
-6.04026

$$$$
3RF4_FUN_A_201


 25 26  0  0  0  0  0  0  0  0999 V2000
  -48.0585   45.4204   11.9371 C   0  0  0  0  0  0  0  0  0  0  0  0
  -48.9053   44.6973   12.9403 C   0  0  0  0  0  0  0  0  0  0  0  0
  -49.0219   43.1604   13.0095 Cl  0  0  0  0  0  0  0  0  0  0  0  0
  -49.7049   45.4165   13.8433 C   0  0  0  0  0  0  0  0  0  0  0  0
  -49.6760   46.8195   13.8401 C   0  0  0  0  0  0  0  0  0  0  0  0
  -48.8127   47.5015   12.8901 C   0  0  0  0  0  0  0  0  0  0  0  0
  -47.9438   46.8149   11.9716 C   0  0  0  0  0  0  0  0  0  0  0  0
  -48.0725   44.0300    9.8065 N   0  0  0  0  0  0  0  0  0  0  0  0
  -47.1293   44.6277   10.7759 S   0  0  0  0  0  0  0  0  0  0  0  0
  -46.3407   45.7002   10.1396 O   0  0  0  0  0  0  0  0  0  0  0  0
  -46.3899   43.5634   11.5696 O   0  0  0  0  0  0  0  0  0  0  0  0
  -47.5494   43.5378    9.0823 H   0  0  0  0  0  0  0  0  0  0  0  0
  -48.6335   44.7671    9.3793 H   0  0  0  0  0  0  0  0  0  0  0  0
  -48.7132   48.9961   12.9598 C   0  0  0  0  0  0  0  0  0  0  0  0
  -47.6207   49.4830   13.2881 O   0  0  0  0  0  0  0  0  0  0  0  0
  -49.7224   49.6671   12.7030 O   0  0  0  0  0  0  0  0  0  0  0  0
  -46.8931   48.9213   13.4700 H   0  0  0  0  0  0  0  0  0  0  0  0
  -50.4504   47.5625   14.7540 N   0  0  0  0  0  0  0  0  0  0  0  0
  -50.7025   48.5010   14.5960 H   0  0  0  0  0  0  0  0  0  0  0  0
  -50.8572   46.8177   15.9759 C   0  0  0  0  0  0  0  0  0  0  0  0
  -52.2589   46.3080   15.9149 C   0  0  0  0  0  0  0  0  0  0  0  0
  -53.1923   46.7551   14.9927 C   0  0  0  0  0  0  0  0  0  0  0  0
  -54.3643   46.0562   15.2227 C   0  0  0  0  0  0  0  0  0  0  0  0
  -54.1335   45.2026   16.2795 C   0  0  0  0  0  0  0  0  0  0  0  0
  -52.7981   45.3071   16.7237 O   0  0  0  0  0  0  0  0  0  0  0  0
  8  9  1  0  0  0
  9 10  2  0  0  0
  9 11  2  0  0  0
  9  1  1  0  0  0
  1  2  2  0  0  0
  1  7  1  0  0  0
  2  3  1  0  0  0
  2  4  1  0  0  0
  4  5  2  0  0  0
  5 18  1  0  0  0
  5  6  1  0  0  0
 18 20  1  0  0  0
 20 21  1  0  0  0
 21 22  2  0  0  0
 21 25  1  0  0  0
 22 23  1  0  0  0
 23 24  2  0  0  0
 24 25  1  0  0  0
  6  7  2  0  0  0
  6 14  1  0  0  0
 14 15  1  0  0  0
 14 16  2  0  0  0
  8 12  1  0  0  0
  8 13  1  0  0  0
 18 19  1  0  0  0
 15 17  1  0  0  0
M  END
> <minimizedAffinity>
-5.97247

$$$$
3RF4_FUN_A_201


 25 26  0  0  0  0  0  0  0  0999 V2000
  -47.9194   45.6297   11.8656 C   0  0  0  0  0  0  0  0  0  0  0  0
  -48.7208   45.0728   13.0030 C   0  0  0  0  0  0  0  0  0  0  0  0
  -49.0387   43.5722   13.1691 Cl  0  0  0  0  0  0  0  0  0  0  0  0
  -49.2899   45.9318   13.9572 C   0  0  0  0  0  0  0  0  0  0  0  0
  -49.0680   47.3150   13.8745 C   0  0  0  0  0  0  0  0  0  0  0  0
  -48.2491   47.8309   12.7900 C   0  0  0  0  0  0  0  0  0  0  0  0
  -47.6097   46.9935   11.8101 C   0  0  0  0  0  0  0  0  0  0  0  0
  -48.4041   44.0401    9.9393 N   0  0  0  0  0  0  0  0  0  0  0  0
  -47.2667   44.6702   10.6435 S   0  0  0  0  0  0  0  0  0  0  0  0
  -46.5711   45.6234    9.7579 O   0  0  0  0  0  0  0  0  0  0  0  0
  -46.4337   43.6450   11.3951 O   0  0  0  0  0  0  0  0  0  0  0  0
  -48.0522   43.4472    9.1875 H   0  0  0  0  0  0  0  0  0  0  0  0
  -49.0052   44.7650    9.5476 H   0  0  0  0  0  0  0  0  0  0  0  0
  -47.9359   49.2971   12.7659 C   0  0  0  0  0  0  0  0  0  0  0  0
  -47.3492   49.7740   13.7491 O   0  0  0  0  0  0  0  0  0  0  0  0
  -48.2885   49.9594   11.7801 O   0  0  0  0  0  0  0  0  0  0  0  0
  -47.1081   49.2197   14.4651 H   0  0  0  0  0  0  0  0  0  0  0  0
  -49.6076   48.1943   14.8351 N   0  0  0  0  0  0  0  0  0  0  0  0
  -49.6537   49.1680   14.6967 H   0  0  0  0  0  0  0  0  0  0  0  0
  -50.1019   47.5360   16.0743 C   0  0  0  0  0  0  0  0  0  0  0  0
  -49.0819   47.4906   17.1633 C   0  0  0  0  0  0  0  0  0  0  0  0
  -48.5088   46.3145   17.6213 C   0  0  0  0  0  0  0  0  0  0  0  0
  -47.6062   46.6565   18.6130 C   0  0  0  0  0  0  0  0  0  0  0  0
  -47.6457   48.0269   18.7502 C   0  0  0  0  0  0  0  0  0  0  0  0
  -48.5443   48.5963   17.8229 O   0  0  0  0  0  0  0  0  0  0  0  0
  8  9  1  0  0  0
  9 10  2  0  0  0
  9 11  2  0  0  0
  9  1  1  0  0  0
  1  2  2  0  0  0
  1  7  1  0  0  0
  2  3  1  0  0  0
  2  4  1  0  0  0
  4  5  2  0  0  0
  5 18  1  0  0  0
  5  6  1  0  0  0
 18 20  1  0  0  0
 20 21  1  0  0  0
 21 22  2  0  0  0
 21 25  1  0  0  0
 22 23  1  0  0  0
 23 24  2  0  0  0
 24 25  1  0  0  0
  6  7  2  0  0  0
  6 14  1  0  0  0
 14 15  1  0  0  0
 14 16  2  0  0  0
  8 12  1  0  0  0
  8 13  1  0  0  0
 18 19  1  0  0  0
 15 17  1  0  0  0
M  END
> <minimizedAffinity>
-5.95837

$$$$
3RF4_FUN_A_201


 25 26  0  0  0  0  0  0  0  0999 V2000
  -51.1435   48.5039   13.9837 C   0  0  0  0  0  0  0  0  0  0  0  0
  -51.2079   47.0332   13.7026 C   0  0  0  0  0  0  0  0  0  0  0  0
  -52.4139   46.1452   14.0735 Cl  0  0  0  0  0  0  0  0  0  0  0  0
  -50.1084   46.3711   13.1325 C   0  0  0  0  0  0  0  0  0  0  0  0
  -48.9606   47.0970   12.7791 C   0  0  0  0  0  0  0  0  0  0  0  0
  -48.9359   48.5308   13.0173 C   0  0  0  0  0  0  0  0  0  0  0  0
  -50.0478   49.2649   13.5603 C   0  0  0  0  0  0  0  0  0  0  0  0
  -51.9750   50.7707   14.7853 N   0  0  0  0  0  0  0  0  0  0  0  0
  -52.3928   49.3533   14.7307 S   0  0  0  0  0  0  0  0  0  0  0  0
  -53.5455   49.1861   13.8252 O   0  0  0  0  0  0  0  0  0  0  0  0
  -52.4702   48.7366   16.1175 O   0  0  0  0  0  0  0  0  0  0  0  0
  -52.7062   51.3237   15.2325 H   0  0  0  0  0  0  0  0  0  0  0  0
  -51.8189   51.1159   13.8382 H   0  0  0  0  0  0  0  0  0  0  0  0
  -47.7464   49.3131   12.5466 C   0  0  0  0  0  0  0  0  0  0  0  0
  -47.1267   49.9774   13.3910 O   0  0  0  0  0  0  0  0  0  0  0  0
  -47.4509   49.2710   11.3442 O   0  0  0  0  0  0  0  0  0  0  0  0
  -47.4001   49.9680   14.2872 H   0  0  0  0  0  0  0  0  0  0  0  0
  -47.8546   46.4587   12.1822 N   0  0  0  0  0  0  0  0  0  0  0  0
  -46.9399   46.8184   12.2391 H   0  0  0  0  0  0  0  0  0  0  0  0
  -48.1776   45.1990   11.4596 C   0  0  0  0  0  0  0  0  0  0  0  0
  -47.6960   45.1913   10.0466 C   0  0  0  0  0  0  0  0  0  0  0  0
  -46.9966   46.2427    9.4748 C   0  0  0  0  0  0  0  0  0  0  0  0
  -46.7039   45.8806    8.1715 C   0  0  0  0  0  0  0  0  0  0  0  0
  -47.2312   44.6244    7.9654 C   0  0  0  0  0  0  0  0  0  0  0  0
  -47.8380   44.1378    9.1430 O   0  0  0  0  0  0  0  0  0  0  0  0
  8  9  1  0  0  0
  9 10  2  0  0  0
  9 11  2  0  0  0
  9  1  1  0  0  0
  1  2  2  0  0  0
  1  7  1  0  0  0
  2  3  1  0  0  0
  2  4  1  0  0  0
  4  5  2  0  0  0
  5 18  1  0  0  0
  5  6  1  0  0  0
 18 20  1  0  0  0
 20 21  1  0  0  0
 21 22  2  0  0  0
 21 25  1  0  0  0
 22 23  1  0  0  0
 23 24  2  0  0  0
 24 25  1  0  0  0
  6  7  2  0  0  0
  6 14  1  0  0  0
 14 15  1  0  0  0
 14 16  2  0  0  0
  8 12  1  0  0  0
  8 13  1  0  0  0
 18 19  1  0  0  0
 15 17  1  0  0  0
M  END
> <minimizedAffinity>
-5.71049

$$$$
