3GBB_MS8_A_258


 22 23  0  0  0  0  0  0  0  0999 V2000
    1.2164   44.3125    2.6234 C   0  0  0  0  0  0  0  0  0  0  0  0
    2.6794   44.7591    2.7234 C   0  0  0  0  0  0  0  0  0  0  0  0
    1.1795   43.0125    3.2237 O   0  0  0  0  0  0  0  0  0  0  0  0
    2.4241   42.4367    2.8073 C   0  0  0  0  0  0  0  0  0  0  0  0
    3.3852   43.5178    3.2719 C   0  0  0  0  0  0  0  0  0  0  0  0
    2.6683   41.1132    3.5339 C   0  0  0  0  0  0  0  0  0  0  0  0
    2.7979   41.3359    5.0407 C   0  0  0  0  0  0  0  0  0  0  0  0
    3.8660   42.3968    5.3051 C   0  0  0  0  0  0  0  0  0  0  0  0
    3.4280   43.6249    4.7044 O   0  0  0  0  0  0  0  0  0  0  0  0
    0.2919   45.2854    3.3566 C   0  0  0  0  0  0  0  0  0  0  0  0
   -0.4446   46.0139    2.6562 O   0  0  0  0  0  0  0  0  0  0  0  0
    0.3526   45.2934    4.6054 O   0  0  0  0  0  0  0  0  0  0  0  0
   -0.4250   45.9401    1.7223 H   0  0  0  0  0  0  0  0  0  0  0  0
    0.8357   44.2236    1.1443 C   0  0  0  0  0  0  0  0  0  0  0  0
   -0.5408   43.5768    0.9648 C   0  0  0  0  0  0  0  0  0  0  0  0
   -0.4642   42.1176    1.1252 N   0  0  0  0  0  0  0  0  0  0  0  0
    0.1679   41.7312    0.4240 H   0  0  0  0  0  0  0  0  0  0  0  0
   -1.3929   41.7132    1.0055 H   0  0  0  0  0  0  0  0  0  0  0  0
   -1.1070   45.1477   -0.7111 O   0  0  0  0  0  0  0  0  0  0  0  0
   -1.0584   43.9313   -0.4294 C   0  0  0  0  0  0  0  0  0  0  0  0
   -1.3822   42.9832   -1.1793 O   0  0  0  0  0  0  0  0  0  0  0  0
   -1.3099   42.0997   -0.8755 H   0  0  0  0  0  0  0  0  0  0  0  0
 19 20  2  0  0  0
 20 21  1  0  0  0
 20 15  1  0  0  0
 15 16  1  0  0  0
 15 14  1  0  0  0
 14  1  1  0  0  0
  1  2  1  0  0  0
  1 10  1  0  0  0
  1  3  1  0  0  0
  2  5  1  0  0  0
 10 11  1  0  0  0
 10 12  2  0  0  0
  3  4  1  0  0  0
  4  5  1  0  0  0
  4  6  1  0  0  0
  5  9  1  0  0  0
  6  7  1  0  0  0
  7  8  1  0  0  0
  8  9  1  0  0  0
 21 22  1  0  0  0
 16 17  1  0  0  0
 16 18  1  0  0  0
 11 13  1  0  0  0
M  END
> <minimizedAffinity>
-9.77450

$$$$
3GBB_MS8_A_258


 22 23  0  0  0  0  0  0  0  0999 V2000
    1.7334   44.6335    2.8954 C   0  0  0  0  0  0  0  0  0  0  0  0
    3.2542   44.4420    2.8953 C   0  0  0  0  0  0  0  0  0  0  0  0
    1.2024   43.4169    3.4335 O   0  0  0  0  0  0  0  0  0  0  0  0
    2.0777   42.4216    2.8884 C   0  0  0  0  0  0  0  0  0  0  0  0
    3.4210   42.9829    3.3233 C   0  0  0  0  0  0  0  0  0  0  0  0
    1.8002   41.0603    3.5279 C   0  0  0  0  0  0  0  0  0  0  0  0
    2.0937   41.0941    5.0278 C   0  0  0  0  0  0  0  0  0  0  0  0
    3.5150   41.6091    5.2535 C   0  0  0  0  0  0  0  0  0  0  0  0
    3.5839   42.9520    4.7508 O   0  0  0  0  0  0  0  0  0  0  0  0
    1.3296   45.8369    3.7485 C   0  0  0  0  0  0  0  0  0  0  0  0
    1.4252   46.9683    3.2247 O   0  0  0  0  0  0  0  0  0  0  0  0
    0.9488   45.6021    4.9160 O   0  0  0  0  0  0  0  0  0  0  0  0
    1.7209   47.0514    2.3395 H   0  0  0  0  0  0  0  0  0  0  0  0
    1.2674   44.8211    1.4503 C   0  0  0  0  0  0  0  0  0  0  0  0
   -0.2553   44.9667    1.3741 C   0  0  0  0  0  0  0  0  0  0  0  0
   -0.8493   45.0181    2.7177 N   0  0  0  0  0  0  0  0  0  0  0  0
   -0.6321   44.1565    3.2187 H   0  0  0  0  0  0  0  0  0  0  0  0
   -1.8611   45.1195    2.6385 H   0  0  0  0  0  0  0  0  0  0  0  0
   -1.4727   44.0451   -0.4330 O   0  0  0  0  0  0  0  0  0  0  0  0
   -0.8116   43.7762    0.5927 C   0  0  0  0  0  0  0  0  0  0  0  0
   -0.5564   42.6322    1.0315 O   0  0  0  0  0  0  0  0  0  0  0  0
   -0.0498   42.5326    1.8133 H   0  0  0  0  0  0  0  0  0  0  0  0
 19 20  2  0  0  0
 20 21  1  0  0  0
 20 15  1  0  0  0
 15 16  1  0  0  0
 15 14  1  0  0  0
 14  1  1  0  0  0
  1  2  1  0  0  0
  1 10  1  0  0  0
  1  3  1  0  0  0
  2  5  1  0  0  0
 10 11  1  0  0  0
 10 12  2  0  0  0
  3  4  1  0  0  0
  4  5  1  0  0  0
  4  6  1  0  0  0
  5  9  1  0  0  0
  6  7  1  0  0  0
  7  8  1  0  0  0
  8  9  1  0  0  0
 21 22  1  0  0  0
 16 17  1  0  0  0
 16 18  1  0  0  0
 11 13  1  0  0  0
M  END
> <minimizedAffinity>
-8.22868

$$$$
3GBB_MS8_A_258


 22 23  0  0  0  0  0  0  0  0999 V2000
    2.3478   43.1276    4.3843 C   0  0  0  0  0  0  0  0  0  0  0  0
    1.9359   43.9302    5.6236 C   0  0  0  0  0  0  0  0  0  0  0  0
    1.9102   43.9110    3.2679 O   0  0  0  0  0  0  0  0  0  0  0  0
    0.6675   44.4545    3.7309 C   0  0  0  0  0  0  0  0  0  0  0  0
    1.1237   45.0854    5.0356 C   0  0  0  0  0  0  0  0  0  0  0  0
    0.1459   45.5037    2.7479 C   0  0  0  0  0  0  0  0  0  0  0  0
    1.1077   46.6882    2.6554 C   0  0  0  0  0  0  0  0  0  0  0  0
    1.3782   47.2307    4.0585 C   0  0  0  0  0  0  0  0  0  0  0  0
    2.0141   46.1925    4.8193 O   0  0  0  0  0  0  0  0  0  0  0  0
    3.8611   42.9101    4.3467 C   0  0  0  0  0  0  0  0  0  0  0  0
    4.4993   43.4794    3.4344 O   0  0  0  0  0  0  0  0  0  0  0  0
    4.3486   42.1633    5.2229 O   0  0  0  0  0  0  0  0  0  0  0  0
    4.0504   44.0240    2.8181 H   0  0  0  0  0  0  0  0  0  0  0  0
    1.6144   41.7852    4.4091 C   0  0  0  0  0  0  0  0  0  0  0  0
    1.9908   40.9262    3.1983 C   0  0  0  0  0  0  0  0  0  0  0  0
    0.8618   40.8048    2.2648 N   0  0  0  0  0  0  0  0  0  0  0  0
    0.0736   40.3650    2.7400 H   0  0  0  0  0  0  0  0  0  0  0  0
    1.1400   40.2330    1.4673 H   0  0  0  0  0  0  0  0  0  0  0  0
    1.5894   38.6205    3.5441 O   0  0  0  0  0  0  0  0  0  0  0  0
    2.4134   39.5464    3.7029 C   0  0  0  0  0  0  0  0  0  0  0  0
    3.5472   39.4485    4.2237 O   0  0  0  0  0  0  0  0  0  0  0  0
    4.0954   40.2047    4.2984 H   0  0  0  0  0  0  0  0  0  0  0  0
 19 20  2  0  0  0
 20 21  1  0  0  0
 20 15  1  0  0  0
 15 16  1  0  0  0
 15 14  1  0  0  0
 14  1  1  0  0  0
  1  2  1  0  0  0
  1 10  1  0  0  0
  1  3  1  0  0  0
  2  5  1  0  0  0
 10 11  1  0  0  0
 10 12  2  0  0  0
  3  4  1  0  0  0
  4  5  1  0  0  0
  4  6  1  0  0  0
  5  9  1  0  0  0
  6  7  1  0  0  0
  7  8  1  0  0  0
  8  9  1  0  0  0
 21 22  1  0  0  0
 16 17  1  0  0  0
 16 18  1  0  0  0
 11 13  1  0  0  0
M  END
> <minimizedAffinity>
-7.65841

$$$$
3GBB_MS8_A_258


 22 23  0  0  0  0  0  0  0  0999 V2000
    2.1746   44.2252    4.1535 C   0  0  0  0  0  0  0  0  0  0  0  0
    3.6211   43.7255    4.0655 C   0  0  0  0  0  0  0  0  0  0  0  0
    1.3668   43.1018    3.7835 O   0  0  0  0  0  0  0  0  0  0  0  0
    2.1419   42.4819    2.7496 C   0  0  0  0  0  0  0  0  0  0  0  0
    3.4693   42.3239    3.4719 C   0  0  0  0  0  0  0  0  0  0  0  0
    1.5396   41.1279    2.3716 C   0  0  0  0  0  0  0  0  0  0  0  0
    1.5826   40.1634    3.5568 C   0  0  0  0  0  0  0  0  0  0  0  0
    3.0126   40.0809    4.0901 C   0  0  0  0  0  0  0  0  0  0  0  0
    3.3865   41.3858    4.5574 O   0  0  0  0  0  0  0  0  0  0  0  0
    1.8416   44.7027    5.5677 C   0  0  0  0  0  0  0  0  0  0  0  0
    2.7751   45.1886    6.2430 O   0  0  0  0  0  0  0  0  0  0  0  0
    0.6610   44.5561    5.9523 O   0  0  0  0  0  0  0  0  0  0  0  0
    3.6328   45.2609    5.8729 H   0  0  0  0  0  0  0  0  0  0  0  0
    1.9918   45.3631    3.1472 C   0  0  0  0  0  0  0  0  0  0  0  0
    0.7194   46.1631    3.4412 C   0  0  0  0  0  0  0  0  0  0  0  0
   -0.2180   46.0995    2.3107 N   0  0  0  0  0  0  0  0  0  0  0  0
    0.2247   46.4913    1.4795 H   0  0  0  0  0  0  0  0  0  0  0  0
   -1.0567   46.6355    2.5339 H   0  0  0  0  0  0  0  0  0  0  0  0
    1.6879   47.8323    4.8096 O   0  0  0  0  0  0  0  0  0  0  0  0
    1.1184   47.6124    3.7193 C   0  0  0  0  0  0  0  0  0  0  0  0
    0.8549   48.4595    2.8365 O   0  0  0  0  0  0  0  0  0  0  0  0
    0.4229   48.1956    2.0480 H   0  0  0  0  0  0  0  0  0  0  0  0
 19 20  2  0  0  0
 20 21  1  0  0  0
 20 15  1  0  0  0
 15 16  1  0  0  0
 15 14  1  0  0  0
 14  1  1  0  0  0
  1  2  1  0  0  0
  1 10  1  0  0  0
  1  3  1  0  0  0
  2  5  1  0  0  0
 10 11  1  0  0  0
 10 12  2  0  0  0
  3  4  1  0  0  0
  4  5  1  0  0  0
  4  6  1  0  0  0
  5  9  1  0  0  0
  6  7  1  0  0  0
  7  8  1  0  0  0
  8  9  1  0  0  0
 21 22  1  0  0  0
 16 17  1  0  0  0
 16 18  1  0  0  0
 11 13  1  0  0  0
M  END
> <minimizedAffinity>
-7.21405

$$$$
3GBB_MS8_A_258


 22 23  0  0  0  0  0  0  0  0999 V2000
    1.3306   43.7115    2.6196 C   0  0  0  0  0  0  0  0  0  0  0  0
    2.1072   44.9439    2.1425 C   0  0  0  0  0  0  0  0  0  0  0  0
    1.1609   43.8981    4.0296 O   0  0  0  0  0  0  0  0  0  0  0  0
    2.4001   44.5031    4.4197 C   0  0  0  0  0  0  0  0  0  0  0  0
    2.4440   45.6691    3.4466 C   0  0  0  0  0  0  0  0  0  0  0  0
    2.3260   44.9806    5.8708 C   0  0  0  0  0  0  0  0  0  0  0  0
    1.2645   46.0688    6.0318 C   0  0  0  0  0  0  0  0  0  0  0  0
    1.5280   47.1856    5.0222 C   0  0  0  0  0  0  0  0  0  0  0  0
    1.4060   46.6289    3.7046 O   0  0  0  0  0  0  0  0  0  0  0  0
   -0.0201   43.6029    1.9106 C   0  0  0  0  0  0  0  0  0  0  0  0
   -0.2034   42.6074    1.1764 O   0  0  0  0  0  0  0  0  0  0  0  0
   -0.8381   44.5285    2.1041 O   0  0  0  0  0  0  0  0  0  0  0  0
    0.4677   41.9593    1.0897 H   0  0  0  0  0  0  0  0  0  0  0  0
    2.1791   42.4676    2.3485 C   0  0  0  0  0  0  0  0  0  0  0  0
    2.1957   41.5334    3.5619 C   0  0  0  0  0  0  0  0  0  0  0  0
    3.5589   41.3748    4.0884 N   0  0  0  0  0  0  0  0  0  0  0  0
    4.1582   40.9759    3.3658 H   0  0  0  0  0  0  0  0  0  0  0  0
    3.5410   40.7530    4.8967 H   0  0  0  0  0  0  0  0  0  0  0  0
    2.0365   39.1819    3.7661 O   0  0  0  0  0  0  0  0  0  0  0  0
    1.6318   40.1792    3.1314 C   0  0  0  0  0  0  0  0  0  0  0  0
    0.8073   40.1742    2.1899 O   0  0  0  0  0  0  0  0  0  0  0  0
    0.5654   40.9786    1.7746 H   0  0  0  0  0  0  0  0  0  0  0  0
 19 20  2  0  0  0
 20 21  1  0  0  0
 20 15  1  0  0  0
 15 16  1  0  0  0
 15 14  1  0  0  0
 14  1  1  0  0  0
  1  2  1  0  0  0
  1 10  1  0  0  0
  1  3  1  0  0  0
  2  5  1  0  0  0
 10 11  1  0  0  0
 10 12  2  0  0  0
  3  4  1  0  0  0
  4  5  1  0  0  0
  4  6  1  0  0  0
  5  9  1  0  0  0
  6  7  1  0  0  0
  7  8  1  0  0  0
  8  9  1  0  0  0
 21 22  1  0  0  0
 16 17  1  0  0  0
 16 18  1  0  0  0
 11 13  1  0  0  0
M  END
> <minimizedAffinity>
-6.90060

$$$$
3GBB_MS8_A_258


 22 23  0  0  0  0  0  0  0  0999 V2000
    2.0910   44.0241    2.8487 C   0  0  0  0  0  0  0  0  0  0  0  0
    1.0368   43.5696    3.8645 C   0  0  0  0  0  0  0  0  0  0  0  0
    2.3751   45.3865    3.1874 O   0  0  0  0  0  0  0  0  0  0  0  0
    1.0912   45.8893    3.5782 C   0  0  0  0  0  0  0  0  0  0  0  0
    0.7089   44.8560    4.6244 C   0  0  0  0  0  0  0  0  0  0  0  0
    1.2287   47.2856    4.1869 C   0  0  0  0  0  0  0  0  0  0  0  0
    2.0638   47.2413    5.4666 C   0  0  0  0  0  0  0  0  0  0  0  0
    1.4734   46.2027    6.4199 C   0  0  0  0  0  0  0  0  0  0  0  0
    1.5572   44.9190    5.7827 O   0  0  0  0  0  0  0  0  0  0  0  0
    3.3495   43.1595    2.9365 C   0  0  0  0  0  0  0  0  0  0  0  0
    3.2024   41.9218    2.8369 O   0  0  0  0  0  0  0  0  0  0  0  0
    4.4342   43.7540    3.1190 O   0  0  0  0  0  0  0  0  0  0  0  0
    2.3486   41.5610    2.7002 H   0  0  0  0  0  0  0  0  0  0  0  0
    1.4822   43.9427    1.4475 C   0  0  0  0  0  0  0  0  0  0  0  0
    0.1585   43.1726    1.4628 C   0  0  0  0  0  0  0  0  0  0  0  0
    0.3904   41.7218    1.4154 N   0  0  0  0  0  0  0  0  0  0  0  0
    0.8915   41.4854    0.5590 H   0  0  0  0  0  0  0  0  0  0  0  0
   -0.5050   41.2337    1.4312 H   0  0  0  0  0  0  0  0  0  0  0  0
   -0.7538   44.8498    0.0658 O   0  0  0  0  0  0  0  0  0  0  0  0
   -0.6685   43.6178    0.2565 C   0  0  0  0  0  0  0  0  0  0  0  0
   -1.1848   42.7212   -0.4475 O   0  0  0  0  0  0  0  0  0  0  0  0
   -1.0631   41.8199   -0.2218 H   0  0  0  0  0  0  0  0  0  0  0  0
 19 20  2  0  0  0
 20 21  1  0  0  0
 20 15  1  0  0  0
 15 16  1  0  0  0
 15 14  1  0  0  0
 14  1  1  0  0  0
  1  2  1  0  0  0
  1 10  1  0  0  0
  1  3  1  0  0  0
  2  5  1  0  0  0
 10 11  1  0  0  0
 10 12  2  0  0  0
  3  4  1  0  0  0
  4  5  1  0  0  0
  4  6  1  0  0  0
  5  9  1  0  0  0
  6  7  1  0  0  0
  7  8  1  0  0  0
  8  9  1  0  0  0
 21 22  1  0  0  0
 16 17  1  0  0  0
 16 18  1  0  0  0
 11 13  1  0  0  0
M  END
> <minimizedAffinity>
-6.89635

$$$$
3GBB_MS8_A_258


 22 23  0  0  0  0  0  0  0  0999 V2000
    2.8169   43.8925    5.1945 C   0  0  0  0  0  0  0  0  0  0  0  0
    1.3021   44.0511    5.3671 C   0  0  0  0  0  0  0  0  0  0  0  0
    3.1176   44.5093    3.9372 O   0  0  0  0  0  0  0  0  0  0  0  0
    1.9844   44.1572    3.1334 C   0  0  0  0  0  0  0  0  0  0  0  0
    0.8604   44.6486    4.0299 C   0  0  0  0  0  0  0  0  0  0  0  0
    2.0187   44.9132    1.8044 C   0  0  0  0  0  0  0  0  0  0  0  0
    1.9124   46.4209    2.0333 C   0  0  0  0  0  0  0  0  0  0  0  0
    0.6788   46.7172    2.8857 C   0  0  0  0  0  0  0  0  0  0  0  0
    0.8577   46.0798    4.1595 O   0  0  0  0  0  0  0  0  0  0  0  0
    3.5755   44.5694    6.3369 C   0  0  0  0  0  0  0  0  0  0  0  0
    3.0960   45.6299    6.7940 O   0  0  0  0  0  0  0  0  0  0  0  0
    4.6317   44.0206    6.7197 O   0  0  0  0  0  0  0  0  0  0  0  0
    2.2957   45.9706    6.4455 H   0  0  0  0  0  0  0  0  0  0  0  0
    3.1462   42.3992    5.1439 C   0  0  0  0  0  0  0  0  0  0  0  0
    1.8740   41.5555    5.0217 C   0  0  0  0  0  0  0  0  0  0  0  0
    1.5547   40.8932    6.2946 N   0  0  0  0  0  0  0  0  0  0  0  0
    2.3246   40.2795    6.5611 H   0  0  0  0  0  0  0  0  0  0  0  0
    0.7027   40.3428    6.1872 H   0  0  0  0  0  0  0  0  0  0  0  0
    2.6962   40.9065    2.9005 O   0  0  0  0  0  0  0  0  0  0  0  0
    2.0926   40.5158    3.9224 C   0  0  0  0  0  0  0  0  0  0  0  0
    1.6620   39.3596    4.1325 O   0  0  0  0  0  0  0  0  0  0  0  0
    1.2196   39.1630    4.9347 H   0  0  0  0  0  0  0  0  0  0  0  0
 19 20  2  0  0  0
 20 21  1  0  0  0
 20 15  1  0  0  0
 15 16  1  0  0  0
 15 14  1  0  0  0
 14  1  1  0  0  0
  1  2  1  0  0  0
  1 10  1  0  0  0
  1  3  1  0  0  0
  2  5  1  0  0  0
 10 11  1  0  0  0
 10 12  2  0  0  0
  3  4  1  0  0  0
  4  5  1  0  0  0
  4  6  1  0  0  0
  5  9  1  0  0  0
  6  7  1  0  0  0
  7  8  1  0  0  0
  8  9  1  0  0  0
 21 22  1  0  0  0
 16 17  1  0  0  0
 16 18  1  0  0  0
 11 13  1  0  0  0
M  END
> <minimizedAffinity>
-6.82648

$$$$
