5N31_8LB_E_410


 37 37  0  0  0  0  0  0  0  0999 V2000
   35.1301   41.3727   -3.9238 N   0  0  0  0  0  0  0  0  0  0  0  0
   34.7772   40.4499   -3.6701 H   0  0  0  0  0  0  0  0  0  0  0  0
   35.5631   39.9013   -6.0553 O   0  0  0  0  0  0  0  0  0  0  0  0
   35.4376   41.3476   -5.5865 P   0  0  0  0  0  0  0  0  0  0  0  0
   36.6850   42.1373   -5.9675 O   0  0  0  0  0  0  0  0  0  0  0  0
   36.8160   42.0914   -6.9275 H   0  0  0  0  0  0  0  0  0  0  0  0
   33.9672   42.1731   -6.3199 C   0  0  0  0  0  0  0  0  0  0  0  0
   32.9867   42.4096   -8.6129 C   0  0  0  0  0  0  0  0  0  0  0  0
   34.0354   42.0387   -7.7524 N   0  0  0  0  0  0  0  0  0  0  0  0
   31.9685   42.8753   -8.2289 O   0  0  0  0  0  0  0  0  0  0  0  0
   34.8571   41.6688   -8.1489 H   0  0  0  0  0  0  0  0  0  0  0  0
   33.3441   42.1155   -9.9153 O   0  0  0  0  0  0  0  0  0  0  0  0
   33.2645   43.1390  -10.8676 C   0  0  0  0  0  0  0  0  0  0  0  0
   32.7785   42.5849  -12.2188 C   0  0  0  0  0  0  0  0  0  0  0  0
   31.8993   41.5552  -14.6575 C   0  0  0  0  0  0  0  0  0  0  0  0
   32.2129   42.9044  -14.5478 C   0  0  0  0  0  0  0  0  0  0  0  0
   32.6468   43.4180  -13.3268 C   0  0  0  0  0  0  0  0  0  0  0  0
   32.4404   41.2427  -12.3271 C   0  0  0  0  0  0  0  0  0  0  0  0
   32.0091   40.7295  -13.5376 C   0  0  0  0  0  0  0  0  0  0  0  0
   36.2272   41.6783   -3.0113 C   0  0  0  0  0  0  0  0  0  0  0  0
   37.3692   40.7000   -3.2068 C   0  0  0  0  0  0  0  0  0  0  0  0
   37.0819   39.3545   -2.9099 N   0  0  0  0  0  0  0  0  0  0  0  0
   38.4810   41.0454   -3.5354 O   0  0  0  0  0  0  0  0  0  0  0  0
   36.1782   39.0955   -2.6178 H   0  0  0  0  0  0  0  0  0  0  0  0
   38.1149   38.3571   -3.0348 C   0  0  0  0  0  0  0  0  0  0  0  0
   38.3086   38.0153   -4.5056 C   0  0  0  0  0  0  0  0  0  0  0  0
   39.4846   37.9194   -4.9774 O   0  0  0  0  0  0  0  0  0  0  0  0
   37.2767   37.8285   -5.2091 O   0  0  0  0  0  0  0  0  0  0  0  0
   36.4263   37.9085   -4.8239 H   0  0  0  0  0  0  0  0  0  0  0  0
   37.8518   37.1385   -2.1657 C   0  0  0  0  0  0  0  0  0  0  0  0
   38.9443   36.9181   -1.1474 C   0  0  0  0  0  0  0  0  0  0  0  0
   38.9510   35.4604   -0.6443 C   0  0  0  0  0  0  0  0  0  0  0  0
   40.1238   35.1442    0.2754 C   0  0  0  0  0  0  0  0  0  0  0  0
   35.6848   41.5349   -1.5976 C   0  0  0  0  0  0  0  0  0  0  0  0
   36.2268   42.5634   -0.6118 C   0  0  0  0  0  0  0  0  0  0  0  0
   36.9582   43.6918   -1.3323 C   0  0  0  0  0  0  0  0  0  0  0  0
   37.1347   41.9372    0.4403 C   0  0  0  0  0  0  0  0  0  0  0  0
 16 17  2  0  0  0
 16 15  1  0  0  0
 17 14  1  0  0  0
 15 19  2  0  0  0
 14 13  1  0  0  0
 14 18  2  0  0  0
 13 12  1  0  0  0
 19 18  1  0  0  0
 12  8  1  0  0  0
 10  8  2  0  0  0
  8  9  1  0  0  0
  9  7  1  0  0  0
  7  4  1  0  0  0
  3  4  2  0  0  0
  5  4  1  0  0  0
  4  1  1  0  0  0
 27 26  2  0  0  0
 28 26  1  0  0  0
 26 25  1  0  0  0
  1 20  1  0  0  0
 25 22  1  0  0  0
 25 30  1  0  0  0
 22 21  1  0  0  0
 21 23  2  0  0  0
 21 20  1  0  0  0
 20 34  1  0  0  0
 30 31  1  0  0  0
 31 32  1  0  0  0
 34 35  1  0  0  0
 33 32  1  0  0  0
 37 35  1  0  0  0
 35 36  1  0  0  0
  1  2  1  0  0  0
 22 24  1  0  0  0
 28 29  1  0  0  0
  5  6  1  0  0  0
  9 11  1  0  0  0
M  END
> <minimizedAffinity>
-8.86271

$$$$
5N31_8LB_E_410


 37 37  0  0  0  0  0  0  0  0999 V2000
   32.7085   39.7592   -8.4207 N   0  0  0  0  0  0  0  0  0  0  0  0
   32.6754   40.7121   -8.0584 H   0  0  0  0  0  0  0  0  0  0  0  0
   33.9579   37.4887   -7.9968 O   0  0  0  0  0  0  0  0  0  0  0  0
   33.7306   38.8757   -7.4037 P   0  0  0  0  0  0  0  0  0  0  0  0
   33.1923   38.7612   -5.9817 O   0  0  0  0  0  0  0  0  0  0  0  0
   33.8130   38.2476   -5.4414 H   0  0  0  0  0  0  0  0  0  0  0  0
   35.2820   39.8623   -7.3718 C   0  0  0  0  0  0  0  0  0  0  0  0
   35.0553   41.7486   -5.7392 C   0  0  0  0  0  0  0  0  0  0  0  0
   35.4337   40.4322   -6.0576 N   0  0  0  0  0  0  0  0  0  0  0  0
   34.5685   42.4897   -6.5234 O   0  0  0  0  0  0  0  0  0  0  0  0
   35.8217   39.8722   -5.3469 H   0  0  0  0  0  0  0  0  0  0  0  0
   35.3700   42.0032   -4.4175 O   0  0  0  0  0  0  0  0  0  0  0  0
   36.4690   41.3368   -3.8618 C   0  0  0  0  0  0  0  0  0  0  0  0
   36.6862   41.7743   -2.4022 C   0  0  0  0  0  0  0  0  0  0  0  0
   37.0678   42.5440    0.2516 C   0  0  0  0  0  0  0  0  0  0  0  0
   37.3371   43.4404   -0.7753 C   0  0  0  0  0  0  0  0  0  0  0  0
   37.1509   43.0519   -2.1010 C   0  0  0  0  0  0  0  0  0  0  0  0
   36.4421   40.8741   -1.3737 C   0  0  0  0  0  0  0  0  0  0  0  0
   36.6260   41.2564   -0.0565 C   0  0  0  0  0  0  0  0  0  0  0  0
   33.0376   39.8508   -9.8396 C   0  0  0  0  0  0  0  0  0  0  0  0
   33.0228   41.2967  -10.2962 C   0  0  0  0  0  0  0  0  0  0  0  0
   32.4798   41.5310  -11.5734 N   0  0  0  0  0  0  0  0  0  0  0  0
   33.5010   42.1964   -9.6442 O   0  0  0  0  0  0  0  0  0  0  0  0
   32.1194   40.7824  -12.1017 H   0  0  0  0  0  0  0  0  0  0  0  0
   32.4530   42.8702  -12.1057 C   0  0  0  0  0  0  0  0  0  0  0  0
   31.1983   43.5805  -11.6169 C   0  0  0  0  0  0  0  0  0  0  0  0
   30.1543   43.5787  -12.3413 O   0  0  0  0  0  0  0  0  0  0  0  0
   31.2416   44.1456  -10.4885 O   0  0  0  0  0  0  0  0  0  0  0  0
   32.0309   44.1248   -9.9841 H   0  0  0  0  0  0  0  0  0  0  0  0
   32.6061   42.8960  -13.6175 C   0  0  0  0  0  0  0  0  0  0  0  0
   33.0190   44.2564  -14.1254 C   0  0  0  0  0  0  0  0  0  0  0  0
   32.4532   44.5197  -15.5356 C   0  0  0  0  0  0  0  0  0  0  0  0
   32.2533   43.2496  -16.3531 C   0  0  0  0  0  0  0  0  0  0  0  0
   31.9682   39.0782  -10.5964 C   0  0  0  0  0  0  0  0  0  0  0  0
   30.6631   38.9009   -9.8293 C   0  0  0  0  0  0  0  0  0  0  0  0
   30.4493   37.4453   -9.4257 C   0  0  0  0  0  0  0  0  0  0  0  0
   29.4571   39.4117  -10.6091 C   0  0  0  0  0  0  0  0  0  0  0  0
 16 17  2  0  0  0
 16 15  1  0  0  0
 17 14  1  0  0  0
 15 19  2  0  0  0
 14 13  1  0  0  0
 14 18  2  0  0  0
 13 12  1  0  0  0
 19 18  1  0  0  0
 12  8  1  0  0  0
 10  8  2  0  0  0
  8  9  1  0  0  0
  9  7  1  0  0  0
  7  4  1  0  0  0
  3  4  2  0  0  0
  5  4  1  0  0  0
  4  1  1  0  0  0
 27 26  2  0  0  0
 28 26  1  0  0  0
 26 25  1  0  0  0
  1 20  1  0  0  0
 25 22  1  0  0  0
 25 30  1  0  0  0
 22 21  1  0  0  0
 21 23  2  0  0  0
 21 20  1  0  0  0
 20 34  1  0  0  0
 30 31  1  0  0  0
 31 32  1  0  0  0
 34 35  1  0  0  0
 33 32  1  0  0  0
 37 35  1  0  0  0
 35 36  1  0  0  0
  1  2  1  0  0  0
 22 24  1  0  0  0
 28 29  1  0  0  0
  5  6  1  0  0  0
  9 11  1  0  0  0
M  END
> <minimizedAffinity>
-7.84522

$$$$
5N31_8LB_E_410


 37 37  0  0  0  0  0  0  0  0999 V2000
   38.0392   37.7642   -5.8825 N   0  0  0  0  0  0  0  0  0  0  0  0
   37.1517   38.2493   -6.0145 H   0  0  0  0  0  0  0  0  0  0  0  0
   37.7850   35.1864   -5.4503 O   0  0  0  0  0  0  0  0  0  0  0  0
   37.8712   36.2256   -6.5639 P   0  0  0  0  0  0  0  0  0  0  0  0
   39.0036   35.8792   -7.5243 O   0  0  0  0  0  0  0  0  0  0  0  0
   38.8604   34.9906   -7.8860 H   0  0  0  0  0  0  0  0  0  0  0  0
   36.3007   36.3329   -7.5144 C   0  0  0  0  0  0  0  0  0  0  0  0
   35.3656   38.4039   -8.5689 C   0  0  0  0  0  0  0  0  0  0  0  0
   35.8172   37.6881   -7.4458 N   0  0  0  0  0  0  0  0  0  0  0  0
   35.3339   37.9445   -9.6593 O   0  0  0  0  0  0  0  0  0  0  0  0
   35.8021   38.1354   -6.5689 H   0  0  0  0  0  0  0  0  0  0  0  0
   35.0135   39.6825   -8.1793 O   0  0  0  0  0  0  0  0  0  0  0  0
   33.6546   40.0201   -8.1776 C   0  0  0  0  0  0  0  0  0  0  0  0
   33.3100   40.8850   -9.4032 C   0  0  0  0  0  0  0  0  0  0  0  0
   32.6896   42.4751  -11.6094 C   0  0  0  0  0  0  0  0  0  0  0  0
   32.4933   41.1008  -11.6688 C   0  0  0  0  0  0  0  0  0  0  0  0
   32.8091   40.3075  -10.5671 C   0  0  0  0  0  0  0  0  0  0  0  0
   33.5276   42.2555   -9.3576 C   0  0  0  0  0  0  0  0  0  0  0  0
   33.2154   43.0461  -10.4495 C   0  0  0  0  0  0  0  0  0  0  0  0
   38.3810   37.8721   -4.4678 C   0  0  0  0  0  0  0  0  0  0  0  0
   37.6859   39.0661   -3.8429 C   0  0  0  0  0  0  0  0  0  0  0  0
   37.1368   39.9973   -4.7443 N   0  0  0  0  0  0  0  0  0  0  0  0
   37.6515   39.2552   -2.6485 O   0  0  0  0  0  0  0  0  0  0  0  0
   37.1978   39.8405   -5.7143 H   0  0  0  0  0  0  0  0  0  0  0  0
   36.4849   41.1810   -4.2429 C   0  0  0  0  0  0  0  0  0  0  0  0
   35.6585   41.8097   -5.3562 C   0  0  0  0  0  0  0  0  0  0  0  0
   34.4854   42.2291   -5.1058 O   0  0  0  0  0  0  0  0  0  0  0  0
   36.1823   41.8995   -6.5016 O   0  0  0  0  0  0  0  0  0  0  0  0
   37.0505   41.5781   -6.6462 H   0  0  0  0  0  0  0  0  0  0  0  0
   37.4614   42.1518   -3.5997 C   0  0  0  0  0  0  0  0  0  0  0  0
   36.8198   42.9585   -2.4966 C   0  0  0  0  0  0  0  0  0  0  0  0
   36.9027   42.2194   -1.1457 C   0  0  0  0  0  0  0  0  0  0  0  0
   35.5540   41.7117   -0.6512 C   0  0  0  0  0  0  0  0  0  0  0  0
   39.8864   38.0732   -4.3866 C   0  0  0  0  0  0  0  0  0  0  0  0
   40.6382   36.9171   -3.7373 C   0  0  0  0  0  0  0  0  0  0  0  0
   39.8843   36.3737   -2.5274 C   0  0  0  0  0  0  0  0  0  0  0  0
   42.0601   37.2982   -3.3417 C   0  0  0  0  0  0  0  0  0  0  0  0
 16 17  2  0  0  0
 16 15  1  0  0  0
 17 14  1  0  0  0
 15 19  2  0  0  0
 14 13  1  0  0  0
 14 18  2  0  0  0
 13 12  1  0  0  0
 19 18  1  0  0  0
 12  8  1  0  0  0
 10  8  2  0  0  0
  8  9  1  0  0  0
  9  7  1  0  0  0
  7  4  1  0  0  0
  3  4  2  0  0  0
  5  4  1  0  0  0
  4  1  1  0  0  0
 27 26  2  0  0  0
 28 26  1  0  0  0
 26 25  1  0  0  0
  1 20  1  0  0  0
 25 22  1  0  0  0
 25 30  1  0  0  0
 22 21  1  0  0  0
 21 23  2  0  0  0
 21 20  1  0  0  0
 20 34  1  0  0  0
 30 31  1  0  0  0
 31 32  1  0  0  0
 34 35  1  0  0  0
 33 32  1  0  0  0
 37 35  1  0  0  0
 35 36  1  0  0  0
  1  2  1  0  0  0
 22 24  1  0  0  0
 28 29  1  0  0  0
  5  6  1  0  0  0
  9 11  1  0  0  0
M  END
> <minimizedAffinity>
-7.80773

$$$$
5N31_8LB_E_410


 37 37  0  0  0  0  0  0  0  0999 V2000
   32.6293   40.5722   -8.8339 N   0  0  0  0  0  0  0  0  0  0  0  0
   32.2301   41.5049   -8.7286 H   0  0  0  0  0  0  0  0  0  0  0  0
   35.1239   39.8958   -8.3697 O   0  0  0  0  0  0  0  0  0  0  0  0
   33.8665   40.4288   -7.6899 P   0  0  0  0  0  0  0  0  0  0  0  0
   33.4822   39.5370   -6.5144 O   0  0  0  0  0  0  0  0  0  0  0  0
   34.2228   39.4882   -5.8899 H   0  0  0  0  0  0  0  0  0  0  0  0
   34.1028   42.1465   -7.0775 C   0  0  0  0  0  0  0  0  0  0  0  0
   35.4738   42.0232   -4.9847 C   0  0  0  0  0  0  0  0  0  0  0  0
   34.2343   42.1060   -5.6437 N   0  0  0  0  0  0  0  0  0  0  0  0
   36.5100   41.9942   -5.5562 O   0  0  0  0  0  0  0  0  0  0  0  0
   33.4156   42.1378   -5.0979 H   0  0  0  0  0  0  0  0  0  0  0  0
   35.2581   41.9575   -3.6209 O   0  0  0  0  0  0  0  0  0  0  0  0
   36.0126   41.0414   -2.8779 C   0  0  0  0  0  0  0  0  0  0  0  0
   36.5972   41.7135   -1.6226 C   0  0  0  0  0  0  0  0  0  0  0  0
   37.6685   42.9504    0.6364 C   0  0  0  0  0  0  0  0  0  0  0  0
   37.0332   41.7204    0.7557 C   0  0  0  0  0  0  0  0  0  0  0  0
   36.4938   41.1066   -0.3736 C   0  0  0  0  0  0  0  0  0  0  0  0
   37.2110   42.9539   -1.7326 C   0  0  0  0  0  0  0  0  0  0  0  0
   37.7475   43.5662   -0.6136 C   0  0  0  0  0  0  0  0  0  0  0  0
   32.9555   40.4020  -10.2461 C   0  0  0  0  0  0  0  0  0  0  0  0
   32.8551   41.7262  -10.9780 C   0  0  0  0  0  0  0  0  0  0  0  0
   32.3277   41.6680  -12.2817 N   0  0  0  0  0  0  0  0  0  0  0  0
   33.2570   42.7671  -10.5108 O   0  0  0  0  0  0  0  0  0  0  0  0
   32.0303   40.8073  -12.6560 H   0  0  0  0  0  0  0  0  0  0  0  0
   32.2242   42.8722  -13.0669 C   0  0  0  0  0  0  0  0  0  0  0  0
   31.1230   43.7533  -12.4935 C   0  0  0  0  0  0  0  0  0  0  0  0
   29.9152   43.3619  -12.5469 O   0  0  0  0  0  0  0  0  0  0  0  0
   31.4587   44.8527  -11.9708 O   0  0  0  0  0  0  0  0  0  0  0  0
   32.3606   45.1060  -11.9510 H   0  0  0  0  0  0  0  0  0  0  0  0
   32.0509   42.5843  -14.5491 C   0  0  0  0  0  0  0  0  0  0  0  0
   32.1755   41.1127  -14.8622 C   0  0  0  0  0  0  0  0  0  0  0  0
   30.9316   40.5959  -15.6129 C   0  0  0  0  0  0  0  0  0  0  0  0
   29.6460   40.7117  -14.8034 C   0  0  0  0  0  0  0  0  0  0  0  0
   31.9360   39.4336  -10.8259 C   0  0  0  0  0  0  0  0  0  0  0  0
   30.7334   39.1771   -9.9251 C   0  0  0  0  0  0  0  0  0  0  0  0
   30.8100   37.7989   -9.2753 C   0  0  0  0  0  0  0  0  0  0  0  0
   29.4098   39.3361  -10.6641 C   0  0  0  0  0  0  0  0  0  0  0  0
 16 17  2  0  0  0
 16 15  1  0  0  0
 17 14  1  0  0  0
 15 19  2  0  0  0
 14 13  1  0  0  0
 14 18  2  0  0  0
 13 12  1  0  0  0
 19 18  1  0  0  0
 12  8  1  0  0  0
 10  8  2  0  0  0
  8  9  1  0  0  0
  9  7  1  0  0  0
  7  4  1  0  0  0
  3  4  2  0  0  0
  5  4  1  0  0  0
  4  1  1  0  0  0
 27 26  2  0  0  0
 28 26  1  0  0  0
 26 25  1  0  0  0
  1 20  1  0  0  0
 25 22  1  0  0  0
 25 30  1  0  0  0
 22 21  1  0  0  0
 21 23  2  0  0  0
 21 20  1  0  0  0
 20 34  1  0  0  0
 30 31  1  0  0  0
 31 32  1  0  0  0
 34 35  1  0  0  0
 33 32  1  0  0  0
 37 35  1  0  0  0
 35 36  1  0  0  0
  1  2  1  0  0  0
 22 24  1  0  0  0
 28 29  1  0  0  0
  5  6  1  0  0  0
  9 11  1  0  0  0
M  END
> <minimizedAffinity>
-7.74204

$$$$
5N31_8LB_E_410


 37 37  0  0  0  0  0  0  0  0999 V2000
   31.8066   41.0348   -9.6809 N   0  0  0  0  0  0  0  0  0  0  0  0
   31.1684   41.7631  -10.0013 H   0  0  0  0  0  0  0  0  0  0  0  0
   32.2089   42.8256   -7.8028 O   0  0  0  0  0  0  0  0  0  0  0  0
   32.9213   41.7712   -8.6443 P   0  0  0  0  0  0  0  0  0  0  0  0
   34.0968   42.3945   -9.3891 O   0  0  0  0  0  0  0  0  0  0  0  0
   34.7041   42.8017   -8.7518 H   0  0  0  0  0  0  0  0  0  0  0  0
   33.5443   40.3848   -7.6092 C   0  0  0  0  0  0  0  0  0  0  0  0
   35.1626   41.6531   -6.1782 C   0  0  0  0  0  0  0  0  0  0  0  0
   33.9747   40.9185   -6.3424 N   0  0  0  0  0  0  0  0  0  0  0  0
   35.8974   41.9036   -7.0717 O   0  0  0  0  0  0  0  0  0  0  0  0
   33.4091   40.7611   -5.5521 H   0  0  0  0  0  0  0  0  0  0  0  0
   35.3108   41.9820   -4.8438 O   0  0  0  0  0  0  0  0  0  0  0  0
   36.6096   42.1308   -4.3422 C   0  0  0  0  0  0  0  0  0  0  0  0
   36.5978   42.1409   -2.8031 C   0  0  0  0  0  0  0  0  0  0  0  0
   36.5641   42.1345   -0.0140 C   0  0  0  0  0  0  0  0  0  0  0  0
   36.9561   43.2778   -0.6995 C   0  0  0  0  0  0  0  0  0  0  0  0
   36.9775   43.2770   -2.0932 C   0  0  0  0  0  0  0  0  0  0  0  0
   36.2306   40.9932   -2.1134 C   0  0  0  0  0  0  0  0  0  0  0  0
   36.2085   40.9904   -0.7298 C   0  0  0  0  0  0  0  0  0  0  0  0
   32.3009   40.3448  -10.8680 C   0  0  0  0  0  0  0  0  0  0  0  0
   32.1720   41.2323  -12.0908 C   0  0  0  0  0  0  0  0  0  0  0  0
   31.7867   42.5634  -11.8446 N   0  0  0  0  0  0  0  0  0  0  0  0
   32.3247   40.8227  -13.2187 O   0  0  0  0  0  0  0  0  0  0  0  0
   31.6405   42.8725  -10.9214 H   0  0  0  0  0  0  0  0  0  0  0  0
   31.6069   43.4728  -12.9484 C   0  0  0  0  0  0  0  0  0  0  0  0
   32.5080   44.6844  -12.7536 C   0  0  0  0  0  0  0  0  0  0  0  0
   33.6254   44.7380  -13.3563 O   0  0  0  0  0  0  0  0  0  0  0  0
   32.0997   45.6079  -11.9955 O   0  0  0  0  0  0  0  0  0  0  0  0
   31.2691   45.5309  -11.5686 H   0  0  0  0  0  0  0  0  0  0  0  0
   30.1480   43.8394  -13.1653 C   0  0  0  0  0  0  0  0  0  0  0  0
   29.5780   43.1987  -14.4077 C   0  0  0  0  0  0  0  0  0  0  0  0
   28.9806   41.8118  -14.0952 C   0  0  0  0  0  0  0  0  0  0  0  0
   27.5212   41.6751  -14.5108 C   0  0  0  0  0  0  0  0  0  0  0  0
   31.4370   39.1074  -11.0571 C   0  0  0  0  0  0  0  0  0  0  0  0
   30.2160   39.0513  -10.1465 C   0  0  0  0  0  0  0  0  0  0  0  0
   30.1371   37.7207   -9.4043 C   0  0  0  0  0  0  0  0  0  0  0  0
   28.9167   39.3093  -10.9006 C   0  0  0  0  0  0  0  0  0  0  0  0
 16 17  2  0  0  0
 16 15  1  0  0  0
 17 14  1  0  0  0
 15 19  2  0  0  0
 14 13  1  0  0  0
 14 18  2  0  0  0
 13 12  1  0  0  0
 19 18  1  0  0  0
 12  8  1  0  0  0
 10  8  2  0  0  0
  8  9  1  0  0  0
  9  7  1  0  0  0
  7  4  1  0  0  0
  3  4  2  0  0  0
  5  4  1  0  0  0
  4  1  1  0  0  0
 27 26  2  0  0  0
 28 26  1  0  0  0
 26 25  1  0  0  0
  1 20  1  0  0  0
 25 22  1  0  0  0
 25 30  1  0  0  0
 22 21  1  0  0  0
 21 23  2  0  0  0
 21 20  1  0  0  0
 20 34  1  0  0  0
 30 31  1  0  0  0
 31 32  1  0  0  0
 34 35  1  0  0  0
 33 32  1  0  0  0
 37 35  1  0  0  0
 35 36  1  0  0  0
  1  2  1  0  0  0
 22 24  1  0  0  0
 28 29  1  0  0  0
  5  6  1  0  0  0
  9 11  1  0  0  0
M  END
> <minimizedAffinity>
-7.73846

$$$$
5N31_8LB_E_410


 37 37  0  0  0  0  0  0  0  0999 V2000
   34.7269   39.5577   -6.0330 N   0  0  0  0  0  0  0  0  0  0  0  0
   34.1464   39.4310   -5.2039 H   0  0  0  0  0  0  0  0  0  0  0  0
   33.4657   41.8177   -6.4778 O   0  0  0  0  0  0  0  0  0  0  0  0
   34.8589   41.2227   -6.2980 P   0  0  0  0  0  0  0  0  0  0  0  0
   35.7374   41.5611   -7.4973 O   0  0  0  0  0  0  0  0  0  0  0  0
   35.7801   42.5241   -7.6054 H   0  0  0  0  0  0  0  0  0  0  0  0
   35.6723   41.8493   -4.7726 C   0  0  0  0  0  0  0  0  0  0  0  0
   37.7860   41.3085   -3.5418 C   0  0  0  0  0  0  0  0  0  0  0  0
   36.7581   40.9640   -4.4375 N   0  0  0  0  0  0  0  0  0  0  0  0
   37.8335   42.3495   -2.9805 O   0  0  0  0  0  0  0  0  0  0  0  0
   36.7817   40.0734   -4.8565 H   0  0  0  0  0  0  0  0  0  0  0  0
   38.6922   40.2671   -3.4704 O   0  0  0  0  0  0  0  0  0  0  0  0
   38.3096   39.0240   -3.9891 C   0  0  0  0  0  0  0  0  0  0  0  0
   38.8102   37.8829   -3.0855 C   0  0  0  0  0  0  0  0  0  0  0  0
   39.7386   35.8110   -1.4652 C   0  0  0  0  0  0  0  0  0  0  0  0
   38.4966   36.3821   -1.2159 C   0  0  0  0  0  0  0  0  0  0  0  0
   38.0370   37.4211   -2.0235 C   0  0  0  0  0  0  0  0  0  0  0  0
   40.0609   37.3258   -3.3153 C   0  0  0  0  0  0  0  0  0  0  0  0
   40.5205   36.2943   -2.5154 C   0  0  0  0  0  0  0  0  0  0  0  0
   34.1593   38.7218   -7.0860 C   0  0  0  0  0  0  0  0  0  0  0  0
   34.1794   39.4535   -8.4140 C   0  0  0  0  0  0  0  0  0  0  0  0
   33.0212   40.1898   -8.7263 N   0  0  0  0  0  0  0  0  0  0  0  0
   35.0980   39.3694   -9.1965 O   0  0  0  0  0  0  0  0  0  0  0  0
   32.2718   40.2252   -8.0888 H   0  0  0  0  0  0  0  0  0  0  0  0
   32.9356   40.8919   -9.9822 C   0  0  0  0  0  0  0  0  0  0  0  0
   32.6460   42.3628   -9.7173 C   0  0  0  0  0  0  0  0  0  0  0  0
   33.2775   43.2532  -10.3678 O   0  0  0  0  0  0  0  0  0  0  0  0
   31.7691   42.6456   -8.8538 O   0  0  0  0  0  0  0  0  0  0  0  0
   31.3252   41.9598   -8.3949 H   0  0  0  0  0  0  0  0  0  0  0  0
   31.9455   40.2488  -10.9392 C   0  0  0  0  0  0  0  0  0  0  0  0
   32.3773   40.3810  -12.3798 C   0  0  0  0  0  0  0  0  0  0  0  0
   31.5395   41.4454  -13.1168 C   0  0  0  0  0  0  0  0  0  0  0  0
   32.3742   42.5915  -13.6743 C   0  0  0  0  0  0  0  0  0  0  0  0
   32.7172   38.4332   -6.6979 C   0  0  0  0  0  0  0  0  0  0  0  0
   32.2157   37.0601   -7.1295 C   0  0  0  0  0  0  0  0  0  0  0  0
   33.3548   36.1931   -7.6569 C   0  0  0  0  0  0  0  0  0  0  0  0
   31.1005   37.1481   -8.1649 C   0  0  0  0  0  0  0  0  0  0  0  0
 16 17  2  0  0  0
 16 15  1  0  0  0
 17 14  1  0  0  0
 15 19  2  0  0  0
 14 13  1  0  0  0
 14 18  2  0  0  0
 13 12  1  0  0  0
 19 18  1  0  0  0
 12  8  1  0  0  0
 10  8  2  0  0  0
  8  9  1  0  0  0
  9  7  1  0  0  0
  7  4  1  0  0  0
  3  4  2  0  0  0
  5  4  1  0  0  0
  4  1  1  0  0  0
 27 26  2  0  0  0
 28 26  1  0  0  0
 26 25  1  0  0  0
  1 20  1  0  0  0
 25 22  1  0  0  0
 25 30  1  0  0  0
 22 21  1  0  0  0
 21 23  2  0  0  0
 21 20  1  0  0  0
 20 34  1  0  0  0
 30 31  1  0  0  0
 31 32  1  0  0  0
 34 35  1  0  0  0
 33 32  1  0  0  0
 37 35  1  0  0  0
 35 36  1  0  0  0
  1  2  1  0  0  0
 22 24  1  0  0  0
 28 29  1  0  0  0
  5  6  1  0  0  0
  9 11  1  0  0  0
M  END
> <minimizedAffinity>
-7.70994

$$$$
5N31_8LB_E_410


 37 37  0  0  0  0  0  0  0  0999 V2000
   32.7199   38.2153   -8.3911 N   0  0  0  0  0  0  0  0  0  0  0  0
   32.0797   38.9144   -8.0145 H   0  0  0  0  0  0  0  0  0  0  0  0
   35.1419   38.9223   -9.1192 O   0  0  0  0  0  0  0  0  0  0  0  0
   34.2771   38.6473   -7.8929 P   0  0  0  0  0  0  0  0  0  0  0  0
   34.9297   37.5875   -7.0122 O   0  0  0  0  0  0  0  0  0  0  0  0
   35.8171   37.8827   -6.7548 H   0  0  0  0  0  0  0  0  0  0  0  0
   34.0147   40.1683   -6.8932 C   0  0  0  0  0  0  0  0  0  0  0  0
   35.5103   41.3898   -5.2976 C   0  0  0  0  0  0  0  0  0  0  0  0
   34.9979   40.1982   -5.8409 N   0  0  0  0  0  0  0  0  0  0  0  0
   35.1639   42.4645   -5.6526 O   0  0  0  0  0  0  0  0  0  0  0  0
   35.3275   39.3418   -5.4843 H   0  0  0  0  0  0  0  0  0  0  0  0
   36.4622   41.0801   -4.3443 O   0  0  0  0  0  0  0  0  0  0  0  0
   37.1461   42.1357   -3.7290 C   0  0  0  0  0  0  0  0  0  0  0  0
   37.0646   42.0137   -2.1968 C   0  0  0  0  0  0  0  0  0  0  0  0
   36.9022   41.7696    0.5771 C   0  0  0  0  0  0  0  0  0  0  0  0
   37.4321   42.9236    0.0130 C   0  0  0  0  0  0  0  0  0  0  0  0
   37.5173   43.0412   -1.3733 C   0  0  0  0  0  0  0  0  0  0  0  0
   36.5589   40.8525   -1.6280 C   0  0  0  0  0  0  0  0  0  0  0  0
   36.4730   40.7322   -0.2522 C   0  0  0  0  0  0  0  0  0  0  0  0
   32.4445   38.1068   -9.8201 C   0  0  0  0  0  0  0  0  0  0  0  0
   31.9155   39.4211  -10.3606 C   0  0  0  0  0  0  0  0  0  0  0  0
   31.7339   39.4823  -11.7550 N   0  0  0  0  0  0  0  0  0  0  0  0
   31.7170   40.3872   -9.6601 O   0  0  0  0  0  0  0  0  0  0  0  0
   31.9263   38.6944  -12.3130 H   0  0  0  0  0  0  0  0  0  0  0  0
   31.2655   40.7021  -12.3635 C   0  0  0  0  0  0  0  0  0  0  0  0
   29.7739   40.5835  -12.6439 C   0  0  0  0  0  0  0  0  0  0  0  0
   29.2978   39.4766  -13.0474 O   0  0  0  0  0  0  0  0  0  0  0  0
   29.0545   41.6036  -12.4532 O   0  0  0  0  0  0  0  0  0  0  0  0
   29.4435   42.4022  -12.1550 H   0  0  0  0  0  0  0  0  0  0  0  0
   32.0773   41.0869  -13.5893 C   0  0  0  0  0  0  0  0  0  0  0  0
   32.2572   42.5812  -13.7076 C   0  0  0  0  0  0  0  0  0  0  0  0
   32.7810   43.1852  -12.3889 C   0  0  0  0  0  0  0  0  0  0  0  0
   33.2240   44.6367  -12.5234 C   0  0  0  0  0  0  0  0  0  0  0  0
   31.3799   37.0339   -9.9892 C   0  0  0  0  0  0  0  0  0  0  0  0
   30.1029   37.2887   -9.1968 C   0  0  0  0  0  0  0  0  0  0  0  0
   29.8754   36.2058   -8.1466 C   0  0  0  0  0  0  0  0  0  0  0  0
   28.8777   37.4146  -10.0947 C   0  0  0  0  0  0  0  0  0  0  0  0
 16 17  2  0  0  0
 16 15  1  0  0  0
 17 14  1  0  0  0
 15 19  2  0  0  0
 14 13  1  0  0  0
 14 18  2  0  0  0
 13 12  1  0  0  0
 19 18  1  0  0  0
 12  8  1  0  0  0
 10  8  2  0  0  0
  8  9  1  0  0  0
  9  7  1  0  0  0
  7  4  1  0  0  0
  3  4  2  0  0  0
  5  4  1  0  0  0
  4  1  1  0  0  0
 27 26  2  0  0  0
 28 26  1  0  0  0
 26 25  1  0  0  0
  1 20  1  0  0  0
 25 22  1  0  0  0
 25 30  1  0  0  0
 22 21  1  0  0  0
 21 23  2  0  0  0
 21 20  1  0  0  0
 20 34  1  0  0  0
 30 31  1  0  0  0
 31 32  1  0  0  0
 34 35  1  0  0  0
 33 32  1  0  0  0
 37 35  1  0  0  0
 35 36  1  0  0  0
  1  2  1  0  0  0
 22 24  1  0  0  0
 28 29  1  0  0  0
  5  6  1  0  0  0
  9 11  1  0  0  0
M  END
> <minimizedAffinity>
-7.59119

$$$$
5N31_8LB_E_410


 37 37  0  0  0  0  0  0  0  0999 V2000
   34.1930   36.7374   -7.2619 N   0  0  0  0  0  0  0  0  0  0  0  0
   34.6684   37.3995   -6.6488 H   0  0  0  0  0  0  0  0  0  0  0  0
   34.9242   34.9501   -9.0415 O   0  0  0  0  0  0  0  0  0  0  0  0
   35.3298   35.5669   -7.7064 P   0  0  0  0  0  0  0  0  0  0  0  0
   35.5000   34.4795   -6.6513 O   0  0  0  0  0  0  0  0  0  0  0  0
   36.1599   33.8360   -6.9536 H   0  0  0  0  0  0  0  0  0  0  0  0
   36.9028   36.5092   -7.8446 C   0  0  0  0  0  0  0  0  0  0  0  0
   37.2841   37.4412   -5.5509 C   0  0  0  0  0  0  0  0  0  0  0  0
   36.8752   37.5863   -6.8886 N   0  0  0  0  0  0  0  0  0  0  0  0
   37.6970   36.4245   -5.1070 O   0  0  0  0  0  0  0  0  0  0  0  0
   36.5542   38.4680   -7.1865 H   0  0  0  0  0  0  0  0  0  0  0  0
   37.0943   38.6386   -4.8869 O   0  0  0  0  0  0  0  0  0  0  0  0
   38.0437   39.0195   -3.9308 C   0  0  0  0  0  0  0  0  0  0  0  0
   37.5044   40.1684   -3.0600 C   0  0  0  0  0  0  0  0  0  0  0  0
   36.5362   42.2688   -1.5007 C   0  0  0  0  0  0  0  0  0  0  0  0
   36.5396   40.9746   -0.9947 C   0  0  0  0  0  0  0  0  0  0  0  0
   37.0189   39.9258   -1.7777 C   0  0  0  0  0  0  0  0  0  0  0  0
   37.4760   41.4594   -3.5702 C   0  0  0  0  0  0  0  0  0  0  0  0
   37.0007   42.5030   -2.7958 C   0  0  0  0  0  0  0  0  0  0  0  0
   33.5398   37.5155   -8.3096 C   0  0  0  0  0  0  0  0  0  0  0  0
   34.1803   38.8844   -8.4324 C   0  0  0  0  0  0  0  0  0  0  0  0
   33.5262   39.9306   -7.7552 N   0  0  0  0  0  0  0  0  0  0  0  0
   35.1554   39.0944   -9.1167 O   0  0  0  0  0  0  0  0  0  0  0  0
   32.7178   39.7459   -7.2245 H   0  0  0  0  0  0  0  0  0  0  0  0
   34.0435   41.2732   -7.8409 C   0  0  0  0  0  0  0  0  0  0  0  0
   34.9746   41.5294   -6.6640 C   0  0  0  0  0  0  0  0  0  0  0  0
   34.8092   42.5659   -5.9477 O   0  0  0  0  0  0  0  0  0  0  0  0
   35.8845   40.6840   -6.4362 O   0  0  0  0  0  0  0  0  0  0  0  0
   35.9740   39.9320   -6.9879 H   0  0  0  0  0  0  0  0  0  0  0  0
   32.9414   42.3116   -7.9705 C   0  0  0  0  0  0  0  0  0  0  0  0
   32.2595   42.2540   -9.3162 C   0  0  0  0  0  0  0  0  0  0  0  0
   33.0345   43.0722  -10.3688 C   0  0  0  0  0  0  0  0  0  0  0  0
   32.9251   42.5022  -11.7774 C   0  0  0  0  0  0  0  0  0  0  0  0
   32.0843   37.6812   -7.9004 C   0  0  0  0  0  0  0  0  0  0  0  0
   31.0834   37.3623   -9.0049 C   0  0  0  0  0  0  0  0  0  0  0  0
   30.6266   38.6283   -9.7232 C   0  0  0  0  0  0  0  0  0  0  0  0
   29.8765   36.5874   -8.4888 C   0  0  0  0  0  0  0  0  0  0  0  0
 16 17  2  0  0  0
 16 15  1  0  0  0
 17 14  1  0  0  0
 15 19  2  0  0  0
 14 13  1  0  0  0
 14 18  2  0  0  0
 13 12  1  0  0  0
 19 18  1  0  0  0
 12  8  1  0  0  0
 10  8  2  0  0  0
  8  9  1  0  0  0
  9  7  1  0  0  0
  7  4  1  0  0  0
  3  4  2  0  0  0
  5  4  1  0  0  0
  4  1  1  0  0  0
 27 26  2  0  0  0
 28 26  1  0  0  0
 26 25  1  0  0  0
  1 20  1  0  0  0
 25 22  1  0  0  0
 25 30  1  0  0  0
 22 21  1  0  0  0
 21 23  2  0  0  0
 21 20  1  0  0  0
 20 34  1  0  0  0
 30 31  1  0  0  0
 31 32  1  0  0  0
 34 35  1  0  0  0
 33 32  1  0  0  0
 37 35  1  0  0  0
 35 36  1  0  0  0
  1  2  1  0  0  0
 22 24  1  0  0  0
 28 29  1  0  0  0
  5  6  1  0  0  0
  9 11  1  0  0  0
M  END
> <minimizedAffinity>
-7.57762

$$$$
5N31_8LB_E_410


 37 37  0  0  0  0  0  0  0  0999 V2000
   31.7535   41.0833   -9.5845 N   0  0  0  0  0  0  0  0  0  0  0  0
   30.9431   41.6656   -9.7959 H   0  0  0  0  0  0  0  0  0  0  0  0
   32.0462   43.1279   -7.9628 O   0  0  0  0  0  0  0  0  0  0  0  0
   32.8248   42.0306   -8.6820 P   0  0  0  0  0  0  0  0  0  0  0  0
   33.9338   42.6397   -9.5328 O   0  0  0  0  0  0  0  0  0  0  0  0
   34.5183   43.1712   -8.9699 H   0  0  0  0  0  0  0  0  0  0  0  0
   33.5737   40.8416   -7.4959 C   0  0  0  0  0  0  0  0  0  0  0  0
   35.1961   41.0876   -5.6032 C   0  0  0  0  0  0  0  0  0  0  0  0
   34.1585   41.5866   -6.4106 N   0  0  0  0  0  0  0  0  0  0  0  0
   35.6817   40.0196   -5.7601 O   0  0  0  0  0  0  0  0  0  0  0  0
   33.8145   42.4902   -6.2248 H   0  0  0  0  0  0  0  0  0  0  0  0
   35.5012   42.0206   -4.6299 O   0  0  0  0  0  0  0  0  0  0  0  0
   36.8136   42.0603   -4.1436 C   0  0  0  0  0  0  0  0  0  0  0  0
   36.8202   42.0904   -2.6048 C   0  0  0  0  0  0  0  0  0  0  0  0
   36.8451   42.1691    0.1834 C   0  0  0  0  0  0  0  0  0  0  0  0
   36.4352   41.0152   -0.4735 C   0  0  0  0  0  0  0  0  0  0  0  0
   36.4184   40.9799   -1.8669 C   0  0  0  0  0  0  0  0  0  0  0  0
   37.2053   43.2491   -1.9439 C   0  0  0  0  0  0  0  0  0  0  0  0
   37.2230   43.2877   -0.5608 C   0  0  0  0  0  0  0  0  0  0  0  0
   32.2128   40.5128  -10.8468 C   0  0  0  0  0  0  0  0  0  0  0  0
   32.0581   41.5177  -11.9717 C   0  0  0  0  0  0  0  0  0  0  0  0
   30.8431   41.4633  -12.6800 N   0  0  0  0  0  0  0  0  0  0  0  0
   32.9379   42.2825  -12.2949 O   0  0  0  0  0  0  0  0  0  0  0  0
   30.1485   40.8158  -12.4200 H   0  0  0  0  0  0  0  0  0  0  0  0
   30.6188   42.3584  -13.7873 C   0  0  0  0  0  0  0  0  0  0  0  0
   29.4343   43.2614  -13.4720 C   0  0  0  0  0  0  0  0  0  0  0  0
   29.2631   44.3277  -14.1416 O   0  0  0  0  0  0  0  0  0  0  0  0
   28.6503   42.9056  -12.5482 O   0  0  0  0  0  0  0  0  0  0  0  0
   28.8109   42.1117  -12.0772 H   0  0  0  0  0  0  0  0  0  0  0  0
   30.4755   41.6211  -15.1085 C   0  0  0  0  0  0  0  0  0  0  0  0
   31.7963   41.4728  -15.8245 C   0  0  0  0  0  0  0  0  0  0  0  0
   32.4513   40.1129  -15.5091 C   0  0  0  0  0  0  0  0  0  0  0  0
   32.3359   39.1080  -16.6485 C   0  0  0  0  0  0  0  0  0  0  0  0
   31.3365   39.3035  -11.1350 C   0  0  0  0  0  0  0  0  0  0  0  0
   30.2573   39.0490  -10.0891 C   0  0  0  0  0  0  0  0  0  0  0  0
   30.5545   37.7909   -9.2789 C   0  0  0  0  0  0  0  0  0  0  0  0
   28.8642   38.9618  -10.7015 C   0  0  0  0  0  0  0  0  0  0  0  0
 16 17  2  0  0  0
 16 15  1  0  0  0
 17 14  1  0  0  0
 15 19  2  0  0  0
 14 13  1  0  0  0
 14 18  2  0  0  0
 13 12  1  0  0  0
 19 18  1  0  0  0
 12  8  1  0  0  0
 10  8  2  0  0  0
  8  9  1  0  0  0
  9  7  1  0  0  0
  7  4  1  0  0  0
  3  4  2  0  0  0
  5  4  1  0  0  0
  4  1  1  0  0  0
 27 26  2  0  0  0
 28 26  1  0  0  0
 26 25  1  0  0  0
  1 20  1  0  0  0
 25 22  1  0  0  0
 25 30  1  0  0  0
 22 21  1  0  0  0
 21 23  2  0  0  0
 21 20  1  0  0  0
 20 34  1  0  0  0
 30 31  1  0  0  0
 31 32  1  0  0  0
 34 35  1  0  0  0
 33 32  1  0  0  0
 37 35  1  0  0  0
 35 36  1  0  0  0
  1  2  1  0  0  0
 22 24  1  0  0  0
 28 29  1  0  0  0
  5  6  1  0  0  0
  9 11  1  0  0  0
M  END
> <minimizedAffinity>
-7.54120

$$$$
5N31_8LB_E_410


 37 37  0  0  0  0  0  0  0  0999 V2000
   34.3423   40.1058   -8.9083 N   0  0  0  0  0  0  0  0  0  0  0  0
   34.5467   39.1066   -8.9218 H   0  0  0  0  0  0  0  0  0  0  0  0
   33.4658   41.2016   -6.6886 O   0  0  0  0  0  0  0  0  0  0  0  0
   34.7278   40.6713   -7.3619 P   0  0  0  0  0  0  0  0  0  0  0  0
   35.8094   41.7459   -7.3796 O   0  0  0  0  0  0  0  0  0  0  0  0
   35.9927   42.0351   -6.4720 H   0  0  0  0  0  0  0  0  0  0  0  0
   35.3835   39.1855   -6.4993 C   0  0  0  0  0  0  0  0  0  0  0  0
   37.2530   38.7542   -4.8887 C   0  0  0  0  0  0  0  0  0  0  0  0
   36.3248   39.6172   -5.4980 N   0  0  0  0  0  0  0  0  0  0  0  0
   37.3441   37.6058   -5.1604 O   0  0  0  0  0  0  0  0  0  0  0  0
   36.3180   40.5636   -5.2268 H   0  0  0  0  0  0  0  0  0  0  0  0
   37.9764   39.4602   -3.9458 O   0  0  0  0  0  0  0  0  0  0  0  0
   37.6075   39.3321   -2.6011 C   0  0  0  0  0  0  0  0  0  0  0  0
   37.1575   40.6893   -2.0314 C   0  0  0  0  0  0  0  0  0  0  0  0
   36.3291   43.1359   -0.9786 C   0  0  0  0  0  0  0  0  0  0  0  0
   36.9500   43.0909   -2.2208 C   0  0  0  0  0  0  0  0  0  0  0  0
   37.3681   41.8678   -2.7426 C   0  0  0  0  0  0  0  0  0  0  0  0
   36.5590   40.7424   -0.7798 C   0  0  0  0  0  0  0  0  0  0  0  0
   36.1428   41.9548   -0.2586 C   0  0  0  0  0  0  0  0  0  0  0  0
   32.9770   40.2713   -9.3964 C   0  0  0  0  0  0  0  0  0  0  0  0
   32.4002   38.9358   -9.8244 C   0  0  0  0  0  0  0  0  0  0  0  0
   31.0704   38.9614  -10.2849 N   0  0  0  0  0  0  0  0  0  0  0  0
   33.0083   37.8950   -9.7235 O   0  0  0  0  0  0  0  0  0  0  0  0
   30.5815   39.8144  -10.3350 H   0  0  0  0  0  0  0  0  0  0  0  0
   30.4266   37.7347  -10.6829 C   0  0  0  0  0  0  0  0  0  0  0  0
   30.3488   37.6777  -12.2023 C   0  0  0  0  0  0  0  0  0  0  0  0
   31.1596   36.9395  -12.8444 O   0  0  0  0  0  0  0  0  0  0  0  0
   29.4615   38.3706  -12.7743 O   0  0  0  0  0  0  0  0  0  0  0  0
   28.8821   38.9027  -12.2653 H   0  0  0  0  0  0  0  0  0  0  0  0
   29.0797   37.5412  -10.0060 C   0  0  0  0  0  0  0  0  0  0  0  0
   29.0358   36.2823   -9.1739 C   0  0  0  0  0  0  0  0  0  0  0  0
   30.0408   36.3510   -8.0064 C   0  0  0  0  0  0  0  0  0  0  0  0
   31.0325   35.1944   -7.9941 C   0  0  0  0  0  0  0  0  0  0  0  0
   33.0434   41.1951  -10.6028 C   0  0  0  0  0  0  0  0  0  0  0  0
   33.1529   42.6746  -10.2531 C   0  0  0  0  0  0  0  0  0  0  0  0
   32.0633   43.0956   -9.2718 C   0  0  0  0  0  0  0  0  0  0  0  0
   33.1201   43.5673  -11.4882 C   0  0  0  0  0  0  0  0  0  0  0  0
 16 17  2  0  0  0
 16 15  1  0  0  0
 17 14  1  0  0  0
 15 19  2  0  0  0
 14 13  1  0  0  0
 14 18  2  0  0  0
 13 12  1  0  0  0
 19 18  1  0  0  0
 12  8  1  0  0  0
 10  8  2  0  0  0
  8  9  1  0  0  0
  9  7  1  0  0  0
  7  4  1  0  0  0
  3  4  2  0  0  0
  5  4  1  0  0  0
  4  1  1  0  0  0
 27 26  2  0  0  0
 28 26  1  0  0  0
 26 25  1  0  0  0
  1 20  1  0  0  0
 25 22  1  0  0  0
 25 30  1  0  0  0
 22 21  1  0  0  0
 21 23  2  0  0  0
 21 20  1  0  0  0
 20 34  1  0  0  0
 30 31  1  0  0  0
 31 32  1  0  0  0
 34 35  1  0  0  0
 33 32  1  0  0  0
 37 35  1  0  0  0
 35 36  1  0  0  0
  1  2  1  0  0  0
 22 24  1  0  0  0
 28 29  1  0  0  0
  5  6  1  0  0  0
  9 11  1  0  0  0
M  END
> <minimizedAffinity>
-7.45843

$$$$
