2WNJ_ZY7_A_301


 23 25  0  0  0  0  0  0  0  0999 V2000
   30.1223   -7.1294   59.2872 C   0  0  0  0  0  0  0  0  0  0  0  0
   28.9923   -7.1742   58.5435 C   0  0  0  0  0  0  0  0  0  0  0  0
   27.7629   -6.3392   58.7696 C   0  0  0  0  0  0  0  0  0  0  0  0
   26.5986   -7.3271   58.7706 C   0  0  0  0  0  0  0  0  0  0  0  0
   26.4474   -7.9054   57.3718 C   0  0  0  0  0  0  0  0  0  0  0  0
   27.7586   -8.4433   57.0204 N   0  0  0  0  0  0  0  0  0  0  0  0
   28.9098   -8.0965   57.4066 C   0  0  0  0  0  0  0  0  0  0  0  0
   30.3717   -6.2944   60.5060 C   0  0  0  0  0  0  0  0  0  0  0  0
   30.4128   -6.9979   61.8110 C   0  0  0  0  0  0  0  0  0  0  0  0
   30.6275   -6.2482   62.9750 C   0  0  0  0  0  0  0  0  0  0  0  0
   30.5562   -4.9088   60.5066 C   0  0  0  0  0  0  0  0  0  0  0  0
   30.7578   -4.1992   61.6812 C   0  0  0  0  0  0  0  0  0  0  0  0
   30.7979   -4.8647   62.9080 C   0  0  0  0  0  0  0  0  0  0  0  0
   30.2373   -8.3604   61.8204 O   0  0  0  0  0  0  0  0  0  0  0  0
   30.2898   -9.1362   63.0257 C   0  0  0  0  0  0  0  0  0  0  0  0
   30.9857   -4.1509   64.0610 O   0  0  0  0  0  0  0  0  0  0  0  0
   30.2232   -2.9725   64.3266 C   0  0  0  0  0  0  0  0  0  0  0  0
   30.0791   -8.6250   56.6214 C   0  0  0  0  0  0  0  0  0  0  0  0
   30.5823   -7.8765   55.5760 C   0  0  0  0  0  0  0  0  0  0  0  0
   31.6408   -8.2461   54.8494 N   0  0  0  0  0  0  0  0  0  0  0  0
   32.2746   -9.3849   55.1324 C   0  0  0  0  0  0  0  0  0  0  0  0
   31.8335  -10.1787   56.1937 C   0  0  0  0  0  0  0  0  0  0  0  0
   30.7274   -9.7967   56.9448 C   0  0  0  0  0  0  0  0  0  0  0  0
  1  8  1  0  0  0
  1  2  2  0  0  0
  8  9  1  0  0  0
  8 11  2  0  0  0
  9 14  1  0  0  0
  9 10  2  0  0  0
 14 15  1  0  0  0
 10 13  1  0  0  0
 11 12  1  0  0  0
 12 13  2  0  0  0
 13 16  1  0  0  0
 16 17  1  0  0  0
  2  3  1  0  0  0
  2  7  1  0  0  0
  3  4  1  0  0  0
  4  5  1  0  0  0
  5  6  1  0  0  0
  6  7  2  0  0  0
  7 18  1  0  0  0
 18 19  2  0  0  0
 18 23  1  0  0  0
 19 20  1  0  0  0
 20 21  2  0  0  0
 21 22  1  0  0  0
 22 23  2  0  0  0
M  END
> <minimizedAffinity>
-8.34751

$$$$
2WNJ_ZY7_A_301


 23 25  0  0  0  0  0  0  0  0999 V2000
   30.4723   -6.7854   62.9619 C   0  0  0  0  0  0  0  0  0  0  0  0
   30.4329   -5.4735   62.6312 C   0  0  0  0  0  0  0  0  0  0  0  0
   31.1392   -4.3659   63.3620 C   0  0  0  0  0  0  0  0  0  0  0  0
   30.0735   -3.3002   63.6068 C   0  0  0  0  0  0  0  0  0  0  0  0
   29.6593   -2.7069   62.2688 C   0  0  0  0  0  0  0  0  0  0  0  0
   29.2685   -3.8404   61.4355 N   0  0  0  0  0  0  0  0  0  0  0  0
   29.6516   -5.0433   61.4673 C   0  0  0  0  0  0  0  0  0  0  0  0
   31.1697   -7.4030   64.1354 C   0  0  0  0  0  0  0  0  0  0  0  0
   30.7301   -8.7584   64.5468 C   0  0  0  0  0  0  0  0  0  0  0  0
   31.3477   -9.3618   65.6502 C   0  0  0  0  0  0  0  0  0  0  0  0
   32.1896   -6.7965   64.8741 C   0  0  0  0  0  0  0  0  0  0  0  0
   32.7715   -7.4222   65.9666 C   0  0  0  0  0  0  0  0  0  0  0  0
   32.3569   -8.6991   66.3503 C   0  0  0  0  0  0  0  0  0  0  0  0
   29.7315   -9.3649   63.8242 O   0  0  0  0  0  0  0  0  0  0  0  0
   28.9634  -10.4609   64.3399 C   0  0  0  0  0  0  0  0  0  0  0  0
   32.9312   -9.3005   67.4378 O   0  0  0  0  0  0  0  0  0  0  0  0
   33.6803   -8.5393   68.3865 C   0  0  0  0  0  0  0  0  0  0  0  0
   29.3120   -5.8976   60.2765 C   0  0  0  0  0  0  0  0  0  0  0  0
   30.3229   -6.3041   59.4285 C   0  0  0  0  0  0  0  0  0  0  0  0
   30.1221   -7.0949   58.3706 N   0  0  0  0  0  0  0  0  0  0  0  0
   28.8953   -7.5432   58.1009 C   0  0  0  0  0  0  0  0  0  0  0  0
   27.8300   -7.1909   58.9328 C   0  0  0  0  0  0  0  0  0  0  0  0
   28.0387   -6.3620   60.0295 C   0  0  0  0  0  0  0  0  0  0  0  0
  1  8  1  0  0  0
  1  2  2  0  0  0
  8  9  1  0  0  0
  8 11  2  0  0  0
  9 14  1  0  0  0
  9 10  2  0  0  0
 14 15  1  0  0  0
 10 13  1  0  0  0
 11 12  1  0  0  0
 12 13  2  0  0  0
 13 16  1  0  0  0
 16 17  1  0  0  0
  2  3  1  0  0  0
  2  7  1  0  0  0
  3  4  1  0  0  0
  4  5  1  0  0  0
  5  6  1  0  0  0
  6  7  2  0  0  0
  7 18  1  0  0  0
 18 19  2  0  0  0
 18 23  1  0  0  0
 19 20  1  0  0  0
 20 21  2  0  0  0
 21 22  1  0  0  0
 22 23  2  0  0  0
M  END
> <minimizedAffinity>
-8.24147

$$$$
2WNJ_ZY7_A_301


 23 25  0  0  0  0  0  0  0  0999 V2000
   31.0764   -5.4353   64.4944 C   0  0  0  0  0  0  0  0  0  0  0  0
   31.8693   -6.1095   65.3598 C   0  0  0  0  0  0  0  0  0  0  0  0
   32.8301   -7.2059   64.9930 C   0  0  0  0  0  0  0  0  0  0  0  0
   32.5213   -8.3514   65.9542 C   0  0  0  0  0  0  0  0  0  0  0  0
   32.9071   -7.9250   67.3625 C   0  0  0  0  0  0  0  0  0  0  0  0
   32.2073   -6.6662   67.6022 N   0  0  0  0  0  0  0  0  0  0  0  0
   31.8283   -5.7786   66.7877 C   0  0  0  0  0  0  0  0  0  0  0  0
   30.9449   -5.6648   63.0197 C   0  0  0  0  0  0  0  0  0  0  0  0
   30.1821   -6.8607   62.5866 C   0  0  0  0  0  0  0  0  0  0  0  0
   30.0516   -7.1175   61.2155 C   0  0  0  0  0  0  0  0  0  0  0  0
   31.4936   -4.8474   62.0274 C   0  0  0  0  0  0  0  0  0  0  0  0
   31.3506   -5.1390   60.6790 C   0  0  0  0  0  0  0  0  0  0  0  0
   30.6301   -6.2646   60.2744 C   0  0  0  0  0  0  0  0  0  0  0  0
   29.6349   -7.6678   63.5543 O   0  0  0  0  0  0  0  0  0  0  0  0
   29.8381   -9.0874   63.5796 C   0  0  0  0  0  0  0  0  0  0  0  0
   30.5066   -6.5475   58.9407 O   0  0  0  0  0  0  0  0  0  0  0  0
   29.2733   -7.0288   58.4040 C   0  0  0  0  0  0  0  0  0  0  0  0
   31.4252   -4.4502   67.3674 C   0  0  0  0  0  0  0  0  0  0  0  0
   30.7922   -4.4144   68.5938 C   0  0  0  0  0  0  0  0  0  0  0  0
   30.4338   -3.2811   69.2037 N   0  0  0  0  0  0  0  0  0  0  0  0
   30.6996   -2.1066   68.6305 C   0  0  0  0  0  0  0  0  0  0  0  0
   31.3606   -2.0692   67.4006 C   0  0  0  0  0  0  0  0  0  0  0  0
   31.7269   -3.2495   66.7632 C   0  0  0  0  0  0  0  0  0  0  0  0
  1  8  1  0  0  0
  1  2  2  0  0  0
  8  9  1  0  0  0
  8 11  2  0  0  0
  9 14  1  0  0  0
  9 10  2  0  0  0
 14 15  1  0  0  0
 10 13  1  0  0  0
 11 12  1  0  0  0
 12 13  2  0  0  0
 13 16  1  0  0  0
 16 17  1  0  0  0
  2  3  1  0  0  0
  2  7  1  0  0  0
  3  4  1  0  0  0
  4  5  1  0  0  0
  5  6  1  0  0  0
  6  7  2  0  0  0
  7 18  1  0  0  0
 18 19  2  0  0  0
 18 23  1  0  0  0
 19 20  1  0  0  0
 20 21  2  0  0  0
 21 22  1  0  0  0
 22 23  2  0  0  0
M  END
> <minimizedAffinity>
-8.07681

$$$$
2WNJ_ZY7_A_301


 23 25  0  0  0  0  0  0  0  0999 V2000
   31.6438   -6.1462   63.6876 C   0  0  0  0  0  0  0  0  0  0  0  0
   31.2639   -5.2700   64.6468 C   0  0  0  0  0  0  0  0  0  0  0  0
   30.2506   -4.1727   64.4771 C   0  0  0  0  0  0  0  0  0  0  0  0
   30.9274   -2.9123   65.0109 C   0  0  0  0  0  0  0  0  0  0  0  0
   31.1209   -3.0603   66.5124 C   0  0  0  0  0  0  0  0  0  0  0  0
   31.8421   -4.3161   66.6982 N   0  0  0  0  0  0  0  0  0  0  0  0
   31.8587   -5.3576   65.9842 C   0  0  0  0  0  0  0  0  0  0  0  0
   31.1877   -6.1809   62.2609 C   0  0  0  0  0  0  0  0  0  0  0  0
   30.1328   -7.1632   61.9118 C   0  0  0  0  0  0  0  0  0  0  0  0
   29.6921   -7.2364   60.5838 C   0  0  0  0  0  0  0  0  0  0  0  0
   31.6870   -5.3697   61.2379 C   0  0  0  0  0  0  0  0  0  0  0  0
   31.2317   -5.4773   59.9322 C   0  0  0  0  0  0  0  0  0  0  0  0
   30.2369   -6.4017   59.6071 C   0  0  0  0  0  0  0  0  0  0  0  0
   29.6322   -7.9619   62.9112 O   0  0  0  0  0  0  0  0  0  0  0  0
   30.1563   -9.2676   63.1898 C   0  0  0  0  0  0  0  0  0  0  0  0
   29.8050   -6.5059   58.3122 O   0  0  0  0  0  0  0  0  0  0  0  0
   28.4891   -6.9746   58.0134 C   0  0  0  0  0  0  0  0  0  0  0  0
   32.4400   -6.5989   66.6043 C   0  0  0  0  0  0  0  0  0  0  0  0
   33.5029   -6.4816   67.4775 C   0  0  0  0  0  0  0  0  0  0  0  0
   34.0575   -7.5224   68.1053 N   0  0  0  0  0  0  0  0  0  0  0  0
   33.5731   -8.7496   67.9102 C   0  0  0  0  0  0  0  0  0  0  0  0
   32.4820   -8.9370   67.0584 C   0  0  0  0  0  0  0  0  0  0  0  0
   31.9101   -7.8540   66.4000 C   0  0  0  0  0  0  0  0  0  0  0  0
  1  8  1  0  0  0
  1  2  2  0  0  0
  8  9  1  0  0  0
  8 11  2  0  0  0
  9 14  1  0  0  0
  9 10  2  0  0  0
 14 15  1  0  0  0
 10 13  1  0  0  0
 11 12  1  0  0  0
 12 13  2  0  0  0
 13 16  1  0  0  0
 16 17  1  0  0  0
  2  3  1  0  0  0
  2  7  1  0  0  0
  3  4  1  0  0  0
  4  5  1  0  0  0
  5  6  1  0  0  0
  6  7  2  0  0  0
  7 18  1  0  0  0
 18 19  2  0  0  0
 18 23  1  0  0  0
 19 20  1  0  0  0
 20 21  2  0  0  0
 21 22  1  0  0  0
 22 23  2  0  0  0
M  END
> <minimizedAffinity>
-7.88325

$$$$
2WNJ_ZY7_A_301


 23 25  0  0  0  0  0  0  0  0999 V2000
   32.3463   -7.1629   64.8305 C   0  0  0  0  0  0  0  0  0  0  0  0
   31.2864   -7.9840   64.6448 C   0  0  0  0  0  0  0  0  0  0  0  0
   30.8505   -9.0750   65.5826 C   0  0  0  0  0  0  0  0  0  0  0  0
   30.6823  -10.3154   64.7082 C   0  0  0  0  0  0  0  0  0  0  0  0
   29.5085  -10.0938   63.7664 C   0  0  0  0  0  0  0  0  0  0  0  0
   29.7871   -8.8398   63.0724 N   0  0  0  0  0  0  0  0  0  0  0  0
   30.4577   -7.8363   63.4441 C   0  0  0  0  0  0  0  0  0  0  0  0
   33.3294   -7.1948   65.9608 C   0  0  0  0  0  0  0  0  0  0  0  0
   33.1313   -6.2160   67.0573 C   0  0  0  0  0  0  0  0  0  0  0  0
   34.0401   -6.2046   68.1236 C   0  0  0  0  0  0  0  0  0  0  0  0
   34.4192   -8.0651   66.0531 C   0  0  0  0  0  0  0  0  0  0  0  0
   35.3032   -8.0181   67.1209 C   0  0  0  0  0  0  0  0  0  0  0  0
   35.1129   -7.0967   68.1527 C   0  0  0  0  0  0  0  0  0  0  0  0
   32.0602   -5.3594   66.9779 O   0  0  0  0  0  0  0  0  0  0  0  0
   32.0333   -4.0942   67.6530 C   0  0  0  0  0  0  0  0  0  0  0  0
   35.9995   -7.0528   69.1948 O   0  0  0  0  0  0  0  0  0  0  0  0
   37.0399   -6.0746   69.2321 C   0  0  0  0  0  0  0  0  0  0  0  0
   30.2924   -6.5729   62.6444 C   0  0  0  0  0  0  0  0  0  0  0  0
   31.3498   -6.1127   61.8853 C   0  0  0  0  0  0  0  0  0  0  0  0
   31.2826   -5.0241   61.1138 N   0  0  0  0  0  0  0  0  0  0  0  0
   30.1448   -4.3321   61.0407 C   0  0  0  0  0  0  0  0  0  0  0  0
   29.0276   -4.7565   61.7637 C   0  0  0  0  0  0  0  0  0  0  0  0
   29.1007   -5.8856   62.5720 C   0  0  0  0  0  0  0  0  0  0  0  0
  1  8  1  0  0  0
  1  2  2  0  0  0
  8  9  1  0  0  0
  8 11  2  0  0  0
  9 14  1  0  0  0
  9 10  2  0  0  0
 14 15  1  0  0  0
 10 13  1  0  0  0
 11 12  1  0  0  0
 12 13  2  0  0  0
 13 16  1  0  0  0
 16 17  1  0  0  0
  2  3  1  0  0  0
  2  7  1  0  0  0
  3  4  1  0  0  0
  4  5  1  0  0  0
  5  6  1  0  0  0
  6  7  2  0  0  0
  7 18  1  0  0  0
 18 19  2  0  0  0
 18 23  1  0  0  0
 19 20  1  0  0  0
 20 21  2  0  0  0
 21 22  1  0  0  0
 22 23  2  0  0  0
M  END
> <minimizedAffinity>
-7.56716

$$$$
2WNJ_ZY7_A_301


 23 25  0  0  0  0  0  0  0  0999 V2000
   32.5379   -6.4170   65.4856 C   0  0  0  0  0  0  0  0  0  0  0  0
   32.4531   -7.7678   65.4694 C   0  0  0  0  0  0  0  0  0  0  0  0
   31.5771   -8.5781   64.5553 C   0  0  0  0  0  0  0  0  0  0  0  0
   30.8302   -9.5483   65.4675 C   0  0  0  0  0  0  0  0  0  0  0  0
   31.8289  -10.5339   66.0549 C   0  0  0  0  0  0  0  0  0  0  0  0
   32.8688   -9.7211   66.6794 N   0  0  0  0  0  0  0  0  0  0  0  0
   33.2669   -8.5556   66.4007 C   0  0  0  0  0  0  0  0  0  0  0  0
   31.7544   -5.4504   64.6509 C   0  0  0  0  0  0  0  0  0  0  0  0
   31.3217   -4.1902   65.3023 C   0  0  0  0  0  0  0  0  0  0  0  0
   30.5729   -3.2689   64.5583 C   0  0  0  0  0  0  0  0  0  0  0  0
   31.3931   -5.6511   63.3156 C   0  0  0  0  0  0  0  0  0  0  0  0
   30.6432   -4.7191   62.6137 C   0  0  0  0  0  0  0  0  0  0  0  0
   30.2390   -3.5327   63.2293 C   0  0  0  0  0  0  0  0  0  0  0  0
   31.6759   -3.9815   66.6132 O   0  0  0  0  0  0  0  0  0  0  0  0
   31.3731   -2.7646   67.3092 C   0  0  0  0  0  0  0  0  0  0  0  0
   29.4890   -2.6266   62.5288 O   0  0  0  0  0  0  0  0  0  0  0  0
   29.6238   -2.5018   61.1122 C   0  0  0  0  0  0  0  0  0  0  0  0
   34.5689   -8.1163   67.0131 C   0  0  0  0  0  0  0  0  0  0  0  0
   35.7488   -8.6680   66.5554 C   0  0  0  0  0  0  0  0  0  0  0  0
   36.9530   -8.3112   67.0109 N   0  0  0  0  0  0  0  0  0  0  0  0
   37.0550   -7.3659   67.9462 C   0  0  0  0  0  0  0  0  0  0  0  0
   35.9021   -6.7479   68.4360 C   0  0  0  0  0  0  0  0  0  0  0  0
   34.6488   -7.1250   67.9664 C   0  0  0  0  0  0  0  0  0  0  0  0
  1  8  1  0  0  0
  1  2  2  0  0  0
  8  9  1  0  0  0
  8 11  2  0  0  0
  9 14  1  0  0  0
  9 10  2  0  0  0
 14 15  1  0  0  0
 10 13  1  0  0  0
 11 12  1  0  0  0
 12 13  2  0  0  0
 13 16  1  0  0  0
 16 17  1  0  0  0
  2  3  1  0  0  0
  2  7  1  0  0  0
  3  4  1  0  0  0
  4  5  1  0  0  0
  5  6  1  0  0  0
  6  7  2  0  0  0
  7 18  1  0  0  0
 18 19  2  0  0  0
 18 23  1  0  0  0
 19 20  1  0  0  0
 20 21  2  0  0  0
 21 22  1  0  0  0
 22 23  2  0  0  0
M  END
> <minimizedAffinity>
-7.32499

$$$$
2WNJ_ZY7_A_301


 23 25  0  0  0  0  0  0  0  0999 V2000
   30.4987   -6.5181   62.6412 C   0  0  0  0  0  0  0  0  0  0  0  0
   30.4634   -5.5540   63.5907 C   0  0  0  0  0  0  0  0  0  0  0  0
   29.5902   -4.3307   63.5626 C   0  0  0  0  0  0  0  0  0  0  0  0
   30.5289   -3.1585   63.8388 C   0  0  0  0  0  0  0  0  0  0  0  0
   31.0360   -3.2651   65.2690 C   0  0  0  0  0  0  0  0  0  0  0  0
   31.6101   -4.6023   65.3883 N   0  0  0  0  0  0  0  0  0  0  0  0
   31.3286   -5.6663   64.7692 C   0  0  0  0  0  0  0  0  0  0  0  0
   29.7312   -6.5508   61.3549 C   0  0  0  0  0  0  0  0  0  0  0  0
   30.4997   -6.3437   60.1034 C   0  0  0  0  0  0  0  0  0  0  0  0
   29.8138   -6.3512   58.8816 C   0  0  0  0  0  0  0  0  0  0  0  0
   28.3518   -6.7493   61.2472 C   0  0  0  0  0  0  0  0  0  0  0  0
   27.7062   -6.7416   60.0196 C   0  0  0  0  0  0  0  0  0  0  0  0
   28.4328   -6.5483   58.8430 C   0  0  0  0  0  0  0  0  0  0  0  0
   31.8568   -6.1524   60.1984 O   0  0  0  0  0  0  0  0  0  0  0  0
   32.4319   -5.0558   60.9221 C   0  0  0  0  0  0  0  0  0  0  0  0
   27.7817   -6.5310   57.6389 O   0  0  0  0  0  0  0  0  0  0  0  0
   28.3980   -7.0604   56.4640 C   0  0  0  0  0  0  0  0  0  0  0  0
   31.8677   -6.9493   65.3404 C   0  0  0  0  0  0  0  0  0  0  0  0
   33.0779   -6.9350   66.0049 C   0  0  0  0  0  0  0  0  0  0  0  0
   33.6152   -8.0156   66.5780 N   0  0  0  0  0  0  0  0  0  0  0  0
   32.9670   -9.1804   66.5355 C   0  0  0  0  0  0  0  0  0  0  0  0
   31.7254   -9.2602   65.9007 C   0  0  0  0  0  0  0  0  0  0  0  0
   31.1703   -8.1366   65.2984 C   0  0  0  0  0  0  0  0  0  0  0  0
  1  8  1  0  0  0
  1  2  2  0  0  0
  8  9  1  0  0  0
  8 11  2  0  0  0
  9 14  1  0  0  0
  9 10  2  0  0  0
 14 15  1  0  0  0
 10 13  1  0  0  0
 11 12  1  0  0  0
 12 13  2  0  0  0
 13 16  1  0  0  0
 16 17  1  0  0  0
  2  3  1  0  0  0
  2  7  1  0  0  0
  3  4  1  0  0  0
  4  5  1  0  0  0
  5  6  1  0  0  0
  6  7  2  0  0  0
  7 18  1  0  0  0
 18 19  2  0  0  0
 18 23  1  0  0  0
 19 20  1  0  0  0
 20 21  2  0  0  0
 21 22  1  0  0  0
 22 23  2  0  0  0
M  END
> <minimizedAffinity>
-7.22977

$$$$
2WNJ_ZY7_A_301


 23 25  0  0  0  0  0  0  0  0999 V2000
   31.3826   -7.3804   64.9004 C   0  0  0  0  0  0  0  0  0  0  0  0
   30.9080   -6.5572   63.9365 C   0  0  0  0  0  0  0  0  0  0  0  0
   30.1446   -6.9892   62.7156 C   0  0  0  0  0  0  0  0  0  0  0  0
   30.8446   -6.3101   61.5407 C   0  0  0  0  0  0  0  0  0  0  0  0
   30.6298   -4.8079   61.6460 C   0  0  0  0  0  0  0  0  0  0  0  0
   31.0862   -4.4338   62.9815 N   0  0  0  0  0  0  0  0  0  0  0  0
   31.1271   -5.1116   64.0463 C   0  0  0  0  0  0  0  0  0  0  0  0
   31.3005   -8.8760   64.9352 C   0  0  0  0  0  0  0  0  0  0  0  0
   32.3600   -9.5943   65.6844 C   0  0  0  0  0  0  0  0  0  0  0  0
   32.3259  -10.9944   65.7257 C   0  0  0  0  0  0  0  0  0  0  0  0
   30.3126   -9.6411   64.3088 C   0  0  0  0  0  0  0  0  0  0  0  0
   30.3169  -11.0270   64.3646 C   0  0  0  0  0  0  0  0  0  0  0  0
   31.3146  -11.7002   65.0725 C   0  0  0  0  0  0  0  0  0  0  0  0
   33.3328   -8.8509   66.3075 O   0  0  0  0  0  0  0  0  0  0  0  0
   33.3455   -8.6309   67.7248 C   0  0  0  0  0  0  0  0  0  0  0  0
   31.3139  -13.0687   65.1097 O   0  0  0  0  0  0  0  0  0  0  0  0
   32.3701  -13.7856   65.7509 C   0  0  0  0  0  0  0  0  0  0  0  0
   31.3426   -4.3536   65.3278 C   0  0  0  0  0  0  0  0  0  0  0  0
   30.8818   -3.0560   65.4288 C   0  0  0  0  0  0  0  0  0  0  0  0
   30.9925   -2.3205   66.5386 N   0  0  0  0  0  0  0  0  0  0  0  0
   31.5600   -2.8427   67.6267 C   0  0  0  0  0  0  0  0  0  0  0  0
   32.0257   -4.1594   67.6016 C   0  0  0  0  0  0  0  0  0  0  0  0
   31.9165   -4.9218   66.4439 C   0  0  0  0  0  0  0  0  0  0  0  0
  1  8  1  0  0  0
  1  2  2  0  0  0
  8  9  1  0  0  0
  8 11  2  0  0  0
  9 14  1  0  0  0
  9 10  2  0  0  0
 14 15  1  0  0  0
 10 13  1  0  0  0
 11 12  1  0  0  0
 12 13  2  0  0  0
 13 16  1  0  0  0
 16 17  1  0  0  0
  2  3  1  0  0  0
  2  7  1  0  0  0
  3  4  1  0  0  0
  4  5  1  0  0  0
  5  6  1  0  0  0
  6  7  2  0  0  0
  7 18  1  0  0  0
 18 19  2  0  0  0
 18 23  1  0  0  0
 19 20  1  0  0  0
 20 21  2  0  0  0
 21 22  1  0  0  0
 22 23  2  0  0  0
M  END
> <minimizedAffinity>
-7.15668

$$$$
2WNJ_ZY7_A_301


 23 25  0  0  0  0  0  0  0  0999 V2000
   31.2044   -5.6436   64.4009 C   0  0  0  0  0  0  0  0  0  0  0  0
   31.9732   -6.3588   65.2550 C   0  0  0  0  0  0  0  0  0  0  0  0
   32.6776   -7.6462   64.9287 C   0  0  0  0  0  0  0  0  0  0  0  0
   32.3012   -8.6083   66.0530 C   0  0  0  0  0  0  0  0  0  0  0  0
   32.9296   -8.1162   67.3480 C   0  0  0  0  0  0  0  0  0  0  0  0
   32.4920   -6.7317   67.5009 N   0  0  0  0  0  0  0  0  0  0  0  0
   32.1707   -5.8791   66.6265 C   0  0  0  0  0  0  0  0  0  0  0  0
   30.8499   -5.9972   62.9887 C   0  0  0  0  0  0  0  0  0  0  0  0
   30.7949   -4.8869   62.0069 C   0  0  0  0  0  0  0  0  0  0  0  0
   30.4508   -5.1763   60.6800 C   0  0  0  0  0  0  0  0  0  0  0  0
   30.5577   -7.2857   62.5324 C   0  0  0  0  0  0  0  0  0  0  0  0
   30.2123   -7.5321   61.2119 C   0  0  0  0  0  0  0  0  0  0  0  0
   30.1634   -6.4850   60.2895 C   0  0  0  0  0  0  0  0  0  0  0  0
   31.0851   -3.6175   62.4447 O   0  0  0  0  0  0  0  0  0  0  0  0
   30.0822   -2.7327   62.9630 C   0  0  0  0  0  0  0  0  0  0  0  0
   29.8095   -6.7402   58.9919 O   0  0  0  0  0  0  0  0  0  0  0  0
   30.2264   -7.9412   58.3404 C   0  0  0  0  0  0  0  0  0  0  0  0
   32.0779   -4.4461   67.0746 C   0  0  0  0  0  0  0  0  0  0  0  0
   31.2332   -3.5838   66.4045 C   0  0  0  0  0  0  0  0  0  0  0  0
   31.0562   -2.3069   66.7551 N   0  0  0  0  0  0  0  0  0  0  0  0
   31.7041   -1.8131   67.8110 C   0  0  0  0  0  0  0  0  0  0  0  0
   32.5559   -2.6377   68.5497 C   0  0  0  0  0  0  0  0  0  0  0  0
   32.7449   -3.9647   68.1797 C   0  0  0  0  0  0  0  0  0  0  0  0
  1  8  1  0  0  0
  1  2  2  0  0  0
  8  9  1  0  0  0
  8 11  2  0  0  0
  9 14  1  0  0  0
  9 10  2  0  0  0
 14 15  1  0  0  0
 10 13  1  0  0  0
 11 12  1  0  0  0
 12 13  2  0  0  0
 13 16  1  0  0  0
 16 17  1  0  0  0
  2  3  1  0  0  0
  2  7  1  0  0  0
  3  4  1  0  0  0
  4  5  1  0  0  0
  5  6  1  0  0  0
  6  7  2  0  0  0
  7 18  1  0  0  0
 18 19  2  0  0  0
 18 23  1  0  0  0
 19 20  1  0  0  0
 20 21  2  0  0  0
 21 22  1  0  0  0
 22 23  2  0  0  0
M  END
> <minimizedAffinity>
-7.13321

$$$$
2WNJ_ZY7_A_301


 23 25  0  0  0  0  0  0  0  0999 V2000
   32.7420   -5.7635   66.9468 C   0  0  0  0  0  0  0  0  0  0  0  0
   31.8282   -5.0807   66.2182 C   0  0  0  0  0  0  0  0  0  0  0  0
   31.1268   -5.5946   64.9919 C   0  0  0  0  0  0  0  0  0  0  0  0
   31.2953   -4.4990   63.9417 C   0  0  0  0  0  0  0  0  0  0  0  0
   30.5054   -3.2755   64.3810 C   0  0  0  0  0  0  0  0  0  0  0  0
   30.9723   -2.9640   65.7289 N   0  0  0  0  0  0  0  0  0  0  0  0
   31.4525   -3.7210   66.6183 C   0  0  0  0  0  0  0  0  0  0  0  0
   33.2840   -7.1320   66.6670 C   0  0  0  0  0  0  0  0  0  0  0  0
   34.6168   -7.4595   67.2291 C   0  0  0  0  0  0  0  0  0  0  0  0
   35.1639   -8.7241   66.9748 C   0  0  0  0  0  0  0  0  0  0  0  0
   32.6367   -8.1133   65.9108 C   0  0  0  0  0  0  0  0  0  0  0  0
   33.2143   -9.3517   65.6731 C   0  0  0  0  0  0  0  0  0  0  0  0
   34.4683   -9.6577   66.2055 C   0  0  0  0  0  0  0  0  0  0  0  0
   35.2591   -6.5032   67.9777 O   0  0  0  0  0  0  0  0  0  0  0  0
   36.6603   -6.5708   68.2766 C   0  0  0  0  0  0  0  0  0  0  0  0
   35.0323  -10.8794   65.9533 O   0  0  0  0  0  0  0  0  0  0  0  0
   34.2204  -12.0101   65.6325 C   0  0  0  0  0  0  0  0  0  0  0  0
   31.5375   -3.1639   68.0131 C   0  0  0  0  0  0  0  0  0  0  0  0
   30.6216   -3.5763   68.9604 C   0  0  0  0  0  0  0  0  0  0  0  0
   30.6434   -3.1666   70.2319 N   0  0  0  0  0  0  0  0  0  0  0  0
   31.5948   -2.3267   70.6419 C   0  0  0  0  0  0  0  0  0  0  0  0
   32.5685   -1.8890   69.7412 C   0  0  0  0  0  0  0  0  0  0  0  0
   32.5408   -2.3103   68.4164 C   0  0  0  0  0  0  0  0  0  0  0  0
  1  8  1  0  0  0
  1  2  2  0  0  0
  8  9  1  0  0  0
  8 11  2  0  0  0
  9 14  1  0  0  0
  9 10  2  0  0  0
 14 15  1  0  0  0
 10 13  1  0  0  0
 11 12  1  0  0  0
 12 13  2  0  0  0
 13 16  1  0  0  0
 16 17  1  0  0  0
  2  3  1  0  0  0
  2  7  1  0  0  0
  3  4  1  0  0  0
  4  5  1  0  0  0
  5  6  1  0  0  0
  6  7  2  0  0  0
  7 18  1  0  0  0
 18 19  2  0  0  0
 18 23  1  0  0  0
 19 20  1  0  0  0
 20 21  2  0  0  0
 21 22  1  0  0  0
 22 23  2  0  0  0
M  END
> <minimizedAffinity>
-7.04489

$$$$
