4DJR_0KJ_A_101


 43 46  0  0  0  0  0  0  0  0999 V2000
   20.4067   31.1899   12.8345 C   0  0  0  0  0  0  0  0  0  0  0  0
   20.4147   31.8999   11.5924 O   0  0  0  0  0  0  0  0  0  0  0  0
   20.7369   32.8032   11.7384 H   0  0  0  0  0  0  0  0  0  0  0  0
   21.8318   31.0679   13.3787 C   0  0  0  0  0  0  0  0  0  0  0  0
   23.2203   32.6084   14.7379 C   0  0  0  0  0  0  0  0  0  0  0  0
   24.2903   32.3781   14.1987 O   0  0  0  0  0  0  0  0  0  0  0  0
   22.0490   32.0761   14.4037 N   0  0  0  0  0  0  0  0  0  0  0  0
   21.2568   32.3932   14.8947 H   0  0  0  0  0  0  0  0  0  0  0  0
   23.1998   33.5130   15.8740 O   0  0  0  0  0  0  0  0  0  0  0  0
   22.5374   33.1261   17.0790 C   0  0  0  0  0  0  0  0  0  0  0  0
   22.0549   35.9994   20.3317 O   0  0  0  0  0  0  0  0  0  0  0  0
   21.9776   35.6052   19.1916 C   0  0  0  0  0  0  0  0  0  0  0  0
   21.4788   34.4431   18.8086 N   0  0  0  0  0  0  0  0  0  0  0  0
   21.5323   34.2218   17.3883 C   0  0  0  0  0  0  0  0  0  0  0  0
   21.9457   35.5813   16.8234 C   0  0  0  0  0  0  0  0  0  0  0  0
   22.4268   36.4142   18.0010 C   0  0  0  0  0  0  0  0  0  0  0  0
   21.1037   33.7868   19.4394 H   0  0  0  0  0  0  0  0  0  0  0  0
   22.1659   29.6959   13.9723 C   0  0  0  0  0  0  0  0  0  0  0  0
   22.2405   28.6281   12.8911 C   0  0  0  0  0  0  0  0  0  0  0  0
   21.1254   27.8434   12.6241 C   0  0  0  0  0  0  0  0  0  0  0  0
   21.1773   26.8647   11.6333 C   0  0  0  0  0  0  0  0  0  0  0  0
   22.3427   26.6719   10.9011 C   0  0  0  0  0  0  0  0  0  0  0  0
   23.4584   27.4577   11.1650 C   0  0  0  0  0  0  0  0  0  0  0  0
   23.3997   28.4367   12.1531 C   0  0  0  0  0  0  0  0  0  0  0  0
   19.4425   31.9050   13.7921 C   0  0  0  0  0  0  0  0  0  0  0  0
   18.4604   30.9162   14.3107 N   0  0  0  0  0  0  0  0  0  0  0  0
   17.8448   31.2703   15.7769 S   0  0  0  0  0  0  0  0  0  0  0  0
   18.8299   30.9012   16.7468 O   0  0  0  0  0  0  0  0  0  0  0  0
   16.6078   30.5310   15.8712 O   0  0  0  0  0  0  0  0  0  0  0  0
   17.4903   32.8711   15.9037 C   0  0  0  0  0  0  0  0  0  0  0  0
   16.5189   33.3973   15.0496 C   0  0  0  0  0  0  0  0  0  0  0  0
   16.1204   34.7303   15.1366 C   0  0  0  0  0  0  0  0  0  0  0  0
   18.0660   33.7464   16.8379 C   0  0  0  0  0  0  0  0  0  0  0  0
   17.6758   35.0936   16.9235 C   0  0  0  0  0  0  0  0  0  0  0  0
   18.3100   36.2451   18.0207 S   0  0  0  0  0  0  0  0  0  0  0  0
   17.2169   37.3798   17.2896 C   0  0  0  0  0  0  0  0  0  0  0  0
   16.4508   36.8915   16.3011 N   0  0  0  0  0  0  0  0  0  0  0  0
   16.6892   35.5803   16.0634 C   0  0  0  0  0  0  0  0  0  0  0  0
   17.4333   30.5699   13.3011 C   0  0  0  0  0  0  0  0  0  0  0  0
   17.7483   29.2373   12.5988 C   0  0  0  0  0  0  0  0  0  0  0  0
   17.6015   28.0057   13.4932 C   0  0  0  0  0  0  0  0  0  0  0  0
   16.8489   29.1010   11.3647 C   0  0  0  0  0  0  0  0  0  0  0  0
   17.4834   28.3116   10.2302 C   0  0  0  0  0  0  0  0  0  0  0  0
 15 14  1  0  0  0
 15 16  1  0  0  0
 14 13  1  0  0  0
 14 10  1  0  0  0
 22 23  2  0  0  0
 22 21  1  0  0  0
 23 24  1  0  0  0
 13 12  1  0  0  0
 16 12  1  0  0  0
 10  9  1  0  0  0
 21 20  2  0  0  0
 12 11  2  0  0  0
 24 19  2  0  0  0
  6  5  2  0  0  0
  9  5  1  0  0  0
 20 19  1  0  0  0
  5  7  1  0  0  0
 19 18  1  0  0  0
  7  4  1  0  0  0
 29 27  2  0  0  0
 18  4  1  0  0  0
  4  1  1  0  0  0
 28 27  2  0  0  0
 27 26  1  0  0  0
 27 30  1  0  0  0
 41 40  1  0  0  0
 26 39  1  0  0  0
 26 25  1  0  0  0
  1 25  1  0  0  0
  1  2  1  0  0  0
 30 33  2  0  0  0
 30 31  1  0  0  0
 33 34  1  0  0  0
 40 39  1  0  0  0
 40 42  1  0  0  0
 31 32  2  0  0  0
 43 42  1  0  0  0
 34 35  1  0  0  0
 34 38  2  0  0  0
 35 36  1  0  0  0
 32 38  1  0  0  0
 38 37  1  0  0  0
 36 37  2  0  0  0
 13 17  1  0  0  0
  7  8  1  0  0  0
  2  3  1  0  0  0
M  END
> <minimizedAffinity>
-9.23164

$$$$
4DJR_0KJ_A_101


 43 46  0  0  0  0  0  0  0  0999 V2000
   18.8536   31.0764   15.3952 C   0  0  0  0  0  0  0  0  0  0  0  0
   18.5559   30.8844   16.7814 O   0  0  0  0  0  0  0  0  0  0  0  0
   18.1027   31.6696   17.1265 H   0  0  0  0  0  0  0  0  0  0  0  0
   17.5573   31.2253   14.5955 C   0  0  0  0  0  0  0  0  0  0  0  0
   16.0571   32.8871   15.6612 C   0  0  0  0  0  0  0  0  0  0  0  0
   15.5277   32.1347   16.4627 O   0  0  0  0  0  0  0  0  0  0  0  0
   17.0119   32.5580   14.7970 N   0  0  0  0  0  0  0  0  0  0  0  0
   17.3834   33.2821   14.2431 H   0  0  0  0  0  0  0  0  0  0  0  0
   15.5968   34.2632   15.5974 O   0  0  0  0  0  0  0  0  0  0  0  0
   15.0772   34.8941   16.7689 C   0  0  0  0  0  0  0  0  0  0  0  0
   17.1768   38.6982   16.3335 O   0  0  0  0  0  0  0  0  0  0  0  0
   16.7468   37.7415   16.9344 C   0  0  0  0  0  0  0  0  0  0  0  0
   16.8954   36.4770   16.5808 N   0  0  0  0  0  0  0  0  0  0  0  0
   16.2593   35.5414   17.4691 C   0  0  0  0  0  0  0  0  0  0  0  0
   15.8422   36.3997   18.6639 C   0  0  0  0  0  0  0  0  0  0  0  0
   15.9781   37.8497   18.2271 C   0  0  0  0  0  0  0  0  0  0  0  0
   17.3970   36.1998   15.7803 H   0  0  0  0  0  0  0  0  0  0  0  0
   17.7134   30.9899   13.0900 C   0  0  0  0  0  0  0  0  0  0  0  0
   17.7482   29.5045   12.7625 C   0  0  0  0  0  0  0  0  0  0  0  0
   17.8294   29.0961   11.4369 C   0  0  0  0  0  0  0  0  0  0  0  0
   17.8670   27.7390   11.1221 C   0  0  0  0  0  0  0  0  0  0  0  0
   17.8305   26.7854   12.1323 C   0  0  0  0  0  0  0  0  0  0  0  0
   17.7519   27.1920   13.4591 C   0  0  0  0  0  0  0  0  0  0  0  0
   17.7187   28.5490   13.7682 C   0  0  0  0  0  0  0  0  0  0  0  0
   19.7963   32.2818   15.2672 C   0  0  0  0  0  0  0  0  0  0  0  0
   21.0039   31.8674   14.5048 N   0  0  0  0  0  0  0  0  0  0  0  0
   22.3346   32.7611   14.7957 S   0  0  0  0  0  0  0  0  0  0  0  0
   22.6878   33.4018   13.5661 O   0  0  0  0  0  0  0  0  0  0  0  0
   23.3261   31.8365   15.2934 O   0  0  0  0  0  0  0  0  0  0  0  0
   22.0550   33.8834   15.9647 C   0  0  0  0  0  0  0  0  0  0  0  0
   22.1672   33.4835   17.2979 C   0  0  0  0  0  0  0  0  0  0  0  0
   22.0045   34.3901   18.3442 C   0  0  0  0  0  0  0  0  0  0  0  0
   21.7482   35.2315   15.7224 C   0  0  0  0  0  0  0  0  0  0  0  0
   21.5730   36.1478   16.7731 C   0  0  0  0  0  0  0  0  0  0  0  0
   21.1974   37.8086   16.5924 S   0  0  0  0  0  0  0  0  0  0  0  0
   21.2312   37.8914   18.3271 C   0  0  0  0  0  0  0  0  0  0  0  0
   21.5079   36.7384   18.9566 N   0  0  0  0  0  0  0  0  0  0  0  0
   21.7090   35.7149   18.0938 C   0  0  0  0  0  0  0  0  0  0  0  0
   21.2380   30.4069   14.5841 C   0  0  0  0  0  0  0  0  0  0  0  0
   21.1729   29.7414   13.1980 C   0  0  0  0  0  0  0  0  0  0  0  0
   21.1766   30.7256   12.0277 C   0  0  0  0  0  0  0  0  0  0  0  0
   22.3425   28.7594   13.0626 C   0  0  0  0  0  0  0  0  0  0  0  0
   22.0484   27.5811   12.1473 C   0  0  0  0  0  0  0  0  0  0  0  0
 15 14  1  0  0  0
 15 16  1  0  0  0
 14 13  1  0  0  0
 14 10  1  0  0  0
 22 23  2  0  0  0
 22 21  1  0  0  0
 23 24  1  0  0  0
 13 12  1  0  0  0
 16 12  1  0  0  0
 10  9  1  0  0  0
 21 20  2  0  0  0
 12 11  2  0  0  0
 24 19  2  0  0  0
  6  5  2  0  0  0
  9  5  1  0  0  0
 20 19  1  0  0  0
  5  7  1  0  0  0
 19 18  1  0  0  0
  7  4  1  0  0  0
 29 27  2  0  0  0
 18  4  1  0  0  0
  4  1  1  0  0  0
 28 27  2  0  0  0
 27 26  1  0  0  0
 27 30  1  0  0  0
 41 40  1  0  0  0
 26 39  1  0  0  0
 26 25  1  0  0  0
  1 25  1  0  0  0
  1  2  1  0  0  0
 30 33  2  0  0  0
 30 31  1  0  0  0
 33 34  1  0  0  0
 40 39  1  0  0  0
 40 42  1  0  0  0
 31 32  2  0  0  0
 43 42  1  0  0  0
 34 35  1  0  0  0
 34 38  2  0  0  0
 35 36  1  0  0  0
 32 38  1  0  0  0
 38 37  1  0  0  0
 36 37  2  0  0  0
 13 17  1  0  0  0
  7  8  1  0  0  0
  2  3  1  0  0  0
M  END
> <minimizedAffinity>
-9.16894

$$$$
4DJR_0KJ_A_101


 43 46  0  0  0  0  0  0  0  0999 V2000
   20.1000   29.2790   15.0767 C   0  0  0  0  0  0  0  0  0  0  0  0
   20.1992   28.1834   15.9915 O   0  0  0  0  0  0  0  0  0  0  0  0
   19.3291   27.7668   16.0926 H   0  0  0  0  0  0  0  0  0  0  0  0
   19.6898   28.7715   13.6923 C   0  0  0  0  0  0  0  0  0  0  0  0
   21.6075   28.2773   12.2003 C   0  0  0  0  0  0  0  0  0  0  0  0
   21.6880   29.3748   11.6734 O   0  0  0  0  0  0  0  0  0  0  0  0
   20.7449   27.9306   13.1503 N   0  0  0  0  0  0  0  0  0  0  0  0
   20.8279   27.0221   13.5204 H   0  0  0  0  0  0  0  0  0  0  0  0
   22.4968   27.2242   11.7422 O   0  0  0  0  0  0  0  0  0  0  0  0
   23.9094   27.4364   11.7427 C   0  0  0  0  0  0  0  0  0  0  0  0
   22.9604   23.9941    9.2289 O   0  0  0  0  0  0  0  0  0  0  0  0
   23.6880   24.7584    9.8186 C   0  0  0  0  0  0  0  0  0  0  0  0
   23.5505   25.1399   11.0763 N   0  0  0  0  0  0  0  0  0  0  0  0
   24.5486   26.0773   11.5168 C   0  0  0  0  0  0  0  0  0  0  0  0
   25.5689   26.0849   10.3778 C   0  0  0  0  0  0  0  0  0  0  0  0
   24.9100   25.3873    9.1983 C   0  0  0  0  0  0  0  0  0  0  0  0
   22.8289   24.8116   11.6601 H   0  0  0  0  0  0  0  0  0  0  0  0
   18.3808   27.9762   13.6735 C   0  0  0  0  0  0  0  0  0  0  0  0
   17.9732   27.6143   12.2530 C   0  0  0  0  0  0  0  0  0  0  0  0
   17.9558   26.2807   11.8632 C   0  0  0  0  0  0  0  0  0  0  0  0
   17.5799   25.9338   10.5669 C   0  0  0  0  0  0  0  0  0  0  0  0
   17.2136   26.9188    9.6576 C   0  0  0  0  0  0  0  0  0  0  0  0
   17.2279   28.2531   10.0465 C   0  0  0  0  0  0  0  0  0  0  0  0
   17.6002   28.5938   11.3439 C   0  0  0  0  0  0  0  0  0  0  0  0
   19.1279   30.3118   15.6652 C   0  0  0  0  0  0  0  0  0  0  0  0
   19.4113   31.6385   15.0565 N   0  0  0  0  0  0  0  0  0  0  0  0
   18.1151   32.3830   14.4087 S   0  0  0  0  0  0  0  0  0  0  0  0
   17.2895   31.3656   13.8338 O   0  0  0  0  0  0  0  0  0  0  0  0
   18.6436   33.3317   13.4566 O   0  0  0  0  0  0  0  0  0  0  0  0
   17.2776   33.2213   15.5490 C   0  0  0  0  0  0  0  0  0  0  0  0
   16.1522   32.6165   16.1128 C   0  0  0  0  0  0  0  0  0  0  0  0
   15.4255   33.2375   17.1273 C   0  0  0  0  0  0  0  0  0  0  0  0
   17.6328   34.4911   16.0301 C   0  0  0  0  0  0  0  0  0  0  0  0
   16.8982   35.1266   17.0455 C   0  0  0  0  0  0  0  0  0  0  0  0
   17.2407   36.6695   17.7043 S   0  0  0  0  0  0  0  0  0  0  0  0
   15.8600   36.4169   18.7274 C   0  0  0  0  0  0  0  0  0  0  0  0
   15.2185   35.2500   18.5568 N   0  0  0  0  0  0  0  0  0  0  0  0
   15.7877   34.4838   17.5968 C   0  0  0  0  0  0  0  0  0  0  0  0
   20.2081   32.5047   15.9559 C   0  0  0  0  0  0  0  0  0  0  0  0
   21.2339   33.3472   15.1774 C   0  0  0  0  0  0  0  0  0  0  0  0
   22.0997   34.2518   16.0552 C   0  0  0  0  0  0  0  0  0  0  0  0
   22.1225   32.4100   14.3512 C   0  0  0  0  0  0  0  0  0  0  0  0
   23.6110   32.6698   14.5232 C   0  0  0  0  0  0  0  0  0  0  0  0
 15 14  1  0  0  0
 15 16  1  0  0  0
 14 13  1  0  0  0
 14 10  1  0  0  0
 22 23  2  0  0  0
 22 21  1  0  0  0
 23 24  1  0  0  0
 13 12  1  0  0  0
 16 12  1  0  0  0
 10  9  1  0  0  0
 21 20  2  0  0  0
 12 11  2  0  0  0
 24 19  2  0  0  0
  6  5  2  0  0  0
  9  5  1  0  0  0
 20 19  1  0  0  0
  5  7  1  0  0  0
 19 18  1  0  0  0
  7  4  1  0  0  0
 29 27  2  0  0  0
 18  4  1  0  0  0
  4  1  1  0  0  0
 28 27  2  0  0  0
 27 26  1  0  0  0
 27 30  1  0  0  0
 41 40  1  0  0  0
 26 39  1  0  0  0
 26 25  1  0  0  0
  1 25  1  0  0  0
  1  2  1  0  0  0
 30 33  2  0  0  0
 30 31  1  0  0  0
 33 34  1  0  0  0
 40 39  1  0  0  0
 40 42  1  0  0  0
 31 32  2  0  0  0
 43 42  1  0  0  0
 34 35  1  0  0  0
 34 38  2  0  0  0
 35 36  1  0  0  0
 32 38  1  0  0  0
 38 37  1  0  0  0
 36 37  2  0  0  0
 13 17  1  0  0  0
  7  8  1  0  0  0
  2  3  1  0  0  0
M  END
> <minimizedAffinity>
-9.09781

$$$$
4DJR_0KJ_A_101


 43 46  0  0  0  0  0  0  0  0999 V2000
   20.9903   28.8267   14.2164 C   0  0  0  0  0  0  0  0  0  0  0  0
   21.2455   27.8726   15.2515 O   0  0  0  0  0  0  0  0  0  0  0  0
   20.5647   27.1820   15.2297 H   0  0  0  0  0  0  0  0  0  0  0  0
   21.0883   28.1531   12.8457 C   0  0  0  0  0  0  0  0  0  0  0  0
   19.0310   27.5728   11.5891 C   0  0  0  0  0  0  0  0  0  0  0  0
   19.0633   26.3675   11.7761 O   0  0  0  0  0  0  0  0  0  0  0  0
   19.8988   28.4589   12.0674 N   0  0  0  0  0  0  0  0  0  0  0  0
   19.7199   29.4081   11.8774 H   0  0  0  0  0  0  0  0  0  0  0  0
   17.9828   28.1124   10.7409 O   0  0  0  0  0  0  0  0  0  0  0  0
   17.5035   27.3509    9.6315 C   0  0  0  0  0  0  0  0  0  0  0  0
   19.6567   24.2899    7.3813 O   0  0  0  0  0  0  0  0  0  0  0  0
   19.1574   25.3761    7.5608 C   0  0  0  0  0  0  0  0  0  0  0  0
   19.3388   26.1434    8.6212 N   0  0  0  0  0  0  0  0  0  0  0  0
   18.6026   27.3786    8.5837 C   0  0  0  0  0  0  0  0  0  0  0  0
   18.0581   27.4346    7.1559 C   0  0  0  0  0  0  0  0  0  0  0  0
   18.2490   26.0479    6.5622 C   0  0  0  0  0  0  0  0  0  0  0  0
   19.9258   25.8920    9.3706 H   0  0  0  0  0  0  0  0  0  0  0  0
   22.3181   28.5603   12.0283 C   0  0  0  0  0  0  0  0  0  0  0  0
   23.1165   27.3431   11.5856 C   0  0  0  0  0  0  0  0  0  0  0  0
   24.5050   27.3891   11.6061 C   0  0  0  0  0  0  0  0  0  0  0  0
   25.2495   26.2803   11.2080 C   0  0  0  0  0  0  0  0  0  0  0  0
   24.6080   25.1190   10.7945 C   0  0  0  0  0  0  0  0  0  0  0  0
   23.2190   25.0702   10.7758 C   0  0  0  0  0  0  0  0  0  0  0  0
   22.4802   26.1793   11.1784 C   0  0  0  0  0  0  0  0  0  0  0  0
   19.6252   29.4763   14.4856 C   0  0  0  0  0  0  0  0  0  0  0  0
   19.7701   30.9533   14.3926 N   0  0  0  0  0  0  0  0  0  0  0  0
   18.5699   31.7076   13.5898 S   0  0  0  0  0  0  0  0  0  0  0  0
   17.9212   30.7221   12.7803 O   0  0  0  0  0  0  0  0  0  0  0  0
   19.2044   32.7693   12.8441 O   0  0  0  0  0  0  0  0  0  0  0  0
   17.4944   32.3903   14.6297 C   0  0  0  0  0  0  0  0  0  0  0  0
   16.5564   31.5575   15.2434 C   0  0  0  0  0  0  0  0  0  0  0  0
   15.6512   32.0506   16.1818 C   0  0  0  0  0  0  0  0  0  0  0  0
   17.4723   33.7495   14.9796 C   0  0  0  0  0  0  0  0  0  0  0  0
   16.5555   34.2543   15.9172 C   0  0  0  0  0  0  0  0  0  0  0  0
   16.4404   35.8885   16.4155 S   0  0  0  0  0  0  0  0  0  0  0  0
   15.1440   35.3671   17.4473 C   0  0  0  0  0  0  0  0  0  0  0  0
   14.8514   34.0579   17.3930 N   0  0  0  0  0  0  0  0  0  0  0  0
   15.6427   33.3880   16.5226 C   0  0  0  0  0  0  0  0  0  0  0  0
   20.0861   31.5651   15.7041 C   0  0  0  0  0  0  0  0  0  0  0  0
   21.2881   32.5218   15.6140 C   0  0  0  0  0  0  0  0  0  0  0  0
   22.1051   32.6272   16.9023 C   0  0  0  0  0  0  0  0  0  0  0  0
   22.1892   32.0801   14.4549 C   0  0  0  0  0  0  0  0  0  0  0  0
   23.6053   32.6283   14.5385 C   0  0  0  0  0  0  0  0  0  0  0  0
 15 14  1  0  0  0
 15 16  1  0  0  0
 14 13  1  0  0  0
 14 10  1  0  0  0
 22 23  2  0  0  0
 22 21  1  0  0  0
 23 24  1  0  0  0
 13 12  1  0  0  0
 16 12  1  0  0  0
 10  9  1  0  0  0
 21 20  2  0  0  0
 12 11  2  0  0  0
 24 19  2  0  0  0
  6  5  2  0  0  0
  9  5  1  0  0  0
 20 19  1  0  0  0
  5  7  1  0  0  0
 19 18  1  0  0  0
  7  4  1  0  0  0
 29 27  2  0  0  0
 18  4  1  0  0  0
  4  1  1  0  0  0
 28 27  2  0  0  0
 27 26  1  0  0  0
 27 30  1  0  0  0
 41 40  1  0  0  0
 26 39  1  0  0  0
 26 25  1  0  0  0
  1 25  1  0  0  0
  1  2  1  0  0  0
 30 33  2  0  0  0
 30 31  1  0  0  0
 33 34  1  0  0  0
 40 39  1  0  0  0
 40 42  1  0  0  0
 31 32  2  0  0  0
 43 42  1  0  0  0
 34 35  1  0  0  0
 34 38  2  0  0  0
 35 36  1  0  0  0
 32 38  1  0  0  0
 38 37  1  0  0  0
 36 37  2  0  0  0
 13 17  1  0  0  0
  7  8  1  0  0  0
  2  3  1  0  0  0
M  END
> <minimizedAffinity>
-9.05875

$$$$
4DJR_0KJ_A_101


 43 46  0  0  0  0  0  0  0  0999 V2000
   21.1546   30.2551   14.3583 C   0  0  0  0  0  0  0  0  0  0  0  0
   22.5409   30.1587   14.6984 O   0  0  0  0  0  0  0  0  0  0  0  0
   23.0224   30.9047   14.3077 H   0  0  0  0  0  0  0  0  0  0  0  0
   20.5547   31.5298   14.9563 C   0  0  0  0  0  0  0  0  0  0  0  0
   18.2222   32.0966   14.3352 C   0  0  0  0  0  0  0  0  0  0  0  0
   18.4812   32.9213   13.4741 O   0  0  0  0  0  0  0  0  0  0  0  0
   19.1090   31.3964   15.0351 N   0  0  0  0  0  0  0  0  0  0  0  0
   18.7549   30.7267   15.6639 H   0  0  0  0  0  0  0  0  0  0  0  0
   16.8287   31.8655   14.6733 O   0  0  0  0  0  0  0  0  0  0  0  0
   16.4029   31.9557   16.0339 C   0  0  0  0  0  0  0  0  0  0  0  0
   15.3705   35.1237   18.8565 O   0  0  0  0  0  0  0  0  0  0  0  0
   15.4702   34.6112   17.7662 C   0  0  0  0  0  0  0  0  0  0  0  0
   15.0669   33.3945   17.4452 N   0  0  0  0  0  0  0  0  0  0  0  0
   15.3312   33.0309   16.0788 C   0  0  0  0  0  0  0  0  0  0  0  0
   15.7807   34.3423   15.4336 C   0  0  0  0  0  0  0  0  0  0  0  0
   16.0617   35.3129   16.5698 C   0  0  0  0  0  0  0  0  0  0  0  0
   14.6248   32.7903   18.0846 H   0  0  0  0  0  0  0  0  0  0  0  0
   21.0838   31.8834   16.3497 C   0  0  0  0  0  0  0  0  0  0  0  0
   21.2595   33.3861   16.5102 C   0  0  0  0  0  0  0  0  0  0  0  0
   20.1870   34.1605   16.9350 C   0  0  0  0  0  0  0  0  0  0  0  0
   20.3344   35.5375   17.0913 C   0  0  0  0  0  0  0  0  0  0  0  0
   21.5572   36.1441   16.8299 C   0  0  0  0  0  0  0  0  0  0  0  0
   22.6320   35.3706   16.4074 C   0  0  0  0  0  0  0  0  0  0  0  0
   22.4803   33.9950   16.2569 C   0  0  0  0  0  0  0  0  0  0  0  0
   21.0265   30.1741   12.8302 C   0  0  0  0  0  0  0  0  0  0  0  0
   20.4853   28.8383   12.4644 N   0  0  0  0  0  0  0  0  0  0  0  0
   18.8717   28.7925   12.2447 S   0  0  0  0  0  0  0  0  0  0  0  0
   18.4999   30.0160   11.6029 O   0  0  0  0  0  0  0  0  0  0  0  0
   18.3024   28.6110   13.5595 O   0  0  0  0  0  0  0  0  0  0  0  0
   18.4325   27.5059   11.3194 C   0  0  0  0  0  0  0  0  0  0  0  0
   18.1053   27.7410    9.9823 C   0  0  0  0  0  0  0  0  0  0  0  0
   17.7815   26.6954    9.1191 C   0  0  0  0  0  0  0  0  0  0  0  0
   18.3988   26.1750   11.7641 C   0  0  0  0  0  0  0  0  0  0  0  0
   18.0633   25.1179   10.9013 C   0  0  0  0  0  0  0  0  0  0  0  0
   17.9908   23.4635   11.3366 S   0  0  0  0  0  0  0  0  0  0  0  0
   17.5430   23.1627    9.6855 C   0  0  0  0  0  0  0  0  0  0  0  0
   17.4658   24.2484    8.8994 N   0  0  0  0  0  0  0  0  0  0  0  0
   17.7576   25.3898    9.5661 C   0  0  0  0  0  0  0  0  0  0  0  0
   21.2542   28.2080   11.3664 C   0  0  0  0  0  0  0  0  0  0  0  0
   22.2000   27.1112   11.8870 C   0  0  0  0  0  0  0  0  0  0  0  0
   22.0347   25.7582   11.1939 C   0  0  0  0  0  0  0  0  0  0  0  0
   23.6476   27.5977   11.7516 C   0  0  0  0  0  0  0  0  0  0  0  0
   24.6364   26.4900   11.4232 C   0  0  0  0  0  0  0  0  0  0  0  0
 15 14  1  0  0  0
 15 16  1  0  0  0
 14 13  1  0  0  0
 14 10  1  0  0  0
 22 23  2  0  0  0
 22 21  1  0  0  0
 23 24  1  0  0  0
 13 12  1  0  0  0
 16 12  1  0  0  0
 10  9  1  0  0  0
 21 20  2  0  0  0
 12 11  2  0  0  0
 24 19  2  0  0  0
  6  5  2  0  0  0
  9  5  1  0  0  0
 20 19  1  0  0  0
  5  7  1  0  0  0
 19 18  1  0  0  0
  7  4  1  0  0  0
 29 27  2  0  0  0
 18  4  1  0  0  0
  4  1  1  0  0  0
 28 27  2  0  0  0
 27 26  1  0  0  0
 27 30  1  0  0  0
 41 40  1  0  0  0
 26 39  1  0  0  0
 26 25  1  0  0  0
  1 25  1  0  0  0
  1  2  1  0  0  0
 30 33  2  0  0  0
 30 31  1  0  0  0
 33 34  1  0  0  0
 40 39  1  0  0  0
 40 42  1  0  0  0
 31 32  2  0  0  0
 43 42  1  0  0  0
 34 35  1  0  0  0
 34 38  2  0  0  0
 35 36  1  0  0  0
 32 38  1  0  0  0
 38 37  1  0  0  0
 36 37  2  0  0  0
 13 17  1  0  0  0
  7  8  1  0  0  0
  2  3  1  0  0  0
M  END
> <minimizedAffinity>
-8.95411

$$$$
4DJR_0KJ_A_101


 43 46  0  0  0  0  0  0  0  0999 V2000
   18.9729   29.2781   14.2785 C   0  0  0  0  0  0  0  0  0  0  0  0
   19.6178   28.2745   15.0683 O   0  0  0  0  0  0  0  0  0  0  0  0
   20.5699   28.4559   15.1071 H   0  0  0  0  0  0  0  0  0  0  0  0
   19.1346   30.6496   14.9381 C   0  0  0  0  0  0  0  0  0  0  0  0
   17.2564   32.2579   15.1207 C   0  0  0  0  0  0  0  0  0  0  0  0
   17.6766   33.0860   14.3293 O   0  0  0  0  0  0  0  0  0  0  0  0
   17.8455   31.1074   15.4307 N   0  0  0  0  0  0  0  0  0  0  0  0
   17.3655   30.5113   16.0499 H   0  0  0  0  0  0  0  0  0  0  0  0
   16.0224   32.5451   15.8310 O   0  0  0  0  0  0  0  0  0  0  0  0
   15.5260   33.8836   15.8811 C   0  0  0  0  0  0  0  0  0  0  0  0
   16.9622   37.9681   16.4494 O   0  0  0  0  0  0  0  0  0  0  0  0
   16.5441   36.8900   16.8018 C   0  0  0  0  0  0  0  0  0  0  0  0
   17.0108   35.7164   16.4132 N   0  0  0  0  0  0  0  0  0  0  0  0
   16.3090   34.5922   16.9726 C   0  0  0  0  0  0  0  0  0  0  0  0
   15.4070   35.2189   18.0365 C   0  0  0  0  0  0  0  0  0  0  0  0
   15.4138   36.7184   17.7850 C   0  0  0  0  0  0  0  0  0  0  0  0
   17.7713   35.6199   15.7956 H   0  0  0  0  0  0  0  0  0  0  0  0
   20.1332   30.6781   16.0994 C   0  0  0  0  0  0  0  0  0  0  0  0
   21.3225   31.5733   15.7850 C   0  0  0  0  0  0  0  0  0  0  0  0
   22.1083   31.3039   14.6712 C   0  0  0  0  0  0  0  0  0  0  0  0
   23.1980   32.1180   14.3680 C   0  0  0  0  0  0  0  0  0  0  0  0
   23.5018   33.2087   15.1739 C   0  0  0  0  0  0  0  0  0  0  0  0
   22.7154   33.4813   16.2870 C   0  0  0  0  0  0  0  0  0  0  0  0
   21.6255   32.6672   16.5829 C   0  0  0  0  0  0  0  0  0  0  0  0
   19.5428   29.2104   12.8542 C   0  0  0  0  0  0  0  0  0  0  0  0
   19.4185   27.8157   12.3537 N   0  0  0  0  0  0  0  0  0  0  0  0
   17.9012   27.3589   11.9755 S   0  0  0  0  0  0  0  0  0  0  0  0
   17.2839   28.4632   11.3072 O   0  0  0  0  0  0  0  0  0  0  0  0
   17.2786   26.9945   13.2267 O   0  0  0  0  0  0  0  0  0  0  0  0
   17.9029   26.0321   11.0040 C   0  0  0  0  0  0  0  0  0  0  0  0
   18.2123   24.7981   11.5799 C   0  0  0  0  0  0  0  0  0  0  0  0
   18.1761   23.6198   10.8358 C   0  0  0  0  0  0  0  0  0  0  0  0
   17.5767   26.0397    9.6388 C   0  0  0  0  0  0  0  0  0  0  0  0
   17.5483   24.8567    8.8812 C   0  0  0  0  0  0  0  0  0  0  0  0
   17.1660   24.7511    7.2155 S   0  0  0  0  0  0  0  0  0  0  0  0
   17.4203   23.0406    7.3788 C   0  0  0  0  0  0  0  0  0  0  0  0
   17.7640   22.6208    8.6068 N   0  0  0  0  0  0  0  0  0  0  0  0
   17.8479   23.6387    9.4953 C   0  0  0  0  0  0  0  0  0  0  0  0
   20.4125   27.5127   11.2980 C   0  0  0  0  0  0  0  0  0  0  0  0
   21.6565   26.8093   11.8689 C   0  0  0  0  0  0  0  0  0  0  0  0
   21.9802   25.4696   11.2064 C   0  0  0  0  0  0  0  0  0  0  0  0
   22.8579   27.7551   11.7564 C   0  0  0  0  0  0  0  0  0  0  0  0
   23.6489   27.5879   10.4684 C   0  0  0  0  0  0  0  0  0  0  0  0
 15 14  1  0  0  0
 15 16  1  0  0  0
 14 13  1  0  0  0
 14 10  1  0  0  0
 22 23  2  0  0  0
 22 21  1  0  0  0
 23 24  1  0  0  0
 13 12  1  0  0  0
 16 12  1  0  0  0
 10  9  1  0  0  0
 21 20  2  0  0  0
 12 11  2  0  0  0
 24 19  2  0  0  0
  6  5  2  0  0  0
  9  5  1  0  0  0
 20 19  1  0  0  0
  5  7  1  0  0  0
 19 18  1  0  0  0
  7  4  1  0  0  0
 29 27  2  0  0  0
 18  4  1  0  0  0
  4  1  1  0  0  0
 28 27  2  0  0  0
 27 26  1  0  0  0
 27 30  1  0  0  0
 41 40  1  0  0  0
 26 39  1  0  0  0
 26 25  1  0  0  0
  1 25  1  0  0  0
  1  2  1  0  0  0
 30 33  2  0  0  0
 30 31  1  0  0  0
 33 34  1  0  0  0
 40 39  1  0  0  0
 40 42  1  0  0  0
 31 32  2  0  0  0
 43 42  1  0  0  0
 34 35  1  0  0  0
 34 38  2  0  0  0
 35 36  1  0  0  0
 32 38  1  0  0  0
 38 37  1  0  0  0
 36 37  2  0  0  0
 13 17  1  0  0  0
  7  8  1  0  0  0
  2  3  1  0  0  0
M  END
> <minimizedAffinity>
-8.95018

$$$$
4DJR_0KJ_A_101


 43 46  0  0  0  0  0  0  0  0999 V2000
   20.6486   30.7107   13.1911 C   0  0  0  0  0  0  0  0  0  0  0  0
   21.7510   31.5562   12.8493 O   0  0  0  0  0  0  0  0  0  0  0  0
   21.4240   32.3404   12.3813 H   0  0  0  0  0  0  0  0  0  0  0  0
   19.7072   31.4388   14.1534 C   0  0  0  0  0  0  0  0  0  0  0  0
   20.8246   31.7505   16.3448 C   0  0  0  0  0  0  0  0  0  0  0  0
   20.5807   30.6483   16.8077 O   0  0  0  0  0  0  0  0  0  0  0  0
   20.4884   32.1780   15.1319 N   0  0  0  0  0  0  0  0  0  0  0  0
   20.7962   33.0765   14.8726 H   0  0  0  0  0  0  0  0  0  0  0  0
   21.5103   32.7164   17.1854 O   0  0  0  0  0  0  0  0  0  0  0  0
   22.0531   33.9040   16.6063 C   0  0  0  0  0  0  0  0  0  0  0  0
   21.0429   35.0569   20.6952 O   0  0  0  0  0  0  0  0  0  0  0  0
   21.3243   35.2498   19.5355 C   0  0  0  0  0  0  0  0  0  0  0  0
   20.7522   34.6692   18.4954 N   0  0  0  0  0  0  0  0  0  0  0  0
   21.3003   35.0681   17.2267 C   0  0  0  0  0  0  0  0  0  0  0  0
   22.2130   36.2436   17.5779 C   0  0  0  0  0  0  0  0  0  0  0  0
   22.3809   36.2284   19.0890 C   0  0  0  0  0  0  0  0  0  0  0  0
   20.0160   34.0212   18.5811 H   0  0  0  0  0  0  0  0  0  0  0  0
   18.7386   32.4118   13.4741 C   0  0  0  0  0  0  0  0  0  0  0  0
   17.5669   32.7516   14.3832 C   0  0  0  0  0  0  0  0  0  0  0  0
   16.8866   31.7309   15.0358 C   0  0  0  0  0  0  0  0  0  0  0  0
   15.8144   32.0274   15.8753 C   0  0  0  0  0  0  0  0  0  0  0  0
   15.4231   33.3465   16.0707 C   0  0  0  0  0  0  0  0  0  0  0  0
   16.1040   34.3691   15.4207 C   0  0  0  0  0  0  0  0  0  0  0  0
   17.1769   34.0676   14.5864 C   0  0  0  0  0  0  0  0  0  0  0  0
   19.9680   30.2571   11.8915 C   0  0  0  0  0  0  0  0  0  0  0  0
   19.7196   28.7929   11.9660 N   0  0  0  0  0  0  0  0  0  0  0  0
   18.1547   28.3587   11.8367 S   0  0  0  0  0  0  0  0  0  0  0  0
   17.5052   29.3580   11.0450 O   0  0  0  0  0  0  0  0  0  0  0  0
   17.6633   28.2573   13.1909 O   0  0  0  0  0  0  0  0  0  0  0  0
   18.0025   26.8819   11.1295 C   0  0  0  0  0  0  0  0  0  0  0  0
   18.0574   25.7532   11.9498 C   0  0  0  0  0  0  0  0  0  0  0  0
   17.8765   24.4708   11.4339 C   0  0  0  0  0  0  0  0  0  0  0  0
   17.7811   26.6698    9.7597 C   0  0  0  0  0  0  0  0  0  0  0  0
   17.6082   25.3790    9.2322 C   0  0  0  0  0  0  0  0  0  0  0  0
   17.3342   25.0066    7.5836 S   0  0  0  0  0  0  0  0  0  0  0  0
   17.2841   23.3434    8.0820 C   0  0  0  0  0  0  0  0  0  0  0  0
   17.4631   23.1266    9.3948 N   0  0  0  0  0  0  0  0  0  0  0  0
   17.6534   24.2748   10.0861 C   0  0  0  0  0  0  0  0  0  0  0  0
   20.6253   28.0289   11.0770 C   0  0  0  0  0  0  0  0  0  0  0  0
   21.5975   27.1431   11.8760 C   0  0  0  0  0  0  0  0  0  0  0  0
   21.7160   25.7107   11.3539 C   0  0  0  0  0  0  0  0  0  0  0  0
   22.9773   27.8113   11.8954 C   0  0  0  0  0  0  0  0  0  0  0  0
   23.8077   27.5349   10.6517 C   0  0  0  0  0  0  0  0  0  0  0  0
 15 14  1  0  0  0
 15 16  1  0  0  0
 14 13  1  0  0  0
 14 10  1  0  0  0
 22 23  2  0  0  0
 22 21  1  0  0  0
 23 24  1  0  0  0
 13 12  1  0  0  0
 16 12  1  0  0  0
 10  9  1  0  0  0
 21 20  2  0  0  0
 12 11  2  0  0  0
 24 19  2  0  0  0
  6  5  2  0  0  0
  9  5  1  0  0  0
 20 19  1  0  0  0
  5  7  1  0  0  0
 19 18  1  0  0  0
  7  4  1  0  0  0
 29 27  2  0  0  0
 18  4  1  0  0  0
  4  1  1  0  0  0
 28 27  2  0  0  0
 27 26  1  0  0  0
 27 30  1  0  0  0
 41 40  1  0  0  0
 26 39  1  0  0  0
 26 25  1  0  0  0
  1 25  1  0  0  0
  1  2  1  0  0  0
 30 33  2  0  0  0
 30 31  1  0  0  0
 33 34  1  0  0  0
 40 39  1  0  0  0
 40 42  1  0  0  0
 31 32  2  0  0  0
 43 42  1  0  0  0
 34 35  1  0  0  0
 34 38  2  0  0  0
 35 36  1  0  0  0
 32 38  1  0  0  0
 38 37  1  0  0  0
 36 37  2  0  0  0
 13 17  1  0  0  0
  7  8  1  0  0  0
  2  3  1  0  0  0
M  END
> <minimizedAffinity>
-8.91608

$$$$
4DJR_0KJ_A_101


 43 46  0  0  0  0  0  0  0  0999 V2000
   18.9768   31.1680   15.4897 C   0  0  0  0  0  0  0  0  0  0  0  0
   18.4446   30.5255   16.6520 O   0  0  0  0  0  0  0  0  0  0  0  0
   18.1062   31.1961   17.2657 H   0  0  0  0  0  0  0  0  0  0  0  0
   17.8676   31.9219   14.7524 C   0  0  0  0  0  0  0  0  0  0  0  0
   17.7652   30.1248   13.0470 C   0  0  0  0  0  0  0  0  0  0  0  0
   17.8285   29.1752   13.8105 O   0  0  0  0  0  0  0  0  0  0  0  0
   17.7467   31.4067   13.3981 N   0  0  0  0  0  0  0  0  0  0  0  0
   17.6415   32.0672   12.6756 H   0  0  0  0  0  0  0  0  0  0  0  0
   17.7447   29.8626   11.6186 O   0  0  0  0  0  0  0  0  0  0  0  0
   17.0773   28.7030   11.1182 C   0  0  0  0  0  0  0  0  0  0  0  0
   17.8708   24.4466   11.6859 O   0  0  0  0  0  0  0  0  0  0  0  0
   17.8785   25.4968   11.0873 C   0  0  0  0  0  0  0  0  0  0  0  0
   18.2852   26.6576   11.5702 N   0  0  0  0  0  0  0  0  0  0  0  0
   18.1631   27.7523   10.6451 C   0  0  0  0  0  0  0  0  0  0  0  0
   17.8182   27.0722    9.3197 C   0  0  0  0  0  0  0  0  0  0  0  0
   17.4381   25.6380    9.6522 C   0  0  0  0  0  0  0  0  0  0  0  0
   18.6403   26.7639   12.4823 H   0  0  0  0  0  0  0  0  0  0  0  0
   16.4937   31.8401   15.4246 C   0  0  0  0  0  0  0  0  0  0  0  0
   16.0624   33.1936   15.9695 C   0  0  0  0  0  0  0  0  0  0  0  0
   15.2281   33.2520   17.0791 C   0  0  0  0  0  0  0  0  0  0  0  0
   14.8288   34.4847   17.5922 C   0  0  0  0  0  0  0  0  0  0  0  0
   15.2679   35.6635   17.0017 C   0  0  0  0  0  0  0  0  0  0  0  0
   16.1046   35.6071   15.8932 C   0  0  0  0  0  0  0  0  0  0  0  0
   16.5038   34.3731   15.3872 C   0  0  0  0  0  0  0  0  0  0  0  0
   20.1437   32.0653   15.9268 C   0  0  0  0  0  0  0  0  0  0  0  0
   21.2365   31.9530   14.9246 N   0  0  0  0  0  0  0  0  0  0  0  0
   22.4193   33.0628   15.0774 S   0  0  0  0  0  0  0  0  0  0  0  0
   22.5663   33.6987   13.8041 O   0  0  0  0  0  0  0  0  0  0  0  0
   23.5854   32.3340   15.5190 O   0  0  0  0  0  0  0  0  0  0  0  0
   22.0484   34.1743   16.2312 C   0  0  0  0  0  0  0  0  0  0  0  0
   22.1924   33.8031   17.5697 C   0  0  0  0  0  0  0  0  0  0  0  0
   21.9556   34.7075   18.6037 C   0  0  0  0  0  0  0  0  0  0  0  0
   21.6323   35.4893   15.9708 C   0  0  0  0  0  0  0  0  0  0  0  0
   21.3823   36.4025   17.0092 C   0  0  0  0  0  0  0  0  0  0  0  0
   20.8721   38.0243   16.8061 S   0  0  0  0  0  0  0  0  0  0  0  0
   20.8982   38.1332   18.5395 C   0  0  0  0  0  0  0  0  0  0  0  0
   21.2682   37.0154   19.1845 N   0  0  0  0  0  0  0  0  0  0  0  0
   21.5527   36.0001   18.3355 C   0  0  0  0  0  0  0  0  0  0  0  0
   21.7354   30.5640   14.7985 C   0  0  0  0  0  0  0  0  0  0  0  0
   21.3380   29.9337   13.4520 C   0  0  0  0  0  0  0  0  0  0  0  0
   21.2232   30.9329   12.3001 C   0  0  0  0  0  0  0  0  0  0  0  0
   22.3500   28.8377   13.0982 C   0  0  0  0  0  0  0  0  0  0  0  0
   21.7605   27.7051   12.2721 C   0  0  0  0  0  0  0  0  0  0  0  0
 15 14  1  0  0  0
 15 16  1  0  0  0
 14 13  1  0  0  0
 14 10  1  0  0  0
 22 23  2  0  0  0
 22 21  1  0  0  0
 23 24  1  0  0  0
 13 12  1  0  0  0
 16 12  1  0  0  0
 10  9  1  0  0  0
 21 20  2  0  0  0
 12 11  2  0  0  0
 24 19  2  0  0  0
  6  5  2  0  0  0
  9  5  1  0  0  0
 20 19  1  0  0  0
  5  7  1  0  0  0
 19 18  1  0  0  0
  7  4  1  0  0  0
 29 27  2  0  0  0
 18  4  1  0  0  0
  4  1  1  0  0  0
 28 27  2  0  0  0
 27 26  1  0  0  0
 27 30  1  0  0  0
 41 40  1  0  0  0
 26 39  1  0  0  0
 26 25  1  0  0  0
  1 25  1  0  0  0
  1  2  1  0  0  0
 30 33  2  0  0  0
 30 31  1  0  0  0
 33 34  1  0  0  0
 40 39  1  0  0  0
 40 42  1  0  0  0
 31 32  2  0  0  0
 43 42  1  0  0  0
 34 35  1  0  0  0
 34 38  2  0  0  0
 35 36  1  0  0  0
 32 38  1  0  0  0
 38 37  1  0  0  0
 36 37  2  0  0  0
 13 17  1  0  0  0
  7  8  1  0  0  0
  2  3  1  0  0  0
M  END
> <minimizedAffinity>
-8.78346

$$$$
4DJR_0KJ_A_101


 43 46  0  0  0  0  0  0  0  0999 V2000
   19.1645   32.2257   15.5590 C   0  0  0  0  0  0  0  0  0  0  0  0
   18.8147   31.5281   16.7582 O   0  0  0  0  0  0  0  0  0  0  0  0
   17.8554   31.3864   16.7816 H   0  0  0  0  0  0  0  0  0  0  0  0
   18.8137   31.3755   14.3358 C   0  0  0  0  0  0  0  0  0  0  0  0
   20.5233   31.1022   12.5608 C   0  0  0  0  0  0  0  0  0  0  0  0
   20.0650   31.9110   11.7706 O   0  0  0  0  0  0  0  0  0  0  0  0
   20.0302   30.8221   13.7630 N   0  0  0  0  0  0  0  0  0  0  0  0
   20.5344   30.1821   14.3157 H   0  0  0  0  0  0  0  0  0  0  0  0
   21.6907   30.3343   12.1644 O   0  0  0  0  0  0  0  0  0  0  0  0
   21.5251   29.0847   11.4925 C   0  0  0  0  0  0  0  0  0  0  0  0
   21.7299   24.7229   11.4473 O   0  0  0  0  0  0  0  0  0  0  0  0
   22.1501   25.8421   11.6263 C   0  0  0  0  0  0  0  0  0  0  0  0
   21.5310   26.8022   12.2905 N   0  0  0  0  0  0  0  0  0  0  0  0
   22.2516   28.0465   12.3297 C   0  0  0  0  0  0  0  0  0  0  0  0
   23.6272   27.6884   11.7659 C   0  0  0  0  0  0  0  0  0  0  0  0
   23.4922   26.3150   11.1276 C   0  0  0  0  0  0  0  0  0  0  0  0
   20.6542   26.6769   12.7205 H   0  0  0  0  0  0  0  0  0  0  0  0
   17.8478   30.2222   14.6242 C   0  0  0  0  0  0  0  0  0  0  0  0
   17.7288   29.2876   13.4295 C   0  0  0  0  0  0  0  0  0  0  0  0
   18.0462   27.9429   13.5764 C   0  0  0  0  0  0  0  0  0  0  0  0
   17.9375   27.0740   12.4923 C   0  0  0  0  0  0  0  0  0  0  0  0
   17.5043   27.5455   11.2588 C   0  0  0  0  0  0  0  0  0  0  0  0
   17.1839   28.8899   11.1106 C   0  0  0  0  0  0  0  0  0  0  0  0
   17.2903   29.7526   12.1980 C   0  0  0  0  0  0  0  0  0  0  0  0
   18.4675   33.5939   15.5765 C   0  0  0  0  0  0  0  0  0  0  0  0
   19.2774   34.5342   16.3956 N   0  0  0  0  0  0  0  0  0  0  0  0
   18.5905   34.9777   17.8047 S   0  0  0  0  0  0  0  0  0  0  0  0
   19.6430   35.0955   18.7668 O   0  0  0  0  0  0  0  0  0  0  0  0
   17.6182   33.9533   18.1059 O   0  0  0  0  0  0  0  0  0  0  0  0
   17.7918   36.4073   17.6544 C   0  0  0  0  0  0  0  0  0  0  0  0
   16.4448   36.4476   18.0209 C   0  0  0  0  0  0  0  0  0  0  0  0
   15.7160   37.6351   17.9791 C   0  0  0  0  0  0  0  0  0  0  0  0
   18.3750   37.6077   17.2197 C   0  0  0  0  0  0  0  0  0  0  0  0
   17.6427   38.8058   17.1657 C   0  0  0  0  0  0  0  0  0  0  0  0
   18.2517   40.3216   16.6526 S   0  0  0  0  0  0  0  0  0  0  0  0
   16.6636   40.9453   16.9781 C   0  0  0  0  0  0  0  0  0  0  0  0
   15.7730   40.0514   17.4366 N   0  0  0  0  0  0  0  0  0  0  0  0
   16.3017   38.8109   17.5556 C   0  0  0  0  0  0  0  0  0  0  0  0
   20.6821   34.0847   16.5331 C   0  0  0  0  0  0  0  0  0  0  0  0
   21.6556   35.0141   15.7868 C   0  0  0  0  0  0  0  0  0  0  0  0
   21.9156   36.3468   16.4902 C   0  0  0  0  0  0  0  0  0  0  0  0
   22.9780   34.2717   15.5620 C   0  0  0  0  0  0  0  0  0  0  0  0
   22.8947   33.1809   14.5057 C   0  0  0  0  0  0  0  0  0  0  0  0
 15 14  1  0  0  0
 15 16  1  0  0  0
 14 13  1  0  0  0
 14 10  1  0  0  0
 22 23  2  0  0  0
 22 21  1  0  0  0
 23 24  1  0  0  0
 13 12  1  0  0  0
 16 12  1  0  0  0
 10  9  1  0  0  0
 21 20  2  0  0  0
 12 11  2  0  0  0
 24 19  2  0  0  0
  6  5  2  0  0  0
  9  5  1  0  0  0
 20 19  1  0  0  0
  5  7  1  0  0  0
 19 18  1  0  0  0
  7  4  1  0  0  0
 29 27  2  0  0  0
 18  4  1  0  0  0
  4  1  1  0  0  0
 28 27  2  0  0  0
 27 26  1  0  0  0
 27 30  1  0  0  0
 41 40  1  0  0  0
 26 39  1  0  0  0
 26 25  1  0  0  0
  1 25  1  0  0  0
  1  2  1  0  0  0
 30 33  2  0  0  0
 30 31  1  0  0  0
 33 34  1  0  0  0
 40 39  1  0  0  0
 40 42  1  0  0  0
 31 32  2  0  0  0
 43 42  1  0  0  0
 34 35  1  0  0  0
 34 38  2  0  0  0
 35 36  1  0  0  0
 32 38  1  0  0  0
 38 37  1  0  0  0
 36 37  2  0  0  0
 13 17  1  0  0  0
  7  8  1  0  0  0
  2  3  1  0  0  0
M  END
> <minimizedAffinity>
-8.77893

$$$$
4DJR_0KJ_A_101


 43 46  0  0  0  0  0  0  0  0999 V2000
   18.5818   30.6157   14.8178 C   0  0  0  0  0  0  0  0  0  0  0  0
   17.3759   30.3199   15.5285 O   0  0  0  0  0  0  0  0  0  0  0  0
   16.6118   30.5877   14.9943 H   0  0  0  0  0  0  0  0  0  0  0  0
   18.6411   29.8019   13.5230 C   0  0  0  0  0  0  0  0  0  0  0  0
   20.7066   30.3370   12.2599 C   0  0  0  0  0  0  0  0  0  0  0  0
   20.2901   31.3285   11.6837 O   0  0  0  0  0  0  0  0  0  0  0  0
   20.0287   29.6031   13.1366 N   0  0  0  0  0  0  0  0  0  0  0  0
   20.5097   28.8573   13.5630 H   0  0  0  0  0  0  0  0  0  0  0  0
   22.0475   29.8713   11.9521 O   0  0  0  0  0  0  0  0  0  0  0  0
   22.4535   28.5606   12.3491 C   0  0  0  0  0  0  0  0  0  0  0  0
   24.4952   24.8492   11.2881 O   0  0  0  0  0  0  0  0  0  0  0  0
   23.6202   25.6807   11.2232 C   0  0  0  0  0  0  0  0  0  0  0  0
   23.8013   26.9844   11.1058 N   0  0  0  0  0  0  0  0  0  0  0  0
   22.5809   27.7451   11.0743 C   0  0  0  0  0  0  0  0  0  0  0  0
   21.4915   26.6802   10.9413 C   0  0  0  0  0  0  0  0  0  0  0  0
   22.1508   25.3431   11.2402 C   0  0  0  0  0  0  0  0  0  0  0  0
   24.6925   27.3984   11.0453 H   0  0  0  0  0  0  0  0  0  0  0  0
   17.9620   28.4314   13.6068 C   0  0  0  0  0  0  0  0  0  0  0  0
   17.7812   27.8178   12.2263 C   0  0  0  0  0  0  0  0  0  0  0  0
   17.9127   26.4442   12.0638 C   0  0  0  0  0  0  0  0  0  0  0  0
   17.7450   25.8674   10.8062 C   0  0  0  0  0  0  0  0  0  0  0  0
   17.4385   26.6616    9.7078 C   0  0  0  0  0  0  0  0  0  0  0  0
   17.3040   28.0356    9.8689 C   0  0  0  0  0  0  0  0  0  0  0  0
   17.4685   28.6060   11.1281 C   0  0  0  0  0  0  0  0  0  0  0  0
   18.6490   32.1333   14.5931 C   0  0  0  0  0  0  0  0  0  0  0  0
   19.2335   32.7717   15.8023 N   0  0  0  0  0  0  0  0  0  0  0  0
   20.8601   32.8624   15.8074 S   0  0  0  0  0  0  0  0  0  0  0  0
   21.2870   32.8363   14.4420 O   0  0  0  0  0  0  0  0  0  0  0  0
   21.3124   31.7403   16.5960 O   0  0  0  0  0  0  0  0  0  0  0  0
   21.3778   34.2400   16.5412 C   0  0  0  0  0  0  0  0  0  0  0  0
   21.4523   35.4039   15.7732 C   0  0  0  0  0  0  0  0  0  0  0  0
   21.8241   36.6235   16.3368 C   0  0  0  0  0  0  0  0  0  0  0  0
   21.7156   34.3445   17.8996 C   0  0  0  0  0  0  0  0  0  0  0  0
   22.1009   35.5689   18.4712 C   0  0  0  0  0  0  0  0  0  0  0  0
   22.5330   35.8092   20.1105 S   0  0  0  0  0  0  0  0  0  0  0  0
   22.7733   37.4767   19.6877 C   0  0  0  0  0  0  0  0  0  0  0  0
   22.5357   37.7886   18.4037 N   0  0  0  0  0  0  0  0  0  0  0  0
   22.1482   36.7155   17.6753 C   0  0  0  0  0  0  0  0  0  0  0  0
   18.5644   34.0507   16.1348 C   0  0  0  0  0  0  0  0  0  0  0  0
   17.8358   33.9798   17.4885 C   0  0  0  0  0  0  0  0  0  0  0  0
   18.2243   35.0865   18.4697 C   0  0  0  0  0  0  0  0  0  0  0  0
   16.3230   34.0042   17.2408 C   0  0  0  0  0  0  0  0  0  0  0  0
   15.9431   34.3702   15.8145 C   0  0  0  0  0  0  0  0  0  0  0  0
 15 14  1  0  0  0
 15 16  1  0  0  0
 14 13  1  0  0  0
 14 10  1  0  0  0
 22 23  2  0  0  0
 22 21  1  0  0  0
 23 24  1  0  0  0
 13 12  1  0  0  0
 16 12  1  0  0  0
 10  9  1  0  0  0
 21 20  2  0  0  0
 12 11  2  0  0  0
 24 19  2  0  0  0
  6  5  2  0  0  0
  9  5  1  0  0  0
 20 19  1  0  0  0
  5  7  1  0  0  0
 19 18  1  0  0  0
  7  4  1  0  0  0
 29 27  2  0  0  0
 18  4  1  0  0  0
  4  1  1  0  0  0
 28 27  2  0  0  0
 27 26  1  0  0  0
 27 30  1  0  0  0
 41 40  1  0  0  0
 26 39  1  0  0  0
 26 25  1  0  0  0
  1 25  1  0  0  0
  1  2  1  0  0  0
 30 33  2  0  0  0
 30 31  1  0  0  0
 33 34  1  0  0  0
 40 39  1  0  0  0
 40 42  1  0  0  0
 31 32  2  0  0  0
 43 42  1  0  0  0
 34 35  1  0  0  0
 34 38  2  0  0  0
 35 36  1  0  0  0
 32 38  1  0  0  0
 38 37  1  0  0  0
 36 37  2  0  0  0
 13 17  1  0  0  0
  7  8  1  0  0  0
  2  3  1  0  0  0
M  END
> <minimizedAffinity>
-8.77407

$$$$
