5NXG_RA1_A_302


 26 27  0  0  0  0  0  0  0  0999 V2000
   -3.5222    5.1260   12.7645 C   0  0  0  0  0  0  0  0  0  0  0  0
   -4.0691    5.6890   11.8019 O   0  0  0  0  0  0  0  0  0  0  0  0
   -2.1943    4.9751   12.8022 N   0  0  0  0  0  0  0  0  0  0  0  0
   -1.8384    4.5106   13.5939 H   0  0  0  0  0  0  0  0  0  0  0  0
   -5.7560    6.8767   14.3909 Cl  0  0  0  0  0  0  0  0  0  0  0  0
   -5.2799    5.2194   14.5931 C   0  0  0  0  0  0  0  0  0  0  0  0
   -5.9272    4.5385   15.6441 C   0  0  0  0  0  0  0  0  0  0  0  0
   -5.5893    3.1948   15.8802 C   0  0  0  0  0  0  0  0  0  0  0  0
   -4.6237    2.4933   15.1364 C   0  0  0  0  0  0  0  0  0  0  0  0
   -3.9743    3.1637   14.1233 C   0  0  0  0  0  0  0  0  0  0  0  0
   -4.3048    4.5010   13.8583 C   0  0  0  0  0  0  0  0  0  0  0  0
   -6.2705    2.4530   16.9590 N   0  0  0  0  0  0  0  0  0  0  0  0
   -5.6195    1.6935   17.6353 O   0  0  0  0  0  0  0  0  0  0  0  0
   -7.4484    2.6060   17.1493 O   0  0  0  0  0  0  0  0  0  0  0  0
   -1.2431    5.3921   11.8610 C   0  0  0  0  0  0  0  0  0  0  0  0
   -0.5823    6.6259   11.8180 C   0  0  0  0  0  0  0  0  0  0  0  0
    0.3483    6.8694   10.8315 C   0  0  0  0  0  0  0  0  0  0  0  0
   -0.9394    4.3994   10.8989 C   0  0  0  0  0  0  0  0  0  0  0  0
    0.0309    4.6523    9.9458 C   0  0  0  0  0  0  0  0  0  0  0  0
    0.7081    5.9125    9.8792 C   0  0  0  0  0  0  0  0  0  0  0  0
    1.9134    6.2252    8.7251 S   0  0  0  0  0  0  0  0  0  0  0  0
    1.2934    6.1338    7.4312 O   0  0  0  0  0  0  0  0  0  0  0  0
    2.4806    7.5139    9.0871 O   0  0  0  0  0  0  0  0  0  0  0  0
    2.9834    5.0504    8.8389 N   0  0  0  0  0  0  0  0  0  0  0  0
    3.4391    5.0928    9.7505 H   0  0  0  0  0  0  0  0  0  0  0  0
    3.6829    5.1553    8.1039 H   0  0  0  0  0  0  0  0  0  0  0  0
 13 12  1  0  0  0
 12 14  2  0  0  0
 12  8  1  0  0  0
  9  8  2  0  0  0
  9 10  1  0  0  0
  8  7  1  0  0  0
 10 11  2  0  0  0
  7  6  2  0  0  0
 11  1  1  0  0  0
 11  6  1  0  0  0
  2  1  2  0  0  0
  1  3  1  0  0  0
  6  5  1  0  0  0
  3 15  1  0  0  0
 15 16  2  0  0  0
 15 18  1  0  0  0
 16 17  1  0  0  0
 18 19  2  0  0  0
 17 20  2  0  0  0
 19 20  1  0  0  0
 20 21  1  0  0  0
 24 21  1  0  0  0
 23 21  2  0  0  0
 21 22  2  0  0  0
  3  4  1  0  0  0
 24 25  1  0  0  0
 24 26  1  0  0  0
M  CHG 1  12   1
M  CHG 1  13  -1
M  END
> <minimizedAffinity>
-7.68415

$$$$
5NXG_RA1_A_302


 26 27  0  0  0  0  0  0  0  0999 V2000
   -3.1250    6.4925   14.1571 C   0  0  0  0  0  0  0  0  0  0  0  0
   -2.1287    6.1537   13.4973 O   0  0  0  0  0  0  0  0  0  0  0  0
   -3.3948    7.7844   14.3706 N   0  0  0  0  0  0  0  0  0  0  0  0
   -4.1968    7.9708   14.9103 H   0  0  0  0  0  0  0  0  0  0  0  0
   -6.3495    7.0082   14.3481 Cl  0  0  0  0  0  0  0  0  0  0  0  0
   -5.3992    5.6807   14.9388 C   0  0  0  0  0  0  0  0  0  0  0  0
   -6.1237    4.6966   15.6415 C   0  0  0  0  0  0  0  0  0  0  0  0
   -5.4248    3.5936   16.1614 C   0  0  0  0  0  0  0  0  0  0  0  0
   -4.0343    3.4248   16.0365 C   0  0  0  0  0  0  0  0  0  0  0  0
   -3.3216    4.3966   15.3694 C   0  0  0  0  0  0  0  0  0  0  0  0
   -3.9986    5.4995   14.8282 C   0  0  0  0  0  0  0  0  0  0  0  0
   -6.1644    2.5378   16.8799 N   0  0  0  0  0  0  0  0  0  0  0  0
   -5.5344    1.6977   17.4762 O   0  0  0  0  0  0  0  0  0  0  0  0
   -7.3671    2.5214   16.8623 O   0  0  0  0  0  0  0  0  0  0  0  0
   -2.6844    8.9078   13.9259 C   0  0  0  0  0  0  0  0  0  0  0  0
   -2.5398    9.3468   12.6042 C   0  0  0  0  0  0  0  0  0  0  0  0
   -1.8220   10.4925   12.3386 C   0  0  0  0  0  0  0  0  0  0  0  0
   -2.1037    9.6525   14.9802 C   0  0  0  0  0  0  0  0  0  0  0  0
   -1.4258   10.8233   14.6911 C   0  0  0  0  0  0  0  0  0  0  0  0
   -1.2576   11.2809   13.3444 C   0  0  0  0  0  0  0  0  0  0  0  0
   -0.4436   12.7259   12.9814 S   0  0  0  0  0  0  0  0  0  0  0  0
    0.7077   12.7897   13.8401 O   0  0  0  0  0  0  0  0  0  0  0  0
   -0.1887   12.6857   11.5507 O   0  0  0  0  0  0  0  0  0  0  0  0
   -1.4177   13.9220   13.3793 N   0  0  0  0  0  0  0  0  0  0  0  0
   -2.2450   13.8995   12.7832 H   0  0  0  0  0  0  0  0  0  0  0  0
   -0.9331   14.8109   13.2549 H   0  0  0  0  0  0  0  0  0  0  0  0
 13 12  1  0  0  0
 12 14  2  0  0  0
 12  8  1  0  0  0
  9  8  2  0  0  0
  9 10  1  0  0  0
  8  7  1  0  0  0
 10 11  2  0  0  0
  7  6  2  0  0  0
 11  1  1  0  0  0
 11  6  1  0  0  0
  2  1  2  0  0  0
  1  3  1  0  0  0
  6  5  1  0  0  0
  3 15  1  0  0  0
 15 16  2  0  0  0
 15 18  1  0  0  0
 16 17  1  0  0  0
 18 19  2  0  0  0
 17 20  2  0  0  0
 19 20  1  0  0  0
 20 21  1  0  0  0
 24 21  1  0  0  0
 23 21  2  0  0  0
 21 22  2  0  0  0
  3  4  1  0  0  0
 24 25  1  0  0  0
 24 26  1  0  0  0
M  CHG 1  12   1
M  CHG 1  13  -1
M  END
> <minimizedAffinity>
-7.65151

$$$$
5NXG_RA1_A_302


 26 27  0  0  0  0  0  0  0  0999 V2000
   -4.4017    7.4444   12.0955 C   0  0  0  0  0  0  0  0  0  0  0  0
   -4.6911    6.4606   11.3946 O   0  0  0  0  0  0  0  0  0  0  0  0
   -4.4017    7.3555   13.4294 N   0  0  0  0  0  0  0  0  0  0  0  0
   -4.1705    8.1809   13.9137 H   0  0  0  0  0  0  0  0  0  0  0  0
   -6.8068    9.0364   10.5524 Cl  0  0  0  0  0  0  0  0  0  0  0  0
   -5.1586    9.5083   10.8269 C   0  0  0  0  0  0  0  0  0  0  0  0
   -4.7932   10.7481   10.2642 C   0  0  0  0  0  0  0  0  0  0  0  0
   -3.4720   11.1969   10.4329 C   0  0  0  0  0  0  0  0  0  0  0  0
   -2.4841   10.4672   11.1178 C   0  0  0  0  0  0  0  0  0  0  0  0
   -2.8337    9.2453   11.6492 C   0  0  0  0  0  0  0  0  0  0  0  0
   -4.1502    8.7824   11.5072 C   0  0  0  0  0  0  0  0  0  0  0  0
   -3.0714   12.5028    9.8741 N   0  0  0  0  0  0  0  0  0  0  0  0
   -1.9293   12.6469    9.5094 O   0  0  0  0  0  0  0  0  0  0  0  0
   -3.8710   13.3978    9.7920 O   0  0  0  0  0  0  0  0  0  0  0  0
   -4.6879    6.2399   14.2282 C   0  0  0  0  0  0  0  0  0  0  0  0
   -3.8123    5.2048   14.5782 C   0  0  0  0  0  0  0  0  0  0  0  0
   -4.2496    4.1862   15.3966 C   0  0  0  0  0  0  0  0  0  0  0  0
   -6.0115    6.2390   14.7295 C   0  0  0  0  0  0  0  0  0  0  0  0
   -6.4125    5.2285   15.5852 C   0  0  0  0  0  0  0  0  0  0  0  0
   -5.5345    4.1555   15.9441 C   0  0  0  0  0  0  0  0  0  0  0  0
   -6.0115    2.9216   17.0082 S   0  0  0  0  0  0  0  0  0  0  0  0
   -5.5882    3.3123   18.3254 O   0  0  0  0  0  0  0  0  0  0  0  0
   -7.4416    2.7570   16.8047 O   0  0  0  0  0  0  0  0  0  0  0  0
   -5.1977    1.6142   16.6004 N   0  0  0  0  0  0  0  0  0  0  0  0
   -5.4801    1.3152   15.6670 H   0  0  0  0  0  0  0  0  0  0  0  0
   -5.3930    0.8695   17.2696 H   0  0  0  0  0  0  0  0  0  0  0  0
 13 12  1  0  0  0
 12 14  2  0  0  0
 12  8  1  0  0  0
  9  8  2  0  0  0
  9 10  1  0  0  0
  8  7  1  0  0  0
 10 11  2  0  0  0
  7  6  2  0  0  0
 11  1  1  0  0  0
 11  6  1  0  0  0
  2  1  2  0  0  0
  1  3  1  0  0  0
  6  5  1  0  0  0
  3 15  1  0  0  0
 15 16  2  0  0  0
 15 18  1  0  0  0
 16 17  1  0  0  0
 18 19  2  0  0  0
 17 20  2  0  0  0
 19 20  1  0  0  0
 20 21  1  0  0  0
 24 21  1  0  0  0
 23 21  2  0  0  0
 21 22  2  0  0  0
  3  4  1  0  0  0
 24 25  1  0  0  0
 24 26  1  0  0  0
M  CHG 1  12   1
M  CHG 1  13  -1
M  END
> <minimizedAffinity>
-7.37458

$$$$
5NXG_RA1_A_302


 26 27  0  0  0  0  0  0  0  0999 V2000
   -4.1003    5.6491   10.4820 C   0  0  0  0  0  0  0  0  0  0  0  0
   -3.2707    5.4049    9.5904 O   0  0  0  0  0  0  0  0  0  0  0  0
   -5.0004    6.6255   10.3275 N   0  0  0  0  0  0  0  0  0  0  0  0
   -5.6171    6.7629   11.0825 H   0  0  0  0  0  0  0  0  0  0  0  0
   -3.6468    7.3624   13.2314 Cl  0  0  0  0  0  0  0  0  0  0  0  0
   -3.8751    5.6555   13.0101 C   0  0  0  0  0  0  0  0  0  0  0  0
   -3.8160    4.8893   14.1919 C   0  0  0  0  0  0  0  0  0  0  0  0
   -3.9808    3.4967   14.0963 C   0  0  0  0  0  0  0  0  0  0  0  0
   -4.1830    2.8191   12.8807 C   0  0  0  0  0  0  0  0  0  0  0  0
   -4.2189    3.5639   11.7226 C   0  0  0  0  0  0  0  0  0  0  0  0
   -4.0720    4.9572   11.7935 C   0  0  0  0  0  0  0  0  0  0  0  0
   -3.9474    2.6753   15.3219 N   0  0  0  0  0  0  0  0  0  0  0  0
   -3.2649    3.0475   16.2459 O   0  0  0  0  0  0  0  0  0  0  0  0
   -4.5861    1.6580   15.3871 O   0  0  0  0  0  0  0  0  0  0  0  0
   -5.1803    7.4789    9.2303 C   0  0  0  0  0  0  0  0  0  0  0  0
   -4.2605    8.4028    8.7194 C   0  0  0  0  0  0  0  0  0  0  0  0
   -4.5889    9.1539    7.6119 C   0  0  0  0  0  0  0  0  0  0  0  0
   -6.4349    7.3137    8.5963 C   0  0  0  0  0  0  0  0  0  0  0  0
   -6.7228    8.0478    7.4596 C   0  0  0  0  0  0  0  0  0  0  0  0
   -5.7993    9.0059    6.9302 C   0  0  0  0  0  0  0  0  0  0  0  0
   -6.1361    9.8976    5.5252 S   0  0  0  0  0  0  0  0  0  0  0  0
   -4.9362    9.9080    4.7334 O   0  0  0  0  0  0  0  0  0  0  0  0
   -7.3046    9.2694    4.9306 O   0  0  0  0  0  0  0  0  0  0  0  0
   -6.4330   11.3943    5.9832 N   0  0  0  0  0  0  0  0  0  0  0  0
   -7.2819   11.4149    6.5483 H   0  0  0  0  0  0  0  0  0  0  0  0
   -6.5582   11.9833    5.1599 H   0  0  0  0  0  0  0  0  0  0  0  0
 13 12  1  0  0  0
 12 14  2  0  0  0
 12  8  1  0  0  0
  9  8  2  0  0  0
  9 10  1  0  0  0
  8  7  1  0  0  0
 10 11  2  0  0  0
  7  6  2  0  0  0
 11  1  1  0  0  0
 11  6  1  0  0  0
  2  1  2  0  0  0
  1  3  1  0  0  0
  6  5  1  0  0  0
  3 15  1  0  0  0
 15 16  2  0  0  0
 15 18  1  0  0  0
 16 17  1  0  0  0
 18 19  2  0  0  0
 17 20  2  0  0  0
 19 20  1  0  0  0
 20 21  1  0  0  0
 24 21  1  0  0  0
 23 21  2  0  0  0
 21 22  2  0  0  0
  3  4  1  0  0  0
 24 25  1  0  0  0
 24 26  1  0  0  0
M  CHG 1  12   1
M  CHG 1  13  -1
M  END
> <minimizedAffinity>
-7.36060

$$$$
5NXG_RA1_A_302


 26 27  0  0  0  0  0  0  0  0999 V2000
   -2.8851    5.5647   13.6139 C   0  0  0  0  0  0  0  0  0  0  0  0
   -2.2901    6.6364   13.8150 O   0  0  0  0  0  0  0  0  0  0  0  0
   -2.6765    4.8688   12.4916 N   0  0  0  0  0  0  0  0  0  0  0  0
   -3.1925    4.0350   12.4026 H   0  0  0  0  0  0  0  0  0  0  0  0
   -5.7721    7.0873   13.8298 Cl  0  0  0  0  0  0  0  0  0  0  0  0
   -5.1895    5.6847   14.6710 C   0  0  0  0  0  0  0  0  0  0  0  0
   -6.0828    5.1458   15.6190 C   0  0  0  0  0  0  0  0  0  0  0  0
   -5.6812    4.0148   16.3505 C   0  0  0  0  0  0  0  0  0  0  0  0
   -4.4255    3.3989   16.2035 C   0  0  0  0  0  0  0  0  0  0  0  0
   -3.5429    3.9377   15.2934 C   0  0  0  0  0  0  0  0  0  0  0  0
   -3.9261    5.0573   14.5403 C   0  0  0  0  0  0  0  0  0  0  0  0
   -6.6079    3.4173   17.3314 N   0  0  0  0  0  0  0  0  0  0  0  0
   -6.4308    3.6456   18.5039 O   0  0  0  0  0  0  0  0  0  0  0  0
   -7.5134    2.7171   16.9612 O   0  0  0  0  0  0  0  0  0  0  0  0
   -1.8189    5.1719   11.4253 C   0  0  0  0  0  0  0  0  0  0  0  0
   -0.5006    4.7333   11.2509 C   0  0  0  0  0  0  0  0  0  0  0  0
    0.2018    5.1076   10.1261 C   0  0  0  0  0  0  0  0  0  0  0  0
   -2.4244    5.9849   10.4375 C   0  0  0  0  0  0  0  0  0  0  0  0
   -1.7130    6.3100    9.2964 C   0  0  0  0  0  0  0  0  0  0  0  0
   -0.3599    5.8805    9.1069 C   0  0  0  0  0  0  0  0  0  0  0  0
    0.5145    6.2587    7.7016 S   0  0  0  0  0  0  0  0  0  0  0  0
   -0.1054    7.4165    7.1168 O   0  0  0  0  0  0  0  0  0  0  0  0
    1.8977    6.4032    8.1252 O   0  0  0  0  0  0  0  0  0  0  0  0
    0.3249    5.0403    6.6928 N   0  0  0  0  0  0  0  0  0  0  0  0
    0.7571    4.2037    7.0850 H   0  0  0  0  0  0  0  0  0  0  0  0
    0.7666    5.2651    5.8013 H   0  0  0  0  0  0  0  0  0  0  0  0
 13 12  1  0  0  0
 12 14  2  0  0  0
 12  8  1  0  0  0
  9  8  2  0  0  0
  9 10  1  0  0  0
  8  7  1  0  0  0
 10 11  2  0  0  0
  7  6  2  0  0  0
 11  1  1  0  0  0
 11  6  1  0  0  0
  2  1  2  0  0  0
  1  3  1  0  0  0
  6  5  1  0  0  0
  3 15  1  0  0  0
 15 16  2  0  0  0
 15 18  1  0  0  0
 16 17  1  0  0  0
 18 19  2  0  0  0
 17 20  2  0  0  0
 19 20  1  0  0  0
 20 21  1  0  0  0
 24 21  1  0  0  0
 23 21  2  0  0  0
 21 22  2  0  0  0
  3  4  1  0  0  0
 24 25  1  0  0  0
 24 26  1  0  0  0
M  CHG 1  12   1
M  CHG 1  13  -1
M  END
> <minimizedAffinity>
-7.20368

$$$$
5NXG_RA1_A_302


 26 27  0  0  0  0  0  0  0  0999 V2000
   -4.5800    7.1139   13.8160 C   0  0  0  0  0  0  0  0  0  0  0  0
   -5.1889    7.5418   12.8216 O   0  0  0  0  0  0  0  0  0  0  0  0
   -3.4613    7.7106   14.2400 N   0  0  0  0  0  0  0  0  0  0  0  0
   -3.0327    7.3063   15.0288 H   0  0  0  0  0  0  0  0  0  0  0  0
   -3.2671    4.2421   12.9622 Cl  0  0  0  0  0  0  0  0  0  0  0  0
   -4.4523    4.6049   14.1780 C   0  0  0  0  0  0  0  0  0  0  0  0
   -4.9523    3.4858   14.8742 C   0  0  0  0  0  0  0  0  0  0  0  0
   -5.9239    3.6944   15.8681 C   0  0  0  0  0  0  0  0  0  0  0  0
   -6.4422    4.9600   16.1957 C   0  0  0  0  0  0  0  0  0  0  0  0
   -5.9709    6.0521   15.5010 C   0  0  0  0  0  0  0  0  0  0  0  0
   -4.9899    5.8716   14.5147 C   0  0  0  0  0  0  0  0  0  0  0  0
   -6.4452    2.5416   16.6278 N   0  0  0  0  0  0  0  0  0  0  0  0
   -5.6940    1.6300   16.8783 O   0  0  0  0  0  0  0  0  0  0  0  0
   -7.5949    2.5187   16.9813 O   0  0  0  0  0  0  0  0  0  0  0  0
   -2.8192    8.8370   13.7075 C   0  0  0  0  0  0  0  0  0  0  0  0
   -2.7135    9.1888   12.3564 C   0  0  0  0  0  0  0  0  0  0  0  0
   -2.0633   10.3504   12.0008 C   0  0  0  0  0  0  0  0  0  0  0  0
   -2.2694    9.6849   14.6986 C   0  0  0  0  0  0  0  0  0  0  0  0
   -1.6607   10.8676   14.3183 C   0  0  0  0  0  0  0  0  0  0  0  0
   -1.5328   11.2375   12.9407 C   0  0  0  0  0  0  0  0  0  0  0  0
   -0.8043   12.6956   12.4656 S   0  0  0  0  0  0  0  0  0  0  0  0
   -1.3006   13.0080   11.1530 O   0  0  0  0  0  0  0  0  0  0  0  0
   -1.1060   13.6489   13.5210 O   0  0  0  0  0  0  0  0  0  0  0  0
    0.7596   12.4172   12.3439 N   0  0  0  0  0  0  0  0  0  0  0  0
    1.1375   12.1925   13.2642 H   0  0  0  0  0  0  0  0  0  0  0  0
    1.2254   13.2479   11.9786 H   0  0  0  0  0  0  0  0  0  0  0  0
 13 12  1  0  0  0
 12 14  2  0  0  0
 12  8  1  0  0  0
  9  8  2  0  0  0
  9 10  1  0  0  0
  8  7  1  0  0  0
 10 11  2  0  0  0
  7  6  2  0  0  0
 11  1  1  0  0  0
 11  6  1  0  0  0
  2  1  2  0  0  0
  1  3  1  0  0  0
  6  5  1  0  0  0
  3 15  1  0  0  0
 15 16  2  0  0  0
 15 18  1  0  0  0
 16 17  1  0  0  0
 18 19  2  0  0  0
 17 20  2  0  0  0
 19 20  1  0  0  0
 20 21  1  0  0  0
 24 21  1  0  0  0
 23 21  2  0  0  0
 21 22  2  0  0  0
  3  4  1  0  0  0
 24 25  1  0  0  0
 24 26  1  0  0  0
M  CHG 1  12   1
M  CHG 1  13  -1
M  END
> <minimizedAffinity>
-6.90741

$$$$
5NXG_RA1_A_302


 26 27  0  0  0  0  0  0  0  0999 V2000
   -3.9802    6.6580   11.9050 C   0  0  0  0  0  0  0  0  0  0  0  0
   -3.0320    6.7573   11.1088 O   0  0  0  0  0  0  0  0  0  0  0  0
   -4.8773    7.6420   12.0238 N   0  0  0  0  0  0  0  0  0  0  0  0
   -5.5934    7.4916   12.6825 H   0  0  0  0  0  0  0  0  0  0  0  0
   -3.9812    3.6002   10.7432 Cl  0  0  0  0  0  0  0  0  0  0  0  0
   -4.1189    4.1682   12.3780 C   0  0  0  0  0  0  0  0  0  0  0  0
   -4.2980    3.1587   13.3455 C   0  0  0  0  0  0  0  0  0  0  0  0
   -4.4287    3.5374   14.6927 C   0  0  0  0  0  0  0  0  0  0  0  0
   -4.4100    4.8738   15.1302 C   0  0  0  0  0  0  0  0  0  0  0  0
   -4.2573    5.8628   14.1836 C   0  0  0  0  0  0  0  0  0  0  0  0
   -4.1098    5.5093   12.8341 C   0  0  0  0  0  0  0  0  0  0  0  0
   -4.5928    2.4977   15.7271 N   0  0  0  0  0  0  0  0  0  0  0  0
   -3.6019    2.0076   16.2129 O   0  0  0  0  0  0  0  0  0  0  0  0
   -5.6930    2.1510   16.0684 O   0  0  0  0  0  0  0  0  0  0  0  0
   -4.9310    8.8601   11.3324 C   0  0  0  0  0  0  0  0  0  0  0  0
   -3.8483    9.6540   10.9350 C   0  0  0  0  0  0  0  0  0  0  0  0
   -4.0749   10.8205   10.2376 C   0  0  0  0  0  0  0  0  0  0  0  0
   -6.2494    9.2551   11.0020 C   0  0  0  0  0  0  0  0  0  0  0  0
   -6.4475   10.4075   10.2626 C   0  0  0  0  0  0  0  0  0  0  0  0
   -5.3530   11.2380    9.8583 C   0  0  0  0  0  0  0  0  0  0  0  0
   -5.5849   12.6437    8.9348 S   0  0  0  0  0  0  0  0  0  0  0  0
   -5.3865   13.7641    9.8135 O   0  0  0  0  0  0  0  0  0  0  0  0
   -4.6738   12.5293    7.8077 O   0  0  0  0  0  0  0  0  0  0  0  0
   -7.1088   12.6499    8.4703 N   0  0  0  0  0  0  0  0  0  0  0  0
   -7.2766   11.8625    7.8441 H   0  0  0  0  0  0  0  0  0  0  0  0
   -7.3118   13.5221    7.9819 H   0  0  0  0  0  0  0  0  0  0  0  0
 13 12  1  0  0  0
 12 14  2  0  0  0
 12  8  1  0  0  0
  9  8  2  0  0  0
  9 10  1  0  0  0
  8  7  1  0  0  0
 10 11  2  0  0  0
  7  6  2  0  0  0
 11  1  1  0  0  0
 11  6  1  0  0  0
  2  1  2  0  0  0
  1  3  1  0  0  0
  6  5  1  0  0  0
  3 15  1  0  0  0
 15 16  2  0  0  0
 15 18  1  0  0  0
 16 17  1  0  0  0
 18 19  2  0  0  0
 17 20  2  0  0  0
 19 20  1  0  0  0
 20 21  1  0  0  0
 24 21  1  0  0  0
 23 21  2  0  0  0
 21 22  2  0  0  0
  3  4  1  0  0  0
 24 25  1  0  0  0
 24 26  1  0  0  0
M  CHG 1  12   1
M  CHG 1  13  -1
M  END
> <minimizedAffinity>
-6.79648

$$$$
5NXG_RA1_A_302


 26 27  0  0  0  0  0  0  0  0999 V2000
   -3.0293    5.6827   12.1493 C   0  0  0  0  0  0  0  0  0  0  0  0
   -3.8778    6.4197   11.6202 O   0  0  0  0  0  0  0  0  0  0  0  0
   -2.0287    6.2011   12.8686 N   0  0  0  0  0  0  0  0  0  0  0  0
   -1.3926    5.5521   13.2473 H   0  0  0  0  0  0  0  0  0  0  0  0
   -0.6162    4.3119   10.4179 Cl  0  0  0  0  0  0  0  0  0  0  0  0
   -1.9919    3.5780   11.1817 C   0  0  0  0  0  0  0  0  0  0  0  0
   -2.1053    2.1858   10.9921 C   0  0  0  0  0  0  0  0  0  0  0  0
   -3.1985    1.5178   11.5702 C   0  0  0  0  0  0  0  0  0  0  0  0
   -4.2007    2.1655   12.3143 C   0  0  0  0  0  0  0  0  0  0  0  0
   -4.1033    3.5293   12.4818 C   0  0  0  0  0  0  0  0  0  0  0  0
   -3.0133    4.2164   11.9273 C   0  0  0  0  0  0  0  0  0  0  0  0
   -3.3264    0.0567   11.4065 N   0  0  0  0  0  0  0  0  0  0  0  0
   -4.4326   -0.4273   11.4019 O   0  0  0  0  0  0  0  0  0  0  0  0
   -2.3446   -0.6277   11.2851 O   0  0  0  0  0  0  0  0  0  0  0  0
   -1.7677    7.5483   13.1537 C   0  0  0  0  0  0  0  0  0  0  0  0
   -2.3802    8.3380   14.1343 C   0  0  0  0  0  0  0  0  0  0  0  0
   -1.9882    9.6485   14.3005 C   0  0  0  0  0  0  0  0  0  0  0  0
   -0.7406    8.0985   12.3501 C   0  0  0  0  0  0  0  0  0  0  0  0
   -0.3346    9.4032   12.5668 C   0  0  0  0  0  0  0  0  0  0  0  0
   -0.9580   10.2293   13.5568 C   0  0  0  0  0  0  0  0  0  0  0  0
   -0.4540   11.8251   13.8426 S   0  0  0  0  0  0  0  0  0  0  0  0
    0.6005   12.1092   12.9076 O   0  0  0  0  0  0  0  0  0  0  0  0
   -1.6530   12.6410   13.7411 O   0  0  0  0  0  0  0  0  0  0  0  0
    0.1688   11.8616   15.3084 N   0  0  0  0  0  0  0  0  0  0  0  0
   -0.5608   11.6627   15.9929 H   0  0  0  0  0  0  0  0  0  0  0  0
    0.5609   12.7859   15.4883 H   0  0  0  0  0  0  0  0  0  0  0  0
 13 12  1  0  0  0
 12 14  2  0  0  0
 12  8  1  0  0  0
  9  8  2  0  0  0
  9 10  1  0  0  0
  8  7  1  0  0  0
 10 11  2  0  0  0
  7  6  2  0  0  0
 11  1  1  0  0  0
 11  6  1  0  0  0
  2  1  2  0  0  0
  1  3  1  0  0  0
  6  5  1  0  0  0
  3 15  1  0  0  0
 15 16  2  0  0  0
 15 18  1  0  0  0
 16 17  1  0  0  0
 18 19  2  0  0  0
 17 20  2  0  0  0
 19 20  1  0  0  0
 20 21  1  0  0  0
 24 21  1  0  0  0
 23 21  2  0  0  0
 21 22  2  0  0  0
  3  4  1  0  0  0
 24 25  1  0  0  0
 24 26  1  0  0  0
M  CHG 1  12   1
M  CHG 1  13  -1
M  END
> <minimizedAffinity>
-6.75378

$$$$
5NXG_RA1_A_302


 26 27  0  0  0  0  0  0  0  0999 V2000
   -3.3079    7.7584   13.2774 C   0  0  0  0  0  0  0  0  0  0  0  0
   -3.1016    8.2385   14.4043 O   0  0  0  0  0  0  0  0  0  0  0  0
   -4.0236    6.6384   13.1336 N   0  0  0  0  0  0  0  0  0  0  0  0
   -4.1346    6.3168   12.2097 H   0  0  0  0  0  0  0  0  0  0  0  0
   -0.7022    6.3127   11.9282 Cl  0  0  0  0  0  0  0  0  0  0  0  0
   -1.5602    7.7399   11.4370 C   0  0  0  0  0  0  0  0  0  0  0  0
   -1.0273    8.3956   10.3086 C   0  0  0  0  0  0  0  0  0  0  0  0
   -1.6589    9.5658    9.8534 C   0  0  0  0  0  0  0  0  0  0  0  0
   -2.7860   10.1331   10.4742 C   0  0  0  0  0  0  0  0  0  0  0  0
   -3.2947    9.5059   11.5901 C   0  0  0  0  0  0  0  0  0  0  0  0
   -2.6911    8.3281   12.0550 C   0  0  0  0  0  0  0  0  0  0  0  0
   -1.1346   10.2571    8.6596 N   0  0  0  0  0  0  0  0  0  0  0  0
   -1.7319   10.1381    7.6168 O   0  0  0  0  0  0  0  0  0  0  0  0
   -0.1323   10.9182    8.7335 O   0  0  0  0  0  0  0  0  0  0  0  0
   -4.6365    5.8625   14.1271 C   0  0  0  0  0  0  0  0  0  0  0  0
   -5.9177    6.0370   14.6643 C   0  0  0  0  0  0  0  0  0  0  0  0
   -6.3807    5.1656   15.6261 C   0  0  0  0  0  0  0  0  0  0  0  0
   -3.8323    4.7837   14.5661 C   0  0  0  0  0  0  0  0  0  0  0  0
   -4.3374    3.8969   15.5001 C   0  0  0  0  0  0  0  0  0  0  0  0
   -5.6406    4.0667   16.0694 C   0  0  0  0  0  0  0  0  0  0  0  0
   -6.2760    2.9732   17.2020 S   0  0  0  0  0  0  0  0  0  0  0  0
   -6.0767    3.5496   18.5039 O   0  0  0  0  0  0  0  0  0  0  0  0
   -7.6523    2.7403   16.7955 O   0  0  0  0  0  0  0  0  0  0  0  0
   -5.3967    1.6477   17.1140 N   0  0  0  0  0  0  0  0  0  0  0  0
   -5.5204    1.2178   16.1973 H   0  0  0  0  0  0  0  0  0  0  0  0
   -5.6933    0.9941   17.8387 H   0  0  0  0  0  0  0  0  0  0  0  0
 13 12  1  0  0  0
 12 14  2  0  0  0
 12  8  1  0  0  0
  9  8  2  0  0  0
  9 10  1  0  0  0
  8  7  1  0  0  0
 10 11  2  0  0  0
  7  6  2  0  0  0
 11  1  1  0  0  0
 11  6  1  0  0  0
  2  1  2  0  0  0
  1  3  1  0  0  0
  6  5  1  0  0  0
  3 15  1  0  0  0
 15 16  2  0  0  0
 15 18  1  0  0  0
 16 17  1  0  0  0
 18 19  2  0  0  0
 17 20  2  0  0  0
 19 20  1  0  0  0
 20 21  1  0  0  0
 24 21  1  0  0  0
 23 21  2  0  0  0
 21 22  2  0  0  0
  3  4  1  0  0  0
 24 25  1  0  0  0
 24 26  1  0  0  0
M  CHG 1  12   1
M  CHG 1  13  -1
M  END
> <minimizedAffinity>
-6.63023

$$$$
5NXG_RA1_A_302


 26 27  0  0  0  0  0  0  0  0999 V2000
   -4.1688    5.3612   10.7144 C   0  0  0  0  0  0  0  0  0  0  0  0
   -3.4292    5.0033    9.7830 O   0  0  0  0  0  0  0  0  0  0  0  0
   -4.9408    6.4461   10.5943 N   0  0  0  0  0  0  0  0  0  0  0  0
   -5.4913    6.6691   11.3795 H   0  0  0  0  0  0  0  0  0  0  0  0
   -4.2746    2.0959   10.8775 Cl  0  0  0  0  0  0  0  0  0  0  0  0
   -4.2064    3.2710   12.1537 C   0  0  0  0  0  0  0  0  0  0  0  0
   -4.2422    2.7361   13.4575 C   0  0  0  0  0  0  0  0  0  0  0  0
   -4.2017    3.6231   14.5469 C   0  0  0  0  0  0  0  0  0  0  0  0
   -4.1465    5.0216   14.4096 C   0  0  0  0  0  0  0  0  0  0  0  0
   -4.1339    5.5470   13.1363 C   0  0  0  0  0  0  0  0  0  0  0  0
   -4.1584    4.6816   12.0326 C   0  0  0  0  0  0  0  0  0  0  0  0
   -4.2134    3.0866   15.9216 N   0  0  0  0  0  0  0  0  0  0  0  0
   -4.8372    3.6822   16.7668 O   0  0  0  0  0  0  0  0  0  0  0  0
   -3.6088    2.0803   16.1845 O   0  0  0  0  0  0  0  0  0  0  0  0
   -5.0682    7.3074    9.4959 C   0  0  0  0  0  0  0  0  0  0  0  0
   -6.1572    7.4049    8.6211 C   0  0  0  0  0  0  0  0  0  0  0  0
   -6.1321    8.3269    7.5975 C   0  0  0  0  0  0  0  0  0  0  0  0
   -3.9559    8.1668    9.3302 C   0  0  0  0  0  0  0  0  0  0  0  0
   -3.9743    9.1141    8.3221 C   0  0  0  0  0  0  0  0  0  0  0  0
   -5.0740    9.2199    7.4108 C   0  0  0  0  0  0  0  0  0  0  0  0
   -5.1138   10.3915    6.1826 S   0  0  0  0  0  0  0  0  0  0  0  0
   -4.4994   11.5789    6.7111 O   0  0  0  0  0  0  0  0  0  0  0  0
   -4.4680    9.7792    5.0331 O   0  0  0  0  0  0  0  0  0  0  0  0
   -6.6472   10.7184    5.9000 N   0  0  0  0  0  0  0  0  0  0  0  0
   -7.1077    9.8899    5.5233 H   0  0  0  0  0  0  0  0  0  0  0  0
   -6.7137   11.4806    5.2255 H   0  0  0  0  0  0  0  0  0  0  0  0
 13 12  1  0  0  0
 12 14  2  0  0  0
 12  8  1  0  0  0
  9  8  2  0  0  0
  9 10  1  0  0  0
  8  7  1  0  0  0
 10 11  2  0  0  0
  7  6  2  0  0  0
 11  1  1  0  0  0
 11  6  1  0  0  0
  2  1  2  0  0  0
  1  3  1  0  0  0
  6  5  1  0  0  0
  3 15  1  0  0  0
 15 16  2  0  0  0
 15 18  1  0  0  0
 16 17  1  0  0  0
 18 19  2  0  0  0
 17 20  2  0  0  0
 19 20  1  0  0  0
 20 21  1  0  0  0
 24 21  1  0  0  0
 23 21  2  0  0  0
 21 22  2  0  0  0
  3  4  1  0  0  0
 24 25  1  0  0  0
 24 26  1  0  0  0
M  CHG 1  12   1
M  CHG 1  13  -1
M  END
> <minimizedAffinity>
-6.57932

$$$$
