5EXM_5ST_A_301


 40 43  0  0  0  0  0  0  0  0999 V2000
   40.2216  -20.4297   28.4732 C   0  0  0  0  0  0  0  0  0  0  0  0
   41.6032  -20.3568   27.8265 C   0  0  0  0  0  0  0  0  0  0  0  0
   42.7119  -20.4973   28.6441 C   0  0  0  0  0  0  0  0  0  0  0  0
   42.9180  -20.3617   25.9131 C   0  0  0  0  0  0  0  0  0  0  0  0
   44.0889  -20.4690   26.6641 C   0  0  0  0  0  0  0  0  0  0  0  0
   43.9764  -20.4950   28.0607 C   0  0  0  0  0  0  0  0  0  0  0  0
   41.6783  -20.3080   26.4659 N   0  0  0  0  0  0  0  0  0  0  0  0
   45.1564  -20.6573   28.8958 C   0  0  0  0  0  0  0  0  0  0  0  0
   47.4006  -21.0412   30.5791 C   0  0  0  0  0  0  0  0  0  0  0  0
   45.1732  -20.1157   30.1949 C   0  0  0  0  0  0  0  0  0  0  0  0
   46.2650  -21.3895   28.4379 C   0  0  0  0  0  0  0  0  0  0  0  0
   46.2959  -20.2870   31.0268 C   0  0  0  0  0  0  0  0  0  0  0  0
   47.3678  -21.6076   29.2858 C   0  0  0  0  0  0  0  0  0  0  0  0
   49.7132  -20.5666   31.5019 C   0  0  0  0  0  0  0  0  0  0  0  0
   48.4924  -21.2684   31.4357 N   0  0  0  0  0  0  0  0  0  0  0  0
   50.0255  -19.6010   30.8150 O   0  0  0  0  0  0  0  0  0  0  0  0
   48.3911  -22.0136   32.0710 H   0  0  0  0  0  0  0  0  0  0  0  0
   51.1848  -20.1397   33.3702 C   0  0  0  0  0  0  0  0  0  0  0  0
   50.5306  -21.0715   32.4912 O   0  0  0  0  0  0  0  0  0  0  0  0
   39.0838  -18.2960   28.9971 C   0  0  0  0  0  0  0  0  0  0  0  0
   39.3608  -19.3205   28.1213 N   0  0  0  0  0  0  0  0  0  0  0  0
   39.5204  -18.2425   30.1458 O   0  0  0  0  0  0  0  0  0  0  0  0
   38.9590  -19.2983   27.2228 H   0  0  0  0  0  0  0  0  0  0  0  0
   37.0207  -16.9883   29.4746 C   0  0  0  0  0  0  0  0  0  0  0  0
   38.8691  -15.9535   28.0154 C   0  0  0  0  0  0  0  0  0  0  0  0
   36.0693  -15.8491   29.0664 C   0  0  0  0  0  0  0  0  0  0  0  0
   37.8685  -14.8664   27.5707 C   0  0  0  0  0  0  0  0  0  0  0  0
   38.1438  -17.2455   28.4559 C   0  0  0  0  0  0  0  0  0  0  0  0
   36.8471  -14.5671   28.6894 C   0  0  0  0  0  0  0  0  0  0  0  0
   35.8795  -13.4294   28.3192 C   0  0  0  0  0  0  0  0  0  0  0  0
   36.5441  -12.4313   27.5321 N   0  0  0  0  0  0  0  0  0  0  0  0
   36.8883  -12.8525   26.6692 H   0  0  0  0  0  0  0  0  0  0  0  0
   37.3284  -12.0486   28.0601 H   0  0  0  0  0  0  0  0  0  0  0  0
   39.5029  -21.7714   28.1523 C   0  0  0  0  0  0  0  0  0  0  0  0
   40.2950  -22.9656   28.6587 C   0  0  0  0  0  0  0  0  0  0  0  0
   41.8765  -25.0874   29.5952 C   0  0  0  0  0  0  0  0  0  0  0  0
   41.2970  -24.1893   30.4996 C   0  0  0  0  0  0  0  0  0  0  0  0
   41.6800  -24.9132   28.2136 C   0  0  0  0  0  0  0  0  0  0  0  0
   40.5243  -23.1210   30.0287 C   0  0  0  0  0  0  0  0  0  0  0  0
   40.8941  -23.8466   27.7449 C   0  0  0  0  0  0  0  0  0  0  0  0
  4  7  2  0  0  0
  4  5  1  0  0  0
  7  2  1  0  0  0
 27 25  1  0  0  0
 27 29  1  0  0  0
 31 30  1  0  0  0
 25 28  1  0  0  0
 40 38  2  0  0  0
 40 35  1  0  0  0
  5  6  2  0  0  0
 30 29  1  0  0  0
 34 35  1  0  0  0
 34  1  1  0  0  0
 38 36  1  0  0  0
 21  1  1  0  0  0
 21 20  1  0  0  0
 29 26  1  0  0  0
 28 20  1  0  0  0
 28 24  1  0  0  0
  2  1  1  0  0  0
  2  3  2  0  0  0
 35 39  2  0  0  0
 26 24  1  0  0  0
 20 22  2  0  0  0
  6  3  1  0  0  0
  6  8  1  0  0  0
 36 37  2  0  0  0
 39 37  1  0  0  0
 11  8  2  0  0  0
 11 13  1  0  0  0
  8 10  1  0  0  0
 13  9  2  0  0  0
 10 12  2  0  0  0
  9 12  1  0  0  0
  9 15  1  0  0  0
 16 14  2  0  0  0
 15 14  1  0  0  0
 14 19  1  0  0  0
 19 18  1  0  0  0
 31 32  1  0  0  0
 31 33  1  0  0  0
 15 17  1  0  0  0
 21 23  1  0  0  0
M  END
> <minimizedAffinity>
-9.33958

$$$$
5EXM_5ST_A_301


 40 43  0  0  0  0  0  0  0  0999 V2000
   42.9985  -20.6562   28.3185 C   0  0  0  0  0  0  0  0  0  0  0  0
   41.9235  -20.1824   27.3427 C   0  0  0  0  0  0  0  0  0  0  0  0
   40.9317  -19.3448   27.8245 C   0  0  0  0  0  0  0  0  0  0  0  0
   41.1668  -19.9496   25.1603 C   0  0  0  0  0  0  0  0  0  0  0  0
   40.1173  -19.1241   25.5650 C   0  0  0  0  0  0  0  0  0  0  0  0
   39.9802  -18.8550   26.9334 C   0  0  0  0  0  0  0  0  0  0  0  0
   42.0735  -20.4814   26.0208 N   0  0  0  0  0  0  0  0  0  0  0  0
   38.9375  -17.9603   27.4112 C   0  0  0  0  0  0  0  0  0  0  0  0
   36.9814  -16.1520   28.3708 C   0  0  0  0  0  0  0  0  0  0  0  0
   38.7413  -17.7915   28.7949 C   0  0  0  0  0  0  0  0  0  0  0  0
   38.1521  -17.2251   26.5072 C   0  0  0  0  0  0  0  0  0  0  0  0
   37.7553  -16.9089   29.2751 C   0  0  0  0  0  0  0  0  0  0  0  0
   37.2013  -16.3025   26.9839 C   0  0  0  0  0  0  0  0  0  0  0  0
   35.9343  -13.8501   28.5442 C   0  0  0  0  0  0  0  0  0  0  0  0
   36.0441  -15.2212   28.8529 N   0  0  0  0  0  0  0  0  0  0  0  0
   36.6487  -13.2290   27.7658 O   0  0  0  0  0  0  0  0  0  0  0  0
   35.3787  -15.5723   29.4880 H   0  0  0  0  0  0  0  0  0  0  0  0
   34.0397  -14.1120   30.0208 C   0  0  0  0  0  0  0  0  0  0  0  0
   34.8683  -13.2706   29.1996 O   0  0  0  0  0  0  0  0  0  0  0  0
   42.6175  -22.5009   29.9228 C   0  0  0  0  0  0  0  0  0  0  0  0
   42.8982  -22.0617   28.6493 N   0  0  0  0  0  0  0  0  0  0  0  0
   42.4489  -21.7503   30.8826 O   0  0  0  0  0  0  0  0  0  0  0  0
   43.0358  -22.7277   27.9374 H   0  0  0  0  0  0  0  0  0  0  0  0
   41.1657  -24.5162   29.7627 C   0  0  0  0  0  0  0  0  0  0  0  0
   43.6793  -24.7200   29.2559 C   0  0  0  0  0  0  0  0  0  0  0  0
   41.0508  -26.0511   29.7788 C   0  0  0  0  0  0  0  0  0  0  0  0
   43.5437  -26.2541   29.3496 C   0  0  0  0  0  0  0  0  0  0  0  0
   42.5817  -24.0028   30.0744 C   0  0  0  0  0  0  0  0  0  0  0  0
   42.1388  -26.7114   28.9008 C   0  0  0  0  0  0  0  0  0  0  0  0
   41.9861  -28.2426   28.9002 C   0  0  0  0  0  0  0  0  0  0  0  0
   40.6793  -28.6243   29.3515 N   0  0  0  0  0  0  0  0  0  0  0  0
   39.9756  -28.2321   28.7260 H   0  0  0  0  0  0  0  0  0  0  0  0
   40.5293  -28.2708   30.2965 H   0  0  0  0  0  0  0  0  0  0  0  0
   44.4306  -20.3424   27.7985 C   0  0  0  0  0  0  0  0  0  0  0  0
   45.4866  -20.6494   28.8476 C   0  0  0  0  0  0  0  0  0  0  0  0
   47.3517  -21.3230   30.8345 C   0  0  0  0  0  0  0  0  0  0  0  0
   47.3704  -21.9823   29.5995 C   0  0  0  0  0  0  0  0  0  0  0  0
   46.3835  -20.3343   31.0850 C   0  0  0  0  0  0  0  0  0  0  0  0
   46.4270  -21.6574   28.6173 C   0  0  0  0  0  0  0  0  0  0  0  0
   45.4454  -20.0025   30.0925 C   0  0  0  0  0  0  0  0  0  0  0  0
  4  7  2  0  0  0
  4  5  1  0  0  0
  7  2  1  0  0  0
 27 25  1  0  0  0
 27 29  1  0  0  0
 31 30  1  0  0  0
 25 28  1  0  0  0
 40 38  2  0  0  0
 40 35  1  0  0  0
  5  6  2  0  0  0
 30 29  1  0  0  0
 34 35  1  0  0  0
 34  1  1  0  0  0
 38 36  1  0  0  0
 21  1  1  0  0  0
 21 20  1  0  0  0
 29 26  1  0  0  0
 28 20  1  0  0  0
 28 24  1  0  0  0
  2  1  1  0  0  0
  2  3  2  0  0  0
 35 39  2  0  0  0
 26 24  1  0  0  0
 20 22  2  0  0  0
  6  3  1  0  0  0
  6  8  1  0  0  0
 36 37  2  0  0  0
 39 37  1  0  0  0
 11  8  2  0  0  0
 11 13  1  0  0  0
  8 10  1  0  0  0
 13  9  2  0  0  0
 10 12  2  0  0  0
  9 12  1  0  0  0
  9 15  1  0  0  0
 16 14  2  0  0  0
 15 14  1  0  0  0
 14 19  1  0  0  0
 19 18  1  0  0  0
 31 32  1  0  0  0
 31 33  1  0  0  0
 15 17  1  0  0  0
 21 23  1  0  0  0
M  END
> <minimizedAffinity>
-8.60232

$$$$
5EXM_5ST_A_301


 40 43  0  0  0  0  0  0  0  0999 V2000
   40.2546  -20.5577   28.0117 C   0  0  0  0  0  0  0  0  0  0  0  0
   41.6862  -20.4257   27.4965 C   0  0  0  0  0  0  0  0  0  0  0  0
   42.7212  -20.6232   28.3949 C   0  0  0  0  0  0  0  0  0  0  0  0
   43.1626  -20.2723   25.7114 C   0  0  0  0  0  0  0  0  0  0  0  0
   44.2650  -20.4310   26.5518 C   0  0  0  0  0  0  0  0  0  0  0  0
   44.0316  -20.5672   27.9268 C   0  0  0  0  0  0  0  0  0  0  0  0
   41.8789  -20.2698   26.1556 N   0  0  0  0  0  0  0  0  0  0  0  0
   45.1365  -20.7873   28.8471 C   0  0  0  0  0  0  0  0  0  0  0  0
   47.3457  -21.1535   30.5799 C   0  0  0  0  0  0  0  0  0  0  0  0
   46.2273  -21.5843   28.4517 C   0  0  0  0  0  0  0  0  0  0  0  0
   45.1504  -20.1752   30.1119 C   0  0  0  0  0  0  0  0  0  0  0  0
   47.3177  -21.7854   29.3191 C   0  0  0  0  0  0  0  0  0  0  0  0
   46.2627  -20.3311   30.9610 C   0  0  0  0  0  0  0  0  0  0  0  0
   49.6782  -20.5818   31.3908 C   0  0  0  0  0  0  0  0  0  0  0  0
   48.4658  -21.3006   31.4172 N   0  0  0  0  0  0  0  0  0  0  0  0
   49.9563  -19.6691   30.6217 O   0  0  0  0  0  0  0  0  0  0  0  0
   48.3940  -21.9951   32.1112 H   0  0  0  0  0  0  0  0  0  0  0  0
   51.4706  -20.0461   32.9201 C   0  0  0  0  0  0  0  0  0  0  0  0
   50.5319  -20.9986   32.3905 O   0  0  0  0  0  0  0  0  0  0  0  0
   39.1873  -18.4190   28.6510 C   0  0  0  0  0  0  0  0  0  0  0  0
   39.4288  -19.4048   27.7218 N   0  0  0  0  0  0  0  0  0  0  0  0
   39.6288  -18.4392   29.7989 O   0  0  0  0  0  0  0  0  0  0  0  0
   39.0252  -19.3231   26.8276 H   0  0  0  0  0  0  0  0  0  0  0  0
   37.1417  -17.1047   29.1828 C   0  0  0  0  0  0  0  0  0  0  0  0
   39.0398  -16.0080   27.8369 C   0  0  0  0  0  0  0  0  0  0  0  0
   36.2220  -15.9190   28.8400 C   0  0  0  0  0  0  0  0  0  0  0  0
   38.0706  -14.8705   27.4531 C   0  0  0  0  0  0  0  0  0  0  0  0
   38.2799  -17.3123   28.1693 C   0  0  0  0  0  0  0  0  0  0  0  0
   37.0330  -14.6303   28.5711 C   0  0  0  0  0  0  0  0  0  0  0  0
   36.0961  -13.4483   28.2658 C   0  0  0  0  0  0  0  0  0  0  0  0
   36.7313  -12.5085   27.3881 N   0  0  0  0  0  0  0  0  0  0  0  0
   36.9636  -12.9686   26.5079 H   0  0  0  0  0  0  0  0  0  0  0  0
   37.5844  -12.1587   27.8244 H   0  0  0  0  0  0  0  0  0  0  0  0
   39.5633  -21.8439   27.4758 C   0  0  0  0  0  0  0  0  0  0  0  0
   38.5105  -21.5187   26.4290 C   0  0  0  0  0  0  0  0  0  0  0  0
   36.5295  -21.0583   24.4941 C   0  0  0  0  0  0  0  0  0  0  0  0
   36.2008  -21.0432   25.8549 C   0  0  0  0  0  0  0  0  0  0  0  0
   37.8522  -21.3236   24.0970 C   0  0  0  0  0  0  0  0  0  0  0  0
   37.1871  -21.2918   26.8170 C   0  0  0  0  0  0  0  0  0  0  0  0
   38.8422  -21.5611   25.0658 C   0  0  0  0  0  0  0  0  0  0  0  0
  4  7  2  0  0  0
  4  5  1  0  0  0
  7  2  1  0  0  0
 27 25  1  0  0  0
 27 29  1  0  0  0
 31 30  1  0  0  0
 25 28  1  0  0  0
 40 38  2  0  0  0
 40 35  1  0  0  0
  5  6  2  0  0  0
 30 29  1  0  0  0
 34 35  1  0  0  0
 34  1  1  0  0  0
 38 36  1  0  0  0
 21  1  1  0  0  0
 21 20  1  0  0  0
 29 26  1  0  0  0
 28 20  1  0  0  0
 28 24  1  0  0  0
  2  1  1  0  0  0
  2  3  2  0  0  0
 35 39  2  0  0  0
 26 24  1  0  0  0
 20 22  2  0  0  0
  6  3  1  0  0  0
  6  8  1  0  0  0
 36 37  2  0  0  0
 39 37  1  0  0  0
 11  8  2  0  0  0
 11 13  1  0  0  0
  8 10  1  0  0  0
 13  9  2  0  0  0
 10 12  2  0  0  0
  9 12  1  0  0  0
  9 15  1  0  0  0
 16 14  2  0  0  0
 15 14  1  0  0  0
 14 19  1  0  0  0
 19 18  1  0  0  0
 31 32  1  0  0  0
 31 33  1  0  0  0
 15 17  1  0  0  0
 21 23  1  0  0  0
M  END
> <minimizedAffinity>
-8.55738

$$$$
5EXM_5ST_A_301


 40 43  0  0  0  0  0  0  0  0999 V2000
   40.0417  -20.3883   27.3443 C   0  0  0  0  0  0  0  0  0  0  0  0
   40.7391  -21.1731   28.4535 C   0  0  0  0  0  0  0  0  0  0  0  0
   42.0617  -20.8712   28.7306 C   0  0  0  0  0  0  0  0  0  0  0  0
   40.6089  -22.6179   30.2660 C   0  0  0  0  0  0  0  0  0  0  0  0
   41.9464  -22.3963   30.5955 C   0  0  0  0  0  0  0  0  0  0  0  0
   42.6924  -21.5348   29.7800 C   0  0  0  0  0  0  0  0  0  0  0  0
   39.9901  -22.0218   29.2138 N   0  0  0  0  0  0  0  0  0  0  0  0
   44.0765  -21.2241   30.1020 C   0  0  0  0  0  0  0  0  0  0  0  0
   46.7924  -20.7208   30.7251 C   0  0  0  0  0  0  0  0  0  0  0  0
   44.5831  -21.5314   31.3789 C   0  0  0  0  0  0  0  0  0  0  0  0
   44.9296  -20.6621   29.1370 C   0  0  0  0  0  0  0  0  0  0  0  0
   45.9275  -21.2630   31.6986 C   0  0  0  0  0  0  0  0  0  0  0  0
   46.2876  -20.4410   29.4361 C   0  0  0  0  0  0  0  0  0  0  0  0
   49.2725  -21.1979   30.5102 C   0  0  0  0  0  0  0  0  0  0  0  0
   48.1509  -20.5164   31.0249 N   0  0  0  0  0  0  0  0  0  0  0  0
   49.2479  -22.0959   29.6765 O   0  0  0  0  0  0  0  0  0  0  0  0
   48.3437  -19.8058   31.6784 H   0  0  0  0  0  0  0  0  0  0  0  0
   50.4420  -19.3524   31.5420 C   0  0  0  0  0  0  0  0  0  0  0  0
   50.4477  -20.6960   31.0286 O   0  0  0  0  0  0  0  0  0  0  0  0
   38.3297  -18.7821   28.1260 C   0  0  0  0  0  0  0  0  0  0  0  0
   39.6233  -19.0636   27.7506 N   0  0  0  0  0  0  0  0  0  0  0  0
   37.4235  -19.6138   28.1309 O   0  0  0  0  0  0  0  0  0  0  0  0
   40.2883  -18.3376   27.7585 H   0  0  0  0  0  0  0  0  0  0  0  0
   38.3705  -16.4453   27.2702 C   0  0  0  0  0  0  0  0  0  0  0  0
   36.6824  -17.0975   29.0983 C   0  0  0  0  0  0  0  0  0  0  0  0
   38.0397  -14.9602   27.5032 C   0  0  0  0  0  0  0  0  0  0  0  0
   36.4268  -15.5978   29.3558 C   0  0  0  0  0  0  0  0  0  0  0  0
   38.0827  -17.3375   28.4895 C   0  0  0  0  0  0  0  0  0  0  0  0
   36.6089  -14.7776   28.0603 C   0  0  0  0  0  0  0  0  0  0  0  0
   36.2833  -13.2860   28.2528 C   0  0  0  0  0  0  0  0  0  0  0  0
   37.0807  -12.4738   27.3800 N   0  0  0  0  0  0  0  0  0  0  0  0
   36.8839  -12.7220   26.4104 H   0  0  0  0  0  0  0  0  0  0  0  0
   38.0690  -12.6315   27.5774 H   0  0  0  0  0  0  0  0  0  0  0  0
   40.9210  -20.2895   26.0650 C   0  0  0  0  0  0  0  0  0  0  0  0
   40.2346  -19.4824   24.9753 C   0  0  0  0  0  0  0  0  0  0  0  0
   38.8849  -17.9299   23.0652 C   0  0  0  0  0  0  0  0  0  0  0  0
   40.0062  -17.4140   23.7262 C   0  0  0  0  0  0  0  0  0  0  0  0
   38.4242  -19.2222   23.3740 C   0  0  0  0  0  0  0  0  0  0  0  0
   40.6660  -18.1835   24.6920 C   0  0  0  0  0  0  0  0  0  0  0  0
   39.0959  -19.9963   24.3355 C   0  0  0  0  0  0  0  0  0  0  0  0
  4  7  2  0  0  0
  4  5  1  0  0  0
  7  2  1  0  0  0
 27 25  1  0  0  0
 27 29  1  0  0  0
 31 30  1  0  0  0
 25 28  1  0  0  0
 40 38  2  0  0  0
 40 35  1  0  0  0
  5  6  2  0  0  0
 30 29  1  0  0  0
 34 35  1  0  0  0
 34  1  1  0  0  0
 38 36  1  0  0  0
 21  1  1  0  0  0
 21 20  1  0  0  0
 29 26  1  0  0  0
 28 20  1  0  0  0
 28 24  1  0  0  0
  2  1  1  0  0  0
  2  3  2  0  0  0
 35 39  2  0  0  0
 26 24  1  0  0  0
 20 22  2  0  0  0
  6  3  1  0  0  0
  6  8  1  0  0  0
 36 37  2  0  0  0
 39 37  1  0  0  0
 11  8  2  0  0  0
 11 13  1  0  0  0
  8 10  1  0  0  0
 13  9  2  0  0  0
 10 12  2  0  0  0
  9 12  1  0  0  0
  9 15  1  0  0  0
 16 14  2  0  0  0
 15 14  1  0  0  0
 14 19  1  0  0  0
 19 18  1  0  0  0
 31 32  1  0  0  0
 31 33  1  0  0  0
 15 17  1  0  0  0
 21 23  1  0  0  0
M  END
> <minimizedAffinity>
-8.43282

$$$$
5EXM_5ST_A_301


 40 43  0  0  0  0  0  0  0  0999 V2000
   39.7735  -24.6742   26.4344 C   0  0  0  0  0  0  0  0  0  0  0  0
   38.5215  -23.8274   26.2155 C   0  0  0  0  0  0  0  0  0  0  0  0
   38.5745  -22.4874   26.5603 C   0  0  0  0  0  0  0  0  0  0  0  0
   36.4144  -23.5805   25.2728 C   0  0  0  0  0  0  0  0  0  0  0  0
   36.3713  -22.2284   25.6139 C   0  0  0  0  0  0  0  0  0  0  0  0
   37.4617  -21.6887   26.3092 C   0  0  0  0  0  0  0  0  0  0  0  0
   37.4681  -24.3894   25.5569 N   0  0  0  0  0  0  0  0  0  0  0  0
   37.4978  -20.2743   26.6472 C   0  0  0  0  0  0  0  0  0  0  0  0
   37.4644  -17.5206   27.3053 C   0  0  0  0  0  0  0  0  0  0  0  0
   37.1379  -19.3155   25.6814 C   0  0  0  0  0  0  0  0  0  0  0  0
   37.8437  -19.8541   27.9427 C   0  0  0  0  0  0  0  0  0  0  0  0
   37.1405  -17.9442   25.9994 C   0  0  0  0  0  0  0  0  0  0  0  0
   37.7966  -18.4877   28.2793 C   0  0  0  0  0  0  0  0  0  0  0  0
   36.4835  -15.5056   28.4896 C   0  0  0  0  0  0  0  0  0  0  0  0
   37.4008  -16.1562   27.6396 N   0  0  0  0  0  0  0  0  0  0  0  0
   35.5738  -16.0424   29.1111 O   0  0  0  0  0  0  0  0  0  0  0  0
   38.0852  -15.5813   27.2269 H   0  0  0  0  0  0  0  0  0  0  0  0
   35.8573  -13.2348   27.9511 C   0  0  0  0  0  0  0  0  0  0  0  0
   36.7579  -14.1577   28.5883 O   0  0  0  0  0  0  0  0  0  0  0  0
   41.8397  -23.9069   27.5587 C   0  0  0  0  0  0  0  0  0  0  0  0
   40.5226  -24.3015   27.6155 N   0  0  0  0  0  0  0  0  0  0  0  0
   42.4931  -23.8555   26.5179 O   0  0  0  0  0  0  0  0  0  0  0  0
   40.0736  -24.3314   28.4912 H   0  0  0  0  0  0  0  0  0  0  0  0
   43.4056  -24.7209   29.3136 C   0  0  0  0  0  0  0  0  0  0  0  0
   43.1249  -22.1917   28.9382 C   0  0  0  0  0  0  0  0  0  0  0  0
   44.1731  -24.4359   30.6171 C   0  0  0  0  0  0  0  0  0  0  0  0
   43.8353  -21.9429   30.2851 C   0  0  0  0  0  0  0  0  0  0  0  0
   42.4558  -23.5845   28.8990 C   0  0  0  0  0  0  0  0  0  0  0  0
   44.8663  -23.0545   30.5777 C   0  0  0  0  0  0  0  0  0  0  0  0
   45.6576  -22.8025   31.8732 C   0  0  0  0  0  0  0  0  0  0  0  0
   44.8289  -22.1767   32.8626 N   0  0  0  0  0  0  0  0  0  0  0  0
   44.0415  -22.7869   33.0818 H   0  0  0  0  0  0  0  0  0  0  0  0
   44.4806  -21.2885   32.5020 H   0  0  0  0  0  0  0  0  0  0  0  0
   39.4430  -26.1934   26.4828 C   0  0  0  0  0  0  0  0  0  0  0  0
   40.5905  -26.9972   27.0723 C   0  0  0  0  0  0  0  0  0  0  0  0
   42.6406  -28.6027   28.1207 C   0  0  0  0  0  0  0  0  0  0  0  0
   42.6599  -28.2289   26.7715 C   0  0  0  0  0  0  0  0  0  0  0  0
   41.5808  -28.1873   28.9464 C   0  0  0  0  0  0  0  0  0  0  0  0
   41.6262  -27.4438   26.2470 C   0  0  0  0  0  0  0  0  0  0  0  0
   40.5508  -27.3895   28.4193 C   0  0  0  0  0  0  0  0  0  0  0  0
  4  7  2  0  0  0
  4  5  1  0  0  0
  7  2  1  0  0  0
 27 25  1  0  0  0
 27 29  1  0  0  0
 31 30  1  0  0  0
 25 28  1  0  0  0
 40 38  2  0  0  0
 40 35  1  0  0  0
  5  6  2  0  0  0
 30 29  1  0  0  0
 34 35  1  0  0  0
 34  1  1  0  0  0
 38 36  1  0  0  0
 21  1  1  0  0  0
 21 20  1  0  0  0
 29 26  1  0  0  0
 28 20  1  0  0  0
 28 24  1  0  0  0
  2  1  1  0  0  0
  2  3  2  0  0  0
 35 39  2  0  0  0
 26 24  1  0  0  0
 20 22  2  0  0  0
  6  3  1  0  0  0
  6  8  1  0  0  0
 36 37  2  0  0  0
 39 37  1  0  0  0
 11  8  2  0  0  0
 11 13  1  0  0  0
  8 10  1  0  0  0
 13  9  2  0  0  0
 10 12  2  0  0  0
  9 12  1  0  0  0
  9 15  1  0  0  0
 16 14  2  0  0  0
 15 14  1  0  0  0
 14 19  1  0  0  0
 19 18  1  0  0  0
 31 32  1  0  0  0
 31 33  1  0  0  0
 15 17  1  0  0  0
 21 23  1  0  0  0
M  END
> <minimizedAffinity>
-8.22388

$$$$
5EXM_5ST_A_301


 40 43  0  0  0  0  0  0  0  0999 V2000
   42.3951  -22.3309   30.1147 C   0  0  0  0  0  0  0  0  0  0  0  0
   41.9905  -21.4920   28.9042 C   0  0  0  0  0  0  0  0  0  0  0  0
   40.9348  -20.6079   29.0495 C   0  0  0  0  0  0  0  0  0  0  0  0
   42.4610  -20.7001   26.7732 C   0  0  0  0  0  0  0  0  0  0  0  0
   41.3943  -19.8021   26.8231 C   0  0  0  0  0  0  0  0  0  0  0  0
   40.5943  -19.7920   27.9736 C   0  0  0  0  0  0  0  0  0  0  0  0
   42.7765  -21.5425   27.7911 N   0  0  0  0  0  0  0  0  0  0  0  0
   39.4995  -18.8432   28.1059 C   0  0  0  0  0  0  0  0  0  0  0  0
   37.4378  -16.9191   28.3598 C   0  0  0  0  0  0  0  0  0  0  0  0
   39.3238  -18.1429   29.3142 C   0  0  0  0  0  0  0  0  0  0  0  0
   38.6410  -18.5819   27.0245 C   0  0  0  0  0  0  0  0  0  0  0  0
   38.2866  -17.2008   29.4506 C   0  0  0  0  0  0  0  0  0  0  0  0
   37.6359  -17.6027   27.1399 C   0  0  0  0  0  0  0  0  0  0  0  0
   36.5669  -14.5404   28.2677 C   0  0  0  0  0  0  0  0  0  0  0  0
   36.4457  -15.9294   28.4761 N   0  0  0  0  0  0  0  0  0  0  0  0
   37.5843  -13.9515   27.9216 O   0  0  0  0  0  0  0  0  0  0  0  0
   35.5512  -16.2475   28.7367 H   0  0  0  0  0  0  0  0  0  0  0  0
   34.5384  -14.3101   29.5602 C   0  0  0  0  0  0  0  0  0  0  0  0
   35.3620  -13.8966   28.4559 O   0  0  0  0  0  0  0  0  0  0  0  0
   42.9669  -24.7090   29.7415 C   0  0  0  0  0  0  0  0  0  0  0  0
   43.3356  -23.3845   29.7979 N   0  0  0  0  0  0  0  0  0  0  0  0
   41.8273  -25.1112   29.9710 O   0  0  0  0  0  0  0  0  0  0  0  0
   44.2730  -23.1448   29.6162 H   0  0  0  0  0  0  0  0  0  0  0  0
   45.1772  -25.5563   30.5104 C   0  0  0  0  0  0  0  0  0  0  0  0
   43.6146  -27.1103   29.1836 C   0  0  0  0  0  0  0  0  0  0  0  0
   46.3221  -26.5707   30.3379 C   0  0  0  0  0  0  0  0  0  0  0  0
   44.8020  -28.0717   28.9682 C   0  0  0  0  0  0  0  0  0  0  0  0
   44.0949  -25.6607   29.4225 C   0  0  0  0  0  0  0  0  0  0  0  0
   45.7843  -28.0091   30.1579 C   0  0  0  0  0  0  0  0  0  0  0  0
   46.9426  -29.0131   30.0233 C   0  0  0  0  0  0  0  0  0  0  0  0
   47.3253  -29.5245   31.3075 N   0  0  0  0  0  0  0  0  0  0  0  0
   46.5323  -30.0055   31.7320 H   0  0  0  0  0  0  0  0  0  0  0  0
   47.6160  -28.7528   31.9079 H   0  0  0  0  0  0  0  0  0  0  0  0
   42.9637  -21.4508   31.2643 C   0  0  0  0  0  0  0  0  0  0  0  0
   44.4826  -21.4058   31.2357 C   0  0  0  0  0  0  0  0  0  0  0  0
   47.2833  -21.2217   31.2869 C   0  0  0  0  0  0  0  0  0  0  0  0
   46.6186  -22.0830   32.1681 C   0  0  0  0  0  0  0  0  0  0  0  0
   46.5430  -20.4338   30.3876 C   0  0  0  0  0  0  0  0  0  0  0  0
   45.2207  -22.1588   32.1532 C   0  0  0  0  0  0  0  0  0  0  0  0
   45.1405  -20.5210   30.3672 C   0  0  0  0  0  0  0  0  0  0  0  0
  4  7  2  0  0  0
  4  5  1  0  0  0
  7  2  1  0  0  0
 27 25  1  0  0  0
 27 29  1  0  0  0
 31 30  1  0  0  0
 25 28  1  0  0  0
 40 38  2  0  0  0
 40 35  1  0  0  0
  5  6  2  0  0  0
 30 29  1  0  0  0
 34 35  1  0  0  0
 34  1  1  0  0  0
 38 36  1  0  0  0
 21  1  1  0  0  0
 21 20  1  0  0  0
 29 26  1  0  0  0
 28 20  1  0  0  0
 28 24  1  0  0  0
  2  1  1  0  0  0
  2  3  2  0  0  0
 35 39  2  0  0  0
 26 24  1  0  0  0
 20 22  2  0  0  0
  6  3  1  0  0  0
  6  8  1  0  0  0
 36 37  2  0  0  0
 39 37  1  0  0  0
 11  8  2  0  0  0
 11 13  1  0  0  0
  8 10  1  0  0  0
 13  9  2  0  0  0
 10 12  2  0  0  0
  9 12  1  0  0  0
  9 15  1  0  0  0
 16 14  2  0  0  0
 15 14  1  0  0  0
 14 19  1  0  0  0
 19 18  1  0  0  0
 31 32  1  0  0  0
 31 33  1  0  0  0
 15 17  1  0  0  0
 21 23  1  0  0  0
M  END
> <minimizedAffinity>
-8.13246

$$$$
5EXM_5ST_A_301


 40 43  0  0  0  0  0  0  0  0999 V2000
   39.2580  -22.9633   27.4705 C   0  0  0  0  0  0  0  0  0  0  0  0
   40.2529  -23.5330   28.4795 C   0  0  0  0  0  0  0  0  0  0  0  0
   41.4590  -22.8737   28.6465 C   0  0  0  0  0  0  0  0  0  0  0  0
   40.7115  -24.9781   30.2376 C   0  0  0  0  0  0  0  0  0  0  0  0
   41.9594  -24.3922   30.4523 C   0  0  0  0  0  0  0  0  0  0  0  0
   42.3504  -23.3453   29.6069 C   0  0  0  0  0  0  0  0  0  0  0  0
   39.8500  -24.5678   29.2708 N   0  0  0  0  0  0  0  0  0  0  0  0
   43.6173  -22.6607   29.8132 C   0  0  0  0  0  0  0  0  0  0  0  0
   46.0871  -21.3089   30.1129 C   0  0  0  0  0  0  0  0  0  0  0  0
   44.8143  -23.2590   29.3765 C   0  0  0  0  0  0  0  0  0  0  0  0
   43.6570  -21.3857   30.4027 C   0  0  0  0  0  0  0  0  0  0  0  0
   46.0463  -22.5986   29.5431 C   0  0  0  0  0  0  0  0  0  0  0  0
   44.8807  -20.6998   30.5230 C   0  0  0  0  0  0  0  0  0  0  0  0
   48.3762  -20.8646   31.1066 C   0  0  0  0  0  0  0  0  0  0  0  0
   47.3101  -20.6227   30.2166 N   0  0  0  0  0  0  0  0  0  0  0  0
   48.4213  -21.7527   31.9499 O   0  0  0  0  0  0  0  0  0  0  0  0
   47.4383  -19.8772   29.5865 H   0  0  0  0  0  0  0  0  0  0  0  0
   50.3813  -19.8071   31.9432 C   0  0  0  0  0  0  0  0  0  0  0  0
   49.4220  -19.9927   30.8876 O   0  0  0  0  0  0  0  0  0  0  0  0
   38.1458  -20.7750   27.1598 C   0  0  0  0  0  0  0  0  0  0  0  0
   39.2806  -21.5182   27.3912 N   0  0  0  0  0  0  0  0  0  0  0  0
   37.0320  -21.2661   26.9828 O   0  0  0  0  0  0  0  0  0  0  0  0
   40.1389  -21.0501   27.5071 H   0  0  0  0  0  0  0  0  0  0  0  0
   37.4981  -18.6849   25.9739 C   0  0  0  0  0  0  0  0  0  0  0  0
   38.2000  -18.5752   28.4462 C   0  0  0  0  0  0  0  0  0  0  0  0
   37.5757  -17.1498   25.8903 C   0  0  0  0  0  0  0  0  0  0  0  0
   38.3371  -17.0446   28.3088 C   0  0  0  0  0  0  0  0  0  0  0  0
   38.3770  -19.2848   27.0844 C   0  0  0  0  0  0  0  0  0  0  0  0
   37.3371  -16.4930   27.2695 C   0  0  0  0  0  0  0  0  0  0  0  0
   37.3824  -14.9588   27.1598 C   0  0  0  0  0  0  0  0  0  0  0  0
   37.7100  -14.3672   28.4247 N   0  0  0  0  0  0  0  0  0  0  0  0
   38.6282  -14.6941   28.7254 H   0  0  0  0  0  0  0  0  0  0  0  0
   37.0103  -14.6353   29.1168 H   0  0  0  0  0  0  0  0  0  0  0  0
   39.4623  -23.5679   26.0520 C   0  0  0  0  0  0  0  0  0  0  0  0
   38.3046  -24.4695   25.6559 C   0  0  0  0  0  0  0  0  0  0  0  0
   36.2382  -26.1671   24.8025 C   0  0  0  0  0  0  0  0  0  0  0  0
   37.3241  -26.6853   25.5184 C   0  0  0  0  0  0  0  0  0  0  0  0
   36.1939  -24.7956   24.4950 C   0  0  0  0  0  0  0  0  0  0  0  0
   38.3625  -25.8395   25.9264 C   0  0  0  0  0  0  0  0  0  0  0  0
   37.2321  -23.9473   24.9162 C   0  0  0  0  0  0  0  0  0  0  0  0
  4  7  2  0  0  0
  4  5  1  0  0  0
  7  2  1  0  0  0
 27 25  1  0  0  0
 27 29  1  0  0  0
 31 30  1  0  0  0
 25 28  1  0  0  0
 40 38  2  0  0  0
 40 35  1  0  0  0
  5  6  2  0  0  0
 30 29  1  0  0  0
 34 35  1  0  0  0
 34  1  1  0  0  0
 38 36  1  0  0  0
 21  1  1  0  0  0
 21 20  1  0  0  0
 29 26  1  0  0  0
 28 20  1  0  0  0
 28 24  1  0  0  0
  2  1  1  0  0  0
  2  3  2  0  0  0
 35 39  2  0  0  0
 26 24  1  0  0  0
 20 22  2  0  0  0
  6  3  1  0  0  0
  6  8  1  0  0  0
 36 37  2  0  0  0
 39 37  1  0  0  0
 11  8  2  0  0  0
 11 13  1  0  0  0
  8 10  1  0  0  0
 13  9  2  0  0  0
 10 12  2  0  0  0
  9 12  1  0  0  0
  9 15  1  0  0  0
 16 14  2  0  0  0
 15 14  1  0  0  0
 14 19  1  0  0  0
 19 18  1  0  0  0
 31 32  1  0  0  0
 31 33  1  0  0  0
 15 17  1  0  0  0
 21 23  1  0  0  0
M  END
> <minimizedAffinity>
-7.85908

$$$$
5EXM_5ST_A_301


 40 43  0  0  0  0  0  0  0  0999 V2000
   42.7626  -22.1348   29.0606 C   0  0  0  0  0  0  0  0  0  0  0  0
   41.3366  -21.9648   28.5409 C   0  0  0  0  0  0  0  0  0  0  0  0
   40.7641  -20.7061   28.6130 C   0  0  0  0  0  0  0  0  0  0  0  0
   39.5318  -22.8012   27.3438 C   0  0  0  0  0  0  0  0  0  0  0  0
   38.8693  -21.5746   27.3995 C   0  0  0  0  0  0  0  0  0  0  0  0
   39.4880  -20.5217   28.0868 C   0  0  0  0  0  0  0  0  0  0  0  0
   40.7534  -23.0163   27.8978 N   0  0  0  0  0  0  0  0  0  0  0  0
   38.8709  -19.2053   28.1355 C   0  0  0  0  0  0  0  0  0  0  0  0
   37.5798  -16.6882   28.2560 C   0  0  0  0  0  0  0  0  0  0  0  0
   37.9676  -18.8192   27.1273 C   0  0  0  0  0  0  0  0  0  0  0  0
   39.1300  -18.3297   29.2035 C   0  0  0  0  0  0  0  0  0  0  0  0
   37.3400  -17.5599   27.1733 C   0  0  0  0  0  0  0  0  0  0  0  0
   38.4643  -17.0914   29.2805 C   0  0  0  0  0  0  0  0  0  0  0  0
   35.6636  -15.1817   28.9515 C   0  0  0  0  0  0  0  0  0  0  0  0
   36.9007  -15.4595   28.3352 N   0  0  0  0  0  0  0  0  0  0  0  0
   34.9641  -15.9871   29.5548 O   0  0  0  0  0  0  0  0  0  0  0  0
   37.3467  -14.6945   27.9048 H   0  0  0  0  0  0  0  0  0  0  0  0
   35.9278  -13.0904   27.7705 C   0  0  0  0  0  0  0  0  0  0  0  0
   35.3345  -13.8472   28.8401 O   0  0  0  0  0  0  0  0  0  0  0  0
   44.7162  -22.6485   27.6318 C   0  0  0  0  0  0  0  0  0  0  0  0
   43.7760  -21.7585   28.0981 N   0  0  0  0  0  0  0  0  0  0  0  0
   44.7902  -23.8197   28.0006 O   0  0  0  0  0  0  0  0  0  0  0  0
   43.7932  -20.8323   27.7649 H   0  0  0  0  0  0  0  0  0  0  0  0
   45.6381  -20.5254   26.7169 C   0  0  0  0  0  0  0  0  0  0  0  0
   47.1375  -22.6122   26.8361 C   0  0  0  0  0  0  0  0  0  0  0  0
   46.6903  -19.8274   25.8365 C   0  0  0  0  0  0  0  0  0  0  0  0
   48.1381  -21.9108   25.8941 C   0  0  0  0  0  0  0  0  0  0  0  0
   45.7051  -22.0607   26.6537 C   0  0  0  0  0  0  0  0  0  0  0  0
   48.1096  -20.3808   26.1008 C   0  0  0  0  0  0  0  0  0  0  0  0
   49.1519  -19.6471   25.2388 C   0  0  0  0  0  0  0  0  0  0  0  0
   49.6051  -18.4539   25.8932 N   0  0  0  0  0  0  0  0  0  0  0  0
   50.0402  -18.6984   26.7828 H   0  0  0  0  0  0  0  0  0  0  0  0
   48.8113  -17.8359   26.0614 H   0  0  0  0  0  0  0  0  0  0  0  0
   42.9902  -21.3592   30.3896 C   0  0  0  0  0  0  0  0  0  0  0  0
   44.4481  -21.3979   30.8174 C   0  0  0  0  0  0  0  0  0  0  0  0
   47.1749  -21.5144   31.4740 C   0  0  0  0  0  0  0  0  0  0  0  0
   46.6407  -20.3598   30.8894 C   0  0  0  0  0  0  0  0  0  0  0  0
   46.3455  -22.6243   31.7146 C   0  0  0  0  0  0  0  0  0  0  0  0
   45.2844  -20.3114   30.5458 C   0  0  0  0  0  0  0  0  0  0  0  0
   44.9819  -22.5681   31.3791 C   0  0  0  0  0  0  0  0  0  0  0  0
  4  7  2  0  0  0
  4  5  1  0  0  0
  7  2  1  0  0  0
 27 25  1  0  0  0
 27 29  1  0  0  0
 31 30  1  0  0  0
 25 28  1  0  0  0
 40 38  2  0  0  0
 40 35  1  0  0  0
  5  6  2  0  0  0
 30 29  1  0  0  0
 34 35  1  0  0  0
 34  1  1  0  0  0
 38 36  1  0  0  0
 21  1  1  0  0  0
 21 20  1  0  0  0
 29 26  1  0  0  0
 28 20  1  0  0  0
 28 24  1  0  0  0
  2  1  1  0  0  0
  2  3  2  0  0  0
 35 39  2  0  0  0
 26 24  1  0  0  0
 20 22  2  0  0  0
  6  3  1  0  0  0
  6  8  1  0  0  0
 36 37  2  0  0  0
 39 37  1  0  0  0
 11  8  2  0  0  0
 11 13  1  0  0  0
  8 10  1  0  0  0
 13  9  2  0  0  0
 10 12  2  0  0  0
  9 12  1  0  0  0
  9 15  1  0  0  0
 16 14  2  0  0  0
 15 14  1  0  0  0
 14 19  1  0  0  0
 19 18  1  0  0  0
 31 32  1  0  0  0
 31 33  1  0  0  0
 15 17  1  0  0  0
 21 23  1  0  0  0
M  END
> <minimizedAffinity>
-7.83023

$$$$
5EXM_5ST_A_301


 40 43  0  0  0  0  0  0  0  0999 V2000
   41.8998  -22.4413   27.7137 C   0  0  0  0  0  0  0  0  0  0  0  0
   41.4589  -21.2360   26.8859 C   0  0  0  0  0  0  0  0  0  0  0  0
   40.4913  -20.4007   27.4180 C   0  0  0  0  0  0  0  0  0  0  0  0
   41.8044  -19.8143   25.0834 C   0  0  0  0  0  0  0  0  0  0  0  0
   40.8187  -18.9343   25.5313 C   0  0  0  0  0  0  0  0  0  0  0  0
   40.1237  -19.2638   26.7027 C   0  0  0  0  0  0  0  0  0  0  0  0
   42.1401  -20.9561   25.7383 N   0  0  0  0  0  0  0  0  0  0  0  0
   39.1212  -18.3615   27.2475 C   0  0  0  0  0  0  0  0  0  0  0  0
   37.2359  -16.5263   28.2940 C   0  0  0  0  0  0  0  0  0  0  0  0
   39.3023  -17.8071   28.5287 C   0  0  0  0  0  0  0  0  0  0  0  0
   37.9942  -17.9988   26.4906 C   0  0  0  0  0  0  0  0  0  0  0  0
   38.3561  -16.9106   29.0603 C   0  0  0  0  0  0  0  0  0  0  0  0
   37.0731  -17.0622   26.9975 C   0  0  0  0  0  0  0  0  0  0  0  0
   36.1892  -14.2225   28.4421 C   0  0  0  0  0  0  0  0  0  0  0  0
   36.3277  -15.5792   28.7993 N   0  0  0  0  0  0  0  0  0  0  0  0
   36.8458  -13.6322   27.5922 O   0  0  0  0  0  0  0  0  0  0  0  0
   35.7088  -15.9056   29.4919 H   0  0  0  0  0  0  0  0  0  0  0  0
   34.1678  -14.4630   29.7438 C   0  0  0  0  0  0  0  0  0  0  0  0
   35.1663  -13.6195   29.1435 O   0  0  0  0  0  0  0  0  0  0  0  0
   42.8595  -21.6645   29.8578 C   0  0  0  0  0  0  0  0  0  0  0  0
   43.0212  -22.1632   28.5856 N   0  0  0  0  0  0  0  0  0  0  0  0
   41.7657  -21.3963   30.3525 O   0  0  0  0  0  0  0  0  0  0  0  0
   43.9326  -22.3371   28.2564 H   0  0  0  0  0  0  0  0  0  0  0  0
   45.0386  -22.6670   30.5219 C   0  0  0  0  0  0  0  0  0  0  0  0
   44.8732  -20.1281   30.1432 C   0  0  0  0  0  0  0  0  0  0  0  0
   46.4285  -22.4758   31.1551 C   0  0  0  0  0  0  0  0  0  0  0  0
   46.2364  -19.9642   30.8471 C   0  0  0  0  0  0  0  0  0  0  0  0
   44.1495  -21.4146   30.6018 C   0  0  0  0  0  0  0  0  0  0  0  0
   47.1269  -21.2048   30.6189 C   0  0  0  0  0  0  0  0  0  0  0  0
   48.5283  -21.0496   31.2354 C   0  0  0  0  0  0  0  0  0  0  0  0
   49.5270  -21.6239   30.3810 N   0  0  0  0  0  0  0  0  0  0  0  0
   49.5189  -21.1464   29.4798 H   0  0  0  0  0  0  0  0  0  0  0  0
   49.3273  -22.6146   30.2427 H   0  0  0  0  0  0  0  0  0  0  0  0
   40.7256  -23.0329   28.5449 C   0  0  0  0  0  0  0  0  0  0  0  0
   40.7263  -24.5524   28.5117 C   0  0  0  0  0  0  0  0  0  0  0  0
   40.5864  -27.3559   28.4834 C   0  0  0  0  0  0  0  0  0  0  0  0
   40.2770  -26.6244   27.3304 C   0  0  0  0  0  0  0  0  0  0  0  0
   40.9496  -26.6818   29.6629 C   0  0  0  0  0  0  0  0  0  0  0  0
   40.3294  -25.2255   27.3528 C   0  0  0  0  0  0  0  0  0  0  0  0
   41.0126  -25.2779   29.6786 C   0  0  0  0  0  0  0  0  0  0  0  0
  4  7  2  0  0  0
  4  5  1  0  0  0
  7  2  1  0  0  0
 27 25  1  0  0  0
 27 29  1  0  0  0
 31 30  1  0  0  0
 25 28  1  0  0  0
 40 38  2  0  0  0
 40 35  1  0  0  0
  5  6  2  0  0  0
 30 29  1  0  0  0
 34 35  1  0  0  0
 34  1  1  0  0  0
 38 36  1  0  0  0
 21  1  1  0  0  0
 21 20  1  0  0  0
 29 26  1  0  0  0
 28 20  1  0  0  0
 28 24  1  0  0  0
  2  1  1  0  0  0
  2  3  2  0  0  0
 35 39  2  0  0  0
 26 24  1  0  0  0
 20 22  2  0  0  0
  6  3  1  0  0  0
  6  8  1  0  0  0
 36 37  2  0  0  0
 39 37  1  0  0  0
 11  8  2  0  0  0
 11 13  1  0  0  0
  8 10  1  0  0  0
 13  9  2  0  0  0
 10 12  2  0  0  0
  9 12  1  0  0  0
  9 15  1  0  0  0
 16 14  2  0  0  0
 15 14  1  0  0  0
 14 19  1  0  0  0
 19 18  1  0  0  0
 31 32  1  0  0  0
 31 33  1  0  0  0
 15 17  1  0  0  0
 21 23  1  0  0  0
M  END
> <minimizedAffinity>
-7.60507

$$$$
5EXM_5ST_A_301


 40 43  0  0  0  0  0  0  0  0999 V2000
   40.9371  -25.0890   27.5861 C   0  0  0  0  0  0  0  0  0  0  0  0
   39.7100  -24.3793   27.0179 C   0  0  0  0  0  0  0  0  0  0  0  0
   39.5247  -23.0448   27.3375 C   0  0  0  0  0  0  0  0  0  0  0  0
   37.9261  -24.3507   25.5324 C   0  0  0  0  0  0  0  0  0  0  0  0
   37.6485  -23.0144   25.8222 C   0  0  0  0  0  0  0  0  0  0  0  0
   38.4444  -22.3678   26.7772 C   0  0  0  0  0  0  0  0  0  0  0  0
   38.9419  -25.0446   26.1086 N   0  0  0  0  0  0  0  0  0  0  0  0
   38.2369  -20.9611   27.0842 C   0  0  0  0  0  0  0  0  0  0  0  0
   37.9290  -18.2034   27.6477 C   0  0  0  0  0  0  0  0  0  0  0  0
   38.8980  -20.3805   28.1829 C   0  0  0  0  0  0  0  0  0  0  0  0
   37.4190  -20.1610   26.2683 C   0  0  0  0  0  0  0  0  0  0  0  0
   38.7305  -19.0143   28.4782 C   0  0  0  0  0  0  0  0  0  0  0  0
   37.2908  -18.7834   26.5293 C   0  0  0  0  0  0  0  0  0  0  0  0
   38.7825  -15.8173   27.7072 C   0  0  0  0  0  0  0  0  0  0  0  0
   37.8170  -16.8254   27.9045 N   0  0  0  0  0  0  0  0  0  0  0  0
   39.9069  -15.9789   27.2473 O   0  0  0  0  0  0  0  0  0  0  0  0
   36.9528  -16.5260   28.2690 H   0  0  0  0  0  0  0  0  0  0  0  0
   36.8754  -14.3534   27.9492 C   0  0  0  0  0  0  0  0  0  0  0  0
   38.2924  -14.5763   28.0557 O   0  0  0  0  0  0  0  0  0  0  0  0
   43.1282  -24.1538   28.2545 C   0  0  0  0  0  0  0  0  0  0  0  0
   41.7640  -24.2372   28.4143 N   0  0  0  0  0  0  0  0  0  0  0  0
   43.7589  -24.8004   27.4196 O   0  0  0  0  0  0  0  0  0  0  0  0
   41.3349  -23.6981   29.1174 H   0  0  0  0  0  0  0  0  0  0  0  0
   43.9373  -23.9292   30.5975 C   0  0  0  0  0  0  0  0  0  0  0  0
   45.1698  -22.6960   28.7061 C   0  0  0  0  0  0  0  0  0  0  0  0
   44.7296  -23.1150   31.6361 C   0  0  0  0  0  0  0  0  0  0  0  0
   45.8945  -21.8475   29.7717 C   0  0  0  0  0  0  0  0  0  0  0  0
   43.8186  -23.2325   29.2314 C   0  0  0  0  0  0  0  0  0  0  0  0
   46.0937  -22.6521   31.0745 C   0  0  0  0  0  0  0  0  0  0  0  0
   46.8863  -21.8714   32.1376 C   0  0  0  0  0  0  0  0  0  0  0  0
   47.7060  -22.7563   32.9136 N   0  0  0  0  0  0  0  0  0  0  0  0
   48.3710  -23.2285   32.3011 H   0  0  0  0  0  0  0  0  0  0  0  0
   47.1164  -23.4496   33.3742 H   0  0  0  0  0  0  0  0  0  0  0  0
   40.5494  -26.3706   28.3777 C   0  0  0  0  0  0  0  0  0  0  0  0
   41.5946  -27.4628   28.2209 C   0  0  0  0  0  0  0  0  0  0  0  0
   43.6210  -29.3778   27.8943 C   0  0  0  0  0  0  0  0  0  0  0  0
   43.4693  -28.7158   29.1187 C   0  0  0  0  0  0  0  0  0  0  0  0
   42.7670  -29.0675   26.8210 C   0  0  0  0  0  0  0  0  0  0  0  0
   42.4697  -27.7477   29.2728 C   0  0  0  0  0  0  0  0  0  0  0  0
   41.7572  -28.1035   26.9828 C   0  0  0  0  0  0  0  0  0  0  0  0
  4  7  2  0  0  0
  4  5  1  0  0  0
  7  2  1  0  0  0
 27 25  1  0  0  0
 27 29  1  0  0  0
 31 30  1  0  0  0
 25 28  1  0  0  0
 40 38  2  0  0  0
 40 35  1  0  0  0
  5  6  2  0  0  0
 30 29  1  0  0  0
 34 35  1  0  0  0
 34  1  1  0  0  0
 38 36  1  0  0  0
 21  1  1  0  0  0
 21 20  1  0  0  0
 29 26  1  0  0  0
 28 20  1  0  0  0
 28 24  1  0  0  0
  2  1  1  0  0  0
  2  3  2  0  0  0
 35 39  2  0  0  0
 26 24  1  0  0  0
 20 22  2  0  0  0
  6  3  1  0  0  0
  6  8  1  0  0  0
 36 37  2  0  0  0
 39 37  1  0  0  0
 11  8  2  0  0  0
 11 13  1  0  0  0
  8 10  1  0  0  0
 13  9  2  0  0  0
 10 12  2  0  0  0
  9 12  1  0  0  0
  9 15  1  0  0  0
 16 14  2  0  0  0
 15 14  1  0  0  0
 14 19  1  0  0  0
 19 18  1  0  0  0
 31 32  1  0  0  0
 31 33  1  0  0  0
 15 17  1  0  0  0
 21 23  1  0  0  0
M  END
> <minimizedAffinity>
-7.22362

$$$$
