3ARQ_DM5_A_606


 42 46  0  0  0  0  0  0  0  0999 V2000
   16.2086  -12.2751   17.6312 C   0  0  0  0  0  0  0  0  0  0  0  0
   17.3441  -12.7335   16.9094 C   0  0  0  0  0  0  0  0  0  0  0  0
   18.6469  -12.4612   17.3169 C   0  0  0  0  0  0  0  0  0  0  0  0
   18.8416  -11.6707   18.4575 C   0  0  0  0  0  0  0  0  0  0  0  0
   17.7215  -11.1915   19.1946 C   0  0  0  0  0  0  0  0  0  0  0  0
   17.9113  -10.4244   20.3417 C   0  0  0  0  0  0  0  0  0  0  0  0
   19.0494  -10.1348   20.7461 O   0  0  0  0  0  0  0  0  0  0  0  0
   16.7841   -9.9568   21.0740 C   0  0  0  0  0  0  0  0  0  0  0  0
   17.0297   -9.1344   22.2023 C   0  0  0  0  0  0  0  0  0  0  0  0
   18.2298   -8.9094   22.4471 O   0  0  0  0  0  0  0  0  0  0  0  0
   15.9019   -8.6454   22.9034 C   0  0  0  0  0  0  0  0  0  0  0  0
   16.1446   -7.7111   24.1111 C   0  0  0  0  0  0  0  0  0  0  0  0
   14.9117   -7.2111   24.9012 C   0  0  0  0  0  0  0  0  0  0  0  0
   13.6275   -7.0776   24.0378 C   0  0  0  0  0  0  0  0  0  0  0  0
   13.9431   -5.9235   23.1268 O   0  0  0  0  0  0  0  0  0  0  0  0
   13.3771   -8.3835   23.2827 C   0  0  0  0  0  0  0  0  0  0  0  0
   14.6242   -8.9388   22.5092 C   0  0  0  0  0  0  0  0  0  0  0  0
   14.3878   -9.7260   21.4093 C   0  0  0  0  0  0  0  0  0  0  0  0
   13.0967   -9.9260   21.0299 O   0  0  0  0  0  0  0  0  0  0  0  0
   15.5041  -10.2207   20.6738 C   0  0  0  0  0  0  0  0  0  0  0  0
   15.3275  -11.0064   19.5244 C   0  0  0  0  0  0  0  0  0  0  0  0
   14.1893  -11.2564   19.0854 O   0  0  0  0  0  0  0  0  0  0  0  0
   16.4246  -11.4978   18.7917 C   0  0  0  0  0  0  0  0  0  0  0  0
   18.8968   -9.2904   21.9105 H   0  0  0  0  0  0  0  0  0  0  0  0
   14.0922   -5.1248   23.6567 H   0  0  0  0  0  0  0  0  0  0  0  0
   12.3971   -9.5799   21.5484 H   0  0  0  0  0  0  0  0  0  0  0  0
   12.3493   -6.8105   24.8644 C   0  0  0  0  0  0  0  0  0  0  0  0
   11.5106   -6.0139   24.4220 O   0  0  0  0  0  0  0  0  0  0  0  0
   12.1101   -7.4689   26.2691 C   0  0  0  0  0  0  0  0  0  0  0  0
   16.5309   -6.4280   23.3988 O   0  0  0  0  0  0  0  0  0  0  0  0
   17.0606   -5.4452   24.3688 C   0  0  0  0  0  0  0  0  0  0  0  0
   17.8874   -6.2362   25.4709 C   0  0  0  0  0  0  0  0  0  0  0  0
   19.1671   -6.8024   24.7973 C   0  0  0  0  0  0  0  0  0  0  0  0
   20.0059   -7.5532   25.7869 N   0  0  0  0  0  0  0  0  0  0  0  0
   20.0075   -5.6883   24.1100 C   0  0  0  0  0  0  0  0  0  0  0  0
   20.5174   -4.7809   25.1253 O   0  0  0  0  0  0  0  0  0  0  0  0
   19.1442   -4.9475   23.0470 C   0  0  0  0  0  0  0  0  0  0  0  0
   17.8470   -4.4900   23.5661 O   0  0  0  0  0  0  0  0  0  0  0  0
   19.8580   -3.7309   22.3827 C   0  0  0  0  0  0  0  0  0  0  0  0
   20.3194   -6.9164   26.5193 H   0  0  0  0  0  0  0  0  0  0  0  0
   20.8164   -7.9515   25.3127 H   0  0  0  0  0  0  0  0  0  0  0  0
   19.7745   -4.3794   25.6026 H   0  0  0  0  0  0  0  0  0  0  0  0
  1  2  2  0  0  0
  1 23  1  0  0  0
  2  3  1  0  0  0
  3  4  2  0  0  0
  4  5  1  0  0  0
  5  6  1  0  0  0
  5 23  2  0  0  0
  6  7  2  0  0  0
  6  8  1  0  0  0
  8  9  2  0  0  0
  8 20  1  0  0  0
  9 10  1  0  0  0
  9 11  1  0  0  0
 11 12  1  0  0  0
 11 17  2  0  0  0
 12 30  1  0  0  0
 12 13  1  0  0  0
 30 31  1  0  0  0
 13 14  1  0  0  0
 14 15  1  0  0  0
 14 27  1  0  0  0
 14 16  1  0  0  0
 27 28  2  0  0  0
 27 29  1  0  0  0
 16 17  1  0  0  0
 17 18  1  0  0  0
 18 19  1  0  0  0
 18 20  2  0  0  0
 20 21  1  0  0  0
 21 22  2  0  0  0
 21 23  1  0  0  0
 31 32  1  0  0  0
 31 38  1  0  0  0
 32 33  1  0  0  0
 33 34  1  0  0  0
 33 35  1  0  0  0
 35 36  1  0  0  0
 35 37  1  0  0  0
 37 38  1  0  0  0
 37 39  1  0  0  0
 10 24  1  0  0  0
 15 25  1  0  0  0
 19 26  1  0  0  0
 34 40  1  0  0  0
 34 41  1  0  0  0
 36 42  1  0  0  0
M  END
> <minimizedAffinity>
-12.98849

$$$$
3ARQ_DM5_A_606


 42 46  0  0  0  0  0  0  0  0999 V2000
   14.8726   -8.4863   23.3147 C   0  0  0  0  0  0  0  0  0  0  0  0
   15.5091   -7.8086   24.3898 C   0  0  0  0  0  0  0  0  0  0  0  0
   16.8934   -7.7046   24.4909 C   0  0  0  0  0  0  0  0  0  0  0  0
   17.6858   -8.3279   23.5178 C   0  0  0  0  0  0  0  0  0  0  0  0
   17.0742   -9.0206   22.4344 C   0  0  0  0  0  0  0  0  0  0  0  0
   17.8583   -9.6223   21.4528 C   0  0  0  0  0  0  0  0  0  0  0  0
   19.0988   -9.5775   21.4973 O   0  0  0  0  0  0  0  0  0  0  0  0
   17.2355  -10.3059   20.3711 C   0  0  0  0  0  0  0  0  0  0  0  0
   18.0776  -10.9479   19.4286 C   0  0  0  0  0  0  0  0  0  0  0  0
   19.2993  -10.8374   19.6428 O   0  0  0  0  0  0  0  0  0  0  0  0
   17.4488  -11.6549   18.3762 C   0  0  0  0  0  0  0  0  0  0  0  0
   18.3466  -12.3992   17.3612 C   0  0  0  0  0  0  0  0  0  0  0  0
   17.6584  -13.1369   16.1879 C   0  0  0  0  0  0  0  0  0  0  0  0
   16.2367  -13.6622   16.5272 C   0  0  0  0  0  0  0  0  0  0  0  0
   16.5030  -14.7632   17.5163 O   0  0  0  0  0  0  0  0  0  0  0  0
   15.3940  -12.5269   17.1095 C   0  0  0  0  0  0  0  0  0  0  0  0
   16.0861  -11.7311   18.2713 C   0  0  0  0  0  0  0  0  0  0  0  0
   15.2717  -11.1183   19.1915 C   0  0  0  0  0  0  0  0  0  0  0  0
   13.9272  -11.2869   19.0701 O   0  0  0  0  0  0  0  0  0  0  0  0
   15.8764  -10.4117   20.2716 C   0  0  0  0  0  0  0  0  0  0  0  0
   15.0983   -9.7888   21.2597 C   0  0  0  0  0  0  0  0  0  0  0  0
   13.8560   -9.8745   21.2484 O   0  0  0  0  0  0  0  0  0  0  0  0
   15.6876   -9.0900   22.3304 C   0  0  0  0  0  0  0  0  0  0  0  0
   19.6032  -10.3403   20.3767 H   0  0  0  0  0  0  0  0  0  0  0  0
   17.0390  -15.4534   17.0953 H   0  0  0  0  0  0  0  0  0  0  0  0
   13.5784  -11.7601   18.3404 H   0  0  0  0  0  0  0  0  0  0  0  0
   15.4587  -14.1843   15.2981 C   0  0  0  0  0  0  0  0  0  0  0  0
   15.4647  -15.4002   15.0630 O   0  0  0  0  0  0  0  0  0  0  0  0
   14.7142  -13.2193   14.3090 C   0  0  0  0  0  0  0  0  0  0  0  0
   18.7816  -13.5910   18.1941 O   0  0  0  0  0  0  0  0  0  0  0  0
   19.8496  -14.3391   17.4961 C   0  0  0  0  0  0  0  0  0  0  0  0
   20.8782  -13.2869   16.8971 C   0  0  0  0  0  0  0  0  0  0  0  0
   21.6245  -12.6161   18.0823 C   0  0  0  0  0  0  0  0  0  0  0  0
   22.6256  -11.6161   17.5878 N   0  0  0  0  0  0  0  0  0  0  0  0
   22.3137  -13.6612   19.0057 C   0  0  0  0  0  0  0  0  0  0  0  0
   23.3675  -14.3328   18.2623 O   0  0  0  0  0  0  0  0  0  0  0  0
   21.2586  -14.6649   19.5564 C   0  0  0  0  0  0  0  0  0  0  0  0
   20.4112  -15.2526   18.5085 O   0  0  0  0  0  0  0  0  0  0  0  0
   21.8654  -15.8276   20.3995 C   0  0  0  0  0  0  0  0  0  0  0  0
   23.3340  -12.0920   17.0291 H   0  0  0  0  0  0  0  0  0  0  0  0
   23.0708  -11.1587   18.3834 H   0  0  0  0  0  0  0  0  0  0  0  0
   22.9844  -14.7820   17.4926 H   0  0  0  0  0  0  0  0  0  0  0  0
  1  2  2  0  0  0
  1 23  1  0  0  0
  2  3  1  0  0  0
  3  4  2  0  0  0
  4  5  1  0  0  0
  5  6  1  0  0  0
  5 23  2  0  0  0
  6  7  2  0  0  0
  6  8  1  0  0  0
  8  9  2  0  0  0
  8 20  1  0  0  0
  9 10  1  0  0  0
  9 11  1  0  0  0
 11 12  1  0  0  0
 11 17  2  0  0  0
 12 30  1  0  0  0
 12 13  1  0  0  0
 30 31  1  0  0  0
 13 14  1  0  0  0
 14 15  1  0  0  0
 14 27  1  0  0  0
 14 16  1  0  0  0
 27 28  2  0  0  0
 27 29  1  0  0  0
 16 17  1  0  0  0
 17 18  1  0  0  0
 18 19  1  0  0  0
 18 20  2  0  0  0
 20 21  1  0  0  0
 21 22  2  0  0  0
 21 23  1  0  0  0
 31 32  1  0  0  0
 31 38  1  0  0  0
 32 33  1  0  0  0
 33 34  1  0  0  0
 33 35  1  0  0  0
 35 36  1  0  0  0
 35 37  1  0  0  0
 37 38  1  0  0  0
 37 39  1  0  0  0
 10 24  1  0  0  0
 15 25  1  0  0  0
 19 26  1  0  0  0
 34 40  1  0  0  0
 34 41  1  0  0  0
 36 42  1  0  0  0
M  END
> <minimizedAffinity>
-12.93808

$$$$
3ARQ_DM5_A_606


 42 46  0  0  0  0  0  0  0  0999 V2000
   13.2601   -8.2577   23.6778 C   0  0  0  0  0  0  0  0  0  0  0  0
   13.5122   -7.4511   24.8207 C   0  0  0  0  0  0  0  0  0  0  0  0
   14.7977   -7.0755   25.1998 C   0  0  0  0  0  0  0  0  0  0  0  0
   15.8831   -7.5462   24.4488 C   0  0  0  0  0  0  0  0  0  0  0  0
   15.6594   -8.3627   23.3039 C   0  0  0  0  0  0  0  0  0  0  0  0
   16.7346   -8.8139   22.5418 C   0  0  0  0  0  0  0  0  0  0  0  0
   17.9055   -8.5254   22.8391 O   0  0  0  0  0  0  0  0  0  0  0  0
   16.4981   -9.6237   21.3956 C   0  0  0  0  0  0  0  0  0  0  0  0
   17.6281  -10.1025   20.6859 C   0  0  0  0  0  0  0  0  0  0  0  0
   18.7323   -9.7505   21.1414 O   0  0  0  0  0  0  0  0  0  0  0  0
   17.3840  -10.9358   19.5684 C   0  0  0  0  0  0  0  0  0  0  0  0
   18.6022  -11.5051   18.8053 C   0  0  0  0  0  0  0  0  0  0  0  0
   18.3329  -12.3821   17.5593 C   0  0  0  0  0  0  0  0  0  0  0  0
   16.9968  -13.1713   17.6268 C   0  0  0  0  0  0  0  0  0  0  0  0
   17.2482  -14.1826   18.7109 O   0  0  0  0  0  0  0  0  0  0  0  0
   15.8503  -12.2147   17.9563 C   0  0  0  0  0  0  0  0  0  0  0  0
   16.1148  -11.2801   19.1885 C   0  0  0  0  0  0  0  0  0  0  0  0
   15.0217  -10.8249   19.8839 C   0  0  0  0  0  0  0  0  0  0  0  0
   13.7909  -11.2563   19.4969 O   0  0  0  0  0  0  0  0  0  0  0  0
   15.2367   -9.9961   21.0234 C   0  0  0  0  0  0  0  0  0  0  0  0
   14.1620   -9.5229   21.7919 C   0  0  0  0  0  0  0  0  0  0  0  0
   12.9899   -9.8512   21.5289 O   0  0  0  0  0  0  0  0  0  0  0  0
   14.3658   -8.7049   22.9195 C   0  0  0  0  0  0  0  0  0  0  0  0
   18.7727   -9.1918   21.8926 H   0  0  0  0  0  0  0  0  0  0  0  0
   17.9823  -14.7605   18.4501 H   0  0  0  0  0  0  0  0  0  0  0  0
   13.7020  -11.8004   18.7392 H   0  0  0  0  0  0  0  0  0  0  0  0
   16.6127  -13.8555   16.2953 C   0  0  0  0  0  0  0  0  0  0  0  0
   16.8713  -15.0577   16.1482 O   0  0  0  0  0  0  0  0  0  0  0  0
   15.9622  -13.0637   15.1063 C   0  0  0  0  0  0  0  0  0  0  0  0
   19.0658  -12.5747   19.7770 O   0  0  0  0  0  0  0  0  0  0  0  0
   20.3706  -12.2003   20.3641 C   0  0  0  0  0  0  0  0  0  0  0  0
   20.9554  -13.4708   21.1174 C   0  0  0  0  0  0  0  0  0  0  0  0
   21.3332  -14.5318   20.0482 C   0  0  0  0  0  0  0  0  0  0  0  0
   21.9070  -15.7587   20.6903 N   0  0  0  0  0  0  0  0  0  0  0  0
   22.3182  -13.9657   18.9856 C   0  0  0  0  0  0  0  0  0  0  0  0
   23.5833  -13.6495   19.6287 O   0  0  0  0  0  0  0  0  0  0  0  0
   21.6931  -12.7226   18.2870 C   0  0  0  0  0  0  0  0  0  0  0  0
   21.1836  -11.7182   19.2320 O   0  0  0  0  0  0  0  0  0  0  0  0
   22.6502  -12.0065   17.2860 C   0  0  0  0  0  0  0  0  0  0  0  0
   22.7696  -15.5157   21.1774 H   0  0  0  0  0  0  0  0  0  0  0  0
   22.1064  -16.4561   19.9732 H   0  0  0  0  0  0  0  0  0  0  0  0
   23.4370  -12.9867   20.3217 H   0  0  0  0  0  0  0  0  0  0  0  0
  1  2  2  0  0  0
  1 23  1  0  0  0
  2  3  1  0  0  0
  3  4  2  0  0  0
  4  5  1  0  0  0
  5  6  1  0  0  0
  5 23  2  0  0  0
  6  7  2  0  0  0
  6  8  1  0  0  0
  8  9  2  0  0  0
  8 20  1  0  0  0
  9 10  1  0  0  0
  9 11  1  0  0  0
 11 12  1  0  0  0
 11 17  2  0  0  0
 12 30  1  0  0  0
 12 13  1  0  0  0
 30 31  1  0  0  0
 13 14  1  0  0  0
 14 15  1  0  0  0
 14 27  1  0  0  0
 14 16  1  0  0  0
 27 28  2  0  0  0
 27 29  1  0  0  0
 16 17  1  0  0  0
 17 18  1  0  0  0
 18 19  1  0  0  0
 18 20  2  0  0  0
 20 21  1  0  0  0
 21 22  2  0  0  0
 21 23  1  0  0  0
 31 32  1  0  0  0
 31 38  1  0  0  0
 32 33  1  0  0  0
 33 34  1  0  0  0
 33 35  1  0  0  0
 35 36  1  0  0  0
 35 37  1  0  0  0
 37 38  1  0  0  0
 37 39  1  0  0  0
 10 24  1  0  0  0
 15 25  1  0  0  0
 19 26  1  0  0  0
 34 40  1  0  0  0
 34 41  1  0  0  0
 36 42  1  0  0  0
M  END
> <minimizedAffinity>
-12.32659

$$$$
3ARQ_DM5_A_606


 42 46  0  0  0  0  0  0  0  0999 V2000
   12.4868   -9.2843   22.0701 C   0  0  0  0  0  0  0  0  0  0  0  0
   12.0023   -8.4699   23.1296 C   0  0  0  0  0  0  0  0  0  0  0  0
   12.8523   -7.7711   23.9819 C   0  0  0  0  0  0  0  0  0  0  0  0
   14.2362   -7.9113   23.8122 C   0  0  0  0  0  0  0  0  0  0  0  0
   14.7486   -8.7275   22.7640 C   0  0  0  0  0  0  0  0  0  0  0  0
   16.1236   -8.8513   22.5780 C   0  0  0  0  0  0  0  0  0  0  0  0
   16.9323   -8.2652   23.3163 O   0  0  0  0  0  0  0  0  0  0  0  0
   16.6238   -9.6645   21.5226 C   0  0  0  0  0  0  0  0  0  0  0  0
   18.0303   -9.8014   21.4098 C   0  0  0  0  0  0  0  0  0  0  0  0
   18.6964   -9.1763   22.2560 O   0  0  0  0  0  0  0  0  0  0  0  0
   18.5174  -10.6400   20.3792 C   0  0  0  0  0  0  0  0  0  0  0  0
   20.0463  -10.8389   20.2644 C   0  0  0  0  0  0  0  0  0  0  0  0
   20.5787  -11.7231   19.1114 C   0  0  0  0  0  0  0  0  0  0  0  0
   19.5959  -12.8453   18.6788 C   0  0  0  0  0  0  0  0  0  0  0  0
   19.5986  -13.7792   19.8574 O   0  0  0  0  0  0  0  0  0  0  0  0
   18.2189  -12.2429   18.3971 C   0  0  0  0  0  0  0  0  0  0  0  0
   17.6738  -11.3043   19.5301 C   0  0  0  0  0  0  0  0  0  0  0  0
   16.3114  -11.1797   19.6479 C   0  0  0  0  0  0  0  0  0  0  0  0
   15.5262  -11.9172   18.8170 O   0  0  0  0  0  0  0  0  0  0  0  0
   15.7907  -10.3539   20.6865 C   0  0  0  0  0  0  0  0  0  0  0  0
   14.4077  -10.2089   20.8762 C   0  0  0  0  0  0  0  0  0  0  0  0
   13.5932  -10.8346   20.1721 O   0  0  0  0  0  0  0  0  0  0  0  0
   13.8854   -9.3962   21.9003 C   0  0  0  0  0  0  0  0  0  0  0  0
   18.2625   -8.6475   22.8963 H   0  0  0  0  0  0  0  0  0  0  0  0
   20.4931  -14.1303   19.9896 H   0  0  0  0  0  0  0  0  0  0  0  0
   15.9173  -12.4450   18.1488 H   0  0  0  0  0  0  0  0  0  0  0  0
   20.0172  -13.5726   17.3819 C   0  0  0  0  0  0  0  0  0  0  0  0
   19.2954  -14.4805   16.9479 O   0  0  0  0  0  0  0  0  0  0  0  0
   21.3560  -13.2383   16.6337 C   0  0  0  0  0  0  0  0  0  0  0  0
   20.2961  -11.7687   21.4375 O   0  0  0  0  0  0  0  0  0  0  0  0
   21.7463  -11.8678   21.7106 C   0  0  0  0  0  0  0  0  0  0  0  0
   22.0592  -11.0306   23.0241 C   0  0  0  0  0  0  0  0  0  0  0  0
   21.4150  -11.7684   24.2292 C   0  0  0  0  0  0  0  0  0  0  0  0
   21.6831  -11.0378   25.5102 N   0  0  0  0  0  0  0  0  0  0  0  0
   21.8963  -13.2438   24.3363 C   0  0  0  0  0  0  0  0  0  0  0  0
   23.3194  -13.2606   24.6344 O   0  0  0  0  0  0  0  0  0  0  0  0
   21.5674  -14.0094   23.0212 C   0  0  0  0  0  0  0  0  0  0  0  0
   22.0264  -13.3122   21.8109 O   0  0  0  0  0  0  0  0  0  0  0  0
   22.1165  -15.4680   22.9793 C   0  0  0  0  0  0  0  0  0  0  0  0
   22.6877  -11.0156   25.6851 H   0  0  0  0  0  0  0  0  0  0  0  0
   21.2145  -11.5167   26.2792 H   0  0  0  0  0  0  0  0  0  0  0  0
   23.8039  -12.8117   23.9240 H   0  0  0  0  0  0  0  0  0  0  0  0
  1  2  2  0  0  0
  1 23  1  0  0  0
  2  3  1  0  0  0
  3  4  2  0  0  0
  4  5  1  0  0  0
  5  6  1  0  0  0
  5 23  2  0  0  0
  6  7  2  0  0  0
  6  8  1  0  0  0
  8  9  2  0  0  0
  8 20  1  0  0  0
  9 10  1  0  0  0
  9 11  1  0  0  0
 11 12  1  0  0  0
 11 17  2  0  0  0
 12 30  1  0  0  0
 12 13  1  0  0  0
 30 31  1  0  0  0
 13 14  1  0  0  0
 14 15  1  0  0  0
 14 27  1  0  0  0
 14 16  1  0  0  0
 27 28  2  0  0  0
 27 29  1  0  0  0
 16 17  1  0  0  0
 17 18  1  0  0  0
 18 19  1  0  0  0
 18 20  2  0  0  0
 20 21  1  0  0  0
 21 22  2  0  0  0
 21 23  1  0  0  0
 31 32  1  0  0  0
 31 38  1  0  0  0
 32 33  1  0  0  0
 33 34  1  0  0  0
 33 35  1  0  0  0
 35 36  1  0  0  0
 35 37  1  0  0  0
 37 38  1  0  0  0
 37 39  1  0  0  0
 10 24  1  0  0  0
 15 25  1  0  0  0
 19 26  1  0  0  0
 34 40  1  0  0  0
 34 41  1  0  0  0
 36 42  1  0  0  0
M  END
> <minimizedAffinity>
-12.10054

$$$$
3ARQ_DM5_A_606


 42 46  0  0  0  0  0  0  0  0999 V2000
   12.3881   -8.5343   23.1749 C   0  0  0  0  0  0  0  0  0  0  0  0
   12.2644   -7.6146   24.2516 C   0  0  0  0  0  0  0  0  0  0  0  0
   13.3637   -6.9723   24.8141 C   0  0  0  0  0  0  0  0  0  0  0  0
   14.6412   -7.2778   24.3262 C   0  0  0  0  0  0  0  0  0  0  0  0
   14.7945   -8.2020   23.2538 C   0  0  0  0  0  0  0  0  0  0  0  0
   16.0610   -8.4912   22.7510 C   0  0  0  0  0  0  0  0  0  0  0  0
   17.0811   -7.9621   23.2222 O   0  0  0  0  0  0  0  0  0  0  0  0
   16.2010   -9.4113   21.6743 C   0  0  0  0  0  0  0  0  0  0  0  0
   17.5148   -9.7131   21.2357 C   0  0  0  0  0  0  0  0  0  0  0  0
   18.4283   -9.1234   21.8427 O   0  0  0  0  0  0  0  0  0  0  0  0
   17.6460  -10.6556   20.1883 C   0  0  0  0  0  0  0  0  0  0  0  0
   19.0712  -11.0330   19.7230 C   0  0  0  0  0  0  0  0  0  0  0  0
   19.2111  -12.0323   18.5499 C   0  0  0  0  0  0  0  0  0  0  0  0
   18.0473  -13.0570   18.4592 C   0  0  0  0  0  0  0  0  0  0  0  0
   18.2532  -13.9208   19.6728 O   0  0  0  0  0  0  0  0  0  0  0  0
   16.7088  -12.3180   18.4720 C   0  0  0  0  0  0  0  0  0  0  0  0
   16.5570  -11.2641   19.6245 C   0  0  0  0  0  0  0  0  0  0  0  0
   15.2857  -10.9793   20.0583 C   0  0  0  0  0  0  0  0  0  0  0  0
   14.2505  -11.6662   19.5039 O   0  0  0  0  0  0  0  0  0  0  0  0
   15.1230  -10.0452   21.1226 C   0  0  0  0  0  0  0  0  0  0  0  0
   13.8518   -9.7339   21.6293 C   0  0  0  0  0  0  0  0  0  0  0  0
   12.8307  -10.2997   21.1957 O   0  0  0  0  0  0  0  0  0  0  0  0
   13.6826   -8.8134   22.6810 C   0  0  0  0  0  0  0  0  0  0  0  0
   18.2211   -8.5151   22.5246 H   0  0  0  0  0  0  0  0  0  0  0  0
   19.1140  -14.3637   19.6122 H   0  0  0  0  0  0  0  0  0  0  0  0
   14.4096  -12.2700   18.8053 H   0  0  0  0  0  0  0  0  0  0  0  0
   18.0595  -13.8959   17.1613 C   0  0  0  0  0  0  0  0  0  0  0  0
   19.1216  -14.4233   16.8039 O   0  0  0  0  0  0  0  0  0  0  0  0
   16.7877  -14.0504   16.2544 C   0  0  0  0  0  0  0  0  0  0  0  0
   19.5142  -11.9210   20.8712 O   0  0  0  0  0  0  0  0  0  0  0  0
   20.9900  -11.9327   20.9676 C   0  0  0  0  0  0  0  0  0  0  0  0
   21.4321  -10.7347   21.9128 C   0  0  0  0  0  0  0  0  0  0  0  0
   20.9745  -11.0693   23.3586 C   0  0  0  0  0  0  0  0  0  0  0  0
   21.3723   -9.9827   24.3114 N   0  0  0  0  0  0  0  0  0  0  0  0
   21.5239  -12.4419   23.8426 C   0  0  0  0  0  0  0  0  0  0  0  0
   22.9726  -12.3676   23.9413 O   0  0  0  0  0  0  0  0  0  0  0  0
   21.0629  -13.5722   22.8763 C   0  0  0  0  0  0  0  0  0  0  0  0
   21.3378  -13.2777   21.4623 O   0  0  0  0  0  0  0  0  0  0  0  0
   21.6600  -14.9742   23.2056 C   0  0  0  0  0  0  0  0  0  0  0  0
   22.3893   -9.9087   24.3372 H   0  0  0  0  0  0  0  0  0  0  0  0
   21.0237  -10.2039   25.2441 H   0  0  0  0  0  0  0  0  0  0  0  0
   23.3456  -12.1571   23.0709 H   0  0  0  0  0  0  0  0  0  0  0  0
  1  2  2  0  0  0
  1 23  1  0  0  0
  2  3  1  0  0  0
  3  4  2  0  0  0
  4  5  1  0  0  0
  5  6  1  0  0  0
  5 23  2  0  0  0
  6  7  2  0  0  0
  6  8  1  0  0  0
  8  9  2  0  0  0
  8 20  1  0  0  0
  9 10  1  0  0  0
  9 11  1  0  0  0
 11 12  1  0  0  0
 11 17  2  0  0  0
 12 30  1  0  0  0
 12 13  1  0  0  0
 30 31  1  0  0  0
 13 14  1  0  0  0
 14 15  1  0  0  0
 14 27  1  0  0  0
 14 16  1  0  0  0
 27 28  2  0  0  0
 27 29  1  0  0  0
 16 17  1  0  0  0
 17 18  1  0  0  0
 18 19  1  0  0  0
 18 20  2  0  0  0
 20 21  1  0  0  0
 21 22  2  0  0  0
 21 23  1  0  0  0
 31 32  1  0  0  0
 31 38  1  0  0  0
 32 33  1  0  0  0
 33 34  1  0  0  0
 33 35  1  0  0  0
 35 36  1  0  0  0
 35 37  1  0  0  0
 37 38  1  0  0  0
 37 39  1  0  0  0
 10 24  1  0  0  0
 15 25  1  0  0  0
 19 26  1  0  0  0
 34 40  1  0  0  0
 34 41  1  0  0  0
 36 42  1  0  0  0
M  END
> <minimizedAffinity>
-12.07416

$$$$
3ARQ_DM5_A_606


 42 46  0  0  0  0  0  0  0  0999 V2000
   12.4896   -8.3386   23.2829 C   0  0  0  0  0  0  0  0  0  0  0  0
   12.2128   -7.5456   24.4295 C   0  0  0  0  0  0  0  0  0  0  0  0
   13.2199   -6.9804   25.2065 C   0  0  0  0  0  0  0  0  0  0  0  0
   14.5545   -7.2397   24.8669 C   0  0  0  0  0  0  0  0  0  0  0  0
   14.8599   -8.0378   23.7279 C   0  0  0  0  0  0  0  0  0  0  0  0
   16.1855   -8.2790   23.3740 C   0  0  0  0  0  0  0  0  0  0  0  0
   17.1275   -7.8153   24.0374 O   0  0  0  0  0  0  0  0  0  0  0  0
   16.4784   -9.0725   22.2295 C   0  0  0  0  0  0  0  0  0  0  0  0
   17.8421   -9.3339   21.9437 C   0  0  0  0  0  0  0  0  0  0  0  0
   18.6595   -8.8245   22.7331 O   0  0  0  0  0  0  0  0  0  0  0  0
   18.1224  -10.1530   20.8242 C   0  0  0  0  0  0  0  0  0  0  0  0
   19.6006  -10.4874   20.5190 C   0  0  0  0  0  0  0  0  0  0  0  0
   19.9072  -11.3488   19.2706 C   0  0  0  0  0  0  0  0  0  0  0  0
   18.7743  -12.3467   18.9058 C   0  0  0  0  0  0  0  0  0  0  0  0
   18.8179  -13.3439   20.0305 O   0  0  0  0  0  0  0  0  0  0  0  0
   17.4413  -11.6025   18.8186 C   0  0  0  0  0  0  0  0  0  0  0  0
   17.1254  -10.6845   20.0513 C   0  0  0  0  0  0  0  0  0  0  0  0
   15.8046  -10.4398   20.3362 C   0  0  0  0  0  0  0  0  0  0  0  0
   14.8601  -11.0507   19.5709 O   0  0  0  0  0  0  0  0  0  0  0  0
   15.4908   -9.6308   21.4670 C   0  0  0  0  0  0  0  0  0  0  0  0
   14.1599   -9.3680   21.8266 C   0  0  0  0  0  0  0  0  0  0  0  0
   13.2121   -9.8724   21.1959 O   0  0  0  0  0  0  0  0  0  0  0  0
   13.8415   -8.5710   22.9426 C   0  0  0  0  0  0  0  0  0  0  0  0
   18.3564   -8.2956   23.4446 H   0  0  0  0  0  0  0  0  0  0  0  0
   19.6820  -13.7844   20.0387 H   0  0  0  0  0  0  0  0  0  0  0  0
   15.1179  -11.5729   18.8369 H   0  0  0  0  0  0  0  0  0  0  0  0
   18.9703  -13.0334   17.5352 C   0  0  0  0  0  0  0  0  0  0  0  0
   18.1884  -12.7585   16.6150 O   0  0  0  0  0  0  0  0  0  0  0  0
   20.0878  -14.1085   17.2917 C   0  0  0  0  0  0  0  0  0  0  0  0
   19.8883  -11.5033   21.6091 O   0  0  0  0  0  0  0  0  0  0  0  0
   21.2953  -11.3930   22.0514 C   0  0  0  0  0  0  0  0  0  0  0  0
   21.3285  -11.5432   23.6326 C   0  0  0  0  0  0  0  0  0  0  0  0
   20.9548  -13.0090   23.9841 C   0  0  0  0  0  0  0  0  0  0  0  0
   20.9793  -13.2273   25.4668 N   0  0  0  0  0  0  0  0  0  0  0  0
   21.8805  -14.0354   23.2702 C   0  0  0  0  0  0  0  0  0  0  0  0
   23.2356  -13.8877   23.7761 O   0  0  0  0  0  0  0  0  0  0  0  0
   21.8093  -13.8358   21.7278 C   0  0  0  0  0  0  0  0  0  0  0  0
   22.0203  -12.4419   21.3105 O   0  0  0  0  0  0  0  0  0  0  0  0
   22.7936  -14.7382   20.9230 C   0  0  0  0  0  0  0  0  0  0  0  0
   21.9252  -13.0756   25.8172 H   0  0  0  0  0  0  0  0  0  0  0  0
   20.6889  -14.1827   25.6746 H   0  0  0  0  0  0  0  0  0  0  0  0
   23.5508  -12.9877   23.5984 H   0  0  0  0  0  0  0  0  0  0  0  0
  1  2  2  0  0  0
  1 23  1  0  0  0
  2  3  1  0  0  0
  3  4  2  0  0  0
  4  5  1  0  0  0
  5  6  1  0  0  0
  5 23  2  0  0  0
  6  7  2  0  0  0
  6  8  1  0  0  0
  8  9  2  0  0  0
  8 20  1  0  0  0
  9 10  1  0  0  0
  9 11  1  0  0  0
 11 12  1  0  0  0
 11 17  2  0  0  0
 12 30  1  0  0  0
 12 13  1  0  0  0
 30 31  1  0  0  0
 13 14  1  0  0  0
 14 15  1  0  0  0
 14 27  1  0  0  0
 14 16  1  0  0  0
 27 28  2  0  0  0
 27 29  1  0  0  0
 16 17  1  0  0  0
 17 18  1  0  0  0
 18 19  1  0  0  0
 18 20  2  0  0  0
 20 21  1  0  0  0
 21 22  2  0  0  0
 21 23  1  0  0  0
 31 32  1  0  0  0
 31 38  1  0  0  0
 32 33  1  0  0  0
 33 34  1  0  0  0
 33 35  1  0  0  0
 35 36  1  0  0  0
 35 37  1  0  0  0
 37 38  1  0  0  0
 37 39  1  0  0  0
 10 24  1  0  0  0
 15 25  1  0  0  0
 19 26  1  0  0  0
 34 40  1  0  0  0
 34 41  1  0  0  0
 36 42  1  0  0  0
M  END
> <minimizedAffinity>
-11.71299

$$$$
3ARQ_DM5_A_606


 42 46  0  0  0  0  0  0  0  0999 V2000
   18.7290  -12.0904   17.6038 C   0  0  0  0  0  0  0  0  0  0  0  0
   19.9495  -12.5850   17.0688 C   0  0  0  0  0  0  0  0  0  0  0  0
   21.1630  -12.4591   17.7389 C   0  0  0  0  0  0  0  0  0  0  0  0
   21.1848  -11.7826   18.9658 C   0  0  0  0  0  0  0  0  0  0  0  0
   19.9779  -11.2698   19.5207 C   0  0  0  0  0  0  0  0  0  0  0  0
   19.9920  -10.6165   20.7509 C   0  0  0  0  0  0  0  0  0  0  0  0
   21.0462  -10.4591   21.3885 O   0  0  0  0  0  0  0  0  0  0  0  0
   18.7783  -10.1143   21.2986 C   0  0  0  0  0  0  0  0  0  0  0  0
   18.8544   -9.4094   22.5263 C   0  0  0  0  0  0  0  0  0  0  0  0
   19.9960   -9.3086   23.0133 O   0  0  0  0  0  0  0  0  0  0  0  0
   17.6476   -8.8833   23.0454 C   0  0  0  0  0  0  0  0  0  0  0  0
   17.7131   -8.0735   24.3608 C   0  0  0  0  0  0  0  0  0  0  0  0
   16.3869   -7.5346   24.9481 C   0  0  0  0  0  0  0  0  0  0  0  0
   15.3086   -7.2224   23.8747 C   0  0  0  0  0  0  0  0  0  0  0  0
   15.8748   -6.0302   23.1541 O   0  0  0  0  0  0  0  0  0  0  0  0
   15.1215   -8.4370   22.9648 C   0  0  0  0  0  0  0  0  0  0  0  0
   16.4546   -9.0333   22.3911 C   0  0  0  0  0  0  0  0  0  0  0  0
   16.3843   -9.7064   21.1963 C   0  0  0  0  0  0  0  0  0  0  0  0
   15.1817   -9.7637   20.5629 O   0  0  0  0  0  0  0  0  0  0  0  0
   17.5862  -10.2343   20.6408 C   0  0  0  0  0  0  0  0  0  0  0  0
   17.5840  -10.9071   19.4091 C   0  0  0  0  0  0  0  0  0  0  0  0
   16.5392  -11.0223   18.7414 O   0  0  0  0  0  0  0  0  0  0  0  0
   18.7668  -11.4303   18.8530 C   0  0  0  0  0  0  0  0  0  0  0  0
   20.7273   -9.7011   22.5783 H   0  0  0  0  0  0  0  0  0  0  0  0
   15.9719   -5.2924   23.7763 H   0  0  0  0  0  0  0  0  0  0  0  0
   14.4197   -9.4017   20.9707 H   0  0  0  0  0  0  0  0  0  0  0  0
   13.9149   -6.9139   24.4671 C   0  0  0  0  0  0  0  0  0  0  0  0
   13.6550   -7.3075   25.6122 O   0  0  0  0  0  0  0  0  0  0  0  0
   12.8027   -6.1726   23.6440 C   0  0  0  0  0  0  0  0  0  0  0  0
   18.3185   -6.7751   23.8599 O   0  0  0  0  0  0  0  0  0  0  0  0
   19.7235   -6.6608   24.3076 C   0  0  0  0  0  0  0  0  0  0  0  0
   20.1004   -5.1183   24.3604 C   0  0  0  0  0  0  0  0  0  0  0  0
   19.2990   -4.4672   25.5204 C   0  0  0  0  0  0  0  0  0  0  0  0
   19.6170   -3.0071   25.6376 N   0  0  0  0  0  0  0  0  0  0  0  0
   19.5467   -5.1861   26.8775 C   0  0  0  0  0  0  0  0  0  0  0  0
   20.9361   -5.0055   27.2661 O   0  0  0  0  0  0  0  0  0  0  0  0
   19.1649   -6.6910   26.7619 C   0  0  0  0  0  0  0  0  0  0  0  0
   19.7774   -7.3601   25.6049 O   0  0  0  0  0  0  0  0  0  0  0  0
   19.4887   -7.5297   28.0357 C   0  0  0  0  0  0  0  0  0  0  0  0
   20.6046   -2.8914   25.8647 H   0  0  0  0  0  0  0  0  0  0  0  0
   19.0476   -2.5934   26.3759 H   0  0  0  0  0  0  0  0  0  0  0  0
   21.5140   -5.3865   26.5865 H   0  0  0  0  0  0  0  0  0  0  0  0
  1  2  2  0  0  0
  1 23  1  0  0  0
  2  3  1  0  0  0
  3  4  2  0  0  0
  4  5  1  0  0  0
  5  6  1  0  0  0
  5 23  2  0  0  0
  6  7  2  0  0  0
  6  8  1  0  0  0
  8  9  2  0  0  0
  8 20  1  0  0  0
  9 10  1  0  0  0
  9 11  1  0  0  0
 11 12  1  0  0  0
 11 17  2  0  0  0
 12 30  1  0  0  0
 12 13  1  0  0  0
 30 31  1  0  0  0
 13 14  1  0  0  0
 14 15  1  0  0  0
 14 27  1  0  0  0
 14 16  1  0  0  0
 27 28  2  0  0  0
 27 29  1  0  0  0
 16 17  1  0  0  0
 17 18  1  0  0  0
 18 19  1  0  0  0
 18 20  2  0  0  0
 20 21  1  0  0  0
 21 22  2  0  0  0
 21 23  1  0  0  0
 31 32  1  0  0  0
 31 38  1  0  0  0
 32 33  1  0  0  0
 33 34  1  0  0  0
 33 35  1  0  0  0
 35 36  1  0  0  0
 35 37  1  0  0  0
 37 38  1  0  0  0
 37 39  1  0  0  0
 10 24  1  0  0  0
 15 25  1  0  0  0
 19 26  1  0  0  0
 34 40  1  0  0  0
 34 41  1  0  0  0
 36 42  1  0  0  0
M  END
> <minimizedAffinity>
-11.65719

$$$$
3ARQ_DM5_A_606


 42 46  0  0  0  0  0  0  0  0999 V2000
   19.3099  -10.4909   20.8171 C   0  0  0  0  0  0  0  0  0  0  0  0
   18.9649  -11.0717   19.5665 C   0  0  0  0  0  0  0  0  0  0  0  0
   17.6967  -10.9412   19.0079 C   0  0  0  0  0  0  0  0  0  0  0  0
   16.7151  -10.2466   19.7273 C   0  0  0  0  0  0  0  0  0  0  0  0
   17.0315   -9.6619   20.9865 C   0  0  0  0  0  0  0  0  0  0  0  0
   16.0646   -8.9513   21.6940 C   0  0  0  0  0  0  0  0  0  0  0  0
   14.9109   -8.8143   21.2549 O   0  0  0  0  0  0  0  0  0  0  0  0
   16.3946   -8.3655   22.9484 C   0  0  0  0  0  0  0  0  0  0  0  0
   15.3607   -7.7000   23.6541 C   0  0  0  0  0  0  0  0  0  0  0  0
   14.2514   -7.6878   23.0886 O   0  0  0  0  0  0  0  0  0  0  0  0
   15.6895   -7.1512   24.9164 C   0  0  0  0  0  0  0  0  0  0  0  0
   14.5672   -6.4589   25.7236 C   0  0  0  0  0  0  0  0  0  0  0  0
   14.9383   -5.8234   27.0848 C   0  0  0  0  0  0  0  0  0  0  0  0
   16.1147   -6.5351   27.8073 C   0  0  0  0  0  0  0  0  0  0  0  0
   15.5269   -7.8632   28.1970 O   0  0  0  0  0  0  0  0  0  0  0  0
   17.3022   -6.6643   26.8527 C   0  0  0  0  0  0  0  0  0  0  0  0
   16.9464   -7.2636   25.4469 C   0  0  0  0  0  0  0  0  0  0  0  0
   17.9437   -7.9185   24.7672 C   0  0  0  0  0  0  0  0  0  0  0  0
   19.1524   -8.0541   25.3768 O   0  0  0  0  0  0  0  0  0  0  0  0
   17.6384   -8.4951   23.5000 C   0  0  0  0  0  0  0  0  0  0  0  0
   18.6069   -9.2014   22.7699 C   0  0  0  0  0  0  0  0  0  0  0  0
   19.7497   -9.3859   23.2287 O   0  0  0  0  0  0  0  0  0  0  0  0
   18.3132   -9.7750   21.5182 C   0  0  0  0  0  0  0  0  0  0  0  0
   14.1504   -8.0858   22.2464 H   0  0  0  0  0  0  0  0  0  0  0  0
   14.7807   -7.7220   28.8004 H   0  0  0  0  0  0  0  0  0  0  0  0
   19.3037   -7.6552   26.2111 H   0  0  0  0  0  0  0  0  0  0  0  0
   16.6403   -5.7670   29.0412 C   0  0  0  0  0  0  0  0  0  0  0  0
   17.8183   -5.9310   29.3863 O   0  0  0  0  0  0  0  0  0  0  0  0
   15.7153   -4.8358   29.9020 C   0  0  0  0  0  0  0  0  0  0  0  0
   13.7858   -7.6663   26.2083 O   0  0  0  0  0  0  0  0  0  0  0  0
   12.4909   -7.7546   25.4993 C   0  0  0  0  0  0  0  0  0  0  0  0
   11.4415   -8.4438   26.4728 C   0  0  0  0  0  0  0  0  0  0  0  0
   11.1476   -7.4592   27.6373 C   0  0  0  0  0  0  0  0  0  0  0  0
   10.1500   -8.0417   28.5924 N   0  0  0  0  0  0  0  0  0  0  0  0
   10.6604   -6.0744   27.1230 C   0  0  0  0  0  0  0  0  0  0  0  0
    9.3731   -6.2356   26.4664 O   0  0  0  0  0  0  0  0  0  0  0  0
   11.7255   -5.4530   26.1725 C   0  0  0  0  0  0  0  0  0  0  0  0
   12.1641   -6.3701   25.1103 O   0  0  0  0  0  0  0  0  0  0  0  0
   11.2813   -4.1151   25.5064 C   0  0  0  0  0  0  0  0  0  0  0  0
    9.2649   -8.1936   28.1088 H   0  0  0  0  0  0  0  0  0  0  0  0
   10.0065   -7.3967   29.3695 H   0  0  0  0  0  0  0  0  0  0  0  0
    9.4660   -6.8457   25.7180 H   0  0  0  0  0  0  0  0  0  0  0  0
  1  2  2  0  0  0
  1 23  1  0  0  0
  2  3  1  0  0  0
  3  4  2  0  0  0
  4  5  1  0  0  0
  5  6  1  0  0  0
  5 23  2  0  0  0
  6  7  2  0  0  0
  6  8  1  0  0  0
  8  9  2  0  0  0
  8 20  1  0  0  0
  9 10  1  0  0  0
  9 11  1  0  0  0
 11 12  1  0  0  0
 11 17  2  0  0  0
 12 30  1  0  0  0
 12 13  1  0  0  0
 30 31  1  0  0  0
 13 14  1  0  0  0
 14 15  1  0  0  0
 14 27  1  0  0  0
 14 16  1  0  0  0
 27 28  2  0  0  0
 27 29  1  0  0  0
 16 17  1  0  0  0
 17 18  1  0  0  0
 18 19  1  0  0  0
 18 20  2  0  0  0
 20 21  1  0  0  0
 21 22  2  0  0  0
 21 23  1  0  0  0
 31 32  1  0  0  0
 31 38  1  0  0  0
 32 33  1  0  0  0
 33 34  1  0  0  0
 33 35  1  0  0  0
 35 36  1  0  0  0
 35 37  1  0  0  0
 37 38  1  0  0  0
 37 39  1  0  0  0
 10 24  1  0  0  0
 15 25  1  0  0  0
 19 26  1  0  0  0
 34 40  1  0  0  0
 34 41  1  0  0  0
 36 42  1  0  0  0
M  END
> <minimizedAffinity>
-10.96945

$$$$
3ARQ_DM5_A_606


 42 46  0  0  0  0  0  0  0  0999 V2000
   15.2459   -9.3846   21.0891 C   0  0  0  0  0  0  0  0  0  0  0  0
   14.8217   -8.6984   22.2594 C   0  0  0  0  0  0  0  0  0  0  0  0
   15.7008   -8.3531   23.2817 C   0  0  0  0  0  0  0  0  0  0  0  0
   17.0444   -8.7345   23.1684 C   0  0  0  0  0  0  0  0  0  0  0  0
   17.4946   -9.4301   22.0103 C   0  0  0  0  0  0  0  0  0  0  0  0
   18.8341   -9.7910   21.8838 C   0  0  0  0  0  0  0  0  0  0  0  0
   19.6629   -9.5249   22.7697 O   0  0  0  0  0  0  0  0  0  0  0  0
   19.2736  -10.4799   20.7186 C   0  0  0  0  0  0  0  0  0  0  0  0
   20.6345  -10.8731   20.6629 C   0  0  0  0  0  0  0  0  0  0  0  0
   21.3208  -10.5608   21.6539 O   0  0  0  0  0  0  0  0  0  0  0  0
   21.0540  -11.5884   19.5162 C   0  0  0  0  0  0  0  0  0  0  0  0
   22.5233  -12.0655   19.4533 C   0  0  0  0  0  0  0  0  0  0  0  0
   22.9904  -12.8112   18.1805 C   0  0  0  0  0  0  0  0  0  0  0  0
   21.8626  -13.6144   17.4767 C   0  0  0  0  0  0  0  0  0  0  0  0
   21.5789  -14.7302   18.4441 O   0  0  0  0  0  0  0  0  0  0  0  0
   20.6548  -12.7067   17.2408 C   0  0  0  0  0  0  0  0  0  0  0  0
   20.1872  -11.9023   18.5042 C   0  0  0  0  0  0  0  0  0  0  0  0
   18.8667  -11.5307   18.5650 C   0  0  0  0  0  0  0  0  0  0  0  0
   18.0417  -11.9302   17.5597 O   0  0  0  0  0  0  0  0  0  0  0  0
   18.4112  -10.8224   19.7150 C   0  0  0  0  0  0  0  0  0  0  0  0
   17.0674  -10.4403   19.8490 C   0  0  0  0  0  0  0  0  0  0  0  0
   16.2223  -10.7496   18.9883 O   0  0  0  0  0  0  0  0  0  0  0  0
   16.6092   -9.7416   20.9821 C   0  0  0  0  0  0  0  0  0  0  0  0
   20.9332  -10.0825   22.3602 H   0  0  0  0  0  0  0  0  0  0  0  0
   22.3758  -15.2719   18.5557 H   0  0  0  0  0  0  0  0  0  0  0  0
   18.3903  -12.3938   16.8238 H   0  0  0  0  0  0  0  0  0  0  0  0
   22.2640  -14.1605   16.0878 C   0  0  0  0  0  0  0  0  0  0  0  0
   22.2953  -15.3867   15.9172 O   0  0  0  0  0  0  0  0  0  0  0  0
   22.6893  -13.2149   14.9093 C   0  0  0  0  0  0  0  0  0  0  0  0
   22.4825  -13.2259   20.4305 O   0  0  0  0  0  0  0  0  0  0  0  0
   23.8545  -13.6917   20.7274 C   0  0  0  0  0  0  0  0  0  0  0  0
   24.2753  -13.1141   22.1463 C   0  0  0  0  0  0  0  0  0  0  0  0
   23.4135  -13.8208   23.2278 C   0  0  0  0  0  0  0  0  0  0  0  0
   23.7682  -13.3317   24.5994 N   0  0  0  0  0  0  0  0  0  0  0  0
   23.5398  -15.3696   23.1556 C   0  0  0  0  0  0  0  0  0  0  0  0
   24.9027  -15.7527   23.4872 O   0  0  0  0  0  0  0  0  0  0  0  0
   23.1199  -15.8743   21.7439 C   0  0  0  0  0  0  0  0  0  0  0  0
   23.7927  -15.1630   20.6471 O   0  0  0  0  0  0  0  0  0  0  0  0
   23.3244  -17.4048   21.5281 C   0  0  0  0  0  0  0  0  0  0  0  0
   24.7401  -13.5651   24.8028 H   0  0  0  0  0  0  0  0  0  0  0  0
   23.1606  -13.7771   25.2870 H   0  0  0  0  0  0  0  0  0  0  0  0
   25.5157  -15.3470   22.8544 H   0  0  0  0  0  0  0  0  0  0  0  0
  1  2  2  0  0  0
  1 23  1  0  0  0
  2  3  1  0  0  0
  3  4  2  0  0  0
  4  5  1  0  0  0
  5  6  1  0  0  0
  5 23  2  0  0  0
  6  7  2  0  0  0
  6  8  1  0  0  0
  8  9  2  0  0  0
  8 20  1  0  0  0
  9 10  1  0  0  0
  9 11  1  0  0  0
 11 12  1  0  0  0
 11 17  2  0  0  0
 12 30  1  0  0  0
 12 13  1  0  0  0
 30 31  1  0  0  0
 13 14  1  0  0  0
 14 15  1  0  0  0
 14 27  1  0  0  0
 14 16  1  0  0  0
 27 28  2  0  0  0
 27 29  1  0  0  0
 16 17  1  0  0  0
 17 18  1  0  0  0
 18 19  1  0  0  0
 18 20  2  0  0  0
 20 21  1  0  0  0
 21 22  2  0  0  0
 21 23  1  0  0  0
 31 32  1  0  0  0
 31 38  1  0  0  0
 32 33  1  0  0  0
 33 34  1  0  0  0
 33 35  1  0  0  0
 35 36  1  0  0  0
 35 37  1  0  0  0
 37 38  1  0  0  0
 37 39  1  0  0  0
 10 24  1  0  0  0
 15 25  1  0  0  0
 19 26  1  0  0  0
 34 40  1  0  0  0
 34 41  1  0  0  0
 36 42  1  0  0  0
M  END
> <minimizedAffinity>
-10.82129

$$$$
3ARQ_DM5_A_606


 42 46  0  0  0  0  0  0  0  0999 V2000
   19.1858  -12.7918   19.1463 C   0  0  0  0  0  0  0  0  0  0  0  0
   18.5750  -13.6087   18.1563 C   0  0  0  0  0  0  0  0  0  0  0  0
   17.2550  -13.4304   17.7525 C   0  0  0  0  0  0  0  0  0  0  0  0
   16.4911  -12.4354   18.3769 C   0  0  0  0  0  0  0  0  0  0  0  0
   17.0756  -11.6082   19.3777 C   0  0  0  0  0  0  0  0  0  0  0  0
   16.3259  -10.6032   19.9846 C   0  0  0  0  0  0  0  0  0  0  0  0
   15.1385  -10.4062   19.6781 O   0  0  0  0  0  0  0  0  0  0  0  0
   16.9231   -9.7782   20.9787 C   0  0  0  0  0  0  0  0  0  0  0  0
   16.1025   -8.8065   21.6048 C   0  0  0  0  0  0  0  0  0  0  0  0
   14.9235   -8.7674   21.2060 O   0  0  0  0  0  0  0  0  0  0  0  0
   16.6956   -8.0147   22.6167 C   0  0  0  0  0  0  0  0  0  0  0  0
   15.8081   -6.9783   23.3437 C   0  0  0  0  0  0  0  0  0  0  0  0
   16.4689   -6.0852   24.4208 C   0  0  0  0  0  0  0  0  0  0  0  0
   17.6603   -6.7636   25.1508 C   0  0  0  0  0  0  0  0  0  0  0  0
   16.9984   -7.8448   25.9596 O   0  0  0  0  0  0  0  0  0  0  0  0
   18.6511   -7.3090   24.1217 C   0  0  0  0  0  0  0  0  0  0  0  0
   18.0020   -8.1809   22.9902 C   0  0  0  0  0  0  0  0  0  0  0  0
   18.7924   -9.1305   22.3908 C   0  0  0  0  0  0  0  0  0  0  0  0
   20.0620   -9.2916   22.8523 O   0  0  0  0  0  0  0  0  0  0  0  0
   18.2183   -9.9537   21.3787 C   0  0  0  0  0  0  0  0  0  0  0  0
   18.9662  -10.9605   20.7490 C   0  0  0  0  0  0  0  0  0  0  0  0
   20.1409  -11.1963   21.0886 O   0  0  0  0  0  0  0  0  0  0  0  0
   18.4064  -11.7786   19.7493 C   0  0  0  0  0  0  0  0  0  0  0  0
   14.6401   -9.3441   20.5241 H   0  0  0  0  0  0  0  0  0  0  0  0
   16.3832   -7.4439   26.5934 H   0  0  0  0  0  0  0  0  0  0  0  0
   20.3935   -8.7237   23.5198 H   0  0  0  0  0  0  0  0  0  0  0  0
   18.4664   -5.7996   26.0505 C   0  0  0  0  0  0  0  0  0  0  0  0
   18.7325   -4.6686   25.6218 O   0  0  0  0  0  0  0  0  0  0  0  0
   19.0072   -6.2282   27.4604 C   0  0  0  0  0  0  0  0  0  0  0  0
   14.9860   -7.8906   24.2353 O   0  0  0  0  0  0  0  0  0  0  0  0
   13.5897   -7.9540   23.7520 C   0  0  0  0  0  0  0  0  0  0  0  0
   12.6392   -8.1346   25.0121 C   0  0  0  0  0  0  0  0  0  0  0  0
   12.6757   -6.8177   25.8343 C   0  0  0  0  0  0  0  0  0  0  0  0
   11.7865   -6.9123   27.0372 N   0  0  0  0  0  0  0  0  0  0  0  0
   12.2921   -5.5802   24.9732 C   0  0  0  0  0  0  0  0  0  0  0  0
   10.9027   -5.6983   24.5612 O   0  0  0  0  0  0  0  0  0  0  0  0
   13.2531   -5.4594   23.7542 C   0  0  0  0  0  0  0  0  0  0  0  0
   13.3839   -6.7084   22.9897 O   0  0  0  0  0  0  0  0  0  0  0  0
   12.8798   -4.3180   22.7599 C   0  0  0  0  0  0  0  0  0  0  0  0
   10.8204   -7.0415   26.7365 H   0  0  0  0  0  0  0  0  0  0  0  0
   11.8607   -6.0540   27.5832 H   0  0  0  0  0  0  0  0  0  0  0  0
   10.7884   -6.5066   24.0372 H   0  0  0  0  0  0  0  0  0  0  0  0
  1  2  2  0  0  0
  1 23  1  0  0  0
  2  3  1  0  0  0
  3  4  2  0  0  0
  4  5  1  0  0  0
  5  6  1  0  0  0
  5 23  2  0  0  0
  6  7  2  0  0  0
  6  8  1  0  0  0
  8  9  2  0  0  0
  8 20  1  0  0  0
  9 10  1  0  0  0
  9 11  1  0  0  0
 11 12  1  0  0  0
 11 17  2  0  0  0
 12 30  1  0  0  0
 12 13  1  0  0  0
 30 31  1  0  0  0
 13 14  1  0  0  0
 14 15  1  0  0  0
 14 27  1  0  0  0
 14 16  1  0  0  0
 27 28  2  0  0  0
 27 29  1  0  0  0
 16 17  1  0  0  0
 17 18  1  0  0  0
 18 19  1  0  0  0
 18 20  2  0  0  0
 20 21  1  0  0  0
 21 22  2  0  0  0
 21 23  1  0  0  0
 31 32  1  0  0  0
 31 38  1  0  0  0
 32 33  1  0  0  0
 33 34  1  0  0  0
 33 35  1  0  0  0
 35 36  1  0  0  0
 35 37  1  0  0  0
 37 38  1  0  0  0
 37 39  1  0  0  0
 10 24  1  0  0  0
 15 25  1  0  0  0
 19 26  1  0  0  0
 34 40  1  0  0  0
 34 41  1  0  0  0
 36 42  1  0  0  0
M  END
> <minimizedAffinity>
-10.71062

$$$$
