1IK4_PGH_A_153


 14 13  0  0  0  0  0  0  0  0999 V2000
   85.7297  -14.5942   66.6308 C   0  0  0  0  0  0  0  0  0  0  0  0
   86.1184  -15.5019   65.4769 C   0  0  0  0  0  0  0  0  0  0  0  0
   87.1775  -16.2198   65.7040 N   0  0  0  0  0  0  0  0  0  0  0  0
   87.5835  -17.0749   64.7149 O   0  0  0  0  0  0  0  0  0  0  0  0
   85.3794  -15.4531   64.4813 O   0  0  0  0  0  0  0  0  0  0  0  0
   87.6689  -16.1514   66.5544 H   0  0  0  0  0  0  0  0  0  0  0  0
   86.9804  -17.0040   63.9585 H   0  0  0  0  0  0  0  0  0  0  0  0
   85.6491  -13.3134   66.0903 O   0  0  0  0  0  0  0  0  0  0  0  0
   84.7906  -10.9286   66.3428 O   0  0  0  0  0  0  0  0  0  0  0  0
   83.0782  -12.6697   65.0235 O   0  0  0  0  0  0  0  0  0  0  0  0
   83.6838  -12.7064   67.7999 O   0  0  0  0  0  0  0  0  0  0  0  0
   84.1619  -12.4819   66.2652 P   0  0  0  0  0  0  0  0  0  0  0  0
   83.5227  -12.5005   64.1780 H   0  0  0  0  0  0  0  0  0  0  0  0
   84.4337  -12.5586   68.3971 H   0  0  0  0  0  0  0  0  0  0  0  0
  2  1  1  0  0  0
  2  3  1  0  0  0
  2  5  2  0  0  0
  1  8  1  0  0  0
  3  4  1  0  0  0
  8 12  1  0  0  0
  9 12  2  0  0  0
 10 12  1  0  0  0
 11 12  1  0  0  0
  3  6  1  0  0  0
  4  7  1  0  0  0
 10 13  1  0  0  0
 11 14  1  0  0  0
M  END
> <minimizedAffinity>
-7.51103

$$$$
1IK4_PGH_A_153


 14 13  0  0  0  0  0  0  0  0999 V2000
   85.6957  -14.6084   66.5705 C   0  0  0  0  0  0  0  0  0  0  0  0
   86.0941  -15.5470   65.4449 C   0  0  0  0  0  0  0  0  0  0  0  0
   87.1698  -16.2347   65.6872 N   0  0  0  0  0  0  0  0  0  0  0  0
   87.5856  -17.1147   64.7244 O   0  0  0  0  0  0  0  0  0  0  0  0
   85.3463  -15.5476   64.4547 O   0  0  0  0  0  0  0  0  0  0  0  0
   87.6664  -16.1271   66.5304 H   0  0  0  0  0  0  0  0  0  0  0  0
   86.9751  -17.0823   63.9713 H   0  0  0  0  0  0  0  0  0  0  0  0
   85.5950  -13.3469   65.9895 O   0  0  0  0  0  0  0  0  0  0  0  0
   83.2803  -12.6490   65.1876 O   0  0  0  0  0  0  0  0  0  0  0  0
   83.5956  -12.7576   67.9432 O   0  0  0  0  0  0  0  0  0  0  0  0
   84.7406  -10.8216   66.2061 O   0  0  0  0  0  0  0  0  0  0  0  0
   84.2924  -12.3550   66.4927 P   0  0  0  0  0  0  0  0  0  0  0  0
   83.3898  -13.7055   67.9510 H   0  0  0  0  0  0  0  0  0  0  0  0
   85.1277  -10.7584   65.3189 H   0  0  0  0  0  0  0  0  0  0  0  0
  2  1  1  0  0  0
  2  3  1  0  0  0
  2  5  2  0  0  0
  1  8  1  0  0  0
  3  4  1  0  0  0
  8 12  1  0  0  0
  9 12  2  0  0  0
 10 12  1  0  0  0
 11 12  1  0  0  0
  3  6  1  0  0  0
  4  7  1  0  0  0
 10 13  1  0  0  0
 11 14  1  0  0  0
M  END
> <minimizedAffinity>
-7.42546

$$$$
1IK4_PGH_A_153


 14 13  0  0  0  0  0  0  0  0999 V2000
   85.5606  -14.8398   66.2760 C   0  0  0  0  0  0  0  0  0  0  0  0
   84.4067  -15.3472   65.4289 C   0  0  0  0  0  0  0  0  0  0  0  0
   83.2962  -15.4990   66.0866 N   0  0  0  0  0  0  0  0  0  0  0  0
   82.2049  -15.9404   65.3876 O   0  0  0  0  0  0  0  0  0  0  0  0
   84.6629  -15.5388   64.2300 O   0  0  0  0  0  0  0  0  0  0  0  0
   83.2418  -15.3041   67.0501 H   0  0  0  0  0  0  0  0  0  0  0  0
   82.4494  -16.0772   64.4590 H   0  0  0  0  0  0  0  0  0  0  0  0
   85.6262  -13.4692   66.0387 O   0  0  0  0  0  0  0  0  0  0  0  0
   85.0003  -11.0854   66.6821 O   0  0  0  0  0  0  0  0  0  0  0  0
   83.1040  -12.4415   65.1757 O   0  0  0  0  0  0  0  0  0  0  0  0
   83.7641  -12.9617   67.8905 O   0  0  0  0  0  0  0  0  0  0  0  0
   84.2274  -12.5457   66.3917 P   0  0  0  0  0  0  0  0  0  0  0  0
   83.5438  -12.1837   64.3504 H   0  0  0  0  0  0  0  0  0  0  0  0
   84.5375  -12.9757   68.4758 H   0  0  0  0  0  0  0  0  0  0  0  0
  2  1  1  0  0  0
  2  3  1  0  0  0
  2  5  2  0  0  0
  1  8  1  0  0  0
  3  4  1  0  0  0
  8 12  1  0  0  0
  9 12  2  0  0  0
 10 12  1  0  0  0
 11 12  1  0  0  0
  3  6  1  0  0  0
  4  7  1  0  0  0
 10 13  1  0  0  0
 11 14  1  0  0  0
M  END
> <minimizedAffinity>
-6.98672

$$$$
1IK4_PGH_A_153


 14 13  0  0  0  0  0  0  0  0999 V2000
   83.8057  -12.9212   65.7374 C   0  0  0  0  0  0  0  0  0  0  0  0
   84.4042  -13.0244   67.1295 C   0  0  0  0  0  0  0  0  0  0  0  0
   84.9133  -14.1890   67.3998 N   0  0  0  0  0  0  0  0  0  0  0  0
   85.4854  -14.3562   68.6324 O   0  0  0  0  0  0  0  0  0  0  0  0
   84.3431  -11.9946   67.8191 O   0  0  0  0  0  0  0  0  0  0  0  0
   84.8886  -14.9227   66.7438 H   0  0  0  0  0  0  0  0  0  0  0  0
   85.4151  -13.5303   69.1362 H   0  0  0  0  0  0  0  0  0  0  0  0
   82.7866  -13.8694   65.6958 O   0  0  0  0  0  0  0  0  0  0  0  0
   82.1752  -14.5765   63.3265 O   0  0  0  0  0  0  0  0  0  0  0  0
   84.5732  -15.5948   64.2840 O   0  0  0  0  0  0  0  0  0  0  0  0
   81.9734  -16.3567   65.1428 O   0  0  0  0  0  0  0  0  0  0  0  0
   83.0018  -15.2042   64.6443 P   0  0  0  0  0  0  0  0  0  0  0  0
   85.0486  -14.7970   64.0041 H   0  0  0  0  0  0  0  0  0  0  0  0
   81.1027  -15.9631   65.3094 H   0  0  0  0  0  0  0  0  0  0  0  0
  2  1  1  0  0  0
  2  3  1  0  0  0
  2  5  2  0  0  0
  1  8  1  0  0  0
  3  4  1  0  0  0
  8 12  1  0  0  0
  9 12  2  0  0  0
 10 12  1  0  0  0
 11 12  1  0  0  0
  3  6  1  0  0  0
  4  7  1  0  0  0
 10 13  1  0  0  0
 11 14  1  0  0  0
M  END
> <minimizedAffinity>
-6.88897

$$$$
1IK4_PGH_A_153


 14 13  0  0  0  0  0  0  0  0999 V2000
   84.0434  -15.0951   64.7222 C   0  0  0  0  0  0  0  0  0  0  0  0
   82.7769  -15.9058   64.9347 C   0  0  0  0  0  0  0  0  0  0  0  0
   82.6792  -16.9446   64.1600 N   0  0  0  0  0  0  0  0  0  0  0  0
   81.5701  -17.7347   64.3018 O   0  0  0  0  0  0  0  0  0  0  0  0
   82.0115  -15.4870   65.8170 O   0  0  0  0  0  0  0  0  0  0  0  0
   83.3756  -17.1552   63.4967 H   0  0  0  0  0  0  0  0  0  0  0  0
   81.0014  -17.3716   64.9987 H   0  0  0  0  0  0  0  0  0  0  0  0
   83.6808  -13.7684   64.9398 O   0  0  0  0  0  0  0  0  0  0  0  0
   85.9245  -13.7042   66.1439 O   0  0  0  0  0  0  0  0  0  0  0  0
   84.5243  -11.3077   66.1213 O   0  0  0  0  0  0  0  0  0  0  0  0
   83.8354  -13.6307   67.6065 O   0  0  0  0  0  0  0  0  0  0  0  0
   84.4258  -12.9584   66.2524 P   0  0  0  0  0  0  0  0  0  0  0  0
   84.8962  -11.0737   65.2566 H   0  0  0  0  0  0  0  0  0  0  0  0
   83.8470  -14.5967   67.5195 H   0  0  0  0  0  0  0  0  0  0  0  0
  2  1  1  0  0  0
  2  3  1  0  0  0
  2  5  2  0  0  0
  1  8  1  0  0  0
  3  4  1  0  0  0
  8 12  1  0  0  0
  9 12  2  0  0  0
 10 12  1  0  0  0
 11 12  1  0  0  0
  3  6  1  0  0  0
  4  7  1  0  0  0
 10 13  1  0  0  0
 11 14  1  0  0  0
M  END
> <minimizedAffinity>
-6.72447

$$$$
1IK4_PGH_A_153


 14 13  0  0  0  0  0  0  0  0999 V2000
   85.0739  -15.0295   65.4666 C   0  0  0  0  0  0  0  0  0  0  0  0
   84.6549  -13.6776   66.0174 C   0  0  0  0  0  0  0  0  0  0  0  0
   84.5387  -13.6481   67.3114 N   0  0  0  0  0  0  0  0  0  0  0  0
   84.1774  -12.4586   67.8849 O   0  0  0  0  0  0  0  0  0  0  0  0
   84.4901  -12.7812   65.1754 O   0  0  0  0  0  0  0  0  0  0  0  0
   84.7041  -14.4500   67.8580 H   0  0  0  0  0  0  0  0  0  0  0  0
   84.0589  -11.7890   67.1932 H   0  0  0  0  0  0  0  0  0  0  0  0
   84.3600  -15.1899   64.2819 O   0  0  0  0  0  0  0  0  0  0  0  0
   81.9478  -14.6949   63.6306 O   0  0  0  0  0  0  0  0  0  0  0  0
   82.6444  -17.3817   63.6376 O   0  0  0  0  0  0  0  0  0  0  0  0
   82.3249  -15.7331   65.9303 O   0  0  0  0  0  0  0  0  0  0  0  0
   82.8118  -15.9142   64.3927 P   0  0  0  0  0  0  0  0  0  0  0  0
   82.9818  -17.3188   62.7304 H   0  0  0  0  0  0  0  0  0  0  0  0
   82.4927  -14.8219   66.2174 H   0  0  0  0  0  0  0  0  0  0  0  0
  2  1  1  0  0  0
  2  3  1  0  0  0
  2  5  2  0  0  0
  1  8  1  0  0  0
  3  4  1  0  0  0
  8 12  1  0  0  0
  9 12  2  0  0  0
 10 12  1  0  0  0
 11 12  1  0  0  0
  3  6  1  0  0  0
  4  7  1  0  0  0
 10 13  1  0  0  0
 11 14  1  0  0  0
M  END
> <minimizedAffinity>
-6.62309

$$$$
1IK4_PGH_A_153


 14 13  0  0  0  0  0  0  0  0999 V2000
   84.2620  -15.0191   64.8790 C   0  0  0  0  0  0  0  0  0  0  0  0
   82.7767  -15.3078   64.7475 C   0  0  0  0  0  0  0  0  0  0  0  0
   82.2653  -14.9351   63.6124 N   0  0  0  0  0  0  0  0  0  0  0  0
   80.9322  -15.1747   63.4127 O   0  0  0  0  0  0  0  0  0  0  0  0
   82.2487  -15.8660   65.7218 O   0  0  0  0  0  0  0  0  0  0  0  0
   82.8151  -14.4974   62.9230 H   0  0  0  0  0  0  0  0  0  0  0  0
   80.5609  -15.6098   64.1961 H   0  0  0  0  0  0  0  0  0  0  0  0
   84.3670  -13.6350   64.9895 O   0  0  0  0  0  0  0  0  0  0  0  0
   82.6998  -12.6811   66.6623 O   0  0  0  0  0  0  0  0  0  0  0  0
   84.8899  -13.9706   67.7780 O   0  0  0  0  0  0  0  0  0  0  0  0
   84.9300  -11.4618   66.4435 O   0  0  0  0  0  0  0  0  0  0  0  0
   84.3492  -12.9721   66.5687 P   0  0  0  0  0  0  0  0  0  0  0  0
   84.4455  -14.8301   67.7106 H   0  0  0  0  0  0  0  0  0  0  0  0
   84.5127  -11.0164   65.6896 H   0  0  0  0  0  0  0  0  0  0  0  0
  2  1  1  0  0  0
  2  3  1  0  0  0
  2  5  2  0  0  0
  1  8  1  0  0  0
  3  4  1  0  0  0
  8 12  1  0  0  0
  9 12  2  0  0  0
 10 12  1  0  0  0
 11 12  1  0  0  0
  3  6  1  0  0  0
  4  7  1  0  0  0
 10 13  1  0  0  0
 11 14  1  0  0  0
M  END
> <minimizedAffinity>
-6.53839

$$$$
1IK4_PGH_A_153


 14 13  0  0  0  0  0  0  0  0999 V2000
   84.5742  -14.9026   65.2786 C   0  0  0  0  0  0  0  0  0  0  0  0
   84.3725  -13.5517   65.9427 C   0  0  0  0  0  0  0  0  0  0  0  0
   84.4226  -13.5892   67.2407 N   0  0  0  0  0  0  0  0  0  0  0  0
   84.2636  -12.4067   67.9121 O   0  0  0  0  0  0  0  0  0  0  0  0
   84.1996  -12.5940   65.1728 O   0  0  0  0  0  0  0  0  0  0  0  0
   84.5693  -14.4351   67.7225 H   0  0  0  0  0  0  0  0  0  0  0  0
   84.1312  -11.6880   67.2743 H   0  0  0  0  0  0  0  0  0  0  0  0
   83.7669  -14.8874   64.1441 O   0  0  0  0  0  0  0  0  0  0  0  0
   82.1537  -15.8057   65.8882 O   0  0  0  0  0  0  0  0  0  0  0  0
   80.9922  -15.0501   63.4831 O   0  0  0  0  0  0  0  0  0  0  0  0
   82.6643  -17.3113   63.8928 O   0  0  0  0  0  0  0  0  0  0  0  0
   82.2972  -15.7640   64.2173 P   0  0  0  0  0  0  0  0  0  0  0  0
   80.9141  -14.1314   63.7846 H   0  0  0  0  0  0  0  0  0  0  0  0
   83.4486  -17.5709   64.4010 H   0  0  0  0  0  0  0  0  0  0  0  0
  2  1  1  0  0  0
  2  3  1  0  0  0
  2  5  2  0  0  0
  1  8  1  0  0  0
  3  4  1  0  0  0
  8 12  1  0  0  0
  9 12  2  0  0  0
 10 12  1  0  0  0
 11 12  1  0  0  0
  3  6  1  0  0  0
  4  7  1  0  0  0
 10 13  1  0  0  0
 11 14  1  0  0  0
M  END
> <minimizedAffinity>
-6.40601

$$$$
1IK4_PGH_A_153


 14 13  0  0  0  0  0  0  0  0999 V2000
   83.9260  -15.0455   64.3685 C   0  0  0  0  0  0  0  0  0  0  0  0
   83.8574  -14.4101   65.7462 C   0  0  0  0  0  0  0  0  0  0  0  0
   84.8823  -14.6737   66.5004 N   0  0  0  0  0  0  0  0  0  0  0  0
   84.9004  -14.1242   67.7542 O   0  0  0  0  0  0  0  0  0  0  0  0
   82.8513  -13.7194   65.9708 O   0  0  0  0  0  0  0  0  0  0  0  0
   85.6173  -15.2463   66.1824 H   0  0  0  0  0  0  0  0  0  0  0  0
   84.0983  -13.5950   67.8869 H   0  0  0  0  0  0  0  0  0  0  0  0
   83.2875  -16.2769   64.4908 O   0  0  0  0  0  0  0  0  0  0  0  0
   81.2143  -17.7561   64.5321 O   0  0  0  0  0  0  0  0  0  0  0  0
   80.8144  -15.1845   63.5673 O   0  0  0  0  0  0  0  0  0  0  0  0
   82.2270  -17.2645   62.2427 O   0  0  0  0  0  0  0  0  0  0  0  0
   81.8314  -16.4941   63.6153 P   0  0  0  0  0  0  0  0  0  0  0  0
   80.6823  -14.8446   64.4662 H   0  0  0  0  0  0  0  0  0  0  0  0
   82.8245  -18.0011   62.4460 H   0  0  0  0  0  0  0  0  0  0  0  0
  2  1  1  0  0  0
  2  3  1  0  0  0
  2  5  2  0  0  0
  1  8  1  0  0  0
  3  4  1  0  0  0
  8 12  1  0  0  0
  9 12  2  0  0  0
 10 12  1  0  0  0
 11 12  1  0  0  0
  3  6  1  0  0  0
  4  7  1  0  0  0
 10 13  1  0  0  0
 11 14  1  0  0  0
M  END
> <minimizedAffinity>
-5.43726

$$$$
1IK4_PGH_A_153


 14 13  0  0  0  0  0  0  0  0999 V2000
   83.7734  -14.9324   65.8452 C   0  0  0  0  0  0  0  0  0  0  0  0
   83.8414  -13.4693   66.2466 C   0  0  0  0  0  0  0  0  0  0  0  0
   84.3163  -13.2711   67.4399 N   0  0  0  0  0  0  0  0  0  0  0  0
   84.4221  -11.9753   67.8691 O   0  0  0  0  0  0  0  0  0  0  0  0
   83.4515  -12.6582   65.3922 O   0  0  0  0  0  0  0  0  0  0  0  0
   84.5895  -14.0235   68.0130 H   0  0  0  0  0  0  0  0  0  0  0  0
   84.1072  -11.3775   67.1731 H   0  0  0  0  0  0  0  0  0  0  0  0
   84.8886  -15.5327   66.4242 O   0  0  0  0  0  0  0  0  0  0  0  0
   85.8480  -15.2603   64.0805 O   0  0  0  0  0  0  0  0  0  0  0  0
   87.1851  -13.8692   66.0758 O   0  0  0  0  0  0  0  0  0  0  0  0
   87.1934  -16.6878   65.7117 O   0  0  0  0  0  0  0  0  0  0  0  0
   86.4012  -15.2720   65.6641 P   0  0  0  0  0  0  0  0  0  0  0  0
   86.5732  -13.1210   65.9941 H   0  0  0  0  0  0  0  0  0  0  0  0
   86.5948  -17.4024   65.4436 H   0  0  0  0  0  0  0  0  0  0  0  0
  2  1  1  0  0  0
  2  3  1  0  0  0
  2  5  2  0  0  0
  1  8  1  0  0  0
  3  4  1  0  0  0
  8 12  1  0  0  0
  9 12  2  0  0  0
 10 12  1  0  0  0
 11 12  1  0  0  0
  3  6  1  0  0  0
  4  7  1  0  0  0
 10 13  1  0  0  0
 11 14  1  0  0  0
M  END
> <minimizedAffinity>
-5.39711

$$$$
