5EWA_9BZ_A_303


 17 18  0  0  0  0  0  0  0  0999 V2000
    4.1906   -7.5454  -40.7749 C   0  0  0  0  0  0  0  0  0  0  0  0
    3.6011   -7.2955  -39.4481 N   0  0  0  0  0  0  0  0  0  0  0  0
    3.3309   -8.3667  -38.5580 C   0  0  0  0  0  0  0  0  0  0  0  0
    1.7822   -7.8696  -37.8957 S   0  0  0  0  0  0  0  0  0  0  0  0
    1.7668   -6.2038  -38.4343 C   0  0  0  0  0  0  0  0  0  0  0  0
    3.1665   -5.9789  -39.0240 C   0  0  0  0  0  0  0  0  0  0  0  0
    3.2103   -5.0981  -40.5395 S   0  0  0  0  0  0  0  0  0  0  0  0
    4.1547   -6.2243  -41.5412 C   0  0  0  0  0  0  0  0  0  0  0  0
    5.5765   -5.6627  -41.7325 C   0  0  0  0  0  0  0  0  0  0  0  0
    3.4962   -6.5368  -42.8944 C   0  0  0  0  0  0  0  0  0  0  0  0
    5.6981   -9.1481  -41.5946 O   0  0  0  0  0  0  0  0  0  0  0  0
    5.5548   -8.1837  -40.8151 C   0  0  0  0  0  0  0  0  0  0  0  0
    6.4916   -7.7576  -40.1025 O   0  0  0  0  0  0  0  0  0  0  0  0
    6.3500   -7.0312  -39.5278 H   0  0  0  0  0  0  0  0  0  0  0  0
    4.5585   -8.2561  -37.6376 C   0  0  0  0  0  0  0  0  0  0  0  0
    5.2708   -9.8688  -37.3589 S   0  0  0  0  0  0  0  0  0  0  0  0
    4.3502  -10.6745  -36.7646 H   0  0  0  0  0  0  0  0  0  0  0  0
 10  8  1  0  0  0
  9  8  1  0  0  0
  8  7  1  0  0  0
  8  1  1  0  0  0
 11 12  2  0  0  0
  7  6  1  0  0  0
  1 12  1  0  0  0
  1  2  1  0  0  0
 12 13  1  0  0  0
  2  6  1  0  0  0
  2  3  1  0  0  0
  6  5  1  0  0  0
  5  4  1  0  0  0
  3  4  1  0  0  0
  3 15  1  0  0  0
 15 16  1  0  0  0
 13 14  1  0  0  0
 16 17  1  0  0  0
M  END
> <minimizedAffinity>
-5.35573

$$$$
5EWA_9BZ_A_303


 17 18  0  0  0  0  0  0  0  0999 V2000
    4.5602   -5.1883  -40.9236 C   0  0  0  0  0  0  0  0  0  0  0  0
    3.7768   -6.3446  -40.4550 N   0  0  0  0  0  0  0  0  0  0  0  0
    3.7976   -6.7334  -39.0908 C   0  0  0  0  0  0  0  0  0  0  0  0
    3.8436   -8.4826  -39.2415 S   0  0  0  0  0  0  0  0  0  0  0  0
    3.4197   -8.6310  -40.9337 C   0  0  0  0  0  0  0  0  0  0  0  0
    3.0409   -7.2056  -41.3602 C   0  0  0  0  0  0  0  0  0  0  0  0
    3.6741   -6.6929  -42.9128 S   0  0  0  0  0  0  0  0  0  0  0  0
    4.4791   -5.1761  -42.4491 C   0  0  0  0  0  0  0  0  0  0  0  0
    3.6381   -3.9839  -42.9438 C   0  0  0  0  0  0  0  0  0  0  0  0
    5.9288   -5.0767  -42.9499 C   0  0  0  0  0  0  0  0  0  0  0  0
    5.1666   -3.2253  -39.7870 O   0  0  0  0  0  0  0  0  0  0  0  0
    4.2283   -3.8436  -40.3305 C   0  0  0  0  0  0  0  0  0  0  0  0
    3.0683   -3.3770  -40.3896 O   0  0  0  0  0  0  0  0  0  0  0  0
    2.3866   -3.8676  -40.8050 H   0  0  0  0  0  0  0  0  0  0  0  0
    2.4764   -6.1018  -38.6200 C   0  0  0  0  0  0  0  0  0  0  0  0
    1.3930   -7.3551  -37.9556 S   0  0  0  0  0  0  0  0  0  0  0  0
    1.1187   -8.2746  -38.9194 H   0  0  0  0  0  0  0  0  0  0  0  0
 10  8  1  0  0  0
  9  8  1  0  0  0
  8  7  1  0  0  0
  8  1  1  0  0  0
 11 12  2  0  0  0
  7  6  1  0  0  0
  1 12  1  0  0  0
  1  2  1  0  0  0
 12 13  1  0  0  0
  2  6  1  0  0  0
  2  3  1  0  0  0
  6  5  1  0  0  0
  5  4  1  0  0  0
  3  4  1  0  0  0
  3 15  1  0  0  0
 15 16  1  0  0  0
 13 14  1  0  0  0
 16 17  1  0  0  0
M  END
> <minimizedAffinity>
-5.35045

$$$$
5EWA_9BZ_A_303


 17 18  0  0  0  0  0  0  0  0999 V2000
    4.4992   -7.2027  -39.2232 C   0  0  0  0  0  0  0  0  0  0  0  0
    3.0703   -7.5598  -39.2576 N   0  0  0  0  0  0  0  0  0  0  0  0
    2.3145   -7.6542  -38.0607 C   0  0  0  0  0  0  0  0  0  0  0  0
    1.3367   -9.0747  -38.3929 S   0  0  0  0  0  0  0  0  0  0  0  0
    1.6148   -9.2117  -40.1160 C   0  0  0  0  0  0  0  0  0  0  0  0
    2.3910   -7.9384  -40.4812 C   0  0  0  0  0  0  0  0  0  0  0  0
    3.7466   -8.1710  -41.5687 S   0  0  0  0  0  0  0  0  0  0  0  0
    5.0464   -7.3930  -40.6367 C   0  0  0  0  0  0  0  0  0  0  0  0
    5.3886   -6.0353  -41.2795 C   0  0  0  0  0  0  0  0  0  0  0  0
    6.3013   -8.2685  -40.4912 C   0  0  0  0  0  0  0  0  0  0  0  0
    4.2677   -4.8677  -39.1382 O   0  0  0  0  0  0  0  0  0  0  0  0
    4.8603   -5.8545  -38.6554 C   0  0  0  0  0  0  0  0  0  0  0  0
    5.7091   -5.7414  -37.7425 O   0  0  0  0  0  0  0  0  0  0  0  0
    6.1357   -6.5032  -37.4023 H   0  0  0  0  0  0  0  0  0  0  0  0
    1.6064   -6.2889  -38.0918 C   0  0  0  0  0  0  0  0  0  0  0  0
    0.0205   -6.3952  -37.2796 S   0  0  0  0  0  0  0  0  0  0  0  0
   -0.7581   -7.3060  -37.9227 H   0  0  0  0  0  0  0  0  0  0  0  0
 10  8  1  0  0  0
  9  8  1  0  0  0
  8  7  1  0  0  0
  8  1  1  0  0  0
 11 12  2  0  0  0
  7  6  1  0  0  0
  1 12  1  0  0  0
  1  2  1  0  0  0
 12 13  1  0  0  0
  2  6  1  0  0  0
  2  3  1  0  0  0
  6  5  1  0  0  0
  5  4  1  0  0  0
  3  4  1  0  0  0
  3 15  1  0  0  0
 15 16  1  0  0  0
 13 14  1  0  0  0
 16 17  1  0  0  0
M  END
> <minimizedAffinity>
-5.31757

$$$$
5EWA_9BZ_A_303


 17 18  0  0  0  0  0  0  0  0999 V2000
    5.0153   -6.0561  -41.2434 C   0  0  0  0  0  0  0  0  0  0  0  0
    4.8755   -5.0070  -42.2682 N   0  0  0  0  0  0  0  0  0  0  0  0
    5.6816   -5.0176  -43.4356 C   0  0  0  0  0  0  0  0  0  0  0  0
    6.0479   -3.3083  -43.6054 S   0  0  0  0  0  0  0  0  0  0  0  0
    4.8649   -2.6546  -42.4925 C   0  0  0  0  0  0  0  0  0  0  0  0
    4.0027   -3.8619  -42.0971 C   0  0  0  0  0  0  0  0  0  0  0  0
    3.6122   -3.9797  -40.3918 S   0  0  0  0  0  0  0  0  0  0  0  0
    4.1640   -5.6350  -40.0469 C   0  0  0  0  0  0  0  0  0  0  0  0
    2.9388   -6.5564  -39.8944 C   0  0  0  0  0  0  0  0  0  0  0  0
    5.0833   -5.7285  -38.8186 C   0  0  0  0  0  0  0  0  0  0  0  0
    5.5433   -8.3437  -41.2819 O   0  0  0  0  0  0  0  0  0  0  0  0
    4.7330   -7.4749  -41.6649 C   0  0  0  0  0  0  0  0  0  0  0  0
    3.7311   -7.7580  -42.3598 O   0  0  0  0  0  0  0  0  0  0  0  0
    3.1424   -7.0812  -42.6306 H   0  0  0  0  0  0  0  0  0  0  0  0
    4.6838   -5.6265  -44.4354 C   0  0  0  0  0  0  0  0  0  0  0  0
    4.8678   -4.8618  -46.0376 S   0  0  0  0  0  0  0  0  0  0  0  0
    4.6236   -3.5279  -45.9341 H   0  0  0  0  0  0  0  0  0  0  0  0
 10  8  1  0  0  0
  9  8  1  0  0  0
  8  7  1  0  0  0
  8  1  1  0  0  0
 11 12  2  0  0  0
  7  6  1  0  0  0
  1 12  1  0  0  0
  1  2  1  0  0  0
 12 13  1  0  0  0
  2  6  1  0  0  0
  2  3  1  0  0  0
  6  5  1  0  0  0
  5  4  1  0  0  0
  3  4  1  0  0  0
  3 15  1  0  0  0
 15 16  1  0  0  0
 13 14  1  0  0  0
 16 17  1  0  0  0
M  END
> <minimizedAffinity>
-5.24627

$$$$
5EWA_9BZ_A_303


 17 18  0  0  0  0  0  0  0  0999 V2000
    3.5294   -6.9190  -39.3514 C   0  0  0  0  0  0  0  0  0  0  0  0
    3.9314   -8.3158  -39.1115 N   0  0  0  0  0  0  0  0  0  0  0  0
    3.8703   -8.8778  -37.8102 C   0  0  0  0  0  0  0  0  0  0  0  0
    5.3538   -9.8174  -37.7809 S   0  0  0  0  0  0  0  0  0  0  0  0
    5.7364   -9.7936  -39.4892 C   0  0  0  0  0  0  0  0  0  0  0  0
    4.5081   -9.1497  -40.1480 C   0  0  0  0  0  0  0  0  0  0  0  0
    4.8577   -7.9618  -41.3894 S   0  0  0  0  0  0  0  0  0  0  0  0
    3.9104   -6.5803  -40.7914 C   0  0  0  0  0  0  0  0  0  0  0  0
    2.6533   -6.4111  -41.6658 C   0  0  0  0  0  0  0  0  0  0  0  0
    4.7156   -5.2730  -40.7207 C   0  0  0  0  0  0  0  0  0  0  0  0
    1.9245   -5.5084  -38.3780 O   0  0  0  0  0  0  0  0  0  0  0  0
    2.1015   -6.5492  -39.0439 C   0  0  0  0  0  0  0  0  0  0  0  0
    1.1481   -7.2541  -39.4451 O   0  0  0  0  0  0  0  0  0  0  0  0
    1.3161   -8.0298  -39.9431 H   0  0  0  0  0  0  0  0  0  0  0  0
    2.5473   -9.6542  -37.9240 C   0  0  0  0  0  0  0  0  0  0  0  0
    1.5415   -9.3795  -36.4752 S   0  0  0  0  0  0  0  0  0  0  0  0
    2.2084   -9.8120  -35.3717 H   0  0  0  0  0  0  0  0  0  0  0  0
 10  8  1  0  0  0
  9  8  1  0  0  0
  8  7  1  0  0  0
  8  1  1  0  0  0
 11 12  2  0  0  0
  7  6  1  0  0  0
  1 12  1  0  0  0
  1  2  1  0  0  0
 12 13  1  0  0  0
  2  6  1  0  0  0
  2  3  1  0  0  0
  6  5  1  0  0  0
  5  4  1  0  0  0
  3  4  1  0  0  0
  3 15  1  0  0  0
 15 16  1  0  0  0
 13 14  1  0  0  0
 16 17  1  0  0  0
M  END
> <minimizedAffinity>
-5.11028

$$$$
5EWA_9BZ_A_303


 17 18  0  0  0  0  0  0  0  0999 V2000
    4.3339   -8.4715  -40.6048 C   0  0  0  0  0  0  0  0  0  0  0  0
    3.3835   -9.1358  -39.6961 N   0  0  0  0  0  0  0  0  0  0  0  0
    3.7543  -10.3045  -38.9823 C   0  0  0  0  0  0  0  0  0  0  0  0
    2.2827  -11.2548  -39.1078 S   0  0  0  0  0  0  0  0  0  0  0  0
    1.1867  -10.0059  -39.6594 C   0  0  0  0  0  0  0  0  0  0  0  0
    2.0040   -8.7096  -39.5641 C   0  0  0  0  0  0  0  0  0  0  0  0
    1.8485   -7.6216  -40.9303 S   0  0  0  0  0  0  0  0  0  0  0  0
    3.5599   -7.3894  -41.3555 C   0  0  0  0  0  0  0  0  0  0  0  0
    4.0075   -5.9848  -40.9079 C   0  0  0  0  0  0  0  0  0  0  0  0
    3.8543   -7.6150  -42.8471 C   0  0  0  0  0  0  0  0  0  0  0  0
    6.6744   -8.2946  -40.5435 O   0  0  0  0  0  0  0  0  0  0  0  0
    5.6077   -7.9384  -40.0019 C   0  0  0  0  0  0  0  0  0  0  0  0
    5.5860   -7.1735  -39.0113 O   0  0  0  0  0  0  0  0  0  0  0  0
    4.7674   -6.9257  -38.6287 H   0  0  0  0  0  0  0  0  0  0  0  0
    4.0758   -9.6820  -37.6129 C   0  0  0  0  0  0  0  0  0  0  0  0
    3.2734  -10.6019  -36.3107 S   0  0  0  0  0  0  0  0  0  0  0  0
    1.9267  -10.5727  -36.4986 H   0  0  0  0  0  0  0  0  0  0  0  0
 10  8  1  0  0  0
  9  8  1  0  0  0
  8  7  1  0  0  0
  8  1  1  0  0  0
 11 12  2  0  0  0
  7  6  1  0  0  0
  1 12  1  0  0  0
  1  2  1  0  0  0
 12 13  1  0  0  0
  2  6  1  0  0  0
  2  3  1  0  0  0
  6  5  1  0  0  0
  5  4  1  0  0  0
  3  4  1  0  0  0
  3 15  1  0  0  0
 15 16  1  0  0  0
 13 14  1  0  0  0
 16 17  1  0  0  0
M  END
> <minimizedAffinity>
-5.04526

$$$$
5EWA_9BZ_A_303


 17 18  0  0  0  0  0  0  0  0999 V2000
    3.5945   -4.2141  -42.2403 C   0  0  0  0  0  0  0  0  0  0  0  0
    4.4212   -3.9424  -43.4291 N   0  0  0  0  0  0  0  0  0  0  0  0
    4.4893   -2.6394  -43.9862 C   0  0  0  0  0  0  0  0  0  0  0  0
    4.4586   -3.0071  -45.7033 S   0  0  0  0  0  0  0  0  0  0  0  0
    4.7802   -4.7265  -45.6293 C   0  0  0  0  0  0  0  0  0  0  0  0
    5.1124   -4.9909  -44.1538 C   0  0  0  0  0  0  0  0  0  0  0  0
    4.3784   -6.4262  -43.4642 S   0  0  0  0  0  0  0  0  0  0  0  0
    3.5821   -5.7279  -42.0352 C   0  0  0  0  0  0  0  0  0  0  0  0
    4.3745   -6.1166  -40.7725 C   0  0  0  0  0  0  0  0  0  0  0  0
    2.1032   -6.1259  -41.9051 C   0  0  0  0  0  0  0  0  0  0  0  0
    2.9976   -2.9389  -40.3613 O   0  0  0  0  0  0  0  0  0  0  0  0
    3.9433   -3.4763  -40.9738 C   0  0  0  0  0  0  0  0  0  0  0  0
    5.1239   -3.4156  -40.5625 O   0  0  0  0  0  0  0  0  0  0  0  0
    5.8106   -3.8303  -41.0467 H   0  0  0  0  0  0  0  0  0  0  0  0
    5.8278   -2.1712  -43.3903 C   0  0  0  0  0  0  0  0  0  0  0  0
    6.7909   -1.3167  -44.6264 S   0  0  0  0  0  0  0  0  0  0  0  0
    7.0452   -2.1578  -45.6644 H   0  0  0  0  0  0  0  0  0  0  0  0
 10  8  1  0  0  0
  9  8  1  0  0  0
  8  7  1  0  0  0
  8  1  1  0  0  0
 11 12  2  0  0  0
  7  6  1  0  0  0
  1 12  1  0  0  0
  1  2  1  0  0  0
 12 13  1  0  0  0
  2  6  1  0  0  0
  2  3  1  0  0  0
  6  5  1  0  0  0
  5  4  1  0  0  0
  3  4  1  0  0  0
  3 15  1  0  0  0
 15 16  1  0  0  0
 13 14  1  0  0  0
 16 17  1  0  0  0
M  END
> <minimizedAffinity>
-4.98647

$$$$
5EWA_9BZ_A_303


 17 18  0  0  0  0  0  0  0  0999 V2000
    4.2910   -9.2254  -37.9788 C   0  0  0  0  0  0  0  0  0  0  0  0
    3.9874   -8.0405  -38.7999 N   0  0  0  0  0  0  0  0  0  0  0  0
    4.9813   -7.0628  -39.0628 C   0  0  0  0  0  0  0  0  0  0  0  0
    4.0443   -5.5846  -38.9164 S   0  0  0  0  0  0  0  0  0  0  0  0
    2.4327   -6.2675  -38.9538 C   0  0  0  0  0  0  0  0  0  0  0  0
    2.6525   -7.7504  -39.2857 C   0  0  0  0  0  0  0  0  0  0  0  0
    1.6931   -8.8800  -38.3488 S   0  0  0  0  0  0  0  0  0  0  0  0
    2.9700   -9.9493  -37.7247 C   0  0  0  0  0  0  0  0  0  0  0  0
    2.9246  -11.2896  -38.4831 C   0  0  0  0  0  0  0  0  0  0  0  0
    2.8929  -10.1700  -36.2055 C   0  0  0  0  0  0  0  0  0  0  0  0
    6.1763  -10.5839  -37.6421 O   0  0  0  0  0  0  0  0  0  0  0  0
    5.3584  -10.1607  -38.4848 C   0  0  0  0  0  0  0  0  0  0  0  0
    5.4105  -10.4942  -39.6901 O   0  0  0  0  0  0  0  0  0  0  0  0
    4.7806  -10.1580  -40.2969 H   0  0  0  0  0  0  0  0  0  0  0  0
    5.4013   -7.4930  -40.4786 C   0  0  0  0  0  0  0  0  0  0  0  0
    5.2850   -6.1133  -41.6051 S   0  0  0  0  0  0  0  0  0  0  0  0
    4.0004   -5.6689  -41.6465 H   0  0  0  0  0  0  0  0  0  0  0  0
 10  8  1  0  0  0
  9  8  1  0  0  0
  8  7  1  0  0  0
  8  1  1  0  0  0
 11 12  2  0  0  0
  7  6  1  0  0  0
  1 12  1  0  0  0
  1  2  1  0  0  0
 12 13  1  0  0  0
  2  6  1  0  0  0
  2  3  1  0  0  0
  6  5  1  0  0  0
  5  4  1  0  0  0
  3  4  1  0  0  0
  3 15  1  0  0  0
 15 16  1  0  0  0
 13 14  1  0  0  0
 16 17  1  0  0  0
M  END
> <minimizedAffinity>
-4.91703

$$$$
5EWA_9BZ_A_303


 17 18  0  0  0  0  0  0  0  0999 V2000
    2.5315   -8.5698  -39.9070 C   0  0  0  0  0  0  0  0  0  0  0  0
    3.9592   -8.4241  -39.5745 N   0  0  0  0  0  0  0  0  0  0  0  0
    4.9135   -8.1204  -40.5794 C   0  0  0  0  0  0  0  0  0  0  0  0
    6.2486   -9.1546  -40.0973 S   0  0  0  0  0  0  0  0  0  0  0  0
    5.7129   -9.5728  -38.4838 C   0  0  0  0  0  0  0  0  0  0  0  0
    4.4811   -8.6873  -38.2476 C   0  0  0  0  0  0  0  0  0  0  0  0
    3.1148   -9.4869  -37.4937 S   0  0  0  0  0  0  0  0  0  0  0  0
    1.8276   -9.0935  -38.6564 C   0  0  0  0  0  0  0  0  0  0  0  0
    0.9100   -8.0141  -38.0511 C   0  0  0  0  0  0  0  0  0  0  0  0
    1.0174  -10.3193  -39.1078 C   0  0  0  0  0  0  0  0  0  0  0  0
    1.1272   -7.5648  -41.4980 O   0  0  0  0  0  0  0  0  0  0  0  0
    1.8315   -7.3679  -40.4864 C   0  0  0  0  0  0  0  0  0  0  0  0
    1.9528   -6.2346  -39.9690 O   0  0  0  0  0  0  0  0  0  0  0  0
    2.4898   -6.1214  -39.2094 H   0  0  0  0  0  0  0  0  0  0  0  0
    5.0715   -6.6091  -40.3400 C   0  0  0  0  0  0  0  0  0  0  0  0
    5.2271   -5.7485  -41.8959 S   0  0  0  0  0  0  0  0  0  0  0  0
    6.3249   -6.2032  -42.5576 H   0  0  0  0  0  0  0  0  0  0  0  0
 10  8  1  0  0  0
  9  8  1  0  0  0
  8  7  1  0  0  0
  8  1  1  0  0  0
 11 12  2  0  0  0
  7  6  1  0  0  0
  1 12  1  0  0  0
  1  2  1  0  0  0
 12 13  1  0  0  0
  2  6  1  0  0  0
  2  3  1  0  0  0
  6  5  1  0  0  0
  5  4  1  0  0  0
  3  4  1  0  0  0
  3 15  1  0  0  0
 15 16  1  0  0  0
 13 14  1  0  0  0
 16 17  1  0  0  0
M  END
> <minimizedAffinity>
-4.73819

$$$$
5EWA_9BZ_A_303


 17 18  0  0  0  0  0  0  0  0999 V2000
    2.6441   -8.4940  -39.4150 C   0  0  0  0  0  0  0  0  0  0  0  0
    3.7273   -7.5771  -39.8103 N   0  0  0  0  0  0  0  0  0  0  0  0
    3.5141   -6.5813  -40.7982 C   0  0  0  0  0  0  0  0  0  0  0  0
    5.0265   -6.6619  -41.6872 S   0  0  0  0  0  0  0  0  0  0  0  0
    5.9707   -7.6036  -40.5527 C   0  0  0  0  0  0  0  0  0  0  0  0
    5.0805   -7.7062  -39.3059 C   0  0  0  0  0  0  0  0  0  0  0  0
    5.0178   -9.2900  -38.5562 S   0  0  0  0  0  0  0  0  0  0  0  0
    3.2595   -9.5532  -38.5023 C   0  0  0  0  0  0  0  0  0  0  0  0
    2.7654   -9.3824  -37.0532 C   0  0  0  0  0  0  0  0  0  0  0  0
    2.8278  -10.9114  -39.0779 C   0  0  0  0  0  0  0  0  0  0  0  0
    0.3107   -8.3215  -39.2179 O   0  0  0  0  0  0  0  0  0  0  0  0
    1.4063   -7.8811  -38.8129 C   0  0  0  0  0  0  0  0  0  0  0  0
    1.4837   -6.9801  -37.9475 O   0  0  0  0  0  0  0  0  0  0  0  0
    2.3226   -6.6722  -37.6655 H   0  0  0  0  0  0  0  0  0  0  0  0
    3.2946   -5.3582  -39.8916 C   0  0  0  0  0  0  0  0  0  0  0  0
    4.3982   -4.0353  -40.3585 S   0  0  0  0  0  0  0  0  0  0  0  0
    5.6862   -4.4515  -40.2265 H   0  0  0  0  0  0  0  0  0  0  0  0
 10  8  1  0  0  0
  9  8  1  0  0  0
  8  7  1  0  0  0
  8  1  1  0  0  0
 11 12  2  0  0  0
  7  6  1  0  0  0
  1 12  1  0  0  0
  1  2  1  0  0  0
 12 13  1  0  0  0
  2  6  1  0  0  0
  2  3  1  0  0  0
  6  5  1  0  0  0
  5  4  1  0  0  0
  3  4  1  0  0  0
  3 15  1  0  0  0
 15 16  1  0  0  0
 13 14  1  0  0  0
 16 17  1  0  0  0
M  END
> <minimizedAffinity>
-4.73662

$$$$
