1V2N_BBA_T_1


 34 36  0  0  0  0  0  0  0  0999 V2000
   43.1685   24.4667   52.3376 C   0  0  0  0  0  0  0  0  0  0  0  0
   43.8315   25.8278   52.3375 C   0  0  0  0  0  0  0  0  0  0  0  0
   44.4856   26.1042   53.7239 C   0  0  0  0  0  0  0  0  0  0  0  0
   43.4249   26.5352   54.7868 C   0  0  0  0  0  0  0  0  0  0  0  0
   42.4778   25.3540   55.1687 C   0  0  0  0  0  0  0  0  0  0  0  0
   41.4030   25.1913   54.1159 C   0  0  0  0  0  0  0  0  0  0  0  0
   41.7693   24.3978   52.8927 C   0  0  0  0  0  0  0  0  0  0  0  0
   40.9292   23.6827   52.3553 O   0  0  0  0  0  0  0  0  0  0  0  0
   43.8575   23.4537   51.7378 C   0  0  0  0  0  0  0  0  0  0  0  0
   44.3316   22.1377   52.3574 C   0  0  0  0  0  0  0  0  0  0  0  0
   44.0221   20.8694   51.7662 C   0  0  0  0  0  0  0  0  0  0  0  0
   44.4844   19.6726   52.3502 C   0  0  0  0  0  0  0  0  0  0  0  0
   45.0819   22.1761   53.5688 C   0  0  0  0  0  0  0  0  0  0  0  0
   45.5458   20.9672   54.1583 C   0  0  0  0  0  0  0  0  0  0  0  0
   45.2338   19.7120   53.5576 C   0  0  0  0  0  0  0  0  0  0  0  0
   45.7200   18.4196   54.1689 C   0  0  0  0  0  0  0  0  0  0  0  0
   45.1858   17.2222   53.7809 N   0  0  0  0  0  0  0  0  0  0  0  0
   46.7029   18.4429   55.1243 N   0  0  0  0  0  0  0  0  0  0  0  0
   44.4796   17.1973   53.0954 H   0  0  0  0  0  0  0  0  0  0  0  0
   45.5074   16.3850   54.1870 H   0  0  0  0  0  0  0  0  0  0  0  0
   47.0925   19.3010   55.4090 H   0  0  0  0  0  0  0  0  0  0  0  0
   40.1765   25.6938   54.4236 C   0  0  0  0  0  0  0  0  0  0  0  0
   39.2231   25.2525   55.5266 C   0  0  0  0  0  0  0  0  0  0  0  0
   39.5181   25.5675   56.8851 C   0  0  0  0  0  0  0  0  0  0  0  0
   38.6231   25.1650   57.9236 C   0  0  0  0  0  0  0  0  0  0  0  0
   38.0337   24.5317   55.2204 C   0  0  0  0  0  0  0  0  0  0  0  0
   37.1443   24.1307   56.2488 C   0  0  0  0  0  0  0  0  0  0  0  0
   37.4285   24.4420   57.6031 C   0  0  0  0  0  0  0  0  0  0  0  0
   36.4618   24.0081   58.6901 C   0  0  0  0  0  0  0  0  0  0  0  0
   35.3093   23.3413   58.3602 N   0  0  0  0  0  0  0  0  0  0  0  0
   36.7199   24.2885   60.0042 N   0  0  0  0  0  0  0  0  0  0  0  0
   35.1130   23.1341   57.4179 H   0  0  0  0  0  0  0  0  0  0  0  0
   34.6785   23.0699   59.0656 H   0  0  0  0  0  0  0  0  0  0  0  0
   37.5438   24.7666   60.2529 H   0  0  0  0  0  0  0  0  0  0  0  0
  9 10  1  0  0  0
  9  1  1  0  0  0
 10 11  2  0  0  0
 10 13  1  0  0  0
 11 12  1  0  0  0
 12 15  2  0  0  0
 13 14  2  0  0  0
 14 15  1  0  0  0
 15 16  1  0  0  0
 16 17  1  0  0  0
 16 18  2  0  0  0
 22 23  1  0  0  0
 22  6  1  0  0  0
 23 24  2  0  0  0
 23 26  1  0  0  0
 24 25  1  0  0  0
 25 28  2  0  0  0
 26 27  2  0  0  0
 27 28  1  0  0  0
 28 29  1  0  0  0
 29 30  1  0  0  0
 29 31  2  0  0  0
  1  2  1  0  0  0
  1  7  1  0  0  0
  2  3  1  0  0  0
  3  4  1  0  0  0
  4  5  1  0  0  0
  5  6  1  0  0  0
  6  7  1  0  0  0
  7  8  2  0  0  0
 17 19  1  0  0  0
 17 20  1  0  0  0
 18 21  1  0  0  0
 30 32  1  0  0  0
 30 33  1  0  0  0
 31 34  1  0  0  0
M  END
> <minimizedAffinity>
-9.50077

$$$$
1V2N_BBA_T_1


 34 36  0  0  0  0  0  0  0  0999 V2000
   41.2616   25.4538   54.1908 C   0  0  0  0  0  0  0  0  0  0  0  0
   42.1545   25.5029   55.4125 C   0  0  0  0  0  0  0  0  0  0  0  0
   43.1927   26.6554   55.2701 C   0  0  0  0  0  0  0  0  0  0  0  0
   44.3731   26.2556   54.3280 C   0  0  0  0  0  0  0  0  0  0  0  0
   43.9084   26.1293   52.8426 C   0  0  0  0  0  0  0  0  0  0  0  0
   43.2376   24.7908   52.6223 C   0  0  0  0  0  0  0  0  0  0  0  0
   41.7864   24.6912   53.0019 C   0  0  0  0  0  0  0  0  0  0  0  0
   41.0271   23.9978   52.3321 O   0  0  0  0  0  0  0  0  0  0  0  0
   40.0234   26.0116   54.3187 C   0  0  0  0  0  0  0  0  0  0  0  0
   38.9368   25.6744   55.3415 C   0  0  0  0  0  0  0  0  0  0  0  0
   38.5995   26.5696   56.4085 C   0  0  0  0  0  0  0  0  0  0  0  0
   37.5835   26.2403   57.3286 C   0  0  0  0  0  0  0  0  0  0  0  0
   38.2593   24.4242   55.2417 C   0  0  0  0  0  0  0  0  0  0  0  0
   37.2357   24.0922   56.1725 C   0  0  0  0  0  0  0  0  0  0  0  0
   36.9073   24.9939   57.2274 C   0  0  0  0  0  0  0  0  0  0  0  0
   35.8223   24.6581   58.2225 C   0  0  0  0  0  0  0  0  0  0  0  0
   35.3787   23.3721   58.3606 N   0  0  0  0  0  0  0  0  0  0  0  0
   35.2719   25.6490   58.9937 N   0  0  0  0  0  0  0  0  0  0  0  0
   35.7690   22.6550   57.8104 H   0  0  0  0  0  0  0  0  0  0  0  0
   34.6690   23.1633   59.0102 H   0  0  0  0  0  0  0  0  0  0  0  0
   35.5860   26.5774   58.9000 H   0  0  0  0  0  0  0  0  0  0  0  0
   43.9863   23.8350   52.0078 C   0  0  0  0  0  0  0  0  0  0  0  0
   44.3812   22.4605   52.5321 C   0  0  0  0  0  0  0  0  0  0  0  0
   43.9818   21.2907   51.8224 C   0  0  0  0  0  0  0  0  0  0  0  0
   44.3572   19.9987   52.3036 C   0  0  0  0  0  0  0  0  0  0  0  0
   45.1509   22.3251   53.7226 C   0  0  0  0  0  0  0  0  0  0  0  0
   45.5243   21.0446   54.2024 C   0  0  0  0  0  0  0  0  0  0  0  0
   45.1335   19.8752   53.5013 C   0  0  0  0  0  0  0  0  0  0  0  0
   45.5466   18.5128   54.0283 C   0  0  0  0  0  0  0  0  0  0  0  0
   46.5646   18.4079   54.9416 N   0  0  0  0  0  0  0  0  0  0  0  0
   44.9214   17.3775   53.5896 N   0  0  0  0  0  0  0  0  0  0  0  0
   47.0218   19.2178   55.2645 H   0  0  0  0  0  0  0  0  0  0  0  0
   46.8381   17.5226   55.2743 H   0  0  0  0  0  0  0  0  0  0  0  0
   44.1895   17.4406   52.9342 H   0  0  0  0  0  0  0  0  0  0  0  0
  9 10  1  0  0  0
  9  1  1  0  0  0
 10 11  2  0  0  0
 10 13  1  0  0  0
 11 12  1  0  0  0
 12 15  2  0  0  0
 13 14  2  0  0  0
 14 15  1  0  0  0
 15 16  1  0  0  0
 16 17  1  0  0  0
 16 18  2  0  0  0
 22 23  1  0  0  0
 22  6  1  0  0  0
 23 24  2  0  0  0
 23 26  1  0  0  0
 24 25  1  0  0  0
 25 28  2  0  0  0
 26 27  2  0  0  0
 27 28  1  0  0  0
 28 29  1  0  0  0
 29 30  1  0  0  0
 29 31  2  0  0  0
  1  2  1  0  0  0
  1  7  1  0  0  0
  2  3  1  0  0  0
  3  4  1  0  0  0
  4  5  1  0  0  0
  5  6  1  0  0  0
  6  7  1  0  0  0
  7  8  2  0  0  0
 17 19  1  0  0  0
 17 20  1  0  0  0
 18 21  1  0  0  0
 30 32  1  0  0  0
 30 33  1  0  0  0
 31 34  1  0  0  0
M  END
> <minimizedAffinity>
-9.28028

$$$$
1V2N_BBA_T_1


 34 36  0  0  0  0  0  0  0  0999 V2000
   41.4760   25.4668   54.2371 C   0  0  0  0  0  0  0  0  0  0  0  0
   42.5903   25.7533   55.2212 C   0  0  0  0  0  0  0  0  0  0  0  0
   43.4657   26.9354   54.7087 C   0  0  0  0  0  0  0  0  0  0  0  0
   44.4616   26.4760   53.5961 C   0  0  0  0  0  0  0  0  0  0  0  0
   43.7181   26.1014   52.2751 C   0  0  0  0  0  0  0  0  0  0  0  0
   43.1444   24.7052   52.3822 C   0  0  0  0  0  0  0  0  0  0  0  0
   41.8166   24.5711   53.0743 C   0  0  0  0  0  0  0  0  0  0  0  0
   41.0049   23.7391   52.6805 O   0  0  0  0  0  0  0  0  0  0  0  0
   40.2432   25.9576   54.5533 C   0  0  0  0  0  0  0  0  0  0  0  0
   39.2587   25.4345   55.6009 C   0  0  0  0  0  0  0  0  0  0  0  0
   38.1284   24.6305   55.2407 C   0  0  0  0  0  0  0  0  0  0  0  0
   37.2451   24.1492   56.2283 C   0  0  0  0  0  0  0  0  0  0  0  0
   39.4608   25.7774   56.9697 C   0  0  0  0  0  0  0  0  0  0  0  0
   38.5671   25.2928   57.9651 C   0  0  0  0  0  0  0  0  0  0  0  0
   37.4483   24.4905   57.5933 C   0  0  0  0  0  0  0  0  0  0  0  0
   36.4912   23.9663   58.6372 C   0  0  0  0  0  0  0  0  0  0  0  0
   36.7374   24.1624   59.9678 N   0  0  0  0  0  0  0  0  0  0  0  0
   35.3664   23.2839   58.2517 N   0  0  0  0  0  0  0  0  0  0  0  0
   37.5430   24.6515   60.2525 H   0  0  0  0  0  0  0  0  0  0  0  0
   36.1090   23.8147   60.6412 H   0  0  0  0  0  0  0  0  0  0  0  0
   35.1822   23.1387   57.2955 H   0  0  0  0  0  0  0  0  0  0  0  0
   43.8382   23.7183   51.7527 C   0  0  0  0  0  0  0  0  0  0  0  0
   44.2808   22.3708   52.3082 C   0  0  0  0  0  0  0  0  0  0  0  0
   44.9973   22.3136   53.5392 C   0  0  0  0  0  0  0  0  0  0  0  0
   45.4070   21.0522   54.0707 C   0  0  0  0  0  0  0  0  0  0  0  0
   43.9845   21.1615   51.6171 C   0  0  0  0  0  0  0  0  0  0  0  0
   44.3902   19.9088   52.1419 C   0  0  0  0  0  0  0  0  0  0  0  0
   45.1013   19.8421   53.3673 C   0  0  0  0  0  0  0  0  0  0  0  0
   45.5235   18.4910   53.9157 C   0  0  0  0  0  0  0  0  0  0  0  0
   44.8672   17.3527   53.5218 N   0  0  0  0  0  0  0  0  0  0  0  0
   46.5490   18.3945   54.8163 N   0  0  0  0  0  0  0  0  0  0  0  0
   44.1277   17.4099   52.8743 H   0  0  0  0  0  0  0  0  0  0  0  0
   45.1356   16.4785   53.8865 H   0  0  0  0  0  0  0  0  0  0  0  0
   47.0273   19.2046   55.1063 H   0  0  0  0  0  0  0  0  0  0  0  0
  9 10  1  0  0  0
  9  1  1  0  0  0
 10 11  2  0  0  0
 10 13  1  0  0  0
 11 12  1  0  0  0
 12 15  2  0  0  0
 13 14  2  0  0  0
 14 15  1  0  0  0
 15 16  1  0  0  0
 16 17  1  0  0  0
 16 18  2  0  0  0
 22 23  1  0  0  0
 22  6  1  0  0  0
 23 24  2  0  0  0
 23 26  1  0  0  0
 24 25  1  0  0  0
 25 28  2  0  0  0
 26 27  2  0  0  0
 27 28  1  0  0  0
 28 29  1  0  0  0
 29 30  1  0  0  0
 29 31  2  0  0  0
  1  2  1  0  0  0
  1  7  1  0  0  0
  2  3  1  0  0  0
  3  4  1  0  0  0
  4  5  1  0  0  0
  5  6  1  0  0  0
  6  7  1  0  0  0
  7  8  2  0  0  0
 17 19  1  0  0  0
 17 20  1  0  0  0
 18 21  1  0  0  0
 30 32  1  0  0  0
 30 33  1  0  0  0
 31 34  1  0  0  0
M  END
> <minimizedAffinity>
-9.16039

$$$$
1V2N_BBA_T_1


 34 36  0  0  0  0  0  0  0  0999 V2000
   42.9196   23.8417   51.5871 C   0  0  0  0  0  0  0  0  0  0  0  0
   42.2342   24.7149   50.5576 C   0  0  0  0  0  0  0  0  0  0  0  0
   43.1270   25.9463   50.2213 C   0  0  0  0  0  0  0  0  0  0  0  0
   43.0352   27.0453   51.3279 C   0  0  0  0  0  0  0  0  0  0  0  0
   43.7088   26.5820   52.6582 C   0  0  0  0  0  0  0  0  0  0  0  0
   42.7672   25.6824   53.4291 C   0  0  0  0  0  0  0  0  0  0  0  0
   42.7395   24.2330   53.0311 C   0  0  0  0  0  0  0  0  0  0  0  0
   42.5837   23.3681   53.8877 O   0  0  0  0  0  0  0  0  0  0  0  0
   43.5447   22.7237   51.1182 C   0  0  0  0  0  0  0  0  0  0  0  0
   44.1258   21.5591   51.9223 C   0  0  0  0  0  0  0  0  0  0  0  0
   45.1440   21.7573   52.9111 C   0  0  0  0  0  0  0  0  0  0  0  0
   45.6514   20.6681   53.6483 C   0  0  0  0  0  0  0  0  0  0  0  0
   43.6563   20.2386   51.6621 C   0  0  0  0  0  0  0  0  0  0  0  0
   44.1710   19.1399   52.4053 C   0  0  0  0  0  0  0  0  0  0  0  0
   45.1815   19.3517   53.3891 C   0  0  0  0  0  0  0  0  0  0  0  0
   45.7372   18.1972   54.1883 C   0  0  0  0  0  0  0  0  0  0  0  0
   46.7253   18.4017   55.1111 N   0  0  0  0  0  0  0  0  0  0  0  0
   45.2521   16.9308   53.9873 N   0  0  0  0  0  0  0  0  0  0  0  0
   47.0788   19.3082   55.2611 H   0  0  0  0  0  0  0  0  0  0  0  0
   47.0832   17.6424   55.6255 H   0  0  0  0  0  0  0  0  0  0  0  0
   44.5407   16.7756   53.3247 H   0  0  0  0  0  0  0  0  0  0  0  0
   42.1102   26.2524   54.4755 C   0  0  0  0  0  0  0  0  0  0  0  0
   40.8699   25.7478   55.2017 C   0  0  0  0  0  0  0  0  0  0  0  0
   39.6861   25.4576   54.4627 C   0  0  0  0  0  0  0  0  0  0  0  0
   38.5223   24.9747   55.1365 C   0  0  0  0  0  0  0  0  0  0  0  0
   40.8759   25.5554   56.6127 C   0  0  0  0  0  0  0  0  0  0  0  0
   39.7226   25.0769   57.2837 C   0  0  0  0  0  0  0  0  0  0  0  0
   38.5410   24.7832   56.5562 C   0  0  0  0  0  0  0  0  0  0  0  0
   37.3172   24.2675   57.2918 C   0  0  0  0  0  0  0  0  0  0  0  0
   36.3153   23.6342   56.6014 N   0  0  0  0  0  0  0  0  0  0  0  0
   37.1928   24.4404   58.6433 N   0  0  0  0  0  0  0  0  0  0  0  0
   36.3938   23.5041   55.6287 H   0  0  0  0  0  0  0  0  0  0  0  0
   35.5176   23.3097   57.0786 H   0  0  0  0  0  0  0  0  0  0  0  0
   37.9055   24.8935   59.1493 H   0  0  0  0  0  0  0  0  0  0  0  0
  9 10  1  0  0  0
  9  1  1  0  0  0
 10 11  2  0  0  0
 10 13  1  0  0  0
 11 12  1  0  0  0
 12 15  2  0  0  0
 13 14  2  0  0  0
 14 15  1  0  0  0
 15 16  1  0  0  0
 16 17  1  0  0  0
 16 18  2  0  0  0
 22 23  1  0  0  0
 22  6  1  0  0  0
 23 24  2  0  0  0
 23 26  1  0  0  0
 24 25  1  0  0  0
 25 28  2  0  0  0
 26 27  2  0  0  0
 27 28  1  0  0  0
 28 29  1  0  0  0
 29 30  1  0  0  0
 29 31  2  0  0  0
  1  2  1  0  0  0
  1  7  1  0  0  0
  2  3  1  0  0  0
  3  4  1  0  0  0
  4  5  1  0  0  0
  5  6  1  0  0  0
  6  7  1  0  0  0
  7  8  2  0  0  0
 17 19  1  0  0  0
 17 20  1  0  0  0
 18 21  1  0  0  0
 30 32  1  0  0  0
 30 33  1  0  0  0
 31 34  1  0  0  0
M  END
> <minimizedAffinity>
-9.05073

$$$$
1V2N_BBA_T_1


 34 36  0  0  0  0  0  0  0  0999 V2000
   42.6378   26.2205   53.3295 C   0  0  0  0  0  0  0  0  0  0  0  0
   43.0315   27.1525   52.2031 C   0  0  0  0  0  0  0  0  0  0  0  0
   42.1052   26.9244   50.9717 C   0  0  0  0  0  0  0  0  0  0  0  0
   42.5187   25.6511   50.1664 C   0  0  0  0  0  0  0  0  0  0  0  0
   42.2269   24.3424   50.9666 C   0  0  0  0  0  0  0  0  0  0  0  0
   43.3259   24.0983   51.9778 C   0  0  0  0  0  0  0  0  0  0  0  0
   43.2147   24.8292   53.2868 C   0  0  0  0  0  0  0  0  0  0  0  0
   43.5825   24.2840   54.3229 O   0  0  0  0  0  0  0  0  0  0  0  0
   41.8862   26.7601   54.3317 C   0  0  0  0  0  0  0  0  0  0  0  0
   40.7128   26.1241   55.0794 C   0  0  0  0  0  0  0  0  0  0  0  0
   39.6544   25.4477   54.3892 C   0  0  0  0  0  0  0  0  0  0  0  0
   38.5925   24.8576   55.1042 C   0  0  0  0  0  0  0  0  0  0  0  0
   40.6614   26.2291   56.5000 C   0  0  0  0  0  0  0  0  0  0  0  0
   39.5877   25.6349   57.2201 C   0  0  0  0  0  0  0  0  0  0  0  0
   38.5429   24.9615   56.5211 C   0  0  0  0  0  0  0  0  0  0  0  0
   37.3971   24.3236   57.2699 C   0  0  0  0  0  0  0  0  0  0  0  0
   36.4073   23.6635   56.5959 N   0  0  0  0  0  0  0  0  0  0  0  0
   37.3432   24.4078   58.6372 N   0  0  0  0  0  0  0  0  0  0  0  0
   36.4390   23.5988   55.6141 H   0  0  0  0  0  0  0  0  0  0  0  0
   35.6629   23.2530   57.0926 H   0  0  0  0  0  0  0  0  0  0  0  0
   38.0521   24.8813   59.1295 H   0  0  0  0  0  0  0  0  0  0  0  0
   44.2558   23.1628   51.6437 C   0  0  0  0  0  0  0  0  0  0  0  0
   44.3498   21.7148   52.1070 C   0  0  0  0  0  0  0  0  0  0  0  0
   45.1143   21.3906   53.2656 C   0  0  0  0  0  0  0  0  0  0  0  0
   45.1986   20.0356   53.7111 C   0  0  0  0  0  0  0  0  0  0  0  0
   43.6788   20.6759   51.4011 C   0  0  0  0  0  0  0  0  0  0  0  0
   43.7611   19.3307   51.8407 C   0  0  0  0  0  0  0  0  0  0  0  0
   44.5174   18.9992   52.9939 C   0  0  0  0  0  0  0  0  0  0  0  0
   44.5902   17.5537   53.4518 C   0  0  0  0  0  0  0  0  0  0  0  0
   43.6046   16.6685   53.0959 N   0  0  0  0  0  0  0  0  0  0  0  0
   45.6270   17.1220   54.2334 N   0  0  0  0  0  0  0  0  0  0  0  0
   42.8537   16.9677   52.5338 H   0  0  0  0  0  0  0  0  0  0  0  0
   43.6481   15.7340   53.4025 H   0  0  0  0  0  0  0  0  0  0  0  0
   46.3401   17.7483   54.4951 H   0  0  0  0  0  0  0  0  0  0  0  0
  9 10  1  0  0  0
  9  1  1  0  0  0
 10 11  2  0  0  0
 10 13  1  0  0  0
 11 12  1  0  0  0
 12 15  2  0  0  0
 13 14  2  0  0  0
 14 15  1  0  0  0
 15 16  1  0  0  0
 16 17  1  0  0  0
 16 18  2  0  0  0
 22 23  1  0  0  0
 22  6  1  0  0  0
 23 24  2  0  0  0
 23 26  1  0  0  0
 24 25  1  0  0  0
 25 28  2  0  0  0
 26 27  2  0  0  0
 27 28  1  0  0  0
 28 29  1  0  0  0
 29 30  1  0  0  0
 29 31  2  0  0  0
  1  2  1  0  0  0
  1  7  1  0  0  0
  2  3  1  0  0  0
  3  4  1  0  0  0
  4  5  1  0  0  0
  5  6  1  0  0  0
  6  7  1  0  0  0
  7  8  2  0  0  0
 17 19  1  0  0  0
 17 20  1  0  0  0
 18 21  1  0  0  0
 30 32  1  0  0  0
 30 33  1  0  0  0
 31 34  1  0  0  0
M  END
> <minimizedAffinity>
-9.04012

$$$$
1V2N_BBA_T_1


 34 36  0  0  0  0  0  0  0  0999 V2000
   42.9497   25.4970   53.8435 C   0  0  0  0  0  0  0  0  0  0  0  0
   43.3678   26.6246   54.7632 C   0  0  0  0  0  0  0  0  0  0  0  0
   43.4348   26.1177   56.2346 C   0  0  0  0  0  0  0  0  0  0  0  0
   42.0138   26.0179   56.8760 C   0  0  0  0  0  0  0  0  0  0  0  0
   41.1711   24.8697   56.2357 C   0  0  0  0  0  0  0  0  0  0  0  0
   40.5802   25.3325   54.9216 C   0  0  0  0  0  0  0  0  0  0  0  0
   41.4697   25.2466   53.7127 C   0  0  0  0  0  0  0  0  0  0  0  0
   40.9889   24.9581   52.6211 O   0  0  0  0  0  0  0  0  0  0  0  0
   43.9446   24.8857   53.1384 C   0  0  0  0  0  0  0  0  0  0  0  0
   44.3805   23.4204   53.1968 C   0  0  0  0  0  0  0  0  0  0  0  0
   45.3737   22.9639   54.1237 C   0  0  0  0  0  0  0  0  0  0  0  0
   45.7460   21.6049   54.1662 C   0  0  0  0  0  0  0  0  0  0  0  0
   43.7979   22.4903   52.2872 C   0  0  0  0  0  0  0  0  0  0  0  0
   44.1763   21.1194   52.3299 C   0  0  0  0  0  0  0  0  0  0  0  0
   45.1633   20.6778   53.2597 C   0  0  0  0  0  0  0  0  0  0  0  0
   45.5750   19.2262   53.3197 C   0  0  0  0  0  0  0  0  0  0  0  0
   46.3401   18.7623   54.3537 N   0  0  0  0  0  0  0  0  0  0  0  0
   45.1835   18.3633   52.3289 N   0  0  0  0  0  0  0  0  0  0  0  0
   46.6253   19.3757   55.0689 H   0  0  0  0  0  0  0  0  0  0  0  0
   46.6059   17.8147   54.3829 H   0  0  0  0  0  0  0  0  0  0  0  0
   44.6325   18.6898   51.5812 H   0  0  0  0  0  0  0  0  0  0  0  0
   39.2667   25.6874   54.9429 C   0  0  0  0  0  0  0  0  0  0  0  0
   38.2048   25.3223   55.9720 C   0  0  0  0  0  0  0  0  0  0  0  0
   37.4609   24.1155   55.8237 C   0  0  0  0  0  0  0  0  0  0  0  0
   36.4700   23.7623   56.7908 C   0  0  0  0  0  0  0  0  0  0  0  0
   37.9457   26.1685   57.0876 C   0  0  0  0  0  0  0  0  0  0  0  0
   36.9629   25.8208   58.0482 C   0  0  0  0  0  0  0  0  0  0  0  0
   36.2197   24.6206   57.9101 C   0  0  0  0  0  0  0  0  0  0  0  0
   35.1745   24.2630   58.9514 C   0  0  0  0  0  0  0  0  0  0  0  0
   34.8345   25.1680   59.9244 N   0  0  0  0  0  0  0  0  0  0  0  0
   34.5727   23.0342   58.9406 N   0  0  0  0  0  0  0  0  0  0  0  0
   35.2610   26.0552   59.9422 H   0  0  0  0  0  0  0  0  0  0  0  0
   34.1641   24.9304   60.6051 H   0  0  0  0  0  0  0  0  0  0  0  0
   34.8088   22.3765   58.2470 H   0  0  0  0  0  0  0  0  0  0  0  0
  9 10  1  0  0  0
  9  1  1  0  0  0
 10 11  2  0  0  0
 10 13  1  0  0  0
 11 12  1  0  0  0
 12 15  2  0  0  0
 13 14  2  0  0  0
 14 15  1  0  0  0
 15 16  1  0  0  0
 16 17  1  0  0  0
 16 18  2  0  0  0
 22 23  1  0  0  0
 22  6  1  0  0  0
 23 24  2  0  0  0
 23 26  1  0  0  0
 24 25  1  0  0  0
 25 28  2  0  0  0
 26 27  2  0  0  0
 27 28  1  0  0  0
 28 29  1  0  0  0
 29 30  1  0  0  0
 29 31  2  0  0  0
  1  2  1  0  0  0
  1  7  1  0  0  0
  2  3  1  0  0  0
  3  4  1  0  0  0
  4  5  1  0  0  0
  5  6  1  0  0  0
  6  7  1  0  0  0
  7  8  2  0  0  0
 17 19  1  0  0  0
 17 20  1  0  0  0
 18 21  1  0  0  0
 30 32  1  0  0  0
 30 33  1  0  0  0
 31 34  1  0  0  0
M  END
> <minimizedAffinity>
-8.99396

$$$$
1V2N_BBA_T_1


 34 36  0  0  0  0  0  0  0  0999 V2000
   42.4774   26.3555   53.4700 C   0  0  0  0  0  0  0  0  0  0  0  0
   42.8601   27.3158   52.3637 C   0  0  0  0  0  0  0  0  0  0  0  0
   41.9477   27.0912   51.1213 C   0  0  0  0  0  0  0  0  0  0  0  0
   42.3934   25.8416   50.2963 C   0  0  0  0  0  0  0  0  0  0  0  0
   42.1229   24.5127   51.0704 C   0  0  0  0  0  0  0  0  0  0  0  0
   43.2193   24.2729   52.0856 C   0  0  0  0  0  0  0  0  0  0  0  0
   43.0834   24.9774   53.4066 C   0  0  0  0  0  0  0  0  0  0  0  0
   43.4548   24.4211   54.4355 O   0  0  0  0  0  0  0  0  0  0  0  0
   41.7075   26.8612   54.4760 C   0  0  0  0  0  0  0  0  0  0  0  0
   40.5473   26.1845   55.2086 C   0  0  0  0  0  0  0  0  0  0  0  0
   40.3503   26.3415   56.6194 C   0  0  0  0  0  0  0  0  0  0  0  0
   39.2640   25.7184   57.2668 C   0  0  0  0  0  0  0  0  0  0  0  0
   39.6531   25.3568   54.4690 C   0  0  0  0  0  0  0  0  0  0  0  0
   38.5585   24.7267   55.1242 C   0  0  0  0  0  0  0  0  0  0  0  0
   38.3718   24.8943   56.5281 C   0  0  0  0  0  0  0  0  0  0  0  0
   37.2143   24.2345   57.2388 C   0  0  0  0  0  0  0  0  0  0  0  0
   37.0555   24.3759   58.5895 N   0  0  0  0  0  0  0  0  0  0  0  0
   36.3145   23.4833   56.5278 N   0  0  0  0  0  0  0  0  0  0  0  0
   37.6975   24.9137   59.1070 H   0  0  0  0  0  0  0  0  0  0  0  0
   36.2992   23.9398   59.0446 H   0  0  0  0  0  0  0  0  0  0  0  0
   36.4221   23.3768   55.5550 H   0  0  0  0  0  0  0  0  0  0  0  0
   44.1708   23.3630   51.7418 C   0  0  0  0  0  0  0  0  0  0  0  0
   44.2959   21.9114   52.1859 C   0  0  0  0  0  0  0  0  0  0  0  0
   43.6073   20.8899   51.4689 C   0  0  0  0  0  0  0  0  0  0  0  0
   43.7281   19.5252   51.8744 C   0  0  0  0  0  0  0  0  0  0  0  0
   45.0976   21.5562   53.3080 C   0  0  0  0  0  0  0  0  0  0  0  0
   45.2189   20.2031   53.7128 C   0  0  0  0  0  0  0  0  0  0  0  0
   44.5393   19.1799   53.0037 C   0  0  0  0  0  0  0  0  0  0  0  0
   44.6849   17.7360   53.4495 C   0  0  0  0  0  0  0  0  0  0  0  0
   45.7689   17.3527   54.1975 N   0  0  0  0  0  0  0  0  0  0  0  0
   43.7488   16.8014   53.0998 N   0  0  0  0  0  0  0  0  0  0  0  0
   46.4488   18.0164   54.4551 H   0  0  0  0  0  0  0  0  0  0  0  0
   45.8670   16.4137   54.4769 H   0  0  0  0  0  0  0  0  0  0  0  0
   42.9667   17.0649   52.5631 H   0  0  0  0  0  0  0  0  0  0  0  0
  9 10  1  0  0  0
  9  1  1  0  0  0
 10 11  2  0  0  0
 10 13  1  0  0  0
 11 12  1  0  0  0
 12 15  2  0  0  0
 13 14  2  0  0  0
 14 15  1  0  0  0
 15 16  1  0  0  0
 16 17  1  0  0  0
 16 18  2  0  0  0
 22 23  1  0  0  0
 22  6  1  0  0  0
 23 24  2  0  0  0
 23 26  1  0  0  0
 24 25  1  0  0  0
 25 28  2  0  0  0
 26 27  2  0  0  0
 27 28  1  0  0  0
 28 29  1  0  0  0
 29 30  1  0  0  0
 29 31  2  0  0  0
  1  2  1  0  0  0
  1  7  1  0  0  0
  2  3  1  0  0  0
  3  4  1  0  0  0
  4  5  1  0  0  0
  5  6  1  0  0  0
  6  7  1  0  0  0
  7  8  2  0  0  0
 17 19  1  0  0  0
 17 20  1  0  0  0
 18 21  1  0  0  0
 30 32  1  0  0  0
 30 33  1  0  0  0
 31 34  1  0  0  0
M  END
> <minimizedAffinity>
-8.84990

$$$$
1V2N_BBA_T_1


 34 36  0  0  0  0  0  0  0  0999 V2000
   42.3703   25.2252   53.2887 C   0  0  0  0  0  0  0  0  0  0  0  0
   42.0453   26.0532   52.0635 C   0  0  0  0  0  0  0  0  0  0  0  0
   42.0157   27.5662   52.4330 C   0  0  0  0  0  0  0  0  0  0  0  0
   40.6835   27.9599   53.1477 C   0  0  0  0  0  0  0  0  0  0  0  0
   40.5878   27.3341   54.5751 C   0  0  0  0  0  0  0  0  0  0  0  0
   40.1461   25.8899   54.4785 C   0  0  0  0  0  0  0  0  0  0  0  0
   41.2158   24.8735   54.1910 C   0  0  0  0  0  0  0  0  0  0  0  0
   41.1535   23.7606   54.7044 O   0  0  0  0  0  0  0  0  0  0  0  0
   43.6564   24.7856   53.4029 C   0  0  0  0  0  0  0  0  0  0  0  0
   44.1648   23.3426   53.4025 C   0  0  0  0  0  0  0  0  0  0  0  0
   45.1893   22.9021   54.3026 C   0  0  0  0  0  0  0  0  0  0  0  0
   45.6287   21.5627   54.2908 C   0  0  0  0  0  0  0  0  0  0  0  0
   43.6190   22.4190   52.4639 C   0  0  0  0  0  0  0  0  0  0  0  0
   44.0651   21.0680   52.4517 C   0  0  0  0  0  0  0  0  0  0  0  0
   45.0827   20.6419   53.3554 C   0  0  0  0  0  0  0  0  0  0  0  0
   45.5663   19.2114   53.3573 C   0  0  0  0  0  0  0  0  0  0  0  0
   45.1143   18.3230   52.4212 N   0  0  0  0  0  0  0  0  0  0  0  0
   46.4635   18.7946   54.3063 N   0  0  0  0  0  0  0  0  0  0  0  0
   44.4699   18.6147   51.7364 H   0  0  0  0  0  0  0  0  0  0  0  0
   45.4333   17.3917   52.4319 H   0  0  0  0  0  0  0  0  0  0  0  0
   46.7936   19.4283   54.9836 H   0  0  0  0  0  0  0  0  0  0  0  0
   38.8389   25.6389   54.7612 C   0  0  0  0  0  0  0  0  0  0  0  0
   38.2309   25.1508   56.0697 C   0  0  0  0  0  0  0  0  0  0  0  0
   38.8278   25.5225   57.3096 C   0  0  0  0  0  0  0  0  0  0  0  0
   38.2568   25.0760   58.5409 C   0  0  0  0  0  0  0  0  0  0  0  0
   37.0675   24.3297   56.0743 C   0  0  0  0  0  0  0  0  0  0  0  0
   36.4992   23.8849   57.2944 C   0  0  0  0  0  0  0  0  0  0  0  0
   37.0849   24.2520   58.5330 C   0  0  0  0  0  0  0  0  0  0  0  0
   36.4595   23.7696   59.8294 C   0  0  0  0  0  0  0  0  0  0  0  0
   35.2556   23.1125   59.8100 N   0  0  0  0  0  0  0  0  0  0  0  0
   37.0789   23.9964   61.0281 N   0  0  0  0  0  0  0  0  0  0  0  0
   34.8006   22.9437   58.9534 H   0  0  0  0  0  0  0  0  0  0  0  0
   34.8464   22.8097   60.6527 H   0  0  0  0  0  0  0  0  0  0  0  0
   37.9432   24.4670   61.0543 H   0  0  0  0  0  0  0  0  0  0  0  0
  9 10  1  0  0  0
  9  1  1  0  0  0
 10 11  2  0  0  0
 10 13  1  0  0  0
 11 12  1  0  0  0
 12 15  2  0  0  0
 13 14  2  0  0  0
 14 15  1  0  0  0
 15 16  1  0  0  0
 16 17  1  0  0  0
 16 18  2  0  0  0
 22 23  1  0  0  0
 22  6  1  0  0  0
 23 24  2  0  0  0
 23 26  1  0  0  0
 24 25  1  0  0  0
 25 28  2  0  0  0
 26 27  2  0  0  0
 27 28  1  0  0  0
 28 29  1  0  0  0
 29 30  1  0  0  0
 29 31  2  0  0  0
  1  2  1  0  0  0
  1  7  1  0  0  0
  2  3  1  0  0  0
  3  4  1  0  0  0
  4  5  1  0  0  0
  5  6  1  0  0  0
  6  7  1  0  0  0
  7  8  2  0  0  0
 17 19  1  0  0  0
 17 20  1  0  0  0
 18 21  1  0  0  0
 30 32  1  0  0  0
 30 33  1  0  0  0
 31 34  1  0  0  0
M  END
> <minimizedAffinity>
-8.47985

$$$$
1V2N_BBA_T_1


 34 36  0  0  0  0  0  0  0  0999 V2000
   43.6568   23.7304   51.3801 C   0  0  0  0  0  0  0  0  0  0  0  0
   42.4979   23.9213   50.4247 C   0  0  0  0  0  0  0  0  0  0  0  0
   42.8212   25.0604   49.4126 C   0  0  0  0  0  0  0  0  0  0  0  0
   42.6276   26.4727   50.0519 C   0  0  0  0  0  0  0  0  0  0  0  0
   43.7086   26.7667   51.1397 C   0  0  0  0  0  0  0  0  0  0  0  0
   43.3310   26.0914   52.4402 C   0  0  0  0  0  0  0  0  0  0  0  0
   43.6986   24.6404   52.5803 C   0  0  0  0  0  0  0  0  0  0  0  0
   44.0466   24.2021   53.6725 O   0  0  0  0  0  0  0  0  0  0  0  0
   44.4925   22.6837   51.1221 C   0  0  0  0  0  0  0  0  0  0  0  0
   44.6643   21.3925   51.9244 C   0  0  0  0  0  0  0  0  0  0  0  0
   45.5762   21.3032   53.0263 C   0  0  0  0  0  0  0  0  0  0  0  0
   45.7039   20.1050   53.7580 C   0  0  0  0  0  0  0  0  0  0  0  0
   43.9124   20.2413   51.5486 C   0  0  0  0  0  0  0  0  0  0  0  0
   44.0440   19.0320   52.2865 C   0  0  0  0  0  0  0  0  0  0  0  0
   44.9525   18.9579   53.3833 C   0  0  0  0  0  0  0  0  0  0  0  0
   45.1030   17.6830   54.1785 C   0  0  0  0  0  0  0  0  0  0  0  0
   45.5502   17.7174   55.4702 N   0  0  0  0  0  0  0  0  0  0  0  0
   44.7931   16.4780   53.6028 N   0  0  0  0  0  0  0  0  0  0  0  0
   45.7748   18.5788   55.8906 H   0  0  0  0  0  0  0  0  0  0  0  0
   45.6476   16.8807   55.9799 H   0  0  0  0  0  0  0  0  0  0  0  0
   44.4706   16.4450   52.6732 H   0  0  0  0  0  0  0  0  0  0  0  0
   42.7848   26.8893   53.3976 C   0  0  0  0  0  0  0  0  0  0  0  0
   41.3511   26.9038   53.9121 C   0  0  0  0  0  0  0  0  0  0  0  0
   40.6521   28.1409   54.0246 C   0  0  0  0  0  0  0  0  0  0  0  0
   39.3038   28.1605   54.4974 C   0  0  0  0  0  0  0  0  0  0  0  0
   40.6934   25.6953   54.2791 C   0  0  0  0  0  0  0  0  0  0  0  0
   39.3560   25.7119   54.7488 C   0  0  0  0  0  0  0  0  0  0  0  0
   38.6518   26.9379   54.8616 C   0  0  0  0  0  0  0  0  0  0  0  0
   37.2188   26.9351   55.3625 C   0  0  0  0  0  0  0  0  0  0  0  0
   36.4223   28.0363   55.1760 N   0  0  0  0  0  0  0  0  0  0  0  0
   36.7114   25.8452   56.0157 N   0  0  0  0  0  0  0  0  0  0  0  0
   36.7766   28.8263   54.7073 H   0  0  0  0  0  0  0  0  0  0  0  0
   35.4965   28.0365   55.5107 H   0  0  0  0  0  0  0  0  0  0  0  0
   37.2737   25.0492   56.1554 H   0  0  0  0  0  0  0  0  0  0  0  0
  9 10  1  0  0  0
  9  1  1  0  0  0
 10 11  2  0  0  0
 10 13  1  0  0  0
 11 12  1  0  0  0
 12 15  2  0  0  0
 13 14  2  0  0  0
 14 15  1  0  0  0
 15 16  1  0  0  0
 16 17  1  0  0  0
 16 18  2  0  0  0
 22 23  1  0  0  0
 22  6  1  0  0  0
 23 24  2  0  0  0
 23 26  1  0  0  0
 24 25  1  0  0  0
 25 28  2  0  0  0
 26 27  2  0  0  0
 27 28  1  0  0  0
 28 29  1  0  0  0
 29 30  1  0  0  0
 29 31  2  0  0  0
  1  2  1  0  0  0
  1  7  1  0  0  0
  2  3  1  0  0  0
  3  4  1  0  0  0
  4  5  1  0  0  0
  5  6  1  0  0  0
  6  7  1  0  0  0
  7  8  2  0  0  0
 17 19  1  0  0  0
 17 20  1  0  0  0
 18 21  1  0  0  0
 30 32  1  0  0  0
 30 33  1  0  0  0
 31 34  1  0  0  0
M  END
> <minimizedAffinity>
-8.14676

$$$$
1V2N_BBA_T_1


 34 36  0  0  0  0  0  0  0  0999 V2000
   39.7636   26.3246   54.3637 C   0  0  0  0  0  0  0  0  0  0  0  0
   40.3227   24.9330   54.5716 C   0  0  0  0  0  0  0  0  0  0  0  0
   41.3608   24.9418   55.7329 C   0  0  0  0  0  0  0  0  0  0  0  0
   42.7402   25.5105   55.2698 C   0  0  0  0  0  0  0  0  0  0  0  0
   42.6617   27.0409   54.9697 C   0  0  0  0  0  0  0  0  0  0  0  0
   42.0705   27.2691   53.5955 C   0  0  0  0  0  0  0  0  0  0  0  0
   40.5708   27.2528   53.4934 C   0  0  0  0  0  0  0  0  0  0  0  0
   40.0046   28.0078   52.7089 O   0  0  0  0  0  0  0  0  0  0  0  0
   38.5314   26.5714   54.8942 C   0  0  0  0  0  0  0  0  0  0  0  0
   37.8260   25.8275   56.0298 C   0  0  0  0  0  0  0  0  0  0  0  0
   37.7642   26.3606   57.3586 C   0  0  0  0  0  0  0  0  0  0  0  0
   37.0947   25.6609   58.3830 C   0  0  0  0  0  0  0  0  0  0  0  0
   37.2352   24.5584   55.7611 C   0  0  0  0  0  0  0  0  0  0  0  0
   36.5618   23.8523   56.7966 C   0  0  0  0  0  0  0  0  0  0  0  0
   36.5045   24.3960   58.1137 C   0  0  0  0  0  0  0  0  0  0  0  0
   35.7921   23.6608   59.2239 C   0  0  0  0  0  0  0  0  0  0  0  0
   36.2071   23.7878   60.5205 N   0  0  0  0  0  0  0  0  0  0  0  0
   34.7218   22.8550   58.9329 N   0  0  0  0  0  0  0  0  0  0  0  0
   36.9749   24.3645   60.7374 H   0  0  0  0  0  0  0  0  0  0  0  0
   35.7380   23.3025   61.2373 H   0  0  0  0  0  0  0  0  0  0  0  0
   34.4171   22.7585   58.0018 H   0  0  0  0  0  0  0  0  0  0  0  0
   42.9513   27.5674   52.6020 C   0  0  0  0  0  0  0  0  0  0  0  0
   43.2788   26.7583   51.3537 C   0  0  0  0  0  0  0  0  0  0  0  0
   43.5243   27.4287   50.1200 C   0  0  0  0  0  0  0  0  0  0  0  0
   43.8416   26.6762   48.9475 C   0  0  0  0  0  0  0  0  0  0  0  0
   43.3490   25.3368   51.4009 C   0  0  0  0  0  0  0  0  0  0  0  0
   43.6630   24.5878   50.2391 C   0  0  0  0  0  0  0  0  0  0  0  0
   43.9113   25.2466   49.0078 C   0  0  0  0  0  0  0  0  0  0  0  0
   44.2505   24.4277   47.7753 C   0  0  0  0  0  0  0  0  0  0  0  0
   43.4093   24.4340   46.6918 N   0  0  0  0  0  0  0  0  0  0  0  0
   45.3862   23.6656   47.7363 N   0  0  0  0  0  0  0  0  0  0  0  0
   42.5892   24.9785   46.7085 H   0  0  0  0  0  0  0  0  0  0  0  0
   43.6256   23.8941   45.8975 H   0  0  0  0  0  0  0  0  0  0  0  0
   45.9974   23.6532   48.5080 H   0  0  0  0  0  0  0  0  0  0  0  0
  9 10  1  0  0  0
  9  1  1  0  0  0
 10 11  2  0  0  0
 10 13  1  0  0  0
 11 12  1  0  0  0
 12 15  2  0  0  0
 13 14  2  0  0  0
 14 15  1  0  0  0
 15 16  1  0  0  0
 16 17  1  0  0  0
 16 18  2  0  0  0
 22 23  1  0  0  0
 22  6  1  0  0  0
 23 24  2  0  0  0
 23 26  1  0  0  0
 24 25  1  0  0  0
 25 28  2  0  0  0
 26 27  2  0  0  0
 27 28  1  0  0  0
 28 29  1  0  0  0
 29 30  1  0  0  0
 29 31  2  0  0  0
  1  2  1  0  0  0
  1  7  1  0  0  0
  2  3  1  0  0  0
  3  4  1  0  0  0
  4  5  1  0  0  0
  5  6  1  0  0  0
  6  7  1  0  0  0
  7  8  2  0  0  0
 17 19  1  0  0  0
 17 20  1  0  0  0
 18 21  1  0  0  0
 30 32  1  0  0  0
 30 33  1  0  0  0
 31 34  1  0  0  0
M  END
> <minimizedAffinity>
-7.68929

$$$$
