4NP3_2L2_A_201


 21 23  0  0  0  0  0  0  0  0999 V2000
   13.8432   -2.8700   -2.1741 C   0  0  0  0  0  0  0  0  0  0  0  0
   12.3790   -2.6311   -2.5928 C   0  0  0  0  0  0  0  0  0  0  0  0
   11.4958   -3.5115   -1.9098 C   0  0  0  0  0  0  0  0  0  0  0  0
   10.1952   -3.6848   -2.4383 C   0  0  0  0  0  0  0  0  0  0  0  0
    9.2661   -4.5470   -1.8330 C   0  0  0  0  0  0  0  0  0  0  0  0
    9.6314   -5.2395   -0.6558 C   0  0  0  0  0  0  0  0  0  0  0  0
   10.9166   -5.0660   -0.1221 C   0  0  0  0  0  0  0  0  0  0  0  0
   11.2786   -5.7546    1.0114 N   0  0  0  0  0  0  0  0  0  0  0  0
   11.8750   -4.2086   -0.7232 C   0  0  0  0  0  0  0  0  0  0  0  0
   13.1999   -4.0535   -0.1419 C   0  0  0  0  0  0  0  0  0  0  0  0
   13.9357   -2.8817   -0.6929 N   0  0  0  0  0  0  0  0  0  0  0  0
   10.6337   -6.3562    1.4489 H   0  0  0  0  0  0  0  0  0  0  0  0
   12.1827   -5.6462    1.3856 H   0  0  0  0  0  0  0  0  0  0  0  0
   15.3402   -2.8348   -0.1916 C   0  0  0  0  0  0  0  0  0  0  0  0
   15.4864   -1.7213    0.8328 C   0  0  0  0  0  0  0  0  0  0  0  0
   15.5354   -1.9469    2.1363 N   0  0  0  0  0  0  0  0  0  0  0  0
   15.6286   -0.7430    2.7311 C   0  0  0  0  0  0  0  0  0  0  0  0
   15.6391    0.2107    1.7922 N   0  0  0  0  0  0  0  0  0  0  0  0
   15.5553   -0.4020    0.6058 C   0  0  0  0  0  0  0  0  0  0  0  0
   15.5090    0.3158   -0.7593 C   0  0  0  0  0  0  0  0  0  0  0  0
   15.5089   -2.8237    2.5832 H   0  0  0  0  0  0  0  0  0  0  0  0
  6  5  2  0  0  0
  6  7  1  0  0  0
  5  4  1  0  0  0
  8  7  1  0  0  0
  7  9  2  0  0  0
  4  3  2  0  0  0
  9  3  1  0  0  0
  9 10  1  0  0  0
  3  2  1  0  0  0
 10 11  1  0  0  0
  2  1  1  0  0  0
  1 11  1  0  0  0
 11 14  1  0  0  0
 14 15  1  0  0  0
 20 19  1  0  0  0
 15 19  2  0  0  0
 15 16  1  0  0  0
 19 18  1  0  0  0
 16 17  1  0  0  0
 18 17  2  0  0  0
  8 12  1  0  0  0
  8 13  1  0  0  0
 16 21  1  0  0  0
M  END
> <minimizedAffinity>
-6.43748

$$$$
4NP3_2L2_A_201


 21 23  0  0  0  0  0  0  0  0999 V2000
    8.9913   -4.0227   -1.5893 C   0  0  0  0  0  0  0  0  0  0  0  0
   10.1045   -3.6329   -2.5821 C   0  0  0  0  0  0  0  0  0  0  0  0
   11.3728   -3.5788   -1.9414 C   0  0  0  0  0  0  0  0  0  0  0  0
   12.4166   -2.8866   -2.5988 C   0  0  0  0  0  0  0  0  0  0  0  0
   13.6952   -2.7737   -2.0284 C   0  0  0  0  0  0  0  0  0  0  0  0
   13.9510   -3.3855   -0.7798 C   0  0  0  0  0  0  0  0  0  0  0  0
   12.9226   -4.0802   -0.1266 C   0  0  0  0  0  0  0  0  0  0  0  0
   13.1658   -4.6583    1.0969 N   0  0  0  0  0  0  0  0  0  0  0  0
   11.6204   -4.1974   -0.6791 C   0  0  0  0  0  0  0  0  0  0  0  0
   10.5772   -4.9254    0.0276 C   0  0  0  0  0  0  0  0  0  0  0  0
    9.4046   -5.2336   -0.8374 N   0  0  0  0  0  0  0  0  0  0  0  0
   14.0600   -4.5924    1.5035 H   0  0  0  0  0  0  0  0  0  0  0  0
   12.4457   -5.1382    1.5664 H   0  0  0  0  0  0  0  0  0  0  0  0
    8.2932   -5.8451   -0.0519 C   0  0  0  0  0  0  0  0  0  0  0  0
    7.9014   -7.1802   -0.6639 C   0  0  0  0  0  0  0  0  0  0  0  0
    8.1326   -7.4845   -1.9313 N   0  0  0  0  0  0  0  0  0  0  0  0
    7.6248   -8.7152   -2.1296 C   0  0  0  0  0  0  0  0  0  0  0  0
    7.0893   -9.1584   -0.9858 N   0  0  0  0  0  0  0  0  0  0  0  0
    7.2672   -8.2004   -0.0691 C   0  0  0  0  0  0  0  0  0  0  0  0
    6.7810   -8.2742    1.3935 C   0  0  0  0  0  0  0  0  0  0  0  0
    8.5871   -6.9209   -2.5984 H   0  0  0  0  0  0  0  0  0  0  0  0
  6  5  2  0  0  0
  6  7  1  0  0  0
  5  4  1  0  0  0
  8  7  1  0  0  0
  7  9  2  0  0  0
  4  3  2  0  0  0
  9  3  1  0  0  0
  9 10  1  0  0  0
  3  2  1  0  0  0
 10 11  1  0  0  0
  2  1  1  0  0  0
  1 11  1  0  0  0
 11 14  1  0  0  0
 14 15  1  0  0  0
 20 19  1  0  0  0
 15 19  2  0  0  0
 15 16  1  0  0  0
 19 18  1  0  0  0
 16 17  1  0  0  0
 18 17  2  0  0  0
  8 12  1  0  0  0
  8 13  1  0  0  0
 16 21  1  0  0  0
M  END
> <minimizedAffinity>
-6.08864

$$$$
4NP3_2L2_A_201


 21 23  0  0  0  0  0  0  0  0999 V2000
    8.4986   -5.3650    0.9596 C   0  0  0  0  0  0  0  0  0  0  0  0
    8.1632   -6.7184    1.6172 C   0  0  0  0  0  0  0  0  0  0  0  0
    7.6252   -7.6335    0.6713 C   0  0  0  0  0  0  0  0  0  0  0  0
    6.9281   -8.7611    1.1648 C   0  0  0  0  0  0  0  0  0  0  0  0
    6.3537   -9.7057    0.2981 C   0  0  0  0  0  0  0  0  0  0  0  0
    6.4954   -9.5377   -1.0985 C   0  0  0  0  0  0  0  0  0  0  0  0
    7.1923   -8.4262   -1.5941 C   0  0  0  0  0  0  0  0  0  0  0  0
    7.3131   -8.2523   -2.9525 N   0  0  0  0  0  0  0  0  0  0  0  0
    7.7711   -7.4537   -0.7372 C   0  0  0  0  0  0  0  0  0  0  0  0
    8.4868   -6.3121   -1.2870 C   0  0  0  0  0  0  0  0  0  0  0  0
    9.3031   -5.5992   -0.2654 N   0  0  0  0  0  0  0  0  0  0  0  0
    6.9212   -8.9114   -3.5699 H   0  0  0  0  0  0  0  0  0  0  0  0
    7.7915   -7.4686   -3.3078 H   0  0  0  0  0  0  0  0  0  0  0  0
    9.9039   -4.3517   -0.8211 C   0  0  0  0  0  0  0  0  0  0  0  0
   11.4028   -4.3428   -0.5680 C   0  0  0  0  0  0  0  0  0  0  0  0
   11.9540   -4.8991    0.4993 N   0  0  0  0  0  0  0  0  0  0  0  0
   13.2773   -4.6688    0.4121 C   0  0  0  0  0  0  0  0  0  0  0  0
   13.5297   -3.9776   -0.7058 N   0  0  0  0  0  0  0  0  0  0  0  0
   12.3581   -3.7786   -1.3203 C   0  0  0  0  0  0  0  0  0  0  0  0
   12.1718   -2.9998   -2.6392 C   0  0  0  0  0  0  0  0  0  0  0  0
   11.4873   -5.3859    1.2165 H   0  0  0  0  0  0  0  0  0  0  0  0
  6  5  2  0  0  0
  6  7  1  0  0  0
  5  4  1  0  0  0
  8  7  1  0  0  0
  7  9  2  0  0  0
  4  3  2  0  0  0
  9  3  1  0  0  0
  9 10  1  0  0  0
  3  2  1  0  0  0
 10 11  1  0  0  0
  2  1  1  0  0  0
  1 11  1  0  0  0
 11 14  1  0  0  0
 14 15  1  0  0  0
 20 19  1  0  0  0
 15 19  2  0  0  0
 15 16  1  0  0  0
 19 18  1  0  0  0
 16 17  1  0  0  0
 18 17  2  0  0  0
  8 12  1  0  0  0
  8 13  1  0  0  0
 16 21  1  0  0  0
M  END
> <minimizedAffinity>
-6.01184

$$$$
4NP3_2L2_A_201


 21 23  0  0  0  0  0  0  0  0999 V2000
    7.9055   -5.1305   -0.0064 C   0  0  0  0  0  0  0  0  0  0  0  0
    8.4090   -4.7339   -1.4084 C   0  0  0  0  0  0  0  0  0  0  0  0
    9.7830   -4.3687   -1.3801 C   0  0  0  0  0  0  0  0  0  0  0  0
   10.2945   -3.6338   -2.4751 C   0  0  0  0  0  0  0  0  0  0  0  0
   11.6365   -3.2214   -2.5192 C   0  0  0  0  0  0  0  0  0  0  0  0
   12.5011   -3.5686   -1.4558 C   0  0  0  0  0  0  0  0  0  0  0  0
   12.0021   -4.3041   -0.3709 C   0  0  0  0  0  0  0  0  0  0  0  0
   12.8380   -4.6247    0.6725 N   0  0  0  0  0  0  0  0  0  0  0  0
   10.6473   -4.7216   -0.3003 C   0  0  0  0  0  0  0  0  0  0  0  0
   10.1641   -5.4830    0.8417 C   0  0  0  0  0  0  0  0  0  0  0  0
    8.8398   -6.1168    0.5911 N   0  0  0  0  0  0  0  0  0  0  0  0
   13.7825   -4.3477    0.6496 H   0  0  0  0  0  0  0  0  0  0  0  0
   12.4921   -5.1313    1.4425 H   0  0  0  0  0  0  0  0  0  0  0  0
    8.3024   -6.7630    1.8239 C   0  0  0  0  0  0  0  0  0  0  0  0
    7.6736   -8.1019    1.4735 C   0  0  0  0  0  0  0  0  0  0  0  0
    6.8303   -8.2570    0.4650 N   0  0  0  0  0  0  0  0  0  0  0  0
    6.4519   -9.5487    0.4760 C   0  0  0  0  0  0  0  0  0  0  0  0
    7.0654  -10.1770    1.4860 N   0  0  0  0  0  0  0  0  0  0  0  0
    7.8327   -9.2731    2.1058 C   0  0  0  0  0  0  0  0  0  0  0  0
    8.7028   -9.5543    3.3486 C   0  0  0  0  0  0  0  0  0  0  0  0
    6.5372   -7.5633   -0.1691 H   0  0  0  0  0  0  0  0  0  0  0  0
  6  5  2  0  0  0
  6  7  1  0  0  0
  5  4  1  0  0  0
  8  7  1  0  0  0
  7  9  2  0  0  0
  4  3  2  0  0  0
  9  3  1  0  0  0
  9 10  1  0  0  0
  3  2  1  0  0  0
 10 11  1  0  0  0
  2  1  1  0  0  0
  1 11  1  0  0  0
 11 14  1  0  0  0
 14 15  1  0  0  0
 20 19  1  0  0  0
 15 19  2  0  0  0
 15 16  1  0  0  0
 19 18  1  0  0  0
 16 17  1  0  0  0
 18 17  2  0  0  0
  8 12  1  0  0  0
  8 13  1  0  0  0
 16 21  1  0  0  0
M  END
> <minimizedAffinity>
-5.98330

$$$$
4NP3_2L2_A_201


 21 23  0  0  0  0  0  0  0  0999 V2000
    8.5681   -4.4457   -1.1727 C   0  0  0  0  0  0  0  0  0  0  0  0
    9.5143   -4.0819   -2.3341 C   0  0  0  0  0  0  0  0  0  0  0  0
   10.8407   -3.8629   -1.8710 C   0  0  0  0  0  0  0  0  0  0  0  0
   11.7319   -3.1684   -2.7221 C   0  0  0  0  0  0  0  0  0  0  0  0
   13.0550   -2.8979   -2.3353 C   0  0  0  0  0  0  0  0  0  0  0  0
   13.5129   -3.3502   -1.0766 C   0  0  0  0  0  0  0  0  0  0  0  0
   12.6366   -4.0464   -0.2314 C   0  0  0  0  0  0  0  0  0  0  0  0
   13.0760   -4.4690    1.0009 N   0  0  0  0  0  0  0  0  0  0  0  0
   11.2928   -4.3211   -0.5970 C   0  0  0  0  0  0  0  0  0  0  0  0
   10.4114   -5.0457    0.3061 C   0  0  0  0  0  0  0  0  0  0  0  0
    9.1751   -5.5336   -0.3659 N   0  0  0  0  0  0  0  0  0  0  0  0
   14.0033   -4.2919    1.2802 H   0  0  0  0  0  0  0  0  0  0  0  0
   12.4634   -4.9487    1.6040 H   0  0  0  0  0  0  0  0  0  0  0  0
    8.2253   -6.1393    0.6124 C   0  0  0  0  0  0  0  0  0  0  0  0
    8.9819   -7.0330    1.5817 C   0  0  0  0  0  0  0  0  0  0  0  0
    9.2965   -6.6549    2.8107 N   0  0  0  0  0  0  0  0  0  0  0  0
    9.9869   -7.6713    3.3604 C   0  0  0  0  0  0  0  0  0  0  0  0
   10.0890   -8.6648    2.4694 N   0  0  0  0  0  0  0  0  0  0  0  0
    9.4563   -8.2669    1.3598 C   0  0  0  0  0  0  0  0  0  0  0  0
    9.3456   -9.0917    0.0605 C   0  0  0  0  0  0  0  0  0  0  0  0
    9.0698   -5.7979    3.2390 H   0  0  0  0  0  0  0  0  0  0  0  0
  6  5  2  0  0  0
  6  7  1  0  0  0
  5  4  1  0  0  0
  8  7  1  0  0  0
  7  9  2  0  0  0
  4  3  2  0  0  0
  9  3  1  0  0  0
  9 10  1  0  0  0
  3  2  1  0  0  0
 10 11  1  0  0  0
  2  1  1  0  0  0
  1 11  1  0  0  0
 11 14  1  0  0  0
 14 15  1  0  0  0
 20 19  1  0  0  0
 15 19  2  0  0  0
 15 16  1  0  0  0
 19 18  1  0  0  0
 16 17  1  0  0  0
 18 17  2  0  0  0
  8 12  1  0  0  0
  8 13  1  0  0  0
 16 21  1  0  0  0
M  END
> <minimizedAffinity>
-5.94240

$$$$
4NP3_2L2_A_201


 21 23  0  0  0  0  0  0  0  0999 V2000
   12.0309   -6.1703    1.1379 C   0  0  0  0  0  0  0  0  0  0  0  0
   12.6544   -4.9128    0.5004 C   0  0  0  0  0  0  0  0  0  0  0  0
   11.8371   -4.4043   -0.5461 C   0  0  0  0  0  0  0  0  0  0  0  0
   12.4244   -3.5042   -1.4658 C   0  0  0  0  0  0  0  0  0  0  0  0
   11.6910   -2.9669   -2.5366 C   0  0  0  0  0  0  0  0  0  0  0  0
   10.3290   -3.3157   -2.6850 C   0  0  0  0  0  0  0  0  0  0  0  0
    9.7385   -4.2013   -1.7718 C   0  0  0  0  0  0  0  0  0  0  0  0
    8.4194   -4.5559   -1.9276 N   0  0  0  0  0  0  0  0  0  0  0  0
   10.4633   -4.7647   -0.6892 C   0  0  0  0  0  0  0  0  0  0  0  0
    9.8180   -5.6813    0.2388 C   0  0  0  0  0  0  0  0  0  0  0  0
   10.6128   -5.8969    1.4797 N   0  0  0  0  0  0  0  0  0  0  0  0
    7.8930   -4.1802   -2.6698 H   0  0  0  0  0  0  0  0  0  0  0  0
    8.0012   -5.1856   -1.2968 H   0  0  0  0  0  0  0  0  0  0  0  0
   10.0027   -6.9508    2.3418 C   0  0  0  0  0  0  0  0  0  0  0  0
   10.7447   -7.0287    3.6662 C   0  0  0  0  0  0  0  0  0  0  0  0
   11.2028   -5.9586    4.2965 N   0  0  0  0  0  0  0  0  0  0  0  0
   11.8299   -6.4029    5.4016 C   0  0  0  0  0  0  0  0  0  0  0  0
   11.7506   -7.7383    5.4441 N   0  0  0  0  0  0  0  0  0  0  0  0
   11.0678   -8.1281    4.3617 C   0  0  0  0  0  0  0  0  0  0  0  0
   10.7593   -9.5938    3.9907 C   0  0  0  0  0  0  0  0  0  0  0  0
   11.1042   -5.0211    4.0125 H   0  0  0  0  0  0  0  0  0  0  0  0
  6  5  2  0  0  0
  6  7  1  0  0  0
  5  4  1  0  0  0
  8  7  1  0  0  0
  7  9  2  0  0  0
  4  3  2  0  0  0
  9  3  1  0  0  0
  9 10  1  0  0  0
  3  2  1  0  0  0
 10 11  1  0  0  0
  2  1  1  0  0  0
  1 11  1  0  0  0
 11 14  1  0  0  0
 14 15  1  0  0  0
 20 19  1  0  0  0
 15 19  2  0  0  0
 15 16  1  0  0  0
 19 18  1  0  0  0
 16 17  1  0  0  0
 18 17  2  0  0  0
  8 12  1  0  0  0
  8 13  1  0  0  0
 16 21  1  0  0  0
M  END
> <minimizedAffinity>
-5.91517

$$$$
4NP3_2L2_A_201


 21 23  0  0  0  0  0  0  0  0999 V2000
    8.8916   -5.0815   -0.1193 C   0  0  0  0  0  0  0  0  0  0  0  0
    9.2413   -4.5191   -1.5115 C   0  0  0  0  0  0  0  0  0  0  0  0
   10.5831   -4.0509   -1.5577 C   0  0  0  0  0  0  0  0  0  0  0  0
   10.9437   -3.1804   -2.6127 C   0  0  0  0  0  0  0  0  0  0  0  0
   12.2442   -2.6612   -2.7235 C   0  0  0  0  0  0  0  0  0  0  0  0
   13.2207   -3.0355   -1.7722 C   0  0  0  0  0  0  0  0  0  0  0  0
   12.8718   -3.9047   -0.7283 C   0  0  0  0  0  0  0  0  0  0  0  0
   13.8162   -4.2530    0.2081 N   0  0  0  0  0  0  0  0  0  0  0  0
   11.5613   -4.4324   -0.5907 C   0  0  0  0  0  0  0  0  0  0  0  0
   11.2348   -5.3313    0.5061 C   0  0  0  0  0  0  0  0  0  0  0  0
    9.9419   -6.0418    0.3014 N   0  0  0  0  0  0  0  0  0  0  0  0
   14.7331   -3.9014    0.1368 H   0  0  0  0  0  0  0  0  0  0  0  0
   13.5757   -4.8539    0.9498 H   0  0  0  0  0  0  0  0  0  0  0  0
    9.5614   -6.8390    1.5038 C   0  0  0  0  0  0  0  0  0  0  0  0
    8.9856   -8.1787    1.0747 C   0  0  0  0  0  0  0  0  0  0  0  0
    9.7425   -9.2022    0.7113 N   0  0  0  0  0  0  0  0  0  0  0  0
    8.9036  -10.1963    0.3649 C   0  0  0  0  0  0  0  0  0  0  0  0
    7.6413   -9.7793    0.5201 N   0  0  0  0  0  0  0  0  0  0  0  0
    7.6937   -8.5199    0.9685 C   0  0  0  0  0  0  0  0  0  0  0  0
    6.4652   -7.6339    1.2632 C   0  0  0  0  0  0  0  0  0  0  0  0
   10.7265   -9.2307    0.6971 H   0  0  0  0  0  0  0  0  0  0  0  0
  6  5  2  0  0  0
  6  7  1  0  0  0
  5  4  1  0  0  0
  8  7  1  0  0  0
  7  9  2  0  0  0
  4  3  2  0  0  0
  9  3  1  0  0  0
  9 10  1  0  0  0
  3  2  1  0  0  0
 10 11  1  0  0  0
  2  1  1  0  0  0
  1 11  1  0  0  0
 11 14  1  0  0  0
 14 15  1  0  0  0
 20 19  1  0  0  0
 15 19  2  0  0  0
 15 16  1  0  0  0
 19 18  1  0  0  0
 16 17  1  0  0  0
 18 17  2  0  0  0
  8 12  1  0  0  0
  8 13  1  0  0  0
 16 21  1  0  0  0
M  END
> <minimizedAffinity>
-5.84337

$$$$
4NP3_2L2_A_201


 21 23  0  0  0  0  0  0  0  0999 V2000
   10.7294   -6.2148    0.6949 C   0  0  0  0  0  0  0  0  0  0  0  0
   11.9834   -5.3182    0.7083 C   0  0  0  0  0  0  0  0  0  0  0  0
   11.9937   -4.4273   -0.3999 C   0  0  0  0  0  0  0  0  0  0  0  0
   13.2211   -3.8142   -0.7439 C   0  0  0  0  0  0  0  0  0  0  0  0
   13.3211   -2.9327   -1.8331 C   0  0  0  0  0  0  0  0  0  0  0  0
   12.1638   -2.6339   -2.5883 C   0  0  0  0  0  0  0  0  0  0  0  0
   10.9421   -3.2323   -2.2474 C   0  0  0  0  0  0  0  0  0  0  0  0
    9.8209   -2.9570   -2.9939 N   0  0  0  0  0  0  0  0  0  0  0  0
   10.8204   -4.1342   -1.1581 C   0  0  0  0  0  0  0  0  0  0  0  0
    9.5363   -4.7371   -0.8339 C   0  0  0  0  0  0  0  0  0  0  0  0
    9.5226   -5.3701    0.5142 N   0  0  0  0  0  0  0  0  0  0  0  0
    9.8767   -2.3351   -3.7551 H   0  0  0  0  0  0  0  0  0  0  0  0
    8.9621   -3.3818   -2.7673 H   0  0  0  0  0  0  0  0  0  0  0  0
    8.2481   -6.1067    0.7579 C   0  0  0  0  0  0  0  0  0  0  0  0
    8.4384   -7.5836    0.4526 C   0  0  0  0  0  0  0  0  0  0  0  0
    8.7808   -8.4691    1.3751 N   0  0  0  0  0  0  0  0  0  0  0  0
    8.8936   -9.6542    0.7467 C   0  0  0  0  0  0  0  0  0  0  0  0
    8.6178   -9.4899   -0.5526 N   0  0  0  0  0  0  0  0  0  0  0  0
    8.3285   -8.1964   -0.7345 C   0  0  0  0  0  0  0  0  0  0  0  0
    7.9739   -7.5514   -2.0907 C   0  0  0  0  0  0  0  0  0  0  0  0
    8.9248   -8.2950    2.3333 H   0  0  0  0  0  0  0  0  0  0  0  0
  6  5  2  0  0  0
  6  7  1  0  0  0
  5  4  1  0  0  0
  8  7  1  0  0  0
  7  9  2  0  0  0
  4  3  2  0  0  0
  9  3  1  0  0  0
  9 10  1  0  0  0
  3  2  1  0  0  0
 10 11  1  0  0  0
  2  1  1  0  0  0
  1 11  1  0  0  0
 11 14  1  0  0  0
 14 15  1  0  0  0
 20 19  1  0  0  0
 15 19  2  0  0  0
 15 16  1  0  0  0
 19 18  1  0  0  0
 16 17  1  0  0  0
 18 17  2  0  0  0
  8 12  1  0  0  0
  8 13  1  0  0  0
 16 21  1  0  0  0
M  END
> <minimizedAffinity>
-5.55814

$$$$
4NP3_2L2_A_201


 21 23  0  0  0  0  0  0  0  0999 V2000
    7.9333   -6.6669    1.8466 C   0  0  0  0  0  0  0  0  0  0  0  0
    8.1425   -8.1878    1.9870 C   0  0  0  0  0  0  0  0  0  0  0  0
    7.6218   -8.8872    0.8638 C   0  0  0  0  0  0  0  0  0  0  0  0
    7.3934  -10.2767    0.9978 C   0  0  0  0  0  0  0  0  0  0  0  0
    6.8677  -11.0390   -0.0584 C   0  0  0  0  0  0  0  0  0  0  0  0
    6.5821  -10.4075   -1.2907 C   0  0  0  0  0  0  0  0  0  0  0  0
    6.8138   -9.0316   -1.4326 C   0  0  0  0  0  0  0  0  0  0  0  0
    6.5175   -8.4137   -2.6245 N   0  0  0  0  0  0  0  0  0  0  0  0
    7.3339   -8.2399   -0.3754 C   0  0  0  0  0  0  0  0  0  0  0  0
    7.5609   -6.8143   -0.5584 C   0  0  0  0  0  0  0  0  0  0  0  0
    8.4118   -6.2256    0.5128 N   0  0  0  0  0  0  0  0  0  0  0  0
    6.1556   -8.9388   -3.3745 H   0  0  0  0  0  0  0  0  0  0  0  0
    6.6673   -7.4462   -2.7279 H   0  0  0  0  0  0  0  0  0  0  0  0
    8.5036   -4.7421    0.3829 C   0  0  0  0  0  0  0  0  0  0  0  0
    9.5018   -4.3793   -0.7046 C   0  0  0  0  0  0  0  0  0  0  0  0
    9.1511   -3.7723   -1.8275 N   0  0  0  0  0  0  0  0  0  0  0  0
   10.2721   -3.6454   -2.5617 C   0  0  0  0  0  0  0  0  0  0  0  0
   11.3010   -4.1710   -1.8860 N   0  0  0  0  0  0  0  0  0  0  0  0
   10.8194   -4.6249   -0.7233 C   0  0  0  0  0  0  0  0  0  0  0  0
   11.6540   -5.3350    0.3631 C   0  0  0  0  0  0  0  0  0  0  0  0
    8.2472   -3.4723   -2.0768 H   0  0  0  0  0  0  0  0  0  0  0  0
  6  5  2  0  0  0
  6  7  1  0  0  0
  5  4  1  0  0  0
  8  7  1  0  0  0
  7  9  2  0  0  0
  4  3  2  0  0  0
  9  3  1  0  0  0
  9 10  1  0  0  0
  3  2  1  0  0  0
 10 11  1  0  0  0
  2  1  1  0  0  0
  1 11  1  0  0  0
 11 14  1  0  0  0
 14 15  1  0  0  0
 20 19  1  0  0  0
 15 19  2  0  0  0
 15 16  1  0  0  0
 19 18  1  0  0  0
 16 17  1  0  0  0
 18 17  2  0  0  0
  8 12  1  0  0  0
  8 13  1  0  0  0
 16 21  1  0  0  0
M  END
> <minimizedAffinity>
-5.24292

$$$$
4NP3_2L2_A_201


 21 23  0  0  0  0  0  0  0  0999 V2000
    8.0309   -6.7478    1.3488 C   0  0  0  0  0  0  0  0  0  0  0  0
    7.9201   -6.3782   -0.1437 C   0  0  0  0  0  0  0  0  0  0  0  0
    9.0318   -5.5993   -0.5673 C   0  0  0  0  0  0  0  0  0  0  0  0
    8.9084   -4.8729   -1.7747 C   0  0  0  0  0  0  0  0  0  0  0  0
    9.9538   -4.0679   -2.2567 C   0  0  0  0  0  0  0  0  0  0  0  0
   11.1649   -4.0005   -1.5304 C   0  0  0  0  0  0  0  0  0  0  0  0
   11.2965   -4.7247   -0.3367 C   0  0  0  0  0  0  0  0  0  0  0  0
   12.4671   -4.6436    0.3799 N   0  0  0  0  0  0  0  0  0  0  0  0
   10.2495   -5.5354    0.1746 C   0  0  0  0  0  0  0  0  0  0  0  0
   10.4213   -6.2725    1.4175 C   0  0  0  0  0  0  0  0  0  0  0  0
    9.3761   -7.3147    1.6167 N   0  0  0  0  0  0  0  0  0  0  0  0
   13.2096   -4.0886    0.0485 H   0  0  0  0  0  0  0  0  0  0  0  0
   12.5627   -5.1405    1.2244 H   0  0  0  0  0  0  0  0  0  0  0  0
    9.4886   -7.9497    2.9622 C   0  0  0  0  0  0  0  0  0  0  0  0
    9.6170   -9.4570    2.8131 C   0  0  0  0  0  0  0  0  0  0  0  0
    9.4461  -10.0814    1.6584 N   0  0  0  0  0  0  0  0  0  0  0  0
    9.5965  -11.3958    1.9067 C   0  0  0  0  0  0  0  0  0  0  0  0
    9.8608  -11.5693    3.2072 N   0  0  0  0  0  0  0  0  0  0  0  0
    9.8783  -10.3565    3.7719 C   0  0  0  0  0  0  0  0  0  0  0  0
   10.1207  -10.0820    5.2709 C   0  0  0  0  0  0  0  0  0  0  0  0
    9.2478   -9.6657    0.7883 H   0  0  0  0  0  0  0  0  0  0  0  0
  6  5  2  0  0  0
  6  7  1  0  0  0
  5  4  1  0  0  0
  8  7  1  0  0  0
  7  9  2  0  0  0
  4  3  2  0  0  0
  9  3  1  0  0  0
  9 10  1  0  0  0
  3  2  1  0  0  0
 10 11  1  0  0  0
  2  1  1  0  0  0
  1 11  1  0  0  0
 11 14  1  0  0  0
 14 15  1  0  0  0
 20 19  1  0  0  0
 15 19  2  0  0  0
 15 16  1  0  0  0
 19 18  1  0  0  0
 16 17  1  0  0  0
 18 17  2  0  0  0
  8 12  1  0  0  0
  8 13  1  0  0  0
 16 21  1  0  0  0
M  END
> <minimizedAffinity>
-5.11199

$$$$
