5CBS_E42_A_301


 23 24  0  0  0  0  0  0  0  0999 V2000
   60.0471    0.6149   40.3623 C   0  0  0  0  0  0  0  0  0  0  0  0
   60.8997    1.1958   41.3205 C   0  0  0  0  0  0  0  0  0  0  0  0
   61.0746    0.5497   42.5601 C   0  0  0  0  0  0  0  0  0  0  0  0
   60.4200   -0.6443   42.8454 C   0  0  0  0  0  0  0  0  0  0  0  0
   59.5856   -1.2125   41.8782 C   0  0  0  0  0  0  0  0  0  0  0  0
   59.3917   -0.5965   40.6298 C   0  0  0  0  0  0  0  0  0  0  0  0
   56.7734   -2.4268   37.7648 C   0  0  0  0  0  0  0  0  0  0  0  0
   56.7106   -1.0509   37.9862 C   0  0  0  0  0  0  0  0  0  0  0  0
   57.5655   -0.4420   38.9196 C   0  0  0  0  0  0  0  0  0  0  0  0
   58.4926   -1.2149   39.6365 C   0  0  0  0  0  0  0  0  0  0  0  0
   58.5326   -2.5994   39.4022 C   0  0  0  0  0  0  0  0  0  0  0  0
   57.6841   -3.1931   38.4749 C   0  0  0  0  0  0  0  0  0  0  0  0
   57.7768   -4.5490   38.3096 O   0  0  0  0  0  0  0  0  0  0  0  0
   57.2213   -4.9849   37.6937 H   0  0  0  0  0  0  0  0  0  0  0  0
   61.5922    2.5030   40.9958 C   0  0  0  0  0  0  0  0  0  0  0  0
   60.9792    3.7309   41.7131 C   0  0  0  0  0  0  0  0  0  0  0  0
   59.5213    3.8705   41.3523 N   0  0  0  0  0  0  0  0  0  0  0  0
   59.0167    3.0343   41.6463 H   0  0  0  0  0  0  0  0  0  0  0  0
   59.4303    3.9852   40.3428 H   0  0  0  0  0  0  0  0  0  0  0  0
   61.1462    3.5712   43.2539 C   0  0  0  0  0  0  0  0  0  0  0  0
   60.1053    3.7275   43.9576 O   0  0  0  0  0  0  0  0  0  0  0  0
   62.3016    3.2546   43.6574 O   0  0  0  0  0  0  0  0  0  0  0  0
   59.2955    3.9645   43.5500 H   0  0  0  0  0  0  0  0  0  0  0  0
  7  8  2  0  0  0
  7 12  1  0  0  0
  8  9  1  0  0  0
 13 12  1  0  0  0
 12 11  2  0  0  0
  9 10  2  0  0  0
 11 10  1  0  0  0
 10  6  1  0  0  0
  1  6  2  0  0  0
  1  2  1  0  0  0
  6  5  1  0  0  0
 15  2  1  0  0  0
 15 16  1  0  0  0
 17 16  1  0  0  0
  2  3  2  0  0  0
 16 20  1  0  0  0
  5  4  2  0  0  0
  3  4  1  0  0  0
 20 22  2  0  0  0
 20 21  1  0  0  0
 13 14  1  0  0  0
 17 18  1  0  0  0
 17 19  1  0  0  0
 21 23  1  0  0  0
M  END
> <minimizedAffinity>
-8.42441

$$$$
5CBS_E42_A_301


 23 24  0  0  0  0  0  0  0  0999 V2000
   59.1782   -2.7196   39.8087 C   0  0  0  0  0  0  0  0  0  0  0  0
   58.4120   -3.5714   38.9902 C   0  0  0  0  0  0  0  0  0  0  0  0
   57.3904   -3.0167   38.1943 C   0  0  0  0  0  0  0  0  0  0  0  0
   57.1324   -1.6497   38.2085 C   0  0  0  0  0  0  0  0  0  0  0  0
   57.9100   -0.8174   39.0190 C   0  0  0  0  0  0  0  0  0  0  0  0
   58.9396   -1.3371   39.8225 C   0  0  0  0  0  0  0  0  0  0  0  0
   61.2265    1.3236   42.2933 C   0  0  0  0  0  0  0  0  0  0  0  0
   60.7720    0.1105   42.8109 C   0  0  0  0  0  0  0  0  0  0  0  0
   60.0253   -0.7685   42.0091 C   0  0  0  0  0  0  0  0  0  0  0  0
   59.7321   -0.4329   40.6779 C   0  0  0  0  0  0  0  0  0  0  0  0
   60.1939    0.7972   40.1808 C   0  0  0  0  0  0  0  0  0  0  0  0
   60.9341    1.6599   40.9809 C   0  0  0  0  0  0  0  0  0  0  0  0
   61.3405    2.8442   40.4273 O   0  0  0  0  0  0  0  0  0  0  0  0
   61.8412    3.4516   40.9356 H   0  0  0  0  0  0  0  0  0  0  0  0
   58.6996   -5.0584   38.9996 C   0  0  0  0  0  0  0  0  0  0  0  0
   57.9642   -5.8309   40.1222 C   0  0  0  0  0  0  0  0  0  0  0  0
   57.2658   -7.0397   39.5512 N   0  0  0  0  0  0  0  0  0  0  0  0
   57.9540   -7.6598   39.1241 H   0  0  0  0  0  0  0  0  0  0  0  0
   56.5925   -6.7416   38.8454 H   0  0  0  0  0  0  0  0  0  0  0  0
   58.9874   -6.2591   41.2164 C   0  0  0  0  0  0  0  0  0  0  0  0
   59.9268   -7.0239   40.8478 O   0  0  0  0  0  0  0  0  0  0  0  0
   58.8100   -5.7652   42.3664 O   0  0  0  0  0  0  0  0  0  0  0  0
   59.9600   -7.3327   39.9638 H   0  0  0  0  0  0  0  0  0  0  0  0
  7  8  2  0  0  0
  7 12  1  0  0  0
  8  9  1  0  0  0
 13 12  1  0  0  0
 12 11  2  0  0  0
  9 10  2  0  0  0
 11 10  1  0  0  0
 10  6  1  0  0  0
  1  6  2  0  0  0
  1  2  1  0  0  0
  6  5  1  0  0  0
 15  2  1  0  0  0
 15 16  1  0  0  0
 17 16  1  0  0  0
  2  3  2  0  0  0
 16 20  1  0  0  0
  5  4  2  0  0  0
  3  4  1  0  0  0
 20 22  2  0  0  0
 20 21  1  0  0  0
 13 14  1  0  0  0
 17 18  1  0  0  0
 17 19  1  0  0  0
 21 23  1  0  0  0
M  END
> <minimizedAffinity>
-7.96181

$$$$
5CBS_E42_A_301


 23 24  0  0  0  0  0  0  0  0999 V2000
   59.2108   -2.6881   39.8594 C   0  0  0  0  0  0  0  0  0  0  0  0
   58.4409   -3.5293   39.0334 C   0  0  0  0  0  0  0  0  0  0  0  0
   57.4214   -2.9630   38.2428 C   0  0  0  0  0  0  0  0  0  0  0  0
   57.1693   -1.5951   38.2695 C   0  0  0  0  0  0  0  0  0  0  0  0
   57.9506   -0.7735   39.0873 C   0  0  0  0  0  0  0  0  0  0  0  0
   58.9781   -1.3048   39.8858 C   0  0  0  0  0  0  0  0  0  0  0  0
   61.3092    1.2604   42.4156 C   0  0  0  0  0  0  0  0  0  0  0  0
   61.1225    1.5894   41.0728 C   0  0  0  0  0  0  0  0  0  0  0  0
   60.3586    0.7577   40.2374 C   0  0  0  0  0  0  0  0  0  0  0  0
   59.7746   -0.4118   40.7492 C   0  0  0  0  0  0  0  0  0  0  0  0
   59.9825   -0.7265   42.1024 C   0  0  0  0  0  0  0  0  0  0  0  0
   60.7382    0.1036   42.9223 C   0  0  0  0  0  0  0  0  0  0  0  0
   60.9031   -0.2758   44.2273 O   0  0  0  0  0  0  0  0  0  0  0  0
   61.4061    0.2580   44.8104 H   0  0  0  0  0  0  0  0  0  0  0  0
   58.7222   -5.0174   39.0292 C   0  0  0  0  0  0  0  0  0  0  0  0
   57.9784   -5.7979   40.1407 C   0  0  0  0  0  0  0  0  0  0  0  0
   57.2565   -6.9836   39.5505 N   0  0  0  0  0  0  0  0  0  0  0  0
   57.9318   -7.6074   39.1087 H   0  0  0  0  0  0  0  0  0  0  0  0
   56.5854   -6.6606   38.8536 H   0  0  0  0  0  0  0  0  0  0  0  0
   58.9987   -6.2643   41.2219 C   0  0  0  0  0  0  0  0  0  0  0  0
   59.9336   -7.0235   40.8310 O   0  0  0  0  0  0  0  0  0  0  0  0
   58.8239   -5.8034   42.3859 O   0  0  0  0  0  0  0  0  0  0  0  0
   59.9652   -7.3063   39.9383 H   0  0  0  0  0  0  0  0  0  0  0  0
  7  8  2  0  0  0
  7 12  1  0  0  0
  8  9  1  0  0  0
 13 12  1  0  0  0
 12 11  2  0  0  0
  9 10  2  0  0  0
 11 10  1  0  0  0
 10  6  1  0  0  0
  1  6  2  0  0  0
  1  2  1  0  0  0
  6  5  1  0  0  0
 15  2  1  0  0  0
 15 16  1  0  0  0
 17 16  1  0  0  0
  2  3  2  0  0  0
 16 20  1  0  0  0
  5  4  2  0  0  0
  3  4  1  0  0  0
 20 22  2  0  0  0
 20 21  1  0  0  0
 13 14  1  0  0  0
 17 18  1  0  0  0
 17 19  1  0  0  0
 21 23  1  0  0  0
M  END
> <minimizedAffinity>
-7.95004

$$$$
5CBS_E42_A_301


 23 24  0  0  0  0  0  0  0  0999 V2000
   58.6987   -2.1404   39.9831 C   0  0  0  0  0  0  0  0  0  0  0  0
   58.5475   -0.9318   39.2767 C   0  0  0  0  0  0  0  0  0  0  0  0
   57.7401   -0.9119   38.1223 C   0  0  0  0  0  0  0  0  0  0  0  0
   57.0971   -2.0623   37.6767 C   0  0  0  0  0  0  0  0  0  0  0  0
   57.2498   -3.2511   38.3965 C   0  0  0  0  0  0  0  0  0  0  0  0
   58.0448   -3.3053   39.5543 C   0  0  0  0  0  0  0  0  0  0  0  0
   58.4679   -6.9956   41.7030 C   0  0  0  0  0  0  0  0  0  0  0  0
   58.2504   -7.0131   40.3251 C   0  0  0  0  0  0  0  0  0  0  0  0
   58.1137   -5.8104   39.6125 C   0  0  0  0  0  0  0  0  0  0  0  0
   58.1970   -4.5797   40.2826 C   0  0  0  0  0  0  0  0  0  0  0  0
   58.4090   -4.5870   41.6713 C   0  0  0  0  0  0  0  0  0  0  0  0
   58.5453   -5.7821   42.3681 C   0  0  0  0  0  0  0  0  0  0  0  0
   58.7404   -5.7070   43.7210 O   0  0  0  0  0  0  0  0  0  0  0  0
   58.8366   -6.4913   44.2247 H   0  0  0  0  0  0  0  0  0  0  0  0
   59.2669    0.3061   39.7704 C   0  0  0  0  0  0  0  0  0  0  0  0
   60.7430    0.0561   40.1661 C   0  0  0  0  0  0  0  0  0  0  0  0
   61.6606    0.8915   39.3086 N   0  0  0  0  0  0  0  0  0  0  0  0
   61.4481    1.8796   39.4458 H   0  0  0  0  0  0  0  0  0  0  0  0
   61.5249    0.6475   38.3276 H   0  0  0  0  0  0  0  0  0  0  0  0
   60.9437    0.3984   41.6727 C   0  0  0  0  0  0  0  0  0  0  0  0
   61.5633   -0.4561   42.3721 O   0  0  0  0  0  0  0  0  0  0  0  0
   60.5066    1.5232   42.0496 O   0  0  0  0  0  0  0  0  0  0  0  0
   61.8432   -1.2629   41.9864 H   0  0  0  0  0  0  0  0  0  0  0  0
  7  8  2  0  0  0
  7 12  1  0  0  0
  8  9  1  0  0  0
 13 12  1  0  0  0
 12 11  2  0  0  0
  9 10  2  0  0  0
 11 10  1  0  0  0
 10  6  1  0  0  0
  1  6  2  0  0  0
  1  2  1  0  0  0
  6  5  1  0  0  0
 15  2  1  0  0  0
 15 16  1  0  0  0
 17 16  1  0  0  0
  2  3  2  0  0  0
 16 20  1  0  0  0
  5  4  2  0  0  0
  3  4  1  0  0  0
 20 22  2  0  0  0
 20 21  1  0  0  0
 13 14  1  0  0  0
 17 18  1  0  0  0
 17 19  1  0  0  0
 21 23  1  0  0  0
M  END
> <minimizedAffinity>
-7.86377

$$$$
5CBS_E42_A_301


 23 24  0  0  0  0  0  0  0  0999 V2000
   59.2434   -1.3952   40.6995 C   0  0  0  0  0  0  0  0  0  0  0  0
   59.2377   -0.1305   40.0806 C   0  0  0  0  0  0  0  0  0  0  0  0
   58.2243    0.1694   39.1489 C   0  0  0  0  0  0  0  0  0  0  0  0
   57.2389   -0.7617   38.8363 C   0  0  0  0  0  0  0  0  0  0  0  0
   57.2539   -2.0086   39.4683 C   0  0  0  0  0  0  0  0  0  0  0  0
   58.2479   -2.3391   40.4054 C   0  0  0  0  0  0  0  0  0  0  0  0
   58.2686   -6.2175   42.2416 C   0  0  0  0  0  0  0  0  0  0  0  0
   57.8409   -5.1057   42.9675 C   0  0  0  0  0  0  0  0  0  0  0  0
   57.8276   -3.8325   42.3744 C   0  0  0  0  0  0  0  0  0  0  0  0
   58.2435   -3.6696   41.0435 C   0  0  0  0  0  0  0  0  0  0  0  0
   58.6769   -4.8024   40.3347 C   0  0  0  0  0  0  0  0  0  0  0  0
   58.6847   -6.0589   40.9291 C   0  0  0  0  0  0  0  0  0  0  0  0
   59.1298   -7.1123   40.1765 O   0  0  0  0  0  0  0  0  0  0  0  0
   59.1497   -7.9745   40.5428 H   0  0  0  0  0  0  0  0  0  0  0  0
   60.3271    0.8639   40.4244 C   0  0  0  0  0  0  0  0  0  0  0  0
   61.2820    0.3835   41.5446 C   0  0  0  0  0  0  0  0  0  0  0  0
   62.7174    0.5900   41.1295 N   0  0  0  0  0  0  0  0  0  0  0  0
   62.8833    1.5823   40.9615 H   0  0  0  0  0  0  0  0  0  0  0  0
   62.9031    0.0649   40.2750 H   0  0  0  0  0  0  0  0  0  0  0  0
   60.9775    1.1631   42.8588 C   0  0  0  0  0  0  0  0  0  0  0  0
   61.2859    0.5892   43.9445 O   0  0  0  0  0  0  0  0  0  0  0  0
   60.4895    2.3206   42.7174 O   0  0  0  0  0  0  0  0  0  0  0  0
   61.6433   -0.2769   43.9315 H   0  0  0  0  0  0  0  0  0  0  0  0
  7  8  2  0  0  0
  7 12  1  0  0  0
  8  9  1  0  0  0
 13 12  1  0  0  0
 12 11  2  0  0  0
  9 10  2  0  0  0
 11 10  1  0  0  0
 10  6  1  0  0  0
  1  6  2  0  0  0
  1  2  1  0  0  0
  6  5  1  0  0  0
 15  2  1  0  0  0
 15 16  1  0  0  0
 17 16  1  0  0  0
  2  3  2  0  0  0
 16 20  1  0  0  0
  5  4  2  0  0  0
  3  4  1  0  0  0
 20 22  2  0  0  0
 20 21  1  0  0  0
 13 14  1  0  0  0
 17 18  1  0  0  0
 17 19  1  0  0  0
 21 23  1  0  0  0
M  END
> <minimizedAffinity>
-7.85786

$$$$
5CBS_E42_A_301


 23 24  0  0  0  0  0  0  0  0999 V2000
   62.7206    3.8608   41.3033 C   0  0  0  0  0  0  0  0  0  0  0  0
   62.7877    3.0083   42.4220 C   0  0  0  0  0  0  0  0  0  0  0  0
   61.6777    2.9264   43.2858 C   0  0  0  0  0  0  0  0  0  0  0  0
   60.5273    3.6718   43.0481 C   0  0  0  0  0  0  0  0  0  0  0  0
   60.4741    4.5049   41.9267 C   0  0  0  0  0  0  0  0  0  0  0  0
   61.5618    4.6075   41.0424 C   0  0  0  0  0  0  0  0  0  0  0  0
   61.3418    7.1992   37.6294 C   0  0  0  0  0  0  0  0  0  0  0  0
   60.2439    7.0744   38.4810 C   0  0  0  0  0  0  0  0  0  0  0  0
   60.3072    6.2310   39.6024 C   0  0  0  0  0  0  0  0  0  0  0  0
   61.4787    5.5076   39.8760 C   0  0  0  0  0  0  0  0  0  0  0  0
   62.5688    5.6435   39.0005 C   0  0  0  0  0  0  0  0  0  0  0  0
   62.4980    6.4822   37.8942 C   0  0  0  0  0  0  0  0  0  0  0  0
   63.5984    6.5541   37.0830 O   0  0  0  0  0  0  0  0  0  0  0  0
   63.5883    7.1086   36.3278 H   0  0  0  0  0  0  0  0  0  0  0  0
   64.0542    2.2159   42.6706 C   0  0  0  0  0  0  0  0  0  0  0  0
   63.9581    0.7315   42.2402 C   0  0  0  0  0  0  0  0  0  0  0  0
   65.1874    0.3346   41.4613 N   0  0  0  0  0  0  0  0  0  0  0  0
   66.0139    0.4524   42.0473 H   0  0  0  0  0  0  0  0  0  0  0  0
   65.2705    0.9246   40.6335 H   0  0  0  0  0  0  0  0  0  0  0  0
   63.7992   -0.1678   43.5026 C   0  0  0  0  0  0  0  0  0  0  0  0
   63.7392   -1.4172   43.3065 O   0  0  0  0  0  0  0  0  0  0  0  0
   63.7898    0.4331   44.6148 O   0  0  0  0  0  0  0  0  0  0  0  0
   63.7537   -1.7555   42.4328 H   0  0  0  0  0  0  0  0  0  0  0  0
  7  8  2  0  0  0
  7 12  1  0  0  0
  8  9  1  0  0  0
 13 12  1  0  0  0
 12 11  2  0  0  0
  9 10  2  0  0  0
 11 10  1  0  0  0
 10  6  1  0  0  0
  1  6  2  0  0  0
  1  2  1  0  0  0
  6  5  1  0  0  0
 15  2  1  0  0  0
 15 16  1  0  0  0
 17 16  1  0  0  0
  2  3  2  0  0  0
 16 20  1  0  0  0
  5  4  2  0  0  0
  3  4  1  0  0  0
 20 22  2  0  0  0
 20 21  1  0  0  0
 13 14  1  0  0  0
 17 18  1  0  0  0
 17 19  1  0  0  0
 21 23  1  0  0  0
M  END
> <minimizedAffinity>
-7.82571

$$$$
5CBS_E42_A_301


 23 24  0  0  0  0  0  0  0  0999 V2000
   59.9534   -0.6194   41.7648 C   0  0  0  0  0  0  0  0  0  0  0  0
   60.9914   -0.0423   42.5211 C   0  0  0  0  0  0  0  0  0  0  0  0
   61.9729    0.7233   41.8613 C   0  0  0  0  0  0  0  0  0  0  0  0
   61.9285    0.9130   40.4838 C   0  0  0  0  0  0  0  0  0  0  0  0
   60.8847    0.3416   39.7500 C   0  0  0  0  0  0  0  0  0  0  0  0
   59.8870   -0.4246   40.3769 C   0  0  0  0  0  0  0  0  0  0  0  0
   56.7477   -2.2068   38.0569 C   0  0  0  0  0  0  0  0  0  0  0  0
   56.7368   -0.8340   38.3051 C   0  0  0  0  0  0  0  0  0  0  0  0
   57.7616   -0.2409   39.0608 C   0  0  0  0  0  0  0  0  0  0  0  0
   58.8071   -1.0264   39.5712 C   0  0  0  0  0  0  0  0  0  0  0  0
   58.7930   -2.4075   39.3147 C   0  0  0  0  0  0  0  0  0  0  0  0
   57.7759   -2.9856   38.5640 C   0  0  0  0  0  0  0  0  0  0  0  0
   57.8271   -4.3391   38.3652 O   0  0  0  0  0  0  0  0  0  0  0  0
   57.1592   -4.7647   37.8644 H   0  0  0  0  0  0  0  0  0  0  0  0
   61.0294   -0.2723   44.0176 C   0  0  0  0  0  0  0  0  0  0  0  0
   62.3778   -0.8355   44.5300 C   0  0  0  0  0  0  0  0  0  0  0  0
   63.3736    0.2827   44.7123 N   0  0  0  0  0  0  0  0  0  0  0  0
   63.0157    0.9484   45.3972 H   0  0  0  0  0  0  0  0  0  0  0  0
   63.5192    0.7570   43.8211 H   0  0  0  0  0  0  0  0  0  0  0  0
   62.1507   -1.5874   45.8756 C   0  0  0  0  0  0  0  0  0  0  0  0
   62.3574   -0.9284   46.9368 O   0  0  0  0  0  0  0  0  0  0  0  0
   61.7359   -2.7780   45.7833 O   0  0  0  0  0  0  0  0  0  0  0  0
   62.6675   -0.0456   46.8871 H   0  0  0  0  0  0  0  0  0  0  0  0
  7  8  2  0  0  0
  7 12  1  0  0  0
  8  9  1  0  0  0
 13 12  1  0  0  0
 12 11  2  0  0  0
  9 10  2  0  0  0
 11 10  1  0  0  0
 10  6  1  0  0  0
  1  6  2  0  0  0
  1  2  1  0  0  0
  6  5  1  0  0  0
 15  2  1  0  0  0
 15 16  1  0  0  0
 17 16  1  0  0  0
  2  3  2  0  0  0
 16 20  1  0  0  0
  5  4  2  0  0  0
  3  4  1  0  0  0
 20 22  2  0  0  0
 20 21  1  0  0  0
 13 14  1  0  0  0
 17 18  1  0  0  0
 17 19  1  0  0  0
 21 23  1  0  0  0
M  END
> <minimizedAffinity>
-7.56229

$$$$
5CBS_E42_A_301


 23 24  0  0  0  0  0  0  0  0999 V2000
   60.8568    1.4478   40.3989 C   0  0  0  0  0  0  0  0  0  0  0  0
   62.0310    2.1620   40.7047 C   0  0  0  0  0  0  0  0  0  0  0  0
   63.2325    1.4513   40.8952 C   0  0  0  0  0  0  0  0  0  0  0  0
   63.2709    0.0649   40.7860 C   0  0  0  0  0  0  0  0  0  0  0  0
   62.0977   -0.6270   40.4711 C   0  0  0  0  0  0  0  0  0  0  0  0
   60.8828    0.0509   40.2709 C   0  0  0  0  0  0  0  0  0  0  0  0
   57.3373   -2.1684   39.3128 C   0  0  0  0  0  0  0  0  0  0  0  0
   57.9426   -2.3272   40.5597 C   0  0  0  0  0  0  0  0  0  0  0  0
   59.1017   -1.6030   40.8838 C   0  0  0  0  0  0  0  0  0  0  0  0
   59.6593   -0.7109   39.9543 C   0  0  0  0  0  0  0  0  0  0  0  0
   59.0367   -0.5730   38.7026 C   0  0  0  0  0  0  0  0  0  0  0  0
   57.8886   -1.2922   38.3913 C   0  0  0  0  0  0  0  0  0  0  0  0
   57.3457   -1.1104   37.1477 O   0  0  0  0  0  0  0  0  0  0  0  0
   56.5719   -1.5779   36.9015 H   0  0  0  0  0  0  0  0  0  0  0  0
   61.9653    3.6696   40.8328 C   0  0  0  0  0  0  0  0  0  0  0  0
   60.9892    4.1625   41.9293 C   0  0  0  0  0  0  0  0  0  0  0  0
   59.5708    4.1288   41.4172 N   0  0  0  0  0  0  0  0  0  0  0  0
   59.3231    3.1721   41.1648 H   0  0  0  0  0  0  0  0  0  0  0  0
   59.4915    4.7285   40.5960 H   0  0  0  0  0  0  0  0  0  0  0  0
   61.1326    3.2661   43.1956 C   0  0  0  0  0  0  0  0  0  0  0  0
   62.2930    3.1654   43.6921 O   0  0  0  0  0  0  0  0  0  0  0  0
   60.0643    2.7559   43.6387 O   0  0  0  0  0  0  0  0  0  0  0  0
   63.0186    3.5885   43.2769 H   0  0  0  0  0  0  0  0  0  0  0  0
  7  8  2  0  0  0
  7 12  1  0  0  0
  8  9  1  0  0  0
 13 12  1  0  0  0
 12 11  2  0  0  0
  9 10  2  0  0  0
 11 10  1  0  0  0
 10  6  1  0  0  0
  1  6  2  0  0  0
  1  2  1  0  0  0
  6  5  1  0  0  0
 15  2  1  0  0  0
 15 16  1  0  0  0
 17 16  1  0  0  0
  2  3  2  0  0  0
 16 20  1  0  0  0
  5  4  2  0  0  0
  3  4  1  0  0  0
 20 22  2  0  0  0
 20 21  1  0  0  0
 13 14  1  0  0  0
 17 18  1  0  0  0
 17 19  1  0  0  0
 21 23  1  0  0  0
M  END
> <minimizedAffinity>
-7.28420

$$$$
5CBS_E42_A_301


 23 24  0  0  0  0  0  0  0  0999 V2000
   59.1079   -1.7683   41.3451 C   0  0  0  0  0  0  0  0  0  0  0  0
   58.2102   -2.6324   40.6894 C   0  0  0  0  0  0  0  0  0  0  0  0
   57.7765   -2.3078   39.3889 C   0  0  0  0  0  0  0  0  0  0  0  0
   58.2207   -1.1535   38.7518 C   0  0  0  0  0  0  0  0  0  0  0  0
   59.1202   -0.3125   39.4136 C   0  0  0  0  0  0  0  0  0  0  0  0
   59.5762   -0.6083   40.7098 C   0  0  0  0  0  0  0  0  0  0  0  0
   62.3264    2.0261   42.6872 C   0  0  0  0  0  0  0  0  0  0  0  0
   61.7081    2.4265   41.5025 C   0  0  0  0  0  0  0  0  0  0  0  0
   60.8041    1.5725   40.8495 C   0  0  0  0  0  0  0  0  0  0  0  0
   60.5141    0.3083   41.3863 C   0  0  0  0  0  0  0  0  0  0  0  0
   61.1544   -0.0762   42.5761 C   0  0  0  0  0  0  0  0  0  0  0  0
   62.0460    0.7763   43.2168 C   0  0  0  0  0  0  0  0  0  0  0  0
   62.6367    0.3261   44.3668 O   0  0  0  0  0  0  0  0  0  0  0  0
   63.2433    0.8724   44.8268 H   0  0  0  0  0  0  0  0  0  0  0  0
   57.7278   -3.8767   41.4055 C   0  0  0  0  0  0  0  0  0  0  0  0
   57.8942   -3.8174   42.9439 C   0  0  0  0  0  0  0  0  0  0  0  0
   56.5479   -3.6694   43.6079 N   0  0  0  0  0  0  0  0  0  0  0  0
   55.9629   -4.4713   43.3728 H   0  0  0  0  0  0  0  0  0  0  0  0
   56.0995   -2.8138   43.2805 H   0  0  0  0  0  0  0  0  0  0  0  0
   58.6076   -5.1103   43.4410 C   0  0  0  0  0  0  0  0  0  0  0  0
   59.0645   -5.0890   44.6217 O   0  0  0  0  0  0  0  0  0  0  0  0
   58.6250   -6.0811   42.6316 O   0  0  0  0  0  0  0  0  0  0  0  0
   58.9971   -4.3088   45.1361 H   0  0  0  0  0  0  0  0  0  0  0  0
  7  8  2  0  0  0
  7 12  1  0  0  0
  8  9  1  0  0  0
 13 12  1  0  0  0
 12 11  2  0  0  0
  9 10  2  0  0  0
 11 10  1  0  0  0
 10  6  1  0  0  0
  1  6  2  0  0  0
  1  2  1  0  0  0
  6  5  1  0  0  0
 15  2  1  0  0  0
 15 16  1  0  0  0
 17 16  1  0  0  0
  2  3  2  0  0  0
 16 20  1  0  0  0
  5  4  2  0  0  0
  3  4  1  0  0  0
 20 22  2  0  0  0
 20 21  1  0  0  0
 13 14  1  0  0  0
 17 18  1  0  0  0
 17 19  1  0  0  0
 21 23  1  0  0  0
M  END
> <minimizedAffinity>
-7.27080

$$$$
5CBS_E42_A_301


 23 24  0  0  0  0  0  0  0  0999 V2000
   59.1075   -1.6928   41.2682 C   0  0  0  0  0  0  0  0  0  0  0  0
   58.2271   -2.5217   40.5470 C   0  0  0  0  0  0  0  0  0  0  0  0
   57.9062   -2.1841   39.2173 C   0  0  0  0  0  0  0  0  0  0  0  0
   58.4442   -1.0512   38.6151 C   0  0  0  0  0  0  0  0  0  0  0  0
   59.3251   -0.2454   39.3426 C   0  0  0  0  0  0  0  0  0  0  0  0
   59.6696   -0.5552   40.6696 C   0  0  0  0  0  0  0  0  0  0  0  0
   62.3709    1.9715   42.8451 C   0  0  0  0  0  0  0  0  0  0  0  0
   61.7863    2.4304   41.6645 C   0  0  0  0  0  0  0  0  0  0  0  0
   60.8985    1.6119   40.9469 C   0  0  0  0  0  0  0  0  0  0  0  0
   60.5909    0.3246   41.4144 C   0  0  0  0  0  0  0  0  0  0  0  0
   61.1972   -0.1187   42.6016 C   0  0  0  0  0  0  0  0  0  0  0  0
   62.0730    0.6989   43.3064 C   0  0  0  0  0  0  0  0  0  0  0  0
   62.6308    0.1922   44.4493 O   0  0  0  0  0  0  0  0  0  0  0  0
   63.2259    0.7136   44.9513 H   0  0  0  0  0  0  0  0  0  0  0  0
   57.6414   -3.7427   41.2251 C   0  0  0  0  0  0  0  0  0  0  0  0
   58.6696   -4.8733   41.4748 C   0  0  0  0  0  0  0  0  0  0  0  0
   58.3904   -5.5490   42.7942 N   0  0  0  0  0  0  0  0  0  0  0  0
   57.4551   -5.9555   42.7768 H   0  0  0  0  0  0  0  0  0  0  0  0
   58.4491   -4.8630   43.5467 H   0  0  0  0  0  0  0  0  0  0  0  0
   58.6026   -5.9052   40.3094 C   0  0  0  0  0  0  0  0  0  0  0  0
   59.4619   -6.8350   40.3235 O   0  0  0  0  0  0  0  0  0  0  0  0
   57.6641   -5.7437   39.4780 O   0  0  0  0  0  0  0  0  0  0  0  0
   60.1180   -6.8565   40.9921 H   0  0  0  0  0  0  0  0  0  0  0  0
  7  8  2  0  0  0
  7 12  1  0  0  0
  8  9  1  0  0  0
 13 12  1  0  0  0
 12 11  2  0  0  0
  9 10  2  0  0  0
 11 10  1  0  0  0
 10  6  1  0  0  0
  1  6  2  0  0  0
  1  2  1  0  0  0
  6  5  1  0  0  0
 15  2  1  0  0  0
 15 16  1  0  0  0
 17 16  1  0  0  0
  2  3  2  0  0  0
 16 20  1  0  0  0
  5  4  2  0  0  0
  3  4  1  0  0  0
 20 22  2  0  0  0
 20 21  1  0  0  0
 13 14  1  0  0  0
 17 18  1  0  0  0
 17 19  1  0  0  0
 21 23  1  0  0  0
M  END
> <minimizedAffinity>
-7.25760

$$$$
