3P4V_PMX_A_300


 25 25  0  0  0  0  0  0  0  0999 V2000
   16.2013    2.9155   16.1251 C   0  0  0  0  0  0  0  0  0  0  0  0
   15.1868    2.0826   16.8561 C   0  0  0  0  0  0  0  0  0  0  0  0
   13.9892    2.1791   16.6218 O   0  0  0  0  0  0  0  0  0  0  0  0
   15.6055    1.1390   17.7641 O   0  0  0  0  0  0  0  0  0  0  0  0
   16.5176    1.0481   17.9584 H   0  0  0  0  0  0  0  0  0  0  0  0
   16.4835    2.4438   14.7786 N   0  0  0  0  0  0  0  0  0  0  0  0
   17.2024    0.3424   15.4151 O   0  0  0  0  0  0  0  0  0  0  0  0
   16.9056    1.0934   14.5016 C   0  0  0  0  0  0  0  0  0  0  0  0
   16.3823    3.0713   14.0268 H   0  0  0  0  0  0  0  0  0  0  0  0
   17.1670    1.4752   12.2869 C   0  0  0  0  0  0  0  0  0  0  0  0
   16.9397    0.6415   13.1911 C   0  0  0  0  0  0  0  0  0  0  0  0
   16.1347    0.4788   10.3768 O   0  0  0  0  0  0  0  0  0  0  0  0
   17.1658    1.0141   10.8576 C   0  0  0  0  0  0  0  0  0  0  0  0
   18.2390    1.1001   10.1814 O   0  0  0  0  0  0  0  0  0  0  0  0
   19.3624    1.7342   10.7044 C   0  0  0  0  0  0  0  0  0  0  0  0
   15.9172    4.4135   16.1782 C   0  0  0  0  0  0  0  0  0  0  0  0
   15.4904    7.4034   12.0171 Cl  0  0  0  0  0  0  0  0  0  0  0  0
   16.5827    5.2937   15.1318 C   0  0  0  0  0  0  0  0  0  0  0  0
   18.6839    6.3771   14.0968 C   0  0  0  0  0  0  0  0  0  0  0  0
   17.8139    6.9982   13.0581 C   0  0  0  0  0  0  0  0  0  0  0  0
   18.3694    7.7927   12.0671 O   0  0  0  0  0  0  0  0  0  0  0  0
   16.3621    6.7660   13.0613 C   0  0  0  0  0  0  0  0  0  0  0  0
   15.7549    5.8951   14.1238 C   0  0  0  0  0  0  0  0  0  0  0  0
   18.0867    5.5309   15.1295 C   0  0  0  0  0  0  0  0  0  0  0  0
   19.2933    7.9481   12.0543 H   0  0  0  0  0  0  0  0  0  0  0  0
  2  3  2  0  0  0
  2  1  1  0  0  0
  2  4  1  0  0  0
  6  1  1  0  0  0
  6  8  1  0  0  0
 17 22  1  0  0  0
  1 16  1  0  0  0
 16 18  1  0  0  0
 18 23  2  0  0  0
 18 24  1  0  0  0
  7  8  2  0  0  0
 19 20  1  0  0  0
 19 24  2  0  0  0
 10 11  2  0  0  0
 10 13  1  0  0  0
 11  8  1  0  0  0
 20 21  1  0  0  0
 20 22  2  0  0  0
 12 13  2  0  0  0
 13 14  1  0  0  0
 22 23  1  0  0  0
 14 15  1  0  0  0
  6  9  1  0  0  0
 21 25  1  0  0  0
  4  5  1  0  0  0
M  END
> <minimizedAffinity>
-7.25655

$$$$
3P4V_PMX_A_300


 25 25  0  0  0  0  0  0  0  0999 V2000
   16.5221    5.7252   13.8773 C   0  0  0  0  0  0  0  0  0  0  0  0
   17.9052    6.1687   14.2617 C   0  0  0  0  0  0  0  0  0  0  0  0
   18.1537    7.3383   14.5242 O   0  0  0  0  0  0  0  0  0  0  0  0
   18.9090    5.2381   14.3899 O   0  0  0  0  0  0  0  0  0  0  0  0
   18.7406    4.3374   14.1941 H   0  0  0  0  0  0  0  0  0  0  0  0
   16.4995    4.5131   13.0739 N   0  0  0  0  0  0  0  0  0  0  0  0
   17.2076    5.5182   11.1178 O   0  0  0  0  0  0  0  0  0  0  0  0
   16.9475    4.4812   11.7039 C   0  0  0  0  0  0  0  0  0  0  0  0
   16.1651    3.6817   13.4816 H   0  0  0  0  0  0  0  0  0  0  0  0
   16.5097    2.2686   11.5272 C   0  0  0  0  0  0  0  0  0  0  0  0
   17.1143    3.2614   11.0658 C   0  0  0  0  0  0  0  0  0  0  0  0
   16.5732    0.8155    9.6322 O   0  0  0  0  0  0  0  0  0  0  0  0
   16.7104    0.9298   10.8767 C   0  0  0  0  0  0  0  0  0  0  0  0
   16.9363   -0.0839   11.6100 O   0  0  0  0  0  0  0  0  0  0  0  0
   18.0371   -0.9026   11.3752 C   0  0  0  0  0  0  0  0  0  0  0  0
   15.5469    5.6746   15.0493 C   0  0  0  0  0  0  0  0  0  0  0  0
   16.8145    0.7155   15.5367 Cl  0  0  0  0  0  0  0  0  0  0  0  0
   15.4729    4.3828   15.8482 C   0  0  0  0  0  0  0  0  0  0  0  0
   14.6465    3.0310   17.8854 C   0  0  0  0  0  0  0  0  0  0  0  0
   15.3522    1.8368   17.3398 C   0  0  0  0  0  0  0  0  0  0  0  0
   15.3006    0.6273   18.0153 O   0  0  0  0  0  0  0  0  0  0  0  0
   16.0975    1.9207   16.0753 C   0  0  0  0  0  0  0  0  0  0  0  0
   16.1462    3.2244   15.3308 C   0  0  0  0  0  0  0  0  0  0  0  0
   14.6985    4.2979   17.1565 C   0  0  0  0  0  0  0  0  0  0  0  0
   14.8288    0.5610   18.8221 H   0  0  0  0  0  0  0  0  0  0  0  0
  2  3  2  0  0  0
  2  1  1  0  0  0
  2  4  1  0  0  0
  6  1  1  0  0  0
  6  8  1  0  0  0
 17 22  1  0  0  0
  1 16  1  0  0  0
 16 18  1  0  0  0
 18 23  2  0  0  0
 18 24  1  0  0  0
  7  8  2  0  0  0
 19 20  1  0  0  0
 19 24  2  0  0  0
 10 11  2  0  0  0
 10 13  1  0  0  0
 11  8  1  0  0  0
 20 21  1  0  0  0
 20 22  2  0  0  0
 12 13  2  0  0  0
 13 14  1  0  0  0
 22 23  1  0  0  0
 14 15  1  0  0  0
  6  9  1  0  0  0
 21 25  1  0  0  0
  4  5  1  0  0  0
M  END
> <minimizedAffinity>
-7.16179

$$$$
3P4V_PMX_A_300


 25 25  0  0  0  0  0  0  0  0999 V2000
   18.9723    5.3897   13.0554 C   0  0  0  0  0  0  0  0  0  0  0  0
   20.3812    5.6029   12.5789 C   0  0  0  0  0  0  0  0  0  0  0  0
   20.9188    6.7010   12.6381 O   0  0  0  0  0  0  0  0  0  0  0  0
   21.1170    4.5337   12.1253 O   0  0  0  0  0  0  0  0  0  0  0  0
   20.7252    3.6843   12.0719 H   0  0  0  0  0  0  0  0  0  0  0  0
   18.3668    4.1641   12.5589 N   0  0  0  0  0  0  0  0  0  0  0  0
   16.5600    5.1908   11.5493 O   0  0  0  0  0  0  0  0  0  0  0  0
   17.1889    4.1616   11.7276 C   0  0  0  0  0  0  0  0  0  0  0  0
   18.7774    3.3024   12.7998 H   0  0  0  0  0  0  0  0  0  0  0  0
   17.2552    1.9085   11.5333 C   0  0  0  0  0  0  0  0  0  0  0  0
   16.7935    2.9883   11.1031 C   0  0  0  0  0  0  0  0  0  0  0  0
   16.4508    0.6629    9.6602 O   0  0  0  0  0  0  0  0  0  0  0  0
   16.8732    0.6300   10.8440 C   0  0  0  0  0  0  0  0  0  0  0  0
   16.9071   -0.4581   11.5007 O   0  0  0  0  0  0  0  0  0  0  0  0
   18.0254   -1.2854   11.4528 C   0  0  0  0  0  0  0  0  0  0  0  0
   18.8018    5.5640   14.5614 C   0  0  0  0  0  0  0  0  0  0  0  0
   16.1134    1.9924   17.1015 Cl  0  0  0  0  0  0  0  0  0  0  0  0
   17.4854    5.1165   15.1773 C   0  0  0  0  0  0  0  0  0  0  0  0
   14.9934    5.5148   15.7175 C   0  0  0  0  0  0  0  0  0  0  0  0
   14.9547    4.1781   16.3757 C   0  0  0  0  0  0  0  0  0  0  0  0
   13.7757    3.7101   16.9351 O   0  0  0  0  0  0  0  0  0  0  0  0
   16.1575    3.3342   16.4277 C   0  0  0  0  0  0  0  0  0  0  0  0
   17.4349    3.8288   15.8115 C   0  0  0  0  0  0  0  0  0  0  0  0
   16.2405    5.9914   15.1202 C   0  0  0  0  0  0  0  0  0  0  0  0
   13.0024    4.2385   16.9083 H   0  0  0  0  0  0  0  0  0  0  0  0
  2  3  2  0  0  0
  2  1  1  0  0  0
  2  4  1  0  0  0
  6  1  1  0  0  0
  6  8  1  0  0  0
 17 22  1  0  0  0
  1 16  1  0  0  0
 16 18  1  0  0  0
 18 23  2  0  0  0
 18 24  1  0  0  0
  7  8  2  0  0  0
 19 20  1  0  0  0
 19 24  2  0  0  0
 10 11  2  0  0  0
 10 13  1  0  0  0
 11  8  1  0  0  0
 20 21  1  0  0  0
 20 22  2  0  0  0
 12 13  2  0  0  0
 13 14  1  0  0  0
 22 23  1  0  0  0
 14 15  1  0  0  0
  6  9  1  0  0  0
 21 25  1  0  0  0
  4  5  1  0  0  0
M  END
> <minimizedAffinity>
-7.15504

$$$$
3P4V_PMX_A_300


 25 25  0  0  0  0  0  0  0  0999 V2000
   17.4012    2.1920   12.2832 C   0  0  0  0  0  0  0  0  0  0  0  0
   16.3541    1.8304   11.2682 C   0  0  0  0  0  0  0  0  0  0  0  0
   16.3377    0.7325   10.7271 O   0  0  0  0  0  0  0  0  0  0  0  0
   15.3464    2.7204   10.9810 O   0  0  0  0  0  0  0  0  0  0  0  0
   15.3395    3.5663   11.3840 H   0  0  0  0  0  0  0  0  0  0  0  0
   18.7362    2.3279   11.7222 N   0  0  0  0  0  0  0  0  0  0  0  0
   18.1712    3.9412   10.1679 O   0  0  0  0  0  0  0  0  0  0  0  0
   19.0574    3.3033   10.7103 C   0  0  0  0  0  0  0  0  0  0  0  0
   19.4484    1.7304   12.0462 H   0  0  0  0  0  0  0  0  0  0  0  0
   20.9631    4.5042   10.9228 C   0  0  0  0  0  0  0  0  0  0  0  0
   20.3839    3.5373   10.3808 C   0  0  0  0  0  0  0  0  0  0  0  0
   22.7130    4.8525    9.3344 O   0  0  0  0  0  0  0  0  0  0  0  0
   22.3868    4.8006   10.5475 C   0  0  0  0  0  0  0  0  0  0  0  0
   23.2561    4.9134   11.4683 O   0  0  0  0  0  0  0  0  0  0  0  0
   24.0923    6.0245   11.5272 C   0  0  0  0  0  0  0  0  0  0  0  0
   17.0122    3.3689   13.1724 C   0  0  0  0  0  0  0  0  0  0  0  0
   14.2170    4.9214   17.1990 Cl  0  0  0  0  0  0  0  0  0  0  0  0
   16.3812    3.0548   14.5199 C   0  0  0  0  0  0  0  0  0  0  0  0
   15.9176    1.4342   16.4741 C   0  0  0  0  0  0  0  0  0  0  0  0
   15.1473    2.5175   17.1486 C   0  0  0  0  0  0  0  0  0  0  0  0
   14.5687    2.2937   18.3883 O   0  0  0  0  0  0  0  0  0  0  0  0
   15.0033    3.8377   16.5178 C   0  0  0  0  0  0  0  0  0  0  0  0
   15.6392    4.0918   15.1810 C   0  0  0  0  0  0  0  0  0  0  0  0
   16.5336    1.6874   15.1720 C   0  0  0  0  0  0  0  0  0  0  0  0
   14.6534    1.4565   18.8006 H   0  0  0  0  0  0  0  0  0  0  0  0
  2  3  2  0  0  0
  2  1  1  0  0  0
  2  4  1  0  0  0
  6  1  1  0  0  0
  6  8  1  0  0  0
 17 22  1  0  0  0
  1 16  1  0  0  0
 16 18  1  0  0  0
 18 23  2  0  0  0
 18 24  1  0  0  0
  7  8  2  0  0  0
 19 20  1  0  0  0
 19 24  2  0  0  0
 10 11  2  0  0  0
 10 13  1  0  0  0
 11  8  1  0  0  0
 20 21  1  0  0  0
 20 22  2  0  0  0
 12 13  2  0  0  0
 13 14  1  0  0  0
 22 23  1  0  0  0
 14 15  1  0  0  0
  6  9  1  0  0  0
 21 25  1  0  0  0
  4  5  1  0  0  0
M  END
> <minimizedAffinity>
-7.13699

$$$$
3P4V_PMX_A_300


 25 25  0  0  0  0  0  0  0  0999 V2000
   17.7394    1.8807   11.5668 C   0  0  0  0  0  0  0  0  0  0  0  0
   17.0409    0.7118   10.9318 C   0  0  0  0  0  0  0  0  0  0  0  0
   16.8847   -0.3444   11.5306 O   0  0  0  0  0  0  0  0  0  0  0  0
   16.5014    0.8408    9.6739 O   0  0  0  0  0  0  0  0  0  0  0  0
   16.6089    1.6406    9.1977 H   0  0  0  0  0  0  0  0  0  0  0  0
   17.4421    2.0407   12.9814 N   0  0  0  0  0  0  0  0  0  0  0  0
   16.3409    4.0597   12.7599 O   0  0  0  0  0  0  0  0  0  0  0  0
   16.6506    3.1334   13.4897 C   0  0  0  0  0  0  0  0  0  0  0  0
   17.7951    1.3768   13.6170 H   0  0  0  0  0  0  0  0  0  0  0  0
   16.3421    2.0438   15.4483 C   0  0  0  0  0  0  0  0  0  0  0  0
   16.2138    3.1089   14.8055 C   0  0  0  0  0  0  0  0  0  0  0  0
   15.7309    0.8712   17.4378 O   0  0  0  0  0  0  0  0  0  0  0  0
   15.8364    1.9834   16.8612 C   0  0  0  0  0  0  0  0  0  0  0  0
   15.4458    3.0554   17.4223 O   0  0  0  0  0  0  0  0  0  0  0  0
   14.9314    3.0368   18.7154 C   0  0  0  0  0  0  0  0  0  0  0  0
   19.2343    1.9374   11.2679 C   0  0  0  0  0  0  0  0  0  0  0  0
   21.1677    5.3986    7.9940 Cl  0  0  0  0  0  0  0  0  0  0  0  0
   19.8541    3.3062   11.0341 C   0  0  0  0  0  0  0  0  0  0  0  0
   20.7297    5.5693   11.9128 C   0  0  0  0  0  0  0  0  0  0  0  0
   21.0795    5.9421   10.5127 C   0  0  0  0  0  0  0  0  0  0  0  0
   21.6666    7.1688   10.2436 O   0  0  0  0  0  0  0  0  0  0  0  0
   20.8215    5.0119    9.4037 C   0  0  0  0  0  0  0  0  0  0  0  0
   20.1985    3.6754    9.6894 C   0  0  0  0  0  0  0  0  0  0  0  0
   20.1222    4.2669   12.1845 C   0  0  0  0  0  0  0  0  0  0  0  0
   21.8361    7.7703   10.9418 H   0  0  0  0  0  0  0  0  0  0  0  0
  2  3  2  0  0  0
  2  1  1  0  0  0
  2  4  1  0  0  0
  6  1  1  0  0  0
  6  8  1  0  0  0
 17 22  1  0  0  0
  1 16  1  0  0  0
 16 18  1  0  0  0
 18 23  2  0  0  0
 18 24  1  0  0  0
  7  8  2  0  0  0
 19 20  1  0  0  0
 19 24  2  0  0  0
 10 11  2  0  0  0
 10 13  1  0  0  0
 11  8  1  0  0  0
 20 21  1  0  0  0
 20 22  2  0  0  0
 12 13  2  0  0  0
 13 14  1  0  0  0
 22 23  1  0  0  0
 14 15  1  0  0  0
  6  9  1  0  0  0
 21 25  1  0  0  0
  4  5  1  0  0  0
M  END
> <minimizedAffinity>
-7.07829

$$$$
3P4V_PMX_A_300


 25 25  0  0  0  0  0  0  0  0999 V2000
   17.6703    1.8579   11.5990 C   0  0  0  0  0  0  0  0  0  0  0  0
   16.9947    0.6908   10.9365 C   0  0  0  0  0  0  0  0  0  0  0  0
   16.8533   -0.3799   11.5128 O   0  0  0  0  0  0  0  0  0  0  0  0
   16.4594    0.8365    9.6786 O   0  0  0  0  0  0  0  0  0  0  0  0
   16.5559    1.6476    9.2195 H   0  0  0  0  0  0  0  0  0  0  0  0
   17.3797    1.9719   13.0195 N   0  0  0  0  0  0  0  0  0  0  0  0
   16.2582    3.9860   12.8657 O   0  0  0  0  0  0  0  0  0  0  0  0
   16.5809    3.0409   13.5651 C   0  0  0  0  0  0  0  0  0  0  0  0
   17.7426    1.2924   13.6325 H   0  0  0  0  0  0  0  0  0  0  0  0
   16.4639    1.9622   15.5504 C   0  0  0  0  0  0  0  0  0  0  0  0
   16.1520    2.9722   14.8820 C   0  0  0  0  0  0  0  0  0  0  0  0
   15.5783    0.7367   17.3999 O   0  0  0  0  0  0  0  0  0  0  0  0
   15.9732    1.8484   16.9654 C   0  0  0  0  0  0  0  0  0  0  0  0
   15.8897    2.8999   17.6750 O   0  0  0  0  0  0  0  0  0  0  0  0
   14.9482    2.9985   18.6955 C   0  0  0  0  0  0  0  0  0  0  0  0
   19.1613    1.9580   11.2919 C   0  0  0  0  0  0  0  0  0  0  0  0
   20.4428    6.6059   13.0782 Cl  0  0  0  0  0  0  0  0  0  0  0  0
   19.7350    3.3419   11.0310 C   0  0  0  0  0  0  0  0  0  0  0  0
   20.7469    5.1046    9.4407 C   0  0  0  0  0  0  0  0  0  0  0  0
   20.8199    6.0528   10.5885 C   0  0  0  0  0  0  0  0  0  0  0  0
   21.3141    7.3347   10.4038 O   0  0  0  0  0  0  0  0  0  0  0  0
   20.3569    5.6482   11.9241 C   0  0  0  0  0  0  0  0  0  0  0  0
   19.8073    4.2654   12.1287 C   0  0  0  0  0  0  0  0  0  0  0  0
   20.2118    3.7591    9.6465 C   0  0  0  0  0  0  0  0  0  0  0  0
   21.6122    7.6045    9.5574 H   0  0  0  0  0  0  0  0  0  0  0  0
  2  3  2  0  0  0
  2  1  1  0  0  0
  2  4  1  0  0  0
  6  1  1  0  0  0
  6  8  1  0  0  0
 17 22  1  0  0  0
  1 16  1  0  0  0
 16 18  1  0  0  0
 18 23  2  0  0  0
 18 24  1  0  0  0
  7  8  2  0  0  0
 19 20  1  0  0  0
 19 24  2  0  0  0
 10 11  2  0  0  0
 10 13  1  0  0  0
 11  8  1  0  0  0
 20 21  1  0  0  0
 20 22  2  0  0  0
 12 13  2  0  0  0
 13 14  1  0  0  0
 22 23  1  0  0  0
 14 15  1  0  0  0
  6  9  1  0  0  0
 21 25  1  0  0  0
  4  5  1  0  0  0
M  END
> <minimizedAffinity>
-7.06984

$$$$
3P4V_PMX_A_300


 25 25  0  0  0  0  0  0  0  0999 V2000
   17.6168    2.4325   12.3274 C   0  0  0  0  0  0  0  0  0  0  0  0
   16.9018    1.5449   11.3484 C   0  0  0  0  0  0  0  0  0  0  0  0
   16.8256    0.3348   11.5171 O   0  0  0  0  0  0  0  0  0  0  0  0
   16.2569    2.1005   10.2688 O   0  0  0  0  0  0  0  0  0  0  0  0
   16.3020    3.0246   10.1208 H   0  0  0  0  0  0  0  0  0  0  0  0
   19.0118    2.6687   11.9909 N   0  0  0  0  0  0  0  0  0  0  0  0
   18.5847    3.9149   10.0929 O   0  0  0  0  0  0  0  0  0  0  0  0
   19.4134    3.5064   10.8884 C   0  0  0  0  0  0  0  0  0  0  0  0
   19.7093    2.2397   12.5374 H   0  0  0  0  0  0  0  0  0  0  0  0
   21.1050    4.4009    9.6812 C   0  0  0  0  0  0  0  0  0  0  0  0
   20.7440    3.8739   10.7564 C   0  0  0  0  0  0  0  0  0  0  0  0
   23.3421    4.6722   10.4739 O   0  0  0  0  0  0  0  0  0  0  0  0
   22.5504    4.7672    9.5018 C   0  0  0  0  0  0  0  0  0  0  0  0
   22.9310    5.2460    8.3872 O   0  0  0  0  0  0  0  0  0  0  0  0
   22.0394    5.3798    7.3269 C   0  0  0  0  0  0  0  0  0  0  0  0
   16.8626    3.7179   12.6532 C   0  0  0  0  0  0  0  0  0  0  0  0
   15.5063    1.4761   17.0772 Cl  0  0  0  0  0  0  0  0  0  0  0  0
   16.2208    3.8285   14.0274 C   0  0  0  0  0  0  0  0  0  0  0  0
   15.0109    5.1951   15.8520 C   0  0  0  0  0  0  0  0  0  0  0  0
   14.9703    3.9693   16.6991 C   0  0  0  0  0  0  0  0  0  0  0  0
   14.3782    4.0068   17.9520 O   0  0  0  0  0  0  0  0  0  0  0  0
   15.5421    2.7048   16.2137 C   0  0  0  0  0  0  0  0  0  0  0  0
   16.1728    2.6532   14.8515 C   0  0  0  0  0  0  0  0  0  0  0  0
   15.6274    5.1388   14.5269 C   0  0  0  0  0  0  0  0  0  0  0  0
   14.0102    4.8067   18.2726 H   0  0  0  0  0  0  0  0  0  0  0  0
  2  3  2  0  0  0
  2  1  1  0  0  0
  2  4  1  0  0  0
  6  1  1  0  0  0
  6  8  1  0  0  0
 17 22  1  0  0  0
  1 16  1  0  0  0
 16 18  1  0  0  0
 18 23  2  0  0  0
 18 24  1  0  0  0
  7  8  2  0  0  0
 19 20  1  0  0  0
 19 24  2  0  0  0
 10 11  2  0  0  0
 10 13  1  0  0  0
 11  8  1  0  0  0
 20 21  1  0  0  0
 20 22  2  0  0  0
 12 13  2  0  0  0
 13 14  1  0  0  0
 22 23  1  0  0  0
 14 15  1  0  0  0
  6  9  1  0  0  0
 21 25  1  0  0  0
  4  5  1  0  0  0
M  END
> <minimizedAffinity>
-6.47008

$$$$
3P4V_PMX_A_300


 25 25  0  0  0  0  0  0  0  0999 V2000
   17.7756    4.1571   12.2535 C   0  0  0  0  0  0  0  0  0  0  0  0
   18.0393    3.8003   10.8180 C   0  0  0  0  0  0  0  0  0  0  0  0
   18.8372    2.9241   10.5113 O   0  0  0  0  0  0  0  0  0  0  0  0
   17.3256    4.4191    9.8191 O   0  0  0  0  0  0  0  0  0  0  0  0
   16.7096    5.0925   10.0316 H   0  0  0  0  0  0  0  0  0  0  0  0
   18.1837    5.5083   12.6042 N   0  0  0  0  0  0  0  0  0  0  0  0
   19.1766    4.9371   14.6106 O   0  0  0  0  0  0  0  0  0  0  0  0
   18.9685    5.8024   13.7773 C   0  0  0  0  0  0  0  0  0  0  0  0
   17.9136    6.2512   12.0174 H   0  0  0  0  0  0  0  0  0  0  0  0
   18.9982    7.8288   14.7832 C   0  0  0  0  0  0  0  0  0  0  0  0
   19.5150    7.0669   13.9366 C   0  0  0  0  0  0  0  0  0  0  0  0
   19.7812    9.6677   16.0916 O   0  0  0  0  0  0  0  0  0  0  0  0
   19.5479    9.2175   14.9411 C   0  0  0  0  0  0  0  0  0  0  0  0
   19.6912    9.9447   13.9082 O   0  0  0  0  0  0  0  0  0  0  0  0
   19.6442   11.3327   14.0012 C   0  0  0  0  0  0  0  0  0  0  0  0
   16.3591    3.8299   12.7159 C   0  0  0  0  0  0  0  0  0  0  0  0
   14.5176    3.9151   17.5158 Cl  0  0  0  0  0  0  0  0  0  0  0  0
   16.1994    3.1427   14.0631 C   0  0  0  0  0  0  0  0  0  0  0  0
   16.6303    1.1529   15.6490 C   0  0  0  0  0  0  0  0  0  0  0  0
   15.8695    1.8734   16.7091 C   0  0  0  0  0  0  0  0  0  0  0  0
   15.7110    1.3038   17.9630 O   0  0  0  0  0  0  0  0  0  0  0  0
   15.2915    3.1993   16.4456 C   0  0  0  0  0  0  0  0  0  0  0  0
   15.4711    3.8287   15.0937 C   0  0  0  0  0  0  0  0  0  0  0  0
   16.8008    1.7705   14.3343 C   0  0  0  0  0  0  0  0  0  0  0  0
   16.0747    0.4593   18.1434 H   0  0  0  0  0  0  0  0  0  0  0  0
  2  3  2  0  0  0
  2  1  1  0  0  0
  2  4  1  0  0  0
  6  1  1  0  0  0
  6  8  1  0  0  0
 17 22  1  0  0  0
  1 16  1  0  0  0
 16 18  1  0  0  0
 18 23  2  0  0  0
 18 24  1  0  0  0
  7  8  2  0  0  0
 19 20  1  0  0  0
 19 24  2  0  0  0
 10 11  2  0  0  0
 10 13  1  0  0  0
 11  8  1  0  0  0
 20 21  1  0  0  0
 20 22  2  0  0  0
 12 13  2  0  0  0
 13 14  1  0  0  0
 22 23  1  0  0  0
 14 15  1  0  0  0
  6  9  1  0  0  0
 21 25  1  0  0  0
  4  5  1  0  0  0
M  END
> <minimizedAffinity>
-6.44628

$$$$
3P4V_PMX_A_300


 25 25  0  0  0  0  0  0  0  0999 V2000
   18.1249    4.3325   11.0647 C   0  0  0  0  0  0  0  0  0  0  0  0
   19.3328    3.7011   10.4323 C   0  0  0  0  0  0  0  0  0  0  0  0
   20.3847    4.3143   10.3059 O   0  0  0  0  0  0  0  0  0  0  0  0
   19.2886    2.3833   10.0429 O   0  0  0  0  0  0  0  0  0  0  0  0
   18.4937    1.8952   10.1309 H   0  0  0  0  0  0  0  0  0  0  0  0
   17.7993    3.7886   12.3736 N   0  0  0  0  0  0  0  0  0  0  0  0
   16.3042    2.2055   11.6014 O   0  0  0  0  0  0  0  0  0  0  0  0
   16.9315    2.6505   12.5474 C   0  0  0  0  0  0  0  0  0  0  0  0
   18.1866    4.2144   13.1723 H   0  0  0  0  0  0  0  0  0  0  0  0
   16.4959    2.7458   14.7655 C   0  0  0  0  0  0  0  0  0  0  0  0
   16.8398    2.0424   13.7903 C   0  0  0  0  0  0  0  0  0  0  0  0
   17.2384    1.2000   16.4286 O   0  0  0  0  0  0  0  0  0  0  0  0
   16.4319    2.1163   16.1276 C   0  0  0  0  0  0  0  0  0  0  0  0
   15.5065    2.4672   16.9257 O   0  0  0  0  0  0  0  0  0  0  0  0
   14.2444    1.8846   16.8543 C   0  0  0  0  0  0  0  0  0  0  0  0
   18.1520    5.8578   11.0495 C   0  0  0  0  0  0  0  0  0  0  0  0
   13.8519    8.5570   11.8614 Cl  0  0  0  0  0  0  0  0  0  0  0  0
   16.9385    6.5778   10.4826 C   0  0  0  0  0  0  0  0  0  0  0  0
   15.4938    7.3404    8.4848 C   0  0  0  0  0  0  0  0  0  0  0  0
   14.5508    7.9750    9.4491 C   0  0  0  0  0  0  0  0  0  0  0  0
   13.4167    8.6264    8.9893 O   0  0  0  0  0  0  0  0  0  0  0  0
   14.8015    7.9065   10.8962 C   0  0  0  0  0  0  0  0  0  0  0  0
   16.0209    7.1904   11.4023 C   0  0  0  0  0  0  0  0  0  0  0  0
   16.6801    6.6455    8.9837 C   0  0  0  0  0  0  0  0  0  0  0  0
   13.2459    8.6768    8.0694 H   0  0  0  0  0  0  0  0  0  0  0  0
  2  3  2  0  0  0
  2  1  1  0  0  0
  2  4  1  0  0  0
  6  1  1  0  0  0
  6  8  1  0  0  0
 17 22  1  0  0  0
  1 16  1  0  0  0
 16 18  1  0  0  0
 18 23  2  0  0  0
 18 24  1  0  0  0
  7  8  2  0  0  0
 19 20  1  0  0  0
 19 24  2  0  0  0
 10 11  2  0  0  0
 10 13  1  0  0  0
 11  8  1  0  0  0
 20 21  1  0  0  0
 20 22  2  0  0  0
 12 13  2  0  0  0
 13 14  1  0  0  0
 22 23  1  0  0  0
 14 15  1  0  0  0
  6  9  1  0  0  0
 21 25  1  0  0  0
  4  5  1  0  0  0
M  END
> <minimizedAffinity>
-6.42599

$$$$
3P4V_PMX_A_300


 25 25  0  0  0  0  0  0  0  0999 V2000
   18.2056    5.7620   13.0762 C   0  0  0  0  0  0  0  0  0  0  0  0
   18.5349    5.4335   14.5049 C   0  0  0  0  0  0  0  0  0  0  0  0
   17.6655    5.3647   15.3638 O   0  0  0  0  0  0  0  0  0  0  0  0
   19.8306    5.1358   14.8551 O   0  0  0  0  0  0  0  0  0  0  0  0
   20.5118    5.1820   14.2134 H   0  0  0  0  0  0  0  0  0  0  0  0
   17.8877    4.5961   12.2671 N   0  0  0  0  0  0  0  0  0  0  0  0
   20.0613    3.8312   12.0987 O   0  0  0  0  0  0  0  0  0  0  0  0
   18.8790    3.6200   11.8886 C   0  0  0  0  0  0  0  0  0  0  0  0
   16.9591    4.4683   11.9659 H   0  0  0  0  0  0  0  0  0  0  0  0
   17.2908    2.0630   11.4740 C   0  0  0  0  0  0  0  0  0  0  0  0
   18.4778    2.4231   11.3147 C   0  0  0  0  0  0  0  0  0  0  0  0
   16.3311    0.7151    9.7510 O   0  0  0  0  0  0  0  0  0  0  0  0
   16.8473    0.7493   10.8969 C   0  0  0  0  0  0  0  0  0  0  0  0
   16.9279   -0.2975   11.6139 O   0  0  0  0  0  0  0  0  0  0  0  0
   17.9695   -1.2039   11.4379 C   0  0  0  0  0  0  0  0  0  0  0  0
   17.1807    6.8820   12.9256 C   0  0  0  0  0  0  0  0  0  0  0  0
   13.4011    8.6483    9.9204 Cl  0  0  0  0  0  0  0  0  0  0  0  0
   16.6527    7.1699   11.5289 C   0  0  0  0  0  0  0  0  0  0  0  0
   16.9196    7.1385    8.9622 C   0  0  0  0  0  0  0  0  0  0  0  0
   15.5588    7.7352    8.8446 C   0  0  0  0  0  0  0  0  0  0  0  0
   15.0185    7.9988    7.5955 O   0  0  0  0  0  0  0  0  0  0  0  0
   14.7678    8.0377   10.0465 C   0  0  0  0  0  0  0  0  0  0  0  0
   15.3412    7.7419   11.4028 C   0  0  0  0  0  0  0  0  0  0  0  0
   17.4730    6.8537   10.2857 C   0  0  0  0  0  0  0  0  0  0  0  0
   15.5127    7.8105    6.8220 H   0  0  0  0  0  0  0  0  0  0  0  0
  2  3  2  0  0  0
  2  1  1  0  0  0
  2  4  1  0  0  0
  6  1  1  0  0  0
  6  8  1  0  0  0
 17 22  1  0  0  0
  1 16  1  0  0  0
 16 18  1  0  0  0
 18 23  2  0  0  0
 18 24  1  0  0  0
  7  8  2  0  0  0
 19 20  1  0  0  0
 19 24  2  0  0  0
 10 11  2  0  0  0
 10 13  1  0  0  0
 11  8  1  0  0  0
 20 21  1  0  0  0
 20 22  2  0  0  0
 12 13  2  0  0  0
 13 14  1  0  0  0
 22 23  1  0  0  0
 14 15  1  0  0  0
  6  9  1  0  0  0
 21 25  1  0  0  0
  4  5  1  0  0  0
M  END
> <minimizedAffinity>
-6.21550

$$$$
