4RIU_3QR_A_305


 35 38  0  0  0  0  0  0  0  0999 V2000
   -0.8690    7.9985   83.7181 N   0  0  0  0  0  0  0  0  0  0  0  0
   -0.4915    6.7699   84.1721 C   0  0  0  0  0  0  0  0  0  0  0  0
   -2.0911    7.9176   83.2272 N   0  0  0  0  0  0  0  0  0  0  0  0
   -2.5595    6.6912   83.3459 N   0  0  0  0  0  0  0  0  0  0  0  0
   -1.6047    5.9046   83.9258 C   0  0  0  0  0  0  0  0  0  0  0  0
    1.3176    9.0928   84.1264 C   0  0  0  0  0  0  0  0  0  0  0  0
    2.1360   10.3055   84.1558 C   0  0  0  0  0  0  0  0  0  0  0  0
    3.7249   10.5669   84.5486 S   0  0  0  0  0  0  0  0  0  0  0  0
    3.9253   10.4406   85.9965 O   0  0  0  0  0  0  0  0  0  0  0  0
    4.6274    9.6951   83.7928 O   0  0  0  0  0  0  0  0  0  0  0  0
    3.9682   12.1062   84.1268 N   0  0  0  0  0  0  0  0  0  0  0  0
    2.7034   12.7337   83.9606 C   0  0  0  0  0  0  0  0  0  0  0  0
    2.6361   13.4986   82.9557 O   0  0  0  0  0  0  0  0  0  0  0  0
    0.1836   11.5690   83.4392 C   0  0  0  0  0  0  0  0  0  0  0  0
   -0.5928   10.4187   83.4135 C   0  0  0  0  0  0  0  0  0  0  0  0
   -0.0030    9.1907   83.7450 C   0  0  0  0  0  0  0  0  0  0  0  0
    1.5576   11.4818   83.8226 C   0  0  0  0  0  0  0  0  0  0  0  0
    4.8448   12.5375   84.0051 H   0  0  0  0  0  0  0  0  0  0  0  0
   -1.6914    4.4203   84.2752 C   0  0  0  0  0  0  0  0  0  0  0  0
   -1.4996    3.7478   83.0573 O   0  0  0  0  0  0  0  0  0  0  0  0
   -0.2161    3.8888   80.2987 C   0  0  0  0  0  0  0  0  0  0  0  0
    0.5573    4.6059   81.4173 C   0  0  0  0  0  0  0  0  0  0  0  0
   -0.6746    2.4999   80.5397 C   0  0  0  0  0  0  0  0  0  0  0  0
   -0.3699    2.9823   82.9800 C   0  0  0  0  0  0  0  0  0  0  0  0
    0.7803    3.8373   82.6377 O   0  0  0  0  0  0  0  0  0  0  0  0
    0.5359    3.9095   79.0525 O   0  0  0  0  0  0  0  0  0  0  0  0
   -2.0707    2.4120   80.1218 O   0  0  0  0  0  0  0  0  0  0  0  0
   -0.5622    1.9485   81.9095 C   0  0  0  0  0  0  0  0  0  0  0  0
    0.5722    1.0330   81.9577 O   0  0  0  0  0  0  0  0  0  0  0  0
    1.3373    3.3716   79.1495 H   0  0  0  0  0  0  0  0  0  0  0  0
   -2.6137    2.9845   80.6859 H   0  0  0  0  0  0  0  0  0  0  0  0
    1.3895    1.5206   81.7702 H   0  0  0  0  0  0  0  0  0  0  0  0
    1.9026    5.0799   80.9159 C   0  0  0  0  0  0  0  0  0  0  0  0
    2.9111    4.0415   81.1850 O   0  0  0  0  0  0  0  0  0  0  0  0
    2.9568    3.8749   82.1395 H   0  0  0  0  0  0  0  0  0  0  0  0
 21 22  1  0  0  0
 21 23  1  0  0  0
 21 26  1  0  0  0
 22 33  1  0  0  0
 22 25  1  0  0  0
 33 34  1  0  0  0
 23 27  1  0  0  0
 23 28  1  0  0  0
  6  7  2  0  0  0
  6 16  1  0  0  0
  7  8  1  0  0  0
  7 17  1  0  0  0
  8  9  2  0  0  0
  8 10  2  0  0  0
  8 11  1  0  0  0
 11 12  1  0  0  0
 12 13  2  0  0  0
 17 14  2  0  0  0
 14 15  1  0  0  0
 15 16  2  0  0  0
 16  1  1  0  0  0
  1  2  1  0  0  0
  1  3  1  0  0  0
  2  5  2  0  0  0
  3  4  2  0  0  0
  4  5  1  0  0  0
  5 19  1  0  0  0
 19 20  1  0  0  0
 20 24  1  0  0  0
 24 25  1  0  0  0
 24 28  1  0  0  0
 28 29  1  0  0  0
 12 17  1  0  0  0
 11 18  1  0  0  0
 34 35  1  0  0  0
 26 30  1  0  0  0
 27 31  1  0  0  0
 29 32  1  0  0  0
M  END
> <minimizedAffinity>
-8.26258

$$$$
4RIU_3QR_A_305


 35 38  0  0  0  0  0  0  0  0999 V2000
   -1.6924    6.4279   83.5039 N   0  0  0  0  0  0  0  0  0  0  0  0
   -0.7850    7.4233   83.2944 C   0  0  0  0  0  0  0  0  0  0  0  0
   -2.8955    6.8716   83.1930 N   0  0  0  0  0  0  0  0  0  0  0  0
   -2.8357    8.1178   82.7674 N   0  0  0  0  0  0  0  0  0  0  0  0
   -1.5372    8.5405   82.8101 C   0  0  0  0  0  0  0  0  0  0  0  0
   -2.0592    4.5595   85.0915 C   0  0  0  0  0  0  0  0  0  0  0  0
   -1.6736    3.2439   85.6029 C   0  0  0  0  0  0  0  0  0  0  0  0
   -2.2823    2.3017   86.8231 S   0  0  0  0  0  0  0  0  0  0  0  0
   -1.9412    2.8699   88.1320 O   0  0  0  0  0  0  0  0  0  0  0  0
   -3.7236    2.0827   86.6800 O   0  0  0  0  0  0  0  0  0  0  0  0
   -1.4949    0.9033   86.6470 N   0  0  0  0  0  0  0  0  0  0  0  0
   -0.3618    1.1250   85.8175 C   0  0  0  0  0  0  0  0  0  0  0  0
   -0.1607    0.2122   84.9657 O   0  0  0  0  0  0  0  0  0  0  0  0
    0.1100    3.1893   83.9483 C   0  0  0  0  0  0  0  0  0  0  0  0
   -0.2550    4.4382   83.4649 C   0  0  0  0  0  0  0  0  0  0  0  0
   -1.3504    5.0980   84.0394 C   0  0  0  0  0  0  0  0  0  0  0  0
   -0.6221    2.6131   85.0320 C   0  0  0  0  0  0  0  0  0  0  0  0
   -1.7555    0.0422   87.0468 H   0  0  0  0  0  0  0  0  0  0  0  0
   -0.9757    9.9019   82.4050 C   0  0  0  0  0  0  0  0  0  0  0  0
   -1.5850   10.1954   81.1742 O   0  0  0  0  0  0  0  0  0  0  0  0
   -2.9545    9.1811   78.6496 C   0  0  0  0  0  0  0  0  0  0  0  0
   -2.6739   10.6924   78.6794 C   0  0  0  0  0  0  0  0  0  0  0  0
   -1.8512    8.2542   78.9976 C   0  0  0  0  0  0  0  0  0  0  0  0
   -0.7474   10.2188   80.0943 C   0  0  0  0  0  0  0  0  0  0  0  0
   -1.3181   11.0862   79.0488 O   0  0  0  0  0  0  0  0  0  0  0  0
   -3.4960    8.7792   77.3596 O   0  0  0  0  0  0  0  0  0  0  0  0
   -2.3765    7.2678   79.9369 O   0  0  0  0  0  0  0  0  0  0  0  0
   -0.6066    8.8218   79.5649 C   0  0  0  0  0  0  0  0  0  0  0  0
    0.4211    8.8332   78.5299 O   0  0  0  0  0  0  0  0  0  0  0  0
   -2.8186    8.8937   76.6748 H   0  0  0  0  0  0  0  0  0  0  0  0
   -2.6357    7.7110   80.7599 H   0  0  0  0  0  0  0  0  0  0  0  0
    0.1409    9.4103   77.8024 H   0  0  0  0  0  0  0  0  0  0  0  0
   -2.9901   11.3197   77.3405 C   0  0  0  0  0  0  0  0  0  0  0  0
   -4.4495   11.4605   77.2062 O   0  0  0  0  0  0  0  0  0  0  0  0
   -4.8655   10.5862   77.2653 H   0  0  0  0  0  0  0  0  0  0  0  0
 21 22  1  0  0  0
 21 23  1  0  0  0
 21 26  1  0  0  0
 22 33  1  0  0  0
 22 25  1  0  0  0
 33 34  1  0  0  0
 23 27  1  0  0  0
 23 28  1  0  0  0
  6  7  2  0  0  0
  6 16  1  0  0  0
  7  8  1  0  0  0
  7 17  1  0  0  0
  8  9  2  0  0  0
  8 10  2  0  0  0
  8 11  1  0  0  0
 11 12  1  0  0  0
 12 13  2  0  0  0
 17 14  2  0  0  0
 14 15  1  0  0  0
 15 16  2  0  0  0
 16  1  1  0  0  0
  1  2  1  0  0  0
  1  3  1  0  0  0
  2  5  2  0  0  0
  3  4  2  0  0  0
  4  5  1  0  0  0
  5 19  1  0  0  0
 19 20  1  0  0  0
 20 24  1  0  0  0
 24 25  1  0  0  0
 24 28  1  0  0  0
 28 29  1  0  0  0
 12 17  1  0  0  0
 11 18  1  0  0  0
 34 35  1  0  0  0
 26 30  1  0  0  0
 27 31  1  0  0  0
 29 32  1  0  0  0
M  END
> <minimizedAffinity>
-7.94487

$$$$
4RIU_3QR_A_305


 35 38  0  0  0  0  0  0  0  0999 V2000
    1.4054    6.9713   83.5460 N   0  0  0  0  0  0  0  0  0  0  0  0
    2.3225    6.5852   82.6143 C   0  0  0  0  0  0  0  0  0  0  0  0
    1.5926    8.2463   83.8295 N   0  0  0  0  0  0  0  0  0  0  0  0
    2.5857    8.7401   83.1170 N   0  0  0  0  0  0  0  0  0  0  0  0
    3.1041    7.7502   82.3308 C   0  0  0  0  0  0  0  0  0  0  0  0
    0.6993    4.7328   84.3435 C   0  0  0  0  0  0  0  0  0  0  0  0
   -0.3238    3.8672   84.9310 C   0  0  0  0  0  0  0  0  0  0  0  0
   -0.3347    2.2527   85.3059 S   0  0  0  0  0  0  0  0  0  0  0  0
   -0.4007    1.4408   84.0857 O   0  0  0  0  0  0  0  0  0  0  0  0
    0.8009    1.8784   86.1520 O   0  0  0  0  0  0  0  0  0  0  0  0
   -1.7136    2.0661   86.1246 N   0  0  0  0  0  0  0  0  0  0  0  0
   -2.5376    3.1995   85.8847 C   0  0  0  0  0  0  0  0  0  0  0  0
   -3.1343    3.6294   86.9135 O   0  0  0  0  0  0  0  0  0  0  0  0
   -1.8093    5.7920   85.0322 C   0  0  0  0  0  0  0  0  0  0  0  0
   -0.8392    6.6121   84.4730 C   0  0  0  0  0  0  0  0  0  0  0  0
    0.4116    6.0667   84.1510 C   0  0  0  0  0  0  0  0  0  0  0  0
   -1.5221    4.4087   85.2476 C   0  0  0  0  0  0  0  0  0  0  0  0
   -1.9449    1.2970   86.6939 H   0  0  0  0  0  0  0  0  0  0  0  0
    4.2546    7.8463   81.3310 C   0  0  0  0  0  0  0  0  0  0  0  0
    3.8445    7.0781   80.2291 O   0  0  0  0  0  0  0  0  0  0  0  0
    1.9189    5.4754   78.4968 C   0  0  0  0  0  0  0  0  0  0  0  0
    1.2830    6.6349   79.2808 C   0  0  0  0  0  0  0  0  0  0  0  0
    3.1491    5.7463   77.7154 C   0  0  0  0  0  0  0  0  0  0  0  0
    3.4243    7.7895   79.1402 C   0  0  0  0  0  0  0  0  0  0  0  0
    1.9576    7.9250   79.1782 O   0  0  0  0  0  0  0  0  0  0  0  0
    0.9458    4.8526   77.6113 O   0  0  0  0  0  0  0  0  0  0  0  0
    4.1071    4.6844   78.0089 O   0  0  0  0  0  0  0  0  0  0  0  0
    3.8274    7.0499   77.8983 C   0  0  0  0  0  0  0  0  0  0  0  0
    3.5316    7.9004   76.7509 O   0  0  0  0  0  0  0  0  0  0  0  0
    0.6935    5.4799   76.9158 H   0  0  0  0  0  0  0  0  0  0  0  0
    4.3589    4.7258   78.9448 H   0  0  0  0  0  0  0  0  0  0  0  0
    2.5773    8.0696   76.7113 H   0  0  0  0  0  0  0  0  0  0  0  0
   -0.1579    6.8313   78.8670 C   0  0  0  0  0  0  0  0  0  0  0  0
   -0.9915    5.8094   79.5218 O   0  0  0  0  0  0  0  0  0  0  0  0
   -0.6907    4.9268   79.2544 H   0  0  0  0  0  0  0  0  0  0  0  0
 21 22  1  0  0  0
 21 23  1  0  0  0
 21 26  1  0  0  0
 22 33  1  0  0  0
 22 25  1  0  0  0
 33 34  1  0  0  0
 23 27  1  0  0  0
 23 28  1  0  0  0
  6  7  2  0  0  0
  6 16  1  0  0  0
  7  8  1  0  0  0
  7 17  1  0  0  0
  8  9  2  0  0  0
  8 10  2  0  0  0
  8 11  1  0  0  0
 11 12  1  0  0  0
 12 13  2  0  0  0
 17 14  2  0  0  0
 14 15  1  0  0  0
 15 16  2  0  0  0
 16  1  1  0  0  0
  1  2  1  0  0  0
  1  3  1  0  0  0
  2  5  2  0  0  0
  3  4  2  0  0  0
  4  5  1  0  0  0
  5 19  1  0  0  0
 19 20  1  0  0  0
 20 24  1  0  0  0
 24 25  1  0  0  0
 24 28  1  0  0  0
 28 29  1  0  0  0
 12 17  1  0  0  0
 11 18  1  0  0  0
 34 35  1  0  0  0
 26 30  1  0  0  0
 27 31  1  0  0  0
 29 32  1  0  0  0
M  END
> <minimizedAffinity>
-7.62709

$$$$
4RIU_3QR_A_305


 35 38  0  0  0  0  0  0  0  0999 V2000
   -1.5941    6.6269   83.8713 N   0  0  0  0  0  0  0  0  0  0  0  0
   -1.2258    7.1417   82.6641 C   0  0  0  0  0  0  0  0  0  0  0  0
   -2.2170    7.5614   84.5641 N   0  0  0  0  0  0  0  0  0  0  0  0
   -2.2987    8.6786   83.8693 N   0  0  0  0  0  0  0  0  0  0  0  0
   -1.6878    8.4963   82.6608 C   0  0  0  0  0  0  0  0  0  0  0  0
   -2.0091    4.6616   85.3242 C   0  0  0  0  0  0  0  0  0  0  0  0
   -1.6554    3.3050   85.7436 C   0  0  0  0  0  0  0  0  0  0  0  0
   -2.2897    2.2945   86.8941 S   0  0  0  0  0  0  0  0  0  0  0  0
   -1.9402    2.7623   88.2400 O   0  0  0  0  0  0  0  0  0  0  0  0
   -3.7351    2.1193   86.7334 O   0  0  0  0  0  0  0  0  0  0  0  0
   -1.5339    0.8940   86.6225 N   0  0  0  0  0  0  0  0  0  0  0  0
   -0.3931    1.1467   85.8126 C   0  0  0  0  0  0  0  0  0  0  0  0
   -0.2100    0.2909   84.8996 O   0  0  0  0  0  0  0  0  0  0  0  0
    0.1322    3.3246   84.0924 C   0  0  0  0  0  0  0  0  0  0  0  0
   -0.2025    4.6122   83.6965 C   0  0  0  0  0  0  0  0  0  0  0  0
   -1.2846    5.2555   84.3135 C   0  0  0  0  0  0  0  0  0  0  0  0
   -0.6166    2.6914   85.1321 C   0  0  0  0  0  0  0  0  0  0  0  0
   -1.8155    0.0134   86.9608 H   0  0  0  0  0  0  0  0  0  0  0  0
   -1.5406    9.4995   81.5187 C   0  0  0  0  0  0  0  0  0  0  0  0
   -1.0422    8.7518   80.4393 O   0  0  0  0  0  0  0  0  0  0  0  0
   -0.6626    9.5030   77.5121 C   0  0  0  0  0  0  0  0  0  0  0  0
   -0.3225    8.0452   77.8626 C   0  0  0  0  0  0  0  0  0  0  0  0
   -1.9556   10.0556   77.9813 C   0  0  0  0  0  0  0  0  0  0  0  0
   -1.9871    8.1751   79.6375 C   0  0  0  0  0  0  0  0  0  0  0  0
   -1.3258    7.3204   78.6358 O   0  0  0  0  0  0  0  0  0  0  0  0
   -0.5663    9.7275   76.0771 O   0  0  0  0  0  0  0  0  0  0  0  0
   -1.6930   11.3639   78.5736 O   0  0  0  0  0  0  0  0  0  0  0  0
   -2.7545    9.2608   78.9419 C   0  0  0  0  0  0  0  0  0  0  0  0
   -3.8675    8.6417   78.2308 O   0  0  0  0  0  0  0  0  0  0  0  0
   -1.2587    9.2219   75.6235 H   0  0  0  0  0  0  0  0  0  0  0  0
   -1.1359   11.2567   79.3604 H   0  0  0  0  0  0  0  0  0  0  0  0
   -3.5232    8.0312   77.5602 H   0  0  0  0  0  0  0  0  0  0  0  0
   -0.0382    7.2481   76.6097 C   0  0  0  0  0  0  0  0  0  0  0  0
   -1.2831    7.1032   75.8371 O   0  0  0  0  0  0  0  0  0  0  0  0
   -1.9460    6.6431   76.3753 H   0  0  0  0  0  0  0  0  0  0  0  0
 21 22  1  0  0  0
 21 23  1  0  0  0
 21 26  1  0  0  0
 22 33  1  0  0  0
 22 25  1  0  0  0
 33 34  1  0  0  0
 23 27  1  0  0  0
 23 28  1  0  0  0
  6  7  2  0  0  0
  6 16  1  0  0  0
  7  8  1  0  0  0
  7 17  1  0  0  0
  8  9  2  0  0  0
  8 10  2  0  0  0
  8 11  1  0  0  0
 11 12  1  0  0  0
 12 13  2  0  0  0
 17 14  2  0  0  0
 14 15  1  0  0  0
 15 16  2  0  0  0
 16  1  1  0  0  0
  1  2  1  0  0  0
  1  3  1  0  0  0
  2  5  2  0  0  0
  3  4  2  0  0  0
  4  5  1  0  0  0
  5 19  1  0  0  0
 19 20  1  0  0  0
 20 24  1  0  0  0
 24 25  1  0  0  0
 24 28  1  0  0  0
 28 29  1  0  0  0
 12 17  1  0  0  0
 11 18  1  0  0  0
 34 35  1  0  0  0
 26 30  1  0  0  0
 27 31  1  0  0  0
 29 32  1  0  0  0
M  END
> <minimizedAffinity>
-7.56578

$$$$
4RIU_3QR_A_305


 35 38  0  0  0  0  0  0  0  0999 V2000
   -1.8307    8.5856   79.3921 N   0  0  0  0  0  0  0  0  0  0  0  0
   -0.5369    8.5549   79.8201 C   0  0  0  0  0  0  0  0  0  0  0  0
   -2.3158    7.3586   79.4041 N   0  0  0  0  0  0  0  0  0  0  0  0
   -1.4099    6.5047   79.8375 N   0  0  0  0  0  0  0  0  0  0  0  0
   -0.2559    7.1824   80.1129 C   0  0  0  0  0  0  0  0  0  0  0  0
   -3.4855    9.7529   77.9621 C   0  0  0  0  0  0  0  0  0  0  0  0
   -4.1367   10.9937   77.5408 C   0  0  0  0  0  0  0  0  0  0  0  0
   -5.3109   11.3075   76.4139 S   0  0  0  0  0  0  0  0  0  0  0  0
   -4.7714   11.1727   75.0562 O   0  0  0  0  0  0  0  0  0  0  0  0
   -6.5005   10.4769   76.6153 O   0  0  0  0  0  0  0  0  0  0  0  0
   -5.6751   12.8590   76.6723 N   0  0  0  0  0  0  0  0  0  0  0  0
   -4.6373   13.4427   77.4490 C   0  0  0  0  0  0  0  0  0  0  0  0
   -5.0493   14.2155   78.3613 O   0  0  0  0  0  0  0  0  0  0  0  0
   -2.7521   12.1943   79.1418 C   0  0  0  0  0  0  0  0  0  0  0  0
   -2.1332   11.0173   79.5397 C   0  0  0  0  0  0  0  0  0  0  0  0
   -2.5252    9.8077   78.9491 C   0  0  0  0  0  0  0  0  0  0  0  0
   -3.7572   12.1522   78.1268 C   0  0  0  0  0  0  0  0  0  0  0  0
   -6.4802   13.3228   76.3468 H   0  0  0  0  0  0  0  0  0  0  0  0
    1.0604    6.6228   80.6485 C   0  0  0  0  0  0  0  0  0  0  0  0
    0.7918    5.2753   80.9389 O   0  0  0  0  0  0  0  0  0  0  0  0
   -0.6339    3.7532   83.1589 C   0  0  0  0  0  0  0  0  0  0  0  0
    0.0553    2.8749   82.1020 C   0  0  0  0  0  0  0  0  0  0  0  0
    0.1402    4.8631   83.7641 C   0  0  0  0  0  0  0  0  0  0  0  0
    1.6731    4.6705   81.7909 C   0  0  0  0  0  0  0  0  0  0  0  0
    1.4392    3.2157   81.7880 O   0  0  0  0  0  0  0  0  0  0  0  0
   -1.1783    2.9387   84.2355 O   0  0  0  0  0  0  0  0  0  0  0  0
   -0.7019    6.0556   83.7475 O   0  0  0  0  0  0  0  0  0  0  0  0
    1.4528    5.2109   83.1733 C   0  0  0  0  0  0  0  0  0  0  0  0
    2.5097    4.6918   84.0341 O   0  0  0  0  0  0  0  0  0  0  0  0
   -0.4516    2.5263   84.7281 H   0  0  0  0  0  0  0  0  0  0  0  0
   -0.8814    6.3118   82.8293 H   0  0  0  0  0  0  0  0  0  0  0  0
    2.4516    3.7242   84.0699 H   0  0  0  0  0  0  0  0  0  0  0  0
    0.0179    1.4199   82.5114 C   0  0  0  0  0  0  0  0  0  0  0  0
   -0.2941    0.5949   81.3325 O   0  0  0  0  0  0  0  0  0  0  0  0
   -1.1563    0.8570   80.9734 H   0  0  0  0  0  0  0  0  0  0  0  0
 21 22  1  0  0  0
 21 23  1  0  0  0
 21 26  1  0  0  0
 22 33  1  0  0  0
 22 25  1  0  0  0
 33 34  1  0  0  0
 23 27  1  0  0  0
 23 28  1  0  0  0
  6  7  2  0  0  0
  6 16  1  0  0  0
  7  8  1  0  0  0
  7 17  1  0  0  0
  8  9  2  0  0  0
  8 10  2  0  0  0
  8 11  1  0  0  0
 11 12  1  0  0  0
 12 13  2  0  0  0
 17 14  2  0  0  0
 14 15  1  0  0  0
 15 16  2  0  0  0
 16  1  1  0  0  0
  1  2  1  0  0  0
  1  3  1  0  0  0
  2  5  2  0  0  0
  3  4  2  0  0  0
  4  5  1  0  0  0
  5 19  1  0  0  0
 19 20  1  0  0  0
 20 24  1  0  0  0
 24 25  1  0  0  0
 24 28  1  0  0  0
 28 29  1  0  0  0
 12 17  1  0  0  0
 11 18  1  0  0  0
 34 35  1  0  0  0
 26 30  1  0  0  0
 27 31  1  0  0  0
 29 32  1  0  0  0
M  END
> <minimizedAffinity>
-7.46916

$$$$
4RIU_3QR_A_305


 35 38  0  0  0  0  0  0  0  0999 V2000
   -2.2228    8.6748   78.9521 N   0  0  0  0  0  0  0  0  0  0  0  0
   -0.8603    8.6387   78.9631 C   0  0  0  0  0  0  0  0  0  0  0  0
   -2.6857    7.5739   79.5132 N   0  0  0  0  0  0  0  0  0  0  0  0
   -1.6938    6.8052   79.9165 N   0  0  0  0  0  0  0  0  0  0  0  0
   -0.5083    7.4048   79.5973 C   0  0  0  0  0  0  0  0  0  0  0  0
   -2.9861   11.0328   78.8950 C   0  0  0  0  0  0  0  0  0  0  0  0
   -3.8027   12.0804   78.2812 C   0  0  0  0  0  0  0  0  0  0  0  0
   -4.0133   13.6838   78.6443 S   0  0  0  0  0  0  0  0  0  0  0  0
   -4.8059   13.8349   79.8696 O   0  0  0  0  0  0  0  0  0  0  0  0
   -2.7381   14.4000   78.7252 O   0  0  0  0  0  0  0  0  0  0  0  0
   -4.8773   14.2410   77.3995 N   0  0  0  0  0  0  0  0  0  0  0  0
   -5.4365   13.1328   76.7065 C   0  0  0  0  0  0  0  0  0  0  0  0
   -5.3895   13.2360   75.4470 O   0  0  0  0  0  0  0  0  0  0  0  0
   -4.5978   10.4358   76.6734 C   0  0  0  0  0  0  0  0  0  0  0  0
   -3.8245    9.4420   77.2573 C   0  0  0  0  0  0  0  0  0  0  0  0
   -3.0153    9.7649   78.3556 C   0  0  0  0  0  0  0  0  0  0  0  0
   -4.5700   11.7580   77.2150 C   0  0  0  0  0  0  0  0  0  0  0  0
   -4.9967   15.1885   77.1605 H   0  0  0  0  0  0  0  0  0  0  0  0
    0.9068    6.9010   79.8733 C   0  0  0  0  0  0  0  0  0  0  0  0
    0.8103    6.1866   81.0786 O   0  0  0  0  0  0  0  0  0  0  0  0
    0.7287    4.9119   83.8437 C   0  0  0  0  0  0  0  0  0  0  0  0
   -0.1152    4.2033   82.7717 C   0  0  0  0  0  0  0  0  0  0  0  0
    2.1338    5.2549   83.5191 C   0  0  0  0  0  0  0  0  0  0  0  0
    1.4832    4.9974   81.1127 C   0  0  0  0  0  0  0  0  0  0  0  0
    0.5582    3.9208   81.5081 O   0  0  0  0  0  0  0  0  0  0  0  0
    0.7205    4.1610   85.0907 O   0  0  0  0  0  0  0  0  0  0  0  0
    2.3615    6.6378   83.9278 O   0  0  0  0  0  0  0  0  0  0  0  0
    2.5914    5.1010   82.1192 C   0  0  0  0  0  0  0  0  0  0  0  0
    3.4057    3.8950   82.0191 O   0  0  0  0  0  0  0  0  0  0  0  0
    1.1836    3.3182   84.9636 H   0  0  0  0  0  0  0  0  0  0  0  0
    1.8031    7.2278   83.3977 H   0  0  0  0  0  0  0  0  0  0  0  0
    2.8643    3.1203   82.2373 H   0  0  0  0  0  0  0  0  0  0  0  0
   -0.6679    2.9004   83.3036 C   0  0  0  0  0  0  0  0  0  0  0  0
    0.2902    1.8187   83.0211 O   0  0  0  0  0  0  0  0  0  0  0  0
    0.4273    1.7502   82.0633 H   0  0  0  0  0  0  0  0  0  0  0  0
 21 22  1  0  0  0
 21 23  1  0  0  0
 21 26  1  0  0  0
 22 33  1  0  0  0
 22 25  1  0  0  0
 33 34  1  0  0  0
 23 27  1  0  0  0
 23 28  1  0  0  0
  6  7  2  0  0  0
  6 16  1  0  0  0
  7  8  1  0  0  0
  7 17  1  0  0  0
  8  9  2  0  0  0
  8 10  2  0  0  0
  8 11  1  0  0  0
 11 12  1  0  0  0
 12 13  2  0  0  0
 17 14  2  0  0  0
 14 15  1  0  0  0
 15 16  2  0  0  0
 16  1  1  0  0  0
  1  2  1  0  0  0
  1  3  1  0  0  0
  2  5  2  0  0  0
  3  4  2  0  0  0
  4  5  1  0  0  0
  5 19  1  0  0  0
 19 20  1  0  0  0
 20 24  1  0  0  0
 24 25  1  0  0  0
 24 28  1  0  0  0
 28 29  1  0  0  0
 12 17  1  0  0  0
 11 18  1  0  0  0
 34 35  1  0  0  0
 26 30  1  0  0  0
 27 31  1  0  0  0
 29 32  1  0  0  0
M  END
> <minimizedAffinity>
-7.33699

$$$$
4RIU_3QR_A_305


 35 38  0  0  0  0  0  0  0  0999 V2000
   -2.1694    8.7093   79.3613 N   0  0  0  0  0  0  0  0  0  0  0  0
   -0.9300    8.9042   79.8943 C   0  0  0  0  0  0  0  0  0  0  0  0
   -2.5332    7.4579   79.5679 N   0  0  0  0  0  0  0  0  0  0  0  0
   -1.5995    6.8057   80.2314 N   0  0  0  0  0  0  0  0  0  0  0  0
   -0.5506    7.6488   80.4675 C   0  0  0  0  0  0  0  0  0  0  0  0
   -2.9317   11.0504   79.0724 C   0  0  0  0  0  0  0  0  0  0  0  0
   -3.7136   12.0407   78.3314 C   0  0  0  0  0  0  0  0  0  0  0  0
   -3.9471   13.6667   78.5524 S   0  0  0  0  0  0  0  0  0  0  0  0
   -4.8086   13.9102   79.7148 O   0  0  0  0  0  0  0  0  0  0  0  0
   -2.6797   14.3948   78.6481 O   0  0  0  0  0  0  0  0  0  0  0  0
   -4.7394   14.1175   77.2200 N   0  0  0  0  0  0  0  0  0  0  0  0
   -5.2565   12.9541   76.5873 C   0  0  0  0  0  0  0  0  0  0  0  0
   -5.1379   12.9567   75.3283 O   0  0  0  0  0  0  0  0  0  0  0  0
   -4.4131   10.2683   76.8178 C   0  0  0  0  0  0  0  0  0  0  0  0
   -3.6729    9.3289   77.5223 C   0  0  0  0  0  0  0  0  0  0  0  0
   -2.9282    9.7435   78.6355 C   0  0  0  0  0  0  0  0  0  0  0  0
   -4.4184   11.6296   77.2526 C   0  0  0  0  0  0  0  0  0  0  0  0
   -4.8465   15.0422   76.8996 H   0  0  0  0  0  0  0  0  0  0  0  0
    0.7506    7.3493   81.2089 C   0  0  0  0  0  0  0  0  0  0  0  0
    0.4093    6.3800   82.1662 O   0  0  0  0  0  0  0  0  0  0  0  0
   -1.5110    4.9831   84.0736 C   0  0  0  0  0  0  0  0  0  0  0  0
   -0.0547    4.4948   84.1378 C   0  0  0  0  0  0  0  0  0  0  0  0
   -1.7662    6.4425   84.1257 C   0  0  0  0  0  0  0  0  0  0  0  0
    0.6342    6.7339   83.4672 C   0  0  0  0  0  0  0  0  0  0  0  0
    0.9654    5.5321   84.2528 O   0  0  0  0  0  0  0  0  0  0  0  0
   -2.3186    4.3435   85.1021 O   0  0  0  0  0  0  0  0  0  0  0  0
   -2.7161    6.7675   83.0658 O   0  0  0  0  0  0  0  0  0  0  0  0
   -0.6121    7.3639   84.0162 C   0  0  0  0  0  0  0  0  0  0  0  0
   -0.3043    7.8934   85.3399 O   0  0  0  0  0  0  0  0  0  0  0  0
   -2.0224    4.6403   85.9768 H   0  0  0  0  0  0  0  0  0  0  0  0
   -2.3115    6.5878   82.2027 H   0  0  0  0  0  0  0  0  0  0  0  0
   -0.0440    7.1661   85.9266 H   0  0  0  0  0  0  0  0  0  0  0  0
    0.1339    3.5301   85.2867 C   0  0  0  0  0  0  0  0  0  0  0  0
   -0.2074    2.1706   84.8362 O   0  0  0  0  0  0  0  0  0  0  0  0
   -1.1306    2.1506   84.5392 H   0  0  0  0  0  0  0  0  0  0  0  0
 21 22  1  0  0  0
 21 23  1  0  0  0
 21 26  1  0  0  0
 22 33  1  0  0  0
 22 25  1  0  0  0
 33 34  1  0  0  0
 23 27  1  0  0  0
 23 28  1  0  0  0
  6  7  2  0  0  0
  6 16  1  0  0  0
  7  8  1  0  0  0
  7 17  1  0  0  0
  8  9  2  0  0  0
  8 10  2  0  0  0
  8 11  1  0  0  0
 11 12  1  0  0  0
 12 13  2  0  0  0
 17 14  2  0  0  0
 14 15  1  0  0  0
 15 16  2  0  0  0
 16  1  1  0  0  0
  1  2  1  0  0  0
  1  3  1  0  0  0
  2  5  2  0  0  0
  3  4  2  0  0  0
  4  5  1  0  0  0
  5 19  1  0  0  0
 19 20  1  0  0  0
 20 24  1  0  0  0
 24 25  1  0  0  0
 24 28  1  0  0  0
 28 29  1  0  0  0
 12 17  1  0  0  0
 11 18  1  0  0  0
 34 35  1  0  0  0
 26 30  1  0  0  0
 27 31  1  0  0  0
 29 32  1  0  0  0
M  END
> <minimizedAffinity>
-7.18498

$$$$
4RIU_3QR_A_305


 35 38  0  0  0  0  0  0  0  0999 V2000
   -2.2881    8.9105   79.2507 N   0  0  0  0  0  0  0  0  0  0  0  0
   -0.9771    8.8268   79.6145 C   0  0  0  0  0  0  0  0  0  0  0  0
   -2.8571    7.7325   79.4223 N   0  0  0  0  0  0  0  0  0  0  0  0
   -1.9901    6.8629   79.9016 N   0  0  0  0  0  0  0  0  0  0  0  0
   -0.7772    7.4758   80.0427 C   0  0  0  0  0  0  0  0  0  0  0  0
   -3.8682   10.0463   77.7148 C   0  0  0  0  0  0  0  0  0  0  0  0
   -4.4554   11.2820   77.1957 C   0  0  0  0  0  0  0  0  0  0  0  0
   -5.5993   11.5671   76.0306 S   0  0  0  0  0  0  0  0  0  0  0  0
   -5.0494   11.3105   74.6948 O   0  0  0  0  0  0  0  0  0  0  0  0
   -6.8288   10.8083   76.2716 O   0  0  0  0  0  0  0  0  0  0  0  0
   -5.8939   13.1482   76.1718 N   0  0  0  0  0  0  0  0  0  0  0  0
   -4.8399   13.7383   76.9215 C   0  0  0  0  0  0  0  0  0  0  0  0
   -5.2270   14.5928   77.7696 O   0  0  0  0  0  0  0  0  0  0  0  0
   -3.0367   12.5302   78.7290 C   0  0  0  0  0  0  0  0  0  0  0  0
   -2.4786   11.3578   79.2196 C   0  0  0  0  0  0  0  0  0  0  0  0
   -2.9191   10.1280   78.7106 C   0  0  0  0  0  0  0  0  0  0  0  0
   -4.0297   12.4611   77.7036 C   0  0  0  0  0  0  0  0  0  0  0  0
   -6.6723   13.6236   75.8012 H   0  0  0  0  0  0  0  0  0  0  0  0
    0.5252    6.8775   80.5705 C   0  0  0  0  0  0  0  0  0  0  0  0
    0.1508    6.1273   81.6972 O   0  0  0  0  0  0  0  0  0  0  0  0
   -1.5464    5.1280   84.0206 C   0  0  0  0  0  0  0  0  0  0  0  0
   -0.1336    4.5276   83.9371 C   0  0  0  0  0  0  0  0  0  0  0  0
   -1.6917    6.6000   83.9239 C   0  0  0  0  0  0  0  0  0  0  0  0
    0.5946    6.6077   82.8974 C   0  0  0  0  0  0  0  0  0  0  0  0
    0.9597    5.4803   83.7730 O   0  0  0  0  0  0  0  0  0  0  0  0
   -2.2292    4.6821   85.2264 O   0  0  0  0  0  0  0  0  0  0  0  0
   -2.7679    6.8811   82.9782 O   0  0  0  0  0  0  0  0  0  0  0  0
   -0.5083    7.4008   83.5350 C   0  0  0  0  0  0  0  0  0  0  0  0
    0.0326    8.0507   84.7235 O   0  0  0  0  0  0  0  0  0  0  0  0
   -1.7839    5.0510   86.0053 H   0  0  0  0  0  0  0  0  0  0  0  0
   -2.5125    6.5696   82.0958 H   0  0  0  0  0  0  0  0  0  0  0  0
    0.3296    7.3760   85.3540 H   0  0  0  0  0  0  0  0  0  0  0  0
    0.1623    3.6888   85.1597 C   0  0  0  0  0  0  0  0  0  0  0  0
   -0.2402    2.2968   84.8987 O   0  0  0  0  0  0  0  0  0  0  0  0
   -1.1895    2.2662   84.7018 H   0  0  0  0  0  0  0  0  0  0  0  0
 21 22  1  0  0  0
 21 23  1  0  0  0
 21 26  1  0  0  0
 22 33  1  0  0  0
 22 25  1  0  0  0
 33 34  1  0  0  0
 23 27  1  0  0  0
 23 28  1  0  0  0
  6  7  2  0  0  0
  6 16  1  0  0  0
  7  8  1  0  0  0
  7 17  1  0  0  0
  8  9  2  0  0  0
  8 10  2  0  0  0
  8 11  1  0  0  0
 11 12  1  0  0  0
 12 13  2  0  0  0
 17 14  2  0  0  0
 14 15  1  0  0  0
 15 16  2  0  0  0
 16  1  1  0  0  0
  1  2  1  0  0  0
  1  3  1  0  0  0
  2  5  2  0  0  0
  3  4  2  0  0  0
  4  5  1  0  0  0
  5 19  1  0  0  0
 19 20  1  0  0  0
 20 24  1  0  0  0
 24 25  1  0  0  0
 24 28  1  0  0  0
 28 29  1  0  0  0
 12 17  1  0  0  0
 11 18  1  0  0  0
 34 35  1  0  0  0
 26 30  1  0  0  0
 27 31  1  0  0  0
 29 32  1  0  0  0
M  END
> <minimizedAffinity>
-7.09206

$$$$
4RIU_3QR_A_305


 35 38  0  0  0  0  0  0  0  0999 V2000
   -1.5437    6.7228   83.8773 N   0  0  0  0  0  0  0  0  0  0  0  0
   -0.8521    7.4028   82.9194 C   0  0  0  0  0  0  0  0  0  0  0  0
   -2.4827    7.5092   84.3680 N   0  0  0  0  0  0  0  0  0  0  0  0
   -2.4644    8.6841   83.7706 N   0  0  0  0  0  0  0  0  0  0  0  0
   -1.4564    8.6983   82.8483 C   0  0  0  0  0  0  0  0  0  0  0  0
   -1.9697    4.7287   85.2871 C   0  0  0  0  0  0  0  0  0  0  0  0
   -1.6118    3.3684   85.6902 C   0  0  0  0  0  0  0  0  0  0  0  0
   -2.2601    2.3321   86.8096 S   0  0  0  0  0  0  0  0  0  0  0  0
   -1.9430    2.7795   88.1704 O   0  0  0  0  0  0  0  0  0  0  0  0
   -3.7001    2.1463   86.6158 O   0  0  0  0  0  0  0  0  0  0  0  0
   -1.4853    0.9436   86.5298 N   0  0  0  0  0  0  0  0  0  0  0  0
   -0.3305    1.2209   85.7483 C   0  0  0  0  0  0  0  0  0  0  0  0
   -0.1203    0.3830   84.8248 O   0  0  0  0  0  0  0  0  0  0  0  0
    0.2094    3.4333   84.0774 C   0  0  0  0  0  0  0  0  0  0  0  0
   -0.1294    4.7244   83.6968 C   0  0  0  0  0  0  0  0  0  0  0  0
   -1.2301    5.3469   84.3021 C   0  0  0  0  0  0  0  0  0  0  0  0
   -0.5547    2.7752   85.0901 C   0  0  0  0  0  0  0  0  0  0  0  0
   -1.7654    0.0547   86.8469 H   0  0  0  0  0  0  0  0  0  0  0  0
   -1.0563    9.8327   81.9072 C   0  0  0  0  0  0  0  0  0  0  0  0
   -1.6747    9.5262   80.6841 O   0  0  0  0  0  0  0  0  0  0  0  0
   -2.5397   10.2040   77.8434 C   0  0  0  0  0  0  0  0  0  0  0  0
   -1.2278   10.8613   78.3019 C   0  0  0  0  0  0  0  0  0  0  0  0
   -2.7083    8.7468   78.0572 C   0  0  0  0  0  0  0  0  0  0  0  0
   -0.8704    8.9347   79.7506 C   0  0  0  0  0  0  0  0  0  0  0  0
   -0.2443    9.9728   78.9131 O   0  0  0  0  0  0  0  0  0  0  0  0
   -2.8009   10.4907   76.4403 O   0  0  0  0  0  0  0  0  0  0  0  0
   -4.0304    8.5310   78.6376 O   0  0  0  0  0  0  0  0  0  0  0  0
   -1.7114    8.0371   78.8911 C   0  0  0  0  0  0  0  0  0  0  0  0
   -0.8188    7.2821   78.0189 O   0  0  0  0  0  0  0  0  0  0  0  0
   -2.1299   10.0559   75.8911 H   0  0  0  0  0  0  0  0  0  0  0  0
   -4.0706    8.9458   79.5135 H   0  0  0  0  0  0  0  0  0  0  0  0
   -0.3358    7.8945   77.4424 H   0  0  0  0  0  0  0  0  0  0  0  0
   -0.5564   11.5724   77.1489 C   0  0  0  0  0  0  0  0  0  0  0  0
    0.1132   10.5789   76.2932 O   0  0  0  0  0  0  0  0  0  0  0  0
    0.7763   10.0987   76.8133 H   0  0  0  0  0  0  0  0  0  0  0  0
 21 22  1  0  0  0
 21 23  1  0  0  0
 21 26  1  0  0  0
 22 33  1  0  0  0
 22 25  1  0  0  0
 33 34  1  0  0  0
 23 27  1  0  0  0
 23 28  1  0  0  0
  6  7  2  0  0  0
  6 16  1  0  0  0
  7  8  1  0  0  0
  7 17  1  0  0  0
  8  9  2  0  0  0
  8 10  2  0  0  0
  8 11  1  0  0  0
 11 12  1  0  0  0
 12 13  2  0  0  0
 17 14  2  0  0  0
 14 15  1  0  0  0
 15 16  2  0  0  0
 16  1  1  0  0  0
  1  2  1  0  0  0
  1  3  1  0  0  0
  2  5  2  0  0  0
  3  4  2  0  0  0
  4  5  1  0  0  0
  5 19  1  0  0  0
 19 20  1  0  0  0
 20 24  1  0  0  0
 24 25  1  0  0  0
 24 28  1  0  0  0
 28 29  1  0  0  0
 12 17  1  0  0  0
 11 18  1  0  0  0
 34 35  1  0  0  0
 26 30  1  0  0  0
 27 31  1  0  0  0
 29 32  1  0  0  0
M  END
> <minimizedAffinity>
-7.06705

$$$$
4RIU_3QR_A_305


 35 38  0  0  0  0  0  0  0  0999 V2000
   -1.5763    6.4680   83.6435 N   0  0  0  0  0  0  0  0  0  0  0  0
   -0.7152    7.5230   83.7033 C   0  0  0  0  0  0  0  0  0  0  0  0
   -2.7066    6.8676   83.0922 N   0  0  0  0  0  0  0  0  0  0  0  0
   -2.6382    8.1422   82.7630 N   0  0  0  0  0  0  0  0  0  0  0  0
   -1.4142    8.6298   83.1246 C   0  0  0  0  0  0  0  0  0  0  0  0
   -2.0231    4.5798   85.1864 C   0  0  0  0  0  0  0  0  0  0  0  0
   -1.6752    3.2495   85.6867 C   0  0  0  0  0  0  0  0  0  0  0  0
   -2.3372    2.2974   86.8711 S   0  0  0  0  0  0  0  0  0  0  0  0
   -2.0278    2.8378   88.1995 O   0  0  0  0  0  0  0  0  0  0  0  0
   -3.7766    2.1052   86.6797 O   0  0  0  0  0  0  0  0  0  0  0  0
   -1.5676    0.8891   86.6954 N   0  0  0  0  0  0  0  0  0  0  0  0
   -0.4056    1.1054   85.9053 C   0  0  0  0  0  0  0  0  0  0  0  0
   -0.1930    0.2037   85.0445 O   0  0  0  0  0  0  0  0  0  0  0  0
    0.1580    3.1925   84.0874 C   0  0  0  0  0  0  0  0  0  0  0  0
   -0.1711    4.4553   83.6146 C   0  0  0  0  0  0  0  0  0  0  0  0
   -1.2731    5.1238   84.1662 C   0  0  0  0  0  0  0  0  0  0  0  0
   -0.6169    2.6107   85.1379 C   0  0  0  0  0  0  0  0  0  0  0  0
   -1.8546    0.0259   87.0719 H   0  0  0  0  0  0  0  0  0  0  0  0
   -0.8705   10.0446   82.9364 C   0  0  0  0  0  0  0  0  0  0  0  0
    0.5258    9.8971   82.9075 O   0  0  0  0  0  0  0  0  0  0  0  0
    3.2831   10.9938   82.2205 C   0  0  0  0  0  0  0  0  0  0  0  0
    2.2426   12.0493   82.6290 C   0  0  0  0  0  0  0  0  0  0  0  0
    3.4475    9.7985   83.0817 C   0  0  0  0  0  0  0  0  0  0  0  0
    1.1875   10.3462   84.0161 C   0  0  0  0  0  0  0  0  0  0  0  0
    1.5000   11.7771   83.8555 O   0  0  0  0  0  0  0  0  0  0  0  0
    4.5923   11.6016   82.0319 O   0  0  0  0  0  0  0  0  0  0  0  0
    3.4629    8.6232   82.2157 O   0  0  0  0  0  0  0  0  0  0  0  0
    2.4622    9.5681   84.1629 C   0  0  0  0  0  0  0  0  0  0  0  0
    3.0682    9.9322   85.4387 O   0  0  0  0  0  0  0  0  0  0  0  0
    4.9248   11.9242   82.8841 H   0  0  0  0  0  0  0  0  0  0  0  0
    2.6020    8.5328   81.7780 H   0  0  0  0  0  0  0  0  0  0  0  0
    3.2844   10.8778   85.4358 H   0  0  0  0  0  0  0  0  0  0  0  0
    2.8895   13.4084   82.7709 C   0  0  0  0  0  0  0  0  0  0  0  0
    3.5439   13.4963   84.0869 O   0  0  0  0  0  0  0  0  0  0  0  0
    2.8826   13.3732   84.7857 H   0  0  0  0  0  0  0  0  0  0  0  0
 21 22  1  0  0  0
 21 23  1  0  0  0
 21 26  1  0  0  0
 22 33  1  0  0  0
 22 25  1  0  0  0
 33 34  1  0  0  0
 23 27  1  0  0  0
 23 28  1  0  0  0
  6  7  2  0  0  0
  6 16  1  0  0  0
  7  8  1  0  0  0
  7 17  1  0  0  0
  8  9  2  0  0  0
  8 10  2  0  0  0
  8 11  1  0  0  0
 11 12  1  0  0  0
 12 13  2  0  0  0
 17 14  2  0  0  0
 14 15  1  0  0  0
 15 16  2  0  0  0
 16  1  1  0  0  0
  1  2  1  0  0  0
  1  3  1  0  0  0
  2  5  2  0  0  0
  3  4  2  0  0  0
  4  5  1  0  0  0
  5 19  1  0  0  0
 19 20  1  0  0  0
 20 24  1  0  0  0
 24 25  1  0  0  0
 24 28  1  0  0  0
 28 29  1  0  0  0
 12 17  1  0  0  0
 11 18  1  0  0  0
 34 35  1  0  0  0
 26 30  1  0  0  0
 27 31  1  0  0  0
 29 32  1  0  0  0
M  END
> <minimizedAffinity>
-7.05840

$$$$
