4RD3_GDP_A_502


 36 38  0  0  0  0  0  0  0  0999 V2000
  -33.4363  -21.6752   19.5529 C   0  0  0  0  0  0  0  0  0  0  0  0
  -33.0707  -22.5742   18.5076 O   0  0  0  0  0  0  0  0  0  0  0  0
  -33.2042  -22.4183   20.8506 C   0  0  0  0  0  0  0  0  0  0  0  0
  -34.4617  -22.9331   21.2917 O   0  0  0  0  0  0  0  0  0  0  0  0
  -32.2846  -23.5528   20.4429 C   0  0  0  0  0  0  0  0  0  0  0  0
  -32.2952  -24.6676   21.3525 O   0  0  0  0  0  0  0  0  0  0  0  0
  -32.7826  -23.8595   19.0366 C   0  0  0  0  0  0  0  0  0  0  0  0
  -34.8525  -23.4769   20.5899 H   0  0  0  0  0  0  0  0  0  0  0  0
  -33.1989  -25.0108   21.4328 H   0  0  0  0  0  0  0  0  0  0  0  0
  -31.7043  -24.4927   18.2600 N   0  0  0  0  0  0  0  0  0  0  0  0
  -30.4194  -24.0853   18.1898 C   0  0  0  0  0  0  0  0  0  0  0  0
  -29.6917  -24.9076   17.3943 N   0  0  0  0  0  0  0  0  0  0  0  0
  -30.5297  -25.8635   16.9490 C   0  0  0  0  0  0  0  0  0  0  0  0
  -30.4200  -27.0454   16.0737 C   0  0  0  0  0  0  0  0  0  0  0  0
  -29.3231  -27.3415   15.5632 O   0  0  0  0  0  0  0  0  0  0  0  0
  -31.5221  -27.7753   15.8604 N   0  0  0  0  0  0  0  0  0  0  0  0
  -32.7111  -27.4709   16.4229 C   0  0  0  0  0  0  0  0  0  0  0  0
  -33.7867  -28.2553   16.1606 N   0  0  0  0  0  0  0  0  0  0  0  0
  -32.8841  -26.4009   17.2406 N   0  0  0  0  0  0  0  0  0  0  0  0
  -31.8510  -25.5851   17.5253 C   0  0  0  0  0  0  0  0  0  0  0  0
  -31.4632  -28.5624   15.2720 H   0  0  0  0  0  0  0  0  0  0  0  0
  -33.6929  -29.0384   15.5714 H   0  0  0  0  0  0  0  0  0  0  0  0
  -34.6610  -28.0412   16.5594 H   0  0  0  0  0  0  0  0  0  0  0  0
  -32.5734  -20.4261   19.4857 C   0  0  0  0  0  0  0  0  0  0  0  0
  -31.7935  -20.2970   20.6797 O   0  0  0  0  0  0  0  0  0  0  0  0
  -30.4798  -19.3784   20.6097 P   0  0  0  0  0  0  0  0  0  0  0  0
  -29.2805  -20.2017   20.2766 O   0  0  0  0  0  0  0  0  0  0  0  0
  -30.3413  -18.5123   21.8295 O   0  0  0  0  0  0  0  0  0  0  0  0
  -29.5391  -17.9723   21.7533 H   0  0  0  0  0  0  0  0  0  0  0  0
  -30.8984  -18.5454   19.2844 O   0  0  0  0  0  0  0  0  0  0  0  0
  -30.1301  -17.2424   18.7842 P   0  0  0  0  0  0  0  0  0  0  0  0
  -29.8675  -17.3240   17.3050 O   0  0  0  0  0  0  0  0  0  0  0  0
  -28.7905  -17.2602   19.5094 O   0  0  0  0  0  0  0  0  0  0  0  0
  -30.9028  -15.9939   19.1292 O   0  0  0  0  0  0  0  0  0  0  0  0
  -28.2698  -16.4854   19.2459 H   0  0  0  0  0  0  0  0  0  0  0  0
  -30.4164  -15.2155   18.8154 H   0  0  0  0  0  0  0  0  0  0  0  0
 31 32  2  0  0  0
 31 33  1  0  0  0
 31 34  1  0  0  0
 31 30  1  0  0  0
 30 26  1  0  0  0
 26 27  2  0  0  0
 26 28  1  0  0  0
 26 25  1  0  0  0
 25 24  1  0  0  0
 24  1  1  0  0  0
  1  2  1  0  0  0
  1  3  1  0  0  0
  2  7  1  0  0  0
  3  4  1  0  0  0
  3  5  1  0  0  0
  5  6  1  0  0  0
  5  7  1  0  0  0
  7 10  1  0  0  0
 10 11  1  0  0  0
 10 20  1  0  0  0
 11 12  2  0  0  0
 12 13  1  0  0  0
 13 14  1  0  0  0
 13 20  2  0  0  0
 14 15  2  0  0  0
 14 16  1  0  0  0
 16 17  1  0  0  0
 17 18  1  0  0  0
 17 19  2  0  0  0
 19 20  1  0  0  0
 33 35  1  0  0  0
 34 36  1  0  0  0
 28 29  1  0  0  0
  4  8  1  0  0  0
  6  9  1  0  0  0
 16 21  1  0  0  0
 18 22  1  0  0  0
 18 23  1  0  0  0
M  END
> <minimizedAffinity>
-10.99109

$$$$
4RD3_GDP_A_502


 36 38  0  0  0  0  0  0  0  0999 V2000
  -32.4879  -20.8135   19.3145 C   0  0  0  0  0  0  0  0  0  0  0  0
  -32.2479  -21.7566   18.2717 O   0  0  0  0  0  0  0  0  0  0  0  0
  -32.5910  -21.6146   20.5942 C   0  0  0  0  0  0  0  0  0  0  0  0
  -33.9775  -21.8016   20.8834 O   0  0  0  0  0  0  0  0  0  0  0  0
  -31.9461  -22.9376   20.2301 C   0  0  0  0  0  0  0  0  0  0  0  0
  -32.3338  -24.0296   21.0830 O   0  0  0  0  0  0  0  0  0  0  0  0
  -32.3497  -23.0823   18.7686 C   0  0  0  0  0  0  0  0  0  0  0  0
  -34.4136  -22.2156   20.1223 H   0  0  0  0  0  0  0  0  0  0  0  0
  -33.2979  -24.1338   21.0568 H   0  0  0  0  0  0  0  0  0  0  0  0
  -31.3867  -23.9540   18.0762 N   0  0  0  0  0  0  0  0  0  0  0  0
  -30.0602  -23.7410   17.9458 C   0  0  0  0  0  0  0  0  0  0  0  0
  -29.4706  -24.7523   17.2616 N   0  0  0  0  0  0  0  0  0  0  0  0
  -30.4416  -25.6327   16.9509 C   0  0  0  0  0  0  0  0  0  0  0  0
  -30.5150  -26.9220   16.2383 C   0  0  0  0  0  0  0  0  0  0  0  0
  -29.4812  -27.4307   15.7652 O   0  0  0  0  0  0  0  0  0  0  0  0
  -31.7111  -27.5137   16.1293 N   0  0  0  0  0  0  0  0  0  0  0  0
  -32.8338  -26.9773   16.6534 C   0  0  0  0  0  0  0  0  0  0  0  0
  -34.0123  -27.6325   16.5027 N   0  0  0  0  0  0  0  0  0  0  0  0
  -32.8397  -25.7966   17.3238 N   0  0  0  0  0  0  0  0  0  0  0  0
  -31.6984  -25.1017   17.4927 C   0  0  0  0  0  0  0  0  0  0  0  0
  -31.7743  -28.3710   15.6495 H   0  0  0  0  0  0  0  0  0  0  0  0
  -34.0403  -28.4909   16.0214 H   0  0  0  0  0  0  0  0  0  0  0  0
  -34.8395  -27.2496   16.8747 H   0  0  0  0  0  0  0  0  0  0  0  0
  -31.3378  -19.8230   19.3904 C   0  0  0  0  0  0  0  0  0  0  0  0
  -31.6044  -18.8283   20.3854 O   0  0  0  0  0  0  0  0  0  0  0  0
  -30.8902  -17.4016   20.2155 P   0  0  0  0  0  0  0  0  0  0  0  0
  -31.7045  -16.5076   19.3410 O   0  0  0  0  0  0  0  0  0  0  0  0
  -29.4489  -17.5453   19.8166 O   0  0  0  0  0  0  0  0  0  0  0  0
  -29.0500  -16.6660   19.7233 H   0  0  0  0  0  0  0  0  0  0  0  0
  -31.0784  -16.9091   21.7476 O   0  0  0  0  0  0  0  0  0  0  0  0
  -30.3229  -17.5710   22.9844 P   0  0  0  0  0  0  0  0  0  0  0  0
  -29.3698  -16.5860   23.6048 O   0  0  0  0  0  0  0  0  0  0  0  0
  -29.5102  -18.7167   22.3949 O   0  0  0  0  0  0  0  0  0  0  0  0
  -31.3066  -18.0889   24.0039 O   0  0  0  0  0  0  0  0  0  0  0  0
  -29.0221  -19.1648   23.1033 H   0  0  0  0  0  0  0  0  0  0  0  0
  -30.8242  -18.4864   24.7457 H   0  0  0  0  0  0  0  0  0  0  0  0
 31 32  2  0  0  0
 31 33  1  0  0  0
 31 34  1  0  0  0
 31 30  1  0  0  0
 30 26  1  0  0  0
 26 27  2  0  0  0
 26 28  1  0  0  0
 26 25  1  0  0  0
 25 24  1  0  0  0
 24  1  1  0  0  0
  1  2  1  0  0  0
  1  3  1  0  0  0
  2  7  1  0  0  0
  3  4  1  0  0  0
  3  5  1  0  0  0
  5  6  1  0  0  0
  5  7  1  0  0  0
  7 10  1  0  0  0
 10 11  1  0  0  0
 10 20  1  0  0  0
 11 12  2  0  0  0
 12 13  1  0  0  0
 13 14  1  0  0  0
 13 20  2  0  0  0
 14 15  2  0  0  0
 14 16  1  0  0  0
 16 17  1  0  0  0
 17 18  1  0  0  0
 17 19  2  0  0  0
 19 20  1  0  0  0
 33 35  1  0  0  0
 34 36  1  0  0  0
 28 29  1  0  0  0
  4  8  1  0  0  0
  6  9  1  0  0  0
 16 21  1  0  0  0
 18 22  1  0  0  0
 18 23  1  0  0  0
M  END
> <minimizedAffinity>
-8.89281

$$$$
4RD3_GDP_A_502


 36 38  0  0  0  0  0  0  0  0999 V2000
  -33.8742  -20.1715   21.2339 C   0  0  0  0  0  0  0  0  0  0  0  0
  -33.4724  -20.7742   20.0053 O   0  0  0  0  0  0  0  0  0  0  0  0
  -34.1349  -21.3087   22.1978 C   0  0  0  0  0  0  0  0  0  0  0  0
  -35.5436  -21.5450   22.2257 O   0  0  0  0  0  0  0  0  0  0  0  0
  -33.4172  -22.4803   21.5568 C   0  0  0  0  0  0  0  0  0  0  0  0
  -33.8945  -23.7658   21.9926 O   0  0  0  0  0  0  0  0  0  0  0  0
  -33.6125  -22.1849   20.0754 C   0  0  0  0  0  0  0  0  0  0  0  0
  -35.8616  -21.7107   21.3245 H   0  0  0  0  0  0  0  0  0  0  0  0
  -34.8433  -23.8392   21.8044 H   0  0  0  0  0  0  0  0  0  0  0  0
  -32.5444  -22.8355   19.2990 N   0  0  0  0  0  0  0  0  0  0  0  0
  -31.2802  -22.3896   19.1421 C   0  0  0  0  0  0  0  0  0  0  0  0
  -30.5557  -23.2423   18.3763 N   0  0  0  0  0  0  0  0  0  0  0  0
  -31.3746  -24.2572   18.0391 C   0  0  0  0  0  0  0  0  0  0  0  0
  -31.2567  -25.4959   17.2473 C   0  0  0  0  0  0  0  0  0  0  0  0
  -30.1717  -25.7902   16.7109 O   0  0  0  0  0  0  0  0  0  0  0  0
  -32.3380  -26.2777   17.1367 N   0  0  0  0  0  0  0  0  0  0  0  0
  -33.5131  -25.9746   17.7285 C   0  0  0  0  0  0  0  0  0  0  0  0
  -34.5681  -26.8133   17.5718 N   0  0  0  0  0  0  0  0  0  0  0  0
  -33.6923  -24.8538   18.4737 N   0  0  0  0  0  0  0  0  0  0  0  0
  -32.6800  -23.9836   18.6523 C   0  0  0  0  0  0  0  0  0  0  0  0
  -32.2740  -27.1036   16.6046 H   0  0  0  0  0  0  0  0  0  0  0  0
  -34.4693  -27.6340   17.0371 H   0  0  0  0  0  0  0  0  0  0  0  0
  -35.4323  -26.6012   17.9929 H   0  0  0  0  0  0  0  0  0  0  0  0
  -32.7676  -19.2685   21.7530 C   0  0  0  0  0  0  0  0  0  0  0  0
  -32.1572  -18.5585   20.6695 O   0  0  0  0  0  0  0  0  0  0  0  0
  -31.6815  -17.0515   20.9470 P   0  0  0  0  0  0  0  0  0  0  0  0
  -30.5319  -17.0305   21.8984 O   0  0  0  0  0  0  0  0  0  0  0  0
  -32.8351  -16.1639   21.3193 O   0  0  0  0  0  0  0  0  0  0  0  0
  -32.5117  -15.2635   21.4794 H   0  0  0  0  0  0  0  0  0  0  0  0
  -31.1066  -16.7550   19.4614 O   0  0  0  0  0  0  0  0  0  0  0  0
  -29.8122  -17.4635   18.8605 P   0  0  0  0  0  0  0  0  0  0  0  0
  -28.5783  -16.6688   19.1914 O   0  0  0  0  0  0  0  0  0  0  0  0
  -30.0045  -17.4414   17.3495 O   0  0  0  0  0  0  0  0  0  0  0  0
  -29.6926  -18.8822   19.3586 O   0  0  0  0  0  0  0  0  0  0  0  0
  -29.2431  -17.8621   16.9204 H   0  0  0  0  0  0  0  0  0  0  0  0
  -28.8991  -19.2920   18.9802 H   0  0  0  0  0  0  0  0  0  0  0  0
 31 32  2  0  0  0
 31 33  1  0  0  0
 31 34  1  0  0  0
 31 30  1  0  0  0
 30 26  1  0  0  0
 26 27  2  0  0  0
 26 28  1  0  0  0
 26 25  1  0  0  0
 25 24  1  0  0  0
 24  1  1  0  0  0
  1  2  1  0  0  0
  1  3  1  0  0  0
  2  7  1  0  0  0
  3  4  1  0  0  0
  3  5  1  0  0  0
  5  6  1  0  0  0
  5  7  1  0  0  0
  7 10  1  0  0  0
 10 11  1  0  0  0
 10 20  1  0  0  0
 11 12  2  0  0  0
 12 13  1  0  0  0
 13 14  1  0  0  0
 13 20  2  0  0  0
 14 15  2  0  0  0
 14 16  1  0  0  0
 16 17  1  0  0  0
 17 18  1  0  0  0
 17 19  2  0  0  0
 19 20  1  0  0  0
 33 35  1  0  0  0
 34 36  1  0  0  0
 28 29  1  0  0  0
  4  8  1  0  0  0
  6  9  1  0  0  0
 16 21  1  0  0  0
 18 22  1  0  0  0
 18 23  1  0  0  0
M  END
> <minimizedAffinity>
-8.33901

$$$$
4RD3_GDP_A_502


 36 38  0  0  0  0  0  0  0  0999 V2000
  -31.7173  -20.5426   19.6075 C   0  0  0  0  0  0  0  0  0  0  0  0
  -31.4156  -21.7316   20.3352 O   0  0  0  0  0  0  0  0  0  0  0  0
  -33.1974  -20.2926   19.8000 C   0  0  0  0  0  0  0  0  0  0  0  0
  -33.8789  -20.7868   18.6458 O   0  0  0  0  0  0  0  0  0  0  0  0
  -33.5381  -21.1352   21.0136 C   0  0  0  0  0  0  0  0  0  0  0  0
  -34.9348  -21.4631   21.1224 O   0  0  0  0  0  0  0  0  0  0  0  0
  -32.6057  -22.3256   20.8307 C   0  0  0  0  0  0  0  0  0  0  0  0
  -33.6505  -21.7197   18.5102 H   0  0  0  0  0  0  0  0  0  0  0  0
  -35.2193  -21.9349   20.3240 H   0  0  0  0  0  0  0  0  0  0  0  0
  -32.3480  -22.9539   22.1367 N   0  0  0  0  0  0  0  0  0  0  0  0
  -31.7556  -22.3760   23.2029 C   0  0  0  0  0  0  0  0  0  0  0  0
  -31.6914  -23.2365   24.2488 N   0  0  0  0  0  0  0  0  0  0  0  0
  -32.2583  -24.3889   23.8426 C   0  0  0  0  0  0  0  0  0  0  0  0
  -32.5236  -25.7093   24.4439 C   0  0  0  0  0  0  0  0  0  0  0  0
  -32.1913  -25.9335   25.6232 O   0  0  0  0  0  0  0  0  0  0  0  0
  -33.1293  -26.6345   23.6890 N   0  0  0  0  0  0  0  0  0  0  0  0
  -33.5076  -26.3943   22.4155 C   0  0  0  0  0  0  0  0  0  0  0  0
  -34.1157  -27.3804   21.7092 N   0  0  0  0  0  0  0  0  0  0  0  0
  -33.2982  -25.2024   21.7996 N   0  0  0  0  0  0  0  0  0  0  0  0
  -32.6901  -24.1939   22.4531 C   0  0  0  0  0  0  0  0  0  0  0  0
  -33.3052  -27.5221   24.0768 H   0  0  0  0  0  0  0  0  0  0  0  0
  -34.2813  -28.2557   22.1283 H   0  0  0  0  0  0  0  0  0  0  0  0
  -34.3912  -27.2206   20.7776 H   0  0  0  0  0  0  0  0  0  0  0  0
  -30.9000  -19.3824   20.1511 C   0  0  0  0  0  0  0  0  0  0  0  0
  -31.2816  -18.1618   19.5069 O   0  0  0  0  0  0  0  0  0  0  0  0
  -30.1129  -17.2600   18.8782 P   0  0  0  0  0  0  0  0  0  0  0  0
  -29.9739  -17.5251   17.4162 O   0  0  0  0  0  0  0  0  0  0  0  0
  -28.8409  -17.3668   19.6706 O   0  0  0  0  0  0  0  0  0  0  0  0
  -28.1585  -16.8106   19.2632 H   0  0  0  0  0  0  0  0  0  0  0  0
  -30.8548  -15.8309   19.0590 O   0  0  0  0  0  0  0  0  0  0  0  0
  -31.3460  -15.2654   20.4652 P   0  0  0  0  0  0  0  0  0  0  0  0
  -31.0041  -13.8057   20.5917 O   0  0  0  0  0  0  0  0  0  0  0  0
  -30.5493  -16.0355   21.5106 O   0  0  0  0  0  0  0  0  0  0  0  0
  -32.8251  -15.4936   20.6522 O   0  0  0  0  0  0  0  0  0  0  0  0
  -30.8041  -15.7353   22.3971 H   0  0  0  0  0  0  0  0  0  0  0  0
  -33.1002  -15.1418   21.5133 H   0  0  0  0  0  0  0  0  0  0  0  0
 31 32  2  0  0  0
 31 33  1  0  0  0
 31 34  1  0  0  0
 31 30  1  0  0  0
 30 26  1  0  0  0
 26 27  2  0  0  0
 26 28  1  0  0  0
 26 25  1  0  0  0
 25 24  1  0  0  0
 24  1  1  0  0  0
  1  2  1  0  0  0
  1  3  1  0  0  0
  2  7  1  0  0  0
  3  4  1  0  0  0
  3  5  1  0  0  0
  5  6  1  0  0  0
  5  7  1  0  0  0
  7 10  1  0  0  0
 10 11  1  0  0  0
 10 20  1  0  0  0
 11 12  2  0  0  0
 12 13  1  0  0  0
 13 14  1  0  0  0
 13 20  2  0  0  0
 14 15  2  0  0  0
 14 16  1  0  0  0
 16 17  1  0  0  0
 17 18  1  0  0  0
 17 19  2  0  0  0
 19 20  1  0  0  0
 33 35  1  0  0  0
 34 36  1  0  0  0
 28 29  1  0  0  0
  4  8  1  0  0  0
  6  9  1  0  0  0
 16 21  1  0  0  0
 18 22  1  0  0  0
 18 23  1  0  0  0
M  END
> <minimizedAffinity>
-8.23868

$$$$
4RD3_GDP_A_502


 36 38  0  0  0  0  0  0  0  0999 V2000
  -31.4915  -20.6611   20.8760 C   0  0  0  0  0  0  0  0  0  0  0  0
  -31.7188  -22.0493   21.1116 O   0  0  0  0  0  0  0  0  0  0  0  0
  -32.3680  -20.2819   19.7021 C   0  0  0  0  0  0  0  0  0  0  0  0
  -31.5535  -20.2846   18.5284 O   0  0  0  0  0  0  0  0  0  0  0  0
  -33.3793  -21.4099   19.6436 C   0  0  0  0  0  0  0  0  0  0  0  0
  -34.0145  -21.5578   18.3610 O   0  0  0  0  0  0  0  0  0  0  0  0
  -32.5379  -22.5983   20.0905 C   0  0  0  0  0  0  0  0  0  0  0  0
  -31.1221  -21.1485   18.4361 H   0  0  0  0  0  0  0  0  0  0  0  0
  -33.3391  -21.7076   17.6811 H   0  0  0  0  0  0  0  0  0  0  0  0
  -33.4147  -23.6378   20.6538 N   0  0  0  0  0  0  0  0  0  0  0  0
  -33.9425  -23.6567   21.8960 C   0  0  0  0  0  0  0  0  0  0  0  0
  -34.7163  -24.7550   22.0786 N   0  0  0  0  0  0  0  0  0  0  0  0
  -34.6848  -25.4517   20.9262 C   0  0  0  0  0  0  0  0  0  0  0  0
  -35.2798  -26.7065   20.4296 C   0  0  0  0  0  0  0  0  0  0  0  0
  -36.0246  -27.3770   21.1695 O   0  0  0  0  0  0  0  0  0  0  0  0
  -34.9986  -27.0838   19.1761 N   0  0  0  0  0  0  0  0  0  0  0  0
  -34.2057  -26.3546   18.3621 C   0  0  0  0  0  0  0  0  0  0  0  0
  -33.9628  -26.7995   17.1036 N   0  0  0  0  0  0  0  0  0  0  0  0
  -33.6276  -25.1893   18.7512 N   0  0  0  0  0  0  0  0  0  0  0  0
  -33.8288  -24.7087   19.9932 C   0  0  0  0  0  0  0  0  0  0  0  0
  -35.3839  -27.9233   18.8356 H   0  0  0  0  0  0  0  0  0  0  0  0
  -34.3677  -27.6411   16.7922 H   0  0  0  0  0  0  0  0  0  0  0  0
  -33.3816  -26.2806   16.5017 H   0  0  0  0  0  0  0  0  0  0  0  0
  -31.8680  -19.8588   22.1105 C   0  0  0  0  0  0  0  0  0  0  0  0
  -30.8319  -18.9233   22.4295 O   0  0  0  0  0  0  0  0  0  0  0  0
  -30.8827  -17.4895   21.7111 P   0  0  0  0  0  0  0  0  0  0  0  0
  -30.0059  -16.5141   22.4230 O   0  0  0  0  0  0  0  0  0  0  0  0
  -32.2953  -17.0312   21.4837 O   0  0  0  0  0  0  0  0  0  0  0  0
  -32.2879  -16.1640   21.0491 H   0  0  0  0  0  0  0  0  0  0  0  0
  -30.1319  -17.9325   20.3452 O   0  0  0  0  0  0  0  0  0  0  0  0
  -29.9371  -16.9654   19.0940 P   0  0  0  0  0  0  0  0  0  0  0  0
  -30.1437  -17.7215   17.8098 O   0  0  0  0  0  0  0  0  0  0  0  0
  -28.4833  -16.5143   19.1549 O   0  0  0  0  0  0  0  0  0  0  0  0
  -30.8640  -15.7786   19.1792 O   0  0  0  0  0  0  0  0  0  0  0  0
  -28.2986  -15.9173   18.4130 H   0  0  0  0  0  0  0  0  0  0  0  0
  -30.7274  -15.2057   18.4085 H   0  0  0  0  0  0  0  0  0  0  0  0
 31 32  2  0  0  0
 31 33  1  0  0  0
 31 34  1  0  0  0
 31 30  1  0  0  0
 30 26  1  0  0  0
 26 27  2  0  0  0
 26 28  1  0  0  0
 26 25  1  0  0  0
 25 24  1  0  0  0
 24  1  1  0  0  0
  1  2  1  0  0  0
  1  3  1  0  0  0
  2  7  1  0  0  0
  3  4  1  0  0  0
  3  5  1  0  0  0
  5  6  1  0  0  0
  5  7  1  0  0  0
  7 10  1  0  0  0
 10 11  1  0  0  0
 10 20  1  0  0  0
 11 12  2  0  0  0
 12 13  1  0  0  0
 13 14  1  0  0  0
 13 20  2  0  0  0
 14 15  2  0  0  0
 14 16  1  0  0  0
 16 17  1  0  0  0
 17 18  1  0  0  0
 17 19  2  0  0  0
 19 20  1  0  0  0
 33 35  1  0  0  0
 34 36  1  0  0  0
 28 29  1  0  0  0
  4  8  1  0  0  0
  6  9  1  0  0  0
 16 21  1  0  0  0
 18 22  1  0  0  0
 18 23  1  0  0  0
M  END
> <minimizedAffinity>
-8.19221

$$$$
4RD3_GDP_A_502


 36 38  0  0  0  0  0  0  0  0999 V2000
  -33.1108  -22.6292   21.1441 C   0  0  0  0  0  0  0  0  0  0  0  0
  -34.2234  -23.3306   20.5922 O   0  0  0  0  0  0  0  0  0  0  0  0
  -31.8716  -23.3030   20.5960 C   0  0  0  0  0  0  0  0  0  0  0  0
  -31.3860  -24.2044   21.5924 O   0  0  0  0  0  0  0  0  0  0  0  0
  -32.3942  -24.0732   19.3991 C   0  0  0  0  0  0  0  0  0  0  0  0
  -31.5479  -25.1635   18.9925 O   0  0  0  0  0  0  0  0  0  0  0  0
  -33.7834  -24.4751   19.8771 C   0  0  0  0  0  0  0  0  0  0  0  0
  -32.0922  -24.8204   21.8429 H   0  0  0  0  0  0  0  0  0  0  0  0
  -31.4334  -25.7780   19.7342 H   0  0  0  0  0  0  0  0  0  0  0  0
  -34.6556  -24.7075   18.7144 N   0  0  0  0  0  0  0  0  0  0  0  0
  -35.7884  -24.0381   18.4137 C   0  0  0  0  0  0  0  0  0  0  0  0
  -36.3350  -24.5005   17.2622 N   0  0  0  0  0  0  0  0  0  0  0  0
  -35.5316  -25.4851   16.8156 C   0  0  0  0  0  0  0  0  0  0  0  0
  -35.5165  -26.3971   15.6566 C   0  0  0  0  0  0  0  0  0  0  0  0
  -36.4194  -26.3304   14.8011 O   0  0  0  0  0  0  0  0  0  0  0  0
  -34.5108  -27.2757   15.5599 N   0  0  0  0  0  0  0  0  0  0  0  0
  -33.5195  -27.3435   16.4739 C   0  0  0  0  0  0  0  0  0  0  0  0
  -32.5327  -28.2607   16.3123 N   0  0  0  0  0  0  0  0  0  0  0  0
  -33.4679  -26.5339   17.5627 N   0  0  0  0  0  0  0  0  0  0  0  0
  -34.4278  -25.6132   17.7749 C   0  0  0  0  0  0  0  0  0  0  0  0
  -34.4937  -27.8948   14.7946 H   0  0  0  0  0  0  0  0  0  0  0  0
  -32.5425  -28.8620   15.5329 H   0  0  0  0  0  0  0  0  0  0  0  0
  -31.8071  -28.3248   16.9745 H   0  0  0  0  0  0  0  0  0  0  0  0
  -33.1603  -21.1694   20.7245 C   0  0  0  0  0  0  0  0  0  0  0  0
  -31.8478  -20.7044   20.3903 O   0  0  0  0  0  0  0  0  0  0  0  0
  -31.4907  -19.1803   20.7425 P   0  0  0  0  0  0  0  0  0  0  0  0
  -30.3315  -19.1158   21.6801 O   0  0  0  0  0  0  0  0  0  0  0  0
  -32.7060  -18.4102   21.1752 O   0  0  0  0  0  0  0  0  0  0  0  0
  -32.4537  -17.4961   21.3794 H   0  0  0  0  0  0  0  0  0  0  0  0
  -30.9654  -18.7607   19.2682 O   0  0  0  0  0  0  0  0  0  0  0  0
  -30.1964  -17.3993   18.9620 P   0  0  0  0  0  0  0  0  0  0  0  0
  -31.0369  -16.2195   19.3682 O   0  0  0  0  0  0  0  0  0  0  0  0
  -30.0232  -17.3650   17.4488 O   0  0  0  0  0  0  0  0  0  0  0  0
  -28.8542  -17.3707   19.6495 O   0  0  0  0  0  0  0  0  0  0  0  0
  -29.5572  -16.5530   17.1950 H   0  0  0  0  0  0  0  0  0  0  0  0
  -28.4058  -16.5344   19.4488 H   0  0  0  0  0  0  0  0  0  0  0  0
 31 32  2  0  0  0
 31 33  1  0  0  0
 31 34  1  0  0  0
 31 30  1  0  0  0
 30 26  1  0  0  0
 26 27  2  0  0  0
 26 28  1  0  0  0
 26 25  1  0  0  0
 25 24  1  0  0  0
 24  1  1  0  0  0
  1  2  1  0  0  0
  1  3  1  0  0  0
  2  7  1  0  0  0
  3  4  1  0  0  0
  3  5  1  0  0  0
  5  6  1  0  0  0
  5  7  1  0  0  0
  7 10  1  0  0  0
 10 11  1  0  0  0
 10 20  1  0  0  0
 11 12  2  0  0  0
 12 13  1  0  0  0
 13 14  1  0  0  0
 13 20  2  0  0  0
 14 15  2  0  0  0
 14 16  1  0  0  0
 16 17  1  0  0  0
 17 18  1  0  0  0
 17 19  2  0  0  0
 19 20  1  0  0  0
 33 35  1  0  0  0
 34 36  1  0  0  0
 28 29  1  0  0  0
  4  8  1  0  0  0
  6  9  1  0  0  0
 16 21  1  0  0  0
 18 22  1  0  0  0
 18 23  1  0  0  0
M  END
> <minimizedAffinity>
-8.18384

$$$$
4RD3_GDP_A_502


 36 38  0  0  0  0  0  0  0  0999 V2000
  -33.0883  -21.6886   20.1230 C   0  0  0  0  0  0  0  0  0  0  0  0
  -33.8185  -22.4690   19.1784 O   0  0  0  0  0  0  0  0  0  0  0  0
  -32.9414  -22.5490   21.3593 C   0  0  0  0  0  0  0  0  0  0  0  0
  -33.9472  -22.1505   22.2924 O   0  0  0  0  0  0  0  0  0  0  0  0
  -33.2237  -23.9474   20.8461 C   0  0  0  0  0  0  0  0  0  0  0  0
  -33.6232  -24.8751   21.8709 O   0  0  0  0  0  0  0  0  0  0  0  0
  -34.2719  -23.6743   19.7754 C   0  0  0  0  0  0  0  0  0  0  0  0
  -34.8195  -22.2090   21.8722 H   0  0  0  0  0  0  0  0  0  0  0  0
  -34.4157  -24.5403   22.3190 H   0  0  0  0  0  0  0  0  0  0  0  0
  -34.2578  -24.7625   18.7842 N   0  0  0  0  0  0  0  0  0  0  0  0
  -35.3279  -25.4469   18.3278 C   0  0  0  0  0  0  0  0  0  0  0  0
  -34.9571  -26.3723   17.4088 N   0  0  0  0  0  0  0  0  0  0  0  0
  -33.6205  -26.2747   17.2728 C   0  0  0  0  0  0  0  0  0  0  0  0
  -32.5846  -26.9512   16.4699 C   0  0  0  0  0  0  0  0  0  0  0  0
  -32.9057  -27.8541   15.6742 O   0  0  0  0  0  0  0  0  0  0  0  0
  -31.3136  -26.5590   16.6229 N   0  0  0  0  0  0  0  0  0  0  0  0
  -30.9591  -25.5701   17.4709 C   0  0  0  0  0  0  0  0  0  0  0  0
  -29.6507  -25.2263   17.5756 N   0  0  0  0  0  0  0  0  0  0  0  0
  -31.8590  -24.9026   18.2378 N   0  0  0  0  0  0  0  0  0  0  0  0
  -33.1686  -25.2117   18.1788 C   0  0  0  0  0  0  0  0  0  0  0  0
  -30.6122  -27.0080   16.0980 H   0  0  0  0  0  0  0  0  0  0  0  0
  -28.9744  -25.6920   17.0326 H   0  0  0  0  0  0  0  0  0  0  0  0
  -29.3777  -24.5110   18.1946 H   0  0  0  0  0  0  0  0  0  0  0  0
  -31.7266  -21.3279   19.5530 C   0  0  0  0  0  0  0  0  0  0  0  0
  -30.9533  -20.6177   20.5267 O   0  0  0  0  0  0  0  0  0  0  0  0
  -31.2725  -19.0586   20.7312 P   0  0  0  0  0  0  0  0  0  0  0  0
  -30.2477  -18.4237   21.6108 O   0  0  0  0  0  0  0  0  0  0  0  0
  -32.6987  -18.8328   21.1462 O   0  0  0  0  0  0  0  0  0  0  0  0
  -32.8556  -17.8824   21.2604 H   0  0  0  0  0  0  0  0  0  0  0  0
  -30.9755  -18.6001   19.2058 O   0  0  0  0  0  0  0  0  0  0  0  0
  -30.1256  -17.3075   18.8244 P   0  0  0  0  0  0  0  0  0  0  0  0
  -30.9129  -16.0584   19.1133 O   0  0  0  0  0  0  0  0  0  0  0  0
  -29.9068  -17.3977   17.3195 O   0  0  0  0  0  0  0  0  0  0  0  0
  -28.8046  -17.2957   19.5521 O   0  0  0  0  0  0  0  0  0  0  0  0
  -29.3905  -16.6325   17.0214 H   0  0  0  0  0  0  0  0  0  0  0  0
  -28.3061  -16.5013   19.3045 H   0  0  0  0  0  0  0  0  0  0  0  0
 31 32  2  0  0  0
 31 33  1  0  0  0
 31 34  1  0  0  0
 31 30  1  0  0  0
 30 26  1  0  0  0
 26 27  2  0  0  0
 26 28  1  0  0  0
 26 25  1  0  0  0
 25 24  1  0  0  0
 24  1  1  0  0  0
  1  2  1  0  0  0
  1  3  1  0  0  0
  2  7  1  0  0  0
  3  4  1  0  0  0
  3  5  1  0  0  0
  5  6  1  0  0  0
  5  7  1  0  0  0
  7 10  1  0  0  0
 10 11  1  0  0  0
 10 20  1  0  0  0
 11 12  2  0  0  0
 12 13  1  0  0  0
 13 14  1  0  0  0
 13 20  2  0  0  0
 14 15  2  0  0  0
 14 16  1  0  0  0
 16 17  1  0  0  0
 17 18  1  0  0  0
 17 19  2  0  0  0
 19 20  1  0  0  0
 33 35  1  0  0  0
 34 36  1  0  0  0
 28 29  1  0  0  0
  4  8  1  0  0  0
  6  9  1  0  0  0
 16 21  1  0  0  0
 18 22  1  0  0  0
 18 23  1  0  0  0
M  END
> <minimizedAffinity>
-8.07995

$$$$
4RD3_GDP_A_502


 36 38  0  0  0  0  0  0  0  0999 V2000
  -35.0693  -23.2651   21.0087 C   0  0  0  0  0  0  0  0  0  0  0  0
  -34.2373  -23.2430   19.8504 O   0  0  0  0  0  0  0  0  0  0  0  0
  -35.3795  -24.7214   21.2792 C   0  0  0  0  0  0  0  0  0  0  0  0
  -36.6727  -25.0012   20.7404 O   0  0  0  0  0  0  0  0  0  0  0  0
  -34.3114  -25.4569   20.4937 C   0  0  0  0  0  0  0  0  0  0  0  0
  -34.6511  -26.8200   20.1827 O   0  0  0  0  0  0  0  0  0  0  0  0
  -34.1340  -24.5424   19.2887 C   0  0  0  0  0  0  0  0  0  0  0  0
  -36.6901  -24.7619   19.8006 H   0  0  0  0  0  0  0  0  0  0  0  0
  -35.4796  -26.8398   19.6786 H   0  0  0  0  0  0  0  0  0  0  0  0
  -32.7920  -24.7376   18.7163 N   0  0  0  0  0  0  0  0  0  0  0  0
  -31.6739  -24.0543   19.0398 C   0  0  0  0  0  0  0  0  0  0  0  0
  -30.6086  -24.5015   18.3301 N   0  0  0  0  0  0  0  0  0  0  0  0
  -31.0556  -25.4950   17.5379 C   0  0  0  0  0  0  0  0  0  0  0  0
  -30.4618  -26.4015   16.5374 C   0  0  0  0  0  0  0  0  0  0  0  0
  -29.2454  -26.3307   16.2787 O   0  0  0  0  0  0  0  0  0  0  0  0
  -31.2646  -27.2888   15.9369 N   0  0  0  0  0  0  0  0  0  0  0  0
  -32.5806  -27.3832   16.2234 C   0  0  0  0  0  0  0  0  0  0  0  0
  -33.3342  -28.3058   15.5738 N   0  0  0  0  0  0  0  0  0  0  0  0
  -33.1928  -26.5842   17.1346 N   0  0  0  0  0  0  0  0  0  0  0  0
  -32.4922  -25.6459   17.7999 C   0  0  0  0  0  0  0  0  0  0  0  0
  -30.8814  -27.8944   15.2619 H   0  0  0  0  0  0  0  0  0  0  0  0
  -32.9189  -28.8998   14.9075 H   0  0  0  0  0  0  0  0  0  0  0  0
  -34.2962  -28.3812   15.7689 H   0  0  0  0  0  0  0  0  0  0  0  0
  -34.3345  -22.6435   22.1848 C   0  0  0  0  0  0  0  0  0  0  0  0
  -33.5365  -21.5393   21.7438 O   0  0  0  0  0  0  0  0  0  0  0  0
  -32.0394  -21.4349   22.3116 P   0  0  0  0  0  0  0  0  0  0  0  0
  -31.5329  -22.7815   22.7077 O   0  0  0  0  0  0  0  0  0  0  0  0
  -31.9173  -20.3710   23.3654 O   0  0  0  0  0  0  0  0  0  0  0  0
  -31.0022  -20.3360   23.6850 H   0  0  0  0  0  0  0  0  0  0  0  0
  -31.3316  -21.0261   20.9125 O   0  0  0  0  0  0  0  0  0  0  0  0
  -31.9996  -20.0582   19.8376 P   0  0  0  0  0  0  0  0  0  0  0  0
  -30.9394  -19.3195   19.0668 O   0  0  0  0  0  0  0  0  0  0  0  0
  -32.7963  -19.0435   20.6478 O   0  0  0  0  0  0  0  0  0  0  0  0
  -32.9078  -20.8260   18.9100 O   0  0  0  0  0  0  0  0  0  0  0  0
  -33.2315  -18.4194   20.0462 H   0  0  0  0  0  0  0  0  0  0  0  0
  -33.3019  -20.2170   18.2660 H   0  0  0  0  0  0  0  0  0  0  0  0
 31 32  2  0  0  0
 31 33  1  0  0  0
 31 34  1  0  0  0
 31 30  1  0  0  0
 30 26  1  0  0  0
 26 27  2  0  0  0
 26 28  1  0  0  0
 26 25  1  0  0  0
 25 24  1  0  0  0
 24  1  1  0  0  0
  1  2  1  0  0  0
  1  3  1  0  0  0
  2  7  1  0  0  0
  3  4  1  0  0  0
  3  5  1  0  0  0
  5  6  1  0  0  0
  5  7  1  0  0  0
  7 10  1  0  0  0
 10 11  1  0  0  0
 10 20  1  0  0  0
 11 12  2  0  0  0
 12 13  1  0  0  0
 13 14  1  0  0  0
 13 20  2  0  0  0
 14 15  2  0  0  0
 14 16  1  0  0  0
 16 17  1  0  0  0
 17 18  1  0  0  0
 17 19  2  0  0  0
 19 20  1  0  0  0
 33 35  1  0  0  0
 34 36  1  0  0  0
 28 29  1  0  0  0
  4  8  1  0  0  0
  6  9  1  0  0  0
 16 21  1  0  0  0
 18 22  1  0  0  0
 18 23  1  0  0  0
M  END
> <minimizedAffinity>
-8.02089

$$$$
