3N3G_93N_A_221


 29 31  0  0  0  0  0  0  0  0999 V2000
   12.5024   -6.6090   20.0624 C   0  0  0  0  0  0  0  0  0  0  0  0
   11.6615   -6.8915   18.9700 C   0  0  0  0  0  0  0  0  0  0  0  0
   12.0691   -7.7458   17.9081 C   0  0  0  0  0  0  0  0  0  0  0  0
   13.3489   -8.3513   17.9625 C   0  0  0  0  0  0  0  0  0  0  0  0
   14.1838   -8.0736   19.0451 C   0  0  0  0  0  0  0  0  0  0  0  0
   13.7639   -7.2301   20.0739 C   0  0  0  0  0  0  0  0  0  0  0  0
   12.6167   -4.4877   21.1542 N   0  0  0  0  0  0  0  0  0  0  0  0
   12.0843   -5.7409   21.1840 C   0  0  0  0  0  0  0  0  0  0  0  0
   11.2553   -6.1368   22.2344 C   0  0  0  0  0  0  0  0  0  0  0  0
   10.9522   -5.2280   23.2452 C   0  0  0  0  0  0  0  0  0  0  0  0
   11.4819   -3.9417   23.2084 C   0  0  0  0  0  0  0  0  0  0  0  0
   12.3083   -3.6158   22.1461 C   0  0  0  0  0  0  0  0  0  0  0  0
   12.8917   -2.3212   21.9940 C   0  0  0  0  0  0  0  0  0  0  0  0
   13.2941   -1.2578   21.7798 N   0  0  0  0  0  0  0  0  0  0  0  0
   11.0965   -7.9976   16.7702 C   0  0  0  0  0  0  0  0  0  0  0  0
   10.2838   -9.0772   16.8895 F   0  0  0  0  0  0  0  0  0  0  0  0
   11.6882   -8.1856   15.5679 F   0  0  0  0  0  0  0  0  0  0  0  0
   10.2571   -6.9630   16.5582 F   0  0  0  0  0  0  0  0  0  0  0  0
   13.7292   -9.1733   16.9291 O   0  0  0  0  0  0  0  0  0  0  0  0
   13.8616  -10.5723   17.1854 C   0  0  0  0  0  0  0  0  0  0  0  0
   12.6583  -11.3644   16.6621 C   0  0  0  0  0  0  0  0  0  0  0  0
   12.5668  -11.3133   15.1467 C   0  0  0  0  0  0  0  0  0  0  0  0
   11.1632  -11.1120   14.6290 N   0  0  0  0  0  0  0  0  0  0  0  0
    8.7629  -11.7872   14.6791 C   0  0  0  0  0  0  0  0  0  0  0  0
    8.7973  -11.9225   13.1615 N   0  0  0  0  0  0  0  0  0  0  0  0
    9.6713  -10.7951   12.6530 C   0  0  0  0  0  0  0  0  0  0  0  0
   11.1104  -11.0526   13.1137 C   0  0  0  0  0  0  0  0  0  0  0  0
   10.1672  -12.0796   15.2291 C   0  0  0  0  0  0  0  0  0  0  0  0
    7.4218  -11.9504   12.5199 C   0  0  0  0  0  0  0  0  0  0  0  0
  8  7  2  0  0  0
  7 12  1  0  0  0
  1  8  1  0  0  0
  8  9  1  0  0  0
  9 10  2  0  0  0
 10 11  1  0  0  0
 12 11  2  0  0  0
 12 13  1  0  0  0
  6  1  2  0  0  0
  2  1  1  0  0  0
  3  2  2  0  0  0
  4  3  1  0  0  0
 15  3  1  0  0  0
 19  4  1  0  0  0
  4  5  2  0  0  0
  5  6  1  0  0  0
 19 20  1  0  0  0
 21 20  1  0  0  0
 22 21  1  0  0  0
 23 22  1  0  0  0
 27 23  1  0  0  0
 28 23  1  0  0  0
 13 14  3  0  0  0
 16 15  1  0  0  0
 15 18  1  0  0  0
 15 17  1  0  0  0
 25 24  1  0  0  0
 24 28  1  0  0  0
 29 25  1  0  0  0
 25 26  1  0  0  0
 26 27  1  0  0  0
M  END
> <minimizedAffinity>
-7.22002

$$$$
3N3G_93N_A_221


 29 31  0  0  0  0  0  0  0  0999 V2000
   12.8221   -5.6690   20.6000 C   0  0  0  0  0  0  0  0  0  0  0  0
   12.0515   -6.2506   19.5761 C   0  0  0  0  0  0  0  0  0  0  0  0
   12.5468   -7.3167   18.7750 C   0  0  0  0  0  0  0  0  0  0  0  0
   13.8438   -7.8266   19.0306 C   0  0  0  0  0  0  0  0  0  0  0  0
   14.6090   -7.2524   20.0459 C   0  0  0  0  0  0  0  0  0  0  0  0
   14.1037   -6.2054   20.8170 C   0  0  0  0  0  0  0  0  0  0  0  0
   13.1874   -4.1541   22.4100 N   0  0  0  0  0  0  0  0  0  0  0  0
   12.3127   -4.5756   21.4550 C   0  0  0  0  0  0  0  0  0  0  0  0
   11.0360   -4.0194   21.3645 C   0  0  0  0  0  0  0  0  0  0  0  0
   10.6685   -3.0055   22.2457 C   0  0  0  0  0  0  0  0  0  0  0  0
   11.5665   -2.5618   23.2118 C   0  0  0  0  0  0  0  0  0  0  0  0
   12.8126   -3.1640   23.2576 C   0  0  0  0  0  0  0  0  0  0  0  0
   13.8203   -2.7770   24.1926 C   0  0  0  0  0  0  0  0  0  0  0  0
   14.6409   -2.3618   24.8947 N   0  0  0  0  0  0  0  0  0  0  0  0
   11.6460   -7.8862   17.6939 C   0  0  0  0  0  0  0  0  0  0  0  0
   11.2502   -9.1748   17.8454 F   0  0  0  0  0  0  0  0  0  0  0  0
   12.1911   -7.8722   16.4555 F   0  0  0  0  0  0  0  0  0  0  0  0
   10.4976   -7.1934   17.5486 F   0  0  0  0  0  0  0  0  0  0  0  0
   14.3090   -8.8558   18.2480 O   0  0  0  0  0  0  0  0  0  0  0  0
   14.4900  -10.1393   18.8483 C   0  0  0  0  0  0  0  0  0  0  0  0
   14.0007  -11.2697   17.9362 C   0  0  0  0  0  0  0  0  0  0  0  0
   13.8048  -10.7946   16.5067 C   0  0  0  0  0  0  0  0  0  0  0  0
   12.6482  -11.4577   15.7989 N   0  0  0  0  0  0  0  0  0  0  0  0
   11.7079  -13.4980   14.7158 C   0  0  0  0  0  0  0  0  0  0  0  0
   11.3581  -12.6556   13.4948 N   0  0  0  0  0  0  0  0  0  0  0  0
   10.9018  -11.3110   14.0215 C   0  0  0  0  0  0  0  0  0  0  0  0
   12.1035  -10.6098   14.6646 C   0  0  0  0  0  0  0  0  0  0  0  0
   12.9418  -12.8860   15.3962 C   0  0  0  0  0  0  0  0  0  0  0  0
   10.3482  -13.3110   12.5701 C   0  0  0  0  0  0  0  0  0  0  0  0
  8  7  2  0  0  0
  7 12  1  0  0  0
  1  8  1  0  0  0
  8  9  1  0  0  0
  9 10  2  0  0  0
 10 11  1  0  0  0
 12 11  2  0  0  0
 12 13  1  0  0  0
  6  1  2  0  0  0
  2  1  1  0  0  0
  3  2  2  0  0  0
  4  3  1  0  0  0
 15  3  1  0  0  0
 19  4  1  0  0  0
  4  5  2  0  0  0
  5  6  1  0  0  0
 19 20  1  0  0  0
 21 20  1  0  0  0
 22 21  1  0  0  0
 23 22  1  0  0  0
 27 23  1  0  0  0
 28 23  1  0  0  0
 13 14  3  0  0  0
 16 15  1  0  0  0
 15 18  1  0  0  0
 15 17  1  0  0  0
 25 24  1  0  0  0
 24 28  1  0  0  0
 29 25  1  0  0  0
 25 26  1  0  0  0
 26 27  1  0  0  0
M  END
> <minimizedAffinity>
-7.17385

$$$$
3N3G_93N_A_221


 29 31  0  0  0  0  0  0  0  0999 V2000
   12.8833   -7.9291   18.3787 C   0  0  0  0  0  0  0  0  0  0  0  0
   14.0135   -7.5897   19.1453 C   0  0  0  0  0  0  0  0  0  0  0  0
   13.9680   -6.5796   20.1460 C   0  0  0  0  0  0  0  0  0  0  0  0
   12.7437   -5.9125   20.3975 C   0  0  0  0  0  0  0  0  0  0  0  0
   11.6216   -6.2481   19.6396 C   0  0  0  0  0  0  0  0  0  0  0  0
   11.6904   -7.2402   18.6612 C   0  0  0  0  0  0  0  0  0  0  0  0
   13.8194   -9.9779   17.5844 N   0  0  0  0  0  0  0  0  0  0  0  0
   12.9096   -8.9917   17.3509 C   0  0  0  0  0  0  0  0  0  0  0  0
   12.1248   -9.0066   16.1971 C   0  0  0  0  0  0  0  0  0  0  0  0
   12.2594  -10.0572   15.2928 C   0  0  0  0  0  0  0  0  0  0  0  0
   13.1768  -11.0746   15.5375 C   0  0  0  0  0  0  0  0  0  0  0  0
   13.9346  -10.9940   16.6936 C   0  0  0  0  0  0  0  0  0  0  0  0
   14.8916  -11.9897   17.0574 C   0  0  0  0  0  0  0  0  0  0  0  0
   15.7357  -12.7096   17.3859 N   0  0  0  0  0  0  0  0  0  0  0  0
   15.2345   -6.2801   20.9275 C   0  0  0  0  0  0  0  0  0  0  0  0
   15.3405   -5.0394   21.4657 F   0  0  0  0  0  0  0  0  0  0  0  0
   16.3723   -6.4038   20.2057 F   0  0  0  0  0  0  0  0  0  0  0  0
   15.4200   -7.1184   21.9681 F   0  0  0  0  0  0  0  0  0  0  0  0
   12.7153   -4.9385   21.3664 O   0  0  0  0  0  0  0  0  0  0  0  0
   11.8693   -5.1313   22.5010 C   0  0  0  0  0  0  0  0  0  0  0  0
   12.4106   -6.2165   23.4383 C   0  0  0  0  0  0  0  0  0  0  0  0
   11.3054   -7.1311   23.9379 C   0  0  0  0  0  0  0  0  0  0  0  0
   11.2153   -8.4396   23.1908 N   0  0  0  0  0  0  0  0  0  0  0  0
   12.3696  -10.2286   21.8920 C   0  0  0  0  0  0  0  0  0  0  0  0
   11.3195  -10.0745   20.7982 N   0  0  0  0  0  0  0  0  0  0  0  0
   10.0032   -9.8237   21.5037 C   0  0  0  0  0  0  0  0  0  0  0  0
   10.0748   -8.4550   22.1901 C   0  0  0  0  0  0  0  0  0  0  0  0
   12.5386   -8.8774   22.6030 C   0  0  0  0  0  0  0  0  0  0  0  0
   11.2682  -11.2444   19.8322 C   0  0  0  0  0  0  0  0  0  0  0  0
  8  7  2  0  0  0
  7 12  1  0  0  0
  1  8  1  0  0  0
  8  9  1  0  0  0
  9 10  2  0  0  0
 10 11  1  0  0  0
 12 11  2  0  0  0
 12 13  1  0  0  0
  6  1  2  0  0  0
  2  1  1  0  0  0
  3  2  2  0  0  0
  4  3  1  0  0  0
 15  3  1  0  0  0
 19  4  1  0  0  0
  4  5  2  0  0  0
  5  6  1  0  0  0
 19 20  1  0  0  0
 21 20  1  0  0  0
 22 21  1  0  0  0
 23 22  1  0  0  0
 27 23  1  0  0  0
 28 23  1  0  0  0
 13 14  3  0  0  0
 16 15  1  0  0  0
 15 18  1  0  0  0
 15 17  1  0  0  0
 25 24  1  0  0  0
 24 28  1  0  0  0
 29 25  1  0  0  0
 25 26  1  0  0  0
 26 27  1  0  0  0
M  END
> <minimizedAffinity>
-7.14254

$$$$
3N3G_93N_A_221


 29 31  0  0  0  0  0  0  0  0999 V2000
   11.9707   -7.5848   18.3644 C   0  0  0  0  0  0  0  0  0  0  0  0
   10.7085   -8.2066   18.3888 C   0  0  0  0  0  0  0  0  0  0  0  0
   10.2833   -9.0866   17.3552 C   0  0  0  0  0  0  0  0  0  0  0  0
   11.1647   -9.3668   16.2819 C   0  0  0  0  0  0  0  0  0  0  0  0
   12.4169   -8.7525   16.2562 C   0  0  0  0  0  0  0  0  0  0  0  0
   12.8115   -7.8904   17.2795 C   0  0  0  0  0  0  0  0  0  0  0  0
   13.7698   -6.7607   19.7018 N   0  0  0  0  0  0  0  0  0  0  0  0
   12.4349   -6.6855   19.4422 C   0  0  0  0  0  0  0  0  0  0  0  0
   11.6105   -5.8464   20.1930 C   0  0  0  0  0  0  0  0  0  0  0  0
   12.1689   -5.0612   21.1986 C   0  0  0  0  0  0  0  0  0  0  0  0
   13.5353   -5.1242   21.4547 C   0  0  0  0  0  0  0  0  0  0  0  0
   14.2959   -5.9867   20.6833 C   0  0  0  0  0  0  0  0  0  0  0  0
   15.7088   -6.1193   20.8434 C   0  0  0  0  0  0  0  0  0  0  0  0
   16.8646   -6.1577   20.8807 N   0  0  0  0  0  0  0  0  0  0  0  0
    8.9060   -9.7157   17.4638 C   0  0  0  0  0  0  0  0  0  0  0  0
    8.0751   -9.5525   16.4040 F   0  0  0  0  0  0  0  0  0  0  0  0
    8.1718   -9.2635   18.5066 F   0  0  0  0  0  0  0  0  0  0  0  0
    8.9520  -11.0501   17.6565 F   0  0  0  0  0  0  0  0  0  0  0  0
   10.7398  -10.2180   15.2904 O   0  0  0  0  0  0  0  0  0  0  0  0
   11.6724  -11.1575   14.7537 C   0  0  0  0  0  0  0  0  0  0  0  0
   11.6675  -12.4759   15.5352 C   0  0  0  0  0  0  0  0  0  0  0  0
   13.0731  -12.9126   15.9110 C   0  0  0  0  0  0  0  0  0  0  0  0
   13.4780  -12.5187   17.3108 N   0  0  0  0  0  0  0  0  0  0  0  0
   12.7900  -11.8776   19.6207 C   0  0  0  0  0  0  0  0  0  0  0  0
   13.6958  -10.6558   19.5222 N   0  0  0  0  0  0  0  0  0  0  0  0
   14.9292  -11.0999   18.7641 C   0  0  0  0  0  0  0  0  0  0  0  0
   14.5222  -11.4178   17.3209 C   0  0  0  0  0  0  0  0  0  0  0  0
   12.2957  -12.2359   18.2110 C   0  0  0  0  0  0  0  0  0  0  0  0
   14.0133  -10.0217   20.8644 C   0  0  0  0  0  0  0  0  0  0  0  0
  8  7  2  0  0  0
  7 12  1  0  0  0
  1  8  1  0  0  0
  8  9  1  0  0  0
  9 10  2  0  0  0
 10 11  1  0  0  0
 12 11  2  0  0  0
 12 13  1  0  0  0
  6  1  2  0  0  0
  2  1  1  0  0  0
  3  2  2  0  0  0
  4  3  1  0  0  0
 15  3  1  0  0  0
 19  4  1  0  0  0
  4  5  2  0  0  0
  5  6  1  0  0  0
 19 20  1  0  0  0
 21 20  1  0  0  0
 22 21  1  0  0  0
 23 22  1  0  0  0
 27 23  1  0  0  0
 28 23  1  0  0  0
 13 14  3  0  0  0
 16 15  1  0  0  0
 15 18  1  0  0  0
 15 17  1  0  0  0
 25 24  1  0  0  0
 24 28  1  0  0  0
 29 25  1  0  0  0
 25 26  1  0  0  0
 26 27  1  0  0  0
M  END
> <minimizedAffinity>
-7.14177

$$$$
3N3G_93N_A_221


 29 31  0  0  0  0  0  0  0  0999 V2000
   12.9522   -6.0245   20.4136 C   0  0  0  0  0  0  0  0  0  0  0  0
   12.0244   -6.4176   19.4311 C   0  0  0  0  0  0  0  0  0  0  0  0
   12.3189   -7.4366   18.4832 C   0  0  0  0  0  0  0  0  0  0  0  0
   13.5725   -8.0941   18.5444 C   0  0  0  0  0  0  0  0  0  0  0  0
   14.4932   -7.7070   19.5182 C   0  0  0  0  0  0  0  0  0  0  0  0
   14.1837   -6.7028   20.4358 C   0  0  0  0  0  0  0  0  0  0  0  0
   11.3582   -4.9669   21.8437 N   0  0  0  0  0  0  0  0  0  0  0  0
   12.6521   -4.9828   21.4189 C   0  0  0  0  0  0  0  0  0  0  0  0
   13.5673   -4.0409   21.8910 C   0  0  0  0  0  0  0  0  0  0  0  0
   13.1534   -3.0948   22.8253 C   0  0  0  0  0  0  0  0  0  0  0  0
   11.8358   -3.0870   23.2732 C   0  0  0  0  0  0  0  0  0  0  0  0
   10.9742   -4.0396   22.7557 C   0  0  0  0  0  0  0  0  0  0  0  0
    9.6071   -4.1392   23.1564 C   0  0  0  0  0  0  0  0  0  0  0  0
    8.5136   -4.3349   23.4800 N   0  0  0  0  0  0  0  0  0  0  0  0
   11.2580   -7.7990   17.4598 C   0  0  0  0  0  0  0  0  0  0  0  0
   11.6479   -7.8292   16.1608 F   0  0  0  0  0  0  0  0  0  0  0  0
   10.1944   -6.9626   17.4455 F   0  0  0  0  0  0  0  0  0  0  0  0
   10.7108   -9.0126   17.6780 F   0  0  0  0  0  0  0  0  0  0  0  0
   13.8430   -9.0757   17.6216 O   0  0  0  0  0  0  0  0  0  0  0  0
   13.8172  -10.4382   18.0496 C   0  0  0  0  0  0  0  0  0  0  0  0
   13.0896  -11.3381   17.0446 C   0  0  0  0  0  0  0  0  0  0  0  0
   13.0937  -10.7403   15.6481 C   0  0  0  0  0  0  0  0  0  0  0  0
   11.9862  -11.2574   14.7625 N   0  0  0  0  0  0  0  0  0  0  0  0
   10.4103  -10.8485   12.8731 C   0  0  0  0  0  0  0  0  0  0  0  0
    9.2621  -11.2975   13.7693 N   0  0  0  0  0  0  0  0  0  0  0  0
    9.7956  -12.4437   14.6031 C   0  0  0  0  0  0  0  0  0  0  0  0
   10.8610  -11.8931   15.5577 C   0  0  0  0  0  0  0  0  0  0  0  0
   11.5088  -10.2353   13.7546 C   0  0  0  0  0  0  0  0  0  0  0  0
    7.9958  -11.6482   13.0091 C   0  0  0  0  0  0  0  0  0  0  0  0
  8  7  2  0  0  0
  7 12  1  0  0  0
  1  8  1  0  0  0
  8  9  1  0  0  0
  9 10  2  0  0  0
 10 11  1  0  0  0
 12 11  2  0  0  0
 12 13  1  0  0  0
  6  1  2  0  0  0
  2  1  1  0  0  0
  3  2  2  0  0  0
  4  3  1  0  0  0
 15  3  1  0  0  0
 19  4  1  0  0  0
  4  5  2  0  0  0
  5  6  1  0  0  0
 19 20  1  0  0  0
 21 20  1  0  0  0
 22 21  1  0  0  0
 23 22  1  0  0  0
 27 23  1  0  0  0
 28 23  1  0  0  0
 13 14  3  0  0  0
 16 15  1  0  0  0
 15 18  1  0  0  0
 15 17  1  0  0  0
 25 24  1  0  0  0
 24 28  1  0  0  0
 29 25  1  0  0  0
 25 26  1  0  0  0
 26 27  1  0  0  0
M  END
> <minimizedAffinity>
-6.98029

$$$$
3N3G_93N_A_221


 29 31  0  0  0  0  0  0  0  0999 V2000
   13.1161   -8.2615   18.3486 C   0  0  0  0  0  0  0  0  0  0  0  0
   14.1702   -7.8047   19.1613 C   0  0  0  0  0  0  0  0  0  0  0  0
   14.0088   -6.7138   20.0600 C   0  0  0  0  0  0  0  0  0  0  0  0
   12.7436   -6.0839   20.1600 C   0  0  0  0  0  0  0  0  0  0  0  0
   11.6969   -6.5358   19.3562 C   0  0  0  0  0  0  0  0  0  0  0  0
   11.8791   -7.6057   18.4797 C   0  0  0  0  0  0  0  0  0  0  0  0
   12.4698   -9.3451   16.3206 N   0  0  0  0  0  0  0  0  0  0  0  0
   13.2626   -9.4078   17.4263 C   0  0  0  0  0  0  0  0  0  0  0  0
   14.0922  -10.5083   17.6453 C   0  0  0  0  0  0  0  0  0  0  0  0
   14.1246  -11.5369   16.7070 C   0  0  0  0  0  0  0  0  0  0  0  0
   13.3276  -11.4674   15.5683 C   0  0  0  0  0  0  0  0  0  0  0  0
   12.5167  -10.3551   15.4168 C   0  0  0  0  0  0  0  0  0  0  0  0
   11.6728  -10.1673   14.2802 C   0  0  0  0  0  0  0  0  0  0  0  0
   11.0413  -10.1072   13.3125 N   0  0  0  0  0  0  0  0  0  0  0  0
   15.1990   -6.2891   20.9011 C   0  0  0  0  0  0  0  0  0  0  0  0
   15.1443   -5.0523   21.4557 F   0  0  0  0  0  0  0  0  0  0  0  0
   16.3742   -6.2770   20.2304 F   0  0  0  0  0  0  0  0  0  0  0  0
   15.4296   -7.1173   21.9407 F   0  0  0  0  0  0  0  0  0  0  0  0
   12.6031   -5.0309   21.0317 O   0  0  0  0  0  0  0  0  0  0  0  0
   11.4519   -4.9955   21.8766 C   0  0  0  0  0  0  0  0  0  0  0  0
   11.6743   -5.7763   23.1766 C   0  0  0  0  0  0  0  0  0  0  0  0
   10.7217   -6.9536   23.2960 C   0  0  0  0  0  0  0  0  0  0  0  0
   11.3851   -8.2947   23.0965 N   0  0  0  0  0  0  0  0  0  0  0  0
   13.4768   -9.6529   23.1059 C   0  0  0  0  0  0  0  0  0  0  0  0
   13.1314  -10.1450   21.7054 N   0  0  0  0  0  0  0  0  0  0  0  0
   11.6292  -10.3348   21.6789 C   0  0  0  0  0  0  0  0  0  0  0  0
   10.9650   -8.9585   21.7983 C   0  0  0  0  0  0  0  0  0  0  0  0
   12.8844   -8.2477   23.2915 C   0  0  0  0  0  0  0  0  0  0  0  0
   13.8996  -11.3858   21.2877 C   0  0  0  0  0  0  0  0  0  0  0  0
  8  7  2  0  0  0
  7 12  1  0  0  0
  1  8  1  0  0  0
  8  9  1  0  0  0
  9 10  2  0  0  0
 10 11  1  0  0  0
 12 11  2  0  0  0
 12 13  1  0  0  0
  6  1  2  0  0  0
  2  1  1  0  0  0
  3  2  2  0  0  0
  4  3  1  0  0  0
 15  3  1  0  0  0
 19  4  1  0  0  0
  4  5  2  0  0  0
  5  6  1  0  0  0
 19 20  1  0  0  0
 21 20  1  0  0  0
 22 21  1  0  0  0
 23 22  1  0  0  0
 27 23  1  0  0  0
 28 23  1  0  0  0
 13 14  3  0  0  0
 16 15  1  0  0  0
 15 18  1  0  0  0
 15 17  1  0  0  0
 25 24  1  0  0  0
 24 28  1  0  0  0
 29 25  1  0  0  0
 25 26  1  0  0  0
 26 27  1  0  0  0
M  END
> <minimizedAffinity>
-6.91551

$$$$
3N3G_93N_A_221


 29 31  0  0  0  0  0  0  0  0999 V2000
   11.9913   -7.6549   18.4444 C   0  0  0  0  0  0  0  0  0  0  0  0
   12.8286   -8.5853   17.8011 C   0  0  0  0  0  0  0  0  0  0  0  0
   12.3423   -9.4641   16.7937 C   0  0  0  0  0  0  0  0  0  0  0  0
   10.9816   -9.3843   16.4069 C   0  0  0  0  0  0  0  0  0  0  0  0
   10.1501   -8.4619   17.0424 C   0  0  0  0  0  0  0  0  0  0  0  0
   10.6483   -7.6120   18.0301 C   0  0  0  0  0  0  0  0  0  0  0  0
   13.8270   -6.7973   19.7090 N   0  0  0  0  0  0  0  0  0  0  0  0
   12.4872   -6.7203   19.4772 C   0  0  0  0  0  0  0  0  0  0  0  0
   11.6867   -5.8470   20.2149 C   0  0  0  0  0  0  0  0  0  0  0  0
   12.2742   -5.0300   21.1776 C   0  0  0  0  0  0  0  0  0  0  0  0
   13.6456   -5.0952   21.4048 C   0  0  0  0  0  0  0  0  0  0  0  0
   14.3816   -5.9921   20.6489 C   0  0  0  0  0  0  0  0  0  0  0  0
   15.7967   -6.1307   20.7817 C   0  0  0  0  0  0  0  0  0  0  0  0
   16.9511   -6.1309   20.8611 N   0  0  0  0  0  0  0  0  0  0  0  0
   13.3165  -10.4345   16.1506 C   0  0  0  0  0  0  0  0  0  0  0  0
   13.0540  -10.8060   14.8726 F   0  0  0  0  0  0  0  0  0  0  0  0
   13.4305  -11.6160   16.8003 F   0  0  0  0  0  0  0  0  0  0  0  0
   14.5800   -9.9634   16.1143 F   0  0  0  0  0  0  0  0  0  0  0  0
   10.5261  -10.2402   15.4331 O   0  0  0  0  0  0  0  0  0  0  0  0
    9.5942  -11.2577   15.8026 C   0  0  0  0  0  0  0  0  0  0  0  0
    8.3274  -11.2110   14.9413 C   0  0  0  0  0  0  0  0  0  0  0  0
    8.6399  -11.4172   13.4691 C   0  0  0  0  0  0  0  0  0  0  0  0
    8.9559  -12.8488   13.1096 N   0  0  0  0  0  0  0  0  0  0  0  0
   10.6141  -14.5128   12.2721 C   0  0  0  0  0  0  0  0  0  0  0  0
    9.5886  -14.9773   11.2448 N   0  0  0  0  0  0  0  0  0  0  0  0
    8.2423  -14.9337   11.9370 C   0  0  0  0  0  0  0  0  0  0  0  0
    7.8921  -13.4691   12.2230 C   0  0  0  0  0  0  0  0  0  0  0  0
   10.3615  -13.0292   12.5805 C   0  0  0  0  0  0  0  0  0  0  0  0
    9.9053  -16.3310   10.6352 C   0  0  0  0  0  0  0  0  0  0  0  0
  8  7  2  0  0  0
  7 12  1  0  0  0
  1  8  1  0  0  0
  8  9  1  0  0  0
  9 10  2  0  0  0
 10 11  1  0  0  0
 12 11  2  0  0  0
 12 13  1  0  0  0
  6  1  2  0  0  0
  2  1  1  0  0  0
  3  2  2  0  0  0
  4  3  1  0  0  0
 15  3  1  0  0  0
 19  4  1  0  0  0
  4  5  2  0  0  0
  5  6  1  0  0  0
 19 20  1  0  0  0
 21 20  1  0  0  0
 22 21  1  0  0  0
 23 22  1  0  0  0
 27 23  1  0  0  0
 28 23  1  0  0  0
 13 14  3  0  0  0
 16 15  1  0  0  0
 15 18  1  0  0  0
 15 17  1  0  0  0
 25 24  1  0  0  0
 24 28  1  0  0  0
 29 25  1  0  0  0
 25 26  1  0  0  0
 26 27  1  0  0  0
M  END
> <minimizedAffinity>
-6.91407

$$$$
3N3G_93N_A_221


 29 31  0  0  0  0  0  0  0  0999 V2000
   12.5257   -7.8759   18.5157 C   0  0  0  0  0  0  0  0  0  0  0  0
   13.1582   -8.8914   17.7747 C   0  0  0  0  0  0  0  0  0  0  0  0
   12.4604   -9.6570   16.7997 C   0  0  0  0  0  0  0  0  0  0  0  0
   11.0954   -9.3732   16.5474 C   0  0  0  0  0  0  0  0  0  0  0  0
   10.4667   -8.3661   17.2799 C   0  0  0  0  0  0  0  0  0  0  0  0
   11.1703   -7.6301   18.2334 C   0  0  0  0  0  0  0  0  0  0  0  0
   12.4976   -6.0587   20.0653 N   0  0  0  0  0  0  0  0  0  0  0  0
   13.2433   -7.0574   19.5163 C   0  0  0  0  0  0  0  0  0  0  0  0
   14.5833   -7.2213   19.8699 C   0  0  0  0  0  0  0  0  0  0  0  0
   15.1500   -6.3684   20.8137 C   0  0  0  0  0  0  0  0  0  0  0  0
   14.3855   -5.3575   21.3883 C   0  0  0  0  0  0  0  0  0  0  0  0
   13.0661   -5.2395   20.9845 C   0  0  0  0  0  0  0  0  0  0  0  0
   12.1829   -4.2532   21.5200 C   0  0  0  0  0  0  0  0  0  0  0  0
   11.3832   -3.5042   21.8919 N   0  0  0  0  0  0  0  0  0  0  0  0
   13.2222  -10.7314   16.0449 C   0  0  0  0  0  0  0  0  0  0  0  0
   14.5748  -10.6289   16.0364 F   0  0  0  0  0  0  0  0  0  0  0  0
   12.9085  -10.8125   14.7311 F   0  0  0  0  0  0  0  0  0  0  0  0
   12.9790  -11.9736   16.5116 F   0  0  0  0  0  0  0  0  0  0  0  0
   10.4344  -10.1216   15.6034 O   0  0  0  0  0  0  0  0  0  0  0  0
    9.4182  -11.0253   16.0405 C   0  0  0  0  0  0  0  0  0  0  0  0
    8.2672  -11.1201   15.0328 C   0  0  0  0  0  0  0  0  0  0  0  0
    8.7761  -11.2905   13.6117 C   0  0  0  0  0  0  0  0  0  0  0  0
    9.1943  -12.7027   13.2812 N   0  0  0  0  0  0  0  0  0  0  0  0
   10.9397  -14.2506   12.3992 C   0  0  0  0  0  0  0  0  0  0  0  0
    9.9005  -14.8396   11.4526 N   0  0  0  0  0  0  0  0  0  0  0  0
    8.5982  -14.8842   12.2243 C   0  0  0  0  0  0  0  0  0  0  0  0
    8.1388  -13.4448   12.4825 C   0  0  0  0  0  0  0  0  0  0  0  0
   10.5770  -12.7831   12.6731 C   0  0  0  0  0  0  0  0  0  0  0  0
   10.2981  -16.1838   10.8699 C   0  0  0  0  0  0  0  0  0  0  0  0
  8  7  2  0  0  0
  7 12  1  0  0  0
  1  8  1  0  0  0
  8  9  1  0  0  0
  9 10  2  0  0  0
 10 11  1  0  0  0
 12 11  2  0  0  0
 12 13  1  0  0  0
  6  1  2  0  0  0
  2  1  1  0  0  0
  3  2  2  0  0  0
  4  3  1  0  0  0
 15  3  1  0  0  0
 19  4  1  0  0  0
  4  5  2  0  0  0
  5  6  1  0  0  0
 19 20  1  0  0  0
 21 20  1  0  0  0
 22 21  1  0  0  0
 23 22  1  0  0  0
 27 23  1  0  0  0
 28 23  1  0  0  0
 13 14  3  0  0  0
 16 15  1  0  0  0
 15 18  1  0  0  0
 15 17  1  0  0  0
 25 24  1  0  0  0
 24 28  1  0  0  0
 29 25  1  0  0  0
 25 26  1  0  0  0
 26 27  1  0  0  0
M  END
> <minimizedAffinity>
-6.83727

$$$$
3N3G_93N_A_221


 29 31  0  0  0  0  0  0  0  0999 V2000
   12.4148   -7.6676   18.4873 C   0  0  0  0  0  0  0  0  0  0  0  0
   11.1087   -8.1799   18.5960 C   0  0  0  0  0  0  0  0  0  0  0  0
   10.5215   -8.9672   17.5669 C   0  0  0  0  0  0  0  0  0  0  0  0
   11.2813   -9.2669   16.4091 C   0  0  0  0  0  0  0  0  0  0  0  0
   12.5767   -8.7610   16.2998 C   0  0  0  0  0  0  0  0  0  0  0  0
   13.1311   -7.9885   17.3206 C   0  0  0  0  0  0  0  0  0  0  0  0
   12.2488   -5.8914   20.0755 N   0  0  0  0  0  0  0  0  0  0  0  0
   13.0463   -6.8666   19.5578 C   0  0  0  0  0  0  0  0  0  0  0  0
   14.3591   -7.0236   20.0043 C   0  0  0  0  0  0  0  0  0  0  0  0
   14.8438   -6.1886   21.0080 C   0  0  0  0  0  0  0  0  0  0  0  0
   14.0255   -5.2021   21.5500 C   0  0  0  0  0  0  0  0  0  0  0  0
   12.7376   -5.0895   21.0539 C   0  0  0  0  0  0  0  0  0  0  0  0
   11.8041   -4.1280   21.5478 C   0  0  0  0  0  0  0  0  0  0  0  0
   11.0450   -3.3054   21.8406 N   0  0  0  0  0  0  0  0  0  0  0  0
    9.1076   -9.4814   17.7691 C   0  0  0  0  0  0  0  0  0  0  0  0
    8.2020   -9.1712   16.8079 F   0  0  0  0  0  0  0  0  0  0  0  0
    8.5169   -9.0438   18.9051 F   0  0  0  0  0  0  0  0  0  0  0  0
    9.0471  -10.8252   17.8712 F   0  0  0  0  0  0  0  0  0  0  0  0
   10.7004  -10.0276   15.4232 O   0  0  0  0  0  0  0  0  0  0  0  0
   11.5304  -10.9094   14.6657 C   0  0  0  0  0  0  0  0  0  0  0  0
   11.4843  -12.3423   15.2076 C   0  0  0  0  0  0  0  0  0  0  0  0
   12.8759  -12.8826   15.4892 C   0  0  0  0  0  0  0  0  0  0  0  0
   13.3397  -12.6574   16.9078 N   0  0  0  0  0  0  0  0  0  0  0  0
   12.7507  -12.2263   19.2927 C   0  0  0  0  0  0  0  0  0  0  0  0
   13.7174  -11.0480   19.2902 N   0  0  0  0  0  0  0  0  0  0  0  0
   14.9040  -11.4723   18.4504 C   0  0  0  0  0  0  0  0  0  0  0  0
   14.4411  -11.6174   16.9964 C   0  0  0  0  0  0  0  0  0  0  0  0
   12.1994  -12.4107   17.8707 C   0  0  0  0  0  0  0  0  0  0  0  0
   14.1052  -10.5738   20.6791 C   0  0  0  0  0  0  0  0  0  0  0  0
  8  7  2  0  0  0
  7 12  1  0  0  0
  1  8  1  0  0  0
  8  9  1  0  0  0
  9 10  2  0  0  0
 10 11  1  0  0  0
 12 11  2  0  0  0
 12 13  1  0  0  0
  6  1  2  0  0  0
  2  1  1  0  0  0
  3  2  2  0  0  0
  4  3  1  0  0  0
 15  3  1  0  0  0
 19  4  1  0  0  0
  4  5  2  0  0  0
  5  6  1  0  0  0
 19 20  1  0  0  0
 21 20  1  0  0  0
 22 21  1  0  0  0
 23 22  1  0  0  0
 27 23  1  0  0  0
 28 23  1  0  0  0
 13 14  3  0  0  0
 16 15  1  0  0  0
 15 18  1  0  0  0
 15 17  1  0  0  0
 25 24  1  0  0  0
 24 28  1  0  0  0
 29 25  1  0  0  0
 25 26  1  0  0  0
 26 27  1  0  0  0
M  END
> <minimizedAffinity>
-6.81622

$$$$
3N3G_93N_A_221


 29 31  0  0  0  0  0  0  0  0999 V2000
   11.9304   -7.5820   18.3795 C   0  0  0  0  0  0  0  0  0  0  0  0
   10.6463   -8.1576   18.3914 C   0  0  0  0  0  0  0  0  0  0  0  0
   10.2112   -9.0470   17.3700 C   0  0  0  0  0  0  0  0  0  0  0  0
   11.1041   -9.3847   16.3230 C   0  0  0  0  0  0  0  0  0  0  0  0
   12.3779   -8.8162   16.3098 C   0  0  0  0  0  0  0  0  0  0  0  0
   12.7820   -7.9439   17.3207 C   0  0  0  0  0  0  0  0  0  0  0  0
   13.7378   -6.7616   19.7080 N   0  0  0  0  0  0  0  0  0  0  0  0
   12.4043   -6.6735   19.4454 C   0  0  0  0  0  0  0  0  0  0  0  0
   11.5893   -5.8139   20.1832 C   0  0  0  0  0  0  0  0  0  0  0  0
   12.1561   -5.0218   21.1786 C   0  0  0  0  0  0  0  0  0  0  0  0
   13.5213   -5.0981   21.4377 C   0  0  0  0  0  0  0  0  0  0  0  0
   14.2721   -5.9806   20.6794 C   0  0  0  0  0  0  0  0  0  0  0  0
   15.6831   -6.1283   20.8435 C   0  0  0  0  0  0  0  0  0  0  0  0
   16.8378   -6.1519   20.9129 N   0  0  0  0  0  0  0  0  0  0  0  0
    8.8101   -9.6238   17.4636 C   0  0  0  0  0  0  0  0  0  0  0  0
    8.0383   -9.5359   16.3516 F   0  0  0  0  0  0  0  0  0  0  0  0
    8.0409   -9.0561   18.4213 F   0  0  0  0  0  0  0  0  0  0  0  0
    8.8023  -10.9354   17.7793 F   0  0  0  0  0  0  0  0  0  0  0  0
   10.6694  -10.2444   15.3431 O   0  0  0  0  0  0  0  0  0  0  0  0
   11.6195  -10.7314   14.3941 C   0  0  0  0  0  0  0  0  0  0  0  0
   11.0712  -10.6867   12.9636 C   0  0  0  0  0  0  0  0  0  0  0  0
    9.5729  -10.9342   12.9272 C   0  0  0  0  0  0  0  0  0  0  0  0
    9.1988  -12.3965   12.9105 N   0  0  0  0  0  0  0  0  0  0  0  0
    8.1446  -14.3334   14.0756 C   0  0  0  0  0  0  0  0  0  0  0  0
    9.4125  -15.1406   13.8231 N   0  0  0  0  0  0  0  0  0  0  0  0
    9.9012  -14.7461   12.4450 C   0  0  0  0  0  0  0  0  0  0  0  0
   10.3570  -13.2835   12.4932 C   0  0  0  0  0  0  0  0  0  0  0  0
    8.5230  -12.8486   14.1861 C   0  0  0  0  0  0  0  0  0  0  0  0
    9.2254  -16.6381   13.9866 C   0  0  0  0  0  0  0  0  0  0  0  0
  8  7  2  0  0  0
  7 12  1  0  0  0
  1  8  1  0  0  0
  8  9  1  0  0  0
  9 10  2  0  0  0
 10 11  1  0  0  0
 12 11  2  0  0  0
 12 13  1  0  0  0
  6  1  2  0  0  0
  2  1  1  0  0  0
  3  2  2  0  0  0
  4  3  1  0  0  0
 15  3  1  0  0  0
 19  4  1  0  0  0
  4  5  2  0  0  0
  5  6  1  0  0  0
 19 20  1  0  0  0
 21 20  1  0  0  0
 22 21  1  0  0  0
 23 22  1  0  0  0
 27 23  1  0  0  0
 28 23  1  0  0  0
 13 14  3  0  0  0
 16 15  1  0  0  0
 15 18  1  0  0  0
 15 17  1  0  0  0
 25 24  1  0  0  0
 24 28  1  0  0  0
 29 25  1  0  0  0
 25 26  1  0  0  0
 26 27  1  0  0  0
M  END
> <minimizedAffinity>
-6.81165

$$$$
