2VRJ_NCW_A_1446


 26 27  0  0  0  0  0  0  0  0999 V2000
   -0.7688    9.0840    9.8686 N   0  0  0  0  0  0  0  0  0  0  0  0
   -1.7073    9.2068    8.7703 C   0  0  0  0  0  0  0  0  0  0  0  0
   -0.9282   10.0730    7.7949 C   0  0  0  0  0  0  0  0  0  0  0  0
   -1.8336   10.3750    6.7223 O   0  0  0  0  0  0  0  0  0  0  0  0
   -0.3578   11.3747    8.4160 C   0  0  0  0  0  0  0  0  0  0  0  0
    0.7316   11.9179    7.6702 O   0  0  0  0  0  0  0  0  0  0  0  0
    0.1927   11.1977    9.8372 C   0  0  0  0  0  0  0  0  0  0  0  0
    0.4454   12.4873   10.4343 O   0  0  0  0  0  0  0  0  0  0  0  0
   -2.7836   10.0424    9.4317 C   0  0  0  0  0  0  0  0  0  0  0  0
   -2.1176   10.7449   10.5013 O   0  0  0  0  0  0  0  0  0  0  0  0
   -0.7570   10.3060   10.6428 C   0  0  0  0  0  0  0  0  0  0  0  0
   -2.5986   10.8585    7.0715 H   0  0  0  0  0  0  0  0  0  0  0  0
    1.4810   11.3027    7.6980 H   0  0  0  0  0  0  0  0  0  0  0  0
   -0.3818   12.9921   10.4758 H   0  0  0  0  0  0  0  0  0  0  0  0
    0.3455    6.9216    9.0094 S   0  0  0  0  0  0  0  0  0  0  0  0
   -0.0378    7.9803   10.1356 C   0  0  0  0  0  0  0  0  0  0  0  0
    0.3928    7.7536   11.3818 N   0  0  0  0  0  0  0  0  0  0  0  0
    1.0258    8.3925   11.7821 H   0  0  0  0  0  0  0  0  0  0  0  0
   -0.0304    6.6051   12.1764 C   0  0  0  0  0  0  0  0  0  0  0  0
   -0.0156    6.9474   13.6604 C   0  0  0  0  0  0  0  0  0  0  0  0
   -1.1875    7.8611   14.0260 C   0  0  0  0  0  0  0  0  0  0  0  0
   -2.5229    7.3292   13.5574 C   0  0  0  0  0  0  0  0  0  0  0  0
   -3.3479    6.9691   14.8107 C   0  0  0  0  0  0  0  0  0  0  0  0
   -4.1514    5.7938   14.5317 C   0  0  0  0  0  0  0  0  0  0  0  0
   -3.5048    4.6279   15.3181 C   0  0  0  0  0  0  0  0  0  0  0  0
   -2.8526    3.7153   14.3361 C   0  0  0  0  0  0  0  0  0  0  0  0
 15 16  2  0  0  0
 16  1  1  0  0  0
 16 17  1  0  0  0
  1  2  1  0  0  0
  1 11  1  0  0  0
  2  3  1  0  0  0
  2  9  1  0  0  0
  3  4  1  0  0  0
  3  5  1  0  0  0
  5  6  1  0  0  0
  5  7  1  0  0  0
  7  8  1  0  0  0
  7 11  1  0  0  0
  9 10  1  0  0  0
 10 11  1  0  0  0
 17 19  1  0  0  0
 19 20  1  0  0  0
 20 21  1  0  0  0
 21 22  1  0  0  0
 22 23  1  0  0  0
 23 24  1  0  0  0
 24 25  1  0  0  0
 25 26  1  0  0  0
  4 12  1  0  0  0
  6 13  1  0  0  0
  8 14  1  0  0  0
 17 18  1  0  0  0
M  END
> <minimizedAffinity>
-8.36561

$$$$
2VRJ_NCW_A_1446


 26 27  0  0  0  0  0  0  0  0999 V2000
   -0.8153    8.9829    9.6883 N   0  0  0  0  0  0  0  0  0  0  0  0
   -1.8057    9.1971    8.6513 C   0  0  0  0  0  0  0  0  0  0  0  0
   -1.0691   10.1363    7.7111 C   0  0  0  0  0  0  0  0  0  0  0  0
   -2.0240   10.5268    6.7125 O   0  0  0  0  0  0  0  0  0  0  0  0
   -0.4593   11.3818    8.4057 C   0  0  0  0  0  0  0  0  0  0  0  0
    0.5961   11.9795    7.6528 O   0  0  0  0  0  0  0  0  0  0  0  0
    0.1591   11.0890    9.7790 C   0  0  0  0  0  0  0  0  0  0  0  0
    0.4505   12.3254   10.4644 O   0  0  0  0  0  0  0  0  0  0  0  0
   -2.8420    9.9804    9.4302 C   0  0  0  0  0  0  0  0  0  0  0  0
   -2.1190   10.5921   10.5184 O   0  0  0  0  0  0  0  0  0  0  0  0
   -0.7563   10.1385   10.5565 C   0  0  0  0  0  0  0  0  0  0  0  0
   -2.7673   10.9833    7.1369 H   0  0  0  0  0  0  0  0  0  0  0  0
    1.3414   11.3615    7.5938 H   0  0  0  0  0  0  0  0  0  0  0  0
   -0.3700   12.8281   10.5873 H   0  0  0  0  0  0  0  0  0  0  0  0
    0.5304    7.4126   11.2306 S   0  0  0  0  0  0  0  0  0  0  0  0
   -0.0803    7.8588    9.8292 C   0  0  0  0  0  0  0  0  0  0  0  0
    0.1495    7.0775    8.7678 N   0  0  0  0  0  0  0  0  0  0  0  0
    0.1169    7.4835    7.8715 H   0  0  0  0  0  0  0  0  0  0  0  0
    0.4461    5.6526    8.8742 C   0  0  0  0  0  0  0  0  0  0  0  0
   -0.8373    4.8342    8.8208 C   0  0  0  0  0  0  0  0  0  0  0  0
   -0.8196    3.8595    7.6412 C   0  0  0  0  0  0  0  0  0  0  0  0
    0.4648    3.9145    6.8455 C   0  0  0  0  0  0  0  0  0  0  0  0
    0.7332    2.4987    6.2939 C   0  0  0  0  0  0  0  0  0  0  0  0
    0.2513    1.5161    7.2464 C   0  0  0  0  0  0  0  0  0  0  0  0
    0.9822    0.1927    6.9138 C   0  0  0  0  0  0  0  0  0  0  0  0
    0.7254   -0.1279    5.4806 C   0  0  0  0  0  0  0  0  0  0  0  0
 15 16  2  0  0  0
 16  1  1  0  0  0
 16 17  1  0  0  0
  1  2  1  0  0  0
  1 11  1  0  0  0
  2  3  1  0  0  0
  2  9  1  0  0  0
  3  4  1  0  0  0
  3  5  1  0  0  0
  5  6  1  0  0  0
  5  7  1  0  0  0
  7  8  1  0  0  0
  7 11  1  0  0  0
  9 10  1  0  0  0
 10 11  1  0  0  0
 17 19  1  0  0  0
 19 20  1  0  0  0
 20 21  1  0  0  0
 21 22  1  0  0  0
 22 23  1  0  0  0
 23 24  1  0  0  0
 24 25  1  0  0  0
 25 26  1  0  0  0
  4 12  1  0  0  0
  6 13  1  0  0  0
  8 14  1  0  0  0
 17 18  1  0  0  0
M  END
> <minimizedAffinity>
-7.72950

$$$$
2VRJ_NCW_A_1446


 26 27  0  0  0  0  0  0  0  0999 V2000
   -0.9377    9.0468    9.6631 N   0  0  0  0  0  0  0  0  0  0  0  0
   -1.8749    9.3002    8.5863 C   0  0  0  0  0  0  0  0  0  0  0  0
   -1.0514   10.1813    7.6622 C   0  0  0  0  0  0  0  0  0  0  0  0
   -1.9445   10.6094    6.6227 O   0  0  0  0  0  0  0  0  0  0  0  0
   -0.3978   11.4012    8.3624 C   0  0  0  0  0  0  0  0  0  0  0  0
    0.7174   11.9264    7.6422 O   0  0  0  0  0  0  0  0  0  0  0  0
    0.1513   11.0956    9.7622 C   0  0  0  0  0  0  0  0  0  0  0  0
    0.4870   12.3243   10.4413 O   0  0  0  0  0  0  0  0  0  0  0  0
   -2.8931   10.1530    9.3145 C   0  0  0  0  0  0  0  0  0  0  0  0
   -2.1774   10.7400   10.4209 O   0  0  0  0  0  0  0  0  0  0  0  0
   -0.8453   10.2108   10.5171 C   0  0  0  0  0  0  0  0  0  0  0  0
   -2.6759   11.1137    7.0122 H   0  0  0  0  0  0  0  0  0  0  0  0
    1.4279   11.2664    7.6201 H   0  0  0  0  0  0  0  0  0  0  0  0
   -0.3074   12.8744   10.5259 H   0  0  0  0  0  0  0  0  0  0  0  0
    0.5184    7.5627   11.1906 S   0  0  0  0  0  0  0  0  0  0  0  0
   -0.2737    7.8854    9.8473 C   0  0  0  0  0  0  0  0  0  0  0  0
   -0.2739    6.9593    8.8818 N   0  0  0  0  0  0  0  0  0  0  0  0
   -0.8350    7.1112    8.0872 H   0  0  0  0  0  0  0  0  0  0  0  0
    0.5173    5.7350    8.9491 C   0  0  0  0  0  0  0  0  0  0  0  0
   -0.3912    4.5139    9.0053 C   0  0  0  0  0  0  0  0  0  0  0  0
   -0.5582    4.0180   10.4433 C   0  0  0  0  0  0  0  0  0  0  0  0
    0.7569    3.6965   11.1163 C   0  0  0  0  0  0  0  0  0  0  0  0
    0.4428    2.8899   12.3937 C   0  0  0  0  0  0  0  0  0  0  0  0
    1.4515    3.1736   13.3973 C   0  0  0  0  0  0  0  0  0  0  0  0
    1.6283    4.7113   13.4139 C   0  0  0  0  0  0  0  0  0  0  0  0
    0.8637    5.2507   14.5745 C   0  0  0  0  0  0  0  0  0  0  0  0
 15 16  2  0  0  0
 16  1  1  0  0  0
 16 17  1  0  0  0
  1  2  1  0  0  0
  1 11  1  0  0  0
  2  3  1  0  0  0
  2  9  1  0  0  0
  3  4  1  0  0  0
  3  5  1  0  0  0
  5  6  1  0  0  0
  5  7  1  0  0  0
  7  8  1  0  0  0
  7 11  1  0  0  0
  9 10  1  0  0  0
 10 11  1  0  0  0
 17 19  1  0  0  0
 19 20  1  0  0  0
 20 21  1  0  0  0
 21 22  1  0  0  0
 22 23  1  0  0  0
 23 24  1  0  0  0
 24 25  1  0  0  0
 25 26  1  0  0  0
  4 12  1  0  0  0
  6 13  1  0  0  0
  8 14  1  0  0  0
 17 18  1  0  0  0
M  END
> <minimizedAffinity>
-7.52608

$$$$
2VRJ_NCW_A_1446


 26 27  0  0  0  0  0  0  0  0999 V2000
   -0.8977    8.9900    9.6591 N   0  0  0  0  0  0  0  0  0  0  0  0
   -1.8607    9.2381    8.6039 C   0  0  0  0  0  0  0  0  0  0  0  0
   -1.0751   10.1519    7.6785 C   0  0  0  0  0  0  0  0  0  0  0  0
   -1.9973   10.5751    6.6627 O   0  0  0  0  0  0  0  0  0  0  0  0
   -0.4363   11.3758    8.3855 C   0  0  0  0  0  0  0  0  0  0  0  0
    0.6528   11.9374    7.6530 O   0  0  0  0  0  0  0  0  0  0  0  0
    0.1460   11.0616    9.7699 C   0  0  0  0  0  0  0  0  0  0  0  0
    0.4664   12.2873   10.4618 O   0  0  0  0  0  0  0  0  0  0  0  0
   -2.8841   10.0560    9.3641 C   0  0  0  0  0  0  0  0  0  0  0  0
   -2.1611   10.6424   10.4661 O   0  0  0  0  0  0  0  0  0  0  0  0
   -0.8157   10.1427   10.5293 C   0  0  0  0  0  0  0  0  0  0  0  0
   -2.7324   11.0564    7.0735 H   0  0  0  0  0  0  0  0  0  0  0  0
    1.3776   11.2944    7.6075 H   0  0  0  0  0  0  0  0  0  0  0  0
   -0.3386   12.8176   10.5698 H   0  0  0  0  0  0  0  0  0  0  0  0
    0.4472    7.4213   11.2037 S   0  0  0  0  0  0  0  0  0  0  0  0
   -0.2041    7.8415    9.8126 C   0  0  0  0  0  0  0  0  0  0  0  0
   -0.0524    7.0127    8.7735 N   0  0  0  0  0  0  0  0  0  0  0  0
   -0.2515    7.3518    7.8709 H   0  0  0  0  0  0  0  0  0  0  0  0
    0.3940    5.6304    8.9130 C   0  0  0  0  0  0  0  0  0  0  0  0
   -0.8004    4.6903    9.0104 C   0  0  0  0  0  0  0  0  0  0  0  0
   -0.3973    3.3510    9.6314 C   0  0  0  0  0  0  0  0  0  0  0  0
    1.0057    3.3568   10.1948 C   0  0  0  0  0  0  0  0  0  0  0  0
    0.8943    3.2085   11.7266 C   0  0  0  0  0  0  0  0  0  0  0  0
    1.8632    2.2298   12.1830 C   0  0  0  0  0  0  0  0  0  0  0  0
    2.0348    1.2153   11.0266 C   0  0  0  0  0  0  0  0  0  0  0  0
    3.2058    0.3488   11.3435 C   0  0  0  0  0  0  0  0  0  0  0  0
 15 16  2  0  0  0
 16  1  1  0  0  0
 16 17  1  0  0  0
  1  2  1  0  0  0
  1 11  1  0  0  0
  2  3  1  0  0  0
  2  9  1  0  0  0
  3  4  1  0  0  0
  3  5  1  0  0  0
  5  6  1  0  0  0
  5  7  1  0  0  0
  7  8  1  0  0  0
  7 11  1  0  0  0
  9 10  1  0  0  0
 10 11  1  0  0  0
 17 19  1  0  0  0
 19 20  1  0  0  0
 20 21  1  0  0  0
 21 22  1  0  0  0
 22 23  1  0  0  0
 23 24  1  0  0  0
 24 25  1  0  0  0
 25 26  1  0  0  0
  4 12  1  0  0  0
  6 13  1  0  0  0
  8 14  1  0  0  0
 17 18  1  0  0  0
M  END
> <minimizedAffinity>
-7.48496

$$$$
2VRJ_NCW_A_1446


 26 27  0  0  0  0  0  0  0  0999 V2000
   -0.3266    6.0071   13.3822 N   0  0  0  0  0  0  0  0  0  0  0  0
   -0.6209    4.7586   14.0581 C   0  0  0  0  0  0  0  0  0  0  0  0
   -2.1353    4.8166   14.1667 C   0  0  0  0  0  0  0  0  0  0  0  0
   -2.5198    3.6810   14.9566 O   0  0  0  0  0  0  0  0  0  0  0  0
   -2.6781    6.1291   14.7900 C   0  0  0  0  0  0  0  0  0  0  0  0
   -4.0437    6.3808   14.4586 O   0  0  0  0  0  0  0  0  0  0  0  0
   -1.9288    7.3896   14.3387 C   0  0  0  0  0  0  0  0  0  0  0  0
   -2.3098    8.5130   15.1611 O   0  0  0  0  0  0  0  0  0  0  0  0
   -0.0108    5.0403   15.4155 C   0  0  0  0  0  0  0  0  0  0  0  0
   -0.0025    6.4776   15.5389 O   0  0  0  0  0  0  0  0  0  0  0  0
   -0.4238    7.1062   14.3177 C   0  0  0  0  0  0  0  0  0  0  0  0
   -2.1125    3.7449   15.8346 H   0  0  0  0  0  0  0  0  0  0  0  0
   -4.1223    6.5305   13.5035 H   0  0  0  0  0  0  0  0  0  0  0  0
   -2.0870    8.3265   16.0865 H   0  0  0  0  0  0  0  0  0  0  0  0
    1.3504    5.4834   11.4929 S   0  0  0  0  0  0  0  0  0  0  0  0
    0.0111    6.1149   12.0791 C   0  0  0  0  0  0  0  0  0  0  0  0
   -0.7966    6.7665   11.2348 N   0  0  0  0  0  0  0  0  0  0  0  0
   -1.6397    6.3349   10.9662 H   0  0  0  0  0  0  0  0  0  0  0  0
   -0.4887    8.0859   10.6928 C   0  0  0  0  0  0  0  0  0  0  0  0
   -1.5729    9.0860   11.0724 C   0  0  0  0  0  0  0  0  0  0  0  0
   -2.8722    8.8027   10.3151 C   0  0  0  0  0  0  0  0  0  0  0  0
   -2.8072    9.1976    8.8572 C   0  0  0  0  0  0  0  0  0  0  0  0
   -2.3894   10.6816    8.7936 C   0  0  0  0  0  0  0  0  0  0  0  0
   -1.2427   10.8174    7.9152 C   0  0  0  0  0  0  0  0  0  0  0  0
   -0.4271   12.0207    8.4470 C   0  0  0  0  0  0  0  0  0  0  0  0
    0.3289   11.5694    9.6500 C   0  0  0  0  0  0  0  0  0  0  0  0
 15 16  2  0  0  0
 16  1  1  0  0  0
 16 17  1  0  0  0
  1  2  1  0  0  0
  1 11  1  0  0  0
  2  3  1  0  0  0
  2  9  1  0  0  0
  3  4  1  0  0  0
  3  5  1  0  0  0
  5  6  1  0  0  0
  5  7  1  0  0  0
  7  8  1  0  0  0
  7 11  1  0  0  0
  9 10  1  0  0  0
 10 11  1  0  0  0
 17 19  1  0  0  0
 19 20  1  0  0  0
 20 21  1  0  0  0
 21 22  1  0  0  0
 22 23  1  0  0  0
 23 24  1  0  0  0
 24 25  1  0  0  0
 25 26  1  0  0  0
  4 12  1  0  0  0
  6 13  1  0  0  0
  8 14  1  0  0  0
 17 18  1  0  0  0
M  END
> <minimizedAffinity>
-6.82518

$$$$
2VRJ_NCW_A_1446


 26 27  0  0  0  0  0  0  0  0999 V2000
   -1.0424    9.0863    9.7610 N   0  0  0  0  0  0  0  0  0  0  0  0
   -1.9145    9.3065    8.6239 C   0  0  0  0  0  0  0  0  0  0  0  0
   -1.0200   10.1186    7.7024 C   0  0  0  0  0  0  0  0  0  0  0  0
   -1.8454   10.5140    6.5961 O   0  0  0  0  0  0  0  0  0  0  0  0
   -0.3716   11.3568    8.3748 C   0  0  0  0  0  0  0  0  0  0  0  0
    0.7937   11.8170    7.6903 O   0  0  0  0  0  0  0  0  0  0  0  0
    0.0946   11.1106    9.8157 C   0  0  0  0  0  0  0  0  0  0  0  0
    0.4271   12.3642   10.4494 O   0  0  0  0  0  0  0  0  0  0  0  0
   -2.9462   10.2201    9.2523 C   0  0  0  0  0  0  0  0  0  0  0  0
   -2.2742   10.8459   10.3649 O   0  0  0  0  0  0  0  0  0  0  0  0
   -0.9637   10.2903   10.5593 C   0  0  0  0  0  0  0  0  0  0  0  0
   -2.5823   11.0553    6.9198 H   0  0  0  0  0  0  0  0  0  0  0  0
    1.4863   11.1397    7.7397 H   0  0  0  0  0  0  0  0  0  0  0  0
   -0.3556   12.9370   10.4633 H   0  0  0  0  0  0  0  0  0  0  0  0
    0.5074    7.1781    8.9784 S   0  0  0  0  0  0  0  0  0  0  0  0
   -0.4206    7.9202   10.0388 C   0  0  0  0  0  0  0  0  0  0  0  0
   -0.5728    7.3559   11.2421 N   0  0  0  0  0  0  0  0  0  0  0  0
   -1.4813    7.2849   11.6146 H   0  0  0  0  0  0  0  0  0  0  0  0
    0.5425    6.8404   12.0294 C   0  0  0  0  0  0  0  0  0  0  0  0
    0.0493    5.8310   13.0578 C   0  0  0  0  0  0  0  0  0  0  0  0
    0.6893    4.4592   12.8332 C   0  0  0  0  0  0  0  0  0  0  0  0
    1.6078    4.0417   13.9591 C   0  0  0  0  0  0  0  0  0  0  0  0
    1.6947    2.5012   13.9439 C   0  0  0  0  0  0  0  0  0  0  0  0
    0.8392    1.9646   14.9857 C   0  0  0  0  0  0  0  0  0  0  0  0
   -0.2143    1.0830   14.2725 C   0  0  0  0  0  0  0  0  0  0  0  0
    0.4732    0.3345   13.1818 C   0  0  0  0  0  0  0  0  0  0  0  0
 15 16  2  0  0  0
 16  1  1  0  0  0
 16 17  1  0  0  0
  1  2  1  0  0  0
  1 11  1  0  0  0
  2  3  1  0  0  0
  2  9  1  0  0  0
  3  4  1  0  0  0
  3  5  1  0  0  0
  5  6  1  0  0  0
  5  7  1  0  0  0
  7  8  1  0  0  0
  7 11  1  0  0  0
  9 10  1  0  0  0
 10 11  1  0  0  0
 17 19  1  0  0  0
 19 20  1  0  0  0
 20 21  1  0  0  0
 21 22  1  0  0  0
 22 23  1  0  0  0
 23 24  1  0  0  0
 24 25  1  0  0  0
 25 26  1  0  0  0
  4 12  1  0  0  0
  6 13  1  0  0  0
  8 14  1  0  0  0
 17 18  1  0  0  0
M  END
> <minimizedAffinity>
-6.75317

$$$$
2VRJ_NCW_A_1446


 26 27  0  0  0  0  0  0  0  0999 V2000
   -0.1600    3.9402   10.2726 N   0  0  0  0  0  0  0  0  0  0  0  0
    0.2946    2.5814   10.4937 C   0  0  0  0  0  0  0  0  0  0  0  0
    1.2936    2.4029    9.3629 C   0  0  0  0  0  0  0  0  0  0  0  0
    1.7007    1.0267    9.4072 O   0  0  0  0  0  0  0  0  0  0  0  0
    0.7389    2.7674    7.9611 C   0  0  0  0  0  0  0  0  0  0  0  0
    1.7660    3.0571    7.0128 O   0  0  0  0  0  0  0  0  0  0  0  0
   -0.1622    4.0092    7.9513 C   0  0  0  0  0  0  0  0  0  0  0  0
   -0.8454    4.1150    6.6841 O   0  0  0  0  0  0  0  0  0  0  0  0
   -0.9730    1.8197   10.1662 C   0  0  0  0  0  0  0  0  0  0  0  0
   -1.7238    2.6871    9.2916 O   0  0  0  0  0  0  0  0  0  0  0  0
   -1.0927    3.9717    9.1672 C   0  0  0  0  0  0  0  0  0  0  0  0
    0.9277    0.4564    9.2723 H   0  0  0  0  0  0  0  0  0  0  0  0
    2.2423    3.8566    7.2863 H   0  0  0  0  0  0  0  0  0  0  0  0
   -1.3921    3.3260    6.5447 H   0  0  0  0  0  0  0  0  0  0  0  0
    1.6744    5.1313   11.6408 S   0  0  0  0  0  0  0  0  0  0  0  0
    0.2176    5.0069   11.0097 C   0  0  0  0  0  0  0  0  0  0  0  0
   -0.6459    6.0060   11.2240 N   0  0  0  0  0  0  0  0  0  0  0  0
   -1.5430    5.9439   10.8231 H   0  0  0  0  0  0  0  0  0  0  0  0
   -0.3227    7.1834   12.0232 C   0  0  0  0  0  0  0  0  0  0  0  0
   -1.1165    8.3907   11.5414 C   0  0  0  0  0  0  0  0  0  0  0  0
   -1.6384    8.1742   10.1193 C   0  0  0  0  0  0  0  0  0  0  0  0
   -2.7062    9.1679    9.7217 C   0  0  0  0  0  0  0  0  0  0  0  0
   -2.2216    9.8886    8.4462 C   0  0  0  0  0  0  0  0  0  0  0  0
   -2.0188   11.2948    8.7405 C   0  0  0  0  0  0  0  0  0  0  0  0
   -0.5409   11.6022    8.3981 C   0  0  0  0  0  0  0  0  0  0  0  0
    0.2578   11.4785    9.6509 C   0  0  0  0  0  0  0  0  0  0  0  0
 15 16  2  0  0  0
 16  1  1  0  0  0
 16 17  1  0  0  0
  1  2  1  0  0  0
  1 11  1  0  0  0
  2  3  1  0  0  0
  2  9  1  0  0  0
  3  4  1  0  0  0
  3  5  1  0  0  0
  5  6  1  0  0  0
  5  7  1  0  0  0
  7  8  1  0  0  0
  7 11  1  0  0  0
  9 10  1  0  0  0
 10 11  1  0  0  0
 17 19  1  0  0  0
 19 20  1  0  0  0
 20 21  1  0  0  0
 21 22  1  0  0  0
 22 23  1  0  0  0
 23 24  1  0  0  0
 24 25  1  0  0  0
 25 26  1  0  0  0
  4 12  1  0  0  0
  6 13  1  0  0  0
  8 14  1  0  0  0
 17 18  1  0  0  0
M  END
> <minimizedAffinity>
-6.22916

$$$$
2VRJ_NCW_A_1446


 26 27  0  0  0  0  0  0  0  0999 V2000
   -1.4569    4.8051   14.8314 N   0  0  0  0  0  0  0  0  0  0  0  0
   -0.0120    4.9196   14.8665 C   0  0  0  0  0  0  0  0  0  0  0  0
    0.3397    4.8351   13.3907 C   0  0  0  0  0  0  0  0  0  0  0  0
    1.7735    4.7951   13.3266 O   0  0  0  0  0  0  0  0  0  0  0  0
   -0.2777    3.6149   12.6589 C   0  0  0  0  0  0  0  0  0  0  0  0
   -0.3518    3.7918   11.2442 O   0  0  0  0  0  0  0  0  0  0  0  0
   -1.7156    3.2936   13.0873 C   0  0  0  0  0  0  0  0  0  0  0  0
   -2.1092    2.0042   12.5716 O   0  0  0  0  0  0  0  0  0  0  0  0
    0.3427    3.6106   15.5409 C   0  0  0  0  0  0  0  0  0  0  0  0
   -0.7667    2.7292   15.2700 O   0  0  0  0  0  0  0  0  0  0  0  0
   -1.8345    3.4265   14.6085 C   0  0  0  0  0  0  0  0  0  0  0  0
    2.0966    4.0121   13.7993 H   0  0  0  0  0  0  0  0  0  0  0  0
   -0.9644    4.5158   11.0406 H   0  0  0  0  0  0  0  0  0  0  0  0
   -1.5149    1.3214   12.9202 H   0  0  0  0  0  0  0  0  0  0  0  0
   -3.8847    5.6768   14.7948 S   0  0  0  0  0  0  0  0  0  0  0  0
   -2.3142    5.8337   15.0064 C   0  0  0  0  0  0  0  0  0  0  0  0
   -1.8479    7.0322   15.3753 N   0  0  0  0  0  0  0  0  0  0  0  0
   -1.3480    7.1004   16.2207 H   0  0  0  0  0  0  0  0  0  0  0  0
   -2.0445    8.2433   14.5853 C   0  0  0  0  0  0  0  0  0  0  0  0
   -1.0998    8.2614   13.3908 C   0  0  0  0  0  0  0  0  0  0  0  0
   -1.8778    8.2249   12.0735 C   0  0  0  0  0  0  0  0  0  0  0  0
   -1.0383    7.7701   10.9012 C   0  0  0  0  0  0  0  0  0  0  0  0
   -1.7022    8.3062    9.6156 C   0  0  0  0  0  0  0  0  0  0  0  0
   -2.9392    8.9803    9.9628 C   0  0  0  0  0  0  0  0  0  0  0  0
   -3.3331    9.8290    8.7296 C   0  0  0  0  0  0  0  0  0  0  0  0
   -2.0896   10.4278    8.1661 C   0  0  0  0  0  0  0  0  0  0  0  0
 15 16  2  0  0  0
 16  1  1  0  0  0
 16 17  1  0  0  0
  1  2  1  0  0  0
  1 11  1  0  0  0
  2  3  1  0  0  0
  2  9  1  0  0  0
  3  4  1  0  0  0
  3  5  1  0  0  0
  5  6  1  0  0  0
  5  7  1  0  0  0
  7  8  1  0  0  0
  7 11  1  0  0  0
  9 10  1  0  0  0
 10 11  1  0  0  0
 17 19  1  0  0  0
 19 20  1  0  0  0
 20 21  1  0  0  0
 21 22  1  0  0  0
 22 23  1  0  0  0
 23 24  1  0  0  0
 24 25  1  0  0  0
 25 26  1  0  0  0
  4 12  1  0  0  0
  6 13  1  0  0  0
  8 14  1  0  0  0
 17 18  1  0  0  0
M  END
> <minimizedAffinity>
-6.15072

$$$$
2VRJ_NCW_A_1446


 26 27  0  0  0  0  0  0  0  0999 V2000
   -0.0616    4.1242   12.2039 N   0  0  0  0  0  0  0  0  0  0  0  0
    0.8934    5.1480   11.8269 C   0  0  0  0  0  0  0  0  0  0  0  0
    0.2214    5.7632   10.6110 C   0  0  0  0  0  0  0  0  0  0  0  0
    1.1630    6.7031   10.0709 O   0  0  0  0  0  0  0  0  0  0  0  0
   -0.2079    4.7340    9.5331 C   0  0  0  0  0  0  0  0  0  0  0  0
   -1.2255    5.2293    8.6628 O   0  0  0  0  0  0  0  0  0  0  0  0
   -0.7857    3.4340   10.1080 C   0  0  0  0  0  0  0  0  0  0  0  0
   -0.9005    2.4405    9.0672 O   0  0  0  0  0  0  0  0  0  0  0  0
    2.0494    4.2804   11.3742 C   0  0  0  0  0  0  0  0  0  0  0  0
    1.4558    3.0212   10.9959 O   0  0  0  0  0  0  0  0  0  0  0  0
    0.0543    2.9924   11.3103 C   0  0  0  0  0  0  0  0  0  0  0  0
    1.9735    6.2368    9.8130 H   0  0  0  0  0  0  0  0  0  0  0  0
   -2.0379    5.3832    9.1699 H   0  0  0  0  0  0  0  0  0  0  0  0
   -0.0234    2.2596    8.6947 H   0  0  0  0  0  0  0  0  0  0  0  0
   -1.6478    2.9380   13.8569 S   0  0  0  0  0  0  0  0  0  0  0  0
   -0.9110    4.2127   13.2499 C   0  0  0  0  0  0  0  0  0  0  0  0
   -1.1508    5.4025   13.8126 N   0  0  0  0  0  0  0  0  0  0  0  0
   -0.3858    5.9281   14.1408 H   0  0  0  0  0  0  0  0  0  0  0  0
   -2.4914    5.9589   13.9636 C   0  0  0  0  0  0  0  0  0  0  0  0
   -2.4353    7.4799   14.0214 C   0  0  0  0  0  0  0  0  0  0  0  0
   -1.4130    8.0310   13.0249 C   0  0  0  0  0  0  0  0  0  0  0  0
   -2.0268    8.4188   11.6988 C   0  0  0  0  0  0  0  0  0  0  0  0
   -1.0137    9.3187   10.9607 C   0  0  0  0  0  0  0  0  0  0  0  0
   -1.6793    9.9772    9.8524 C   0  0  0  0  0  0  0  0  0  0  0  0
   -2.7008    8.9586    9.2910 C   0  0  0  0  0  0  0  0  0  0  0  0
   -3.7901    9.7218    8.6176 C   0  0  0  0  0  0  0  0  0  0  0  0
 15 16  2  0  0  0
 16  1  1  0  0  0
 16 17  1  0  0  0
  1  2  1  0  0  0
  1 11  1  0  0  0
  2  3  1  0  0  0
  2  9  1  0  0  0
  3  4  1  0  0  0
  3  5  1  0  0  0
  5  6  1  0  0  0
  5  7  1  0  0  0
  7  8  1  0  0  0
  7 11  1  0  0  0
  9 10  1  0  0  0
 10 11  1  0  0  0
 17 19  1  0  0  0
 19 20  1  0  0  0
 20 21  1  0  0  0
 21 22  1  0  0  0
 22 23  1  0  0  0
 23 24  1  0  0  0
 24 25  1  0  0  0
 25 26  1  0  0  0
  4 12  1  0  0  0
  6 13  1  0  0  0
  8 14  1  0  0  0
 17 18  1  0  0  0
M  END
> <minimizedAffinity>
-6.14237

$$$$
2VRJ_NCW_A_1446


 26 27  0  0  0  0  0  0  0  0999 V2000
    0.4413    2.0876    9.7050 N   0  0  0  0  0  0  0  0  0  0  0  0
    0.5475    0.9099    8.8661 C   0  0  0  0  0  0  0  0  0  0  0  0
    1.2381    1.4705    7.6342 C   0  0  0  0  0  0  0  0  0  0  0  0
    1.2625    0.4037    6.6735 O   0  0  0  0  0  0  0  0  0  0  0  0
    0.5550    2.7299    7.0402 C   0  0  0  0  0  0  0  0  0  0  0  0
    1.4310    3.5067    6.2233 O   0  0  0  0  0  0  0  0  0  0  0  0
    0.0337    3.7127    8.0969 C   0  0  0  0  0  0  0  0  0  0  0  0
   -0.8157    4.7014    7.4769 O   0  0  0  0  0  0  0  0  0  0  0  0
   -0.9155    0.6718    8.5546 C   0  0  0  0  0  0  0  0  0  0  0  0
   -1.5530    1.9561    8.7133 O   0  0  0  0  0  0  0  0  0  0  0  0
   -0.6345    2.9313    9.2322 C   0  0  0  0  0  0  0  0  0  0  0  0
    0.3538    0.1372    6.4632 H   0  0  0  0  0  0  0  0  0  0  0  0
    2.1458    3.8693    6.7696 H   0  0  0  0  0  0  0  0  0  0  0  0
   -1.5698    4.2610    7.0547 H   0  0  0  0  0  0  0  0  0  0  0  0
    2.3768    1.3472   11.2417 S   0  0  0  0  0  0  0  0  0  0  0  0
    1.2190    2.3384   10.7802 C   0  0  0  0  0  0  0  0  0  0  0  0
    1.0292    3.4552   11.4918 N   0  0  0  0  0  0  0  0  0  0  0  0
    0.2559    3.4975   12.0997 H   0  0  0  0  0  0  0  0  0  0  0  0
    1.9127    4.6138   11.4109 C   0  0  0  0  0  0  0  0  0  0  0  0
    1.1258    5.9014   11.6170 C   0  0  0  0  0  0  0  0  0  0  0  0
    0.8977    6.6256   10.2883 C   0  0  0  0  0  0  0  0  0  0  0  0
   -0.5094    7.1576   10.1367 C   0  0  0  0  0  0  0  0  0  0  0  0
   -0.4222    8.4990    9.3791 C   0  0  0  0  0  0  0  0  0  0  0  0
   -1.5054    9.3622    9.8109 C   0  0  0  0  0  0  0  0  0  0  0  0
   -2.1650    9.9104    8.5223 C   0  0  0  0  0  0  0  0  0  0  0  0
   -3.6365    9.6973    8.6312 C   0  0  0  0  0  0  0  0  0  0  0  0
 15 16  2  0  0  0
 16  1  1  0  0  0
 16 17  1  0  0  0
  1  2  1  0  0  0
  1 11  1  0  0  0
  2  3  1  0  0  0
  2  9  1  0  0  0
  3  4  1  0  0  0
  3  5  1  0  0  0
  5  6  1  0  0  0
  5  7  1  0  0  0
  7  8  1  0  0  0
  7 11  1  0  0  0
  9 10  1  0  0  0
 10 11  1  0  0  0
 17 19  1  0  0  0
 19 20  1  0  0  0
 20 21  1  0  0  0
 21 22  1  0  0  0
 22 23  1  0  0  0
 23 24  1  0  0  0
 24 25  1  0  0  0
 25 26  1  0  0  0
  4 12  1  0  0  0
  6 13  1  0  0  0
  8 14  1  0  0  0
 17 18  1  0  0  0
M  END
> <minimizedAffinity>
-5.99269

$$$$
