1C5S_ESX_A_246


 16 17  0  0  0  0  0  0  0  0999 V2000
   45.7814   19.6652   53.0934 C   0  0  0  0  0  0  0  0  0  0  0  0
   44.8814   19.7329   51.4547 S   0  0  0  0  0  0  0  0  0  0  0  0
   45.1790   21.4613   51.2499 C   0  0  0  0  0  0  0  0  0  0  0  0
   45.8957   21.9108   52.3506 C   0  0  0  0  0  0  0  0  0  0  0  0
   46.2191   20.9583   53.3228 C   0  0  0  0  0  0  0  0  0  0  0  0
   44.7954   22.2913   50.2113 C   0  0  0  0  0  0  0  0  0  0  0  0
   45.1334   23.6310   50.2535 C   0  0  0  0  0  0  0  0  0  0  0  0
   45.8558   24.1179   51.3371 C   0  0  0  0  0  0  0  0  0  0  0  0
   46.2318   23.2608   52.3782 C   0  0  0  0  0  0  0  0  0  0  0  0
   45.9006   18.5021   53.8007 C   0  0  0  0  0  0  0  0  0  0  0  0
   45.0390   17.5515   53.6185 N   0  0  0  0  0  0  0  0  0  0  0  0
   46.8884   18.4509   54.6393 N   0  0  0  0  0  0  0  0  0  0  0  0
   44.3140   17.6635   52.9620 H   0  0  0  0  0  0  0  0  0  0  0  0
   45.1094   16.7174   54.1367 H   0  0  0  0  0  0  0  0  0  0  0  0
   47.5037   19.2149   54.7223 H   0  0  0  0  0  0  0  0  0  0  0  0
   47.0230   17.6480   55.1929 H   0  0  0  0  0  0  0  0  0  0  0  0
 10  1  1  0  0  0
 10 11  1  0  0  0
 10 12  2  0  0  0
  1  2  1  0  0  0
  1  5  2  0  0  0
  2  3  1  0  0  0
  3  4  2  0  0  0
  3  6  1  0  0  0
  4  5  1  0  0  0
  4  9  1  0  0  0
  6  7  2  0  0  0
  7  8  1  0  0  0
  8  9  2  0  0  0
 11 13  1  0  0  0
 11 14  1  0  0  0
 12 15  1  0  0  0
 12 16  1  0  0  0
M  CHG 1  12   1
M  END
> <minimizedAffinity>
-6.51248

$$$$
1C5S_ESX_A_246


 16 17  0  0  0  0  0  0  0  0999 V2000
   45.7203   19.6783   53.0226 C   0  0  0  0  0  0  0  0  0  0  0  0
   46.3217   21.3063   53.7211 S   0  0  0  0  0  0  0  0  0  0  0  0
   45.8302   22.2156   52.2895 C   0  0  0  0  0  0  0  0  0  0  0  0
   45.2689   21.3263   51.3832 C   0  0  0  0  0  0  0  0  0  0  0  0
   45.2058   19.9847   51.7746 C   0  0  0  0  0  0  0  0  0  0  0  0
   45.9528   23.5706   52.0371 C   0  0  0  0  0  0  0  0  0  0  0  0
   45.5004   24.0801   50.8344 C   0  0  0  0  0  0  0  0  0  0  0  0
   44.9270   23.2217   49.9031 C   0  0  0  0  0  0  0  0  0  0  0  0
   44.8148   21.8536   50.1782 C   0  0  0  0  0  0  0  0  0  0  0  0
   45.8332   18.5101   53.7226 C   0  0  0  0  0  0  0  0  0  0  0  0
   44.9672   17.5650   53.5335 N   0  0  0  0  0  0  0  0  0  0  0  0
   46.8199   18.4488   54.5617 N   0  0  0  0  0  0  0  0  0  0  0  0
   44.2434   17.6846   52.8771 H   0  0  0  0  0  0  0  0  0  0  0  0
   45.0330   16.7272   54.0464 H   0  0  0  0  0  0  0  0  0  0  0  0
   47.4389   19.2093   54.6502 H   0  0  0  0  0  0  0  0  0  0  0  0
   46.9501   17.6417   55.1103 H   0  0  0  0  0  0  0  0  0  0  0  0
 10  1  1  0  0  0
 10 11  1  0  0  0
 10 12  2  0  0  0
  1  2  1  0  0  0
  1  5  2  0  0  0
  2  3  1  0  0  0
  3  4  2  0  0  0
  3  6  1  0  0  0
  4  5  1  0  0  0
  4  9  1  0  0  0
  6  7  2  0  0  0
  7  8  1  0  0  0
  8  9  2  0  0  0
 11 13  1  0  0  0
 11 14  1  0  0  0
 12 15  1  0  0  0
 12 16  1  0  0  0
M  CHG 1  12   1
M  END
> <minimizedAffinity>
-6.28238

$$$$
1C5S_ESX_A_246


 16 17  0  0  0  0  0  0  0  0999 V2000
   45.1595   23.0436   50.4539 C   0  0  0  0  0  0  0  0  0  0  0  0
   46.2025   23.0065   52.0065 S   0  0  0  0  0  0  0  0  0  0  0  0
   45.8878   21.2934   52.2960 C   0  0  0  0  0  0  0  0  0  0  0  0
   45.0569   20.8288   51.2855 C   0  0  0  0  0  0  0  0  0  0  0  0
   44.6769   21.7544   50.3078 C   0  0  0  0  0  0  0  0  0  0  0  0
   46.3448   20.4882   53.3245 C   0  0  0  0  0  0  0  0  0  0  0  0
   45.9689   19.1586   53.3633 C   0  0  0  0  0  0  0  0  0  0  0  0
   45.1418   18.6548   52.3656 C   0  0  0  0  0  0  0  0  0  0  0  0
   44.6892   19.4877   51.3354 C   0  0  0  0  0  0  0  0  0  0  0  0
   45.0033   24.1856   49.7198 C   0  0  0  0  0  0  0  0  0  0  0  0
   45.6891   25.2415   50.0258 N   0  0  0  0  0  0  0  0  0  0  0  0
   44.1372   24.1226   48.7567 N   0  0  0  0  0  0  0  0  0  0  0  0
   46.3300   25.2129   50.7726 H   0  0  0  0  0  0  0  0  0  0  0  0
   45.5694   26.0724   49.5115 H   0  0  0  0  0  0  0  0  0  0  0  0
   43.6534   23.2828   48.5839 H   0  0  0  0  0  0  0  0  0  0  0  0
   43.9636   24.9146   48.1983 H   0  0  0  0  0  0  0  0  0  0  0  0
 10  1  1  0  0  0
 10 11  1  0  0  0
 10 12  2  0  0  0
  1  2  1  0  0  0
  1  5  2  0  0  0
  2  3  1  0  0  0
  3  4  2  0  0  0
  3  6  1  0  0  0
  4  5  1  0  0  0
  4  9  1  0  0  0
  6  7  2  0  0  0
  7  8  1  0  0  0
  8  9  2  0  0  0
 11 13  1  0  0  0
 11 14  1  0  0  0
 12 15  1  0  0  0
 12 16  1  0  0  0
M  CHG 1  12   1
M  END
> <minimizedAffinity>
-5.41014

$$$$
1C5S_ESX_A_246


 16 17  0  0  0  0  0  0  0  0999 V2000
   46.4869   22.9970   52.5149 C   0  0  0  0  0  0  0  0  0  0  0  0
   45.3818   22.3980   51.1294 S   0  0  0  0  0  0  0  0  0  0  0  0
   45.2936   20.7572   51.7757 C   0  0  0  0  0  0  0  0  0  0  0  0
   46.0528   20.7077   52.9370 C   0  0  0  0  0  0  0  0  0  0  0  0
   46.6790   21.8951   53.3305 C   0  0  0  0  0  0  0  0  0  0  0  0
   44.6164   19.6607   51.2718 C   0  0  0  0  0  0  0  0  0  0  0  0
   44.6859   18.4537   51.9421 C   0  0  0  0  0  0  0  0  0  0  0  0
   45.4320   18.3659   53.1121 C   0  0  0  0  0  0  0  0  0  0  0  0
   46.1112   19.4873   53.6030 C   0  0  0  0  0  0  0  0  0  0  0  0
   46.9305   24.2882   52.5737 C   0  0  0  0  0  0  0  0  0  0  0  0
   46.2032   25.2376   52.0750 N   0  0  0  0  0  0  0  0  0  0  0  0
   48.0915   24.4609   53.1248 N   0  0  0  0  0  0  0  0  0  0  0  0
   45.3297   25.0286   51.6718 H   0  0  0  0  0  0  0  0  0  0  0  0
   46.5242   26.1680   52.0992 H   0  0  0  0  0  0  0  0  0  0  0  0
   48.5864   23.6887   53.4825 H   0  0  0  0  0  0  0  0  0  0  0  0
   48.4781   25.3643   53.1855 H   0  0  0  0  0  0  0  0  0  0  0  0
 10  1  1  0  0  0
 10 11  1  0  0  0
 10 12  2  0  0  0
  1  2  1  0  0  0
  1  5  2  0  0  0
  2  3  1  0  0  0
  3  4  2  0  0  0
  3  6  1  0  0  0
  4  5  1  0  0  0
  4  9  1  0  0  0
  6  7  2  0  0  0
  7  8  1  0  0  0
  8  9  2  0  0  0
 11 13  1  0  0  0
 11 14  1  0  0  0
 12 15  1  0  0  0
 12 16  1  0  0  0
M  CHG 1  12   1
M  END
> <minimizedAffinity>
-5.10816

$$$$
1C5S_ESX_A_246


 16 17  0  0  0  0  0  0  0  0999 V2000
   45.1222   20.2288   52.2012 C   0  0  0  0  0  0  0  0  0  0  0  0
   46.0601   21.2050   53.4924 S   0  0  0  0  0  0  0  0  0  0  0  0
   45.3666   22.7443   52.9754 C   0  0  0  0  0  0  0  0  0  0  0  0
   44.5089   22.4976   51.9119 C   0  0  0  0  0  0  0  0  0  0  0  0
   44.3758   21.1653   51.5069 C   0  0  0  0  0  0  0  0  0  0  0  0
   45.5908   24.0119   53.4831 C   0  0  0  0  0  0  0  0  0  0  0  0
   44.9393   25.0932   52.9199 C   0  0  0  0  0  0  0  0  0  0  0  0
   44.0680   24.8856   51.8565 C   0  0  0  0  0  0  0  0  0  0  0  0
   43.8574   23.5949   51.3570 C   0  0  0  0  0  0  0  0  0  0  0  0
   45.2507   18.8727   52.0914 C   0  0  0  0  0  0  0  0  0  0  0  0
   45.1739   18.1349   53.1538 N   0  0  0  0  0  0  0  0  0  0  0  0
   45.4663   18.4220   50.8948 N   0  0  0  0  0  0  0  0  0  0  0  0
   45.0074   18.5503   54.0307 H   0  0  0  0  0  0  0  0  0  0  0  0
   45.2820   17.1588   53.0840 H   0  0  0  0  0  0  0  0  0  0  0  0
   45.5116   19.0458   50.1345 H   0  0  0  0  0  0  0  0  0  0  0  0
   45.5845   17.4559   50.7466 H   0  0  0  0  0  0  0  0  0  0  0  0
 10  1  1  0  0  0
 10 11  1  0  0  0
 10 12  2  0  0  0
  1  2  1  0  0  0
  1  5  2  0  0  0
  2  3  1  0  0  0
  3  4  2  0  0  0
  3  6  1  0  0  0
  4  5  1  0  0  0
  4  9  1  0  0  0
  6  7  2  0  0  0
  7  8  1  0  0  0
  8  9  2  0  0  0
 11 13  1  0  0  0
 11 14  1  0  0  0
 12 15  1  0  0  0
 12 16  1  0  0  0
M  CHG 1  12   1
M  END
> <minimizedAffinity>
-4.76178

$$$$
1C5S_ESX_A_246


 16 17  0  0  0  0  0  0  0  0999 V2000
   45.0333   21.1176   51.6023 C   0  0  0  0  0  0  0  0  0  0  0  0
   46.1008   20.8178   53.1091 S   0  0  0  0  0  0  0  0  0  0  0  0
   46.4763   22.5318   53.3068 C   0  0  0  0  0  0  0  0  0  0  0  0
   45.8343   23.2351   52.2966 C   0  0  0  0  0  0  0  0  0  0  0  0
   45.0661   22.4864   51.3986 C   0  0  0  0  0  0  0  0  0  0  0  0
   47.2644   23.1430   54.2659 C   0  0  0  0  0  0  0  0  0  0  0  0
   47.4304   24.5150   54.2337 C   0  0  0  0  0  0  0  0  0  0  0  0
   46.7989   25.2548   53.2403 C   0  0  0  0  0  0  0  0  0  0  0  0
   46.0076   24.6157   52.2784 C   0  0  0  0  0  0  0  0  0  0  0  0
   44.4119   20.0927   50.9459 C   0  0  0  0  0  0  0  0  0  0  0  0
   43.8405   20.3171   49.8048 N   0  0  0  0  0  0  0  0  0  0  0  0
   44.4283   18.9449   51.5490 N   0  0  0  0  0  0  0  0  0  0  0  0
   43.8700   21.2177   49.4082 H   0  0  0  0  0  0  0  0  0  0  0  0
   43.3769   19.5871   49.3344 H   0  0  0  0  0  0  0  0  0  0  0  0
   44.8841   18.8511   52.4166 H   0  0  0  0  0  0  0  0  0  0  0  0
   43.9851   18.1671   51.1392 H   0  0  0  0  0  0  0  0  0  0  0  0
 10  1  1  0  0  0
 10 11  1  0  0  0
 10 12  2  0  0  0
  1  2  1  0  0  0
  1  5  2  0  0  0
  2  3  1  0  0  0
  3  4  2  0  0  0
  3  6  1  0  0  0
  4  5  1  0  0  0
  4  9  1  0  0  0
  6  7  2  0  0  0
  7  8  1  0  0  0
  8  9  2  0  0  0
 11 13  1  0  0  0
 11 14  1  0  0  0
 12 15  1  0  0  0
 12 16  1  0  0  0
M  CHG 1  12   1
M  END
> <minimizedAffinity>
-4.73802

$$$$
1C5S_ESX_A_246


 16 17  0  0  0  0  0  0  0  0999 V2000
   44.7415   22.4087   52.7797 C   0  0  0  0  0  0  0  0  0  0  0  0
   44.2939   22.3677   50.9637 S   0  0  0  0  0  0  0  0  0  0  0  0
   43.0289   23.5859   51.1463 C   0  0  0  0  0  0  0  0  0  0  0  0
   42.9783   23.9611   52.4819 C   0  0  0  0  0  0  0  0  0  0  0  0
   43.8890   23.3418   53.3445 C   0  0  0  0  0  0  0  0  0  0  0  0
   42.1913   24.1192   50.1824 C   0  0  0  0  0  0  0  0  0  0  0  0
   41.2570   25.0705   50.5468 C   0  0  0  0  0  0  0  0  0  0  0  0
   41.1795   25.4761   51.8744 C   0  0  0  0  0  0  0  0  0  0  0  0
   42.0352   24.9219   52.8338 C   0  0  0  0  0  0  0  0  0  0  0  0
   45.7325   21.6207   53.2940 C   0  0  0  0  0  0  0  0  0  0  0  0
   46.3738   22.0080   54.3512 N   0  0  0  0  0  0  0  0  0  0  0  0
   45.9713   20.5219   52.6481 N   0  0  0  0  0  0  0  0  0  0  0  0
   46.1350   22.8572   54.7883 H   0  0  0  0  0  0  0  0  0  0  0  0
   47.0999   21.4531   54.7173 H   0  0  0  0  0  0  0  0  0  0  0  0
   45.4406   20.2943   51.8508 H   0  0  0  0  0  0  0  0  0  0  0  0
   46.6835   19.9154   52.9550 H   0  0  0  0  0  0  0  0  0  0  0  0
 10  1  1  0  0  0
 10 11  1  0  0  0
 10 12  2  0  0  0
  1  2  1  0  0  0
  1  5  2  0  0  0
  2  3  1  0  0  0
  3  4  2  0  0  0
  3  6  1  0  0  0
  4  5  1  0  0  0
  4  9  1  0  0  0
  6  7  2  0  0  0
  7  8  1  0  0  0
  8  9  2  0  0  0
 11 13  1  0  0  0
 11 14  1  0  0  0
 12 15  1  0  0  0
 12 16  1  0  0  0
M  CHG 1  12   1
M  END
> <minimizedAffinity>
-4.66160

$$$$
1C5S_ESX_A_246


 16 17  0  0  0  0  0  0  0  0999 V2000
   44.5208   21.3645   51.1516 C   0  0  0  0  0  0  0  0  0  0  0  0
   45.1296   21.9382   52.8249 S   0  0  0  0  0  0  0  0  0  0  0  0
   44.0929   23.3676   52.8224 C   0  0  0  0  0  0  0  0  0  0  0  0
   43.3690   23.3755   51.6378 C   0  0  0  0  0  0  0  0  0  0  0  0
   43.5918   22.3119   50.7570 C   0  0  0  0  0  0  0  0  0  0  0  0
   43.9702   24.3530   53.7862 C   0  0  0  0  0  0  0  0  0  0  0  0
   43.0912   25.3994   53.5783 C   0  0  0  0  0  0  0  0  0  0  0  0
   42.3443   25.4394   52.4063 C   0  0  0  0  0  0  0  0  0  0  0  0
   42.4856   24.4330   51.4435 C   0  0  0  0  0  0  0  0  0  0  0  0
   44.9906   20.2212   50.5688 C   0  0  0  0  0  0  0  0  0  0  0  0
   45.1107   20.1630   49.2799 N   0  0  0  0  0  0  0  0  0  0  0  0
   45.2685   19.2482   51.3797 N   0  0  0  0  0  0  0  0  0  0  0  0
   44.8796   20.9450   48.7282 H   0  0  0  0  0  0  0  0  0  0  0  0
   45.4329   19.3369   48.8524 H   0  0  0  0  0  0  0  0  0  0  0  0
   45.1517   19.3674   52.3499 H   0  0  0  0  0  0  0  0  0  0  0  0
   45.5962   18.3903   51.0251 H   0  0  0  0  0  0  0  0  0  0  0  0
 10  1  1  0  0  0
 10 11  1  0  0  0
 10 12  2  0  0  0
  1  2  1  0  0  0
  1  5  2  0  0  0
  2  3  1  0  0  0
  3  4  2  0  0  0
  3  6  1  0  0  0
  4  5  1  0  0  0
  4  9  1  0  0  0
  6  7  2  0  0  0
  7  8  1  0  0  0
  8  9  2  0  0  0
 11 13  1  0  0  0
 11 14  1  0  0  0
 12 15  1  0  0  0
 12 16  1  0  0  0
M  CHG 1  12   1
M  END
> <minimizedAffinity>
-4.54393

$$$$
1C5S_ESX_A_246


 16 17  0  0  0  0  0  0  0  0999 V2000
   44.8595   22.3914   51.6154 C   0  0  0  0  0  0  0  0  0  0  0  0
   44.1711   23.4074   53.0274 S   0  0  0  0  0  0  0  0  0  0  0  0
   45.7740   23.8285   53.6367 C   0  0  0  0  0  0  0  0  0  0  0  0
   46.7203   23.2278   52.8175 C   0  0  0  0  0  0  0  0  0  0  0  0
   46.2353   22.4724   51.7447 C   0  0  0  0  0  0  0  0  0  0  0  0
   46.1104   24.6066   54.7304 C   0  0  0  0  0  0  0  0  0  0  0  0
   47.4436   24.8073   55.0357 C   0  0  0  0  0  0  0  0  0  0  0  0
   48.4209   24.2266   54.2354 C   0  0  0  0  0  0  0  0  0  0  0  0
   48.0583   23.4411   53.1348 C   0  0  0  0  0  0  0  0  0  0  0  0
   44.0435   21.7596   50.7197 C   0  0  0  0  0  0  0  0  0  0  0  0
   44.0664   20.4668   50.6349 N   0  0  0  0  0  0  0  0  0  0  0  0
   43.3022   22.5332   49.9892 N   0  0  0  0  0  0  0  0  0  0  0  0
   44.6571   19.9452   51.2250 H   0  0  0  0  0  0  0  0  0  0  0  0
   43.4932   20.0061   49.9803 H   0  0  0  0  0  0  0  0  0  0  0  0
   43.3392   23.5093   50.1116 H   0  0  0  0  0  0  0  0  0  0  0  0
   42.7024   22.1443   49.3122 H   0  0  0  0  0  0  0  0  0  0  0  0
 10  1  1  0  0  0
 10 11  1  0  0  0
 10 12  2  0  0  0
  1  2  1  0  0  0
  1  5  2  0  0  0
  2  3  1  0  0  0
  3  4  2  0  0  0
  3  6  1  0  0  0
  4  5  1  0  0  0
  4  9  1  0  0  0
  6  7  2  0  0  0
  7  8  1  0  0  0
  8  9  2  0  0  0
 11 13  1  0  0  0
 11 14  1  0  0  0
 12 15  1  0  0  0
 12 16  1  0  0  0
M  CHG 1  12   1
M  END
> <minimizedAffinity>
-4.31968

$$$$
1C5S_ESX_A_246


 16 17  0  0  0  0  0  0  0  0999 V2000
   44.5679   22.6914   52.6793 C   0  0  0  0  0  0  0  0  0  0  0  0
   43.9392   24.1081   53.7268 S   0  0  0  0  0  0  0  0  0  0  0  0
   42.7672   24.6190   52.5089 C   0  0  0  0  0  0  0  0  0  0  0  0
   42.8781   23.7683   51.4174 C   0  0  0  0  0  0  0  0  0  0  0  0
   43.8273   22.7449   51.5110 C   0  0  0  0  0  0  0  0  0  0  0  0
   41.8688   25.6704   52.5556 C   0  0  0  0  0  0  0  0  0  0  0  0
   41.0350   25.8985   51.4768 C   0  0  0  0  0  0  0  0  0  0  0  0
   41.1126   25.0644   50.3672 C   0  0  0  0  0  0  0  0  0  0  0  0
   42.0305   24.0077   50.3401 C   0  0  0  0  0  0  0  0  0  0  0  0
   45.5595   21.8589   53.1164 C   0  0  0  0  0  0  0  0  0  0  0  0
   46.1441   22.0991   54.2475 N   0  0  0  0  0  0  0  0  0  0  0  0
   45.8579   20.8744   52.3269 N   0  0  0  0  0  0  0  0  0  0  0  0
   45.8619   22.8679   54.7939 H   0  0  0  0  0  0  0  0  0  0  0  0
   46.8704   21.5129   54.5606 H   0  0  0  0  0  0  0  0  0  0  0  0
   45.3681   20.7558   51.4811 H   0  0  0  0  0  0  0  0  0  0  0  0
   46.5743   20.2456   52.5732 H   0  0  0  0  0  0  0  0  0  0  0  0
 10  1  1  0  0  0
 10 11  1  0  0  0
 10 12  2  0  0  0
  1  2  1  0  0  0
  1  5  2  0  0  0
  2  3  1  0  0  0
  3  4  2  0  0  0
  3  6  1  0  0  0
  4  5  1  0  0  0
  4  9  1  0  0  0
  6  7  2  0  0  0
  7  8  1  0  0  0
  8  9  2  0  0  0
 11 13  1  0  0  0
 11 14  1  0  0  0
 12 15  1  0  0  0
 12 16  1  0  0  0
M  CHG 1  12   1
M  END
> <minimizedAffinity>
-4.30946

$$$$
