4KP8_E1G_A_302


 22 23  0  0  0  0  0  0  0  0999 V2000
   -4.3763   17.6692   -4.7112 C   0  0  0  0  0  0  0  0  0  0  0  0
   -4.9631   18.1922   -5.8501 C   0  0  0  0  0  0  0  0  0  0  0  0
   -5.5547   19.4600   -5.8428 C   0  0  0  0  0  0  0  0  0  0  0  0
   -5.5996   20.1925   -4.6634 C   0  0  0  0  0  0  0  0  0  0  0  0
   -4.4122   18.4025   -3.4927 C   0  0  0  0  0  0  0  0  0  0  0  0
   -5.0501   19.6834   -3.4843 C   0  0  0  0  0  0  0  0  0  0  0  0
   -2.1201   16.0498   -4.9384 O   0  0  0  0  0  0  0  0  0  0  0  0
   -3.6637   16.0426   -4.9808 S   0  0  0  0  0  0  0  0  0  0  0  0
   -4.0372   15.0842   -3.8206 O   0  0  0  0  0  0  0  0  0  0  0  0
   -4.2431   15.3250   -6.4690 N   0  0  0  0  0  0  0  0  0  0  0  0
   -3.8196   14.4050   -6.5903 H   0  0  0  0  0  0  0  0  0  0  0  0
   -3.9894   15.9224   -7.2559 H   0  0  0  0  0  0  0  0  0  0  0  0
   -5.1288   20.5990   -2.3228 C   0  0  0  0  0  0  0  0  0  0  0  0
   -6.1807   21.1295   -1.9616 O   0  0  0  0  0  0  0  0  0  0  0  0
   -3.8487   20.9282   -1.6027 C   0  0  0  0  0  0  0  0  0  0  0  0
   -2.9216   22.1420   -2.5818 S   0  0  0  0  0  0  0  0  0  0  0  0
   -1.7846   20.9048   -3.2630 C   0  0  0  0  0  0  0  0  0  0  0  0
   -0.9222   20.2051   -2.4458 N   0  0  0  0  0  0  0  0  0  0  0  0
   -0.0617   19.2713   -2.9467 C   0  0  0  0  0  0  0  0  0  0  0  0
   -0.0354   19.0157   -4.3195 C   0  0  0  0  0  0  0  0  0  0  0  0
   -0.9101   19.7138   -5.1509 C   0  0  0  0  0  0  0  0  0  0  0  0
   -1.7604   20.6430   -4.6102 N   0  0  0  0  0  0  0  0  0  0  0  0
 10  8  1  0  0  0
  7  8  2  0  0  0
  8  9  2  0  0  0
  8  1  1  0  0  0
  1  2  2  0  0  0
  1  5  1  0  0  0
  2  3  1  0  0  0
  5  6  2  0  0  0
  3  4  2  0  0  0
  6  4  1  0  0  0
  6 13  1  0  0  0
 14 13  2  0  0  0
 13 15  1  0  0  0
 15 16  1  0  0  0
 16 17  1  0  0  0
 17 22  2  0  0  0
 17 18  1  0  0  0
 22 21  1  0  0  0
 18 19  2  0  0  0
 21 20  2  0  0  0
 19 20  1  0  0  0
 10 11  1  0  0  0
 10 12  1  0  0  0
M  END
> <minimizedAffinity>
-7.29332

$$$$
4KP8_E1G_A_302


 22 23  0  0  0  0  0  0  0  0999 V2000
   -4.2062   17.8633   -4.7404 C   0  0  0  0  0  0  0  0  0  0  0  0
   -3.5275   18.4445   -3.6838 C   0  0  0  0  0  0  0  0  0  0  0  0
   -3.7709   19.7700   -3.3083 C   0  0  0  0  0  0  0  0  0  0  0  0
   -4.6736   20.5368   -4.0339 C   0  0  0  0  0  0  0  0  0  0  0  0
   -5.1341   18.6313   -5.4973 C   0  0  0  0  0  0  0  0  0  0  0  0
   -5.3519   19.9969   -5.1294 C   0  0  0  0  0  0  0  0  0  0  0  0
   -2.2159   15.9195   -4.8986 O   0  0  0  0  0  0  0  0  0  0  0  0
   -3.7389   16.1497   -5.0083 S   0  0  0  0  0  0  0  0  0  0  0  0
   -4.3072   15.2469   -3.8832 O   0  0  0  0  0  0  0  0  0  0  0  0
   -4.3523   15.5464   -6.5332 N   0  0  0  0  0  0  0  0  0  0  0  0
   -4.0693   14.5737   -6.6526 H   0  0  0  0  0  0  0  0  0  0  0  0
   -3.9745   16.1067   -7.2972 H   0  0  0  0  0  0  0  0  0  0  0  0
   -6.3177   20.9184   -5.7708 C   0  0  0  0  0  0  0  0  0  0  0  0
   -6.0599   21.5438   -6.8007 O   0  0  0  0  0  0  0  0  0  0  0  0
   -7.6424   21.1305   -5.0883 C   0  0  0  0  0  0  0  0  0  0  0  0
   -7.9197   22.9123   -4.8892 S   0  0  0  0  0  0  0  0  0  0  0  0
   -8.0160   22.8184   -3.0810 C   0  0  0  0  0  0  0  0  0  0  0  0
   -8.6026   23.8272   -2.3466 N   0  0  0  0  0  0  0  0  0  0  0  0
   -8.6812   23.7680   -0.9851 C   0  0  0  0  0  0  0  0  0  0  0  0
   -8.1491   22.6702   -0.3053 C   0  0  0  0  0  0  0  0  0  0  0  0
   -7.5616   21.6426   -1.0418 C   0  0  0  0  0  0  0  0  0  0  0  0
   -7.5028   21.7378   -2.4079 N   0  0  0  0  0  0  0  0  0  0  0  0
 10  8  1  0  0  0
  7  8  2  0  0  0
  8  9  2  0  0  0
  8  1  1  0  0  0
  1  2  2  0  0  0
  1  5  1  0  0  0
  2  3  1  0  0  0
  5  6  2  0  0  0
  3  4  2  0  0  0
  6  4  1  0  0  0
  6 13  1  0  0  0
 14 13  2  0  0  0
 13 15  1  0  0  0
 15 16  1  0  0  0
 16 17  1  0  0  0
 17 22  2  0  0  0
 17 18  1  0  0  0
 22 21  1  0  0  0
 18 19  2  0  0  0
 21 20  2  0  0  0
 19 20  1  0  0  0
 10 11  1  0  0  0
 10 12  1  0  0  0
M  END
> <minimizedAffinity>
-6.45570

$$$$
4KP8_E1G_A_302


 22 23  0  0  0  0  0  0  0  0999 V2000
   -1.9623   19.2570   -3.8058 C   0  0  0  0  0  0  0  0  0  0  0  0
   -2.6783   18.1767   -4.2907 C   0  0  0  0  0  0  0  0  0  0  0  0
   -3.9890   17.9288   -3.8692 C   0  0  0  0  0  0  0  0  0  0  0  0
   -4.5717   18.7496   -2.9120 C   0  0  0  0  0  0  0  0  0  0  0  0
   -2.5400   20.1094   -2.8241 C   0  0  0  0  0  0  0  0  0  0  0  0
   -3.8683   19.8289   -2.3718 C   0  0  0  0  0  0  0  0  0  0  0  0
    0.7520   19.8011   -3.4869 O   0  0  0  0  0  0  0  0  0  0  0  0
   -0.3171   19.3763   -4.5170 S   0  0  0  0  0  0  0  0  0  0  0  0
    0.1806   17.9819   -4.9773 O   0  0  0  0  0  0  0  0  0  0  0  0
   -0.2943   20.4346   -5.9116 N   0  0  0  0  0  0  0  0  0  0  0  0
    0.6522   20.4791   -6.2892 H   0  0  0  0  0  0  0  0  0  0  0  0
   -0.5939   21.3693   -5.6341 H   0  0  0  0  0  0  0  0  0  0  0  0
   -4.6373   20.6414   -1.4013 C   0  0  0  0  0  0  0  0  0  0  0  0
   -4.1045   21.2565   -0.4761 O   0  0  0  0  0  0  0  0  0  0  0  0
   -6.1367   20.6558   -1.5329 C   0  0  0  0  0  0  0  0  0  0  0  0
   -6.6870   22.3680   -1.7710 S   0  0  0  0  0  0  0  0  0  0  0  0
   -7.4699   22.0224   -3.3695 C   0  0  0  0  0  0  0  0  0  0  0  0
   -7.0890   20.9355   -4.1278 N   0  0  0  0  0  0  0  0  0  0  0  0
   -7.6709   20.6648   -5.3325 C   0  0  0  0  0  0  0  0  0  0  0  0
   -8.6700   21.5063   -5.8267 C   0  0  0  0  0  0  0  0  0  0  0  0
   -9.0658   22.6026   -5.0618 C   0  0  0  0  0  0  0  0  0  0  0  0
   -8.4585   22.8408   -3.8563 N   0  0  0  0  0  0  0  0  0  0  0  0
 10  8  1  0  0  0
  7  8  2  0  0  0
  8  9  2  0  0  0
  8  1  1  0  0  0
  1  2  2  0  0  0
  1  5  1  0  0  0
  2  3  1  0  0  0
  5  6  2  0  0  0
  3  4  2  0  0  0
  6  4  1  0  0  0
  6 13  1  0  0  0
 14 13  2  0  0  0
 13 15  1  0  0  0
 15 16  1  0  0  0
 16 17  1  0  0  0
 17 22  2  0  0  0
 17 18  1  0  0  0
 22 21  1  0  0  0
 18 19  2  0  0  0
 21 20  2  0  0  0
 19 20  1  0  0  0
 10 11  1  0  0  0
 10 12  1  0  0  0
M  END
> <minimizedAffinity>
-6.43701

$$$$
4KP8_E1G_A_302


 22 23  0  0  0  0  0  0  0  0999 V2000
   -7.1937   23.1902   -5.3246 C   0  0  0  0  0  0  0  0  0  0  0  0
   -8.5129   22.7727   -5.3038 C   0  0  0  0  0  0  0  0  0  0  0  0
   -8.8420   21.4129   -5.3009 C   0  0  0  0  0  0  0  0  0  0  0  0
   -7.8336   20.4600   -5.3681 C   0  0  0  0  0  0  0  0  0  0  0  0
   -6.1458   22.2307   -5.3945 C   0  0  0  0  0  0  0  0  0  0  0  0
   -6.4913   20.8424   -5.4269 C   0  0  0  0  0  0  0  0  0  0  0  0
   -8.2429   25.6814   -4.6478 O   0  0  0  0  0  0  0  0  0  0  0  0
   -7.0303   24.9788   -5.2962 S   0  0  0  0  0  0  0  0  0  0  0  0
   -5.8535   25.4046   -4.3809 O   0  0  0  0  0  0  0  0  0  0  0  0
   -6.7186   25.6219   -6.8946 N   0  0  0  0  0  0  0  0  0  0  0  0
   -6.6316   26.6368   -6.8418 H   0  0  0  0  0  0  0  0  0  0  0  0
   -7.4905   25.3786   -7.5154 H   0  0  0  0  0  0  0  0  0  0  0  0
   -5.5302   19.7157   -5.4435 C   0  0  0  0  0  0  0  0  0  0  0  0
   -5.6877   18.7148   -6.1446 O   0  0  0  0  0  0  0  0  0  0  0  0
   -4.3483   19.7897   -4.5142 C   0  0  0  0  0  0  0  0  0  0  0  0
   -3.8193   18.1034   -4.1046 S   0  0  0  0  0  0  0  0  0  0  0  0
   -2.0783   18.4244   -4.4962 C   0  0  0  0  0  0  0  0  0  0  0  0
   -1.1120   17.4648   -4.2800 N   0  0  0  0  0  0  0  0  0  0  0  0
    0.2018   17.6944   -4.5709 C   0  0  0  0  0  0  0  0  0  0  0  0
    0.5930   18.9304   -5.0904 C   0  0  0  0  0  0  0  0  0  0  0  0
   -0.3797   19.9026   -5.3192 C   0  0  0  0  0  0  0  0  0  0  0  0
   -1.6890   19.6340   -5.0154 N   0  0  0  0  0  0  0  0  0  0  0  0
 10  8  1  0  0  0
  7  8  2  0  0  0
  8  9  2  0  0  0
  8  1  1  0  0  0
  1  2  2  0  0  0
  1  5  1  0  0  0
  2  3  1  0  0  0
  5  6  2  0  0  0
  3  4  2  0  0  0
  6  4  1  0  0  0
  6 13  1  0  0  0
 14 13  2  0  0  0
 13 15  1  0  0  0
 15 16  1  0  0  0
 16 17  1  0  0  0
 17 22  2  0  0  0
 17 18  1  0  0  0
 22 21  1  0  0  0
 18 19  2  0  0  0
 21 20  2  0  0  0
 19 20  1  0  0  0
 10 11  1  0  0  0
 10 12  1  0  0  0
M  END
> <minimizedAffinity>
-6.39813

$$$$
4KP8_E1G_A_302


 22 23  0  0  0  0  0  0  0  0999 V2000
   -3.2570   17.7810   -4.2156 C   0  0  0  0  0  0  0  0  0  0  0  0
   -1.9641   18.1672   -4.5225 C   0  0  0  0  0  0  0  0  0  0  0  0
   -1.4637   19.4090   -4.1163 C   0  0  0  0  0  0  0  0  0  0  0  0
   -2.2885   20.2942   -3.4340 C   0  0  0  0  0  0  0  0  0  0  0  0
   -4.1185   18.6730   -3.5185 C   0  0  0  0  0  0  0  0  0  0  0  0
   -3.6108   19.9554   -3.1371 C   0  0  0  0  0  0  0  0  0  0  0  0
   -2.4073   15.2398   -4.9805 O   0  0  0  0  0  0  0  0  0  0  0  0
   -3.6538   16.1373   -4.8218 S   0  0  0  0  0  0  0  0  0  0  0  0
   -4.5070   15.3641   -3.7834 O   0  0  0  0  0  0  0  0  0  0  0  0
   -4.5673   16.2051   -6.3140 N   0  0  0  0  0  0  0  0  0  0  0  0
   -4.7748   15.2573   -6.6289 H   0  0  0  0  0  0  0  0  0  0  0  0
   -4.0195   16.6877   -7.0263 H   0  0  0  0  0  0  0  0  0  0  0  0
   -4.3496   20.9787   -2.3624 C   0  0  0  0  0  0  0  0  0  0  0  0
   -3.9335   22.1283   -2.2088 O   0  0  0  0  0  0  0  0  0  0  0  0
   -5.6317   20.5603   -1.6937 C   0  0  0  0  0  0  0  0  0  0  0  0
   -6.6716   22.0270   -1.4519 S   0  0  0  0  0  0  0  0  0  0  0  0
   -7.4675   21.8799   -3.0743 C   0  0  0  0  0  0  0  0  0  0  0  0
   -7.3106   20.7462   -3.8433 N   0  0  0  0  0  0  0  0  0  0  0  0
   -7.9048   20.6236   -5.0661 C   0  0  0  0  0  0  0  0  0  0  0  0
   -8.6844   21.6680   -5.5681 C   0  0  0  0  0  0  0  0  0  0  0  0
   -8.8540   22.8141   -4.7926 C   0  0  0  0  0  0  0  0  0  0  0  0
   -8.2421   22.8994   -3.5690 N   0  0  0  0  0  0  0  0  0  0  0  0
 10  8  1  0  0  0
  7  8  2  0  0  0
  8  9  2  0  0  0
  8  1  1  0  0  0
  1  2  2  0  0  0
  1  5  1  0  0  0
  2  3  1  0  0  0
  5  6  2  0  0  0
  3  4  2  0  0  0
  6  4  1  0  0  0
  6 13  1  0  0  0
 14 13  2  0  0  0
 13 15  1  0  0  0
 15 16  1  0  0  0
 16 17  1  0  0  0
 17 22  2  0  0  0
 17 18  1  0  0  0
 22 21  1  0  0  0
 18 19  2  0  0  0
 21 20  2  0  0  0
 19 20  1  0  0  0
 10 11  1  0  0  0
 10 12  1  0  0  0
M  END
> <minimizedAffinity>
-6.37693

$$$$
4KP8_E1G_A_302


 22 23  0  0  0  0  0  0  0  0999 V2000
   -2.5734   17.6165   -4.5868 C   0  0  0  0  0  0  0  0  0  0  0  0
   -1.2534   17.2107   -4.4983 C   0  0  0  0  0  0  0  0  0  0  0  0
   -0.2282   18.1302   -4.2517 C   0  0  0  0  0  0  0  0  0  0  0  0
   -0.5276   19.4820   -4.1398 C   0  0  0  0  0  0  0  0  0  0  0  0
   -2.9015   18.9963   -4.4762 C   0  0  0  0  0  0  0  0  0  0  0  0
   -1.8436   19.9352   -4.2592 C   0  0  0  0  0  0  0  0  0  0  0  0
   -2.9730   14.9340   -5.2265 O   0  0  0  0  0  0  0  0  0  0  0  0
   -3.7022   16.2506   -4.8811 S   0  0  0  0  0  0  0  0  0  0  0  0
   -4.4720   15.8899   -3.5844 O   0  0  0  0  0  0  0  0  0  0  0  0
   -4.8866   16.6476   -6.1079 N   0  0  0  0  0  0  0  0  0  0  0  0
   -5.5093   15.8523   -6.2493 H   0  0  0  0  0  0  0  0  0  0  0  0
   -4.4098   16.8658   -6.9828 H   0  0  0  0  0  0  0  0  0  0  0  0
   -2.0124   21.3939   -4.0665 C   0  0  0  0  0  0  0  0  0  0  0  0
   -1.3618   22.2296   -4.6962 O   0  0  0  0  0  0  0  0  0  0  0  0
   -2.9824   21.8532   -3.0111 C   0  0  0  0  0  0  0  0  0  0  0  0
   -3.9703   23.2203   -3.6790 S   0  0  0  0  0  0  0  0  0  0  0  0
   -5.3562   22.1498   -4.1489 C   0  0  0  0  0  0  0  0  0  0  0  0
   -6.4185   21.9451   -3.2939 N   0  0  0  0  0  0  0  0  0  0  0  0
   -7.4676   21.1416   -3.6363 C   0  0  0  0  0  0  0  0  0  0  0  0
   -7.4735   20.4961   -4.8748 C   0  0  0  0  0  0  0  0  0  0  0  0
   -6.4066   20.7047   -5.7476 C   0  0  0  0  0  0  0  0  0  0  0  0
   -5.3719   21.5197   -5.3683 N   0  0  0  0  0  0  0  0  0  0  0  0
 10  8  1  0  0  0
  7  8  2  0  0  0
  8  9  2  0  0  0
  8  1  1  0  0  0
  1  2  2  0  0  0
  1  5  1  0  0  0
  2  3  1  0  0  0
  5  6  2  0  0  0
  3  4  2  0  0  0
  6  4  1  0  0  0
  6 13  1  0  0  0
 14 13  2  0  0  0
 13 15  1  0  0  0
 15 16  1  0  0  0
 16 17  1  0  0  0
 17 22  2  0  0  0
 17 18  1  0  0  0
 22 21  1  0  0  0
 18 19  2  0  0  0
 21 20  2  0  0  0
 19 20  1  0  0  0
 10 11  1  0  0  0
 10 12  1  0  0  0
M  END
> <minimizedAffinity>
-6.37002

$$$$
4KP8_E1G_A_302


 22 23  0  0  0  0  0  0  0  0999 V2000
   -4.3460   17.7668   -4.7279 C   0  0  0  0  0  0  0  0  0  0  0  0
   -4.9388   18.1752   -5.9098 C   0  0  0  0  0  0  0  0  0  0  0  0
   -5.5504   19.4289   -6.0176 C   0  0  0  0  0  0  0  0  0  0  0  0
   -5.6091   20.2643   -4.9094 C   0  0  0  0  0  0  0  0  0  0  0  0
   -4.3959   18.6067   -3.5808 C   0  0  0  0  0  0  0  0  0  0  0  0
   -5.0539   19.8728   -3.6887 C   0  0  0  0  0  0  0  0  0  0  0  0
   -4.1287   15.1588   -3.7710 O   0  0  0  0  0  0  0  0  0  0  0  0
   -3.6073   16.1340   -4.8488 S   0  0  0  0  0  0  0  0  0  0  0  0
   -4.0254   15.4427   -6.1723 O   0  0  0  0  0  0  0  0  0  0  0  0
   -1.8586   16.2154   -4.8223 N   0  0  0  0  0  0  0  0  0  0  0  0
   -1.4733   15.2736   -4.8926 H   0  0  0  0  0  0  0  0  0  0  0  0
   -1.5514   16.6442   -3.9493 H   0  0  0  0  0  0  0  0  0  0  0  0
   -5.1493   20.8884   -2.6149 C   0  0  0  0  0  0  0  0  0  0  0  0
   -4.2104   21.6250   -2.3081 O   0  0  0  0  0  0  0  0  0  0  0  0
   -6.4366   20.9681   -1.8389 C   0  0  0  0  0  0  0  0  0  0  0  0
   -6.9811   22.6978   -1.7843 S   0  0  0  0  0  0  0  0  0  0  0  0
   -7.4887   22.7198   -3.5247 C   0  0  0  0  0  0  0  0  0  0  0  0
   -6.8535   23.5316   -4.4407 N   0  0  0  0  0  0  0  0  0  0  0  0
   -7.2263   23.5569   -5.7536 C   0  0  0  0  0  0  0  0  0  0  0  0
   -8.2822   22.7547   -6.1919 C   0  0  0  0  0  0  0  0  0  0  0  0
   -8.9239   21.9255   -5.2731 C   0  0  0  0  0  0  0  0  0  0  0  0
   -8.5199   21.9271   -3.9633 N   0  0  0  0  0  0  0  0  0  0  0  0
 10  8  1  0  0  0
  7  8  2  0  0  0
  8  9  2  0  0  0
  8  1  1  0  0  0
  1  2  2  0  0  0
  1  5  1  0  0  0
  2  3  1  0  0  0
  5  6  2  0  0  0
  3  4  2  0  0  0
  6  4  1  0  0  0
  6 13  1  0  0  0
 14 13  2  0  0  0
 13 15  1  0  0  0
 15 16  1  0  0  0
 16 17  1  0  0  0
 17 22  2  0  0  0
 17 18  1  0  0  0
 22 21  1  0  0  0
 18 19  2  0  0  0
 21 20  2  0  0  0
 19 20  1  0  0  0
 10 11  1  0  0  0
 10 12  1  0  0  0
M  END
> <minimizedAffinity>
-6.36621

$$$$
4KP8_E1G_A_302


 22 23  0  0  0  0  0  0  0  0999 V2000
   -3.7345   17.9852   -4.0083 C   0  0  0  0  0  0  0  0  0  0  0  0
   -4.5560   18.0303   -2.8957 C   0  0  0  0  0  0  0  0  0  0  0  0
   -4.7171   19.2105   -2.1619 C   0  0  0  0  0  0  0  0  0  0  0  0
   -4.0064   20.3483   -2.5225 C   0  0  0  0  0  0  0  0  0  0  0  0
   -2.9969   19.1389   -4.3941 C   0  0  0  0  0  0  0  0  0  0  0  0
   -3.1396   20.3326   -3.6179 C   0  0  0  0  0  0  0  0  0  0  0  0
   -2.2866   15.8215   -5.0017 O   0  0  0  0  0  0  0  0  0  0  0  0
   -3.7151   16.3695   -4.7930 S   0  0  0  0  0  0  0  0  0  0  0  0
   -4.3619   15.3062   -3.8683 O   0  0  0  0  0  0  0  0  0  0  0  0
   -4.6069   16.3752   -6.2996 N   0  0  0  0  0  0  0  0  0  0  0  0
   -4.5754   15.4450   -6.7169 H   0  0  0  0  0  0  0  0  0  0  0  0
   -4.1880   17.0496   -6.9401 H   0  0  0  0  0  0  0  0  0  0  0  0
   -2.4921   21.6322   -3.9095 C   0  0  0  0  0  0  0  0  0  0  0  0
   -1.4535   21.7278   -4.5655 O   0  0  0  0  0  0  0  0  0  0  0  0
   -3.1125   22.8712   -3.3214 C   0  0  0  0  0  0  0  0  0  0  0  0
   -3.9249   23.8051   -4.6475 S   0  0  0  0  0  0  0  0  0  0  0  0
   -5.4073   22.7611   -4.6401 C   0  0  0  0  0  0  0  0  0  0  0  0
   -6.3149   22.8219   -3.6038 N   0  0  0  0  0  0  0  0  0  0  0  0
   -7.4345   22.0412   -3.5870 C   0  0  0  0  0  0  0  0  0  0  0  0
   -7.6741   21.1468   -4.6325 C   0  0  0  0  0  0  0  0  0  0  0  0
   -6.7649   21.0856   -5.6876 C   0  0  0  0  0  0  0  0  0  0  0  0
   -5.6527   21.8866   -5.6693 N   0  0  0  0  0  0  0  0  0  0  0  0
 10  8  1  0  0  0
  7  8  2  0  0  0
  8  9  2  0  0  0
  8  1  1  0  0  0
  1  2  2  0  0  0
  1  5  1  0  0  0
  2  3  1  0  0  0
  5  6  2  0  0  0
  3  4  2  0  0  0
  6  4  1  0  0  0
  6 13  1  0  0  0
 14 13  2  0  0  0
 13 15  1  0  0  0
 15 16  1  0  0  0
 16 17  1  0  0  0
 17 22  2  0  0  0
 17 18  1  0  0  0
 22 21  1  0  0  0
 18 19  2  0  0  0
 21 20  2  0  0  0
 19 20  1  0  0  0
 10 11  1  0  0  0
 10 12  1  0  0  0
M  END
> <minimizedAffinity>
-6.27685

$$$$
4KP8_E1G_A_302


 22 23  0  0  0  0  0  0  0  0999 V2000
   -1.2616   20.1134   -2.6343 C   0  0  0  0  0  0  0  0  0  0  0  0
   -0.3604   20.5529   -1.6805 C   0  0  0  0  0  0  0  0  0  0  0  0
   -0.7960   21.1703   -0.5030 C   0  0  0  0  0  0  0  0  0  0  0  0
   -2.1525   21.3921   -0.3026 C   0  0  0  0  0  0  0  0  0  0  0  0
   -2.6551   20.3317   -2.4491 C   0  0  0  0  0  0  0  0  0  0  0  0
   -3.0907   20.9954   -1.2586 C   0  0  0  0  0  0  0  0  0  0  0  0
    1.0784   19.4513   -3.9949 O   0  0  0  0  0  0  0  0  0  0  0  0
   -0.4606   19.3320   -4.0394 S   0  0  0  0  0  0  0  0  0  0  0  0
   -0.6896   17.7986   -4.0146 O   0  0  0  0  0  0  0  0  0  0  0  0
   -1.0892   19.9377   -5.5571 N   0  0  0  0  0  0  0  0  0  0  0  0
   -0.6138   19.4740   -6.3313 H   0  0  0  0  0  0  0  0  0  0  0  0
   -0.9300   20.9436   -5.6138 H   0  0  0  0  0  0  0  0  0  0  0  0
   -4.4998   21.2527   -0.8822 C   0  0  0  0  0  0  0  0  0  0  0  0
   -4.8157   21.9078    0.1125 O   0  0  0  0  0  0  0  0  0  0  0  0
   -5.5761   20.6300   -1.7305 C   0  0  0  0  0  0  0  0  0  0  0  0
   -7.1285   21.5286   -1.4593 S   0  0  0  0  0  0  0  0  0  0  0  0
   -7.5752   21.5315   -3.2165 C   0  0  0  0  0  0  0  0  0  0  0  0
   -8.4353   22.4789   -3.7302 N   0  0  0  0  0  0  0  0  0  0  0  0
   -8.7790   22.4916   -5.0512 C   0  0  0  0  0  0  0  0  0  0  0  0
   -8.2634   21.5210   -5.9130 C   0  0  0  0  0  0  0  0  0  0  0  0
   -7.3870   20.5647   -5.4022 C   0  0  0  0  0  0  0  0  0  0  0  0
   -7.0647   20.5855   -4.0701 N   0  0  0  0  0  0  0  0  0  0  0  0
 10  8  1  0  0  0
  7  8  2  0  0  0
  8  9  2  0  0  0
  8  1  1  0  0  0
  1  2  2  0  0  0
  1  5  1  0  0  0
  2  3  1  0  0  0
  5  6  2  0  0  0
  3  4  2  0  0  0
  6  4  1  0  0  0
  6 13  1  0  0  0
 14 13  2  0  0  0
 13 15  1  0  0  0
 15 16  1  0  0  0
 16 17  1  0  0  0
 17 22  2  0  0  0
 17 18  1  0  0  0
 22 21  1  0  0  0
 18 19  2  0  0  0
 21 20  2  0  0  0
 19 20  1  0  0  0
 10 11  1  0  0  0
 10 12  1  0  0  0
M  END
> <minimizedAffinity>
-6.23286

$$$$
4KP8_E1G_A_302


 22 23  0  0  0  0  0  0  0  0999 V2000
   -4.3386   17.6938   -4.7365 C   0  0  0  0  0  0  0  0  0  0  0  0
   -4.9769   18.1857   -5.8615 C   0  0  0  0  0  0  0  0  0  0  0  0
   -5.5457   19.4639   -5.8705 C   0  0  0  0  0  0  0  0  0  0  0  0
   -5.5146   20.2398   -4.7187 C   0  0  0  0  0  0  0  0  0  0  0  0
   -4.2964   18.4718   -3.5463 C   0  0  0  0  0  0  0  0  0  0  0  0
   -4.9112   19.7640   -3.5521 C   0  0  0  0  0  0  0  0  0  0  0  0
   -2.1258   16.0129   -4.9434 O   0  0  0  0  0  0  0  0  0  0  0  0
   -3.6691   16.0452   -4.9824 S   0  0  0  0  0  0  0  0  0  0  0  0
   -4.0645   15.1149   -3.8066 O   0  0  0  0  0  0  0  0  0  0  0  0
   -4.2708   15.3199   -6.4580 N   0  0  0  0  0  0  0  0  0  0  0  0
   -3.8717   14.3874   -6.5658 H   0  0  0  0  0  0  0  0  0  0  0  0
   -4.0036   15.8982   -7.2546 H   0  0  0  0  0  0  0  0  0  0  0  0
   -4.9117   20.7228   -2.4234 C   0  0  0  0  0  0  0  0  0  0  0  0
   -5.5227   20.5167   -1.3734 O   0  0  0  0  0  0  0  0  0  0  0  0
   -4.1772   22.0235   -2.6091 C   0  0  0  0  0  0  0  0  0  0  0  0
   -2.5077   21.6703   -3.2248 S   0  0  0  0  0  0  0  0  0  0  0  0
   -1.6902   22.3657   -1.7635 C   0  0  0  0  0  0  0  0  0  0  0  0
   -0.3994   22.8459   -1.8316 N   0  0  0  0  0  0  0  0  0  0  0  0
    0.2267   23.3719   -0.7385 C   0  0  0  0  0  0  0  0  0  0  0  0
   -0.4400   23.4213    0.4877 C   0  0  0  0  0  0  0  0  0  0  0  0
   -1.7481   22.9448    0.5622 C   0  0  0  0  0  0  0  0  0  0  0  0
   -2.3435   22.4251   -0.5577 N   0  0  0  0  0  0  0  0  0  0  0  0
 10  8  1  0  0  0
  7  8  2  0  0  0
  8  9  2  0  0  0
  8  1  1  0  0  0
  1  2  2  0  0  0
  1  5  1  0  0  0
  2  3  1  0  0  0
  5  6  2  0  0  0
  3  4  2  0  0  0
  6  4  1  0  0  0
  6 13  1  0  0  0
 14 13  2  0  0  0
 13 15  1  0  0  0
 15 16  1  0  0  0
 16 17  1  0  0  0
 17 22  2  0  0  0
 17 18  1  0  0  0
 22 21  1  0  0  0
 18 19  2  0  0  0
 21 20  2  0  0  0
 19 20  1  0  0  0
 10 11  1  0  0  0
 10 12  1  0  0  0
M  END
> <minimizedAffinity>
-6.08921

$$$$
