4U69_Q07_A_404


 15 14  0  0  0  0  0  0  0  0999 V2000
   22.4572   -4.4556   10.5775 C   0  0  0  0  0  0  0  0  0  0  0  0
   23.1326   -4.2580    9.2818 N   0  0  0  0  0  0  0  0  0  0  0  0
   24.0418   -3.8219    9.4353 H   0  0  0  0  0  0  0  0  0  0  0  0
   22.5619   -3.6549    8.6893 H   0  0  0  0  0  0  0  0  0  0  0  0
   21.7155   -1.8540   10.3198 O   0  0  0  0  0  0  0  0  0  0  0  0
   22.1753   -2.8231   11.3506 P   0  0  0  0  0  0  0  0  0  0  0  0
   23.3481   -2.3893   12.2406 O   0  0  0  0  0  0  0  0  0  0  0  0
   20.8732   -3.0472   12.2333 O   0  0  0  0  0  0  0  0  0  0  0  0
   20.9753   -2.2369    9.8234 H   0  0  0  0  0  0  0  0  0  0  0  0
   23.5565   -3.0981   12.8691 H   0  0  0  0  0  0  0  0  0  0  0  0
   23.1955   -5.4533   11.4790 C   0  0  0  0  0  0  0  0  0  0  0  0
   22.2730   -6.2366   12.4799 C   0  0  0  0  0  0  0  0  0  0  0  0
   24.0590   -6.3742   10.6457 C   0  0  0  0  0  0  0  0  0  0  0  0
   23.5866   -7.8570   10.6350 C   0  0  0  0  0  0  0  0  0  0  0  0
   24.7033   -8.7566   11.0637 C   0  0  0  0  0  0  0  0  0  0  0  0
  2  1  1  0  0  0
 13 14  1  0  0  0
 13 11  1  0  0  0
  1 11  1  0  0  0
  1  6  1  0  0  0
  8  6  2  0  0  0
 15 14  1  0  0  0
 11 12  1  0  0  0
  6  7  1  0  0  0
  6  5  1  0  0  0
  5  9  1  0  0  0
  7 10  1  0  0  0
  2  3  1  0  0  0
  2  4  1  0  0  0
M  END
> <minimizedAffinity>
-7.15783

$$$$
4U69_Q07_A_404


 15 14  0  0  0  0  0  0  0  0999 V2000
   22.4861   -4.2164   11.4899 C   0  0  0  0  0  0  0  0  0  0  0  0
   21.7095   -4.9848   12.4802 N   0  0  0  0  0  0  0  0  0  0  0  0
   20.8448   -5.3154   12.0519 H   0  0  0  0  0  0  0  0  0  0  0  0
   21.4876   -4.3869   13.2763 H   0  0  0  0  0  0  0  0  0  0  0  0
   20.5065   -3.1512    9.9630 O   0  0  0  0  0  0  0  0  0  0  0  0
   21.5131   -2.7537   10.9838 P   0  0  0  0  0  0  0  0  0  0  0  0
   22.4031   -1.5481   10.6519 O   0  0  0  0  0  0  0  0  0  0  0  0
   20.6199   -2.4389   12.2596 O   0  0  0  0  0  0  0  0  0  0  0  0
   20.0078   -3.9193   10.2826 H   0  0  0  0  0  0  0  0  0  0  0  0
   23.0149   -1.3858   11.3869 H   0  0  0  0  0  0  0  0  0  0  0  0
   22.9647   -5.0829   10.3181 C   0  0  0  0  0  0  0  0  0  0  0  0
   24.2369   -4.5357    9.5774 C   0  0  0  0  0  0  0  0  0  0  0  0
   23.1254   -6.5207   10.7597 C   0  0  0  0  0  0  0  0  0  0  0  0
   24.5789   -7.0650   10.6469 C   0  0  0  0  0  0  0  0  0  0  0  0
   24.6027   -8.5340   10.9324 C   0  0  0  0  0  0  0  0  0  0  0  0
  2  1  1  0  0  0
 13 14  1  0  0  0
 13 11  1  0  0  0
  1 11  1  0  0  0
  1  6  1  0  0  0
  8  6  2  0  0  0
 15 14  1  0  0  0
 11 12  1  0  0  0
  6  7  1  0  0  0
  6  5  1  0  0  0
  5  9  1  0  0  0
  7 10  1  0  0  0
  2  3  1  0  0  0
  2  4  1  0  0  0
M  END
> <minimizedAffinity>
-7.13538

$$$$
4U69_Q07_A_404


 15 14  0  0  0  0  0  0  0  0999 V2000
   22.8451   -4.9489   11.6745 C   0  0  0  0  0  0  0  0  0  0  0  0
   21.7602   -5.3670   12.5814 N   0  0  0  0  0  0  0  0  0  0  0  0
   20.8815   -5.4066   12.0648 H   0  0  0  0  0  0  0  0  0  0  0  0
   21.6763   -4.6947   13.3439 H   0  0  0  0  0  0  0  0  0  0  0  0
   22.4745   -2.3064   12.1889 O   0  0  0  0  0  0  0  0  0  0  0  0
   22.4803   -3.2684   11.0541 P   0  0  0  0  0  0  0  0  0  0  0  0
   21.2670   -3.2445   10.1144 O   0  0  0  0  0  0  0  0  0  0  0  0
   23.7963   -2.8700   10.2576 O   0  0  0  0  0  0  0  0  0  0  0  0
   23.2863   -2.4145   12.7086 H   0  0  0  0  0  0  0  0  0  0  0  0
   21.3836   -3.9104    9.4188 H   0  0  0  0  0  0  0  0  0  0  0  0
   23.1154   -5.9769   10.5685 C   0  0  0  0  0  0  0  0  0  0  0  0
   24.5702   -5.9349    9.9784 C   0  0  0  0  0  0  0  0  0  0  0  0
   22.7175   -7.3614   11.0300 C   0  0  0  0  0  0  0  0  0  0  0  0
   23.5234   -8.5134   10.3628 C   0  0  0  0  0  0  0  0  0  0  0  0
   24.5025   -9.0890   11.3376 C   0  0  0  0  0  0  0  0  0  0  0  0
  2  1  1  0  0  0
 13 14  1  0  0  0
 13 11  1  0  0  0
  1 11  1  0  0  0
  1  6  1  0  0  0
  8  6  2  0  0  0
 15 14  1  0  0  0
 11 12  1  0  0  0
  6  7  1  0  0  0
  6  5  1  0  0  0
  5  9  1  0  0  0
  7 10  1  0  0  0
  2  3  1  0  0  0
  2  4  1  0  0  0
M  END
> <minimizedAffinity>
-6.87934

$$$$
4U69_Q07_A_404


 15 14  0  0  0  0  0  0  0  0999 V2000
   23.0882   -5.0274   11.7182 C   0  0  0  0  0  0  0  0  0  0  0  0
   21.7970   -4.3711   11.9945 N   0  0  0  0  0  0  0  0  0  0  0  0
   21.0968   -4.7064   11.3329 H   0  0  0  0  0  0  0  0  0  0  0  0
   21.9012   -3.3612   11.8966 H   0  0  0  0  0  0  0  0  0  0  0  0
   22.4512   -4.3957    9.1531 O   0  0  0  0  0  0  0  0  0  0  0  0
   23.6362   -4.5663   10.0362 P   0  0  0  0  0  0  0  0  0  0  0  0
   24.7636   -5.4718    9.5217 O   0  0  0  0  0  0  0  0  0  0  0  0
   24.1665   -3.0786   10.2103 O   0  0  0  0  0  0  0  0  0  0  0  0
   21.8107   -3.8065    9.5816 H   0  0  0  0  0  0  0  0  0  0  0  0
   25.4765   -5.5055   10.1786 H   0  0  0  0  0  0  0  0  0  0  0  0
   23.0433   -6.5405   11.9665 C   0  0  0  0  0  0  0  0  0  0  0  0
   22.2405   -6.9694   13.2463 C   0  0  0  0  0  0  0  0  0  0  0  0
   22.5777   -7.2630   10.7218 C   0  0  0  0  0  0  0  0  0  0  0  0
   23.3349   -8.5917   10.4334 C   0  0  0  0  0  0  0  0  0  0  0  0
   24.6971   -8.5531   11.0521 C   0  0  0  0  0  0  0  0  0  0  0  0
  2  1  1  0  0  0
 13 14  1  0  0  0
 13 11  1  0  0  0
  1 11  1  0  0  0
  1  6  1  0  0  0
  8  6  2  0  0  0
 15 14  1  0  0  0
 11 12  1  0  0  0
  6  7  1  0  0  0
  6  5  1  0  0  0
  5  9  1  0  0  0
  7 10  1  0  0  0
  2  3  1  0  0  0
  2  4  1  0  0  0
M  END
> <minimizedAffinity>
-6.56516

$$$$
4U69_Q07_A_404


 15 14  0  0  0  0  0  0  0  0999 V2000
   23.1977   -3.9469   10.0752 C   0  0  0  0  0  0  0  0  0  0  0  0
   24.4673   -3.2551    9.7858 N   0  0  0  0  0  0  0  0  0  0  0  0
   25.0388   -3.2262   10.6301 H   0  0  0  0  0  0  0  0  0  0  0  0
   24.2726   -2.3035    9.4743 H   0  0  0  0  0  0  0  0  0  0  0  0
   23.2442   -2.3927   12.3039 O   0  0  0  0  0  0  0  0  0  0  0  0
   22.2837   -2.9968   11.3418 P   0  0  0  0  0  0  0  0  0  0  0  0
   21.1118   -3.7918   11.9338 O   0  0  0  0  0  0  0  0  0  0  0  0
   21.7402   -1.7353   10.5431 O   0  0  0  0  0  0  0  0  0  0  0  0
   23.9359   -1.9190   11.8159 H   0  0  0  0  0  0  0  0  0  0  0  0
   20.5580   -4.1348   11.2151 H   0  0  0  0  0  0  0  0  0  0  0  0
   23.4018   -5.4250   10.4311 C   0  0  0  0  0  0  0  0  0  0  0  0
   24.6775   -6.0811    9.7921 C   0  0  0  0  0  0  0  0  0  0  0  0
   23.3412   -5.6170   11.9303 C   0  0  0  0  0  0  0  0  0  0  0  0
   22.7922   -7.0036   12.3751 C   0  0  0  0  0  0  0  0  0  0  0  0
   21.7888   -6.8326   13.4724 C   0  0  0  0  0  0  0  0  0  0  0  0
  2  1  1  0  0  0
 13 14  1  0  0  0
 13 11  1  0  0  0
  1 11  1  0  0  0
  1  6  1  0  0  0
  8  6  2  0  0  0
 15 14  1  0  0  0
 11 12  1  0  0  0
  6  7  1  0  0  0
  6  5  1  0  0  0
  5  9  1  0  0  0
  7 10  1  0  0  0
  2  3  1  0  0  0
  2  4  1  0  0  0
M  END
> <minimizedAffinity>
-6.22862

$$$$
4U69_Q07_A_404


 15 14  0  0  0  0  0  0  0  0999 V2000
   22.6614   -3.1263   11.0290 C   0  0  0  0  0  0  0  0  0  0  0  0
   23.6427   -2.6297   12.0111 N   0  0  0  0  0  0  0  0  0  0  0  0
   23.6479   -3.2428   12.8263 H   0  0  0  0  0  0  0  0  0  0  0  0
   23.3881   -1.6846   12.2981 H   0  0  0  0  0  0  0  0  0  0  0  0
   20.8245   -4.2386   12.6944 O   0  0  0  0  0  0  0  0  0  0  0  0
   20.9962   -3.0761   11.7820 P   0  0  0  0  0  0  0  0  0  0  0  0
   19.8930   -2.8382   10.7418 O   0  0  0  0  0  0  0  0  0  0  0  0
   21.0762   -1.8463   12.7849 O   0  0  0  0  0  0  0  0  0  0  0  0
   21.5787   -4.2864   13.3026 H   0  0  0  0  0  0  0  0  0  0  0  0
   20.1139   -2.0583   10.2089 H   0  0  0  0  0  0  0  0  0  0  0  0
   23.0454   -4.4963   10.4556 C   0  0  0  0  0  0  0  0  0  0  0  0
   24.1745   -4.4552    9.3648 C   0  0  0  0  0  0  0  0  0  0  0  0
   23.3566   -5.4651   11.5748 C   0  0  0  0  0  0  0  0  0  0  0  0
   22.8748   -6.9213   11.3117 C   0  0  0  0  0  0  0  0  0  0  0  0
   24.0511   -7.8265   11.1199 C   0  0  0  0  0  0  0  0  0  0  0  0
  2  1  1  0  0  0
 13 14  1  0  0  0
 13 11  1  0  0  0
  1 11  1  0  0  0
  1  6  1  0  0  0
  8  6  2  0  0  0
 15 14  1  0  0  0
 11 12  1  0  0  0
  6  7  1  0  0  0
  6  5  1  0  0  0
  5  9  1  0  0  0
  7 10  1  0  0  0
  2  3  1  0  0  0
  2  4  1  0  0  0
M  END
> <minimizedAffinity>
-5.93270

$$$$
4U69_Q07_A_404


 15 14  0  0  0  0  0  0  0  0999 V2000
   21.6662   -3.0032   10.9090 C   0  0  0  0  0  0  0  0  0  0  0  0
   22.0198   -1.6137   10.5650 N   0  0  0  0  0  0  0  0  0  0  0  0
   22.4513   -1.1630   11.3719 H   0  0  0  0  0  0  0  0  0  0  0  0
   21.1768   -1.1037   10.3010 H   0  0  0  0  0  0  0  0  0  0  0  0
   20.6389   -4.1683   13.1389 O   0  0  0  0  0  0  0  0  0  0  0  0
   20.4396   -2.9813   12.2645 P   0  0  0  0  0  0  0  0  0  0  0  0
   19.0146   -2.7214   11.7570 O   0  0  0  0  0  0  0  0  0  0  0  0
   20.9202   -1.7780   13.1842 O   0  0  0  0  0  0  0  0  0  0  0  0
   21.5727   -4.2284   13.3945 H   0  0  0  0  0  0  0  0  0  0  0  0
   19.0094   -1.9267   11.2009 H   0  0  0  0  0  0  0  0  0  0  0  0
   22.8991   -3.8691   11.1977 C   0  0  0  0  0  0  0  0  0  0  0  0
   22.6045   -5.4072   11.3158 C   0  0  0  0  0  0  0  0  0  0  0  0
   23.9985   -3.5647   10.2044 C   0  0  0  0  0  0  0  0  0  0  0  0
   24.6914   -4.8260    9.6119 C   0  0  0  0  0  0  0  0  0  0  0  0
   25.1050   -4.5697    8.1966 C   0  0  0  0  0  0  0  0  0  0  0  0
  2  1  1  0  0  0
 13 14  1  0  0  0
 13 11  1  0  0  0
  1 11  1  0  0  0
  1  6  1  0  0  0
  8  6  2  0  0  0
 15 14  1  0  0  0
 11 12  1  0  0  0
  6  7  1  0  0  0
  6  5  1  0  0  0
  5  9  1  0  0  0
  7 10  1  0  0  0
  2  3  1  0  0  0
  2  4  1  0  0  0
M  END
> <minimizedAffinity>
-5.90905

$$$$
4U69_Q07_A_404


 15 14  0  0  0  0  0  0  0  0999 V2000
   23.1643   -4.9792   11.5373 C   0  0  0  0  0  0  0  0  0  0  0  0
   21.9668   -4.3268   12.0982 N   0  0  0  0  0  0  0  0  0  0  0  0
   21.1761   -4.4695   11.4699 H   0  0  0  0  0  0  0  0  0  0  0  0
   22.1417   -3.3273   12.2030 H   0  0  0  0  0  0  0  0  0  0  0  0
   24.1642   -2.8519   10.1736 O   0  0  0  0  0  0  0  0  0  0  0  0
   23.5683   -4.1942    9.9365 P   0  0  0  0  0  0  0  0  0  0  0  0
   22.4049   -4.2733    8.9384 O   0  0  0  0  0  0  0  0  0  0  0  0
   24.8027   -5.0420    9.4052 O   0  0  0  0  0  0  0  0  0  0  0  0
   24.8851   -2.9275   10.8183 H   0  0  0  0  0  0  0  0  0  0  0  0
   22.1017   -5.1920    8.8674 H   0  0  0  0  0  0  0  0  0  0  0  0
   23.0230   -6.5049   11.4656 C   0  0  0  0  0  0  0  0  0  0  0  0
   24.3203   -7.3005   11.8536 C   0  0  0  0  0  0  0  0  0  0  0  0
   21.8105   -6.9572   12.2487 C   0  0  0  0  0  0  0  0  0  0  0  0
   22.0501   -7.0826   13.7812 C   0  0  0  0  0  0  0  0  0  0  0  0
   20.7450   -7.2479   14.4950 C   0  0  0  0  0  0  0  0  0  0  0  0
  2  1  1  0  0  0
 13 14  1  0  0  0
 13 11  1  0  0  0
  1 11  1  0  0  0
  1  6  1  0  0  0
  8  6  2  0  0  0
 15 14  1  0  0  0
 11 12  1  0  0  0
  6  7  1  0  0  0
  6  5  1  0  0  0
  5  9  1  0  0  0
  7 10  1  0  0  0
  2  3  1  0  0  0
  2  4  1  0  0  0
M  END
> <minimizedAffinity>
-5.53534

$$$$
4U69_Q07_A_404


 15 14  0  0  0  0  0  0  0  0999 V2000
   22.4959   -4.5989   12.0715 C   0  0  0  0  0  0  0  0  0  0  0  0
   21.3456   -5.2002   12.7711 N   0  0  0  0  0  0  0  0  0  0  0  0
   20.6257   -5.4471   12.0920 H   0  0  0  0  0  0  0  0  0  0  0  0
   20.9664   -4.5301   13.4402 H   0  0  0  0  0  0  0  0  0  0  0  0
   21.0708   -3.3972   10.0941 O   0  0  0  0  0  0  0  0  0  0  0  0
   21.9475   -3.0615   11.2482 P   0  0  0  0  0  0  0  0  0  0  0  0
   23.1106   -2.0961   10.9818 O   0  0  0  0  0  0  0  0  0  0  0  0
   20.9331   -2.4208   12.2900 O   0  0  0  0  0  0  0  0  0  0  0  0
   20.3770   -4.0106   10.3827 H   0  0  0  0  0  0  0  0  0  0  0  0
   23.6074   -1.9541   11.8027 H   0  0  0  0  0  0  0  0  0  0  0  0
   23.1985   -5.5908   11.1357 C   0  0  0  0  0  0  0  0  0  0  0  0
   22.4849   -6.9836   11.0047 C   0  0  0  0  0  0  0  0  0  0  0  0
   23.4639   -4.9475    9.7927 C   0  0  0  0  0  0  0  0  0  0  0  0
   24.9720   -4.8301    9.4274 C   0  0  0  0  0  0  0  0  0  0  0  0
   25.1355   -4.7151    7.9441 C   0  0  0  0  0  0  0  0  0  0  0  0
  2  1  1  0  0  0
 13 14  1  0  0  0
 13 11  1  0  0  0
  1 11  1  0  0  0
  1  6  1  0  0  0
  8  6  2  0  0  0
 15 14  1  0  0  0
 11 12  1  0  0  0
  6  7  1  0  0  0
  6  5  1  0  0  0
  5  9  1  0  0  0
  7 10  1  0  0  0
  2  3  1  0  0  0
  2  4  1  0  0  0
M  END
> <minimizedAffinity>
-5.26401

$$$$
4U69_Q07_A_404


 15 14  0  0  0  0  0  0  0  0999 V2000
   23.6606   -5.8145   10.0201 C   0  0  0  0  0  0  0  0  0  0  0  0
   25.0972   -6.0339   10.2692 N   0  0  0  0  0  0  0  0  0  0  0  0
   25.3195   -5.7733   11.2299 H   0  0  0  0  0  0  0  0  0  0  0  0
   25.6450   -5.4619    9.6263 H   0  0  0  0  0  0  0  0  0  0  0  0
   21.8944   -3.7619    9.7910 O   0  0  0  0  0  0  0  0  0  0  0  0
   23.2923   -4.0350   10.2204 P   0  0  0  0  0  0  0  0  0  0  0  0
   24.3904   -3.1421    9.6266 O   0  0  0  0  0  0  0  0  0  0  0  0
   23.2239   -3.8423   11.7961 O   0  0  0  0  0  0  0  0  0  0  0  0
   21.2940   -4.3851   10.2292 H   0  0  0  0  0  0  0  0  0  0  0  0
   25.2529   -3.4134    9.9779 H   0  0  0  0  0  0  0  0  0  0  0  0
   22.7704   -6.7344   10.8654 C   0  0  0  0  0  0  0  0  0  0  0  0
   22.6238   -8.1952   10.3076 C   0  0  0  0  0  0  0  0  0  0  0  0
   23.2127   -6.7086   12.3117 C   0  0  0  0  0  0  0  0  0  0  0  0
   22.1271   -7.1841   13.3203 C   0  0  0  0  0  0  0  0  0  0  0  0
   21.2104   -6.0516   13.6626 C   0  0  0  0  0  0  0  0  0  0  0  0
  2  1  1  0  0  0
 13 14  1  0  0  0
 13 11  1  0  0  0
  1 11  1  0  0  0
  1  6  1  0  0  0
  8  6  2  0  0  0
 15 14  1  0  0  0
 11 12  1  0  0  0
  6  7  1  0  0  0
  6  5  1  0  0  0
  5  9  1  0  0  0
  7 10  1  0  0  0
  2  3  1  0  0  0
  2  4  1  0  0  0
M  END
> <minimizedAffinity>
-5.25740

$$$$
