4PIN_AVI_A_401


 15 15  0  0  0  0  0  0  0  0999 V2000
    9.2924   15.3280   14.6458 C   0  0  0  0  0  0  0  0  0  0  0  0
    8.2055   15.7498   13.6562 C   0  0  0  0  0  0  0  0  0  0  0  0
    7.3615   16.5295   14.1033 O   0  0  0  0  0  0  0  0  0  0  0  0
    8.2025   15.2956   12.5132 O   0  0  0  0  0  0  0  0  0  0  0  0
    7.4274   16.8353   14.9866 H   0  0  0  0  0  0  0  0  0  0  0  0
   10.2611   16.1366   16.6831 C   0  0  0  0  0  0  0  0  0  0  0  0
    9.8453   16.4984   15.3294 N   0  0  0  0  0  0  0  0  0  0  0  0
   11.0671   16.8704   14.6104 C   0  0  0  0  0  0  0  0  0  0  0  0
    8.6966   14.3185   15.6322 C   0  0  0  0  0  0  0  0  0  0  0  0
    9.0703   12.8994   15.3390 C   0  0  0  0  0  0  0  0  0  0  0  0
    9.4582   12.4945   14.1404 N   0  0  0  0  0  0  0  0  0  0  0  0
    9.7290   11.2036   14.1527 C   0  0  0  0  0  0  0  0  0  0  0  0
    9.5194   10.7533   15.3721 N   0  0  0  0  0  0  0  0  0  0  0  0
    9.1007   11.8067   16.1463 C   0  0  0  0  0  0  0  0  0  0  0  0
    9.6414    9.8246   15.6752 H   0  0  0  0  0  0  0  0  0  0  0  0
  4  2  2  0  0  0
  2  3  1  0  0  0
  2  1  1  0  0  0
 13 14  1  0  0  0
 13 12  1  0  0  0
 14 10  2  0  0  0
  8  7  1  0  0  0
 12 11  2  0  0  0
  1  7  1  0  0  0
  1  9  1  0  0  0
 10 11  1  0  0  0
 10  9  1  0  0  0
  7  6  1  0  0  0
  3  5  1  0  0  0
 13 15  1  0  0  0
M  END
> <minimizedAffinity>
-5.51184

$$$$
4PIN_AVI_A_401


 15 15  0  0  0  0  0  0  0  0999 V2000
   10.3597   15.9661   16.4531 C   0  0  0  0  0  0  0  0  0  0  0  0
   10.2323   16.6131   15.0734 C   0  0  0  0  0  0  0  0  0  0  0  0
    9.3144   17.4281   14.9577 O   0  0  0  0  0  0  0  0  0  0  0  0
   10.9999   16.2907   14.1680 O   0  0  0  0  0  0  0  0  0  0  0  0
    8.7677   17.6254   15.6926 H   0  0  0  0  0  0  0  0  0  0  0  0
    9.6864   16.7992   18.5967 C   0  0  0  0  0  0  0  0  0  0  0  0
   10.6059   16.9841   17.4757 N   0  0  0  0  0  0  0  0  0  0  0  0
   11.9509   16.7374   18.0031 C   0  0  0  0  0  0  0  0  0  0  0  0
    9.0871   15.1631   16.7408 C   0  0  0  0  0  0  0  0  0  0  0  0
    9.0623   13.8196   16.0819 C   0  0  0  0  0  0  0  0  0  0  0  0
    9.2046   12.6895   16.7553 N   0  0  0  0  0  0  0  0  0  0  0  0
    9.1434   11.6539   15.9406 C   0  0  0  0  0  0  0  0  0  0  0  0
    8.9569   12.1058   14.7180 N   0  0  0  0  0  0  0  0  0  0  0  0
    8.9016   13.4761   14.7770 C   0  0  0  0  0  0  0  0  0  0  0  0
    8.8721   11.5574   13.9048 H   0  0  0  0  0  0  0  0  0  0  0  0
  4  2  2  0  0  0
  2  3  1  0  0  0
  2  1  1  0  0  0
 13 14  1  0  0  0
 13 12  1  0  0  0
 14 10  2  0  0  0
  8  7  1  0  0  0
 12 11  2  0  0  0
  1  7  1  0  0  0
  1  9  1  0  0  0
 10 11  1  0  0  0
 10  9  1  0  0  0
  7  6  1  0  0  0
  3  5  1  0  0  0
 13 15  1  0  0  0
M  END
> <minimizedAffinity>
-4.61776

$$$$
4PIN_AVI_A_401


 15 15  0  0  0  0  0  0  0  0999 V2000
    9.1884   12.7349   15.4181 C   0  0  0  0  0  0  0  0  0  0  0  0
    8.9314   13.0772   16.8861 C   0  0  0  0  0  0  0  0  0  0  0  0
    8.5686   14.2360   17.1000 O   0  0  0  0  0  0  0  0  0  0  0  0
    9.1128   12.2288   17.7580 O   0  0  0  0  0  0  0  0  0  0  0  0
    8.4504   14.8295   16.3846 H   0  0  0  0  0  0  0  0  0  0  0  0
    8.1612   10.5787   15.2214 C   0  0  0  0  0  0  0  0  0  0  0  0
    9.4319   11.3000   15.2616 N   0  0  0  0  0  0  0  0  0  0  0  0
   10.0495   11.1168   13.9451 C   0  0  0  0  0  0  0  0  0  0  0  0
    7.9919   13.2057   14.5850 C   0  0  0  0  0  0  0  0  0  0  0  0
    8.1837   14.5551   13.9670 C   0  0  0  0  0  0  0  0  0  0  0  0
    7.3542   15.0533   13.0643 N   0  0  0  0  0  0  0  0  0  0  0  0
    7.7491   16.2532   12.6846 C   0  0  0  0  0  0  0  0  0  0  0  0
    8.8489   16.5499   13.3450 N   0  0  0  0  0  0  0  0  0  0  0  0
    9.1484   15.4912   14.1659 C   0  0  0  0  0  0  0  0  0  0  0  0
    9.3654   17.3842   13.2643 H   0  0  0  0  0  0  0  0  0  0  0  0
  4  2  2  0  0  0
  2  3  1  0  0  0
  2  1  1  0  0  0
 13 14  1  0  0  0
 13 12  1  0  0  0
 14 10  2  0  0  0
  8  7  1  0  0  0
 12 11  2  0  0  0
  1  7  1  0  0  0
  1  9  1  0  0  0
 10 11  1  0  0  0
 10  9  1  0  0  0
  7  6  1  0  0  0
  3  5  1  0  0  0
 13 15  1  0  0  0
M  END
> <minimizedAffinity>
-4.36545

$$$$
4PIN_AVI_A_401


 15 15  0  0  0  0  0  0  0  0999 V2000
    8.7857   13.6646   15.0596 C   0  0  0  0  0  0  0  0  0  0  0  0
    9.0698   14.4307   16.3523 C   0  0  0  0  0  0  0  0  0  0  0  0
    8.1825   14.3685   17.2060 O   0  0  0  0  0  0  0  0  0  0  0  0
   10.1137   15.0698   16.4734 O   0  0  0  0  0  0  0  0  0  0  0  0
    7.4119   13.8605   17.0446 H   0  0  0  0  0  0  0  0  0  0  0  0
    9.5823   11.5404   14.2879 C   0  0  0  0  0  0  0  0  0  0  0  0
    8.7877   12.2220   15.3078 N   0  0  0  0  0  0  0  0  0  0  0  0
    9.4856   12.0125   16.5795 C   0  0  0  0  0  0  0  0  0  0  0  0
    7.4485   14.1440   14.4859 C   0  0  0  0  0  0  0  0  0  0  0  0
    7.5863   15.2368   13.4727 C   0  0  0  0  0  0  0  0  0  0  0  0
    8.3532   15.1257   12.4001 N   0  0  0  0  0  0  0  0  0  0  0  0
    8.2957   16.2252   11.6736 C   0  0  0  0  0  0  0  0  0  0  0  0
    7.4812   17.0688   12.2723 N   0  0  0  0  0  0  0  0  0  0  0  0
    7.0162   16.4690   13.4161 C   0  0  0  0  0  0  0  0  0  0  0  0
    7.2469   17.9710   11.9554 H   0  0  0  0  0  0  0  0  0  0  0  0
  4  2  2  0  0  0
  2  3  1  0  0  0
  2  1  1  0  0  0
 13 14  1  0  0  0
 13 12  1  0  0  0
 14 10  2  0  0  0
  8  7  1  0  0  0
 12 11  2  0  0  0
  1  7  1  0  0  0
  1  9  1  0  0  0
 10 11  1  0  0  0
 10  9  1  0  0  0
  7  6  1  0  0  0
  3  5  1  0  0  0
 13 15  1  0  0  0
M  END
> <minimizedAffinity>
-4.21217

$$$$
4PIN_AVI_A_401


 15 15  0  0  0  0  0  0  0  0999 V2000
    8.4639   15.7512   14.1477 C   0  0  0  0  0  0  0  0  0  0  0  0
    9.7900   16.3082   14.6668 C   0  0  0  0  0  0  0  0  0  0  0  0
    9.7140   16.9595   15.7109 O   0  0  0  0  0  0  0  0  0  0  0  0
   10.8288   16.1143   14.0372 O   0  0  0  0  0  0  0  0  0  0  0  0
    8.8865   17.0660   16.1374 H   0  0  0  0  0  0  0  0  0  0  0  0
    8.1241   16.1009   11.8015 C   0  0  0  0  0  0  0  0  0  0  0  0
    7.8928   16.6445   13.1384 N   0  0  0  0  0  0  0  0  0  0  0  0
    6.4410   16.6365   13.3391 C   0  0  0  0  0  0  0  0  0  0  0  0
    8.7031   14.3427   13.5946 C   0  0  0  0  0  0  0  0  0  0  0  0
    8.8339   13.2947   14.6550 C   0  0  0  0  0  0  0  0  0  0  0  0
    9.2653   12.0698   14.4012 N   0  0  0  0  0  0  0  0  0  0  0  0
    9.2869   11.3483   15.5053 C   0  0  0  0  0  0  0  0  0  0  0  0
    8.8675   12.1058   16.4972 N   0  0  0  0  0  0  0  0  0  0  0  0
    8.5728   13.3459   15.9875 C   0  0  0  0  0  0  0  0  0  0  0  0
    8.7805   11.8312   17.4386 H   0  0  0  0  0  0  0  0  0  0  0  0
  4  2  2  0  0  0
  2  3  1  0  0  0
  2  1  1  0  0  0
 13 14  1  0  0  0
 13 12  1  0  0  0
 14 10  2  0  0  0
  8  7  1  0  0  0
 12 11  2  0  0  0
  1  7  1  0  0  0
  1  9  1  0  0  0
 10 11  1  0  0  0
 10  9  1  0  0  0
  7  6  1  0  0  0
  3  5  1  0  0  0
 13 15  1  0  0  0
M  END
> <minimizedAffinity>
-4.16315

$$$$
4PIN_AVI_A_401


 15 15  0  0  0  0  0  0  0  0999 V2000
    8.6103   15.2903   14.7987 C   0  0  0  0  0  0  0  0  0  0  0  0
    7.9029   15.8905   13.5830 C   0  0  0  0  0  0  0  0  0  0  0  0
    6.8909   16.5481   13.8353 O   0  0  0  0  0  0  0  0  0  0  0  0
    8.3377   15.6820   12.4515 O   0  0  0  0  0  0  0  0  0  0  0  0
    6.6183   16.6659   14.7240 H   0  0  0  0  0  0  0  0  0  0  0  0
    9.1262   13.2576   15.9583 C   0  0  0  0  0  0  0  0  0  0  0  0
    8.6430   13.8300   14.7031 N   0  0  0  0  0  0  0  0  0  0  0  0
    7.2545   13.3843   14.5565 C   0  0  0  0  0  0  0  0  0  0  0  0
   10.0174   15.8883   14.8958 C   0  0  0  0  0  0  0  0  0  0  0  0
   10.3794   16.3528   16.2716 C   0  0  0  0  0  0  0  0  0  0  0  0
   11.5693   16.8493   16.5694 N   0  0  0  0  0  0  0  0  0  0  0  0
   11.6265   17.1821   17.8445 C   0  0  0  0  0  0  0  0  0  0  0  0
   10.4621   16.9040   18.3924 N   0  0  0  0  0  0  0  0  0  0  0  0
    9.6510   16.3766   17.4185 C   0  0  0  0  0  0  0  0  0  0  0  0
   10.2163   17.0487   19.3347 H   0  0  0  0  0  0  0  0  0  0  0  0
  4  2  2  0  0  0
  2  3  1  0  0  0
  2  1  1  0  0  0
 13 14  1  0  0  0
 13 12  1  0  0  0
 14 10  2  0  0  0
  8  7  1  0  0  0
 12 11  2  0  0  0
  1  7  1  0  0  0
  1  9  1  0  0  0
 10 11  1  0  0  0
 10  9  1  0  0  0
  7  6  1  0  0  0
  3  5  1  0  0  0
 13 15  1  0  0  0
M  END
> <minimizedAffinity>
-4.11235

$$$$
4PIN_AVI_A_401


 15 15  0  0  0  0  0  0  0  0999 V2000
    8.3715   13.7671   15.2430 C   0  0  0  0  0  0  0  0  0  0  0  0
    8.7373   13.6903   16.7258 C   0  0  0  0  0  0  0  0  0  0  0  0
    8.2453   14.5709   17.4348 O   0  0  0  0  0  0  0  0  0  0  0  0
    9.4935   12.8082   17.1293 O   0  0  0  0  0  0  0  0  0  0  0  0
    7.6757   15.2122   17.0578 H   0  0  0  0  0  0  0  0  0  0  0  0
    9.6231   15.7438   14.7243 C   0  0  0  0  0  0  0  0  0  0  0  0
    8.2848   15.1622   14.8081 N   0  0  0  0  0  0  0  0  0  0  0  0
    7.7575   15.1471   13.4407 C   0  0  0  0  0  0  0  0  0  0  0  0
    9.4106   12.9809   14.4371 C   0  0  0  0  0  0  0  0  0  0  0  0
    9.1971   11.4999   14.4643 C   0  0  0  0  0  0  0  0  0  0  0  0
    9.8677   10.6658   13.6861 N   0  0  0  0  0  0  0  0  0  0  0  0
    9.4915    9.4212   13.9083 C   0  0  0  0  0  0  0  0  0  0  0  0
    8.5651    9.4347   14.8437 N   0  0  0  0  0  0  0  0  0  0  0  0
    8.3577   10.7398   15.2154 C   0  0  0  0  0  0  0  0  0  0  0  0
    8.1025    8.6474   15.2118 H   0  0  0  0  0  0  0  0  0  0  0  0
  4  2  2  0  0  0
  2  3  1  0  0  0
  2  1  1  0  0  0
 13 14  1  0  0  0
 13 12  1  0  0  0
 14 10  2  0  0  0
  8  7  1  0  0  0
 12 11  2  0  0  0
  1  7  1  0  0  0
  1  9  1  0  0  0
 10 11  1  0  0  0
 10  9  1  0  0  0
  7  6  1  0  0  0
  3  5  1  0  0  0
 13 15  1  0  0  0
M  END
> <minimizedAffinity>
-4.09683

$$$$
4PIN_AVI_A_401


 15 15  0  0  0  0  0  0  0  0999 V2000
    9.9339   16.4052   15.1492 C   0  0  0  0  0  0  0  0  0  0  0  0
   11.1832   17.0253   14.5221 C   0  0  0  0  0  0  0  0  0  0  0  0
   11.5903   16.4682   13.5003 O   0  0  0  0  0  0  0  0  0  0  0  0
   11.7222   17.9957   15.0520 O   0  0  0  0  0  0  0  0  0  0  0  0
   11.1273   15.7318   13.1521 H   0  0  0  0  0  0  0  0  0  0  0  0
    8.6687   14.4098   14.7492 C   0  0  0  0  0  0  0  0  0  0  0  0
    9.1859   15.6391   14.1511 N   0  0  0  0  0  0  0  0  0  0  0  0
    8.0155   16.4439   13.7900 C   0  0  0  0  0  0  0  0  0  0  0  0
   10.3580   15.5356   16.3371 C   0  0  0  0  0  0  0  0  0  0  0  0
   10.6780   16.3189   17.5714 C   0  0  0  0  0  0  0  0  0  0  0  0
    9.7514   16.7092   18.4317 N   0  0  0  0  0  0  0  0  0  0  0  0
   10.2973   17.3791   19.4283 C   0  0  0  0  0  0  0  0  0  0  0  0
   11.5970   17.4293   19.2241 N   0  0  0  0  0  0  0  0  0  0  0  0
   11.8676   16.7652   18.0535 C   0  0  0  0  0  0  0  0  0  0  0  0
   12.2584   17.8661   19.8080 H   0  0  0  0  0  0  0  0  0  0  0  0
  4  2  2  0  0  0
  2  3  1  0  0  0
  2  1  1  0  0  0
 13 14  1  0  0  0
 13 12  1  0  0  0
 14 10  2  0  0  0
  8  7  1  0  0  0
 12 11  2  0  0  0
  1  7  1  0  0  0
  1  9  1  0  0  0
 10 11  1  0  0  0
 10  9  1  0  0  0
  7  6  1  0  0  0
  3  5  1  0  0  0
 13 15  1  0  0  0
M  END
> <minimizedAffinity>
-3.93648

$$$$
4PIN_AVI_A_401


 15 15  0  0  0  0  0  0  0  0999 V2000
    9.3906   14.6364   15.1672 C   0  0  0  0  0  0  0  0  0  0  0  0
    8.9416   13.8802   16.4182 C   0  0  0  0  0  0  0  0  0  0  0  0
    8.2813   14.5409   17.2231 O   0  0  0  0  0  0  0  0  0  0  0  0
    9.2637   12.7038   16.5764 O   0  0  0  0  0  0  0  0  0  0  0  0
    8.0726   15.4349   17.0357 H   0  0  0  0  0  0  0  0  0  0  0  0
    7.3050   13.6666   14.4949 C   0  0  0  0  0  0  0  0  0  0  0  0
    8.5414   14.2897   14.0265 N   0  0  0  0  0  0  0  0  0  0  0  0
    8.1500   15.5514   13.3915 C   0  0  0  0  0  0  0  0  0  0  0  0
    9.3646   16.1393   15.4632 C   0  0  0  0  0  0  0  0  0  0  0  0
   10.5585   16.6226   16.2252 C   0  0  0  0  0  0  0  0  0  0  0  0
   10.6914   16.4521   17.5307 N   0  0  0  0  0  0  0  0  0  0  0  0
   11.8302   16.9678   17.9517 C   0  0  0  0  0  0  0  0  0  0  0  0
   12.4552   17.4816   16.9130 N   0  0  0  0  0  0  0  0  0  0  0  0
   11.6722   17.2775   15.8041 C   0  0  0  0  0  0  0  0  0  0  0  0
   13.3302   17.9327   16.9289 H   0  0  0  0  0  0  0  0  0  0  0  0
  4  2  2  0  0  0
  2  3  1  0  0  0
  2  1  1  0  0  0
 13 14  1  0  0  0
 13 12  1  0  0  0
 14 10  2  0  0  0
  8  7  1  0  0  0
 12 11  2  0  0  0
  1  7  1  0  0  0
  1  9  1  0  0  0
 10 11  1  0  0  0
 10  9  1  0  0  0
  7  6  1  0  0  0
  3  5  1  0  0  0
 13 15  1  0  0  0
M  END
> <minimizedAffinity>
-3.84394

$$$$
4PIN_AVI_A_401


 15 15  0  0  0  0  0  0  0  0999 V2000
    8.3248   13.9006   15.2790 C   0  0  0  0  0  0  0  0  0  0  0  0
    8.5668   12.5033   14.7070 C   0  0  0  0  0  0  0  0  0  0  0  0
    7.7558   11.6437   15.0586 O   0  0  0  0  0  0  0  0  0  0  0  0
    9.5314   12.2963   13.9725 O   0  0  0  0  0  0  0  0  0  0  0  0
    7.0431   11.8743   15.6214 H   0  0  0  0  0  0  0  0  0  0  0  0
    9.4374   12.7391   17.0554 C   0  0  0  0  0  0  0  0  0  0  0  0
    8.6984   13.9471   16.6936 N   0  0  0  0  0  0  0  0  0  0  0  0
    9.6360   15.0631   16.8471 C   0  0  0  0  0  0  0  0  0  0  0  0
    9.1119   14.9176   14.4463 C   0  0  0  0  0  0  0  0  0  0  0  0
    8.2751   15.6516   13.4460 C   0  0  0  0  0  0  0  0  0  0  0  0
    8.5892   15.7195   12.1623 N   0  0  0  0  0  0  0  0  0  0  0  0
    7.6889   16.4216   11.5016 C   0  0  0  0  0  0  0  0  0  0  0  0
    6.7710   16.8189   12.3579 N   0  0  0  0  0  0  0  0  0  0  0  0
    7.1167   16.3453   13.5991 C   0  0  0  0  0  0  0  0  0  0  0  0
    5.9767   17.3602   12.1453 H   0  0  0  0  0  0  0  0  0  0  0  0
  4  2  2  0  0  0
  2  3  1  0  0  0
  2  1  1  0  0  0
 13 14  1  0  0  0
 13 12  1  0  0  0
 14 10  2  0  0  0
  8  7  1  0  0  0
 12 11  2  0  0  0
  1  7  1  0  0  0
  1  9  1  0  0  0
 10 11  1  0  0  0
 10  9  1  0  0  0
  7  6  1  0  0  0
  3  5  1  0  0  0
 13 15  1  0  0  0
M  END
> <minimizedAffinity>
-3.78929

$$$$
