2BOK_784_A_1244


 32 35  0  0  0  0  0  0  0  0999 V2000
   -4.8269   11.9791   19.1387 O   0  0  0  0  0  0  0  0  0  0  0  0
   -4.4599   11.5945   20.2340 C   0  0  0  0  0  0  0  0  0  0  0  0
   -5.3449   11.2566   21.2912 N   0  0  0  0  0  0  0  0  0  0  0  0
   -3.0172   11.4503   20.6005 C   0  0  0  0  0  0  0  0  0  0  0  0
   -3.0498   10.4565   21.7501 C   0  0  0  0  0  0  0  0  0  0  0  0
   -4.5258   10.3879   22.0648 C   0  0  0  0  0  0  0  0  0  0  0  0
   -5.0062    9.6678   22.9113 O   0  0  0  0  0  0  0  0  0  0  0  0
   -2.5424   12.7744   21.1837 C   0  0  0  0  0  0  0  0  0  0  0  0
   -1.2379   13.2963   20.5775 C   0  0  0  0  0  0  0  0  0  0  0  0
   -0.3827   13.7498   21.7531 C   0  0  0  0  0  0  0  0  0  0  0  0
   -1.1164   13.3113   23.0217 C   0  0  0  0  0  0  0  0  0  0  0  0
   -2.3349   12.5672   22.6367 N   0  0  0  0  0  0  0  0  0  0  0  0
   -2.1595   11.1071   22.8233 C   0  0  0  0  0  0  0  0  0  0  0  0
   -2.3459   10.6128   24.2212 C   0  0  0  0  0  0  0  0  0  0  0  0
   -3.1784   11.2566   25.1462 C   0  0  0  0  0  0  0  0  0  0  0  0
   -3.3218   10.7582   26.4447 C   0  0  0  0  0  0  0  0  0  0  0  0
   -2.6284    9.6041   26.8316 C   0  0  0  0  0  0  0  0  0  0  0  0
   -1.7989    8.9595   25.9076 C   0  0  0  0  0  0  0  0  0  0  0  0
   -1.6490    9.4642   24.6144 C   0  0  0  0  0  0  0  0  0  0  0  0
   -2.8032    9.0659   28.2229 C   0  0  0  0  0  0  0  0  0  0  0  0
   -2.1518    8.0601   28.6643 N   0  0  0  0  0  0  0  0  0  0  0  0
   -3.7040    9.6516   28.9951 N   0  0  0  0  0  0  0  0  0  0  0  0
   -1.4803    7.6200   28.0946 H   0  0  0  0  0  0  0  0  0  0  0  0
   -4.2094   10.4273   28.6605 H   0  0  0  0  0  0  0  0  0  0  0  0
   -3.8688    9.3116   29.9042 H   0  0  0  0  0  0  0  0  0  0  0  0
   -6.6988   10.7571   20.9138 C   0  0  0  0  0  0  0  0  0  0  0  0
   -6.7505    9.5645   19.9502 C   0  0  0  0  0  0  0  0  0  0  0  0
   -7.3784    8.3639   20.6542 C   0  0  0  0  0  0  0  0  0  0  0  0
   -8.2093    7.4646   19.8246 N   0  0  0  0  0  0  0  0  0  0  0  0
   -7.6644    6.1004   19.7447 C   0  0  0  0  0  0  0  0  0  0  0  0
   -8.2250    8.0230   18.4663 C   0  0  0  0  0  0  0  0  0  0  0  0
   -9.5887    7.3867   20.3254 C   0  0  0  0  0  0  0  0  0  0  0  0
  1  2  2  0  0  0
  2  3  1  0  0  0
  2  4  1  0  0  0
  3 26  1  0  0  0
  3  6  1  0  0  0
 26 27  1  0  0  0
 27 28  1  0  0  0
 28 29  1  0  0  0
 29 30  1  0  0  0
 29 31  1  0  0  0
 29 32  1  0  0  0
  4  5  1  0  0  0
  4  8  1  0  0  0
  5  6  1  0  0  0
  5 13  1  0  0  0
  6  7  2  0  0  0
  8  9  1  0  0  0
  8 12  1  0  0  0
  9 10  1  0  0  0
 10 11  1  0  0  0
 11 12  1  0  0  0
 12 13  1  0  0  0
 13 14  1  0  0  0
 14 15  2  0  0  0
 14 19  1  0  0  0
 15 16  1  0  0  0
 16 17  2  0  0  0
 17 20  1  0  0  0
 17 18  1  0  0  0
 20 21  2  0  0  0
 20 22  1  0  0  0
 18 19  2  0  0  0
 21 23  1  0  0  0
 22 24  1  0  0  0
 22 25  1  0  0  0
M  CHG 1  29   1
M  END
> <minimizedAffinity>
-9.34868

$$$$
2BOK_784_A_1244


 32 35  0  0  0  0  0  0  0  0999 V2000
   -4.8775   12.0684   19.1690 O   0  0  0  0  0  0  0  0  0  0  0  0
   -4.5051   11.6716   20.2582 C   0  0  0  0  0  0  0  0  0  0  0  0
   -5.3835   11.3526   21.3266 N   0  0  0  0  0  0  0  0  0  0  0  0
   -3.0615   11.4907   20.6043 C   0  0  0  0  0  0  0  0  0  0  0  0
   -3.1029   10.4946   21.7516 C   0  0  0  0  0  0  0  0  0  0  0  0
   -4.5756   10.4615   22.0865 C   0  0  0  0  0  0  0  0  0  0  0  0
   -5.0619    9.7510   22.9377 O   0  0  0  0  0  0  0  0  0  0  0  0
   -2.5461   12.8009   21.1843 C   0  0  0  0  0  0  0  0  0  0  0  0
   -1.2375   13.2922   20.5615 C   0  0  0  0  0  0  0  0  0  0  0  0
   -0.3552   13.7209   21.7262 C   0  0  0  0  0  0  0  0  0  0  0  0
   -1.0820   13.2969   23.0038 C   0  0  0  0  0  0  0  0  0  0  0  0
   -2.3237   12.5844   22.6337 N   0  0  0  0  0  0  0  0  0  0  0  0
   -2.1820   11.1198   22.8141 C   0  0  0  0  0  0  0  0  0  0  0  0
   -2.3612   10.6261   24.2131 C   0  0  0  0  0  0  0  0  0  0  0  0
   -3.1944   11.2664   25.1400 C   0  0  0  0  0  0  0  0  0  0  0  0
   -3.3309   10.7688   26.4395 C   0  0  0  0  0  0  0  0  0  0  0  0
   -2.6300    9.6190   26.8256 C   0  0  0  0  0  0  0  0  0  0  0  0
   -1.7999    8.9778   25.8997 C   0  0  0  0  0  0  0  0  0  0  0  0
   -1.6568    9.4818   24.6054 C   0  0  0  0  0  0  0  0  0  0  0  0
   -2.7975    9.0814   28.2180 C   0  0  0  0  0  0  0  0  0  0  0  0
   -2.1137    8.1024   28.6704 N   0  0  0  0  0  0  0  0  0  0  0  0
   -3.7260    9.6373   28.9792 N   0  0  0  0  0  0  0  0  0  0  0  0
   -1.4213    7.6845   28.1089 H   0  0  0  0  0  0  0  0  0  0  0  0
   -4.2565   10.3924   28.6362 H   0  0  0  0  0  0  0  0  0  0  0  0
   -3.8864    9.2959   29.8885 H   0  0  0  0  0  0  0  0  0  0  0  0
   -6.7545   10.8878   20.9667 C   0  0  0  0  0  0  0  0  0  0  0  0
   -7.9132   11.8393   21.2914 C   0  0  0  0  0  0  0  0  0  0  0  0
   -8.2634   11.7329   22.7738 C   0  0  0  0  0  0  0  0  0  0  0  0
   -8.0724   12.9497   23.5925 N   0  0  0  0  0  0  0  0  0  0  0  0
   -9.1178   13.1173   24.6139 C   0  0  0  0  0  0  0  0  0  0  0  0
   -8.1458   14.0988   22.6809 C   0  0  0  0  0  0  0  0  0  0  0  0
   -6.7635   12.9525   24.2607 C   0  0  0  0  0  0  0  0  0  0  0  0
  1  2  2  0  0  0
  2  3  1  0  0  0
  2  4  1  0  0  0
  3 26  1  0  0  0
  3  6  1  0  0  0
 26 27  1  0  0  0
 27 28  1  0  0  0
 28 29  1  0  0  0
 29 30  1  0  0  0
 29 31  1  0  0  0
 29 32  1  0  0  0
  4  5  1  0  0  0
  4  8  1  0  0  0
  5  6  1  0  0  0
  5 13  1  0  0  0
  6  7  2  0  0  0
  8  9  1  0  0  0
  8 12  1  0  0  0
  9 10  1  0  0  0
 10 11  1  0  0  0
 11 12  1  0  0  0
 12 13  1  0  0  0
 13 14  1  0  0  0
 14 15  2  0  0  0
 14 19  1  0  0  0
 15 16  1  0  0  0
 16 17  2  0  0  0
 17 20  1  0  0  0
 17 18  1  0  0  0
 20 21  2  0  0  0
 20 22  1  0  0  0
 18 19  2  0  0  0
 21 23  1  0  0  0
 22 24  1  0  0  0
 22 25  1  0  0  0
M  CHG 1  29   1
M  END
> <minimizedAffinity>
-8.52664

$$$$
2BOK_784_A_1244


 32 35  0  0  0  0  0  0  0  0999 V2000
   -6.1660   13.0797   20.8550 O   0  0  0  0  0  0  0  0  0  0  0  0
   -5.5152   12.4993   21.7047 C   0  0  0  0  0  0  0  0  0  0  0  0
   -5.5368   11.0927   21.8940 N   0  0  0  0  0  0  0  0  0  0  0  0
   -4.6226   13.2130   22.6692 C   0  0  0  0  0  0  0  0  0  0  0  0
   -3.6437   12.1326   23.0993 C   0  0  0  0  0  0  0  0  0  0  0  0
   -4.2853   10.8854   22.5381 C   0  0  0  0  0  0  0  0  0  0  0  0
   -3.8033    9.7779   22.6222 O   0  0  0  0  0  0  0  0  0  0  0  0
   -5.4449   13.5698   23.9001 C   0  0  0  0  0  0  0  0  0  0  0  0
   -5.3139   15.0289   24.3421 C   0  0  0  0  0  0  0  0  0  0  0  0
   -5.1258   14.9928   25.8528 C   0  0  0  0  0  0  0  0  0  0  0  0
   -4.9589   13.5216   26.2371 C   0  0  0  0  0  0  0  0  0  0  0  0
   -4.9811   12.7005   25.0076 N   0  0  0  0  0  0  0  0  0  0  0  0
   -3.6197   12.2486   24.6335 C   0  0  0  0  0  0  0  0  0  0  0  0
   -3.1143   11.0542   25.3759 C   0  0  0  0  0  0  0  0  0  0  0  0
   -1.9636   10.3545   24.9889 C   0  0  0  0  0  0  0  0  0  0  0  0
   -1.5283    9.2410   25.7139 C   0  0  0  0  0  0  0  0  0  0  0  0
   -2.2454    8.8147   26.8392 C   0  0  0  0  0  0  0  0  0  0  0  0
   -3.3930    9.5145   27.2275 C   0  0  0  0  0  0  0  0  0  0  0  0
   -3.8322   10.6203   26.4965 C   0  0  0  0  0  0  0  0  0  0  0  0
   -1.7594    7.6287   27.6223 C   0  0  0  0  0  0  0  0  0  0  0  0
   -1.4043    6.5326   27.0718 N   0  0  0  0  0  0  0  0  0  0  0  0
   -1.7423    7.7336   28.9411 N   0  0  0  0  0  0  0  0  0  0  0  0
   -1.4149    6.4483   26.0910 H   0  0  0  0  0  0  0  0  0  0  0  0
   -2.0150    8.5761   29.3714 H   0  0  0  0  0  0  0  0  0  0  0  0
   -1.4570    6.9693   29.4920 H   0  0  0  0  0  0  0  0  0  0  0  0
   -5.8353   10.2485   20.7009 C   0  0  0  0  0  0  0  0  0  0  0  0
   -6.7284    9.0223   20.9291 C   0  0  0  0  0  0  0  0  0  0  0  0
   -7.1498    8.4378   19.5830 C   0  0  0  0  0  0  0  0  0  0  0  0
   -8.1946    7.3913   19.6088 N   0  0  0  0  0  0  0  0  0  0  0  0
   -7.6370    6.0342   19.7171 C   0  0  0  0  0  0  0  0  0  0  0  0
   -8.9233    7.4779   18.3366 C   0  0  0  0  0  0  0  0  0  0  0  0
   -9.1391    7.5966   20.7157 C   0  0  0  0  0  0  0  0  0  0  0  0
  1  2  2  0  0  0
  2  3  1  0  0  0
  2  4  1  0  0  0
  3 26  1  0  0  0
  3  6  1  0  0  0
 26 27  1  0  0  0
 27 28  1  0  0  0
 28 29  1  0  0  0
 29 30  1  0  0  0
 29 31  1  0  0  0
 29 32  1  0  0  0
  4  5  1  0  0  0
  4  8  1  0  0  0
  5  6  1  0  0  0
  5 13  1  0  0  0
  6  7  2  0  0  0
  8  9  1  0  0  0
  8 12  1  0  0  0
  9 10  1  0  0  0
 10 11  1  0  0  0
 11 12  1  0  0  0
 12 13  1  0  0  0
 13 14  1  0  0  0
 14 15  2  0  0  0
 14 19  1  0  0  0
 15 16  1  0  0  0
 16 17  2  0  0  0
 17 20  1  0  0  0
 17 18  1  0  0  0
 20 21  2  0  0  0
 20 22  1  0  0  0
 18 19  2  0  0  0
 21 23  1  0  0  0
 22 24  1  0  0  0
 22 25  1  0  0  0
M  CHG 1  29   1
M  END
> <minimizedAffinity>
-7.39269

$$$$
2BOK_784_A_1244


 32 35  0  0  0  0  0  0  0  0999 V2000
   -1.0619   11.4124   21.5014 O   0  0  0  0  0  0  0  0  0  0  0  0
   -1.9144   11.9527   22.1823 C   0  0  0  0  0  0  0  0  0  0  0  0
   -2.1197   13.3566   22.2257 N   0  0  0  0  0  0  0  0  0  0  0  0
   -2.8410   11.1908   23.0753 C   0  0  0  0  0  0  0  0  0  0  0  0
   -4.0170   12.1391   23.2437 C   0  0  0  0  0  0  0  0  0  0  0  0
   -3.4745   13.4205   22.6556 C   0  0  0  0  0  0  0  0  0  0  0  0
   -4.1134   14.4438   22.5532 O   0  0  0  0  0  0  0  0  0  0  0  0
   -2.1839   11.0658   24.4432 C   0  0  0  0  0  0  0  0  0  0  0  0
   -2.1788    9.6446   25.0105 C   0  0  0  0  0  0  0  0  0  0  0  0
   -2.6085    9.7738   26.4656 C   0  0  0  0  0  0  0  0  0  0  0  0
   -3.0382   11.2281   26.6667 C   0  0  0  0  0  0  0  0  0  0  0  0
   -2.9350   11.9404   25.3750 N   0  0  0  0  0  0  0  0  0  0  0  0
   -4.2689   12.1456   24.7617 C   0  0  0  0  0  0  0  0  0  0  0  0
   -5.0478   13.3043   25.2945 C   0  0  0  0  0  0  0  0  0  0  0  0
   -4.4367   14.4210   25.8803 C   0  0  0  0  0  0  0  0  0  0  0  0
   -5.2062   15.4823   26.3663 C   0  0  0  0  0  0  0  0  0  0  0  0
   -6.6030   15.4351   26.2705 C   0  0  0  0  0  0  0  0  0  0  0  0
   -7.2136   14.3215   25.6835 C   0  0  0  0  0  0  0  0  0  0  0  0
   -6.4441   13.2579   25.2077 C   0  0  0  0  0  0  0  0  0  0  0  0
   -7.4202   16.5884   26.7787 C   0  0  0  0  0  0  0  0  0  0  0  0
   -6.8978   17.6610   27.2340 N   0  0  0  0  0  0  0  0  0  0  0  0
   -8.7360   16.4501   26.7802 N   0  0  0  0  0  0  0  0  0  0  0  0
   -5.9193   17.7698   27.2357 H   0  0  0  0  0  0  0  0  0  0  0  0
   -9.1447   15.6256   26.4305 H   0  0  0  0  0  0  0  0  0  0  0  0
   -9.3064   17.1718   27.1310 H   0  0  0  0  0  0  0  0  0  0  0  0
   -1.7556   14.1370   21.0078 C   0  0  0  0  0  0  0  0  0  0  0  0
   -0.2593   14.3588   20.7519 C   0  0  0  0  0  0  0  0  0  0  0  0
    0.2349   15.5352   21.5904 C   0  0  0  0  0  0  0  0  0  0  0  0
    0.7515   16.7084   20.8528 N   0  0  0  0  0  0  0  0  0  0  0  0
   -0.3215   17.5549   20.3081 C   0  0  0  0  0  0  0  0  0  0  0  0
    1.5374   16.1958   19.7229 C   0  0  0  0  0  0  0  0  0  0  0  0
    1.6177   17.5412   21.6988 C   0  0  0  0  0  0  0  0  0  0  0  0
  1  2  2  0  0  0
  2  3  1  0  0  0
  2  4  1  0  0  0
  3 26  1  0  0  0
  3  6  1  0  0  0
 26 27  1  0  0  0
 27 28  1  0  0  0
 28 29  1  0  0  0
 29 30  1  0  0  0
 29 31  1  0  0  0
 29 32  1  0  0  0
  4  5  1  0  0  0
  4  8  1  0  0  0
  5  6  1  0  0  0
  5 13  1  0  0  0
  6  7  2  0  0  0
  8  9  1  0  0  0
  8 12  1  0  0  0
  9 10  1  0  0  0
 10 11  1  0  0  0
 11 12  1  0  0  0
 12 13  1  0  0  0
 13 14  1  0  0  0
 14 15  2  0  0  0
 14 19  1  0  0  0
 15 16  1  0  0  0
 16 17  2  0  0  0
 17 20  1  0  0  0
 17 18  1  0  0  0
 20 21  2  0  0  0
 20 22  1  0  0  0
 18 19  2  0  0  0
 21 23  1  0  0  0
 22 24  1  0  0  0
 22 25  1  0  0  0
M  CHG 1  29   1
M  END
> <minimizedAffinity>
-7.39115

$$$$
2BOK_784_A_1244


 32 35  0  0  0  0  0  0  0  0999 V2000
   -5.2055   13.0950   21.3038 O   0  0  0  0  0  0  0  0  0  0  0  0
   -5.8935   12.1325   21.0161 C   0  0  0  0  0  0  0  0  0  0  0  0
   -5.7085   10.8360   21.5635 N   0  0  0  0  0  0  0  0  0  0  0  0
   -7.0135   12.2037   20.0277 C   0  0  0  0  0  0  0  0  0  0  0  0
   -7.8892   11.0221   20.4112 C   0  0  0  0  0  0  0  0  0  0  0  0
   -7.0038   10.2763   21.3818 C   0  0  0  0  0  0  0  0  0  0  0  0
   -7.3363    9.2707   21.9684 O   0  0  0  0  0  0  0  0  0  0  0  0
   -6.4474   11.8958   18.6481 C   0  0  0  0  0  0  0  0  0  0  0  0
   -6.8440   12.9034   17.5668 C   0  0  0  0  0  0  0  0  0  0  0  0
   -7.2557   12.0769   16.3559 C   0  0  0  0  0  0  0  0  0  0  0  0
   -7.2763   10.6164   16.8106 C   0  0  0  0  0  0  0  0  0  0  0  0
   -6.9525   10.5595   18.2522 N   0  0  0  0  0  0  0  0  0  0  0  0
   -8.1650   10.3189   19.0705 C   0  0  0  0  0  0  0  0  0  0  0  0
   -8.6098    8.8947   19.1536 C   0  0  0  0  0  0  0  0  0  0  0  0
   -9.9027    8.5283   19.5505 C   0  0  0  0  0  0  0  0  0  0  0  0
  -10.2747    7.1821   19.6144 C   0  0  0  0  0  0  0  0  0  0  0  0
   -9.3501    6.1841   19.2803 C   0  0  0  0  0  0  0  0  0  0  0  0
   -8.0597    6.5496   18.8816 C   0  0  0  0  0  0  0  0  0  0  0  0
   -7.6868    7.8941   18.8279 C   0  0  0  0  0  0  0  0  0  0  0  0
   -9.7646    4.7415   19.3343 C   0  0  0  0  0  0  0  0  0  0  0  0
   -9.1521    3.8698   20.0384 N   0  0  0  0  0  0  0  0  0  0  0  0
  -10.7888    4.3723   18.5825 N   0  0  0  0  0  0  0  0  0  0  0  0
   -8.3892    4.1383   20.5999 H   0  0  0  0  0  0  0  0  0  0  0  0
  -11.2652    5.0396   18.0375 H   0  0  0  0  0  0  0  0  0  0  0  0
  -11.0746    3.4303   18.5681 H   0  0  0  0  0  0  0  0  0  0  0  0
   -5.1168   10.7507   22.9301 C   0  0  0  0  0  0  0  0  0  0  0  0
   -3.6731   10.2411   23.0266 C   0  0  0  0  0  0  0  0  0  0  0  0
   -2.7165   11.3098   22.5030 C   0  0  0  0  0  0  0  0  0  0  0  0
   -2.0809   12.1863   23.5105 N   0  0  0  0  0  0  0  0  0  0  0  0
   -3.0111   13.1822   24.0650 C   0  0  0  0  0  0  0  0  0  0  0  0
   -0.9991   12.9107   22.8309 C   0  0  0  0  0  0  0  0  0  0  0  0
   -1.5125   11.4104   24.6215 C   0  0  0  0  0  0  0  0  0  0  0  0
  1  2  2  0  0  0
  2  3  1  0  0  0
  2  4  1  0  0  0
  3 26  1  0  0  0
  3  6  1  0  0  0
 26 27  1  0  0  0
 27 28  1  0  0  0
 28 29  1  0  0  0
 29 30  1  0  0  0
 29 31  1  0  0  0
 29 32  1  0  0  0
  4  5  1  0  0  0
  4  8  1  0  0  0
  5  6  1  0  0  0
  5 13  1  0  0  0
  6  7  2  0  0  0
  8  9  1  0  0  0
  8 12  1  0  0  0
  9 10  1  0  0  0
 10 11  1  0  0  0
 11 12  1  0  0  0
 12 13  1  0  0  0
 13 14  1  0  0  0
 14 15  2  0  0  0
 14 19  1  0  0  0
 15 16  1  0  0  0
 16 17  2  0  0  0
 17 20  1  0  0  0
 17 18  1  0  0  0
 20 21  2  0  0  0
 20 22  1  0  0  0
 18 19  2  0  0  0
 21 23  1  0  0  0
 22 24  1  0  0  0
 22 25  1  0  0  0
M  CHG 1  29   1
M  END
> <minimizedAffinity>
-7.32983

$$$$
2BOK_784_A_1244


 32 35  0  0  0  0  0  0  0  0999 V2000
   -8.0559   10.8936   19.3319 O   0  0  0  0  0  0  0  0  0  0  0  0
   -7.2651   10.7745   20.2500 C   0  0  0  0  0  0  0  0  0  0  0  0
   -7.6269   10.3513   21.5558 N   0  0  0  0  0  0  0  0  0  0  0  0
   -5.8084   11.0818   20.1094 C   0  0  0  0  0  0  0  0  0  0  0  0
   -5.1753   10.2801   21.2350 C   0  0  0  0  0  0  0  0  0  0  0  0
   -6.3836    9.8520   22.0344 C   0  0  0  0  0  0  0  0  0  0  0  0
   -6.3316    9.1477   23.0178 O   0  0  0  0  0  0  0  0  0  0  0  0
   -5.5995   12.5509   20.4511 C   0  0  0  0  0  0  0  0  0  0  0  0
   -4.7744   13.3247   19.4205 C   0  0  0  0  0  0  0  0  0  0  0  0
   -3.7733   14.1483   20.2195 C   0  0  0  0  0  0  0  0  0  0  0  0
   -3.9020   13.6991   21.6761 C   0  0  0  0  0  0  0  0  0  0  0  0
   -4.8936   12.6049   21.7535 N   0  0  0  0  0  0  0  0  0  0  0  0
   -4.2345   11.2874   21.9192 C   0  0  0  0  0  0  0  0  0  0  0  0
   -3.8133   10.9524   23.3133 C   0  0  0  0  0  0  0  0  0  0  0  0
   -4.4918   11.4282   24.4432 C   0  0  0  0  0  0  0  0  0  0  0  0
   -4.0609   11.0892   25.7293 C   0  0  0  0  0  0  0  0  0  0  0  0
   -2.9396   10.2664   25.8974 C   0  0  0  0  0  0  0  0  0  0  0  0
   -2.2632    9.7891   24.7695 C   0  0  0  0  0  0  0  0  0  0  0  0
   -2.6889   10.1367   23.4859 C   0  0  0  0  0  0  0  0  0  0  0  0
   -2.4954    9.8927   27.2827 C   0  0  0  0  0  0  0  0  0  0  0  0
   -1.3424    9.4043   27.5331 N   0  0  0  0  0  0  0  0  0  0  0  0
   -3.3666   10.0499   28.2660 N   0  0  0  0  0  0  0  0  0  0  0  0
   -0.6898    9.2850   26.8057 H   0  0  0  0  0  0  0  0  0  0  0  0
   -4.2571   10.4258   28.0793 H   0  0  0  0  0  0  0  0  0  0  0  0
   -3.1242    9.7908   29.1844 H   0  0  0  0  0  0  0  0  0  0  0  0
   -8.8120    9.4538   21.6779 C   0  0  0  0  0  0  0  0  0  0  0  0
   -8.5711    7.9568   21.4443 C   0  0  0  0  0  0  0  0  0  0  0  0
   -9.5224    7.4473   20.3641 C   0  0  0  0  0  0  0  0  0  0  0  0
   -8.9411    6.5714   19.3238 N   0  0  0  0  0  0  0  0  0  0  0  0
   -9.7543    5.3715   19.0718 C   0  0  0  0  0  0  0  0  0  0  0  0
   -7.6291    6.1306   19.8148 C   0  0  0  0  0  0  0  0  0  0  0  0
   -8.7604    7.2869   18.0529 C   0  0  0  0  0  0  0  0  0  0  0  0
  1  2  2  0  0  0
  2  3  1  0  0  0
  2  4  1  0  0  0
  3 26  1  0  0  0
  3  6  1  0  0  0
 26 27  1  0  0  0
 27 28  1  0  0  0
 28 29  1  0  0  0
 29 30  1  0  0  0
 29 31  1  0  0  0
 29 32  1  0  0  0
  4  5  1  0  0  0
  4  8  1  0  0  0
  5  6  1  0  0  0
  5 13  1  0  0  0
  6  7  2  0  0  0
  8  9  1  0  0  0
  8 12  1  0  0  0
  9 10  1  0  0  0
 10 11  1  0  0  0
 11 12  1  0  0  0
 12 13  1  0  0  0
 13 14  1  0  0  0
 14 15  2  0  0  0
 14 19  1  0  0  0
 15 16  1  0  0  0
 16 17  2  0  0  0
 17 20  1  0  0  0
 17 18  1  0  0  0
 20 21  2  0  0  0
 20 22  1  0  0  0
 18 19  2  0  0  0
 21 23  1  0  0  0
 22 24  1  0  0  0
 22 25  1  0  0  0
M  CHG 1  29   1
M  END
> <minimizedAffinity>
-7.24252

$$$$
2BOK_784_A_1244


 32 35  0  0  0  0  0  0  0  0999 V2000
   -4.2427   14.0443   23.9860 O   0  0  0  0  0  0  0  0  0  0  0  0
   -4.8410   13.1288   23.4510 C   0  0  0  0  0  0  0  0  0  0  0  0
   -4.2312   11.9099   23.0545 N   0  0  0  0  0  0  0  0  0  0  0  0
   -6.3003   13.1926   23.1304 C   0  0  0  0  0  0  0  0  0  0  0  0
   -6.6979   11.7287   23.0344 C   0  0  0  0  0  0  0  0  0  0  0  0
   -5.3547   11.0373   23.0340 C   0  0  0  0  0  0  0  0  0  0  0  0
   -5.2103    9.8355   23.0079 O   0  0  0  0  0  0  0  0  0  0  0  0
   -6.4526   13.7771   21.7326 C   0  0  0  0  0  0  0  0  0  0  0  0
   -7.4673   14.9185   21.6357 C   0  0  0  0  0  0  0  0  0  0  0  0
   -8.3033   14.6305   20.3960 C   0  0  0  0  0  0  0  0  0  0  0  0
   -7.8929   13.2409   19.9055 C   0  0  0  0  0  0  0  0  0  0  0  0
   -6.8952   12.6787   20.8410 N   0  0  0  0  0  0  0  0  0  0  0  0
   -7.4985   11.6509   21.7226 C   0  0  0  0  0  0  0  0  0  0  0  0
   -7.6407   10.2916   21.1181 C   0  0  0  0  0  0  0  0  0  0  0  0
   -8.3975    9.2743   21.7145 C   0  0  0  0  0  0  0  0  0  0  0  0
   -8.5018    8.0166   21.1127 C   0  0  0  0  0  0  0  0  0  0  0  0
   -7.8449    7.7639   19.9014 C   0  0  0  0  0  0  0  0  0  0  0  0
   -7.0912    8.7801   19.3043 C   0  0  0  0  0  0  0  0  0  0  0  0
   -6.9799   10.0325   19.9116 C   0  0  0  0  0  0  0  0  0  0  0  0
   -7.9780    6.4154   19.2534 C   0  0  0  0  0  0  0  0  0  0  0  0
   -7.6749    5.3271   19.8486 N   0  0  0  0  0  0  0  0  0  0  0  0
   -8.3938    6.3802   17.9979 N   0  0  0  0  0  0  0  0  0  0  0  0
   -7.3649    5.3467   20.7828 H   0  0  0  0  0  0  0  0  0  0  0  0
   -8.6290    7.2158   17.5335 H   0  0  0  0  0  0  0  0  0  0  0  0
   -8.4680    5.5183   17.5279 H   0  0  0  0  0  0  0  0  0  0  0  0
   -3.0367   11.4619   23.8276 C   0  0  0  0  0  0  0  0  0  0  0  0
   -1.6849   11.5208   23.1047 C   0  0  0  0  0  0  0  0  0  0  0  0
   -1.8989   11.9369   21.6513 C   0  0  0  0  0  0  0  0  0  0  0  0
   -1.4155   13.2802   21.2648 N   0  0  0  0  0  0  0  0  0  0  0  0
   -2.4734   14.1179   20.6787 C   0  0  0  0  0  0  0  0  0  0  0  0
   -0.3770   13.0878   20.2443 C   0  0  0  0  0  0  0  0  0  0  0  0
   -0.8346   13.9963   22.4090 C   0  0  0  0  0  0  0  0  0  0  0  0
  1  2  2  0  0  0
  2  3  1  0  0  0
  2  4  1  0  0  0
  3 26  1  0  0  0
  3  6  1  0  0  0
 26 27  1  0  0  0
 27 28  1  0  0  0
 28 29  1  0  0  0
 29 30  1  0  0  0
 29 31  1  0  0  0
 29 32  1  0  0  0
  4  5  1  0  0  0
  4  8  1  0  0  0
  5  6  1  0  0  0
  5 13  1  0  0  0
  6  7  2  0  0  0
  8  9  1  0  0  0
  8 12  1  0  0  0
  9 10  1  0  0  0
 10 11  1  0  0  0
 11 12  1  0  0  0
 12 13  1  0  0  0
 13 14  1  0  0  0
 14 15  2  0  0  0
 14 19  1  0  0  0
 15 16  1  0  0  0
 16 17  2  0  0  0
 17 20  1  0  0  0
 17 18  1  0  0  0
 20 21  2  0  0  0
 20 22  1  0  0  0
 18 19  2  0  0  0
 21 23  1  0  0  0
 22 24  1  0  0  0
 22 25  1  0  0  0
M  CHG 1  29   1
M  END
> <minimizedAffinity>
-7.17070

$$$$
2BOK_784_A_1244


 32 35  0  0  0  0  0  0  0  0999 V2000
   -2.8503   13.1314   23.9434 O   0  0  0  0  0  0  0  0  0  0  0  0
   -3.5757   12.3752   23.3235 C   0  0  0  0  0  0  0  0  0  0  0  0
   -3.3591   12.0023   21.9711 N   0  0  0  0  0  0  0  0  0  0  0  0
   -4.8024   11.7603   23.9181 C   0  0  0  0  0  0  0  0  0  0  0  0
   -5.0279   10.5313   23.0526 C   0  0  0  0  0  0  0  0  0  0  0  0
   -4.0661   10.7691   21.9121 C   0  0  0  0  0  0  0  0  0  0  0  0
   -3.8943    9.9951   20.9971 O   0  0  0  0  0  0  0  0  0  0  0  0
   -5.9748   12.6965   23.6579 C   0  0  0  0  0  0  0  0  0  0  0  0
   -6.8206   13.0036   24.8957 C   0  0  0  0  0  0  0  0  0  0  0  0
   -8.2718   12.8708   24.4538 C   0  0  0  0  0  0  0  0  0  0  0  0
   -8.2456   12.3063   23.0323 C   0  0  0  0  0  0  0  0  0  0  0  0
   -6.8420   12.0468   22.6464 N   0  0  0  0  0  0  0  0  0  0  0  0
   -6.5242   10.5998   22.7003 C   0  0  0  0  0  0  0  0  0  0  0  0
   -6.9577    9.8038   21.5122 C   0  0  0  0  0  0  0  0  0  0  0  0
   -6.9883   10.3354   20.2161 C   0  0  0  0  0  0  0  0  0  0  0  0
   -7.4022    9.5531   19.1338 C   0  0  0  0  0  0  0  0  0  0  0  0
   -7.7921    8.2235   19.3401 C   0  0  0  0  0  0  0  0  0  0  0  0
   -7.7593    7.6914   20.6337 C   0  0  0  0  0  0  0  0  0  0  0  0
   -7.3554    8.4771   21.7150 C   0  0  0  0  0  0  0  0  0  0  0  0
   -8.2175    7.3855   18.1685 C   0  0  0  0  0  0  0  0  0  0  0  0
   -8.5196    7.8843   17.0324 N   0  0  0  0  0  0  0  0  0  0  0  0
   -8.3126    6.0791   18.3551 N   0  0  0  0  0  0  0  0  0  0  0  0
   -8.4509    8.8556   16.8873 H   0  0  0  0  0  0  0  0  0  0  0  0
   -8.0812    5.6885   19.2287 H   0  0  0  0  0  0  0  0  0  0  0  0
   -8.6148    5.4976   17.6204 H   0  0  0  0  0  0  0  0  0  0  0  0
   -1.9503   12.0021   21.4810 C   0  0  0  0  0  0  0  0  0  0  0  0
   -1.6246   12.9461   20.3164 C   0  0  0  0  0  0  0  0  0  0  0  0
   -2.7792   12.9443   19.3173 C   0  0  0  0  0  0  0  0  0  0  0  0
   -3.6044   14.1698   19.2505 N   0  0  0  0  0  0  0  0  0  0  0  0
   -4.9583   13.9734   19.7917 C   0  0  0  0  0  0  0  0  0  0  0  0
   -3.7344   14.5255   17.8316 C   0  0  0  0  0  0  0  0  0  0  0  0
   -2.9736   15.2868   19.9676 C   0  0  0  0  0  0  0  0  0  0  0  0
  1  2  2  0  0  0
  2  3  1  0  0  0
  2  4  1  0  0  0
  3 26  1  0  0  0
  3  6  1  0  0  0
 26 27  1  0  0  0
 27 28  1  0  0  0
 28 29  1  0  0  0
 29 30  1  0  0  0
 29 31  1  0  0  0
 29 32  1  0  0  0
  4  5  1  0  0  0
  4  8  1  0  0  0
  5  6  1  0  0  0
  5 13  1  0  0  0
  6  7  2  0  0  0
  8  9  1  0  0  0
  8 12  1  0  0  0
  9 10  1  0  0  0
 10 11  1  0  0  0
 11 12  1  0  0  0
 12 13  1  0  0  0
 13 14  1  0  0  0
 14 15  2  0  0  0
 14 19  1  0  0  0
 15 16  1  0  0  0
 16 17  2  0  0  0
 17 20  1  0  0  0
 17 18  1  0  0  0
 20 21  2  0  0  0
 20 22  1  0  0  0
 18 19  2  0  0  0
 21 23  1  0  0  0
 22 24  1  0  0  0
 22 25  1  0  0  0
M  CHG 1  29   1
M  END
> <minimizedAffinity>
-7.08337

$$$$
2BOK_784_A_1244


 32 35  0  0  0  0  0  0  0  0999 V2000
   -4.7680   10.5807   20.3484 O   0  0  0  0  0  0  0  0  0  0  0  0
   -5.9173   10.6410   20.7458 C   0  0  0  0  0  0  0  0  0  0  0  0
   -6.3216   11.3804   21.8880 N   0  0  0  0  0  0  0  0  0  0  0  0
   -7.0441    9.9191   20.0782 C   0  0  0  0  0  0  0  0  0  0  0  0
   -8.2682   10.7049   20.5195 C   0  0  0  0  0  0  0  0  0  0  0  0
   -7.6991   11.5921   21.6017 C   0  0  0  0  0  0  0  0  0  0  0  0
   -8.3411   12.4220   22.2059 O   0  0  0  0  0  0  0  0  0  0  0  0
   -7.1624    8.5388   20.7101 C   0  0  0  0  0  0  0  0  0  0  0  0
   -7.2354    7.3901   19.7017 C   0  0  0  0  0  0  0  0  0  0  0  0
   -8.3580    6.4813   20.1839 C   0  0  0  0  0  0  0  0  0  0  0  0
   -9.0403    7.2079   21.3443 C   0  0  0  0  0  0  0  0  0  0  0  0
   -8.4025    8.5301   21.5220 N   0  0  0  0  0  0  0  0  0  0  0  0
   -9.2537    9.6185   20.9849 C   0  0  0  0  0  0  0  0  0  0  0  0
  -10.3569   10.0727   21.8847 C   0  0  0  0  0  0  0  0  0  0  0  0
  -10.3366    9.8649   23.2703 C   0  0  0  0  0  0  0  0  0  0  0  0
  -11.3923   10.3067   24.0735 C   0  0  0  0  0  0  0  0  0  0  0  0
  -12.4851   10.9640   23.4935 C   0  0  0  0  0  0  0  0  0  0  0  0
  -12.5047   11.1739   22.1104 C   0  0  0  0  0  0  0  0  0  0  0  0
  -11.4543   10.7231   21.3084 C   0  0  0  0  0  0  0  0  0  0  0  0
  -13.6056   11.4513   24.3669 C   0  0  0  0  0  0  0  0  0  0  0  0
  -14.0743   12.6371   24.2964 N   0  0  0  0  0  0  0  0  0  0  0  0
  -14.0878   10.6101   25.2670 N   0  0  0  0  0  0  0  0  0  0  0  0
  -13.7197   13.2677   23.6287 H   0  0  0  0  0  0  0  0  0  0  0  0
  -13.7306    9.6946   25.3263 H   0  0  0  0  0  0  0  0  0  0  0  0
  -14.8037   10.8996   25.8776 H   0  0  0  0  0  0  0  0  0  0  0  0
   -5.5099   12.5794   22.2467 C   0  0  0  0  0  0  0  0  0  0  0  0
   -4.8333   12.5680   23.6234 C   0  0  0  0  0  0  0  0  0  0  0  0
   -3.3199   12.6752   23.4514 C   0  0  0  0  0  0  0  0  0  0  0  0
   -2.5461   11.4199   23.5638 N   0  0  0  0  0  0  0  0  0  0  0  0
   -1.4546   11.5112   24.5461 C   0  0  0  0  0  0  0  0  0  0  0  0
   -1.9466   11.1635   22.2478 C   0  0  0  0  0  0  0  0  0  0  0  0
   -3.4058   10.2847   23.9268 C   0  0  0  0  0  0  0  0  0  0  0  0
  1  2  2  0  0  0
  2  3  1  0  0  0
  2  4  1  0  0  0
  3 26  1  0  0  0
  3  6  1  0  0  0
 26 27  1  0  0  0
 27 28  1  0  0  0
 28 29  1  0  0  0
 29 30  1  0  0  0
 29 31  1  0  0  0
 29 32  1  0  0  0
  4  5  1  0  0  0
  4  8  1  0  0  0
  5  6  1  0  0  0
  5 13  1  0  0  0
  6  7  2  0  0  0
  8  9  1  0  0  0
  8 12  1  0  0  0
  9 10  1  0  0  0
 10 11  1  0  0  0
 11 12  1  0  0  0
 12 13  1  0  0  0
 13 14  1  0  0  0
 14 15  2  0  0  0
 14 19  1  0  0  0
 15 16  1  0  0  0
 16 17  2  0  0  0
 17 20  1  0  0  0
 17 18  1  0  0  0
 20 21  2  0  0  0
 20 22  1  0  0  0
 18 19  2  0  0  0
 21 23  1  0  0  0
 22 24  1  0  0  0
 22 25  1  0  0  0
M  CHG 1  29   1
M  END
> <minimizedAffinity>
-6.86926

$$$$
2BOK_784_A_1244


 32 35  0  0  0  0  0  0  0  0999 V2000
   -5.9542   13.9410   24.7854 O   0  0  0  0  0  0  0  0  0  0  0  0
   -6.1792   13.2127   23.8360 C   0  0  0  0  0  0  0  0  0  0  0  0
   -7.3575   12.4331   23.6989 N   0  0  0  0  0  0  0  0  0  0  0  0
   -5.2199   13.0406   22.7018 C   0  0  0  0  0  0  0  0  0  0  0  0
   -6.1083   12.5562   21.5676 C   0  0  0  0  0  0  0  0  0  0  0  0
   -7.3998   12.2494   22.2887 C   0  0  0  0  0  0  0  0  0  0  0  0
   -8.4082   11.8647   21.7401 O   0  0  0  0  0  0  0  0  0  0  0  0
   -4.2845   11.8888   23.0438 C   0  0  0  0  0  0  0  0  0  0  0  0
   -2.7998   12.2073   22.8541 C   0  0  0  0  0  0  0  0  0  0  0  0
   -2.2039   11.0074   22.1302 C   0  0  0  0  0  0  0  0  0  0  0  0
   -3.3764   10.1044   21.7431 C   0  0  0  0  0  0  0  0  0  0  0  0
   -4.6382   10.7550   22.1568 N   0  0  0  0  0  0  0  0  0  0  0  0
   -5.3485   11.3456   20.9974 C   0  0  0  0  0  0  0  0  0  0  0  0
   -6.1549   10.3864   20.1834 C   0  0  0  0  0  0  0  0  0  0  0  0
   -6.7586   10.7449   18.9708 C   0  0  0  0  0  0  0  0  0  0  0  0
   -7.5054    9.8136   18.2428 C   0  0  0  0  0  0  0  0  0  0  0  0
   -7.6563    8.5071   18.7253 C   0  0  0  0  0  0  0  0  0  0  0  0
   -7.0516    8.1479   19.9348 C   0  0  0  0  0  0  0  0  0  0  0  0
   -6.3146    9.0820   20.6656 C   0  0  0  0  0  0  0  0  0  0  0  0
   -8.4449    7.5087   17.9271 C   0  0  0  0  0  0  0  0  0  0  0  0
   -8.5200    6.2733   18.2416 N   0  0  0  0  0  0  0  0  0  0  0  0
   -9.0493    7.9428   16.8331 N   0  0  0  0  0  0  0  0  0  0  0  0
   -8.0724    5.9442   19.0544 H   0  0  0  0  0  0  0  0  0  0  0  0
   -8.9951    8.8940   16.5852 H   0  0  0  0  0  0  0  0  0  0  0  0
   -9.5534    7.3145   16.2670 H   0  0  0  0  0  0  0  0  0  0  0  0
   -8.5950   12.9462   24.3549 C   0  0  0  0  0  0  0  0  0  0  0  0
   -9.6995   11.9212   24.6424 C   0  0  0  0  0  0  0  0  0  0  0  0
  -11.0163   12.6475   24.9067 C   0  0  0  0  0  0  0  0  0  0  0  0
  -12.2195   11.8046   25.0771 N   0  0  0  0  0  0  0  0  0  0  0  0
  -12.5412   11.5524   26.4904 C   0  0  0  0  0  0  0  0  0  0  0  0
  -11.9333   10.5110   24.4433 C   0  0  0  0  0  0  0  0  0  0  0  0
  -13.3959   12.4035   24.4313 C   0  0  0  0  0  0  0  0  0  0  0  0
  1  2  2  0  0  0
  2  3  1  0  0  0
  2  4  1  0  0  0
  3 26  1  0  0  0
  3  6  1  0  0  0
 26 27  1  0  0  0
 27 28  1  0  0  0
 28 29  1  0  0  0
 29 30  1  0  0  0
 29 31  1  0  0  0
 29 32  1  0  0  0
  4  5  1  0  0  0
  4  8  1  0  0  0
  5  6  1  0  0  0
  5 13  1  0  0  0
  6  7  2  0  0  0
  8  9  1  0  0  0
  8 12  1  0  0  0
  9 10  1  0  0  0
 10 11  1  0  0  0
 11 12  1  0  0  0
 12 13  1  0  0  0
 13 14  1  0  0  0
 14 15  2  0  0  0
 14 19  1  0  0  0
 15 16  1  0  0  0
 16 17  2  0  0  0
 17 20  1  0  0  0
 17 18  1  0  0  0
 20 21  2  0  0  0
 20 22  1  0  0  0
 18 19  2  0  0  0
 21 23  1  0  0  0
 22 24  1  0  0  0
 22 25  1  0  0  0
M  CHG 1  29   1
M  END
> <minimizedAffinity>
-6.65359

$$$$
