3UXD_0CU_A_291


 12 13  0  0  0  0  0  0  0  0999 V2000
    8.7541   -1.4328    7.9931 C   0  0  0  0  0  0  0  0  0  0  0  0
    9.5223   -1.9963    7.0872 N   0  0  0  0  0  0  0  0  0  0  0  0
   10.7002   -1.9040    7.4442 N   0  0  0  0  0  0  0  0  0  0  0  0
   10.8221   -1.3211    8.5272 N   0  0  0  0  0  0  0  0  0  0  0  0
    9.6269   -0.9734    8.9551 C   0  0  0  0  0  0  0  0  0  0  0  0
    9.1680   -0.3012   10.0631 C   0  0  0  0  0  0  0  0  0  0  0  0
    7.8089   -0.1530   10.1558 C   0  0  0  0  0  0  0  0  0  0  0  0
    7.1843    0.6584   11.4910 Cl  0  0  0  0  0  0  0  0  0  0  0  0
    6.8992   -0.5901    9.2069 C   0  0  0  0  0  0  0  0  0  0  0  0
    7.3856   -1.2516    8.1039 C   0  0  0  0  0  0  0  0  0  0  0  0
    6.2923   -1.8371    6.8927 Cl  0  0  0  0  0  0  0  0  0  0  0  0
    9.2085   -2.4232    6.2574 H   0  0  0  0  0  0  0  0  0  0  0  0
 11 10  1  0  0  0
  2  3  1  0  0  0
  2  1  1  0  0  0
  3  4  2  0  0  0
 10  1  2  0  0  0
 10  9  1  0  0  0
  1  5  1  0  0  0
  4  5  1  0  0  0
  9  7  2  0  0  0
  5  6  2  0  0  0
  7  6  1  0  0  0
  7  8  1  0  0  0
  2 12  1  0  0  0
M  END
> <minimizedAffinity>
-6.89823

$$$$
3UXD_0CU_A_291


 12 13  0  0  0  0  0  0  0  0999 V2000
    9.8701   -1.4415    8.5291 C   0  0  0  0  0  0  0  0  0  0  0  0
   11.1440   -1.5168    8.8446 N   0  0  0  0  0  0  0  0  0  0  0  0
   11.7227   -2.2261    8.0167 N   0  0  0  0  0  0  0  0  0  0  0  0
   10.9587   -2.6556    7.1452 N   0  0  0  0  0  0  0  0  0  0  0  0
    9.7448   -2.2115    7.3935 C   0  0  0  0  0  0  0  0  0  0  0  0
    8.5238   -2.3797    6.7844 C   0  0  0  0  0  0  0  0  0  0  0  0
    7.4705   -1.7153    7.3560 C   0  0  0  0  0  0  0  0  0  0  0  0
    5.9495   -1.8782    6.6550 Cl  0  0  0  0  0  0  0  0  0  0  0  0
    7.5521   -0.9409    8.5018 C   0  0  0  0  0  0  0  0  0  0  0  0
    8.7835   -0.7966    9.0962 C   0  0  0  0  0  0  0  0  0  0  0  0
    8.9489    0.1756   10.5219 Cl  0  0  0  0  0  0  0  0  0  0  0  0
   11.5683   -1.0780    9.6171 H   0  0  0  0  0  0  0  0  0  0  0  0
 11 10  1  0  0  0
  2  3  1  0  0  0
  2  1  1  0  0  0
  3  4  2  0  0  0
 10  1  2  0  0  0
 10  9  1  0  0  0
  1  5  1  0  0  0
  4  5  1  0  0  0
  9  7  2  0  0  0
  5  6  2  0  0  0
  7  6  1  0  0  0
  7  8  1  0  0  0
  2 12  1  0  0  0
M  END
> <minimizedAffinity>
-6.81674

$$$$
3UXD_0CU_A_291


 12 13  0  0  0  0  0  0  0  0999 V2000
    8.9022   -0.6124    9.6289 C   0  0  0  0  0  0  0  0  0  0  0  0
    9.4961   -0.1306   10.6982 N   0  0  0  0  0  0  0  0  0  0  0  0
    8.6416    0.3297   11.4605 N   0  0  0  0  0  0  0  0  0  0  0  0
    7.4954    0.2109   11.0136 N   0  0  0  0  0  0  0  0  0  0  0  0
    7.5609   -0.3764    9.8375 C   0  0  0  0  0  0  0  0  0  0  0  0
    6.6249   -0.7375    8.8975 C   0  0  0  0  0  0  0  0  0  0  0  0
    7.1077   -1.3639    7.7785 C   0  0  0  0  0  0  0  0  0  0  0  0
    6.0114   -1.8339    6.5917 Cl  0  0  0  0  0  0  0  0  0  0  0  0
    8.4474   -1.6102    7.5260 C   0  0  0  0  0  0  0  0  0  0  0  0
    9.3635   -1.2307    8.4787 C   0  0  0  0  0  0  0  0  0  0  0  0
   11.0520   -1.5300    8.2249 Cl  0  0  0  0  0  0  0  0  0  0  0  0
   10.4665   -0.1361   10.8641 H   0  0  0  0  0  0  0  0  0  0  0  0
 11 10  1  0  0  0
  2  3  1  0  0  0
  2  1  1  0  0  0
  3  4  2  0  0  0
 10  1  2  0  0  0
 10  9  1  0  0  0
  1  5  1  0  0  0
  4  5  1  0  0  0
  9  7  2  0  0  0
  5  6  2  0  0  0
  7  6  1  0  0  0
  7  8  1  0  0  0
  2 12  1  0  0  0
M  END
> <minimizedAffinity>
-6.67317

$$$$
3UXD_0CU_A_291


 12 13  0  0  0  0  0  0  0  0999 V2000
    7.2157    0.0635   10.6912 C   0  0  0  0  0  0  0  0  0  0  0  0
    7.4969    0.5909   11.8620 N   0  0  0  0  0  0  0  0  0  0  0  0
    8.7191    0.5661   12.0318 N   0  0  0  0  0  0  0  0  0  0  0  0
    9.3196    0.0636   11.0755 N   0  0  0  0  0  0  0  0  0  0  0  0
    8.4379   -0.2969   10.1671 C   0  0  0  0  0  0  0  0  0  0  0  0
    8.5282   -0.9077    8.9388 C   0  0  0  0  0  0  0  0  0  0  0  0
    7.3452   -1.0984    8.2741 C   0  0  0  0  0  0  0  0  0  0  0  0
    7.3892   -1.8383    6.7635 Cl  0  0  0  0  0  0  0  0  0  0  0  0
    6.0964   -0.7606    8.7696 C   0  0  0  0  0  0  0  0  0  0  0  0
    6.0337   -0.1592   10.0046 C   0  0  0  0  0  0  0  0  0  0  0  0
    4.4995    0.3019   10.6669 Cl  0  0  0  0  0  0  0  0  0  0  0  0
    6.8384    0.9483   12.5008 H   0  0  0  0  0  0  0  0  0  0  0  0
 11 10  1  0  0  0
  2  3  1  0  0  0
  2  1  1  0  0  0
  3  4  2  0  0  0
 10  1  2  0  0  0
 10  9  1  0  0  0
  1  5  1  0  0  0
  4  5  1  0  0  0
  9  7  2  0  0  0
  5  6  2  0  0  0
  7  6  1  0  0  0
  7  8  1  0  0  0
  2 12  1  0  0  0
M  END
> <minimizedAffinity>
-6.56947

$$$$
3UXD_0CU_A_291


 12 13  0  0  0  0  0  0  0  0999 V2000
    8.5167   -0.1724   10.3435 C   0  0  0  0  0  0  0  0  0  0  0  0
    9.7328   -0.4749    9.9462 N   0  0  0  0  0  0  0  0  0  0  0  0
    9.6736   -0.9945    8.8282 N   0  0  0  0  0  0  0  0  0  0  0  0
    8.5146   -1.0821    8.4078 N   0  0  0  0  0  0  0  0  0  0  0  0
    7.6993   -0.5866    9.3146 C   0  0  0  0  0  0  0  0  0  0  0  0
    6.3343   -0.4434    9.3945 C   0  0  0  0  0  0  0  0  0  0  0  0
    5.8587    0.1568   10.5308 C   0  0  0  0  0  0  0  0  0  0  0  0
    4.1962    0.3642   10.6873 Cl  0  0  0  0  0  0  0  0  0  0  0  0
    6.6445    0.5774   11.5913 C   0  0  0  0  0  0  0  0  0  0  0  0
    8.0060    0.4141   11.4895 C   0  0  0  0  0  0  0  0  0  0  0  0
    9.0404    0.9384   12.7780 Cl  0  0  0  0  0  0  0  0  0  0  0  0
   10.5580   -0.3131   10.4581 H   0  0  0  0  0  0  0  0  0  0  0  0
 11 10  1  0  0  0
  2  3  1  0  0  0
  2  1  1  0  0  0
  3  4  2  0  0  0
 10  1  2  0  0  0
 10  9  1  0  0  0
  1  5  1  0  0  0
  4  5  1  0  0  0
  9  7  2  0  0  0
  5  6  2  0  0  0
  7  6  1  0  0  0
  7  8  1  0  0  0
  2 12  1  0  0  0
M  END
> <minimizedAffinity>
-6.52225

$$$$
3UXD_0CU_A_291


 12 13  0  0  0  0  0  0  0  0999 V2000
    8.3229   -1.3380    8.0303 C   0  0  0  0  0  0  0  0  0  0  0  0
    8.1831   -1.9456    6.8729 N   0  0  0  0  0  0  0  0  0  0  0  0
    6.9825   -2.0080    6.5933 N   0  0  0  0  0  0  0  0  0  0  0  0
    6.2673   -1.4940    7.4604 N   0  0  0  0  0  0  0  0  0  0  0  0
    7.0373   -1.0420    8.4276 C   0  0  0  0  0  0  0  0  0  0  0  0
    6.7947   -0.4106    9.6245 C   0  0  0  0  0  0  0  0  0  0  0  0
    7.9000   -0.0756   10.3619 C   0  0  0  0  0  0  0  0  0  0  0  0
    7.6697    0.7026   11.8359 Cl  0  0  0  0  0  0  0  0  0  0  0  0
    9.2068   -0.3641   10.0037 C   0  0  0  0  0  0  0  0  0  0  0  0
    9.4207   -1.0042    8.8057 C   0  0  0  0  0  0  0  0  0  0  0  0
   11.0362   -1.3744    8.2975 Cl  0  0  0  0  0  0  0  0  0  0  0  0
    8.9178   -2.2947    6.3184 H   0  0  0  0  0  0  0  0  0  0  0  0
 11 10  1  0  0  0
  2  3  1  0  0  0
  2  1  1  0  0  0
  3  4  2  0  0  0
 10  1  2  0  0  0
 10  9  1  0  0  0
  1  5  1  0  0  0
  4  5  1  0  0  0
  9  7  2  0  0  0
  5  6  2  0  0  0
  7  6  1  0  0  0
  7  8  1  0  0  0
  2 12  1  0  0  0
M  END
> <minimizedAffinity>
-6.47313

$$$$
3UXD_0CU_A_291


 12 13  0  0  0  0  0  0  0  0999 V2000
    7.0297   -0.6385    9.1903 C   0  0  0  0  0  0  0  0  0  0  0  0
    5.9030   -0.2638    9.7545 N   0  0  0  0  0  0  0  0  0  0  0  0
    6.1562    0.3084   10.8184 N   0  0  0  0  0  0  0  0  0  0  0  0
    7.3693    0.3658   11.0479 N   0  0  0  0  0  0  0  0  0  0  0  0
    8.0126   -0.2227   10.0618 C   0  0  0  0  0  0  0  0  0  0  0  0
    9.3398   -0.4673    9.7996 C   0  0  0  0  0  0  0  0  0  0  0  0
    9.6106   -1.1109    8.6206 C   0  0  0  0  0  0  0  0  0  0  0  0
   11.2171   -1.4367    8.2404 Cl  0  0  0  0  0  0  0  0  0  0  0  0
    8.6527   -1.5542    7.7234 C   0  0  0  0  0  0  0  0  0  0  0  0
    7.3322   -1.3045    8.0143 C   0  0  0  0  0  0  0  0  0  0  0  0
    6.0912   -1.8200    6.9192 Cl  0  0  0  0  0  0  0  0  0  0  0  0
    5.0022   -0.4153    9.3874 H   0  0  0  0  0  0  0  0  0  0  0  0
 11 10  1  0  0  0
  2  3  1  0  0  0
  2  1  1  0  0  0
  3  4  2  0  0  0
 10  1  2  0  0  0
 10  9  1  0  0  0
  1  5  1  0  0  0
  4  5  1  0  0  0
  9  7  2  0  0  0
  5  6  2  0  0  0
  7  6  1  0  0  0
  7  8  1  0  0  0
  2 12  1  0  0  0
M  END
> <minimizedAffinity>
-6.46734

$$$$
3UXD_0CU_A_291


 12 13  0  0  0  0  0  0  0  0999 V2000
    6.8274    0.2866   11.0869 C   0  0  0  0  0  0  0  0  0  0  0  0
    5.8486    0.7114   11.8547 N   0  0  0  0  0  0  0  0  0  0  0  0
    4.7735    0.5199   11.2795 N   0  0  0  0  0  0  0  0  0  0  0  0
    4.9174   -0.0046   10.1696 N   0  0  0  0  0  0  0  0  0  0  0  0
    6.2030   -0.1867    9.9536 C   0  0  0  0  0  0  0  0  0  0  0  0
    6.9317   -0.6992    8.9065 C   0  0  0  0  0  0  0  0  0  0  0  0
    8.2903   -0.7347    9.0805 C   0  0  0  0  0  0  0  0  0  0  0  0
    9.2380   -1.3541    7.8356 Cl  0  0  0  0  0  0  0  0  0  0  0  0
    8.9571   -0.2602   10.1982 C   0  0  0  0  0  0  0  0  0  0  0  0
    8.2049    0.2556   11.2272 C   0  0  0  0  0  0  0  0  0  0  0  0
    8.9842    0.8474   12.6581 Cl  0  0  0  0  0  0  0  0  0  0  0  0
    5.9558    1.1170   12.7453 H   0  0  0  0  0  0  0  0  0  0  0  0
 11 10  1  0  0  0
  2  3  1  0  0  0
  2  1  1  0  0  0
  3  4  2  0  0  0
 10  1  2  0  0  0
 10  9  1  0  0  0
  1  5  1  0  0  0
  4  5  1  0  0  0
  9  7  2  0  0  0
  5  6  2  0  0  0
  7  6  1  0  0  0
  7  8  1  0  0  0
  2 12  1  0  0  0
M  END
> <minimizedAffinity>
-6.21575

$$$$
3UXD_0CU_A_291


 12 13  0  0  0  0  0  0  0  0999 V2000
    6.7060   -0.4564    9.5175 C   0  0  0  0  0  0  0  0  0  0  0  0
    6.2948   -0.9956    8.3913 N   0  0  0  0  0  0  0  0  0  0  0  0
    7.2726   -1.4102    7.7626 N   0  0  0  0  0  0  0  0  0  0  0  0
    8.3377   -1.2058    8.3554 N   0  0  0  0  0  0  0  0  0  0  0  0
    8.0770   -0.5908    9.4896 C   0  0  0  0  0  0  0  0  0  0  0  0
    8.8554   -0.1122   10.5168 C   0  0  0  0  0  0  0  0  0  0  0  0
    8.1829    0.4657   11.5614 C   0  0  0  0  0  0  0  0  0  0  0  0
    9.0794    1.0684   12.8515 Cl  0  0  0  0  0  0  0  0  0  0  0  0
    6.8087    0.6296   11.6233 C   0  0  0  0  0  0  0  0  0  0  0  0
    6.0544    0.1500   10.5785 C   0  0  0  0  0  0  0  0  0  0  0  0
    4.3286    0.3108   10.6102 Cl  0  0  0  0  0  0  0  0  0  0  0  0
    5.3575   -1.0585    8.0967 H   0  0  0  0  0  0  0  0  0  0  0  0
 11 10  1  0  0  0
  2  3  1  0  0  0
  2  1  1  0  0  0
  3  4  2  0  0  0
 10  1  2  0  0  0
 10  9  1  0  0  0
  1  5  1  0  0  0
  4  5  1  0  0  0
  9  7  2  0  0  0
  5  6  2  0  0  0
  7  6  1  0  0  0
  7  8  1  0  0  0
  2 12  1  0  0  0
M  END
> <minimizedAffinity>
-5.88599

$$$$
3UXD_0CU_A_291


 12 13  0  0  0  0  0  0  0  0999 V2000
    8.4373   -1.0457    8.4180 C   0  0  0  0  0  0  0  0  0  0  0  0
    7.9599   -0.1201    9.2202 N   0  0  0  0  0  0  0  0  0  0  0  0
    8.8754    0.3122    9.9261 N   0  0  0  0  0  0  0  0  0  0  0  0
    9.9573   -0.2348    9.6854 N   0  0  0  0  0  0  0  0  0  0  0  0
    9.7755   -1.1277    8.7355 C   0  0  0  0  0  0  0  0  0  0  0  0
   10.6002   -2.0232    8.0969 C   0  0  0  0  0  0  0  0  0  0  0  0
   10.0160   -2.7881    7.1216 C   0  0  0  0  0  0  0  0  0  0  0  0
   10.9737   -3.9016    6.3004 Cl  0  0  0  0  0  0  0  0  0  0  0  0
    8.6743   -2.7440    6.7796 C   0  0  0  0  0  0  0  0  0  0  0  0
    7.8697   -1.8456    7.4402 C   0  0  0  0  0  0  0  0  0  0  0  0
    6.1864   -1.7336    7.0413 Cl  0  0  0  0  0  0  0  0  0  0  0  0
    7.0229    0.1800    9.2526 H   0  0  0  0  0  0  0  0  0  0  0  0
 11 10  1  0  0  0
  2  3  1  0  0  0
  2  1  1  0  0  0
  3  4  2  0  0  0
 10  1  2  0  0  0
 10  9  1  0  0  0
  1  5  1  0  0  0
  4  5  1  0  0  0
  9  7  2  0  0  0
  5  6  2  0  0  0
  7  6  1  0  0  0
  7  8  1  0  0  0
  2 12  1  0  0  0
M  END
> <minimizedAffinity>
-5.35324

$$$$
