3GCP_SB2_A_361


 28 31  0  0  0  0  0  0  0  0999 V2000
   22.1711    1.7510  -19.3223 N   0  0  0  0  0  0  0  0  0  0  0  0
   22.2729    1.0911  -18.1675 C   0  0  0  0  0  0  0  0  0  0  0  0
   22.7947   -0.1089  -18.4185 N   0  0  0  0  0  0  0  0  0  0  0  0
   23.0318   -0.2294  -19.7179 C   0  0  0  0  0  0  0  0  0  0  0  0
   22.6392    0.9904  -20.3207 C   0  0  0  0  0  0  0  0  0  0  0  0
   21.8068    2.6599  -19.4253 H   0  0  0  0  0  0  0  0  0  0  0  0
   22.9992   -2.6381  -19.9705 C   0  0  0  0  0  0  0  0  0  0  0  0
   23.5718   -3.8132  -20.4606 C   0  0  0  0  0  0  0  0  0  0  0  0
   24.7605   -3.7440  -21.2063 C   0  0  0  0  0  0  0  0  0  0  0  0
   25.3563   -2.5129  -21.4658 C   0  0  0  0  0  0  0  0  0  0  0  0
   24.7901   -1.3412  -20.9827 C   0  0  0  0  0  0  0  0  0  0  0  0
   23.5963   -1.3912  -20.2555 C   0  0  0  0  0  0  0  0  0  0  0  0
   25.3478   -4.8728  -21.6994 F   0  0  0  0  0  0  0  0  0  0  0  0
   21.3568    2.8186  -16.7145 C   0  0  0  0  0  0  0  0  0  0  0  0
   20.9196    3.2336  -15.4562 C   0  0  0  0  0  0  0  0  0  0  0  0
   20.9497    2.3630  -14.3794 C   0  0  0  0  0  0  0  0  0  0  0  0
   21.4205    1.0697  -14.5766 C   0  0  0  0  0  0  0  0  0  0  0  0
   21.8616    0.6532  -15.8280 C   0  0  0  0  0  0  0  0  0  0  0  0
   21.8494    1.5309  -16.9038 C   0  0  0  0  0  0  0  0  0  0  0  0
   18.9815    3.3782  -12.9417 O   0  0  0  0  0  0  0  0  0  0  0  0
   20.5032    1.5791  -11.6077 C   0  0  0  0  0  0  0  0  0  0  0  0
   20.3929    2.9282  -12.7676 S   0  0  0  0  0  0  0  0  0  0  0  0
   22.6681    2.1974  -24.3620 N   0  0  0  0  0  0  0  0  0  0  0  0
   22.1523    1.0249  -24.0206 C   0  0  0  0  0  0  0  0  0  0  0  0
   22.1203    0.5741  -22.7042 C   0  0  0  0  0  0  0  0  0  0  0  0
   22.6604    1.3728  -21.6903 C   0  0  0  0  0  0  0  0  0  0  0  0
   23.1741    2.6293  -22.0721 C   0  0  0  0  0  0  0  0  0  0  0  0
   23.1741    3.0054  -23.4313 C   0  0  0  0  0  0  0  0  0  0  0  0
 20 22  2  0  0  0
 21 22  1  0  0  0
 22 16  1  0  0  0
 14 15  2  0  0  0
 14 19  1  0  0  0
 15 16  1  0  0  0
 16 17  2  0  0  0
 17 18  1  0  0  0
 18 19  2  0  0  0
 19  2  1  0  0  0
 23 24  2  0  0  0
 23 28  1  0  0  0
 24 25  1  0  0  0
 25 26  2  0  0  0
 26 27  1  0  0  0
 26  5  1  0  0  0
 27 28  2  0  0  0
  1  2  1  0  0  0
  1  5  1  0  0  0
  2  3  2  0  0  0
  3  4  1  0  0  0
  4  5  2  0  0  0
  4 12  1  0  0  0
  7  8  2  0  0  0
  7 12  1  0  0  0
  8  9  1  0  0  0
  9 10  2  0  0  0
  9 13  1  0  0  0
 10 11  1  0  0  0
 11 12  2  0  0  0
  1  6  1  0  0  0
M  END
> <minimizedAffinity>
-11.60911

$$$$
3GCP_SB2_A_361


 28 31  0  0  0  0  0  0  0  0999 V2000
   22.7166   -0.0769  -18.1638 N   0  0  0  0  0  0  0  0  0  0  0  0
   22.1353    1.0854  -17.8626 C   0  0  0  0  0  0  0  0  0  0  0  0
   22.0914    1.8276  -18.9683 N   0  0  0  0  0  0  0  0  0  0  0  0
   22.6343    1.1586  -19.9766 C   0  0  0  0  0  0  0  0  0  0  0  0
   23.0366   -0.0989  -19.4645 C   0  0  0  0  0  0  0  0  0  0  0  0
   22.8851   -0.8081  -17.5264 H   0  0  0  0  0  0  0  0  0  0  0  0
   23.0673    3.0582  -21.4156 C   0  0  0  0  0  0  0  0  0  0  0  0
   23.1009    3.6322  -22.6878 C   0  0  0  0  0  0  0  0  0  0  0  0
   22.7387    2.8601  -23.8042 C   0  0  0  0  0  0  0  0  0  0  0  0
   22.3616    1.5295  -23.6456 C   0  0  0  0  0  0  0  0  0  0  0  0
   22.3284    0.9531  -22.3832 C   0  0  0  0  0  0  0  0  0  0  0  0
   22.7050    1.7024  -21.2638 C   0  0  0  0  0  0  0  0  0  0  0  0
   22.7592    3.3896  -25.0618 F   0  0  0  0  0  0  0  0  0  0  0  0
   21.2178    2.7977  -16.3928 C   0  0  0  0  0  0  0  0  0  0  0  0
   20.7674    3.1958  -15.1336 C   0  0  0  0  0  0  0  0  0  0  0  0
   20.7727    2.3065  -14.0718 C   0  0  0  0  0  0  0  0  0  0  0  0
   21.2319    1.0116  -14.2849 C   0  0  0  0  0  0  0  0  0  0  0  0
   21.6861    0.6118  -15.5371 C   0  0  0  0  0  0  0  0  0  0  0  0
   21.6988    1.5080  -16.5975 C   0  0  0  0  0  0  0  0  0  0  0  0
   20.8589    1.9649  -11.4551 O   0  0  0  0  0  0  0  0  0  0  0  0
   20.6621    4.5549  -12.2201 C   0  0  0  0  0  0  0  0  0  0  0  0
   20.1994    2.8500  -12.4583 S   0  0  0  0  0  0  0  0  0  0  0  0
   24.9761   -3.3413  -21.3394 N   0  0  0  0  0  0  0  0  0  0  0  0
   25.4879   -2.1212  -21.4212 C   0  0  0  0  0  0  0  0  0  0  0  0
   24.8885   -1.0148  -20.8265 C   0  0  0  0  0  0  0  0  0  0  0  0
   23.6916   -1.1774  -20.1204 C   0  0  0  0  0  0  0  0  0  0  0  0
   23.1829   -2.4886  -20.0189 C   0  0  0  0  0  0  0  0  0  0  0  0
   23.8503   -3.5533  -20.6590 C   0  0  0  0  0  0  0  0  0  0  0  0
 20 22  2  0  0  0
 21 22  1  0  0  0
 22 16  1  0  0  0
 14 15  2  0  0  0
 14 19  1  0  0  0
 15 16  1  0  0  0
 16 17  2  0  0  0
 17 18  1  0  0  0
 18 19  2  0  0  0
 19  2  1  0  0  0
 23 24  2  0  0  0
 23 28  1  0  0  0
 24 25  1  0  0  0
 25 26  2  0  0  0
 26 27  1  0  0  0
 26  5  1  0  0  0
 27 28  2  0  0  0
  1  2  1  0  0  0
  1  5  1  0  0  0
  2  3  2  0  0  0
  3  4  1  0  0  0
  4  5  2  0  0  0
  4 12  1  0  0  0
  7  8  2  0  0  0
  7 12  1  0  0  0
  8  9  1  0  0  0
  9 10  2  0  0  0
  9 13  1  0  0  0
 10 11  1  0  0  0
 11 12  2  0  0  0
  1  6  1  0  0  0
M  END
> <minimizedAffinity>
-10.18810

$$$$
3GCP_SB2_A_361


 28 31  0  0  0  0  0  0  0  0999 V2000
   23.1731    1.6168  -22.2299 N   0  0  0  0  0  0  0  0  0  0  0  0
   22.7414    2.8615  -22.0208 C   0  0  0  0  0  0  0  0  0  0  0  0
   22.3951    2.9721  -20.7389 N   0  0  0  0  0  0  0  0  0  0  0  0
   22.5999    1.8171  -20.1201 C   0  0  0  0  0  0  0  0  0  0  0  0
   23.1235    0.9226  -21.0852 C   0  0  0  0  0  0  0  0  0  0  0  0
   23.4816    1.2618  -23.0948 H   0  0  0  0  0  0  0  0  0  0  0  0
   21.7748    2.7379  -18.0374 C   0  0  0  0  0  0  0  0  0  0  0  0
   21.5415    2.6158  -16.6664 C   0  0  0  0  0  0  0  0  0  0  0  0
   21.8983    1.4272  -16.0078 C   0  0  0  0  0  0  0  0  0  0  0  0
   22.4681    0.3743  -16.7181 C   0  0  0  0  0  0  0  0  0  0  0  0
   22.7004    0.4895  -18.0818 C   0  0  0  0  0  0  0  0  0  0  0  0
   22.3328    1.6586  -18.7559 C   0  0  0  0  0  0  0  0  0  0  0  0
   21.6854    1.2744  -14.6685 F   0  0  0  0  0  0  0  0  0  0  0  0
   21.6962    4.9204  -22.7973 C   0  0  0  0  0  0  0  0  0  0  0  0
   21.5829    5.9350  -23.7485 C   0  0  0  0  0  0  0  0  0  0  0  0
   22.3836    5.9313  -24.8785 C   0  0  0  0  0  0  0  0  0  0  0  0
   23.3023    4.9010  -25.0452 C   0  0  0  0  0  0  0  0  0  0  0  0
   23.4154    3.8853  -24.1021 C   0  0  0  0  0  0  0  0  0  0  0  0
   22.6001    3.8779  -22.9782 C   0  0  0  0  0  0  0  0  0  0  0  0
   21.2079    8.2014  -25.5386 O   0  0  0  0  0  0  0  0  0  0  0  0
   23.7895    8.0273  -26.3369 C   0  0  0  0  0  0  0  0  0  0  0  0
   22.2073    7.2431  -26.0933 S   0  0  0  0  0  0  0  0  0  0  0  0
   24.2537   -3.1273  -20.7519 N   0  0  0  0  0  0  0  0  0  0  0  0
   22.9742   -2.7855  -20.6917 C   0  0  0  0  0  0  0  0  0  0  0  0
   22.5449   -1.4653  -20.7912 C   0  0  0  0  0  0  0  0  0  0  0  0
   23.4891   -0.4450  -20.9496 C   0  0  0  0  0  0  0  0  0  0  0  0
   24.8410   -0.8346  -21.0436 C   0  0  0  0  0  0  0  0  0  0  0  0
   25.1904   -2.1958  -20.9251 C   0  0  0  0  0  0  0  0  0  0  0  0
 20 22  2  0  0  0
 21 22  1  0  0  0
 22 16  1  0  0  0
 14 15  2  0  0  0
 14 19  1  0  0  0
 15 16  1  0  0  0
 16 17  2  0  0  0
 17 18  1  0  0  0
 18 19  2  0  0  0
 19  2  1  0  0  0
 23 24  2  0  0  0
 23 28  1  0  0  0
 24 25  1  0  0  0
 25 26  2  0  0  0
 26 27  1  0  0  0
 26  5  1  0  0  0
 27 28  2  0  0  0
  1  2  1  0  0  0
  1  5  1  0  0  0
  2  3  2  0  0  0
  3  4  1  0  0  0
  4  5  2  0  0  0
  4 12  1  0  0  0
  7  8  2  0  0  0
  7 12  1  0  0  0
  8  9  1  0  0  0
  9 10  2  0  0  0
  9 13  1  0  0  0
 10 11  1  0  0  0
 11 12  2  0  0  0
  1  6  1  0  0  0
M  END
> <minimizedAffinity>
-8.99529

$$$$
3GCP_SB2_A_361


 28 31  0  0  0  0  0  0  0  0999 V2000
   20.7688   -1.5512  -14.5854 N   0  0  0  0  0  0  0  0  0  0  0  0
   21.6695   -0.5671  -14.5931 C   0  0  0  0  0  0  0  0  0  0  0  0
   22.5823   -0.8310  -13.6591 N   0  0  0  0  0  0  0  0  0  0  0  0
   22.2829   -1.9717  -13.0522 C   0  0  0  0  0  0  0  0  0  0  0  0
   21.1016   -2.4615  -13.6606 C   0  0  0  0  0  0  0  0  0  0  0  0
   19.9789   -1.6009  -15.1709 H   0  0  0  0  0  0  0  0  0  0  0  0
   22.5230   -2.7211  -10.7616 C   0  0  0  0  0  0  0  0  0  0  0  0
   23.3200   -3.2006   -9.7205 C   0  0  0  0  0  0  0  0  0  0  0  0
   24.6896   -3.4205   -9.9434 C   0  0  0  0  0  0  0  0  0  0  0  0
   25.2458   -3.1747  -11.1957 C   0  0  0  0  0  0  0  0  0  0  0  0
   24.4575   -2.6998  -12.2349 C   0  0  0  0  0  0  0  0  0  0  0  0
   23.0885   -2.4945  -12.0349 C   0  0  0  0  0  0  0  0  0  0  0  0
   25.4978   -3.8876   -8.9480 F   0  0  0  0  0  0  0  0  0  0  0  0
   20.9810    1.7389  -14.9710 C   0  0  0  0  0  0  0  0  0  0  0  0
   20.9873    2.8887  -15.7615 C   0  0  0  0  0  0  0  0  0  0  0  0
   21.6754    2.9115  -16.9632 C   0  0  0  0  0  0  0  0  0  0  0  0
   22.3604    1.7701  -17.3646 C   0  0  0  0  0  0  0  0  0  0  0  0
   22.3531    0.6205  -16.5822 C   0  0  0  0  0  0  0  0  0  0  0  0
   21.6481    0.5904  -15.3865 C   0  0  0  0  0  0  0  0  0  0  0  0
   22.4090    5.4365  -17.2023 O   0  0  0  0  0  0  0  0  0  0  0  0
   22.4354    4.0583  -19.5330 C   0  0  0  0  0  0  0  0  0  0  0  0
   21.6555    4.4012  -17.9672 S   0  0  0  0  0  0  0  0  0  0  0  0
   18.8651   -5.9091  -12.7107 N   0  0  0  0  0  0  0  0  0  0  0  0
   20.0001   -6.0167  -13.3872 C   0  0  0  0  0  0  0  0  0  0  0  0
   20.7757   -4.9135  -13.7315 C   0  0  0  0  0  0  0  0  0  0  0  0
   20.3488   -3.6318  -13.3671 C   0  0  0  0  0  0  0  0  0  0  0  0
   19.1560   -3.5440  -12.6203 C   0  0  0  0  0  0  0  0  0  0  0  0
   18.4266   -4.7131  -12.3201 C   0  0  0  0  0  0  0  0  0  0  0  0
 20 22  2  0  0  0
 21 22  1  0  0  0
 22 16  1  0  0  0
 14 15  2  0  0  0
 14 19  1  0  0  0
 15 16  1  0  0  0
 16 17  2  0  0  0
 17 18  1  0  0  0
 18 19  2  0  0  0
 19  2  1  0  0  0
 23 24  2  0  0  0
 23 28  1  0  0  0
 24 25  1  0  0  0
 25 26  2  0  0  0
 26 27  1  0  0  0
 26  5  1  0  0  0
 27 28  2  0  0  0
  1  2  1  0  0  0
  1  5  1  0  0  0
  2  3  2  0  0  0
  3  4  1  0  0  0
  4  5  2  0  0  0
  4 12  1  0  0  0
  7  8  2  0  0  0
  7 12  1  0  0  0
  8  9  1  0  0  0
  9 10  2  0  0  0
  9 13  1  0  0  0
 10 11  1  0  0  0
 11 12  2  0  0  0
  1  6  1  0  0  0
M  END
> <minimizedAffinity>
-8.89757

$$$$
3GCP_SB2_A_361


 28 31  0  0  0  0  0  0  0  0999 V2000
   21.7528   -0.4313  -13.1594 N   0  0  0  0  0  0  0  0  0  0  0  0
   21.4410   -0.3721  -14.4552 C   0  0  0  0  0  0  0  0  0  0  0  0
   21.1318   -1.6015  -14.8654 N   0  0  0  0  0  0  0  0  0  0  0  0
   21.2381   -2.4501  -13.8516 C   0  0  0  0  0  0  0  0  0  0  0  0
   21.6320   -1.6919  -12.7223 C   0  0  0  0  0  0  0  0  0  0  0  0
   22.0297    0.3357  -12.6077 H   0  0  0  0  0  0  0  0  0  0  0  0
   20.7582   -4.3309  -15.3003 C   0  0  0  0  0  0  0  0  0  0  0  0
   20.4308   -5.6774  -15.4702 C   0  0  0  0  0  0  0  0  0  0  0  0
   20.2657   -6.4962  -14.3406 C   0  0  0  0  0  0  0  0  0  0  0  0
   20.4396   -5.9732  -13.0622 C   0  0  0  0  0  0  0  0  0  0  0  0
   20.7672   -4.6356  -12.8877 C   0  0  0  0  0  0  0  0  0  0  0  0
   20.9545   -3.8118  -14.0025 C   0  0  0  0  0  0  0  0  0  0  0  0
   19.9447   -7.8163  -14.4700 F   0  0  0  0  0  0  0  0  0  0  0  0
   20.9297    1.9704  -14.8857 C   0  0  0  0  0  0  0  0  0  0  0  0
   21.0038    3.0922  -15.7121 C   0  0  0  0  0  0  0  0  0  0  0  0
   21.6530    3.0235  -16.9336 C   0  0  0  0  0  0  0  0  0  0  0  0
   22.2304    1.8187  -17.3185 C   0  0  0  0  0  0  0  0  0  0  0  0
   22.1550    0.6969  -16.5001 C   0  0  0  0  0  0  0  0  0  0  0  0
   21.4882    0.7596  -15.2838 C   0  0  0  0  0  0  0  0  0  0  0  0
   22.1920    5.6015  -17.1198 O   0  0  0  0  0  0  0  0  0  0  0  0
   22.8555    4.1772  -19.3251 C   0  0  0  0  0  0  0  0  0  0  0  0
   21.7217    4.4799  -17.9833 S   0  0  0  0  0  0  0  0  0  0  0  0
   22.4293   -2.8865   -8.7566 N   0  0  0  0  0  0  0  0  0  0  0  0
   23.3425   -3.0615   -9.7015 C   0  0  0  0  0  0  0  0  0  0  0  0
   23.1319   -2.6906  -11.0263 C   0  0  0  0  0  0  0  0  0  0  0  0
   21.9087   -2.1198  -11.3946 C   0  0  0  0  0  0  0  0  0  0  0  0
   20.9649   -1.9134  -10.3675 C   0  0  0  0  0  0  0  0  0  0  0  0
   21.2569   -2.3260   -9.0509 C   0  0  0  0  0  0  0  0  0  0  0  0
 20 22  2  0  0  0
 21 22  1  0  0  0
 22 16  1  0  0  0
 14 15  2  0  0  0
 14 19  1  0  0  0
 15 16  1  0  0  0
 16 17  2  0  0  0
 17 18  1  0  0  0
 18 19  2  0  0  0
 19  2  1  0  0  0
 23 24  2  0  0  0
 23 28  1  0  0  0
 24 25  1  0  0  0
 25 26  2  0  0  0
 26 27  1  0  0  0
 26  5  1  0  0  0
 27 28  2  0  0  0
  1  2  1  0  0  0
  1  5  1  0  0  0
  2  3  2  0  0  0
  3  4  1  0  0  0
  4  5  2  0  0  0
  4 12  1  0  0  0
  7  8  2  0  0  0
  7 12  1  0  0  0
  8  9  1  0  0  0
  9 10  2  0  0  0
  9 13  1  0  0  0
 10 11  1  0  0  0
 11 12  2  0  0  0
  1  6  1  0  0  0
M  END
> <minimizedAffinity>
-8.67904

$$$$
