3DNE_LL1_A_351


 16 18  0  0  0  0  0  0  0  0999 V2000
    8.2168   10.5579    3.6546 C   0  0  0  0  0  0  0  0  0  0  0  0
    8.4668   10.8301    5.0267 C   0  0  0  0  0  0  0  0  0  0  0  0
    9.7843   11.0524    5.5124 C   0  0  0  0  0  0  0  0  0  0  0  0
   10.8745   11.0448    4.6035 C   0  0  0  0  0  0  0  0  0  0  0  0
   10.6318   10.7590    3.2075 C   0  0  0  0  0  0  0  0  0  0  0  0
    9.3244   10.5504    2.7353 C   0  0  0  0  0  0  0  0  0  0  0  0
    8.8090   10.3493    1.4871 N   0  0  0  0  0  0  0  0  0  0  0  0
    7.5555   10.2201    1.5800 N   0  0  0  0  0  0  0  0  0  0  0  0
    7.0668   10.3326    2.8400 C   0  0  0  0  0  0  0  0  0  0  0  0
    9.3286   10.3111    0.6518 H   0  0  0  0  0  0  0  0  0  0  0  0
    5.6658   10.2581    3.2235 C   0  0  0  0  0  0  0  0  0  0  0  0
    4.6798   10.1926    2.2182 C   0  0  0  0  0  0  0  0  0  0  0  0
    3.3041   10.0752    2.5191 C   0  0  0  0  0  0  0  0  0  0  0  0
    2.9500   10.0727    3.8240 N   0  0  0  0  0  0  0  0  0  0  0  0
    3.7984   10.1145    4.8596 C   0  0  0  0  0  0  0  0  0  0  0  0
    5.2151   10.2129    4.5837 C   0  0  0  0  0  0  0  0  0  0  0  0
  6  1  2  0  0  0
  9  1  1  0  0  0
  1  2  1  0  0  0
  2  3  2  0  0  0
  4  3  1  0  0  0
  5  4  2  0  0  0
  6  5  1  0  0  0
  7  6  1  0  0  0
  7  8  1  0  0  0
  8  9  2  0  0  0
  9 11  1  0  0  0
 12 11  2  0  0  0
 11 16  1  0  0  0
 12 13  1  0  0  0
 13 14  2  0  0  0
 14 15  1  0  0  0
 16 15  2  0  0  0
  7 10  1  0  0  0
M  END
> <minimizedAffinity>
-8.64898

$$$$
3DNE_LL1_A_351


 16 18  0  0  0  0  0  0  0  0999 V2000
    6.0143   10.4221    3.6673 C   0  0  0  0  0  0  0  0  0  0  0  0
    5.6036   10.6167    5.0137 C   0  0  0  0  0  0  0  0  0  0  0  0
    4.2359   10.5338    5.3930 C   0  0  0  0  0  0  0  0  0  0  0  0
    3.2586   10.2083    4.4166 C   0  0  0  0  0  0  0  0  0  0  0  0
    3.6649   10.0183    3.0425 C   0  0  0  0  0  0  0  0  0  0  0  0
    5.0208   10.0926    2.6791 C   0  0  0  0  0  0  0  0  0  0  0  0
    5.6798    9.8796    1.5025 N   0  0  0  0  0  0  0  0  0  0  0  0
    6.9157   10.0661    1.6884 N   0  0  0  0  0  0  0  0  0  0  0  0
    7.2536   10.3937    2.9602 C   0  0  0  0  0  0  0  0  0  0  0  0
    5.2610    9.6228    0.6494 H   0  0  0  0  0  0  0  0  0  0  0  0
    8.6016   10.6296    3.4529 C   0  0  0  0  0  0  0  0  0  0  0  0
    9.6956   10.4303    2.5866 C   0  0  0  0  0  0  0  0  0  0  0  0
   11.0277   10.6818    2.9854 C   0  0  0  0  0  0  0  0  0  0  0  0
   11.2307   11.0837    4.2603 N   0  0  0  0  0  0  0  0  0  0  0  0
   10.2699   11.3196    5.1632 C   0  0  0  0  0  0  0  0  0  0  0  0
    8.8942   11.0921    4.7780 C   0  0  0  0  0  0  0  0  0  0  0  0
  6  1  2  0  0  0
  9  1  1  0  0  0
  1  2  1  0  0  0
  2  3  2  0  0  0
  4  3  1  0  0  0
  5  4  2  0  0  0
  6  5  1  0  0  0
  7  6  1  0  0  0
  7  8  1  0  0  0
  8  9  2  0  0  0
  9 11  1  0  0  0
 12 11  2  0  0  0
 11 16  1  0  0  0
 12 13  1  0  0  0
 13 14  2  0  0  0
 14 15  1  0  0  0
 16 15  2  0  0  0
  7 10  1  0  0  0
M  END
> <minimizedAffinity>
-7.89607

$$$$
3DNE_LL1_A_351


 16 18  0  0  0  0  0  0  0  0999 V2000
    6.1844   10.3515    3.6706 C   0  0  0  0  0  0  0  0  0  0  0  0
    5.5343   10.4156    4.9326 C   0  0  0  0  0  0  0  0  0  0  0  0
    4.1182   10.3577    5.0432 C   0  0  0  0  0  0  0  0  0  0  0  0
    3.3324   10.1899    3.8731 C   0  0  0  0  0  0  0  0  0  0  0  0
    3.9834   10.1336    2.5838 C   0  0  0  0  0  0  0  0  0  0  0  0
    5.3848   10.1818    2.4857 C   0  0  0  0  0  0  0  0  0  0  0  0
    6.2464   10.0685    1.4327 N   0  0  0  0  0  0  0  0  0  0  0  0
    7.4302   10.1732    1.8619 N   0  0  0  0  0  0  0  0  0  0  0  0
    7.5329   10.3414    3.2036 C   0  0  0  0  0  0  0  0  0  0  0  0
    5.9878    9.9283    0.4931 H   0  0  0  0  0  0  0  0  0  0  0  0
    8.7707   10.4557    3.9587 C   0  0  0  0  0  0  0  0  0  0  0  0
    8.7624   10.1749    5.3401 C   0  0  0  0  0  0  0  0  0  0  0  0
    9.9360   10.2240    6.1257 C   0  0  0  0  0  0  0  0  0  0  0  0
   11.0809   10.5989    5.5120 N   0  0  0  0  0  0  0  0  0  0  0  0
   11.2097   10.8732    4.2073 C   0  0  0  0  0  0  0  0  0  0  0  0
   10.0299   10.8104    3.3724 C   0  0  0  0  0  0  0  0  0  0  0  0
  6  1  2  0  0  0
  9  1  1  0  0  0
  1  2  1  0  0  0
  2  3  2  0  0  0
  4  3  1  0  0  0
  5  4  2  0  0  0
  6  5  1  0  0  0
  7  6  1  0  0  0
  7  8  1  0  0  0
  8  9  2  0  0  0
  9 11  1  0  0  0
 12 11  2  0  0  0
 11 16  1  0  0  0
 12 13  1  0  0  0
 13 14  2  0  0  0
 14 15  1  0  0  0
 16 15  2  0  0  0
  7 10  1  0  0  0
M  END
> <minimizedAffinity>
-7.62796

$$$$
3DNE_LL1_A_351


 16 18  0  0  0  0  0  0  0  0999 V2000
    8.5084   10.7129    3.7202 C   0  0  0  0  0  0  0  0  0  0  0  0
    8.0231   11.0262    5.0185 C   0  0  0  0  0  0  0  0  0  0  0  0
    6.6311   11.0461    5.3070 C   0  0  0  0  0  0  0  0  0  0  0  0
    5.7018   10.7053    4.2897 C   0  0  0  0  0  0  0  0  0  0  0  0
    6.1848   10.3948    2.9632 C   0  0  0  0  0  0  0  0  0  0  0  0
    7.5635   10.3681    2.6904 C   0  0  0  0  0  0  0  0  0  0  0  0
    8.2840   10.0350    1.5795 N   0  0  0  0  0  0  0  0  0  0  0  0
    9.5140   10.1663    1.8373 N   0  0  0  0  0  0  0  0  0  0  0  0
    9.7873   10.5655    3.1042 C   0  0  0  0  0  0  0  0  0  0  0  0
    7.9071    9.7409    0.7189 H   0  0  0  0  0  0  0  0  0  0  0  0
   11.1119   10.7619    3.6718 C   0  0  0  0  0  0  0  0  0  0  0  0
   11.4692   10.0630    4.8427 C   0  0  0  0  0  0  0  0  0  0  0  0
   12.7528   10.1730    5.4235 C   0  0  0  0  0  0  0  0  0  0  0  0
   13.6306   11.0186    4.8382 N   0  0  0  0  0  0  0  0  0  0  0  0
   13.4065   11.7195    3.7190 C   0  0  0  0  0  0  0  0  0  0  0  0
   12.1089   11.6111    3.0887 C   0  0  0  0  0  0  0  0  0  0  0  0
  6  1  2  0  0  0
  9  1  1  0  0  0
  1  2  1  0  0  0
  2  3  2  0  0  0
  4  3  1  0  0  0
  5  4  2  0  0  0
  6  5  1  0  0  0
  7  6  1  0  0  0
  7  8  1  0  0  0
  8  9  2  0  0  0
  9 11  1  0  0  0
 12 11  2  0  0  0
 11 16  1  0  0  0
 12 13  1  0  0  0
 13 14  2  0  0  0
 14 15  1  0  0  0
 16 15  2  0  0  0
  7 10  1  0  0  0
M  END
> <minimizedAffinity>
-7.06786

$$$$
3DNE_LL1_A_351


 16 18  0  0  0  0  0  0  0  0999 V2000
    9.1083   10.6273    3.5186 C   0  0  0  0  0  0  0  0  0  0  0  0
    8.3856   10.3244    2.3331 C   0  0  0  0  0  0  0  0  0  0  0  0
    6.9649   10.2763    2.3205 C   0  0  0  0  0  0  0  0  0  0  0  0
    6.2450   10.5777    3.5061 C   0  0  0  0  0  0  0  0  0  0  0  0
    6.9710   10.8772    4.7196 C   0  0  0  0  0  0  0  0  0  0  0  0
    8.3756   10.9321    4.7195 C   0  0  0  0  0  0  0  0  0  0  0  0
    9.2920   11.2636    5.6758 N   0  0  0  0  0  0  0  0  0  0  0  0
   10.4505   11.1660    5.1809 N   0  0  0  0  0  0  0  0  0  0  0  0
   10.4796   10.7947    3.8770 C   0  0  0  0  0  0  0  0  0  0  0  0
    9.0843   11.5342    6.5993 H   0  0  0  0  0  0  0  0  0  0  0  0
   11.6718   10.6395    3.0585 C   0  0  0  0  0  0  0  0  0  0  0  0
   12.6746    9.7373    3.4677 C   0  0  0  0  0  0  0  0  0  0  0  0
   13.8378    9.5050    2.6996 C   0  0  0  0  0  0  0  0  0  0  0  0
   13.9855   10.2199    1.5616 N   0  0  0  0  0  0  0  0  0  0  0  0
   13.0943   11.0900    1.0690 C   0  0  0  0  0  0  0  0  0  0  0  0
   11.8831   11.3332    1.8218 C   0  0  0  0  0  0  0  0  0  0  0  0
  6  1  2  0  0  0
  9  1  1  0  0  0
  1  2  1  0  0  0
  2  3  2  0  0  0
  4  3  1  0  0  0
  5  4  2  0  0  0
  6  5  1  0  0  0
  7  6  1  0  0  0
  7  8  1  0  0  0
  8  9  2  0  0  0
  9 11  1  0  0  0
 12 11  2  0  0  0
 11 16  1  0  0  0
 12 13  1  0  0  0
 13 14  2  0  0  0
 14 15  1  0  0  0
 16 15  2  0  0  0
  7 10  1  0  0  0
M  END
> <minimizedAffinity>
-7.03413

$$$$
3DNE_LL1_A_351


 16 18  0  0  0  0  0  0  0  0999 V2000
   10.9881    9.8423    3.5760 C   0  0  0  0  0  0  0  0  0  0  0  0
   11.3420   11.2167    3.6477 C   0  0  0  0  0  0  0  0  0  0  0  0
   12.6966   11.6300    3.7723 C   0  0  0  0  0  0  0  0  0  0  0  0
   13.7267   10.6536    3.7838 C   0  0  0  0  0  0  0  0  0  0  0  0
   13.3764    9.2526    3.7215 C   0  0  0  0  0  0  0  0  0  0  0  0
   12.0349    8.8543    3.5884 C   0  0  0  0  0  0  0  0  0  0  0  0
   11.4395    7.6363    3.4269 N   0  0  0  0  0  0  0  0  0  0  0  0
   10.1894    7.8017    3.3460 N   0  0  0  0  0  0  0  0  0  0  0  0
    9.7837    9.0937    3.4152 C   0  0  0  0  0  0  0  0  0  0  0  0
   11.9073    6.7713    3.3811 H   0  0  0  0  0  0  0  0  0  0  0  0
    8.4115    9.5656    3.3164 C   0  0  0  0  0  0  0  0  0  0  0  0
    7.5722    9.4822    4.4459 C   0  0  0  0  0  0  0  0  0  0  0  0
    6.2427    9.9609    4.4333 C   0  0  0  0  0  0  0  0  0  0  0  0
    5.7752   10.4700    3.2713 N   0  0  0  0  0  0  0  0  0  0  0  0
    6.4843   10.6124    2.1440 C   0  0  0  0  0  0  0  0  0  0  0  0
    7.8555   10.1514    2.1320 C   0  0  0  0  0  0  0  0  0  0  0  0
  6  1  2  0  0  0
  9  1  1  0  0  0
  1  2  1  0  0  0
  2  3  2  0  0  0
  4  3  1  0  0  0
  5  4  2  0  0  0
  6  5  1  0  0  0
  7  6  1  0  0  0
  7  8  1  0  0  0
  8  9  2  0  0  0
  9 11  1  0  0  0
 12 11  2  0  0  0
 11 16  1  0  0  0
 12 13  1  0  0  0
 13 14  2  0  0  0
 14 15  1  0  0  0
 16 15  2  0  0  0
  7 10  1  0  0  0
M  END
> <minimizedAffinity>
-6.91155

$$$$
3DNE_LL1_A_351


 16 18  0  0  0  0  0  0  0  0999 V2000
   10.1213   10.3481    3.0570 C   0  0  0  0  0  0  0  0  0  0  0  0
    8.9935   10.6074    2.2323 C   0  0  0  0  0  0  0  0  0  0  0  0
    7.7354    9.9930    2.4789 C   0  0  0  0  0  0  0  0  0  0  0  0
    7.5854    9.1325    3.5977 C   0  0  0  0  0  0  0  0  0  0  0  0
    8.7290    8.8546    4.4368 C   0  0  0  0  0  0  0  0  0  0  0  0
    9.9663    9.4746    4.1906 C   0  0  0  0  0  0  0  0  0  0  0  0
   11.1601    9.4607    4.8531 N   0  0  0  0  0  0  0  0  0  0  0  0
   11.9792   10.1952    4.2317 N   0  0  0  0  0  0  0  0  0  0  0  0
   11.4737   10.7985    3.1275 C   0  0  0  0  0  0  0  0  0  0  0  0
   11.3513    8.9604    5.6792 H   0  0  0  0  0  0  0  0  0  0  0  0
   12.1864   11.7161    2.2525 C   0  0  0  0  0  0  0  0  0  0  0  0
   12.8685   12.8138    2.8156 C   0  0  0  0  0  0  0  0  0  0  0  0
   13.6162   13.7195    2.0298 C   0  0  0  0  0  0  0  0  0  0  0  0
   13.6219   13.5253    0.6917 N   0  0  0  0  0  0  0  0  0  0  0  0
   13.0249   12.5121    0.0507 C   0  0  0  0  0  0  0  0  0  0  0  0
   12.2695   11.5558    0.8303 C   0  0  0  0  0  0  0  0  0  0  0  0
  6  1  2  0  0  0
  9  1  1  0  0  0
  1  2  1  0  0  0
  2  3  2  0  0  0
  4  3  1  0  0  0
  5  4  2  0  0  0
  6  5  1  0  0  0
  7  6  1  0  0  0
  7  8  1  0  0  0
  8  9  2  0  0  0
  9 11  1  0  0  0
 12 11  2  0  0  0
 11 16  1  0  0  0
 12 13  1  0  0  0
 13 14  2  0  0  0
 14 15  1  0  0  0
 16 15  2  0  0  0
  7 10  1  0  0  0
M  END
> <minimizedAffinity>
-6.89701

$$$$
3DNE_LL1_A_351


 16 18  0  0  0  0  0  0  0  0999 V2000
    8.4312    9.9316    4.0828 C   0  0  0  0  0  0  0  0  0  0  0  0
    8.7690    8.7996    3.2930 C   0  0  0  0  0  0  0  0  0  0  0  0
   10.1065    8.3254    3.2072 C   0  0  0  0  0  0  0  0  0  0  0  0
   11.1251    8.9680    3.9584 C   0  0  0  0  0  0  0  0  0  0  0  0
   10.7935   10.1263    4.7570 C   0  0  0  0  0  0  0  0  0  0  0  0
    9.4663   10.5815    4.8432 C   0  0  0  0  0  0  0  0  0  0  0  0
    8.8699   11.5729    5.5680 N   0  0  0  0  0  0  0  0  0  0  0  0
    7.6346   11.5849    5.3023 N   0  0  0  0  0  0  0  0  0  0  0  0
    7.2362   10.6351    4.4203 C   0  0  0  0  0  0  0  0  0  0  0  0
    9.3272   12.1789    6.1948 H   0  0  0  0  0  0  0  0  0  0  0  0
    5.8730   10.4065    3.9676 C   0  0  0  0  0  0  0  0  0  0  0  0
    4.8431   10.2811    4.9219 C   0  0  0  0  0  0  0  0  0  0  0  0
    3.4912   10.1013    4.5518 C   0  0  0  0  0  0  0  0  0  0  0  0
    3.2144   10.0061    3.2318 N   0  0  0  0  0  0  0  0  0  0  0  0
    4.1065   10.1251    2.2399 C   0  0  0  0  0  0  0  0  0  0  0  0
    5.4958   10.3316    2.5866 C   0  0  0  0  0  0  0  0  0  0  0  0
  6  1  2  0  0  0
  9  1  1  0  0  0
  1  2  1  0  0  0
  2  3  2  0  0  0
  4  3  1  0  0  0
  5  4  2  0  0  0
  6  5  1  0  0  0
  7  6  1  0  0  0
  7  8  1  0  0  0
  8  9  2  0  0  0
  9 11  1  0  0  0
 12 11  2  0  0  0
 11 16  1  0  0  0
 12 13  1  0  0  0
 13 14  2  0  0  0
 14 15  1  0  0  0
 16 15  2  0  0  0
  7 10  1  0  0  0
M  END
> <minimizedAffinity>
-6.78912

$$$$
3DNE_LL1_A_351


 16 18  0  0  0  0  0  0  0  0999 V2000
   10.9585   10.6593    4.4736 C   0  0  0  0  0  0  0  0  0  0  0  0
   11.3953   11.0387    3.1757 C   0  0  0  0  0  0  0  0  0  0  0  0
   12.7727   11.2332    2.8823 C   0  0  0  0  0  0  0  0  0  0  0  0
   13.7417   11.0040    3.8939 C   0  0  0  0  0  0  0  0  0  0  0  0
   13.3068   10.6275    5.2200 C   0  0  0  0  0  0  0  0  0  0  0  0
   11.9434   10.4281    5.4976 C   0  0  0  0  0  0  0  0  0  0  0  0
   11.2747   10.0010    6.6088 N   0  0  0  0  0  0  0  0  0  0  0  0
   10.0369    9.9801    6.3563 N   0  0  0  0  0  0  0  0  0  0  0  0
    9.7105   10.3503    5.0933 C   0  0  0  0  0  0  0  0  0  0  0  0
   11.6891    9.7505    7.4660 H   0  0  0  0  0  0  0  0  0  0  0  0
    8.3692   10.3843    4.5318 C   0  0  0  0  0  0  0  0  0  0  0  0
    8.0934    9.6450    3.3637 C   0  0  0  0  0  0  0  0  0  0  0  0
    6.8033    9.5981    2.7890 C   0  0  0  0  0  0  0  0  0  0  0  0
    5.8326   10.3328    3.3773 N   0  0  0  0  0  0  0  0  0  0  0  0
    5.9756   11.0580    4.4942 C   0  0  0  0  0  0  0  0  0  0  0  0
    7.2798   11.1083    5.1184 C   0  0  0  0  0  0  0  0  0  0  0  0
  6  1  2  0  0  0
  9  1  1  0  0  0
  1  2  1  0  0  0
  2  3  2  0  0  0
  4  3  1  0  0  0
  5  4  2  0  0  0
  6  5  1  0  0  0
  7  6  1  0  0  0
  7  8  1  0  0  0
  8  9  2  0  0  0
  9 11  1  0  0  0
 12 11  2  0  0  0
 11 16  1  0  0  0
 12 13  1  0  0  0
 13 14  2  0  0  0
 14 15  1  0  0  0
 16 15  2  0  0  0
  7 10  1  0  0  0
M  END
> <minimizedAffinity>
-6.73853

$$$$
3DNE_LL1_A_351


 16 18  0  0  0  0  0  0  0  0999 V2000
    8.4440    9.9245    4.1218 C   0  0  0  0  0  0  0  0  0  0  0  0
    8.7176    8.7392    3.3872 C   0  0  0  0  0  0  0  0  0  0  0  0
   10.0374    8.2233    3.2731 C   0  0  0  0  0  0  0  0  0  0  0  0
   11.1042    8.8796    3.9408 C   0  0  0  0  0  0  0  0  0  0  0  0
   10.8379   10.0914    4.6824 C   0  0  0  0  0  0  0  0  0  0  0  0
    9.5280   10.5882    4.7975 C   0  0  0  0  0  0  0  0  0  0  0  0
    8.9897   11.6367    5.4867 N   0  0  0  0  0  0  0  0  0  0  0  0
    7.7446   11.6680    5.2734 N   0  0  0  0  0  0  0  0  0  0  0  0
    7.2835   10.6799    4.4672 C   0  0  0  0  0  0  0  0  0  0  0  0
    9.4895   12.2651    6.0564 H   0  0  0  0  0  0  0  0  0  0  0  0
    5.8963   10.4639    4.0873 C   0  0  0  0  0  0  0  0  0  0  0  0
    5.5662   10.3536    2.7213 C   0  0  0  0  0  0  0  0  0  0  0  0
    4.2467   10.1006    2.2833 C   0  0  0  0  0  0  0  0  0  0  0  0
    3.2836   10.0104    3.2279 N   0  0  0  0  0  0  0  0  0  0  0  0
    3.4827   10.0835    4.5504 C   0  0  0  0  0  0  0  0  0  0  0  0
    4.8266   10.3202    5.0308 C   0  0  0  0  0  0  0  0  0  0  0  0
  6  1  2  0  0  0
  9  1  1  0  0  0
  1  2  1  0  0  0
  2  3  2  0  0  0
  4  3  1  0  0  0
  5  4  2  0  0  0
  6  5  1  0  0  0
  7  6  1  0  0  0
  7  8  1  0  0  0
  8  9  2  0  0  0
  9 11  1  0  0  0
 12 11  2  0  0  0
 11 16  1  0  0  0
 12 13  1  0  0  0
 13 14  2  0  0  0
 14 15  1  0  0  0
 16 15  2  0  0  0
  7 10  1  0  0  0
M  END
> <minimizedAffinity>
-6.67158

$$$$
