2IWX_M1S_A_1215


 26 27  0  0  0  0  0  0  0  0999 V2000
   55.4231   75.8496   -5.7259 C   0  0  0  0  0  0  0  0  0  0  0  0
   55.5118   76.6158   -4.4386 C   0  0  0  0  0  0  0  0  0  0  0  0
   54.6233   77.6872   -4.2396 C   0  0  0  0  0  0  0  0  0  0  0  0
   54.6665   78.4689   -3.0934 C   0  0  0  0  0  0  0  0  0  0  0  0
   55.6415   78.1534   -2.1435 C   0  0  0  0  0  0  0  0  0  0  0  0
   56.4864   77.1003   -2.3602 C   0  0  0  0  0  0  0  0  0  0  0  0
   56.4796   76.2983   -3.4902 C   0  0  0  0  0  0  0  0  0  0  0  0
   57.4733   75.1365   -3.6303 C   0  0  0  0  0  0  0  0  0  0  0  0
   58.7536   75.4683   -4.3393 C   0  0  0  0  0  0  0  0  0  0  0  0
   59.2333   76.8827   -4.5017 C   0  0  0  0  0  0  0  0  0  0  0  0
   60.5715   76.9186   -5.2493 C   0  0  0  0  0  0  0  0  0  0  0  0
   61.0079   78.3434   -5.5515 C   0  0  0  0  0  0  0  0  0  0  0  0
   60.0335   79.0782   -6.4712 C   0  0  0  0  0  0  0  0  0  0  0  0
   60.0033   78.4392   -7.8585 C   0  0  0  0  0  0  0  0  0  0  0  0
   58.6513   77.8079   -8.1060 C   0  0  0  0  0  0  0  0  0  0  0  0
   58.5547   76.5005   -8.3362 C   0  0  0  0  0  0  0  0  0  0  0  0
   57.2081   75.8660   -8.5998 C   0  0  0  0  0  0  0  0  0  0  0  0
   56.7419   74.8797   -7.5338 C   0  0  0  0  0  0  0  0  0  0  0  0
   54.3998   75.5638   -6.3094 O   0  0  0  0  0  0  0  0  0  0  0  0
   53.6472   77.9675   -5.1799 O   0  0  0  0  0  0  0  0  0  0  0  0
   55.7661   78.9196   -1.0109 O   0  0  0  0  0  0  0  0  0  0  0  0
   57.6342   76.7173   -1.0681 Cl  0  0  0  0  0  0  0  0  0  0  0  0
   59.4093   74.5013   -4.7356 O   0  0  0  0  0  0  0  0  0  0  0  0
   56.7001   75.5772   -6.2608 O   0  0  0  0  0  0  0  0  0  0  0  0
   53.5921   77.4577   -5.9642 H   0  0  0  0  0  0  0  0  0  0  0  0
   55.1850   79.6403   -0.8665 H   0  0  0  0  0  0  0  0  0  0  0  0
  1  2  1  0  0  0
  1 19  2  0  0  0
  1 24  1  0  0  0
  2  3  2  0  0  0
  2  7  1  0  0  0
  3  4  1  0  0  0
  3 20  1  0  0  0
  4  5  2  0  0  0
  5  6  1  0  0  0
  5 21  1  0  0  0
  6  7  2  0  0  0
  6 22  1  0  0  0
  7  8  1  0  0  0
  8  9  1  0  0  0
  9 10  1  0  0  0
  9 23  2  0  0  0
 10 11  1  0  0  0
 11 12  1  0  0  0
 12 13  1  0  0  0
 13 14  1  0  0  0
 14 15  1  0  0  0
 15 16  2  0  0  0
 16 17  1  0  0  0
 17 18  1  0  0  0
 18 24  1  0  0  0
 20 25  1  0  0  0
 21 26  1  0  0  0
M  END
> <minimizedAffinity>
-9.56088

$$$$
2IWX_M1S_A_1215


 26 27  0  0  0  0  0  0  0  0999 V2000
   61.1836   75.4900   -6.8082 C   0  0  0  0  0  0  0  0  0  0  0  0
   61.2610   75.3448   -5.3166 C   0  0  0  0  0  0  0  0  0  0  0  0
   61.4994   74.0654   -4.7843 C   0  0  0  0  0  0  0  0  0  0  0  0
   61.5471   73.8410   -3.4153 C   0  0  0  0  0  0  0  0  0  0  0  0
   61.3368   74.9423   -2.5815 C   0  0  0  0  0  0  0  0  0  0  0  0
   61.1158   76.1763   -3.1275 C   0  0  0  0  0  0  0  0  0  0  0  0
   61.0567   76.4428   -4.4861 C   0  0  0  0  0  0  0  0  0  0  0  0
   60.8056   77.8700   -4.9927 C   0  0  0  0  0  0  0  0  0  0  0  0
   59.3684   78.2170   -5.2496 C   0  0  0  0  0  0  0  0  0  0  0  0
   58.2374   77.4286   -4.6527 C   0  0  0  0  0  0  0  0  0  0  0  0
   56.8854   78.0176   -5.0723 C   0  0  0  0  0  0  0  0  0  0  0  0
   55.7260   77.1554   -4.5989 C   0  0  0  0  0  0  0  0  0  0  0  0
   55.7420   75.7550   -5.2103 C   0  0  0  0  0  0  0  0  0  0  0  0
   55.5162   75.8147   -6.7201 C   0  0  0  0  0  0  0  0  0  0  0  0
   56.7677   75.3740   -7.4463 C   0  0  0  0  0  0  0  0  0  0  0  0
   57.3915   76.2097   -8.2733 C   0  0  0  0  0  0  0  0  0  0  0  0
   58.6338   75.7702   -9.0141 C   0  0  0  0  0  0  0  0  0  0  0  0
   59.9107   76.5071   -8.6231 C   0  0  0  0  0  0  0  0  0  0  0  0
   61.8755   74.9038   -7.6124 O   0  0  0  0  0  0  0  0  0  0  0  0
   61.7318   72.9920   -5.6264 O   0  0  0  0  0  0  0  0  0  0  0  0
   61.3238   74.7757   -1.2186 O   0  0  0  0  0  0  0  0  0  0  0  0
   60.9445   77.5304   -2.0002 Cl  0  0  0  0  0  0  0  0  0  0  0  0
   59.1779   79.2204   -5.9417 O   0  0  0  0  0  0  0  0  0  0  0  0
   60.1166   76.3278   -7.1969 O   0  0  0  0  0  0  0  0  0  0  0  0
   61.7066   73.1114   -6.5555 H   0  0  0  0  0  0  0  0  0  0  0  0
   61.4757   73.9283   -0.8487 H   0  0  0  0  0  0  0  0  0  0  0  0
  1  2  1  0  0  0
  1 19  2  0  0  0
  1 24  1  0  0  0
  2  3  2  0  0  0
  2  7  1  0  0  0
  3  4  1  0  0  0
  3 20  1  0  0  0
  4  5  2  0  0  0
  5  6  1  0  0  0
  5 21  1  0  0  0
  6  7  2  0  0  0
  6 22  1  0  0  0
  7  8  1  0  0  0
  8  9  1  0  0  0
  9 10  1  0  0  0
  9 23  2  0  0  0
 10 11  1  0  0  0
 11 12  1  0  0  0
 12 13  1  0  0  0
 13 14  1  0  0  0
 14 15  1  0  0  0
 15 16  2  0  0  0
 16 17  1  0  0  0
 17 18  1  0  0  0
 18 24  1  0  0  0
 20 25  1  0  0  0
 21 26  1  0  0  0
M  END
> <minimizedAffinity>
-7.38984

$$$$
2IWX_M1S_A_1215


 26 27  0  0  0  0  0  0  0  0999 V2000
   61.1903   77.5169   -1.6977 C   0  0  0  0  0  0  0  0  0  0  0  0
   61.9957   78.1214   -2.8104 C   0  0  0  0  0  0  0  0  0  0  0  0
   62.2989   79.4927   -2.7431 C   0  0  0  0  0  0  0  0  0  0  0  0
   63.0059   80.1349   -3.7502 C   0  0  0  0  0  0  0  0  0  0  0  0
   63.3980   79.3616   -4.8460 C   0  0  0  0  0  0  0  0  0  0  0  0
   63.0966   78.0283   -4.8801 C   0  0  0  0  0  0  0  0  0  0  0  0
   62.3906   77.3500   -3.8994 C   0  0  0  0  0  0  0  0  0  0  0  0
   62.1094   75.8471   -4.0365 C   0  0  0  0  0  0  0  0  0  0  0  0
   60.8025   75.4945   -4.6844 C   0  0  0  0  0  0  0  0  0  0  0  0
   60.0393   76.4753   -5.5285 C   0  0  0  0  0  0  0  0  0  0  0  0
   58.7544   75.8386   -6.0711 C   0  0  0  0  0  0  0  0  0  0  0  0
   57.8942   76.8516   -6.8098 C   0  0  0  0  0  0  0  0  0  0  0  0
   57.4102   77.9863   -5.9079 C   0  0  0  0  0  0  0  0  0  0  0  0
   56.4580   77.4631   -4.8338 C   0  0  0  0  0  0  0  0  0  0  0  0
   57.0942   77.6023   -3.4687 C   0  0  0  0  0  0  0  0  0  0  0  0
   57.3155   76.5244   -2.7199 C   0  0  0  0  0  0  0  0  0  0  0  0
   57.9366   76.6582   -1.3482 C   0  0  0  0  0  0  0  0  0  0  0  0
   59.3197   76.0316   -1.2043 C   0  0  0  0  0  0  0  0  0  0  0  0
   61.2915   77.7919   -0.5215 O   0  0  0  0  0  0  0  0  0  0  0  0
   61.9250   80.2361   -1.6371 O   0  0  0  0  0  0  0  0  0  0  0  0
   64.0582   79.9495   -5.8968 O   0  0  0  0  0  0  0  0  0  0  0  0
   63.7048   77.1063   -6.2634 Cl  0  0  0  0  0  0  0  0  0  0  0  0
   60.4221   74.3327   -4.5189 O   0  0  0  0  0  0  0  0  0  0  0  0
   60.1966   76.6427   -2.1873 O   0  0  0  0  0  0  0  0  0  0  0  0
   61.4468   79.8312   -0.9404 H   0  0  0  0  0  0  0  0  0  0  0  0
   64.2627   80.8635   -5.8692 H   0  0  0  0  0  0  0  0  0  0  0  0
  1  2  1  0  0  0
  1 19  2  0  0  0
  1 24  1  0  0  0
  2  3  2  0  0  0
  2  7  1  0  0  0
  3  4  1  0  0  0
  3 20  1  0  0  0
  4  5  2  0  0  0
  5  6  1  0  0  0
  5 21  1  0  0  0
  6  7  2  0  0  0
  6 22  1  0  0  0
  7  8  1  0  0  0
  8  9  1  0  0  0
  9 10  1  0  0  0
  9 23  2  0  0  0
 10 11  1  0  0  0
 11 12  1  0  0  0
 12 13  1  0  0  0
 13 14  1  0  0  0
 14 15  1  0  0  0
 15 16  2  0  0  0
 16 17  1  0  0  0
 17 18  1  0  0  0
 18 24  1  0  0  0
 20 25  1  0  0  0
 21 26  1  0  0  0
M  END
> <minimizedAffinity>
-7.35576

$$$$
2IWX_M1S_A_1215


 26 27  0  0  0  0  0  0  0  0999 V2000
   55.5460   76.8398   -5.8566 C   0  0  0  0  0  0  0  0  0  0  0  0
   56.3387   76.0266   -6.8376 C   0  0  0  0  0  0  0  0  0  0  0  0
   55.8693   74.7439   -7.1711 C   0  0  0  0  0  0  0  0  0  0  0  0
   56.5646   73.9147   -8.0405 C   0  0  0  0  0  0  0  0  0  0  0  0
   57.7629   74.4045   -8.5664 C   0  0  0  0  0  0  0  0  0  0  0  0
   58.1903   75.6594   -8.2309 C   0  0  0  0  0  0  0  0  0  0  0  0
   57.5296   76.5165   -7.3654 C   0  0  0  0  0  0  0  0  0  0  0  0
   58.0976   77.9096   -7.0598 C   0  0  0  0  0  0  0  0  0  0  0  0
   58.9864   77.9905   -5.8534 C   0  0  0  0  0  0  0  0  0  0  0  0
   59.6349   76.7741   -5.2561 C   0  0  0  0  0  0  0  0  0  0  0  0
   60.4956   77.1576   -4.0466 C   0  0  0  0  0  0  0  0  0  0  0  0
   61.0482   75.9306   -3.3388 C   0  0  0  0  0  0  0  0  0  0  0  0
   59.9514   75.0360   -2.7625 C   0  0  0  0  0  0  0  0  0  0  0  0
   59.1938   75.7506   -1.6448 C   0  0  0  0  0  0  0  0  0  0  0  0
   57.7677   76.0134   -2.0748 C   0  0  0  0  0  0  0  0  0  0  0  0
   57.3092   77.2608   -2.1474 C   0  0  0  0  0  0  0  0  0  0  0  0
   55.8802   77.5294   -2.5614 C   0  0  0  0  0  0  0  0  0  0  0  0
   55.7223   78.2672   -3.8869 C   0  0  0  0  0  0  0  0  0  0  0  0
   54.3365   76.8855   -5.7904 O   0  0  0  0  0  0  0  0  0  0  0  0
   54.6668   74.2868   -6.6608 O   0  0  0  0  0  0  0  0  0  0  0  0
   58.5206   73.6132   -9.3941 O   0  0  0  0  0  0  0  0  0  0  0  0
   59.6733   76.2334   -9.0085 Cl  0  0  0  0  0  0  0  0  0  0  0  0
   59.1884   79.1261   -5.4155 O   0  0  0  0  0  0  0  0  0  0  0  0
   56.3798   77.4861   -4.9195 O   0  0  0  0  0  0  0  0  0  0  0  0
   54.1739   74.8232   -6.0715 H   0  0  0  0  0  0  0  0  0  0  0  0
   58.2240   72.7539   -9.6214 H   0  0  0  0  0  0  0  0  0  0  0  0
  1  2  1  0  0  0
  1 19  2  0  0  0
  1 24  1  0  0  0
  2  3  2  0  0  0
  2  7  1  0  0  0
  3  4  1  0  0  0
  3 20  1  0  0  0
  4  5  2  0  0  0
  5  6  1  0  0  0
  5 21  1  0  0  0
  6  7  2  0  0  0
  6 22  1  0  0  0
  7  8  1  0  0  0
  8  9  1  0  0  0
  9 10  1  0  0  0
  9 23  2  0  0  0
 10 11  1  0  0  0
 11 12  1  0  0  0
 12 13  1  0  0  0
 13 14  1  0  0  0
 14 15  1  0  0  0
 15 16  2  0  0  0
 16 17  1  0  0  0
 17 18  1  0  0  0
 18 24  1  0  0  0
 20 25  1  0  0  0
 21 26  1  0  0  0
M  END
> <minimizedAffinity>
-7.35348

$$$$
2IWX_M1S_A_1215


 26 27  0  0  0  0  0  0  0  0999 V2000
   60.2829   76.9340   -3.3258 C   0  0  0  0  0  0  0  0  0  0  0  0
   60.3959   77.4376   -4.7349 C   0  0  0  0  0  0  0  0  0  0  0  0
   60.9623   78.7074   -4.9441 C   0  0  0  0  0  0  0  0  0  0  0  0
   61.0673   79.2606   -6.2128 C   0  0  0  0  0  0  0  0  0  0  0  0
   60.5750   78.5048   -7.2800 C   0  0  0  0  0  0  0  0  0  0  0  0
   60.0373   77.2693   -7.0474 C   0  0  0  0  0  0  0  0  0  0  0  0
   59.9101   76.6827   -5.7984 C   0  0  0  0  0  0  0  0  0  0  0  0
   59.2926   75.2850   -5.6504 C   0  0  0  0  0  0  0  0  0  0  0  0
   57.8147   75.2598   -5.3912 C   0  0  0  0  0  0  0  0  0  0  0  0
   56.9309   76.4367   -5.6925 C   0  0  0  0  0  0  0  0  0  0  0  0
   55.4715   76.1221   -5.3428 C   0  0  0  0  0  0  0  0  0  0  0  0
   54.5795   77.3427   -5.5042 C   0  0  0  0  0  0  0  0  0  0  0  0
   54.9631   78.4842   -4.5634 C   0  0  0  0  0  0  0  0  0  0  0  0
   54.7295   78.0932   -3.1052 C   0  0  0  0  0  0  0  0  0  0  0  0
   56.0527   77.9972   -2.3789 C   0  0  0  0  0  0  0  0  0  0  0  0
   56.4348   76.8451   -1.8328 C   0  0  0  0  0  0  0  0  0  0  0  0
   57.7490   76.7464   -1.0920 C   0  0  0  0  0  0  0  0  0  0  0  0
   58.7872   75.8375   -1.7418 C   0  0  0  0  0  0  0  0  0  0  0  0
   61.1045   77.0953   -2.4494 O   0  0  0  0  0  0  0  0  0  0  0  0
   61.4685   79.4294   -3.8774 O   0  0  0  0  0  0  0  0  0  0  0  0
   60.6063   79.0179   -8.5533 O   0  0  0  0  0  0  0  0  0  0  0  0
   59.5161   76.3446   -8.4641 Cl  0  0  0  0  0  0  0  0  0  0  0  0
   57.3671   74.1934   -4.9618 O   0  0  0  0  0  0  0  0  0  0  0  0
   59.0332   76.3233   -3.0879 O   0  0  0  0  0  0  0  0  0  0  0  0
   61.4128   79.0829   -3.0086 H   0  0  0  0  0  0  0  0  0  0  0  0
   60.9757   79.8650   -8.7081 H   0  0  0  0  0  0  0  0  0  0  0  0
  1  2  1  0  0  0
  1 19  2  0  0  0
  1 24  1  0  0  0
  2  3  2  0  0  0
  2  7  1  0  0  0
  3  4  1  0  0  0
  3 20  1  0  0  0
  4  5  2  0  0  0
  5  6  1  0  0  0
  5 21  1  0  0  0
  6  7  2  0  0  0
  6 22  1  0  0  0
  7  8  1  0  0  0
  8  9  1  0  0  0
  9 10  1  0  0  0
  9 23  2  0  0  0
 10 11  1  0  0  0
 11 12  1  0  0  0
 12 13  1  0  0  0
 13 14  1  0  0  0
 14 15  1  0  0  0
 15 16  2  0  0  0
 16 17  1  0  0  0
 17 18  1  0  0  0
 18 24  1  0  0  0
 20 25  1  0  0  0
 21 26  1  0  0  0
M  END
> <minimizedAffinity>
-7.27404

$$$$
2IWX_M1S_A_1215


 26 27  0  0  0  0  0  0  0  0999 V2000
   58.7610   77.1412   -2.5892 C   0  0  0  0  0  0  0  0  0  0  0  0
   58.0540   76.9080   -3.8922 C   0  0  0  0  0  0  0  0  0  0  0  0
   56.9231   76.0725   -3.8952 C   0  0  0  0  0  0  0  0  0  0  0  0
   56.2367   75.7763   -5.0647 C   0  0  0  0  0  0  0  0  0  0  0  0
   56.7238   76.3365   -6.2485 C   0  0  0  0  0  0  0  0  0  0  0  0
   57.8206   77.1524   -6.2139 C   0  0  0  0  0  0  0  0  0  0  0  0
   58.5361   77.4702   -5.0705 C   0  0  0  0  0  0  0  0  0  0  0  0
   59.7541   78.4017   -5.1442 C   0  0  0  0  0  0  0  0  0  0  0  0
   61.0773   77.7163   -5.3213 C   0  0  0  0  0  0  0  0  0  0  0  0
   61.1850   76.3075   -5.8316 C   0  0  0  0  0  0  0  0  0  0  0  0
   62.6532   75.8755   -5.9246 C   0  0  0  0  0  0  0  0  0  0  0  0
   62.7842   74.4085   -6.3022 C   0  0  0  0  0  0  0  0  0  0  0  0
   62.1730   73.4726   -5.2602 C   0  0  0  0  0  0  0  0  0  0  0  0
   62.9413   73.5456   -3.9418 C   0  0  0  0  0  0  0  0  0  0  0  0
   62.0671   74.1558   -2.8688 C   0  0  0  0  0  0  0  0  0  0  0  0
   62.4346   75.2849   -2.2675 C   0  0  0  0  0  0  0  0  0  0  0  0
   61.5732   75.8916   -1.1834 C   0  0  0  0  0  0  0  0  0  0  0  0
   60.9566   77.2424   -1.5320 C   0  0  0  0  0  0  0  0  0  0  0  0
   58.2270   77.2774   -1.5096 O   0  0  0  0  0  0  0  0  0  0  0  0
   56.4402   75.5485   -2.7087 O   0  0  0  0  0  0  0  0  0  0  0  0
   56.1171   76.0423   -7.4446 O   0  0  0  0  0  0  0  0  0  0  0  0
   58.3187   77.8877   -7.7452 Cl  0  0  0  0  0  0  0  0  0  0  0  0
   62.0709   78.4023   -5.0677 O   0  0  0  0  0  0  0  0  0  0  0  0
   60.1630   77.0789   -2.7370 O   0  0  0  0  0  0  0  0  0  0  0  0
   56.8813   75.7303   -1.9023 H   0  0  0  0  0  0  0  0  0  0  0  0
   55.3657   75.4828   -7.4637 H   0  0  0  0  0  0  0  0  0  0  0  0
  1  2  1  0  0  0
  1 19  2  0  0  0
  1 24  1  0  0  0
  2  3  2  0  0  0
  2  7  1  0  0  0
  3  4  1  0  0  0
  3 20  1  0  0  0
  4  5  2  0  0  0
  5  6  1  0  0  0
  5 21  1  0  0  0
  6  7  2  0  0  0
  6 22  1  0  0  0
  7  8  1  0  0  0
  8  9  1  0  0  0
  9 10  1  0  0  0
  9 23  2  0  0  0
 10 11  1  0  0  0
 11 12  1  0  0  0
 12 13  1  0  0  0
 13 14  1  0  0  0
 14 15  1  0  0  0
 15 16  2  0  0  0
 16 17  1  0  0  0
 17 18  1  0  0  0
 18 24  1  0  0  0
 20 25  1  0  0  0
 21 26  1  0  0  0
M  END
> <minimizedAffinity>
-7.14333

$$$$
2IWX_M1S_A_1215


 26 27  0  0  0  0  0  0  0  0999 V2000
   56.2890   75.8653   -7.0978 C   0  0  0  0  0  0  0  0  0  0  0  0
   57.4987   75.3034   -7.7854 C   0  0  0  0  0  0  0  0  0  0  0  0
   57.4883   73.9440   -8.1445 C   0  0  0  0  0  0  0  0  0  0  0  0
   58.5821   73.3395   -8.7486 C   0  0  0  0  0  0  0  0  0  0  0  0
   59.7054   74.1383   -8.9777 C   0  0  0  0  0  0  0  0  0  0  0  0
   59.6837   75.4595   -8.6257 C   0  0  0  0  0  0  0  0  0  0  0  0
   58.6157   76.1003   -8.0182 C   0  0  0  0  0  0  0  0  0  0  0  0
   58.6962   77.5928   -7.6678 C   0  0  0  0  0  0  0  0  0  0  0  0
   59.1778   77.9018   -6.2805 C   0  0  0  0  0  0  0  0  0  0  0  0
   59.9389   76.9013   -5.4579 C   0  0  0  0  0  0  0  0  0  0  0  0
   60.3145   77.4940   -4.0947 C   0  0  0  0  0  0  0  0  0  0  0  0
   60.9598   76.4566   -3.1897 C   0  0  0  0  0  0  0  0  0  0  0  0
   60.0233   75.2952   -2.8593 C   0  0  0  0  0  0  0  0  0  0  0  0
   58.8355   75.7706   -2.0245 C   0  0  0  0  0  0  0  0  0  0  0  0
   57.5585   75.6419   -2.8247 C   0  0  0  0  0  0  0  0  0  0  0  0
   56.8258   76.7198   -3.0946 C   0  0  0  0  0  0  0  0  0  0  0  0
   55.5403   76.5958   -3.8804 C   0  0  0  0  0  0  0  0  0  0  0  0
   55.5537   77.2731   -5.2469 C   0  0  0  0  0  0  0  0  0  0  0  0
   55.1375   75.5825   -7.3496 O   0  0  0  0  0  0  0  0  0  0  0  0
   56.3566   73.1757   -7.9336 O   0  0  0  0  0  0  0  0  0  0  0  0
   60.8361   73.5868   -9.5280 O   0  0  0  0  0  0  0  0  0  0  0  0
   61.1161   76.4181   -9.0293 Cl  0  0  0  0  0  0  0  0  0  0  0  0
   58.9510   79.0466   -5.8803 O   0  0  0  0  0  0  0  0  0  0  0  0
   56.6433   76.7060   -6.0212 O   0  0  0  0  0  0  0  0  0  0  0  0
   55.6018   73.5549   -7.5280 H   0  0  0  0  0  0  0  0  0  0  0  0
   60.8466   72.6811   -9.7677 H   0  0  0  0  0  0  0  0  0  0  0  0
  1  2  1  0  0  0
  1 19  2  0  0  0
  1 24  1  0  0  0
  2  3  2  0  0  0
  2  7  1  0  0  0
  3  4  1  0  0  0
  3 20  1  0  0  0
  4  5  2  0  0  0
  5  6  1  0  0  0
  5 21  1  0  0  0
  6  7  2  0  0  0
  6 22  1  0  0  0
  7  8  1  0  0  0
  8  9  1  0  0  0
  9 10  1  0  0  0
  9 23  2  0  0  0
 10 11  1  0  0  0
 11 12  1  0  0  0
 12 13  1  0  0  0
 13 14  1  0  0  0
 14 15  1  0  0  0
 15 16  2  0  0  0
 16 17  1  0  0  0
 17 18  1  0  0  0
 18 24  1  0  0  0
 20 25  1  0  0  0
 21 26  1  0  0  0
M  END
> <minimizedAffinity>
-7.03906

$$$$
2IWX_M1S_A_1215


 26 27  0  0  0  0  0  0  0  0999 V2000
   57.3305   77.2632   -3.9203 C   0  0  0  0  0  0  0  0  0  0  0  0
   57.4017   77.0832   -5.4084 C   0  0  0  0  0  0  0  0  0  0  0  0
   56.5103   76.1790   -6.0125 C   0  0  0  0  0  0  0  0  0  0  0  0
   56.5379   75.9276   -7.3773 C   0  0  0  0  0  0  0  0  0  0  0  0
   57.5001   76.6053   -8.1306 C   0  0  0  0  0  0  0  0  0  0  0  0
   58.3481   77.4854   -7.5172 C   0  0  0  0  0  0  0  0  0  0  0  0
   58.3567   77.7621   -6.1594 C   0  0  0  0  0  0  0  0  0  0  0  0
   59.3524   78.7732   -5.5739 C   0  0  0  0  0  0  0  0  0  0  0  0
   60.6421   78.1899   -5.0755 C   0  0  0  0  0  0  0  0  0  0  0  0
   61.1237   76.8332   -5.5048 C   0  0  0  0  0  0  0  0  0  0  0  0
   62.4718   76.5051   -4.8522 C   0  0  0  0  0  0  0  0  0  0  0  0
   62.9119   75.0821   -5.1573 C   0  0  0  0  0  0  0  0  0  0  0  0
   61.9498   74.0332   -4.6011 C   0  0  0  0  0  0  0  0  0  0  0  0
   61.9384   74.0566   -3.0736 C   0  0  0  0  0  0  0  0  0  0  0  0
   60.5900   74.5268   -2.5753 C   0  0  0  0  0  0  0  0  0  0  0  0
   60.4969   75.6291   -1.8351 C   0  0  0  0  0  0  0  0  0  0  0  0
   59.1541   76.0959   -1.3207 C   0  0  0  0  0  0  0  0  0  0  0  0
   58.6737   77.4263   -1.8911 C   0  0  0  0  0  0  0  0  0  0  0  0
   56.3152   77.2833   -3.2584 O   0  0  0  0  0  0  0  0  0  0  0  0
   55.5470   75.5374   -5.2538 O   0  0  0  0  0  0  0  0  0  0  0  0
   57.6093   76.3630   -9.4778 O   0  0  0  0  0  0  0  0  0  0  0  0
   59.4784   78.3641   -8.5583 Cl  0  0  0  0  0  0  0  0  0  0  0  0
   61.3033   78.9176   -4.3303 O   0  0  0  0  0  0  0  0  0  0  0  0
   58.6147   77.3028   -3.3368 O   0  0  0  0  0  0  0  0  0  0  0  0
   55.5025   75.6863   -4.3297 H   0  0  0  0  0  0  0  0  0  0  0  0
   57.0261   75.7592   -9.8940 H   0  0  0  0  0  0  0  0  0  0  0  0
  1  2  1  0  0  0
  1 19  2  0  0  0
  1 24  1  0  0  0
  2  3  2  0  0  0
  2  7  1  0  0  0
  3  4  1  0  0  0
  3 20  1  0  0  0
  4  5  2  0  0  0
  5  6  1  0  0  0
  5 21  1  0  0  0
  6  7  2  0  0  0
  6 22  1  0  0  0
  7  8  1  0  0  0
  8  9  1  0  0  0
  9 10  1  0  0  0
  9 23  2  0  0  0
 10 11  1  0  0  0
 11 12  1  0  0  0
 12 13  1  0  0  0
 13 14  1  0  0  0
 14 15  1  0  0  0
 15 16  2  0  0  0
 16 17  1  0  0  0
 17 18  1  0  0  0
 18 24  1  0  0  0
 20 25  1  0  0  0
 21 26  1  0  0  0
M  END
> <minimizedAffinity>
-6.93626

$$$$
2IWX_M1S_A_1215


 26 27  0  0  0  0  0  0  0  0999 V2000
   59.0768   74.9761   -3.4318 C   0  0  0  0  0  0  0  0  0  0  0  0
   60.2165   75.1156   -2.4656 C   0  0  0  0  0  0  0  0  0  0  0  0
   59.9808   75.7828   -1.2505 C   0  0  0  0  0  0  0  0  0  0  0  0
   60.9912   75.9867   -0.3210 C   0  0  0  0  0  0  0  0  0  0  0  0
   62.2630   75.5088   -0.6474 C   0  0  0  0  0  0  0  0  0  0  0  0
   62.4608   74.8561   -1.8326 C   0  0  0  0  0  0  0  0  0  0  0  0
   61.4821   74.6351   -2.7885 C   0  0  0  0  0  0  0  0  0  0  0  0
   61.8126   73.8856   -4.0869 C   0  0  0  0  0  0  0  0  0  0  0  0
   62.2106   74.7523   -5.2454 C   0  0  0  0  0  0  0  0  0  0  0  0
   62.6850   76.1656   -5.0596 C   0  0  0  0  0  0  0  0  0  0  0  0
   63.0359   76.8015   -6.4100 C   0  0  0  0  0  0  0  0  0  0  0  0
   63.3823   78.2747   -6.2640 C   0  0  0  0  0  0  0  0  0  0  0  0
   62.2142   79.1079   -5.7383 C   0  0  0  0  0  0  0  0  0  0  0  0
   61.0653   79.1355   -6.7450 C   0  0  0  0  0  0  0  0  0  0  0  0
   59.8690   78.4008   -6.1823 C   0  0  0  0  0  0  0  0  0  0  0  0
   59.3847   77.3310   -6.8088 C   0  0  0  0  0  0  0  0  0  0  0  0
   58.1796   76.6015   -6.2600 C   0  0  0  0  0  0  0  0  0  0  0  0
   58.4517   75.1794   -5.7805 C   0  0  0  0  0  0  0  0  0  0  0  0
   57.9217   74.7586   -3.1357 O   0  0  0  0  0  0  0  0  0  0  0  0
   58.7083   76.2254   -0.9336 O   0  0  0  0  0  0  0  0  0  0  0  0
   63.3145   75.7222    0.2095 O   0  0  0  0  0  0  0  0  0  0  0  0
   64.0816   74.2087   -2.1281 Cl  0  0  0  0  0  0  0  0  0  0  0  0
   62.1698   74.2121   -6.3539 O   0  0  0  0  0  0  0  0  0  0  0  0
   59.4814   75.2370   -4.7582 O   0  0  0  0  0  0  0  0  0  0  0  0
   58.0049   76.1024   -1.5402 H   0  0  0  0  0  0  0  0  0  0  0  0
   63.1745   76.1699    1.0206 H   0  0  0  0  0  0  0  0  0  0  0  0
  1  2  1  0  0  0
  1 19  2  0  0  0
  1 24  1  0  0  0
  2  3  2  0  0  0
  2  7  1  0  0  0
  3  4  1  0  0  0
  3 20  1  0  0  0
  4  5  2  0  0  0
  5  6  1  0  0  0
  5 21  1  0  0  0
  6  7  2  0  0  0
  6 22  1  0  0  0
  7  8  1  0  0  0
  8  9  1  0  0  0
  9 10  1  0  0  0
  9 23  2  0  0  0
 10 11  1  0  0  0
 11 12  1  0  0  0
 12 13  1  0  0  0
 13 14  1  0  0  0
 14 15  1  0  0  0
 15 16  2  0  0  0
 16 17  1  0  0  0
 17 18  1  0  0  0
 18 24  1  0  0  0
 20 25  1  0  0  0
 21 26  1  0  0  0
M  END
> <minimizedAffinity>
-6.89292

$$$$
2IWX_M1S_A_1215


 26 27  0  0  0  0  0  0  0  0999 V2000
   60.2174   77.2116   -4.2184 C   0  0  0  0  0  0  0  0  0  0  0  0
   58.7805   77.0859   -3.8043 C   0  0  0  0  0  0  0  0  0  0  0  0
   58.4802   76.3084   -2.6719 C   0  0  0  0  0  0  0  0  0  0  0  0
   57.1736   76.1114   -2.2466 C   0  0  0  0  0  0  0  0  0  0  0  0
   56.1612   76.7117   -2.9996 C   0  0  0  0  0  0  0  0  0  0  0  0
   56.4837   77.4695   -4.0912 C   0  0  0  0  0  0  0  0  0  0  0  0
   57.7724   77.6880   -4.5514 C   0  0  0  0  0  0  0  0  0  0  0  0
   58.0230   78.5613   -5.7888 C   0  0  0  0  0  0  0  0  0  0  0  0
   58.0909   77.8226   -7.0934 C   0  0  0  0  0  0  0  0  0  0  0  0
   57.5257   76.4406   -7.2589 C   0  0  0  0  0  0  0  0  0  0  0  0
   57.7232   75.9428   -8.6956 C   0  0  0  0  0  0  0  0  0  0  0  0
   57.2886   74.4943   -8.8529 C   0  0  0  0  0  0  0  0  0  0  0  0
   58.1119   73.5333   -7.9962 C   0  0  0  0  0  0  0  0  0  0  0  0
   59.5667   73.4955   -8.4610 C   0  0  0  0  0  0  0  0  0  0  0  0
   60.4635   74.0876   -7.3966 C   0  0  0  0  0  0  0  0  0  0  0  0
   61.2015   75.1623   -7.6646 C   0  0  0  0  0  0  0  0  0  0  0  0
   62.1117   75.7496   -6.6101 C   0  0  0  0  0  0  0  0  0  0  0  0
   61.7266   77.1462   -6.1332 C   0  0  0  0  0  0  0  0  0  0  0  0
   61.1632   77.3140   -3.4673 O   0  0  0  0  0  0  0  0  0  0  0  0
   59.4984   75.7439   -1.9237 O   0  0  0  0  0  0  0  0  0  0  0  0
   54.8460   76.5142   -2.6578 O   0  0  0  0  0  0  0  0  0  0  0  0
   55.1464   78.2630   -4.9369 Cl  0  0  0  0  0  0  0  0  0  0  0  0
   58.5962   78.4439   -8.0319 O   0  0  0  0  0  0  0  0  0  0  0  0
   60.3711   77.0888   -5.6158 O   0  0  0  0  0  0  0  0  0  0  0  0
   60.3909   75.8589   -2.1848 H   0  0  0  0  0  0  0  0  0  0  0  0
   54.6296   75.9942   -1.9090 H   0  0  0  0  0  0  0  0  0  0  0  0
  1  2  1  0  0  0
  1 19  2  0  0  0
  1 24  1  0  0  0
  2  3  2  0  0  0
  2  7  1  0  0  0
  3  4  1  0  0  0
  3 20  1  0  0  0
  4  5  2  0  0  0
  5  6  1  0  0  0
  5 21  1  0  0  0
  6  7  2  0  0  0
  6 22  1  0  0  0
  7  8  1  0  0  0
  8  9  1  0  0  0
  9 10  1  0  0  0
  9 23  2  0  0  0
 10 11  1  0  0  0
 11 12  1  0  0  0
 12 13  1  0  0  0
 13 14  1  0  0  0
 14 15  1  0  0  0
 15 16  2  0  0  0
 16 17  1  0  0  0
 17 18  1  0  0  0
 18 24  1  0  0  0
 20 25  1  0  0  0
 21 26  1  0  0  0
M  END
> <minimizedAffinity>
-6.75703

$$$$
