3Q2J_CKI_A_300


 21 22  0  0  0  0  0  0  0  0999 V2000
   29.2192   10.5200   69.9502 C   0  0  0  0  0  0  0  0  0  0  0  0
   28.8448   11.1899   71.0646 N   0  0  0  0  0  0  0  0  0  0  0  0
   27.6186   10.9690   71.6276 C   0  0  0  0  0  0  0  0  0  0  0  0
   26.7427   10.0542   71.0758 C   0  0  0  0  0  0  0  0  0  0  0  0
   26.2350    8.2945   69.2535 C   0  0  0  0  0  0  0  0  0  0  0  0
   24.7167    7.9350   69.8471 Cl  0  0  0  0  0  0  0  0  0  0  0  0
   26.6575    7.5952   68.0851 C   0  0  0  0  0  0  0  0  0  0  0  0
   27.8943    7.8554   67.5426 C   0  0  0  0  0  0  0  0  0  0  0  0
   28.7680    8.8237   68.1510 C   0  0  0  0  0  0  0  0  0  0  0  0
   28.3535    9.5504   69.3438 C   0  0  0  0  0  0  0  0  0  0  0  0
   27.1111    9.2994   69.8844 C   0  0  0  0  0  0  0  0  0  0  0  0
   30.3220    9.0767   67.3774 S   0  0  0  0  0  0  0  0  0  0  0  0
   31.4164    8.5968   68.2513 O   0  0  0  0  0  0  0  0  0  0  0  0
   30.5150   10.5635   67.1254 O   0  0  0  0  0  0  0  0  0  0  0  0
   30.3195    8.2850   65.9399 N   0  0  0  0  0  0  0  0  0  0  0  0
   30.5476    8.9442   65.1957 H   0  0  0  0  0  0  0  0  0  0  0  0
   31.3104    7.1915   65.9364 C   0  0  0  0  0  0  0  0  0  0  0  0
   30.8780    5.8059   66.4515 C   0  0  0  0  0  0  0  0  0  0  0  0
   31.0347    5.4933   67.8787 N   0  0  0  0  0  0  0  0  0  0  0  0
   32.0264    5.4794   68.1168 H   0  0  0  0  0  0  0  0  0  0  0  0
   30.6254    4.5796   68.0735 H   0  0  0  0  0  0  0  0  0  0  0  0
  1  2  2  0  0  0
  1 10  1  0  0  0
  2  3  1  0  0  0
  3  4  2  0  0  0
  4 11  1  0  0  0
  5  6  1  0  0  0
  5  7  2  0  0  0
  5 11  1  0  0  0
  7  8  1  0  0  0
  8  9  2  0  0  0
  9 10  1  0  0  0
  9 12  1  0  0  0
 10 11  2  0  0  0
 12 13  2  0  0  0
 12 14  2  0  0  0
 12 15  1  0  0  0
 15 17  1  0  0  0
 17 18  1  0  0  0
 18 19  1  0  0  0
 15 16  1  0  0  0
 19 20  1  0  0  0
 19 21  1  0  0  0
M  END
> <minimizedAffinity>
-7.57037

$$$$
3Q2J_CKI_A_300


 21 22  0  0  0  0  0  0  0  0999 V2000
   29.0718    8.4519   66.8208 C   0  0  0  0  0  0  0  0  0  0  0  0
   28.1790    7.4967   66.4726 N   0  0  0  0  0  0  0  0  0  0  0  0
   27.1335    7.1901   67.2987 C   0  0  0  0  0  0  0  0  0  0  0  0
   26.9640    7.8532   68.4987 C   0  0  0  0  0  0  0  0  0  0  0  0
   27.7627    9.6611   70.1627 C   0  0  0  0  0  0  0  0  0  0  0  0
   26.5296    9.3808   71.2526 Cl  0  0  0  0  0  0  0  0  0  0  0  0
   28.7118   10.6696   70.5016 C   0  0  0  0  0  0  0  0  0  0  0  0
   29.7565   10.9393   69.6486 C   0  0  0  0  0  0  0  0  0  0  0  0
   29.8937   10.2153   68.4125 C   0  0  0  0  0  0  0  0  0  0  0  0
   28.9356    9.1794   68.0495 C   0  0  0  0  0  0  0  0  0  0  0  0
   27.8933    8.8996   68.9063 C   0  0  0  0  0  0  0  0  0  0  0  0
   31.2616   10.6401   67.3997 S   0  0  0  0  0  0  0  0  0  0  0  0
   30.8849   10.5702   65.9698 O   0  0  0  0  0  0  0  0  0  0  0  0
   32.3928    9.6569   67.6551 O   0  0  0  0  0  0  0  0  0  0  0  0
   31.7599   12.1491   67.8094 N   0  0  0  0  0  0  0  0  0  0  0  0
   31.9094   12.1888   68.8176 H   0  0  0  0  0  0  0  0  0  0  0  0
   33.0184   12.4958   67.1211 C   0  0  0  0  0  0  0  0  0  0  0  0
   32.9459   13.3559   65.8454 C   0  0  0  0  0  0  0  0  0  0  0  0
   31.6474   13.5459   65.1846 N   0  0  0  0  0  0  0  0  0  0  0  0
   31.3147   12.6512   64.8250 H   0  0  0  0  0  0  0  0  0  0  0  0
   31.7518   14.2048   64.4129 H   0  0  0  0  0  0  0  0  0  0  0  0
  1  2  2  0  0  0
  1 10  1  0  0  0
  2  3  1  0  0  0
  3  4  2  0  0  0
  4 11  1  0  0  0
  5  6  1  0  0  0
  5  7  2  0  0  0
  5 11  1  0  0  0
  7  8  1  0  0  0
  8  9  2  0  0  0
  9 10  1  0  0  0
  9 12  1  0  0  0
 10 11  2  0  0  0
 12 13  2  0  0  0
 12 14  2  0  0  0
 12 15  1  0  0  0
 15 17  1  0  0  0
 17 18  1  0  0  0
 18 19  1  0  0  0
 15 16  1  0  0  0
 19 20  1  0  0  0
 19 21  1  0  0  0
M  END
> <minimizedAffinity>
-7.54755

$$$$
3Q2J_CKI_A_300


 21 22  0  0  0  0  0  0  0  0999 V2000
   30.0526    9.6843   67.7832 C   0  0  0  0  0  0  0  0  0  0  0  0
   30.8916   10.7052   68.0743 N   0  0  0  0  0  0  0  0  0  0  0  0
   30.6572   11.5088   69.1554 C   0  0  0  0  0  0  0  0  0  0  0  0
   29.5664   11.2902   69.9744 C   0  0  0  0  0  0  0  0  0  0  0  0
   27.4729    9.8891   70.5486 C   0  0  0  0  0  0  0  0  0  0  0  0
   27.0819   10.7954   71.8949 Cl  0  0  0  0  0  0  0  0  0  0  0  0
   26.6100    8.8012   70.2253 C   0  0  0  0  0  0  0  0  0  0  0  0
   26.8740    8.0240   69.1217 C   0  0  0  0  0  0  0  0  0  0  0  0
   28.0200    8.2971   68.2952 C   0  0  0  0  0  0  0  0  0  0  0  0
   28.9123    9.4057   68.6075 C   0  0  0  0  0  0  0  0  0  0  0  0
   28.6454   10.1925   69.7067 C   0  0  0  0  0  0  0  0  0  0  0  0
   28.2626    7.2434   66.9138 S   0  0  0  0  0  0  0  0  0  0  0  0
   28.6038    8.0390   65.7130 O   0  0  0  0  0  0  0  0  0  0  0  0
   26.9781    6.4767   66.6425 O   0  0  0  0  0  0  0  0  0  0  0  0
   29.4562    6.1778   67.2789 N   0  0  0  0  0  0  0  0  0  0  0  0
   29.0530    5.2460   67.3767 H   0  0  0  0  0  0  0  0  0  0  0  0
   30.4832    6.1504   66.2197 C   0  0  0  0  0  0  0  0  0  0  0  0
   30.3129    5.1557   65.0560 C   0  0  0  0  0  0  0  0  0  0  0  0
   29.5845    5.5813   63.8530 N   0  0  0  0  0  0  0  0  0  0  0  0
   28.6086    5.7581   64.0911 H   0  0  0  0  0  0  0  0  0  0  0  0
   29.6346    4.8464   63.1474 H   0  0  0  0  0  0  0  0  0  0  0  0
  1  2  2  0  0  0
  1 10  1  0  0  0
  2  3  1  0  0  0
  3  4  2  0  0  0
  4 11  1  0  0  0
  5  6  1  0  0  0
  5  7  2  0  0  0
  5 11  1  0  0  0
  7  8  1  0  0  0
  8  9  2  0  0  0
  9 10  1  0  0  0
  9 12  1  0  0  0
 10 11  2  0  0  0
 12 13  2  0  0  0
 12 14  2  0  0  0
 12 15  1  0  0  0
 15 17  1  0  0  0
 17 18  1  0  0  0
 18 19  1  0  0  0
 15 16  1  0  0  0
 19 20  1  0  0  0
 19 21  1  0  0  0
M  END
> <minimizedAffinity>
-7.49484

$$$$
3Q2J_CKI_A_300


 21 22  0  0  0  0  0  0  0  0999 V2000
   29.5453   10.5542   69.4374 C   0  0  0  0  0  0  0  0  0  0  0  0
   29.3165   11.2623   70.5675 N   0  0  0  0  0  0  0  0  0  0  0  0
   28.1807   11.0530   71.2991 C   0  0  0  0  0  0  0  0  0  0  0  0
   27.2500   10.1114   70.9044 C   0  0  0  0  0  0  0  0  0  0  0  0
   26.5231    8.2808   69.2323 C   0  0  0  0  0  0  0  0  0  0  0  0
   25.1038    7.9319   70.0389 Cl  0  0  0  0  0  0  0  0  0  0  0  0
   26.7926    7.5418   68.0433 C   0  0  0  0  0  0  0  0  0  0  0  0
   27.9412    7.7913   67.3290 C   0  0  0  0  0  0  0  0  0  0  0  0
   28.8767    8.7884   67.7781 C   0  0  0  0  0  0  0  0  0  0  0  0
   28.6180    9.5559   68.9893 C   0  0  0  0  0  0  0  0  0  0  0  0
   27.4635    9.3155   69.7020 C   0  0  0  0  0  0  0  0  0  0  0  0
   30.3084    9.0245   66.7923 S   0  0  0  0  0  0  0  0  0  0  0  0
   30.1547   10.2256   65.9406 O   0  0  0  0  0  0  0  0  0  0  0  0
   30.4995    7.8117   65.8958 O   0  0  0  0  0  0  0  0  0  0  0  0
   31.6052    9.1648   67.7883 N   0  0  0  0  0  0  0  0  0  0  0  0
   31.9643    8.2342   68.0014 H   0  0  0  0  0  0  0  0  0  0  0  0
   32.6743    9.9614   67.1559 C   0  0  0  0  0  0  0  0  0  0  0  0
   32.8543   11.4278   67.5916 C   0  0  0  0  0  0  0  0  0  0  0  0
   31.8218   12.4108   67.2360 N   0  0  0  0  0  0  0  0  0  0  0  0
   31.7912   12.5202   66.2224 H   0  0  0  0  0  0  0  0  0  0  0  0
   32.0431   13.3078   67.6683 H   0  0  0  0  0  0  0  0  0  0  0  0
  1  2  2  0  0  0
  1 10  1  0  0  0
  2  3  1  0  0  0
  3  4  2  0  0  0
  4 11  1  0  0  0
  5  6  1  0  0  0
  5  7  2  0  0  0
  5 11  1  0  0  0
  7  8  1  0  0  0
  8  9  2  0  0  0
  9 10  1  0  0  0
  9 12  1  0  0  0
 10 11  2  0  0  0
 12 13  2  0  0  0
 12 14  2  0  0  0
 12 15  1  0  0  0
 15 17  1  0  0  0
 17 18  1  0  0  0
 18 19  1  0  0  0
 15 16  1  0  0  0
 19 20  1  0  0  0
 19 21  1  0  0  0
M  END
> <minimizedAffinity>
-7.42058

$$$$
3Q2J_CKI_A_300


 21 22  0  0  0  0  0  0  0  0999 V2000
   27.4403    8.0753   68.0767 C   0  0  0  0  0  0  0  0  0  0  0  0
   26.2171    7.5719   68.3616 N   0  0  0  0  0  0  0  0  0  0  0  0
   25.5337    7.9943   69.4680 C   0  0  0  0  0  0  0  0  0  0  0  0
   26.0738    8.9465   70.3106 C   0  0  0  0  0  0  0  0  0  0  0  0
   28.0105   10.5600   70.8776 C   0  0  0  0  0  0  0  0  0  0  0  0
   27.2763   11.1573   72.2528 Cl  0  0  0  0  0  0  0  0  0  0  0  0
   29.2964   11.0811   70.5497 C   0  0  0  0  0  0  0  0  0  0  0  0
   29.9563   10.6207   69.4343 C   0  0  0  0  0  0  0  0  0  0  0  0
   29.3539    9.6216   68.5916 C   0  0  0  0  0  0  0  0  0  0  0  0
   28.0418    9.0750   68.9111 C   0  0  0  0  0  0  0  0  0  0  0  0
   27.3820    9.5267   70.0333 C   0  0  0  0  0  0  0  0  0  0  0  0
   30.2823    9.1068   67.1949 S   0  0  0  0  0  0  0  0  0  0  0  0
   30.0355   10.0126   66.0503 O   0  0  0  0  0  0  0  0  0  0  0  0
   29.8551    7.7007   66.8056 O   0  0  0  0  0  0  0  0  0  0  0  0
   31.8708    9.0900   67.6070 N   0  0  0  0  0  0  0  0  0  0  0  0
   32.2396    8.1482   67.4750 H   0  0  0  0  0  0  0  0  0  0  0  0
   32.6434   10.0319   66.7744 C   0  0  0  0  0  0  0  0  0  0  0  0
   32.8488   11.4694   67.2881 C   0  0  0  0  0  0  0  0  0  0  0  0
   31.8758   12.5063   66.9181 N   0  0  0  0  0  0  0  0  0  0  0  0
   31.9111   12.6618   65.9106 H   0  0  0  0  0  0  0  0  0  0  0  0
   32.1021   13.3740   67.4042 H   0  0  0  0  0  0  0  0  0  0  0  0
  1  2  2  0  0  0
  1 10  1  0  0  0
  2  3  1  0  0  0
  3  4  2  0  0  0
  4 11  1  0  0  0
  5  6  1  0  0  0
  5  7  2  0  0  0
  5 11  1  0  0  0
  7  8  1  0  0  0
  8  9  2  0  0  0
  9 10  1  0  0  0
  9 12  1  0  0  0
 10 11  2  0  0  0
 12 13  2  0  0  0
 12 14  2  0  0  0
 12 15  1  0  0  0
 15 17  1  0  0  0
 17 18  1  0  0  0
 18 19  1  0  0  0
 15 16  1  0  0  0
 19 20  1  0  0  0
 19 21  1  0  0  0
M  END
> <minimizedAffinity>
-7.32148

$$$$
3Q2J_CKI_A_300


 21 22  0  0  0  0  0  0  0  0999 V2000
   26.8417    7.8833   68.3338 C   0  0  0  0  0  0  0  0  0  0  0  0
   25.6446    7.5347   68.8592 N   0  0  0  0  0  0  0  0  0  0  0  0
   25.2037    8.1065   70.0203 C   0  0  0  0  0  0  0  0  0  0  0  0
   25.9662    9.0549   70.6742 C   0  0  0  0  0  0  0  0  0  0  0  0
   28.1120   10.4908   70.7693 C   0  0  0  0  0  0  0  0  0  0  0  0
   27.6837   11.2611   72.1870 Cl  0  0  0  0  0  0  0  0  0  0  0  0
   29.3649   10.8472   70.1897 C   0  0  0  0  0  0  0  0  0  0  0  0
   29.7777   10.2395   69.0270 C   0  0  0  0  0  0  0  0  0  0  0  0
   28.9498    9.2513   68.3874 C   0  0  0  0  0  0  0  0  0  0  0  0
   27.6674    8.8716   68.9654 C   0  0  0  0  0  0  0  0  0  0  0  0
   27.2551    9.4713   70.1354 C   0  0  0  0  0  0  0  0  0  0  0  0
   29.5726    8.5406   66.9094 S   0  0  0  0  0  0  0  0  0  0  0  0
   30.6579    9.3792   66.3524 O   0  0  0  0  0  0  0  0  0  0  0  0
   28.4495    8.4544   65.8883 O   0  0  0  0  0  0  0  0  0  0  0  0
   30.1066    7.0262   67.2483 N   0  0  0  0  0  0  0  0  0  0  0  0
   29.6341    6.6856   68.0856 H   0  0  0  0  0  0  0  0  0  0  0  0
   29.8297    6.1048   66.1294 C   0  0  0  0  0  0  0  0  0  0  0  0
   28.7542    5.0188   66.3202 C   0  0  0  0  0  0  0  0  0  0  0  0
   27.3628    5.3192   65.9560 N   0  0  0  0  0  0  0  0  0  0  0  0
   27.0009    6.0495   66.5694 H   0  0  0  0  0  0  0  0  0  0  0  0
   26.7954    4.4777   66.0577 H   0  0  0  0  0  0  0  0  0  0  0  0
  1  2  2  0  0  0
  1 10  1  0  0  0
  2  3  1  0  0  0
  3  4  2  0  0  0
  4 11  1  0  0  0
  5  6  1  0  0  0
  5  7  2  0  0  0
  5 11  1  0  0  0
  7  8  1  0  0  0
  8  9  2  0  0  0
  9 10  1  0  0  0
  9 12  1  0  0  0
 10 11  2  0  0  0
 12 13  2  0  0  0
 12 14  2  0  0  0
 12 15  1  0  0  0
 15 17  1  0  0  0
 17 18  1  0  0  0
 18 19  1  0  0  0
 15 16  1  0  0  0
 19 20  1  0  0  0
 19 21  1  0  0  0
M  END
> <minimizedAffinity>
-7.24790

$$$$
3Q2J_CKI_A_300


 21 22  0  0  0  0  0  0  0  0999 V2000
   26.9785    7.9871   68.2703 C   0  0  0  0  0  0  0  0  0  0  0  0
   25.8040    7.5504   68.7810 N   0  0  0  0  0  0  0  0  0  0  0  0
   25.3419    8.0370   69.9722 C   0  0  0  0  0  0  0  0  0  0  0  0
   26.0592    8.9875   70.6726 C   0  0  0  0  0  0  0  0  0  0  0  0
   28.1297   10.5244   70.8357 C   0  0  0  0  0  0  0  0  0  0  0  0
   27.6716   11.1961   72.2937 Cl  0  0  0  0  0  0  0  0  0  0  0  0
   29.3591   10.9746   70.2711 C   0  0  0  0  0  0  0  0  0  0  0  0
   29.7949   10.4508   69.0765 C   0  0  0  0  0  0  0  0  0  0  0  0
   29.0144    9.4565   68.3885 C   0  0  0  0  0  0  0  0  0  0  0  0
   27.7567    8.9818   68.9503 C   0  0  0  0  0  0  0  0  0  0  0  0
   27.3218    9.4971   70.1519 C   0  0  0  0  0  0  0  0  0  0  0  0
   29.6632    8.8575   66.8727 S   0  0  0  0  0  0  0  0  0  0  0  0
   28.5740    8.3344   66.0174 O   0  0  0  0  0  0  0  0  0  0  0  0
   30.6409    7.7298   67.1622 O   0  0  0  0  0  0  0  0  0  0  0  0
   30.4633   10.0838   66.1316 N   0  0  0  0  0  0  0  0  0  0  0  0
   31.4036   10.1519   66.5208 H   0  0  0  0  0  0  0  0  0  0  0  0
   30.5586    9.8509   64.6776 C   0  0  0  0  0  0  0  0  0  0  0  0
   29.6112   10.6285   63.7447 C   0  0  0  0  0  0  0  0  0  0  0  0
   28.3001   10.0524   63.4162 N   0  0  0  0  0  0  0  0  0  0  0  0
   28.4303    9.1961   62.8776 H   0  0  0  0  0  0  0  0  0  0  0  0
   27.7628   10.7221   62.8655 H   0  0  0  0  0  0  0  0  0  0  0  0
  1  2  2  0  0  0
  1 10  1  0  0  0
  2  3  1  0  0  0
  3  4  2  0  0  0
  4 11  1  0  0  0
  5  6  1  0  0  0
  5  7  2  0  0  0
  5 11  1  0  0  0
  7  8  1  0  0  0
  8  9  2  0  0  0
  9 10  1  0  0  0
  9 12  1  0  0  0
 10 11  2  0  0  0
 12 13  2  0  0  0
 12 14  2  0  0  0
 12 15  1  0  0  0
 15 17  1  0  0  0
 17 18  1  0  0  0
 18 19  1  0  0  0
 15 16  1  0  0  0
 19 20  1  0  0  0
 19 21  1  0  0  0
M  END
> <minimizedAffinity>
-7.17729

$$$$
3Q2J_CKI_A_300


 21 22  0  0  0  0  0  0  0  0999 V2000
   27.7202    8.2355   67.8684 C   0  0  0  0  0  0  0  0  0  0  0  0
   26.5236    7.6562   68.1201 N   0  0  0  0  0  0  0  0  0  0  0  0
   25.8081    7.9982   69.2339 C   0  0  0  0  0  0  0  0  0  0  0  0
   26.2877    8.9451   70.1181 C   0  0  0  0  0  0  0  0  0  0  0  0
   28.1283   10.6378   70.7678 C   0  0  0  0  0  0  0  0  0  0  0  0
   27.3500   11.1413   72.1562 Cl  0  0  0  0  0  0  0  0  0  0  0  0
   29.3869   11.2399   70.4745 C   0  0  0  0  0  0  0  0  0  0  0  0
   30.0812   10.8591   69.3500 C   0  0  0  0  0  0  0  0  0  0  0  0
   29.5420    9.8621   68.4632 C   0  0  0  0  0  0  0  0  0  0  0  0
   28.2586    9.2334   68.7469 C   0  0  0  0  0  0  0  0  0  0  0  0
   27.5649    9.6053   69.8779 C   0  0  0  0  0  0  0  0  0  0  0  0
   30.5100    9.4523   67.0587 S   0  0  0  0  0  0  0  0  0  0  0  0
   31.7548   10.2531   67.0399 O   0  0  0  0  0  0  0  0  0  0  0  0
   29.7136    9.7585   65.8004 O   0  0  0  0  0  0  0  0  0  0  0  0
   30.8385    7.8451   67.1077 N   0  0  0  0  0  0  0  0  0  0  0  0
   30.1483    7.3815   67.6985 H   0  0  0  0  0  0  0  0  0  0  0  0
   30.7917    7.2541   65.7563 C   0  0  0  0  0  0  0  0  0  0  0  0
   32.0441    7.3562   64.8654 C   0  0  0  0  0  0  0  0  0  0  0  0
   32.5013    8.6812   64.4246 N   0  0  0  0  0  0  0  0  0  0  0  0
   31.8010    9.0952   63.8094 H   0  0  0  0  0  0  0  0  0  0  0  0
   33.3830    8.5862   63.9207 H   0  0  0  0  0  0  0  0  0  0  0  0
  1  2  2  0  0  0
  1 10  1  0  0  0
  2  3  1  0  0  0
  3  4  2  0  0  0
  4 11  1  0  0  0
  5  6  1  0  0  0
  5  7  2  0  0  0
  5 11  1  0  0  0
  7  8  1  0  0  0
  8  9  2  0  0  0
  9 10  1  0  0  0
  9 12  1  0  0  0
 10 11  2  0  0  0
 12 13  2  0  0  0
 12 14  2  0  0  0
 12 15  1  0  0  0
 15 17  1  0  0  0
 17 18  1  0  0  0
 18 19  1  0  0  0
 15 16  1  0  0  0
 19 20  1  0  0  0
 19 21  1  0  0  0
M  END
> <minimizedAffinity>
-6.79576

$$$$
3Q2J_CKI_A_300


 21 22  0  0  0  0  0  0  0  0999 V2000
   30.4378    9.9937   67.7781 C   0  0  0  0  0  0  0  0  0  0  0  0
   31.0726   11.0759   68.2847 N   0  0  0  0  0  0  0  0  0  0  0  0
   30.5797   11.7159   69.3878 C   0  0  0  0  0  0  0  0  0  0  0  0
   29.4310   11.2668   70.0102 C   0  0  0  0  0  0  0  0  0  0  0  0
   27.5042    9.5499   70.1320 C   0  0  0  0  0  0  0  0  0  0  0  0
   26.8068   10.2409   71.4822 Cl  0  0  0  0  0  0  0  0  0  0  0  0
   26.8599    8.4022   69.5840 C   0  0  0  0  0  0  0  0  0  0  0  0
   27.3811    7.7946   68.4656 C   0  0  0  0  0  0  0  0  0  0  0  0
   28.5771    8.3053   67.8492 C   0  0  0  0  0  0  0  0  0  0  0  0
   29.2486    9.4785   68.3927 C   0  0  0  0  0  0  0  0  0  0  0  0
   28.7237   10.0957   69.5072 C   0  0  0  0  0  0  0  0  0  0  0  0
   29.1550    7.4537   66.4285 S   0  0  0  0  0  0  0  0  0  0  0  0
   30.5901    7.1217   66.5756 O   0  0  0  0  0  0  0  0  0  0  0  0
   28.9830    8.3466   65.2102 O   0  0  0  0  0  0  0  0  0  0  0  0
   28.2492    6.0992   66.2329 N   0  0  0  0  0  0  0  0  0  0  0  0
   27.9919    6.0091   65.2500 H   0  0  0  0  0  0  0  0  0  0  0  0
   28.9982    4.8974   66.6477 C   0  0  0  0  0  0  0  0  0  0  0  0
   28.5870    3.5350   66.0585 C   0  0  0  0  0  0  0  0  0  0  0  0
   28.9979    2.3046   66.7486 N   0  0  0  0  0  0  0  0  0  0  0  0
   30.0141    2.2213   66.7188 H   0  0  0  0  0  0  0  0  0  0  0  0
   28.5770    1.4987   66.2863 H   0  0  0  0  0  0  0  0  0  0  0  0
  1  2  2  0  0  0
  1 10  1  0  0  0
  2  3  1  0  0  0
  3  4  2  0  0  0
  4 11  1  0  0  0
  5  6  1  0  0  0
  5  7  2  0  0  0
  5 11  1  0  0  0
  7  8  1  0  0  0
  8  9  2  0  0  0
  9 10  1  0  0  0
  9 12  1  0  0  0
 10 11  2  0  0  0
 12 13  2  0  0  0
 12 14  2  0  0  0
 12 15  1  0  0  0
 15 17  1  0  0  0
 17 18  1  0  0  0
 18 19  1  0  0  0
 15 16  1  0  0  0
 19 20  1  0  0  0
 19 21  1  0  0  0
M  END
> <minimizedAffinity>
-6.70771

$$$$
3Q2J_CKI_A_300


 21 22  0  0  0  0  0  0  0  0999 V2000
   26.7234    7.6575   68.7584 C   0  0  0  0  0  0  0  0  0  0  0  0
   25.7885    7.9938   69.6769 N   0  0  0  0  0  0  0  0  0  0  0  0
   25.9909    9.0536   70.5168 C   0  0  0  0  0  0  0  0  0  0  0  0
   27.1477    9.8049   70.4393 C   0  0  0  0  0  0  0  0  0  0  0  0
   29.4235   10.2569   69.3029 C   0  0  0  0  0  0  0  0  0  0  0  0
   29.7852   11.5711   70.2667 Cl  0  0  0  0  0  0  0  0  0  0  0  0
   30.3882    9.8874   68.3203 C   0  0  0  0  0  0  0  0  0  0  0  0
   30.1518    8.8069   67.5028 C   0  0  0  0  0  0  0  0  0  0  0  0
   28.9335    8.0511   67.6277 C   0  0  0  0  0  0  0  0  0  0  0  0
   27.9366    8.4114   68.6273 C   0  0  0  0  0  0  0  0  0  0  0  0
   28.1745    9.4873   69.4546 C   0  0  0  0  0  0  0  0  0  0  0  0
   28.7343    6.6936   66.5346 S   0  0  0  0  0  0  0  0  0  0  0  0
   29.3511    6.9941   65.2228 O   0  0  0  0  0  0  0  0  0  0  0  0
   27.2503    6.4356   66.3285 O   0  0  0  0  0  0  0  0  0  0  0  0
   29.4182    5.3701   67.2231 N   0  0  0  0  0  0  0  0  0  0  0  0
   29.1293    5.3154   68.1999 H   0  0  0  0  0  0  0  0  0  0  0  0
   29.0023    4.1371   66.5272 C   0  0  0  0  0  0  0  0  0  0  0  0
   29.2849    2.7813   67.2013 C   0  0  0  0  0  0  0  0  0  0  0  0
   30.3743    2.6844   68.1824 N   0  0  0  0  0  0  0  0  0  0  0  0
   31.2667    2.8505   67.7171 H   0  0  0  0  0  0  0  0  0  0  0  0
   30.3758    1.7529   68.5980 H   0  0  0  0  0  0  0  0  0  0  0  0
  1  2  2  0  0  0
  1 10  1  0  0  0
  2  3  1  0  0  0
  3  4  2  0  0  0
  4 11  1  0  0  0
  5  6  1  0  0  0
  5  7  2  0  0  0
  5 11  1  0  0  0
  7  8  1  0  0  0
  8  9  2  0  0  0
  9 10  1  0  0  0
  9 12  1  0  0  0
 10 11  2  0  0  0
 12 13  2  0  0  0
 12 14  2  0  0  0
 12 15  1  0  0  0
 15 17  1  0  0  0
 17 18  1  0  0  0
 18 19  1  0  0  0
 15 16  1  0  0  0
 19 20  1  0  0  0
 19 21  1  0  0  0
M  END
> <minimizedAffinity>
-6.54600

$$$$
