1QBR_XV6_A_638


 58 64  0  0  0  0  0  0  0  0999 V2000
   -8.3285   14.1838   27.9765 O   0  0  0  0  0  0  0  0  0  0  0  0
  -11.9514   18.4875   28.8986 O   0  0  0  0  0  0  0  0  0  0  0  0
  -10.1190   19.6039   27.1658 O   0  0  0  0  0  0  0  0  0  0  0  0
   -9.7165   15.5279   29.0480 N   0  0  0  0  0  0  0  0  0  0  0  0
   -8.6607   16.1540   27.0365 N   0  0  0  0  0  0  0  0  0  0  0  0
   -8.8983   15.2644   28.0172 C   0  0  0  0  0  0  0  0  0  0  0  0
  -10.9125   16.3873   28.9616 C   0  0  0  0  0  0  0  0  0  0  0  0
  -10.7216   17.8689   28.7159 C   0  0  0  0  0  0  0  0  0  0  0  0
  -10.2284   18.1982   27.3391 C   0  0  0  0  0  0  0  0  0  0  0  0
   -8.8410   17.6244   27.1460 C   0  0  0  0  0  0  0  0  0  0  0  0
  -12.2865   18.2850   29.7861 H   0  0  0  0  0  0  0  0  0  0  0  0
  -10.9909   20.0128   27.2819 H   0  0  0  0  0  0  0  0  0  0  0  0
   -9.4953   14.7652   30.2859 C   0  0  0  0  0  0  0  0  0  0  0  0
   -9.4023   15.5385   31.5866 C   0  0  0  0  0  0  0  0  0  0  0  0
  -10.2911   15.1895   32.6164 C   0  0  0  0  0  0  0  0  0  0  0  0
  -10.2456   15.8598   33.8622 C   0  0  0  0  0  0  0  0  0  0  0  0
   -9.2982   16.8911   34.0775 C   0  0  0  0  0  0  0  0  0  0  0  0
   -8.3946   17.2470   33.0515 C   0  0  0  0  0  0  0  0  0  0  0  0
   -8.4526   16.5696   31.8073 C   0  0  0  0  0  0  0  0  0  0  0  0
  -11.1987   15.4478   34.9575 C   0  0  0  0  0  0  0  0  0  0  0  0
  -11.5514   16.1631   35.8869 O   0  0  0  0  0  0  0  0  0  0  0  0
  -11.6224   14.1877   34.8253 N   0  0  0  0  0  0  0  0  0  0  0  0
  -11.3276   13.6811   34.0343 H   0  0  0  0  0  0  0  0  0  0  0  0
  -13.8053   13.3130   35.6274 N   0  0  0  0  0  0  0  0  0  0  0  0
  -12.4955   13.5175   35.7821 C   0  0  0  0  0  0  0  0  0  0  0  0
  -14.3560   12.5979   36.6712 C   0  0  0  0  0  0  0  0  0  0  0  0
  -11.9801   12.8256   37.2141 S   0  0  0  0  0  0  0  0  0  0  0  0
  -13.4704   12.2209   37.6947 C   0  0  0  0  0  0  0  0  0  0  0  0
   -7.9923   15.6542   25.8209 C   0  0  0  0  0  0  0  0  0  0  0  0
   -8.6842   15.9525   24.5204 C   0  0  0  0  0  0  0  0  0  0  0  0
   -7.9114   16.4013   23.4341 C   0  0  0  0  0  0  0  0  0  0  0  0
   -8.5349   16.7203   22.2040 C   0  0  0  0  0  0  0  0  0  0  0  0
   -9.9306   16.5736   22.0579 C   0  0  0  0  0  0  0  0  0  0  0  0
  -10.6993   16.1141   23.1445 C   0  0  0  0  0  0  0  0  0  0  0  0
  -10.0819   15.8051   24.3802 C   0  0  0  0  0  0  0  0  0  0  0  0
   -7.7336   17.2477   21.0581 C   0  0  0  0  0  0  0  0  0  0  0  0
   -8.1653   18.0622   20.2568 O   0  0  0  0  0  0  0  0  0  0  0  0
   -6.4982   16.7269   20.9493 N   0  0  0  0  0  0  0  0  0  0  0  0
   -6.1899   16.0743   21.6188 H   0  0  0  0  0  0  0  0  0  0  0  0
   -5.8145   16.8491   18.5520 N   0  0  0  0  0  0  0  0  0  0  0  0
   -5.6061   17.1082   19.8609 C   0  0  0  0  0  0  0  0  0  0  0  0
   -4.8573   17.4158   17.7346 C   0  0  0  0  0  0  0  0  0  0  0  0
   -4.2133   18.0433   20.0569 S   0  0  0  0  0  0  0  0  0  0  0  0
   -3.8535   18.1489   18.4023 C   0  0  0  0  0  0  0  0  0  0  0  0
  -11.9708   15.6927   28.0851 C   0  0  0  0  0  0  0  0  0  0  0  0
  -12.5728   14.5000   28.7781 C   0  0  0  0  0  0  0  0  0  0  0  0
  -12.3996   13.2092   28.2403 C   0  0  0  0  0  0  0  0  0  0  0  0
  -12.8703   12.0953   28.9684 C   0  0  0  0  0  0  0  0  0  0  0  0
  -13.5143   12.2670   30.2111 C   0  0  0  0  0  0  0  0  0  0  0  0
  -13.7002   13.5673   30.7390 C   0  0  0  0  0  0  0  0  0  0  0  0
  -13.2284   14.6801   30.0187 C   0  0  0  0  0  0  0  0  0  0  0  0
   -7.7660   18.2162   28.0752 C   0  0  0  0  0  0  0  0  0  0  0  0
   -6.4305   18.1308   27.3940 C   0  0  0  0  0  0  0  0  0  0  0  0
   -6.2565   18.7979   26.1594 C   0  0  0  0  0  0  0  0  0  0  0  0
   -5.0346   18.6857   25.4750 C   0  0  0  0  0  0  0  0  0  0  0  0
   -3.9960   17.9101   26.0386 C   0  0  0  0  0  0  0  0  0  0  0  0
   -4.1752   17.2514   27.2725 C   0  0  0  0  0  0  0  0  0  0  0  0
   -5.3993   17.3521   27.9626 C   0  0  0  0  0  0  0  0  0  0  0  0
  1  6  2  0  0  0
  2  8  1  0  0  0
  3  9  1  0  0  0
  4  6  1  0  0  0
  4 13  1  0  0  0
  4  7  1  0  0  0
  5  6  1  0  0  0
  5 10  1  0  0  0
  5 29  1  0  0  0
 13 14  1  0  0  0
  7  8  1  0  0  0
  7 45  1  0  0  0
  8  9  1  0  0  0
  9 10  1  0  0  0
 10 52  1  0  0  0
 29 30  1  0  0  0
 45 46  1  0  0  0
 46 47  2  0  0  0
 46 51  1  0  0  0
 47 48  1  0  0  0
 48 49  2  0  0  0
 49 50  1  0  0  0
 50 51  2  0  0  0
 52 53  1  0  0  0
 53 54  2  0  0  0
 53 58  1  0  0  0
 54 55  1  0  0  0
 55 56  2  0  0  0
 56 57  1  0  0  0
 57 58  2  0  0  0
 14 15  2  0  0  0
 14 19  1  0  0  0
 15 16  1  0  0  0
 16 17  2  0  0  0
 16 20  1  0  0  0
 17 18  1  0  0  0
 18 19  2  0  0  0
 20 21  2  0  0  0
 20 22  1  0  0  0
 22 25  1  0  0  0
 24 25  2  0  0  0
 24 26  1  0  0  0
 25 27  1  0  0  0
 26 28  2  0  0  0
 27 28  1  0  0  0
 30 31  2  0  0  0
 30 35  1  0  0  0
 31 32  1  0  0  0
 32 33  2  0  0  0
 32 36  1  0  0  0
 33 34  1  0  0  0
 34 35  2  0  0  0
 36 37  2  0  0  0
 36 38  1  0  0  0
 38 41  1  0  0  0
 40 41  2  0  0  0
 40 42  1  0  0  0
 41 43  1  0  0  0
 42 44  2  0  0  0
 43 44  1  0  0  0
  2 11  1  0  0  0
  3 12  1  0  0  0
 22 23  1  0  0  0
 38 39  1  0  0  0
M  END
> <minimizedAffinity>
-13.78998

$$$$
1QBR_XV6_A_638


 58 64  0  0  0  0  0  0  0  0999 V2000
   -7.9514   14.4291   27.9854 O   0  0  0  0  0  0  0  0  0  0  0  0
  -10.1404   19.6306   27.1792 O   0  0  0  0  0  0  0  0  0  0  0  0
  -11.9569   18.4735   28.9019 O   0  0  0  0  0  0  0  0  0  0  0  0
   -8.5235   16.2972   26.9539 N   0  0  0  0  0  0  0  0  0  0  0  0
   -9.5481   15.6030   28.9591 N   0  0  0  0  0  0  0  0  0  0  0  0
   -8.6544   15.4288   27.9689 C   0  0  0  0  0  0  0  0  0  0  0  0
   -8.7436   17.7514   27.0703 C   0  0  0  0  0  0  0  0  0  0  0  0
  -10.1481   18.2508   27.3350 C   0  0  0  0  0  0  0  0  0  0  0  0
  -10.6567   17.9346   28.7094 C   0  0  0  0  0  0  0  0  0  0  0  0
  -10.7759   16.4346   28.8740 C   0  0  0  0  0  0  0  0  0  0  0  0
   -9.8135   19.8542   26.2937 H   0  0  0  0  0  0  0  0  0  0  0  0
  -11.9249   19.4380   28.8044 H   0  0  0  0  0  0  0  0  0  0  0  0
   -7.9533   15.7775   25.7019 C   0  0  0  0  0  0  0  0  0  0  0  0
   -8.6992   16.0617   24.4129 C   0  0  0  0  0  0  0  0  0  0  0  0
   -7.9546   16.5364   23.3209 C   0  0  0  0  0  0  0  0  0  0  0  0
   -8.5863   16.8047   22.0831 C   0  0  0  0  0  0  0  0  0  0  0  0
   -9.9801   16.5944   21.9389 C   0  0  0  0  0  0  0  0  0  0  0  0
  -10.7389   16.1112   23.0282 C   0  0  0  0  0  0  0  0  0  0  0  0
  -10.0943   15.8490   24.2635 C   0  0  0  0  0  0  0  0  0  0  0  0
   -7.7563   17.2930   20.9210 C   0  0  0  0  0  0  0  0  0  0  0  0
   -8.1177   18.1292   20.1025 O   0  0  0  0  0  0  0  0  0  0  0  0
   -6.5611   16.6995   20.8557 N   0  0  0  0  0  0  0  0  0  0  0  0
   -6.3211   16.0631   21.5675 H   0  0  0  0  0  0  0  0  0  0  0  0
   -5.7992   16.7339   18.4910 N   0  0  0  0  0  0  0  0  0  0  0  0
   -5.5906   16.9376   19.7935 C   0  0  0  0  0  0  0  0  0  0  0  0
   -4.7185   17.1058   17.7177 C   0  0  0  0  0  0  0  0  0  0  0  0
   -4.0644   17.5784   20.0287 S   0  0  0  0  0  0  0  0  0  0  0  0
   -3.6100   17.6170   18.4132 C   0  0  0  0  0  0  0  0  0  0  0  0
   -9.3992   14.7568   30.1575 C   0  0  0  0  0  0  0  0  0  0  0  0
   -9.3383   15.4832   31.4718 C   0  0  0  0  0  0  0  0  0  0  0  0
  -10.1975   15.0741   32.5077 C   0  0  0  0  0  0  0  0  0  0  0  0
  -10.1876   15.7558   33.7482 C   0  0  0  0  0  0  0  0  0  0  0  0
   -9.3049   16.8368   33.9558 C   0  0  0  0  0  0  0  0  0  0  0  0
   -8.4389   17.2366   32.9198 C   0  0  0  0  0  0  0  0  0  0  0  0
   -8.4536   16.5657   31.6735 C   0  0  0  0  0  0  0  0  0  0  0  0
  -11.1313   15.3657   34.8394 C   0  0  0  0  0  0  0  0  0  0  0  0
  -11.5227   16.1425   35.6968 O   0  0  0  0  0  0  0  0  0  0  0  0
  -11.4953   14.0708   34.8313 N   0  0  0  0  0  0  0  0  0  0  0  0
  -11.1575   13.4799   34.1199 H   0  0  0  0  0  0  0  0  0  0  0  0
  -13.7113   13.3445   35.7205 N   0  0  0  0  0  0  0  0  0  0  0  0
  -12.3795   13.5237   35.8534 C   0  0  0  0  0  0  0  0  0  0  0  0
  -14.2784   12.7138   36.8097 C   0  0  0  0  0  0  0  0  0  0  0  0
  -11.8534   12.9161   37.3390 S   0  0  0  0  0  0  0  0  0  0  0  0
  -13.3806   12.3774   37.8449 C   0  0  0  0  0  0  0  0  0  0  0  0
   -7.6376   18.3605   27.9514 C   0  0  0  0  0  0  0  0  0  0  0  0
   -6.2787   18.2122   27.3219 C   0  0  0  0  0  0  0  0  0  0  0  0
   -5.3257   17.3467   27.8949 C   0  0  0  0  0  0  0  0  0  0  0  0
   -4.1031   17.1332   27.2226 C   0  0  0  0  0  0  0  0  0  0  0  0
   -3.8300   17.7821   26.0008 C   0  0  0  0  0  0  0  0  0  0  0  0
   -4.7843   18.6633   25.4380 C   0  0  0  0  0  0  0  0  0  0  0  0
   -6.0063   18.8755   26.1023 C   0  0  0  0  0  0  0  0  0  0  0  0
  -11.7984   15.7650   27.9384 C   0  0  0  0  0  0  0  0  0  0  0  0
  -12.3860   14.5698   28.6320 C   0  0  0  0  0  0  0  0  0  0  0  0
  -12.1971   13.2922   28.0559 C   0  0  0  0  0  0  0  0  0  0  0  0
  -12.7854   12.1658   28.6550 C   0  0  0  0  0  0  0  0  0  0  0  0
  -13.5528   12.3304   29.8307 C   0  0  0  0  0  0  0  0  0  0  0  0
  -13.7329   13.6069   30.4021 C   0  0  0  0  0  0  0  0  0  0  0  0
  -13.1530   14.7433   29.8043 C   0  0  0  0  0  0  0  0  0  0  0  0
  1  6  2  0  0  0
  2  8  1  0  0  0
  3  9  1  0  0  0
  4  6  1  0  0  0
  4 13  1  0  0  0
  4  7  1  0  0  0
  5  6  1  0  0  0
  5 10  1  0  0  0
  5 29  1  0  0  0
 13 14  1  0  0  0
  7  8  1  0  0  0
  7 45  1  0  0  0
  8  9  1  0  0  0
  9 10  1  0  0  0
 10 52  1  0  0  0
 29 30  1  0  0  0
 45 46  1  0  0  0
 46 47  2  0  0  0
 46 51  1  0  0  0
 47 48  1  0  0  0
 48 49  2  0  0  0
 49 50  1  0  0  0
 50 51  2  0  0  0
 52 53  1  0  0  0
 53 54  2  0  0  0
 53 58  1  0  0  0
 54 55  1  0  0  0
 55 56  2  0  0  0
 56 57  1  0  0  0
 57 58  2  0  0  0
 14 15  2  0  0  0
 14 19  1  0  0  0
 15 16  1  0  0  0
 16 17  2  0  0  0
 16 20  1  0  0  0
 17 18  1  0  0  0
 18 19  2  0  0  0
 20 21  2  0  0  0
 20 22  1  0  0  0
 22 25  1  0  0  0
 24 25  2  0  0  0
 24 26  1  0  0  0
 25 27  1  0  0  0
 26 28  2  0  0  0
 27 28  1  0  0  0
 30 31  2  0  0  0
 30 35  1  0  0  0
 31 32  1  0  0  0
 32 33  2  0  0  0
 32 36  1  0  0  0
 33 34  1  0  0  0
 34 35  2  0  0  0
 36 37  2  0  0  0
 36 38  1  0  0  0
 38 41  1  0  0  0
 40 41  2  0  0  0
 40 42  1  0  0  0
 41 43  1  0  0  0
 42 44  2  0  0  0
 43 44  1  0  0  0
  2 11  1  0  0  0
  3 12  1  0  0  0
 22 23  1  0  0  0
 38 39  1  0  0  0
M  END
> <minimizedAffinity>
-13.73407

$$$$
1QBR_XV6_A_638


 58 64  0  0  0  0  0  0  0  0999 V2000
  -10.5300   18.8633   28.0384 O   0  0  0  0  0  0  0  0  0  0  0  0
   -7.8037   14.0488   26.6653 O   0  0  0  0  0  0  0  0  0  0  0  0
   -8.3799   13.6736   29.3363 O   0  0  0  0  0  0  0  0  0  0  0  0
   -9.0668   17.5144   27.0790 N   0  0  0  0  0  0  0  0  0  0  0  0
  -10.2393   16.9132   29.0326 N   0  0  0  0  0  0  0  0  0  0  0  0
   -9.9611   17.7815   28.0435 C   0  0  0  0  0  0  0  0  0  0  0  0
   -8.8013   16.1663   26.5416 C   0  0  0  0  0  0  0  0  0  0  0  0
   -8.1512   15.1422   27.4476 C   0  0  0  0  0  0  0  0  0  0  0  0
   -9.0370   14.6643   28.5587 C   0  0  0  0  0  0  0  0  0  0  0  0
   -9.3490   15.8158   29.4903 C   0  0  0  0  0  0  0  0  0  0  0  0
   -7.2294   14.3398   25.9398 H   0  0  0  0  0  0  0  0  0  0  0  0
   -8.1611   12.9139   28.7741 H   0  0  0  0  0  0  0  0  0  0  0  0
   -8.4513   18.6667   26.4035 C   0  0  0  0  0  0  0  0  0  0  0  0
   -6.9841   18.5697   26.0339 C   0  0  0  0  0  0  0  0  0  0  0  0
   -6.6558   18.5618   24.6685 C   0  0  0  0  0  0  0  0  0  0  0  0
   -5.3039   18.4911   24.2553 C   0  0  0  0  0  0  0  0  0  0  0  0
   -4.2701   18.4278   25.2222 C   0  0  0  0  0  0  0  0  0  0  0  0
   -4.5873   18.4413   26.5988 C   0  0  0  0  0  0  0  0  0  0  0  0
   -5.9457   18.5096   26.9992 C   0  0  0  0  0  0  0  0  0  0  0  0
   -4.9807   18.5068   22.7812 C   0  0  0  0  0  0  0  0  0  0  0  0
   -4.6412   19.4983   22.1474 O   0  0  0  0  0  0  0  0  0  0  0  0
   -5.1187   17.3068   22.2103 N   0  0  0  0  0  0  0  0  0  0  0  0
   -5.3593   16.5454   22.7862 H   0  0  0  0  0  0  0  0  0  0  0  0
   -3.9193   16.3834   20.2400 N   0  0  0  0  0  0  0  0  0  0  0  0
   -4.9344   17.0569   20.7854 C   0  0  0  0  0  0  0  0  0  0  0  0
   -4.0440   16.2551   18.8717 C   0  0  0  0  0  0  0  0  0  0  0  0
   -6.0129   17.5175   19.5939 S   0  0  0  0  0  0  0  0  0  0  0  0
   -5.1843   16.8434   18.2991 C   0  0  0  0  0  0  0  0  0  0  0  0
  -11.4354   17.1851   29.8511 C   0  0  0  0  0  0  0  0  0  0  0  0
  -12.3495   16.0159   30.0880 C   0  0  0  0  0  0  0  0  0  0  0  0
  -12.4933   15.5287   31.3998 C   0  0  0  0  0  0  0  0  0  0  0  0
  -13.3226   14.4101   31.6539 C   0  0  0  0  0  0  0  0  0  0  0  0
  -14.0204   13.7903   30.5958 C   0  0  0  0  0  0  0  0  0  0  0  0
  -13.8820   14.2874   29.2856 C   0  0  0  0  0  0  0  0  0  0  0  0
  -13.0446   15.3984   29.0247 C   0  0  0  0  0  0  0  0  0  0  0  0
  -13.4439   13.8496   33.0340 C   0  0  0  0  0  0  0  0  0  0  0  0
  -14.5159   13.6301   33.5766 O   0  0  0  0  0  0  0  0  0  0  0  0
  -12.2720   13.6353   33.6585 N   0  0  0  0  0  0  0  0  0  0  0  0
  -11.4310   13.8242   33.1828 H   0  0  0  0  0  0  0  0  0  0  0  0
  -11.9835   11.8466   35.3751 N   0  0  0  0  0  0  0  0  0  0  0  0
  -12.2207   13.1291   35.0249 C   0  0  0  0  0  0  0  0  0  0  0  0
  -11.8910   11.6727   36.7414 C   0  0  0  0  0  0  0  0  0  0  0  0
  -12.3384   14.0989   36.4027 S   0  0  0  0  0  0  0  0  0  0  0  0
  -12.0582   12.8442   37.5098 C   0  0  0  0  0  0  0  0  0  0  0  0
  -10.0362   15.6825   25.7595 C   0  0  0  0  0  0  0  0  0  0  0  0
   -9.8411   15.8141   24.2730 C   0  0  0  0  0  0  0  0  0  0  0  0
  -10.9286   16.1594   23.4461 C   0  0  0  0  0  0  0  0  0  0  0  0
  -10.6976   16.3933   22.0734 C   0  0  0  0  0  0  0  0  0  0  0  0
   -9.4016   16.2740   21.5305 C   0  0  0  0  0  0  0  0  0  0  0  0
   -8.3156   15.9108   22.3627 C   0  0  0  0  0  0  0  0  0  0  0  0
   -8.5405   15.6814   23.7326 C   0  0  0  0  0  0  0  0  0  0  0  0
   -8.1264   16.4024   30.2185 C   0  0  0  0  0  0  0  0  0  0  0  0
   -8.4095   16.4449   31.6926 C   0  0  0  0  0  0  0  0  0  0  0  0
   -8.9966   15.3121   32.3020 C   0  0  0  0  0  0  0  0  0  0  0  0
   -9.3236   15.3487   33.6679 C   0  0  0  0  0  0  0  0  0  0  0  0
   -9.0526   16.5198   34.4117 C   0  0  0  0  0  0  0  0  0  0  0  0
   -8.4627   17.6441   33.7983 C   0  0  0  0  0  0  0  0  0  0  0  0
   -8.1381   17.6193   32.4275 C   0  0  0  0  0  0  0  0  0  0  0  0
  1  6  2  0  0  0
  2  8  1  0  0  0
  3  9  1  0  0  0
  4  6  1  0  0  0
  4 13  1  0  0  0
  4  7  1  0  0  0
  5  6  1  0  0  0
  5 10  1  0  0  0
  5 29  1  0  0  0
 13 14  1  0  0  0
  7  8  1  0  0  0
  7 45  1  0  0  0
  8  9  1  0  0  0
  9 10  1  0  0  0
 10 52  1  0  0  0
 29 30  1  0  0  0
 45 46  1  0  0  0
 46 47  2  0  0  0
 46 51  1  0  0  0
 47 48  1  0  0  0
 48 49  2  0  0  0
 49 50  1  0  0  0
 50 51  2  0  0  0
 52 53  1  0  0  0
 53 54  2  0  0  0
 53 58  1  0  0  0
 54 55  1  0  0  0
 55 56  2  0  0  0
 56 57  1  0  0  0
 57 58  2  0  0  0
 14 15  2  0  0  0
 14 19  1  0  0  0
 15 16  1  0  0  0
 16 17  2  0  0  0
 16 20  1  0  0  0
 17 18  1  0  0  0
 18 19  2  0  0  0
 20 21  2  0  0  0
 20 22  1  0  0  0
 22 25  1  0  0  0
 24 25  2  0  0  0
 24 26  1  0  0  0
 25 27  1  0  0  0
 26 28  2  0  0  0
 27 28  1  0  0  0
 30 31  2  0  0  0
 30 35  1  0  0  0
 31 32  1  0  0  0
 32 33  2  0  0  0
 32 36  1  0  0  0
 33 34  1  0  0  0
 34 35  2  0  0  0
 36 37  2  0  0  0
 36 38  1  0  0  0
 38 41  1  0  0  0
 40 41  2  0  0  0
 40 42  1  0  0  0
 41 43  1  0  0  0
 42 44  2  0  0  0
 43 44  1  0  0  0
  2 11  1  0  0  0
  3 12  1  0  0  0
 22 23  1  0  0  0
 38 39  1  0  0  0
M  END
> <minimizedAffinity>
-11.31128

$$$$
1QBR_XV6_A_638


 58 64  0  0  0  0  0  0  0  0999 V2000
  -10.6378   18.8136   28.2615 O   0  0  0  0  0  0  0  0  0  0  0  0
   -8.2119   13.7612   29.3034 O   0  0  0  0  0  0  0  0  0  0  0  0
   -7.6637   14.1520   26.6288 O   0  0  0  0  0  0  0  0  0  0  0  0
  -10.3396   16.7965   29.1119 N   0  0  0  0  0  0  0  0  0  0  0  0
   -9.2408   17.5110   27.1537 N   0  0  0  0  0  0  0  0  0  0  0  0
  -10.0782   17.7298   28.1835 C   0  0  0  0  0  0  0  0  0  0  0  0
   -9.3699   15.7820   29.5671 C   0  0  0  0  0  0  0  0  0  0  0  0
   -8.9342   14.7096   28.5913 C   0  0  0  0  0  0  0  0  0  0  0  0
   -8.0725   15.2176   27.4747 C   0  0  0  0  0  0  0  0  0  0  0  0
   -8.8677   16.1775   26.6160 C   0  0  0  0  0  0  0  0  0  0  0  0
   -8.7550   13.4208   30.0315 H   0  0  0  0  0  0  0  0  0  0  0  0
   -7.1483   13.5108   27.1427 H   0  0  0  0  0  0  0  0  0  0  0  0
  -11.6133   16.9169   29.8373 C   0  0  0  0  0  0  0  0  0  0  0  0
  -12.4309   15.6572   30.0457 C   0  0  0  0  0  0  0  0  0  0  0  0
  -12.5826   15.1898   31.3613 C   0  0  0  0  0  0  0  0  0  0  0  0
  -13.3483   14.0295   31.6274 C   0  0  0  0  0  0  0  0  0  0  0  0
  -13.9687   13.3305   30.5624 C   0  0  0  0  0  0  0  0  0  0  0  0
  -13.8286   13.7944   29.2353 C   0  0  0  0  0  0  0  0  0  0  0  0
  -13.0566   14.9564   28.9822 C   0  0  0  0  0  0  0  0  0  0  0  0
  -13.5118   13.5638   33.0536 C   0  0  0  0  0  0  0  0  0  0  0  0
  -14.5851   13.4075   33.6224 O   0  0  0  0  0  0  0  0  0  0  0  0
  -12.3425   13.3468   33.6624 N   0  0  0  0  0  0  0  0  0  0  0  0
  -11.5187   13.4570   33.1347 H   0  0  0  0  0  0  0  0  0  0  0  0
  -12.0395   11.7103   35.5074 N   0  0  0  0  0  0  0  0  0  0  0  0
  -12.2130   12.9564   35.0616 C   0  0  0  0  0  0  0  0  0  0  0  0
  -11.8888   11.6550   36.8779 C   0  0  0  0  0  0  0  0  0  0  0  0
  -12.1899   14.0254   36.3468 S   0  0  0  0  0  0  0  0  0  0  0  0
  -11.9469   12.8851   37.5543 C   0  0  0  0  0  0  0  0  0  0  0  0
   -8.8054   18.6870   26.3778 C   0  0  0  0  0  0  0  0  0  0  0  0
   -7.4162   18.6211   25.8082 C   0  0  0  0  0  0  0  0  0  0  0  0
   -7.2646   18.5123   24.4140 C   0  0  0  0  0  0  0  0  0  0  0  0
   -5.9712   18.4176   23.8465 C   0  0  0  0  0  0  0  0  0  0  0  0
   -4.8297   18.4487   24.6752 C   0  0  0  0  0  0  0  0  0  0  0  0
   -4.9853   18.5682   26.0696 C   0  0  0  0  0  0  0  0  0  0  0  0
   -6.2769   18.6512   26.6427 C   0  0  0  0  0  0  0  0  0  0  0  0
   -5.7969   18.2492   22.3718 C   0  0  0  0  0  0  0  0  0  0  0  0
   -6.5875   18.6852   21.5492 O   0  0  0  0  0  0  0  0  0  0  0  0
   -4.7112   17.5417   22.0115 N   0  0  0  0  0  0  0  0  0  0  0  0
   -4.0990   17.2105   22.7078 H   0  0  0  0  0  0  0  0  0  0  0  0
   -4.9269   16.2212   19.9046 N   0  0  0  0  0  0  0  0  0  0  0  0
   -4.4215   17.2548   20.6116 C   0  0  0  0  0  0  0  0  0  0  0  0
   -4.5620   16.2532   18.5736 C   0  0  0  0  0  0  0  0  0  0  0  0
   -3.4878   18.2456   19.6119 S   0  0  0  0  0  0  0  0  0  0  0  0
   -3.7424   17.3394   18.2004 C   0  0  0  0  0  0  0  0  0  0  0  0
   -8.2400   16.4783   30.3476 C   0  0  0  0  0  0  0  0  0  0  0  0
   -8.4805   16.4363   31.8326 C   0  0  0  0  0  0  0  0  0  0  0  0
   -8.1922   17.5641   32.6267 C   0  0  0  0  0  0  0  0  0  0  0  0
   -8.5361   17.5436   33.9955 C   0  0  0  0  0  0  0  0  0  0  0  0
   -9.1495   16.4098   34.5672 C   0  0  0  0  0  0  0  0  0  0  0  0
   -9.4219   15.2733   33.7683 C   0  0  0  0  0  0  0  0  0  0  0  0
   -9.0851   15.2912   32.4024 C   0  0  0  0  0  0  0  0  0  0  0  0
  -10.0730   15.5473   25.8954 C   0  0  0  0  0  0  0  0  0  0  0  0
   -9.9011   15.7194   24.4136 C   0  0  0  0  0  0  0  0  0  0  0  0
   -8.6499   15.4027   23.8360 C   0  0  0  0  0  0  0  0  0  0  0  0
   -8.4466   15.6095   22.4613 C   0  0  0  0  0  0  0  0  0  0  0  0
   -9.5030   16.1264   21.6770 C   0  0  0  0  0  0  0  0  0  0  0  0
  -10.7495   16.4356   22.2591 C   0  0  0  0  0  0  0  0  0  0  0  0
  -10.9604   16.2385   23.6381 C   0  0  0  0  0  0  0  0  0  0  0  0
  1  6  2  0  0  0
  2  8  1  0  0  0
  3  9  1  0  0  0
  4  6  1  0  0  0
  4 13  1  0  0  0
  4  7  1  0  0  0
  5  6  1  0  0  0
  5 10  1  0  0  0
  5 29  1  0  0  0
 13 14  1  0  0  0
  7  8  1  0  0  0
  7 45  1  0  0  0
  8  9  1  0  0  0
  9 10  1  0  0  0
 10 52  1  0  0  0
 29 30  1  0  0  0
 45 46  1  0  0  0
 46 47  2  0  0  0
 46 51  1  0  0  0
 47 48  1  0  0  0
 48 49  2  0  0  0
 49 50  1  0  0  0
 50 51  2  0  0  0
 52 53  1  0  0  0
 53 54  2  0  0  0
 53 58  1  0  0  0
 54 55  1  0  0  0
 55 56  2  0  0  0
 56 57  1  0  0  0
 57 58  2  0  0  0
 14 15  2  0  0  0
 14 19  1  0  0  0
 15 16  1  0  0  0
 16 17  2  0  0  0
 16 20  1  0  0  0
 17 18  1  0  0  0
 18 19  2  0  0  0
 20 21  2  0  0  0
 20 22  1  0  0  0
 22 25  1  0  0  0
 24 25  2  0  0  0
 24 26  1  0  0  0
 25 27  1  0  0  0
 26 28  2  0  0  0
 27 28  1  0  0  0
 30 31  2  0  0  0
 30 35  1  0  0  0
 31 32  1  0  0  0
 32 33  2  0  0  0
 32 36  1  0  0  0
 33 34  1  0  0  0
 34 35  2  0  0  0
 36 37  2  0  0  0
 36 38  1  0  0  0
 38 41  1  0  0  0
 40 41  2  0  0  0
 40 42  1  0  0  0
 41 43  1  0  0  0
 42 44  2  0  0  0
 43 44  1  0  0  0
  2 11  1  0  0  0
  3 12  1  0  0  0
 22 23  1  0  0  0
 38 39  1  0  0  0
M  END
> <minimizedAffinity>
-11.23858

$$$$
