3ARW_CTI_A_606


 26 30  0  0  0  0  0  0  0  0999 V2000
   16.7745  -11.5295   19.1815 C   0  0  0  0  0  0  0  0  0  0  0  0
   16.6366  -10.6479   20.2768 C   0  0  0  0  0  0  0  0  0  0  0  0
   17.7576  -10.0346   20.7892 C   0  0  0  0  0  0  0  0  0  0  0  0
   19.0032  -10.3471   20.2128 C   0  0  0  0  0  0  0  0  0  0  0  0
   15.3765  -10.3702   20.7787 C   0  0  0  0  0  0  0  0  0  0  0  0
   15.1727   -9.4547   21.8192 C   0  0  0  0  0  0  0  0  0  0  0  0
   16.3072   -8.8336   22.3391 C   0  0  0  0  0  0  0  0  0  0  0  0
   17.6021   -9.1380   21.8434 C   0  0  0  0  0  0  0  0  0  0  0  0
   14.2857  -11.0124   20.1528 N   0  0  0  0  0  0  0  0  0  0  0  0
   13.8659   -9.1934   22.2688 C   0  0  0  0  0  0  0  0  0  0  0  0
   12.7847   -9.8608   21.6490 C   0  0  0  0  0  0  0  0  0  0  0  0
   12.9995  -10.7435   20.6072 C   0  0  0  0  0  0  0  0  0  0  0  0
   14.4551  -11.9701   19.0205 C   0  0  0  0  0  0  0  0  0  0  0  0
   11.2117   -8.7745   23.1043 C   0  0  0  0  0  0  0  0  0  0  0  0
   12.2586   -8.0907   23.7525 C   0  0  0  0  0  0  0  0  0  0  0  0
   13.5752   -8.3052   23.3142 C   0  0  0  0  0  0  0  0  0  0  0  0
   11.4530   -9.6536   22.0497 C   0  0  0  0  0  0  0  0  0  0  0  0
   18.0066  -11.8324   18.6067 C   0  0  0  0  0  0  0  0  0  0  0  0
   19.1467  -11.2402   19.1489 C   0  0  0  0  0  0  0  0  0  0  0  0
   18.3751  -12.6864   17.5655 O   0  0  0  0  0  0  0  0  0  0  0  0
   19.7646  -12.3327   17.2353 C   0  0  0  0  0  0  0  0  0  0  0  0
   20.2567  -11.7101   18.4584 O   0  0  0  0  0  0  0  0  0  0  0  0
   10.3763  -10.3529   21.4796 O   0  0  0  0  0  0  0  0  0  0  0  0
    9.4005   -9.8757   20.4842 C   0  0  0  0  0  0  0  0  0  0  0  0
    9.9157   -8.6067   23.5004 O   0  0  0  0  0  0  0  0  0  0  0  0
    9.6327   -9.2008   24.7885 C   0  0  0  0  0  0  0  0  0  0  0  0
  1  2  2  0  0  0
  1 18  1  0  0  0
  2  3  1  0  0  0
  2  5  1  0  0  0
  3  4  2  0  0  0
  3  8  1  0  0  0
  4 19  1  0  0  0
  5  6  2  0  0  0
  5  9  1  0  0  0
  6  7  1  0  0  0
  6 10  1  0  0  0
  7  8  2  0  0  0
  9 12  2  0  0  0
  9 13  1  0  0  0
 10 11  2  0  0  0
 10 16  1  0  0  0
 11 12  1  0  0  0
 11 17  1  0  0  0
 14 15  1  0  0  0
 14 17  2  0  0  0
 14 25  1  0  0  0
 15 16  2  0  0  0
 17 23  1  0  0  0
 23 24  1  0  0  0
 25 26  1  0  0  0
 18 19  2  0  0  0
 18 20  1  0  0  0
 19 22  1  0  0  0
 20 21  1  0  0  0
 21 22  1  0  0  0
M  CHG 1   9   1
M  END
> <minimizedAffinity>
-10.29373

$$$$
3ARW_CTI_A_606


 26 30  0  0  0  0  0  0  0  0999 V2000
   13.4848   -9.5188   21.8268 C   0  0  0  0  0  0  0  0  0  0  0  0
   14.8885   -9.3620   21.8583 C   0  0  0  0  0  0  0  0  0  0  0  0
   15.4532   -8.5713   22.8336 C   0  0  0  0  0  0  0  0  0  0  0  0
   14.5921   -7.9231   23.7390 C   0  0  0  0  0  0  0  0  0  0  0  0
   15.6755  -10.0482   20.9490 C   0  0  0  0  0  0  0  0  0  0  0  0
   17.0745   -9.9833   20.9744 C   0  0  0  0  0  0  0  0  0  0  0  0
   17.6472   -9.1825   21.9613 C   0  0  0  0  0  0  0  0  0  0  0  0
   16.8404   -8.4572   22.8768 C   0  0  0  0  0  0  0  0  0  0  0  0
   15.0038  -10.8720   20.0193 N   0  0  0  0  0  0  0  0  0  0  0  0
   17.8216  -10.7246   20.0414 C   0  0  0  0  0  0  0  0  0  0  0  0
   17.1358  -11.5271   19.1011 C   0  0  0  0  0  0  0  0  0  0  0  0
   15.7554  -11.5999   19.1037 C   0  0  0  0  0  0  0  0  0  0  0  0
   13.5168  -10.9953   19.9779 C   0  0  0  0  0  0  0  0  0  0  0  0
   19.2086  -12.2262   18.1075 C   0  0  0  0  0  0  0  0  0  0  0  0
   19.9324  -11.4377   19.0230 C   0  0  0  0  0  0  0  0  0  0  0  0
   19.2226  -10.7038   19.9871 C   0  0  0  0  0  0  0  0  0  0  0  0
   17.8163  -12.2899   18.1358 C   0  0  0  0  0  0  0  0  0  0  0  0
   12.6338   -8.8831   22.7278 C   0  0  0  0  0  0  0  0  0  0  0  0
   13.2024   -8.0526   23.6930 C   0  0  0  0  0  0  0  0  0  0  0  0
   11.2437   -8.8637   22.8563 O   0  0  0  0  0  0  0  0  0  0  0  0
   10.9756   -8.2683   24.1749 C   0  0  0  0  0  0  0  0  0  0  0  0
   12.1800   -7.4938   24.4494 O   0  0  0  0  0  0  0  0  0  0  0  0
   17.1443  -13.0462   17.1611 O   0  0  0  0  0  0  0  0  0  0  0  0
   16.6134  -14.4160   17.2723 C   0  0  0  0  0  0  0  0  0  0  0  0
   19.8528  -12.9501   17.1454 O   0  0  0  0  0  0  0  0  0  0  0  0
   20.4949  -14.1388   17.6622 C   0  0  0  0  0  0  0  0  0  0  0  0
  1  2  2  0  0  0
  1 18  1  0  0  0
  2  3  1  0  0  0
  2  5  1  0  0  0
  3  4  2  0  0  0
  3  8  1  0  0  0
  4 19  1  0  0  0
  5  6  2  0  0  0
  5  9  1  0  0  0
  6  7  1  0  0  0
  6 10  1  0  0  0
  7  8  2  0  0  0
  9 12  2  0  0  0
  9 13  1  0  0  0
 10 11  2  0  0  0
 10 16  1  0  0  0
 11 12  1  0  0  0
 11 17  1  0  0  0
 14 15  1  0  0  0
 14 17  2  0  0  0
 14 25  1  0  0  0
 15 16  2  0  0  0
 17 23  1  0  0  0
 23 24  1  0  0  0
 25 26  1  0  0  0
 18 19  2  0  0  0
 18 20  1  0  0  0
 19 22  1  0  0  0
 20 21  1  0  0  0
 21 22  1  0  0  0
M  CHG 1   9   1
M  END
> <minimizedAffinity>
-10.15272

$$$$
3ARW_CTI_A_606


 26 30  0  0  0  0  0  0  0  0999 V2000
   16.2669  -12.4327   18.5958 C   0  0  0  0  0  0  0  0  0  0  0  0
   17.3315  -11.8464   19.3160 C   0  0  0  0  0  0  0  0  0  0  0  0
   18.6211  -12.2510   19.0541 C   0  0  0  0  0  0  0  0  0  0  0  0
   18.8139  -13.2646   18.0967 C   0  0  0  0  0  0  0  0  0  0  0  0
   17.0692  -10.8382   20.2278 C   0  0  0  0  0  0  0  0  0  0  0  0
   18.0896  -10.1754   20.9219 C   0  0  0  0  0  0  0  0  0  0  0  0
   19.3957  -10.5847   20.6579 C   0  0  0  0  0  0  0  0  0  0  0  0
   19.6638  -11.6368   19.7434 C   0  0  0  0  0  0  0  0  0  0  0  0
   15.7179  -10.4610   20.3893 N   0  0  0  0  0  0  0  0  0  0  0  0
   17.7629   -9.1400   21.8159 C   0  0  0  0  0  0  0  0  0  0  0  0
   16.4042   -8.7882   21.9856 C   0  0  0  0  0  0  0  0  0  0  0  0
   15.4101   -9.4350   21.2757 C   0  0  0  0  0  0  0  0  0  0  0  0
   14.6027  -11.1186   19.6462 C   0  0  0  0  0  0  0  0  0  0  0  0
   16.9869   -7.1068   23.5999 C   0  0  0  0  0  0  0  0  0  0  0  0
   18.3519   -7.4267   23.4647 C   0  0  0  0  0  0  0  0  0  0  0  0
   18.7199   -8.4371   22.5618 C   0  0  0  0  0  0  0  0  0  0  0  0
   16.0032   -7.7679   22.8660 C   0  0  0  0  0  0  0  0  0  0  0  0
   16.4590  -13.4303   17.6429 C   0  0  0  0  0  0  0  0  0  0  0  0
   17.7616  -13.8668   17.4037 C   0  0  0  0  0  0  0  0  0  0  0  0
   15.5696  -14.1634   16.8551 O   0  0  0  0  0  0  0  0  0  0  0  0
   16.3981  -14.8341   15.8408 C   0  0  0  0  0  0  0  0  0  0  0  0
   17.7177  -14.8842   16.4589 O   0  0  0  0  0  0  0  0  0  0  0  0
   14.6529   -7.4480   23.0849 O   0  0  0  0  0  0  0  0  0  0  0  0
   13.7309   -8.0104   24.0870 C   0  0  0  0  0  0  0  0  0  0  0  0
   16.5782   -6.1386   24.4718 O   0  0  0  0  0  0  0  0  0  0  0  0
   16.6678   -6.5456   25.8570 C   0  0  0  0  0  0  0  0  0  0  0  0
  1  2  2  0  0  0
  1 18  1  0  0  0
  2  3  1  0  0  0
  2  5  1  0  0  0
  3  4  2  0  0  0
  3  8  1  0  0  0
  4 19  1  0  0  0
  5  6  2  0  0  0
  5  9  1  0  0  0
  6  7  1  0  0  0
  6 10  1  0  0  0
  7  8  2  0  0  0
  9 12  2  0  0  0
  9 13  1  0  0  0
 10 11  2  0  0  0
 10 16  1  0  0  0
 11 12  1  0  0  0
 11 17  1  0  0  0
 14 15  1  0  0  0
 14 17  2  0  0  0
 14 25  1  0  0  0
 15 16  2  0  0  0
 17 23  1  0  0  0
 23 24  1  0  0  0
 25 26  1  0  0  0
 18 19  2  0  0  0
 18 20  1  0  0  0
 19 22  1  0  0  0
 20 21  1  0  0  0
 21 22  1  0  0  0
M  CHG 1   9   1
M  END
> <minimizedAffinity>
-10.08529

$$$$
3ARW_CTI_A_606


 26 30  0  0  0  0  0  0  0  0999 V2000
   19.5069  -10.3977   20.7978 C   0  0  0  0  0  0  0  0  0  0  0  0
   18.1033  -10.2942   20.6757 C   0  0  0  0  0  0  0  0  0  0  0  0
   17.4716  -10.9368   19.6349 C   0  0  0  0  0  0  0  0  0  0  0  0
   18.2681  -11.6434   18.7141 C   0  0  0  0  0  0  0  0  0  0  0  0
   17.3813   -9.6002   21.6317 C   0  0  0  0  0  0  0  0  0  0  0  0
   15.9832   -9.5200   21.5986 C   0  0  0  0  0  0  0  0  0  0  0  0
   15.3427  -10.1699   20.5447 C   0  0  0  0  0  0  0  0  0  0  0  0
   16.0838  -10.8587   19.5491 C   0  0  0  0  0  0  0  0  0  0  0  0
   18.1170   -9.0176   22.6869 N   0  0  0  0  0  0  0  0  0  0  0  0
   15.3029   -8.8232   22.6134 C   0  0  0  0  0  0  0  0  0  0  0  0
   16.0532   -8.2247   23.6513 C   0  0  0  0  0  0  0  0  0  0  0  0
   17.4309   -8.3328   23.6837 C   0  0  0  0  0  0  0  0  0  0  0  0
   19.6043   -9.1062   22.7783 C   0  0  0  0  0  0  0  0  0  0  0  0
   14.0538   -7.3777   24.6794 C   0  0  0  0  0  0  0  0  0  0  0  0
   13.2672   -7.9548   23.6635 C   0  0  0  0  0  0  0  0  0  0  0  0
   13.9083   -8.6811   22.6470 C   0  0  0  0  0  0  0  0  0  0  0  0
   15.4416   -7.5081   24.6949 C   0  0  0  0  0  0  0  0  0  0  0  0
   20.2937  -11.1035   19.8907 C   0  0  0  0  0  0  0  0  0  0  0  0
   19.6585  -11.7238   18.8153 C   0  0  0  0  0  0  0  0  0  0  0  0
   21.6723  -11.3027   19.7959 O   0  0  0  0  0  0  0  0  0  0  0  0
   21.8504  -12.3819   18.8117 C   0  0  0  0  0  0  0  0  0  0  0  0
   20.6261  -12.3270   18.0218 O   0  0  0  0  0  0  0  0  0  0  0  0
   16.1801   -6.8617   25.7001 O   0  0  0  0  0  0  0  0  0  0  0  0
   16.5325   -7.3615   27.0404 C   0  0  0  0  0  0  0  0  0  0  0  0
   13.4779   -6.6541   25.6841 O   0  0  0  0  0  0  0  0  0  0  0  0
   12.7647   -7.4737   26.6391 C   0  0  0  0  0  0  0  0  0  0  0  0
  1  2  2  0  0  0
  1 18  1  0  0  0
  2  3  1  0  0  0
  2  5  1  0  0  0
  3  4  2  0  0  0
  3  8  1  0  0  0
  4 19  1  0  0  0
  5  6  2  0  0  0
  5  9  1  0  0  0
  6  7  1  0  0  0
  6 10  1  0  0  0
  7  8  2  0  0  0
  9 12  2  0  0  0
  9 13  1  0  0  0
 10 11  2  0  0  0
 10 16  1  0  0  0
 11 12  1  0  0  0
 11 17  1  0  0  0
 14 15  1  0  0  0
 14 17  2  0  0  0
 14 25  1  0  0  0
 15 16  2  0  0  0
 17 23  1  0  0  0
 23 24  1  0  0  0
 25 26  1  0  0  0
 18 19  2  0  0  0
 18 20  1  0  0  0
 19 22  1  0  0  0
 20 21  1  0  0  0
 21 22  1  0  0  0
M  CHG 1   9   1
M  END
> <minimizedAffinity>
-9.87201

$$$$
3ARW_CTI_A_606


 26 30  0  0  0  0  0  0  0  0999 V2000
   15.2702   -8.1915   23.6700 C   0  0  0  0  0  0  0  0  0  0  0  0
   16.6196   -8.4850   23.3719 C   0  0  0  0  0  0  0  0  0  0  0  0
   17.5996   -8.1134   24.2646 C   0  0  0  0  0  0  0  0  0  0  0  0
   17.2074   -7.4208   25.4255 C   0  0  0  0  0  0  0  0  0  0  0  0
   16.9298   -9.1892   22.2210 C   0  0  0  0  0  0  0  0  0  0  0  0
   18.2421   -9.5656   21.9072 C   0  0  0  0  0  0  0  0  0  0  0  0
   19.2352   -9.1893   22.8102 C   0  0  0  0  0  0  0  0  0  0  0  0
   18.9215   -8.4437   23.9767 C   0  0  0  0  0  0  0  0  0  0  0  0
   15.8489   -9.5675   21.3947 N   0  0  0  0  0  0  0  0  0  0  0  0
   18.4921  -10.3043   20.7368 C   0  0  0  0  0  0  0  0  0  0  0  0
   17.4036  -10.6563   19.9063 C   0  0  0  0  0  0  0  0  0  0  0  0
   16.1111  -10.2985   20.2415 C   0  0  0  0  0  0  0  0  0  0  0  0
   14.4326   -9.2152   21.7079 C   0  0  0  0  0  0  0  0  0  0  0  0
   18.8740  -11.7530   18.3548 C   0  0  0  0  0  0  0  0  0  0  0  0
   19.9879  -11.4209   19.1503 C   0  0  0  0  0  0  0  0  0  0  0  0
   19.7756  -10.7067   20.3405 C   0  0  0  0  0  0  0  0  0  0  0  0
   17.5787  -11.3881   18.7187 C   0  0  0  0  0  0  0  0  0  0  0  0
   14.8820   -7.5128   24.8229 C   0  0  0  0  0  0  0  0  0  0  0  0
   15.8774   -7.1035   25.7095 C   0  0  0  0  0  0  0  0  0  0  0  0
   13.6369   -7.0908   25.2925 O   0  0  0  0  0  0  0  0  0  0  0  0
   13.8509   -6.7110   26.6978 C   0  0  0  0  0  0  0  0  0  0  0  0
   15.2774   -6.4153   26.7565 O   0  0  0  0  0  0  0  0  0  0  0  0
   16.5122  -11.6947   17.8573 O   0  0  0  0  0  0  0  0  0  0  0  0
   15.7306  -12.9410   17.7775 C   0  0  0  0  0  0  0  0  0  0  0  0
   19.0299  -12.4381   17.1839 O   0  0  0  0  0  0  0  0  0  0  0  0
   19.4345  -13.8131   17.3787 C   0  0  0  0  0  0  0  0  0  0  0  0
  1  2  2  0  0  0
  1 18  1  0  0  0
  2  3  1  0  0  0
  2  5  1  0  0  0
  3  4  2  0  0  0
  3  8  1  0  0  0
  4 19  1  0  0  0
  5  6  2  0  0  0
  5  9  1  0  0  0
  6  7  1  0  0  0
  6 10  1  0  0  0
  7  8  2  0  0  0
  9 12  2  0  0  0
  9 13  1  0  0  0
 10 11  2  0  0  0
 10 16  1  0  0  0
 11 12  1  0  0  0
 11 17  1  0  0  0
 14 15  1  0  0  0
 14 17  2  0  0  0
 14 25  1  0  0  0
 15 16  2  0  0  0
 17 23  1  0  0  0
 23 24  1  0  0  0
 25 26  1  0  0  0
 18 19  2  0  0  0
 18 20  1  0  0  0
 19 22  1  0  0  0
 20 21  1  0  0  0
 21 22  1  0  0  0
M  CHG 1   9   1
M  END
> <minimizedAffinity>
-9.83851

$$$$
3ARW_CTI_A_606


 26 30  0  0  0  0  0  0  0  0999 V2000
   19.5084  -10.3016   20.9224 C   0  0  0  0  0  0  0  0  0  0  0  0
   18.1411   -9.9775   21.0688 C   0  0  0  0  0  0  0  0  0  0  0  0
   17.2429  -10.4169   20.1226 C   0  0  0  0  0  0  0  0  0  0  0  0
   17.7417  -11.1450   19.0261 C   0  0  0  0  0  0  0  0  0  0  0  0
   17.7186   -9.2763   22.1853 C   0  0  0  0  0  0  0  0  0  0  0  0
   16.3682   -8.9842   22.4164 C   0  0  0  0  0  0  0  0  0  0  0  0
   15.4579   -9.4283   21.4586 C   0  0  0  0  0  0  0  0  0  0  0  0
   15.8931  -10.1235   20.3000 C   0  0  0  0  0  0  0  0  0  0  0  0
   18.7105   -8.9129   23.1224 N   0  0  0  0  0  0  0  0  0  0  0  0
   15.9967   -8.2921   23.5830 C   0  0  0  0  0  0  0  0  0  0  0  0
   17.0025   -7.9137   24.5015 C   0  0  0  0  0  0  0  0  0  0  0  0
   18.3283   -8.2300   24.2716 C   0  0  0  0  0  0  0  0  0  0  0  0
   20.1561   -9.2321   22.9314 C   0  0  0  0  0  0  0  0  0  0  0  0
   15.3768   -6.8768   25.9348 C   0  0  0  0  0  0  0  0  0  0  0  0
   14.3431   -7.2308   25.0460 C   0  0  0  0  0  0  0  0  0  0  0  0
   14.6714   -7.9459   23.8830 C   0  0  0  0  0  0  0  0  0  0  0  0
   16.7059   -7.2150   25.6850 C   0  0  0  0  0  0  0  0  0  0  0  0
   20.0003  -11.0289   19.8411 C   0  0  0  0  0  0  0  0  0  0  0  0
   19.0964  -11.4425   18.8631 C   0  0  0  0  0  0  0  0  0  0  0  0
   21.2902  -11.4229   19.4803 O   0  0  0  0  0  0  0  0  0  0  0  0
   21.1163  -12.4189   18.4113 C   0  0  0  0  0  0  0  0  0  0  0  0
   19.8004  -12.1066   17.8666 O   0  0  0  0  0  0  0  0  0  0  0  0
   17.7024   -6.7846   26.5768 O   0  0  0  0  0  0  0  0  0  0  0  0
   18.1581   -7.4310   27.8198 C   0  0  0  0  0  0  0  0  0  0  0  0
   15.1094   -6.1730   27.0740 O   0  0  0  0  0  0  0  0  0  0  0  0
   13.9776   -6.6914   27.8107 C   0  0  0  0  0  0  0  0  0  0  0  0
  1  2  2  0  0  0
  1 18  1  0  0  0
  2  3  1  0  0  0
  2  5  1  0  0  0
  3  4  2  0  0  0
  3  8  1  0  0  0
  4 19  1  0  0  0
  5  6  2  0  0  0
  5  9  1  0  0  0
  6  7  1  0  0  0
  6 10  1  0  0  0
  7  8  2  0  0  0
  9 12  2  0  0  0
  9 13  1  0  0  0
 10 11  2  0  0  0
 10 16  1  0  0  0
 11 12  1  0  0  0
 11 17  1  0  0  0
 14 15  1  0  0  0
 14 17  2  0  0  0
 14 25  1  0  0  0
 15 16  2  0  0  0
 17 23  1  0  0  0
 23 24  1  0  0  0
 25 26  1  0  0  0
 18 19  2  0  0  0
 18 20  1  0  0  0
 19 22  1  0  0  0
 20 21  1  0  0  0
 21 22  1  0  0  0
M  CHG 1   9   1
M  END
> <minimizedAffinity>
-9.81858

$$$$
3ARW_CTI_A_606


 26 30  0  0  0  0  0  0  0  0999 V2000
   19.6025   -9.1247   22.6153 C   0  0  0  0  0  0  0  0  0  0  0  0
   18.3987   -9.3431   21.9088 C   0  0  0  0  0  0  0  0  0  0  0  0
   17.3432   -8.4802   22.0997 C   0  0  0  0  0  0  0  0  0  0  0  0
   17.5056   -7.4326   23.0257 C   0  0  0  0  0  0  0  0  0  0  0  0
   18.3180  -10.3815   20.9965 C   0  0  0  0  0  0  0  0  0  0  0  0
   17.1739  -10.6056   20.2200 C   0  0  0  0  0  0  0  0  0  0  0  0
   16.1044   -9.7326   20.4130 C   0  0  0  0  0  0  0  0  0  0  0  0
   16.1763   -8.6844   21.3675 C   0  0  0  0  0  0  0  0  0  0  0  0
   19.4713  -11.1807   20.8373 N   0  0  0  0  0  0  0  0  0  0  0  0
   17.1611  -11.6604   19.2898 C   0  0  0  0  0  0  0  0  0  0  0  0
   18.3142  -12.4674   19.1571 C   0  0  0  0  0  0  0  0  0  0  0  0
   19.4444  -12.2192   19.9132 C   0  0  0  0  0  0  0  0  0  0  0  0
   20.7221  -10.9570   21.6208 C   0  0  0  0  0  0  0  0  0  0  0  0
   17.2406  -13.8180   17.4852 C   0  0  0  0  0  0  0  0  0  0  0  0
   16.0694  -13.0423   17.5870 C   0  0  0  0  0  0  0  0  0  0  0  0
   16.0530  -11.9635   18.4857 C   0  0  0  0  0  0  0  0  0  0  0  0
   18.3712  -13.5423   18.2526 C   0  0  0  0  0  0  0  0  0  0  0  0
   19.7652   -8.0833   23.5258 C   0  0  0  0  0  0  0  0  0  0  0  0
   18.6840   -7.2308   23.7474 C   0  0  0  0  0  0  0  0  0  0  0  0
   20.8300   -7.7090   24.3475 O   0  0  0  0  0  0  0  0  0  0  0  0
   20.4996   -6.3608   24.8355 C   0  0  0  0  0  0  0  0  0  0  0  0
   19.0479   -6.3015   24.7136 O   0  0  0  0  0  0  0  0  0  0  0  0
   19.4905  -14.3853   18.1525 O   0  0  0  0  0  0  0  0  0  0  0  0
   20.6892  -14.2176   17.3126 C   0  0  0  0  0  0  0  0  0  0  0  0
   17.3023  -14.8831   16.6328 O   0  0  0  0  0  0  0  0  0  0  0  0
   16.1204  -15.0233   15.8107 C   0  0  0  0  0  0  0  0  0  0  0  0
  1  2  2  0  0  0
  1 18  1  0  0  0
  2  3  1  0  0  0
  2  5  1  0  0  0
  3  4  2  0  0  0
  3  8  1  0  0  0
  4 19  1  0  0  0
  5  6  2  0  0  0
  5  9  1  0  0  0
  6  7  1  0  0  0
  6 10  1  0  0  0
  7  8  2  0  0  0
  9 12  2  0  0  0
  9 13  1  0  0  0
 10 11  2  0  0  0
 10 16  1  0  0  0
 11 12  1  0  0  0
 11 17  1  0  0  0
 14 15  1  0  0  0
 14 17  2  0  0  0
 14 25  1  0  0  0
 15 16  2  0  0  0
 17 23  1  0  0  0
 23 24  1  0  0  0
 25 26  1  0  0  0
 18 19  2  0  0  0
 18 20  1  0  0  0
 19 22  1  0  0  0
 20 21  1  0  0  0
 21 22  1  0  0  0
M  CHG 1   9   1
M  END
> <minimizedAffinity>
-9.70703

$$$$
3ARW_CTI_A_606


 26 30  0  0  0  0  0  0  0  0999 V2000
   15.7776  -11.0505   19.4075 C   0  0  0  0  0  0  0  0  0  0  0  0
   17.1061  -10.9019   19.8647 C   0  0  0  0  0  0  0  0  0  0  0  0
   18.1328  -11.4547   19.1329 C   0  0  0  0  0  0  0  0  0  0  0  0
   17.8015  -12.1783   17.9719 C   0  0  0  0  0  0  0  0  0  0  0  0
   17.3596  -10.1576   21.0042 C   0  0  0  0  0  0  0  0  0  0  0  0
   18.6604   -9.9213   21.4674 C   0  0  0  0  0  0  0  0  0  0  0  0
   19.7007  -10.4811   20.7274 C   0  0  0  0  0  0  0  0  0  0  0  0
   19.4403  -11.2671   19.5743 C   0  0  0  0  0  0  0  0  0  0  0  0
   16.2427   -9.5909   21.6566 N   0  0  0  0  0  0  0  0  0  0  0  0
   18.8567   -9.1341   22.6162 C   0  0  0  0  0  0  0  0  0  0  0  0
   17.7283   -8.5922   23.2731 C   0  0  0  0  0  0  0  0  0  0  0  0
   16.4522   -8.8140   22.7905 C   0  0  0  0  0  0  0  0  0  0  0  0
   14.8427   -9.7905   21.1789 C   0  0  0  0  0  0  0  0  0  0  0  0
   19.1243   -7.5708   24.9406 C   0  0  0  0  0  0  0  0  0  0  0  0
   20.2758   -8.0935   24.3204 C   0  0  0  0  0  0  0  0  0  0  0  0
   20.1222   -8.8625   23.1556 C   0  0  0  0  0  0  0  0  0  0  0  0
   17.8480   -7.8014   24.4295 C   0  0  0  0  0  0  0  0  0  0  0  0
   15.4511  -11.7601   18.2542 C   0  0  0  0  0  0  0  0  0  0  0  0
   16.4873  -12.3517   17.5326 C   0  0  0  0  0  0  0  0  0  0  0  0
   14.2298  -12.0613   17.6485 O   0  0  0  0  0  0  0  0  0  0  0  0
   14.5659  -12.5669   16.3081 C   0  0  0  0  0  0  0  0  0  0  0  0
   15.9379  -13.0373   16.4565 O   0  0  0  0  0  0  0  0  0  0  0  0
   16.7316   -7.3048   25.1226 O   0  0  0  0  0  0  0  0  0  0  0  0
   16.1059   -5.9752   25.0153 C   0  0  0  0  0  0  0  0  0  0  0  0
   19.2210   -6.8252   26.0805 O   0  0  0  0  0  0  0  0  0  0  0  0
   20.0777   -5.6689   25.9332 C   0  0  0  0  0  0  0  0  0  0  0  0
  1  2  2  0  0  0
  1 18  1  0  0  0
  2  3  1  0  0  0
  2  5  1  0  0  0
  3  4  2  0  0  0
  3  8  1  0  0  0
  4 19  1  0  0  0
  5  6  2  0  0  0
  5  9  1  0  0  0
  6  7  1  0  0  0
  6 10  1  0  0  0
  7  8  2  0  0  0
  9 12  2  0  0  0
  9 13  1  0  0  0
 10 11  2  0  0  0
 10 16  1  0  0  0
 11 12  1  0  0  0
 11 17  1  0  0  0
 14 15  1  0  0  0
 14 17  2  0  0  0
 14 25  1  0  0  0
 15 16  2  0  0  0
 17 23  1  0  0  0
 23 24  1  0  0  0
 25 26  1  0  0  0
 18 19  2  0  0  0
 18 20  1  0  0  0
 19 22  1  0  0  0
 20 21  1  0  0  0
 21 22  1  0  0  0
M  CHG 1   9   1
M  END
> <minimizedAffinity>
-9.69002

$$$$
3ARW_CTI_A_606


 26 30  0  0  0  0  0  0  0  0999 V2000
   17.0421   -8.5773   22.9236 C   0  0  0  0  0  0  0  0  0  0  0  0
   18.0306   -9.2730   22.1923 C   0  0  0  0  0  0  0  0  0  0  0  0
   19.3245   -9.2901   22.6622 C   0  0  0  0  0  0  0  0  0  0  0  0
   19.6084   -8.5764   23.8417 C   0  0  0  0  0  0  0  0  0  0  0  0
   17.6744   -9.9719   21.0514 C   0  0  0  0  0  0  0  0  0  0  0  0
   18.5980  -10.7330   20.3235 C   0  0  0  0  0  0  0  0  0  0  0  0
   19.9086  -10.7506   20.7982 C   0  0  0  0  0  0  0  0  0  0  0  0
   20.2805  -10.0124   21.9523 C   0  0  0  0  0  0  0  0  0  0  0  0
   16.3128   -9.9324   20.6792 N   0  0  0  0  0  0  0  0  0  0  0  0
   18.1709  -11.4438   19.1875 C   0  0  0  0  0  0  0  0  0  0  0  0
   16.8095  -11.3767   18.8125 C   0  0  0  0  0  0  0  0  0  0  0  0
   15.9049  -10.6408   19.5546 C   0  0  0  0  0  0  0  0  0  0  0  0
   15.2896   -9.1604   21.4443 C   0  0  0  0  0  0  0  0  0  0  0  0
   17.2076  -12.7978   16.9166 C   0  0  0  0  0  0  0  0  0  0  0  0
   18.5726  -12.8898   17.2514 C   0  0  0  0  0  0  0  0  0  0  0  0
   19.0320  -12.2155   18.3942 C   0  0  0  0  0  0  0  0  0  0  0  0
   16.3128  -12.0559   17.6861 C   0  0  0  0  0  0  0  0  0  0  0  0
   17.3222   -7.8776   24.0950 C   0  0  0  0  0  0  0  0  0  0  0  0
   18.6397   -7.8636   24.5516 C   0  0  0  0  0  0  0  0  0  0  0  0
   16.5269   -7.1040   24.9424 O   0  0  0  0  0  0  0  0  0  0  0  0
   17.3287   -6.8957   26.1584 C   0  0  0  0  0  0  0  0  0  0  0  0
   18.6995   -7.0804   25.6973 O   0  0  0  0  0  0  0  0  0  0  0  0
   14.9746  -11.9513   17.2716 O   0  0  0  0  0  0  0  0  0  0  0  0
   13.9898  -13.0302   17.0799 C   0  0  0  0  0  0  0  0  0  0  0  0
   16.7148  -13.4276   15.8097 O   0  0  0  0  0  0  0  0  0  0  0  0
   16.6370  -14.8642   15.9596 C   0  0  0  0  0  0  0  0  0  0  0  0
  1  2  2  0  0  0
  1 18  1  0  0  0
  2  3  1  0  0  0
  2  5  1  0  0  0
  3  4  2  0  0  0
  3  8  1  0  0  0
  4 19  1  0  0  0
  5  6  2  0  0  0
  5  9  1  0  0  0
  6  7  1  0  0  0
  6 10  1  0  0  0
  7  8  2  0  0  0
  9 12  2  0  0  0
  9 13  1  0  0  0
 10 11  2  0  0  0
 10 16  1  0  0  0
 11 12  1  0  0  0
 11 17  1  0  0  0
 14 15  1  0  0  0
 14 17  2  0  0  0
 14 25  1  0  0  0
 15 16  2  0  0  0
 17 23  1  0  0  0
 23 24  1  0  0  0
 25 26  1  0  0  0
 18 19  2  0  0  0
 18 20  1  0  0  0
 19 22  1  0  0  0
 20 21  1  0  0  0
 21 22  1  0  0  0
M  CHG 1   9   1
M  END
> <minimizedAffinity>
-9.66638

$$$$
3ARW_CTI_A_606


 26 30  0  0  0  0  0  0  0  0999 V2000
   17.4334  -10.0604   20.8229 C   0  0  0  0  0  0  0  0  0  0  0  0
   16.0722  -10.3661   20.5999 C   0  0  0  0  0  0  0  0  0  0  0  0
   15.7416  -11.2832   19.6278 C   0  0  0  0  0  0  0  0  0  0  0  0
   16.7852  -11.8504   18.8725 C   0  0  0  0  0  0  0  0  0  0  0  0
   15.0999   -9.7858   21.3965 C   0  0  0  0  0  0  0  0  0  0  0  0
   13.7413  -10.1010   21.2650 C   0  0  0  0  0  0  0  0  0  0  0  0
   13.4054  -11.0291   20.2807 C   0  0  0  0  0  0  0  0  0  0  0  0
   14.3988  -11.6041   19.4453 C   0  0  0  0  0  0  0  0  0  0  0  0
   15.5447   -8.8952   22.3980 N   0  0  0  0  0  0  0  0  0  0  0  0
   12.8023   -9.4992   22.1219 C   0  0  0  0  0  0  0  0  0  0  0  0
   13.2588   -8.5916   23.1049 C   0  0  0  0  0  0  0  0  0  0  0  0
   14.6052   -8.3088   23.2385 C   0  0  0  0  0  0  0  0  0  0  0  0
   16.9852   -8.5561   22.5938 C   0  0  0  0  0  0  0  0  0  0  0  0
   11.0136   -8.2106   23.8707 C   0  0  0  0  0  0  0  0  0  0  0  0
   10.5145   -9.1051   22.9040 C   0  0  0  0  0  0  0  0  0  0  0  0
   11.4239   -9.7461   22.0474 C   0  0  0  0  0  0  0  0  0  0  0  0
   12.3774   -7.9483   23.9915 C   0  0  0  0  0  0  0  0  0  0  0  0
   18.4661  -10.6279   20.0803 C   0  0  0  0  0  0  0  0  0  0  0  0
   18.1296  -11.5290   19.0707 C   0  0  0  0  0  0  0  0  0  0  0  0
   19.8503  -10.4473   20.1018 O   0  0  0  0  0  0  0  0  0  0  0  0
   20.4065  -11.5488   19.3003 C   0  0  0  0  0  0  0  0  0  0  0  0
   19.2971  -11.9344   18.4364 O   0  0  0  0  0  0  0  0  0  0  0  0
   12.8130   -7.0025   24.9345 O   0  0  0  0  0  0  0  0  0  0  0  0
   13.1300   -7.2099   26.3582 C   0  0  0  0  0  0  0  0  0  0  0  0
   10.1686   -7.5556   24.7202 O   0  0  0  0  0  0  0  0  0  0  0  0
    9.4404   -8.4461   25.5973 C   0  0  0  0  0  0  0  0  0  0  0  0
  1  2  2  0  0  0
  1 18  1  0  0  0
  2  3  1  0  0  0
  2  5  1  0  0  0
  3  4  2  0  0  0
  3  8  1  0  0  0
  4 19  1  0  0  0
  5  6  2  0  0  0
  5  9  1  0  0  0
  6  7  1  0  0  0
  6 10  1  0  0  0
  7  8  2  0  0  0
  9 12  2  0  0  0
  9 13  1  0  0  0
 10 11  2  0  0  0
 10 16  1  0  0  0
 11 12  1  0  0  0
 11 17  1  0  0  0
 14 15  1  0  0  0
 14 17  2  0  0  0
 14 25  1  0  0  0
 15 16  2  0  0  0
 17 23  1  0  0  0
 23 24  1  0  0  0
 25 26  1  0  0  0
 18 19  2  0  0  0
 18 20  1  0  0  0
 19 22  1  0  0  0
 20 21  1  0  0  0
 21 22  1  0  0  0
M  CHG 1   9   1
M  END
> <minimizedAffinity>
-9.66238

$$$$
