3ZNS_NU7_A_1900


 38 42  0  0  0  0  0  0  0  0999 V2000
   -9.3681    3.4575  -15.7808 C   0  0  0  0  0  0  0  0  0  0  0  0
  -10.2779    4.0516  -15.1946 O   0  0  0  0  0  0  0  0  0  0  0  0
   -8.7517    3.9823  -16.8441 N   0  0  0  0  0  0  0  0  0  0  0  0
   -7.9795    3.5028  -17.2223 H   0  0  0  0  0  0  0  0  0  0  0  0
   -7.4482    0.5881  -14.2264 C   0  0  0  0  0  0  0  0  0  0  0  0
   -8.2175   -0.5127  -14.6199 C   0  0  0  0  0  0  0  0  0  0  0  0
   -9.3749   -0.3074  -15.3855 C   0  0  0  0  0  0  0  0  0  0  0  0
   -9.7555    0.9890  -15.7600 C   0  0  0  0  0  0  0  0  0  0  0  0
   -8.9792    2.0894  -15.3652 C   0  0  0  0  0  0  0  0  0  0  0  0
   -7.8197    1.8838  -14.6056 C   0  0  0  0  0  0  0  0  0  0  0  0
   -4.4450   -0.5626  -12.5567 C   0  0  0  0  0  0  0  0  0  0  0  0
   -5.4944   -0.7934  -13.3240 N   0  0  0  0  0  0  0  0  0  0  0  0
   -6.2195    0.3958  -13.4381 C   0  0  0  0  0  0  0  0  0  0  0  0
   -5.5996    1.3335  -12.7482 N   0  0  0  0  0  0  0  0  0  0  0  0
   -4.4649    0.7657  -12.1600 O   0  0  0  0  0  0  0  0  0  0  0  0
   -3.7506   -2.7736  -12.5379 F   0  0  0  0  0  0  0  0  0  0  0  0
   -3.3937   -1.5531  -12.1532 C   0  0  0  0  0  0  0  0  0  0  0  0
   -3.2496   -1.5651  -10.8358 F   0  0  0  0  0  0  0  0  0  0  0  0
   -2.2702   -1.1625  -12.7458 F   0  0  0  0  0  0  0  0  0  0  0  0
   -9.1738    5.2476  -17.4789 C   0  0  0  0  0  0  0  0  0  0  0  0
   -7.5198    6.6397  -21.7642 C   0  0  0  0  0  0  0  0  0  0  0  0
   -8.8482    6.2165  -21.2758 N   0  0  0  0  0  0  0  0  0  0  0  0
   -8.0810    5.7406  -18.4442 C   0  0  0  0  0  0  0  0  0  0  0  0
   -8.4510    7.1482  -18.9822 C   0  0  0  0  0  0  0  0  0  0  0  0
   -9.3539    7.1247  -20.2326 C   0  0  0  0  0  0  0  0  0  0  0  0
   -8.8012    4.8395  -20.7658 C   0  0  0  0  0  0  0  0  0  0  0  0
   -7.8350    4.7072  -19.5728 C   0  0  0  0  0  0  0  0  0  0  0  0
   -6.8058    5.8410  -17.6322 C   0  0  0  0  0  0  0  0  0  0  0  0
   -5.9807    4.8580  -17.3024 N   0  0  0  0  0  0  0  0  0  0  0  0
   -4.8446    5.1807  -16.5444 C   0  0  0  0  0  0  0  0  0  0  0  0
   -4.6998    6.4791  -16.2279 C   0  0  0  0  0  0  0  0  0  0  0  0
   -6.0952    7.3024  -16.9388 S   0  0  0  0  0  0  0  0  0  0  0  0
   -3.8605    4.1449  -16.1161 C   0  0  0  0  0  0  0  0  0  0  0  0
   -4.2753    2.8636  -15.7040 C   0  0  0  0  0  0  0  0  0  0  0  0
   -3.3376    1.9027  -15.3072 C   0  0  0  0  0  0  0  0  0  0  0  0
   -1.9717    2.2063  -15.3202 C   0  0  0  0  0  0  0  0  0  0  0  0
   -1.5499    3.4761  -15.7306 C   0  0  0  0  0  0  0  0  0  0  0  0
   -2.4881    4.4420  -16.1289 C   0  0  0  0  0  0  0  0  0  0  0  0
 21 22  1  0  0  0
 22 25  1  0  0  0
 22 26  1  0  0  0
 16 17  1  0  0  0
 17 18  1  0  0  0
 17 19  1  0  0  0
 17 11  1  0  0  0
 11 12  2  0  0  0
 11 15  1  0  0  0
 12 13  1  0  0  0
 13 14  2  0  0  0
 13  5  1  0  0  0
 14 15  1  0  0  0
  5  6  2  0  0  0
  5 10  1  0  0  0
  6  7  1  0  0  0
  7  8  2  0  0  0
  8  9  1  0  0  0
  9 10  2  0  0  0
  9  1  1  0  0  0
  1  2  2  0  0  0
  1  3  1  0  0  0
  3 20  1  0  0  0
 20 23  1  0  0  0
 23 24  1  0  0  0
 23 27  1  0  0  0
 23 28  1  0  0  0
 24 25  1  0  0  0
 26 27  1  0  0  0
 28 29  2  0  0  0
 28 32  1  0  0  0
 29 30  1  0  0  0
 30 31  2  0  0  0
 30 33  1  0  0  0
 31 32  1  0  0  0
 33 34  2  0  0  0
 33 38  1  0  0  0
 34 35  1  0  0  0
 35 36  2  0  0  0
 36 37  1  0  0  0
 37 38  2  0  0  0
  3  4  1  0  0  0
M  END
> <minimizedAffinity>
-10.66919

$$$$
3ZNS_NU7_A_1900


 38 42  0  0  0  0  0  0  0  0999 V2000
   -9.8773    4.5315  -15.2846 C   0  0  0  0  0  0  0  0  0  0  0  0
  -11.0581    4.7927  -15.5330 O   0  0  0  0  0  0  0  0  0  0  0  0
   -8.9340    5.4778  -15.2621 N   0  0  0  0  0  0  0  0  0  0  0  0
   -8.0251    5.2271  -14.9786 H   0  0  0  0  0  0  0  0  0  0  0  0
   -7.7831    1.5175  -14.3538 C   0  0  0  0  0  0  0  0  0  0  0  0
   -8.6210    0.4630  -14.7337 C   0  0  0  0  0  0  0  0  0  0  0  0
   -9.8802    0.7458  -15.2836 C   0  0  0  0  0  0  0  0  0  0  0  0
  -10.2945    2.0739  -15.4583 C   0  0  0  0  0  0  0  0  0  0  0  0
   -9.4495    3.1278  -15.0783 C   0  0  0  0  0  0  0  0  0  0  0  0
   -8.1892    2.8453  -14.5346 C   0  0  0  0  0  0  0  0  0  0  0  0
   -4.6833    0.1480  -13.0705 C   0  0  0  0  0  0  0  0  0  0  0  0
   -5.9018   -0.0177  -13.5514 N   0  0  0  0  0  0  0  0  0  0  0  0
   -6.4498    1.2453  -13.7914 C   0  0  0  0  0  0  0  0  0  0  0  0
   -5.5579    2.1596  -13.4627 N   0  0  0  0  0  0  0  0  0  0  0  0
   -4.4160    1.5060  -12.9885 O   0  0  0  0  0  0  0  0  0  0  0  0
   -4.1588   -2.1092  -13.0978 F   0  0  0  0  0  0  0  0  0  0  0  0
   -3.7262   -0.9315  -12.6612 C   0  0  0  0  0  0  0  0  0  0  0  0
   -3.6346   -0.9932  -11.3405 F   0  0  0  0  0  0  0  0  0  0  0  0
   -2.5542   -0.6108  -13.1995 F   0  0  0  0  0  0  0  0  0  0  0  0
   -9.1901    6.8821  -15.6425 C   0  0  0  0  0  0  0  0  0  0  0  0
   -7.2051   10.0742  -18.6270 C   0  0  0  0  0  0  0  0  0  0  0  0
   -8.3367   10.1353  -17.6795 N   0  0  0  0  0  0  0  0  0  0  0  0
   -8.1611    7.3374  -16.6927 C   0  0  0  0  0  0  0  0  0  0  0  0
   -7.2891    8.4821  -16.1123 C   0  0  0  0  0  0  0  0  0  0  0  0
   -7.8961    9.8882  -16.2961 C   0  0  0  0  0  0  0  0  0  0  0  0
   -9.3826    9.1742  -18.0546 C   0  0  0  0  0  0  0  0  0  0  0  0
   -8.8621    7.7243  -18.0198 C   0  0  0  0  0  0  0  0  0  0  0  0
   -7.2790    6.1386  -16.9758 C   0  0  0  0  0  0  0  0  0  0  0  0
   -6.1932    5.7630  -16.3157 N   0  0  0  0  0  0  0  0  0  0  0  0
   -5.5284    4.6056  -16.7494 C   0  0  0  0  0  0  0  0  0  0  0  0
   -6.0724    3.9777  -17.8062 C   0  0  0  0  0  0  0  0  0  0  0  0
   -7.4939    4.9333  -18.2497 S   0  0  0  0  0  0  0  0  0  0  0  0
   -4.2936    4.1057  -16.0786 C   0  0  0  0  0  0  0  0  0  0  0  0
   -3.7185    4.7929  -14.9920 C   0  0  0  0  0  0  0  0  0  0  0  0
   -2.5603    4.3080  -14.3727 C   0  0  0  0  0  0  0  0  0  0  0  0
   -1.9620    3.1275  -14.8271 C   0  0  0  0  0  0  0  0  0  0  0  0
   -2.5278    2.4364  -15.9047 C   0  0  0  0  0  0  0  0  0  0  0  0
   -3.6893    2.9204  -16.5279 C   0  0  0  0  0  0  0  0  0  0  0  0
 21 22  1  0  0  0
 22 25  1  0  0  0
 22 26  1  0  0  0
 16 17  1  0  0  0
 17 18  1  0  0  0
 17 19  1  0  0  0
 17 11  1  0  0  0
 11 12  2  0  0  0
 11 15  1  0  0  0
 12 13  1  0  0  0
 13 14  2  0  0  0
 13  5  1  0  0  0
 14 15  1  0  0  0
  5  6  2  0  0  0
  5 10  1  0  0  0
  6  7  1  0  0  0
  7  8  2  0  0  0
  8  9  1  0  0  0
  9 10  2  0  0  0
  9  1  1  0  0  0
  1  2  2  0  0  0
  1  3  1  0  0  0
  3 20  1  0  0  0
 20 23  1  0  0  0
 23 24  1  0  0  0
 23 27  1  0  0  0
 23 28  1  0  0  0
 24 25  1  0  0  0
 26 27  1  0  0  0
 28 29  2  0  0  0
 28 32  1  0  0  0
 29 30  1  0  0  0
 30 31  2  0  0  0
 30 33  1  0  0  0
 31 32  1  0  0  0
 33 34  2  0  0  0
 33 38  1  0  0  0
 34 35  1  0  0  0
 35 36  2  0  0  0
 36 37  1  0  0  0
 37 38  2  0  0  0
  3  4  1  0  0  0
M  END
> <minimizedAffinity>
-10.07869

$$$$
3ZNS_NU7_A_1900


 38 42  0  0  0  0  0  0  0  0999 V2000
   -9.6280    6.0481  -15.8857 C   0  0  0  0  0  0  0  0  0  0  0  0
  -10.5536    6.8652  -15.8840 O   0  0  0  0  0  0  0  0  0  0  0  0
   -9.8071    4.7769  -15.5142 N   0  0  0  0  0  0  0  0  0  0  0  0
   -9.0549    4.1494  -15.6126 H   0  0  0  0  0  0  0  0  0  0  0  0
   -5.8995    5.9639  -16.5391 C   0  0  0  0  0  0  0  0  0  0  0  0
   -5.6340    7.3058  -16.8346 C   0  0  0  0  0  0  0  0  0  0  0  0
   -6.6856    8.2342  -16.8314 C   0  0  0  0  0  0  0  0  0  0  0  0
   -7.9916    7.8239  -16.5280 C   0  0  0  0  0  0  0  0  0  0  0  0
   -8.2522    6.4777  -16.2296 C   0  0  0  0  0  0  0  0  0  0  0  0
   -7.2007    5.5513  -16.2269 C   0  0  0  0  0  0  0  0  0  0  0  0
   -2.9378    3.9563  -15.9657 C   0  0  0  0  0  0  0  0  0  0  0  0
   -3.6623    5.0328  -15.7217 N   0  0  0  0  0  0  0  0  0  0  0  0
   -4.8089    4.9748  -16.5186 C   0  0  0  0  0  0  0  0  0  0  0  0
   -4.7714    3.8637  -17.2283 N   0  0  0  0  0  0  0  0  0  0  0  0
   -3.5897    3.1845  -16.9151 O   0  0  0  0  0  0  0  0  0  0  0  0
   -1.2261    2.4065  -15.7676 F   0  0  0  0  0  0  0  0  0  0  0  0
   -1.6194    3.6029  -15.3445 C   0  0  0  0  0  0  0  0  0  0  0  0
   -1.7271    3.5550  -14.0244 F   0  0  0  0  0  0  0  0  0  0  0  0
   -0.7693    4.5557  -15.7129 F   0  0  0  0  0  0  0  0  0  0  0  0
  -11.0799    4.2686  -14.9631 C   0  0  0  0  0  0  0  0  0  0  0  0
  -14.1014    1.8387  -17.7921 C   0  0  0  0  0  0  0  0  0  0  0  0
  -14.1034    3.2102  -17.2434 N   0  0  0  0  0  0  0  0  0  0  0  0
  -11.5373    3.0304  -15.7548 C   0  0  0  0  0  0  0  0  0  0  0  0
  -11.6012    3.3682  -17.2679 C   0  0  0  0  0  0  0  0  0  0  0  0
  -12.9427    3.9827  -17.7175 C   0  0  0  0  0  0  0  0  0  0  0  0
  -14.1251    3.1835  -15.7746 C   0  0  0  0  0  0  0  0  0  0  0  0
  -12.8777    2.4851  -15.1997 C   0  0  0  0  0  0  0  0  0  0  0  0
  -10.4837    1.9651  -15.5300 C   0  0  0  0  0  0  0  0  0  0  0  0
   -9.3320    2.0934  -14.8873 N   0  0  0  0  0  0  0  0  0  0  0  0
   -8.5041    0.9642  -14.7915 C   0  0  0  0  0  0  0  0  0  0  0  0
   -8.9727   -0.1573  -15.3656 C   0  0  0  0  0  0  0  0  0  0  0  0
  -10.5417    0.2797  -16.0568 S   0  0  0  0  0  0  0  0  0  0  0  0
   -7.1853    1.0085  -14.0964 C   0  0  0  0  0  0  0  0  0  0  0  0
   -6.7359   -0.0661  -13.3046 C   0  0  0  0  0  0  0  0  0  0  0  0
   -5.4939   -0.0085  -12.6609 C   0  0  0  0  0  0  0  0  0  0  0  0
   -4.6810    1.1216  -12.8021 C   0  0  0  0  0  0  0  0  0  0  0  0
   -5.1180    2.1934  -13.5890 C   0  0  0  0  0  0  0  0  0  0  0  0
   -6.3633    2.1385  -14.2356 C   0  0  0  0  0  0  0  0  0  0  0  0
 21 22  1  0  0  0
 22 25  1  0  0  0
 22 26  1  0  0  0
 16 17  1  0  0  0
 17 18  1  0  0  0
 17 19  1  0  0  0
 17 11  1  0  0  0
 11 12  2  0  0  0
 11 15  1  0  0  0
 12 13  1  0  0  0
 13 14  2  0  0  0
 13  5  1  0  0  0
 14 15  1  0  0  0
  5  6  2  0  0  0
  5 10  1  0  0  0
  6  7  1  0  0  0
  7  8  2  0  0  0
  8  9  1  0  0  0
  9 10  2  0  0  0
  9  1  1  0  0  0
  1  2  2  0  0  0
  1  3  1  0  0  0
  3 20  1  0  0  0
 20 23  1  0  0  0
 23 24  1  0  0  0
 23 27  1  0  0  0
 23 28  1  0  0  0
 24 25  1  0  0  0
 26 27  1  0  0  0
 28 29  2  0  0  0
 28 32  1  0  0  0
 29 30  1  0  0  0
 30 31  2  0  0  0
 30 33  1  0  0  0
 31 32  1  0  0  0
 33 34  2  0  0  0
 33 38  1  0  0  0
 34 35  1  0  0  0
 35 36  2  0  0  0
 36 37  1  0  0  0
 37 38  2  0  0  0
  3  4  1  0  0  0
M  END
> <minimizedAffinity>
-9.81649

$$$$
3ZNS_NU7_A_1900


 38 42  0  0  0  0  0  0  0  0999 V2000
   -6.6282    5.1519  -16.6282 C   0  0  0  0  0  0  0  0  0  0  0  0
   -7.2433    5.5782  -15.6463 O   0  0  0  0  0  0  0  0  0  0  0  0
   -6.9998    5.4470  -17.8775 N   0  0  0  0  0  0  0  0  0  0  0  0
   -6.4265    5.1482  -18.6201 H   0  0  0  0  0  0  0  0  0  0  0  0
   -4.3240    2.5424  -15.1392 C   0  0  0  0  0  0  0  0  0  0  0  0
   -3.3002    2.4929  -16.0919 C   0  0  0  0  0  0  0  0  0  0  0  0
   -3.3766    3.3091  -17.2302 C   0  0  0  0  0  0  0  0  0  0  0  0
   -4.4660    4.1734  -17.4099 C   0  0  0  0  0  0  0  0  0  0  0  0
   -5.4887    4.2215  -16.4503 C   0  0  0  0  0  0  0  0  0  0  0  0
   -5.4093    3.4105  -15.3102 C   0  0  0  0  0  0  0  0  0  0  0  0
   -4.0615   -0.0583  -12.6295 C   0  0  0  0  0  0  0  0  0  0  0  0
   -4.1062    0.3194  -13.8939 N   0  0  0  0  0  0  0  0  0  0  0  0
   -4.2565    1.7084  -13.9276 C   0  0  0  0  0  0  0  0  0  0  0  0
   -4.2926    2.1571  -12.6879 N   0  0  0  0  0  0  0  0  0  0  0  0
   -4.1804    1.0635  -11.8235 O   0  0  0  0  0  0  0  0  0  0  0  0
   -4.7588   -1.6616  -11.1083 F   0  0  0  0  0  0  0  0  0  0  0  0
   -3.9179   -1.4603  -12.1168 C   0  0  0  0  0  0  0  0  0  0  0  0
   -2.6871   -1.6667  -11.6708 F   0  0  0  0  0  0  0  0  0  0  0  0
   -4.1860   -2.2594  -13.1442 F   0  0  0  0  0  0  0  0  0  0  0  0
   -8.2297    6.2001  -18.1974 C   0  0  0  0  0  0  0  0  0  0  0  0
  -10.4862    4.8736  -22.2205 C   0  0  0  0  0  0  0  0  0  0  0  0
   -9.5073    5.9345  -21.9066 N   0  0  0  0  0  0  0  0  0  0  0  0
   -9.1876    5.3172  -19.0170 C   0  0  0  0  0  0  0  0  0  0  0  0
   -8.3964    4.5682  -20.1218 C   0  0  0  0  0  0  0  0  0  0  0  0
   -8.2336    5.3694  -21.4298 C   0  0  0  0  0  0  0  0  0  0  0  0
  -10.0506    6.8657  -20.9086 C   0  0  0  0  0  0  0  0  0  0  0  0
  -10.3650    6.1544  -19.5784 C   0  0  0  0  0  0  0  0  0  0  0  0
   -9.7682    4.3042  -18.0514 C   0  0  0  0  0  0  0  0  0  0  0  0
   -9.1206    3.3511  -17.3972 N   0  0  0  0  0  0  0  0  0  0  0  0
   -9.8617    2.5224  -16.5407 C   0  0  0  0  0  0  0  0  0  0  0  0
  -11.1775    2.7866  -16.4622 C   0  0  0  0  0  0  0  0  0  0  0  0
  -11.4548    4.1573  -17.5461 S   0  0  0  0  0  0  0  0  0  0  0  0
   -9.2269    1.4164  -15.7673 C   0  0  0  0  0  0  0  0  0  0  0  0
   -9.3753    0.0703  -16.1541 C   0  0  0  0  0  0  0  0  0  0  0  0
   -8.7705   -0.9553  -15.4175 C   0  0  0  0  0  0  0  0  0  0  0  0
   -8.0052   -0.6509  -14.2863 C   0  0  0  0  0  0  0  0  0  0  0  0
   -7.8499    0.6841  -13.8957 C   0  0  0  0  0  0  0  0  0  0  0  0
   -8.4556    1.7148  -14.6324 C   0  0  0  0  0  0  0  0  0  0  0  0
 21 22  1  0  0  0
 22 25  1  0  0  0
 22 26  1  0  0  0
 16 17  1  0  0  0
 17 18  1  0  0  0
 17 19  1  0  0  0
 17 11  1  0  0  0
 11 12  2  0  0  0
 11 15  1  0  0  0
 12 13  1  0  0  0
 13 14  2  0  0  0
 13  5  1  0  0  0
 14 15  1  0  0  0
  5  6  2  0  0  0
  5 10  1  0  0  0
  6  7  1  0  0  0
  7  8  2  0  0  0
  8  9  1  0  0  0
  9 10  2  0  0  0
  9  1  1  0  0  0
  1  2  2  0  0  0
  1  3  1  0  0  0
  3 20  1  0  0  0
 20 23  1  0  0  0
 23 24  1  0  0  0
 23 27  1  0  0  0
 23 28  1  0  0  0
 24 25  1  0  0  0
 26 27  1  0  0  0
 28 29  2  0  0  0
 28 32  1  0  0  0
 29 30  1  0  0  0
 30 31  2  0  0  0
 30 33  1  0  0  0
 31 32  1  0  0  0
 33 34  2  0  0  0
 33 38  1  0  0  0
 34 35  1  0  0  0
 35 36  2  0  0  0
 36 37  1  0  0  0
 37 38  2  0  0  0
  3  4  1  0  0  0
M  END
> <minimizedAffinity>
-9.65659

$$$$
3ZNS_NU7_A_1900


 38 42  0  0  0  0  0  0  0  0999 V2000
   -8.7098    4.2468  -17.8794 C   0  0  0  0  0  0  0  0  0  0  0  0
   -8.6991    3.6533  -18.9619 O   0  0  0  0  0  0  0  0  0  0  0  0
   -9.7850    4.2499  -17.0858 N   0  0  0  0  0  0  0  0  0  0  0  0
   -9.7115    4.6696  -16.1983 H   0  0  0  0  0  0  0  0  0  0  0  0
   -5.3100    5.1906  -16.5058 C   0  0  0  0  0  0  0  0  0  0  0  0
   -5.3407    6.5858  -16.6097 C   0  0  0  0  0  0  0  0  0  0  0  0
   -6.4757    7.2132  -17.1444 C   0  0  0  0  0  0  0  0  0  0  0  0
   -7.5742    6.4504  -17.5654 C   0  0  0  0  0  0  0  0  0  0  0  0
   -7.5397    5.0518  -17.4566 C   0  0  0  0  0  0  0  0  0  0  0  0
   -6.4083    4.4254  -16.9168 C   0  0  0  0  0  0  0  0  0  0  0  0
   -2.7496    2.9112  -15.3313 C   0  0  0  0  0  0  0  0  0  0  0  0
   -3.9200    3.1308  -15.9016 N   0  0  0  0  0  0  0  0  0  0  0  0
   -4.1370    4.5110  -15.9311 C   0  0  0  0  0  0  0  0  0  0  0  0
   -3.0958    5.1116  -15.3880 N   0  0  0  0  0  0  0  0  0  0  0  0
   -2.1871    4.1292  -14.9818 O   0  0  0  0  0  0  0  0  0  0  0  0
   -2.7664    0.6300  -15.7395 F   0  0  0  0  0  0  0  0  0  0  0  0
   -2.1111    1.5780  -15.0787 C   0  0  0  0  0  0  0  0  0  0  0  0
   -2.1535    1.2810  -13.7878 F   0  0  0  0  0  0  0  0  0  0  0  0
   -0.8537    1.6847  -15.4957 F   0  0  0  0  0  0  0  0  0  0  0  0
  -11.0787    3.6534  -17.4769 C   0  0  0  0  0  0  0  0  0  0  0  0
  -14.4368    2.7548  -14.1674 C   0  0  0  0  0  0  0  0  0  0  0  0
  -14.3156    3.7559  -15.2469 N   0  0  0  0  0  0  0  0  0  0  0  0
  -11.6769    2.8741  -16.2920 C   0  0  0  0  0  0  0  0  0  0  0  0
  -13.0094    2.2053  -16.7220 C   0  0  0  0  0  0  0  0  0  0  0  0
  -14.2455    3.1155  -16.5713 C   0  0  0  0  0  0  0  0  0  0  0  0
  -13.1380    4.6087  -15.0365 C   0  0  0  0  0  0  0  0  0  0  0  0
  -11.8326    3.7903  -15.0517 C   0  0  0  0  0  0  0  0  0  0  0  0
  -10.6735    1.7952  -15.9388 C   0  0  0  0  0  0  0  0  0  0  0  0
   -9.5567    1.9311  -15.2388 N   0  0  0  0  0  0  0  0  0  0  0  0
   -8.7732    0.7868  -15.0233 C   0  0  0  0  0  0  0  0  0  0  0  0
   -9.2452   -0.3554  -15.5521 C   0  0  0  0  0  0  0  0  0  0  0  0
  -10.7571    0.0816  -16.3606 S   0  0  0  0  0  0  0  0  0  0  0  0
   -7.4953    0.8375  -14.2559 C   0  0  0  0  0  0  0  0  0  0  0  0
   -6.7888    2.0438  -14.0847 C   0  0  0  0  0  0  0  0  0  0  0  0
   -5.5917    2.0735  -13.3593 C   0  0  0  0  0  0  0  0  0  0  0  0
   -5.0851    0.8994  -12.7909 C   0  0  0  0  0  0  0  0  0  0  0  0
   -5.7816   -0.3036  -12.9535 C   0  0  0  0  0  0  0  0  0  0  0  0
   -6.9824   -0.3364  -13.6807 C   0  0  0  0  0  0  0  0  0  0  0  0
 21 22  1  0  0  0
 22 25  1  0  0  0
 22 26  1  0  0  0
 16 17  1  0  0  0
 17 18  1  0  0  0
 17 19  1  0  0  0
 17 11  1  0  0  0
 11 12  2  0  0  0
 11 15  1  0  0  0
 12 13  1  0  0  0
 13 14  2  0  0  0
 13  5  1  0  0  0
 14 15  1  0  0  0
  5  6  2  0  0  0
  5 10  1  0  0  0
  6  7  1  0  0  0
  7  8  2  0  0  0
  8  9  1  0  0  0
  9 10  2  0  0  0
  9  1  1  0  0  0
  1  2  2  0  0  0
  1  3  1  0  0  0
  3 20  1  0  0  0
 20 23  1  0  0  0
 23 24  1  0  0  0
 23 27  1  0  0  0
 23 28  1  0  0  0
 24 25  1  0  0  0
 26 27  1  0  0  0
 28 29  2  0  0  0
 28 32  1  0  0  0
 29 30  1  0  0  0
 30 31  2  0  0  0
 30 33  1  0  0  0
 31 32  1  0  0  0
 33 34  2  0  0  0
 33 38  1  0  0  0
 34 35  1  0  0  0
 35 36  2  0  0  0
 36 37  1  0  0  0
 37 38  2  0  0  0
  3  4  1  0  0  0
M  END
> <minimizedAffinity>
-9.61243

$$$$
3ZNS_NU7_A_1900


 38 42  0  0  0  0  0  0  0  0999 V2000
   -7.8545    4.7019  -18.2585 C   0  0  0  0  0  0  0  0  0  0  0  0
   -7.6873    3.9009  -19.1829 O   0  0  0  0  0  0  0  0  0  0  0  0
   -9.0677    5.1507  -17.9231 N   0  0  0  0  0  0  0  0  0  0  0  0
   -9.1521    5.7238  -17.1270 H   0  0  0  0  0  0  0  0  0  0  0  0
   -4.7578    4.9501  -16.0940 C   0  0  0  0  0  0  0  0  0  0  0  0
   -4.5075    6.3267  -16.1156 C   0  0  0  0  0  0  0  0  0  0  0  0
   -5.3510    7.1700  -16.8540 C   0  0  0  0  0  0  0  0  0  0  0  0
   -6.4407    6.6401  -17.5595 C   0  0  0  0  0  0  0  0  0  0  0  0
   -6.6892    5.2593  -17.5324 C   0  0  0  0  0  0  0  0  0  0  0  0
   -5.8500    4.4177  -16.7899 C   0  0  0  0  0  0  0  0  0  0  0  0
   -2.8750    2.2197  -14.6340 C   0  0  0  0  0  0  0  0  0  0  0  0
   -3.7499    2.6726  -15.5132 N   0  0  0  0  0  0  0  0  0  0  0  0
   -3.8969    4.0476  -15.3113 C   0  0  0  0  0  0  0  0  0  0  0  0
   -3.1062    4.4137  -14.3212 N   0  0  0  0  0  0  0  0  0  0  0  0
   -2.4396    3.2777  -13.8510 O   0  0  0  0  0  0  0  0  0  0  0  0
   -2.6697    0.1162  -15.5849 F   0  0  0  0  0  0  0  0  0  0  0  0
   -2.4153    0.8011  -14.4754 C   0  0  0  0  0  0  0  0  0  0  0  0
   -3.0586    0.2146  -13.4760 F   0  0  0  0  0  0  0  0  0  0  0  0
   -1.1114    0.8602  -14.2252 F   0  0  0  0  0  0  0  0  0  0  0  0
  -10.2883    4.8279  -18.6900 C   0  0  0  0  0  0  0  0  0  0  0  0
  -14.4513    5.9686  -16.5910 C   0  0  0  0  0  0  0  0  0  0  0  0
  -13.6154    6.6272  -17.6156 N   0  0  0  0  0  0  0  0  0  0  0  0
  -11.4632    4.5806  -17.7270 C   0  0  0  0  0  0  0  0  0  0  0  0
  -12.7831    4.4466  -18.5317 C   0  0  0  0  0  0  0  0  0  0  0  0
  -13.4809    5.7915  -18.8209 C   0  0  0  0  0  0  0  0  0  0  0  0
  -12.2879    6.9504  -17.0758 C   0  0  0  0  0  0  0  0  0  0  0  0
  -11.5268    5.6835  -16.6399 C   0  0  0  0  0  0  0  0  0  0  0  0
  -11.1748    3.2677  -17.0279 C   0  0  0  0  0  0  0  0  0  0  0  0
  -10.0772    2.9308  -16.3664 N   0  0  0  0  0  0  0  0  0  0  0  0
  -10.0261    1.6541  -15.7857 C   0  0  0  0  0  0  0  0  0  0  0  0
  -11.1178    0.8883  -15.9554 C   0  0  0  0  0  0  0  0  0  0  0  0
  -12.2434    1.8658  -16.9083 S   0  0  0  0  0  0  0  0  0  0  0  0
   -8.8325    1.1779  -15.0288 C   0  0  0  0  0  0  0  0  0  0  0  0
   -8.6432   -0.1873  -14.7390 C   0  0  0  0  0  0  0  0  0  0  0  0
   -7.5155   -0.6170  -14.0291 C   0  0  0  0  0  0  0  0  0  0  0  0
   -6.5585    0.3102  -13.6021 C   0  0  0  0  0  0  0  0  0  0  0  0
   -6.7368    1.6687  -13.8876 C   0  0  0  0  0  0  0  0  0  0  0  0
   -7.8669    2.1027  -14.5992 C   0  0  0  0  0  0  0  0  0  0  0  0
 21 22  1  0  0  0
 22 25  1  0  0  0
 22 26  1  0  0  0
 16 17  1  0  0  0
 17 18  1  0  0  0
 17 19  1  0  0  0
 17 11  1  0  0  0
 11 12  2  0  0  0
 11 15  1  0  0  0
 12 13  1  0  0  0
 13 14  2  0  0  0
 13  5  1  0  0  0
 14 15  1  0  0  0
  5  6  2  0  0  0
  5 10  1  0  0  0
  6  7  1  0  0  0
  7  8  2  0  0  0
  8  9  1  0  0  0
  9 10  2  0  0  0
  9  1  1  0  0  0
  1  2  2  0  0  0
  1  3  1  0  0  0
  3 20  1  0  0  0
 20 23  1  0  0  0
 23 24  1  0  0  0
 23 27  1  0  0  0
 23 28  1  0  0  0
 24 25  1  0  0  0
 26 27  1  0  0  0
 28 29  2  0  0  0
 28 32  1  0  0  0
 29 30  1  0  0  0
 30 31  2  0  0  0
 30 33  1  0  0  0
 31 32  1  0  0  0
 33 34  2  0  0  0
 33 38  1  0  0  0
 34 35  1  0  0  0
 35 36  2  0  0  0
 36 37  1  0  0  0
 37 38  2  0  0  0
  3  4  1  0  0  0
M  END
> <minimizedAffinity>
-9.48971

$$$$
3ZNS_NU7_A_1900


 38 42  0  0  0  0  0  0  0  0999 V2000
  -10.7030    3.4108  -17.5581 C   0  0  0  0  0  0  0  0  0  0  0  0
  -11.6904    2.9872  -18.1662 O   0  0  0  0  0  0  0  0  0  0  0  0
   -9.7847    4.1800  -18.1505 N   0  0  0  0  0  0  0  0  0  0  0  0
   -9.0618    4.5567  -17.5984 H   0  0  0  0  0  0  0  0  0  0  0  0
   -9.2290    1.7048  -14.5162 C   0  0  0  0  0  0  0  0  0  0  0  0
  -10.0367    2.2087  -13.4905 C   0  0  0  0  0  0  0  0  0  0  0  0
  -11.0572    3.1200  -13.8003 C   0  0  0  0  0  0  0  0  0  0  0  0
  -11.2719    3.5184  -15.1273 C   0  0  0  0  0  0  0  0  0  0  0  0
  -10.4611    3.0082  -16.1527 C   0  0  0  0  0  0  0  0  0  0  0  0
   -9.4456    2.0932  -15.8440 C   0  0  0  0  0  0  0  0  0  0  0  0
   -6.2842   -0.1198  -13.4532 C   0  0  0  0  0  0  0  0  0  0  0  0
   -6.9645    1.0073  -13.5541 N   0  0  0  0  0  0  0  0  0  0  0  0
   -8.1636    0.7333  -14.2176 C   0  0  0  0  0  0  0  0  0  0  0  0
   -8.2009   -0.5538  -14.5033 N   0  0  0  0  0  0  0  0  0  0  0  0
   -7.0173   -1.1387  -14.0420 O   0  0  0  0  0  0  0  0  0  0  0  0
   -4.0372   -0.6011  -13.7538 F   0  0  0  0  0  0  0  0  0  0  0  0
   -4.9356   -0.3000  -12.8225 C   0  0  0  0  0  0  0  0  0  0  0  0
   -4.9634   -1.2924  -11.9447 F   0  0  0  0  0  0  0  0  0  0  0  0
   -4.6508    0.8511  -12.2224 F   0  0  0  0  0  0  0  0  0  0  0  0
   -9.8028    4.4922  -19.5943 C   0  0  0  0  0  0  0  0  0  0  0  0
   -7.3518    7.4046  -22.5179 C   0  0  0  0  0  0  0  0  0  0  0  0
   -8.5767    6.5954  -22.6821 N   0  0  0  0  0  0  0  0  0  0  0  0
   -8.6568    5.4612  -19.9361 C   0  0  0  0  0  0  0  0  0  0  0  0
   -9.2356    6.8599  -20.2774 C   0  0  0  0  0  0  0  0  0  0  0  0
   -9.6375    7.0287  -21.7570 C   0  0  0  0  0  0  0  0  0  0  0  0
   -8.2884    5.1683  -22.4854 C   0  0  0  0  0  0  0  0  0  0  0  0
   -7.7647    4.8840  -21.0644 C   0  0  0  0  0  0  0  0  0  0  0  0
   -7.8021    5.5703  -18.6899 C   0  0  0  0  0  0  0  0  0  0  0  0
   -6.9024    4.7021  -18.2510 N   0  0  0  0  0  0  0  0  0  0  0  0
   -6.2150    5.0107  -17.0670 C   0  0  0  0  0  0  0  0  0  0  0  0
   -6.5383    6.1803  -16.4886 C   0  0  0  0  0  0  0  0  0  0  0  0
   -7.7835    6.8959  -17.5220 S   0  0  0  0  0  0  0  0  0  0  0  0
   -5.1904    4.0951  -16.4871 C   0  0  0  0  0  0  0  0  0  0  0  0
   -4.0771    3.6692  -17.2374 C   0  0  0  0  0  0  0  0  0  0  0  0
   -3.1236    2.8112  -16.6763 C   0  0  0  0  0  0  0  0  0  0  0  0
   -3.2661    2.3695  -15.3562 C   0  0  0  0  0  0  0  0  0  0  0  0
   -4.3677    2.7894  -14.6020 C   0  0  0  0  0  0  0  0  0  0  0  0
   -5.3258    3.6497  -15.1622 C   0  0  0  0  0  0  0  0  0  0  0  0
 21 22  1  0  0  0
 22 25  1  0  0  0
 22 26  1  0  0  0
 16 17  1  0  0  0
 17 18  1  0  0  0
 17 19  1  0  0  0
 17 11  1  0  0  0
 11 12  2  0  0  0
 11 15  1  0  0  0
 12 13  1  0  0  0
 13 14  2  0  0  0
 13  5  1  0  0  0
 14 15  1  0  0  0
  5  6  2  0  0  0
  5 10  1  0  0  0
  6  7  1  0  0  0
  7  8  2  0  0  0
  8  9  1  0  0  0
  9 10  2  0  0  0
  9  1  1  0  0  0
  1  2  2  0  0  0
  1  3  1  0  0  0
  3 20  1  0  0  0
 20 23  1  0  0  0
 23 24  1  0  0  0
 23 27  1  0  0  0
 23 28  1  0  0  0
 24 25  1  0  0  0
 26 27  1  0  0  0
 28 29  2  0  0  0
 28 32  1  0  0  0
 29 30  1  0  0  0
 30 31  2  0  0  0
 30 33  1  0  0  0
 31 32  1  0  0  0
 33 34  2  0  0  0
 33 38  1  0  0  0
 34 35  1  0  0  0
 35 36  2  0  0  0
 36 37  1  0  0  0
 37 38  2  0  0  0
  3  4  1  0  0  0
M  END
> <minimizedAffinity>
-9.41630

$$$$
3ZNS_NU7_A_1900


 38 42  0  0  0  0  0  0  0  0999 V2000
   -9.1334    3.8548  -17.5384 C   0  0  0  0  0  0  0  0  0  0  0  0
   -8.6268    3.3304  -18.5347 O   0  0  0  0  0  0  0  0  0  0  0  0
   -9.3833    5.1663  -17.4802 N   0  0  0  0  0  0  0  0  0  0  0  0
   -9.8624    5.5178  -16.6953 H   0  0  0  0  0  0  0  0  0  0  0  0
   -8.6397    1.6027  -14.5350 C   0  0  0  0  0  0  0  0  0  0  0  0
   -9.9498    1.4736  -14.0602 C   0  0  0  0  0  0  0  0  0  0  0  0
  -10.9923    2.1392  -14.7220 C   0  0  0  0  0  0  0  0  0  0  0  0
  -10.7264    2.9224  -15.8542 C   0  0  0  0  0  0  0  0  0  0  0  0
   -9.4114    3.0465  -16.3280 C   0  0  0  0  0  0  0  0  0  0  0  0
   -8.3708    2.3766  -15.6706 C   0  0  0  0  0  0  0  0  0  0  0  0
   -5.5209    0.4528  -13.0921 C   0  0  0  0  0  0  0  0  0  0  0  0
   -6.2074    1.3383  -13.7907 N   0  0  0  0  0  0  0  0  0  0  0  0
   -7.5318    0.8988  -13.8678 C   0  0  0  0  0  0  0  0  0  0  0  0
   -7.6354   -0.2399  -13.2104 N   0  0  0  0  0  0  0  0  0  0  0  0
   -6.3738   -0.5693  -12.7046 O   0  0  0  0  0  0  0  0  0  0  0  0
   -3.8045   -0.2484  -11.7017 F   0  0  0  0  0  0  0  0  0  0  0  0
   -4.0586    0.5081  -12.7638 C   0  0  0  0  0  0  0  0  0  0  0  0
   -3.6945    1.7500  -12.4783 F   0  0  0  0  0  0  0  0  0  0  0  0
   -3.4201    0.0668  -13.8426 F   0  0  0  0  0  0  0  0  0  0  0  0
   -8.9748    6.1136  -18.5376 C   0  0  0  0  0  0  0  0  0  0  0  0
   -9.8074   10.6674  -17.2699 C   0  0  0  0  0  0  0  0  0  0  0  0
  -10.6241    9.6320  -17.9357 N   0  0  0  0  0  0  0  0  0  0  0  0
   -8.5896    7.4656  -17.9108 C   0  0  0  0  0  0  0  0  0  0  0  0
   -9.5069    7.7615  -16.6948 C   0  0  0  0  0  0  0  0  0  0  0  0
  -10.8300    8.4636  -17.0631 C   0  0  0  0  0  0  0  0  0  0  0  0
  -10.0046    9.2135  -19.2004 C   0  0  0  0  0  0  0  0  0  0  0  0
   -8.6125    8.5929  -18.9742 C   0  0  0  0  0  0  0  0  0  0  0  0
   -7.1603    7.3224  -17.4289 C   0  0  0  0  0  0  0  0  0  0  0  0
   -6.5324    6.2063  -17.0886 N   0  0  0  0  0  0  0  0  0  0  0  0
   -5.1952    6.3052  -16.6742 C   0  0  0  0  0  0  0  0  0  0  0  0
   -4.6725    7.5437  -16.6698 C   0  0  0  0  0  0  0  0  0  0  0  0
   -5.9713    8.6122  -17.2192 S   0  0  0  0  0  0  0  0  0  0  0  0
   -4.4051    5.1089  -16.2630 C   0  0  0  0  0  0  0  0  0  0  0  0
   -3.6126    5.1168  -15.0988 C   0  0  0  0  0  0  0  0  0  0  0  0
   -2.8790    3.9840  -14.7264 C   0  0  0  0  0  0  0  0  0  0  0  0
   -2.9298    2.8253  -15.5094 C   0  0  0  0  0  0  0  0  0  0  0  0
   -3.7166    2.8072  -16.6667 C   0  0  0  0  0  0  0  0  0  0  0  0
   -4.4533    3.9420  -17.0427 C   0  0  0  0  0  0  0  0  0  0  0  0
 21 22  1  0  0  0
 22 25  1  0  0  0
 22 26  1  0  0  0
 16 17  1  0  0  0
 17 18  1  0  0  0
 17 19  1  0  0  0
 17 11  1  0  0  0
 11 12  2  0  0  0
 11 15  1  0  0  0
 12 13  1  0  0  0
 13 14  2  0  0  0
 13  5  1  0  0  0
 14 15  1  0  0  0
  5  6  2  0  0  0
  5 10  1  0  0  0
  6  7  1  0  0  0
  7  8  2  0  0  0
  8  9  1  0  0  0
  9 10  2  0  0  0
  9  1  1  0  0  0
  1  2  2  0  0  0
  1  3  1  0  0  0
  3 20  1  0  0  0
 20 23  1  0  0  0
 23 24  1  0  0  0
 23 27  1  0  0  0
 23 28  1  0  0  0
 24 25  1  0  0  0
 26 27  1  0  0  0
 28 29  2  0  0  0
 28 32  1  0  0  0
 29 30  1  0  0  0
 30 31  2  0  0  0
 30 33  1  0  0  0
 31 32  1  0  0  0
 33 34  2  0  0  0
 33 38  1  0  0  0
 34 35  1  0  0  0
 35 36  2  0  0  0
 36 37  1  0  0  0
 37 38  2  0  0  0
  3  4  1  0  0  0
M  END
> <minimizedAffinity>
-9.36154

$$$$
3ZNS_NU7_A_1900


 38 42  0  0  0  0  0  0  0  0999 V2000
  -11.3651    3.3532  -15.2983 C   0  0  0  0  0  0  0  0  0  0  0  0
  -12.3358    3.4876  -14.5473 O   0  0  0  0  0  0  0  0  0  0  0  0
  -10.9540    4.3365  -16.1045 N   0  0  0  0  0  0  0  0  0  0  0  0
  -10.1267    4.2038  -16.6215 H   0  0  0  0  0  0  0  0  0  0  0  0
   -8.8448    0.5870  -14.7217 C   0  0  0  0  0  0  0  0  0  0  0  0
   -9.3069   -0.4031  -15.5961 C   0  0  0  0  0  0  0  0  0  0  0  0
  -10.4556   -0.1635  -16.3648 C   0  0  0  0  0  0  0  0  0  0  0  0
  -11.1326    1.0602  -16.2639 C   0  0  0  0  0  0  0  0  0  0  0  0
  -10.6637    2.0509  -15.3876 C   0  0  0  0  0  0  0  0  0  0  0  0
   -9.5127    1.8139  -14.6243 C   0  0  0  0  0  0  0  0  0  0  0  0
   -5.5890    0.5992  -13.1309 C   0  0  0  0  0  0  0  0  0  0  0  0
   -6.4272    1.0649  -14.0386 N   0  0  0  0  0  0  0  0  0  0  0  0
   -7.6309    0.3652  -13.9183 C   0  0  0  0  0  0  0  0  0  0  0  0
   -7.5128   -0.5083  -12.9372 N   0  0  0  0  0  0  0  0  0  0  0  0
   -6.2220   -0.4015  -12.4097 O   0  0  0  0  0  0  0  0  0  0  0  0
   -4.1562    2.3450  -12.6114 F   0  0  0  0  0  0  0  0  0  0  0  0
   -4.1770    1.0483  -12.8997 C   0  0  0  0  0  0  0  0  0  0  0  0
   -3.4464    0.8596  -13.9892 F   0  0  0  0  0  0  0  0  0  0  0  0
   -3.7158    0.3156  -11.8914 F   0  0  0  0  0  0  0  0  0  0  0  0
  -11.6817    5.6130  -16.2568 C   0  0  0  0  0  0  0  0  0  0  0  0
  -12.8887    8.1138  -20.1717 C   0  0  0  0  0  0  0  0  0  0  0  0
  -13.5874    7.8050  -18.9073 N   0  0  0  0  0  0  0  0  0  0  0  0
  -11.4205    6.2026  -17.6544 C   0  0  0  0  0  0  0  0  0  0  0  0
  -11.4570    7.7523  -17.5862 C   0  0  0  0  0  0  0  0  0  0  0  0
  -12.8682    8.3543  -17.7454 C   0  0  0  0  0  0  0  0  0  0  0  0
  -13.7646    6.3549  -18.7508 C   0  0  0  0  0  0  0  0  0  0  0  0
  -12.4119    5.6193  -18.6931 C   0  0  0  0  0  0  0  0  0  0  0  0
  -10.0282    5.7577  -18.0534 C   0  0  0  0  0  0  0  0  0  0  0  0
   -8.9433    5.7260  -17.2932 N   0  0  0  0  0  0  0  0  0  0  0  0
   -7.7495    5.2672  -17.8711 C   0  0  0  0  0  0  0  0  0  0  0  0
   -7.8277    4.8924  -19.1597 C   0  0  0  0  0  0  0  0  0  0  0  0
   -9.5129    5.1532  -19.6315 S   0  0  0  0  0  0  0  0  0  0  0  0
   -6.4736    5.2017  -17.1017 C   0  0  0  0  0  0  0  0  0  0  0  0
   -5.6546    6.3360  -16.9396 C   0  0  0  0  0  0  0  0  0  0  0  0
   -4.4610    6.2571  -16.2121 C   0  0  0  0  0  0  0  0  0  0  0  0
   -4.0702    5.0450  -15.6324 C   0  0  0  0  0  0  0  0  0  0  0  0
   -4.8789    3.9130  -15.7859 C   0  0  0  0  0  0  0  0  0  0  0  0
   -6.0764    3.9891  -16.5152 C   0  0  0  0  0  0  0  0  0  0  0  0
 21 22  1  0  0  0
 22 25  1  0  0  0
 22 26  1  0  0  0
 16 17  1  0  0  0
 17 18  1  0  0  0
 17 19  1  0  0  0
 17 11  1  0  0  0
 11 12  2  0  0  0
 11 15  1  0  0  0
 12 13  1  0  0  0
 13 14  2  0  0  0
 13  5  1  0  0  0
 14 15  1  0  0  0
  5  6  2  0  0  0
  5 10  1  0  0  0
  6  7  1  0  0  0
  7  8  2  0  0  0
  8  9  1  0  0  0
  9 10  2  0  0  0
  9  1  1  0  0  0
  1  2  2  0  0  0
  1  3  1  0  0  0
  3 20  1  0  0  0
 20 23  1  0  0  0
 23 24  1  0  0  0
 23 27  1  0  0  0
 23 28  1  0  0  0
 24 25  1  0  0  0
 26 27  1  0  0  0
 28 29  2  0  0  0
 28 32  1  0  0  0
 29 30  1  0  0  0
 30 31  2  0  0  0
 30 33  1  0  0  0
 31 32  1  0  0  0
 33 34  2  0  0  0
 33 38  1  0  0  0
 34 35  1  0  0  0
 35 36  2  0  0  0
 36 37  1  0  0  0
 37 38  2  0  0  0
  3  4  1  0  0  0
M  END
> <minimizedAffinity>
-9.33693

$$$$
3ZNS_NU7_A_1900


 38 42  0  0  0  0  0  0  0  0999 V2000
   -6.3154    5.0894  -17.2123 C   0  0  0  0  0  0  0  0  0  0  0  0
   -6.7977    4.3603  -18.0841 O   0  0  0  0  0  0  0  0  0  0  0  0
   -6.6524    6.3780  -17.1029 N   0  0  0  0  0  0  0  0  0  0  0  0
   -6.3002    6.8916  -16.3404 H   0  0  0  0  0  0  0  0  0  0  0  0
   -4.4851    2.8780  -14.7434 C   0  0  0  0  0  0  0  0  0  0  0  0
   -3.3147    3.6119  -14.5203 C   0  0  0  0  0  0  0  0  0  0  0  0
   -3.1237    4.8277  -15.1935 C   0  0  0  0  0  0  0  0  0  0  0  0
   -4.0998    5.3085  -16.0778 C   0  0  0  0  0  0  0  0  0  0  0  0
   -5.2730    4.5702  -16.2960 C   0  0  0  0  0  0  0  0  0  0  0  0
   -5.4666    3.3586  -15.6189 C   0  0  0  0  0  0  0  0  0  0  0  0
   -4.3330   -0.2268  -12.8811 C   0  0  0  0  0  0  0  0  0  0  0  0
   -3.7356    0.8108  -13.4376 N   0  0  0  0  0  0  0  0  0  0  0  0
   -4.7158    1.6082  -14.0345 C   0  0  0  0  0  0  0  0  0  0  0  0
   -5.8935    1.0518  -13.8270 N   0  0  0  0  0  0  0  0  0  0  0  0
   -5.6982   -0.1278  -13.1017 O   0  0  0  0  0  0  0  0  0  0  0  0
   -2.3588   -1.3071  -12.3275 F   0  0  0  0  0  0  0  0  0  0  0  0
   -3.6729   -1.3490  -12.1368 C   0  0  0  0  0  0  0  0  0  0  0  0
   -4.1131   -2.5190  -12.5767 F   0  0  0  0  0  0  0  0  0  0  0  0
   -3.9869   -1.1793  -10.8566 F   0  0  0  0  0  0  0  0  0  0  0  0
   -7.5283    7.0684  -18.0716 C   0  0  0  0  0  0  0  0  0  0  0  0
   -9.6983   10.8865  -16.1351 C   0  0  0  0  0  0  0  0  0  0  0  0
   -8.4208   10.6987  -16.8528 N   0  0  0  0  0  0  0  0  0  0  0  0
   -8.6761    7.7763  -17.3297 C   0  0  0  0  0  0  0  0  0  0  0  0
   -9.3301    8.8327  -18.2592 C   0  0  0  0  0  0  0  0  0  0  0  0
   -8.6396   10.2116  -18.2253 C   0  0  0  0  0  0  0  0  0  0  0  0
   -7.5448    9.7723  -16.1229 C   0  0  0  0  0  0  0  0  0  0  0  0
   -8.1798    8.3748  -15.9889 C   0  0  0  0  0  0  0  0  0  0  0  0
   -9.6976    6.7067  -17.0010 C   0  0  0  0  0  0  0  0  0  0  0  0
   -9.4729    5.4214  -16.7696 N   0  0  0  0  0  0  0  0  0  0  0  0
  -10.5754    4.6047  -16.4746 C   0  0  0  0  0  0  0  0  0  0  0  0
  -11.7707    5.2193  -16.4490 C   0  0  0  0  0  0  0  0  0  0  0  0
  -11.4433    6.9163  -16.8278 S   0  0  0  0  0  0  0  0  0  0  0  0
  -10.4279    3.1447  -16.2077 C   0  0  0  0  0  0  0  0  0  0  0  0
  -11.5061    2.2545  -16.3772 C   0  0  0  0  0  0  0  0  0  0  0  0
  -11.3492    0.8864  -16.1243 C   0  0  0  0  0  0  0  0  0  0  0  0
  -10.1120    0.3872  -15.7023 C   0  0  0  0  0  0  0  0  0  0  0  0
   -9.0341    1.2638  -15.5336 C   0  0  0  0  0  0  0  0  0  0  0  0
   -9.1885    2.6365  -15.7863 C   0  0  0  0  0  0  0  0  0  0  0  0
 21 22  1  0  0  0
 22 25  1  0  0  0
 22 26  1  0  0  0
 16 17  1  0  0  0
 17 18  1  0  0  0
 17 19  1  0  0  0
 17 11  1  0  0  0
 11 12  2  0  0  0
 11 15  1  0  0  0
 12 13  1  0  0  0
 13 14  2  0  0  0
 13  5  1  0  0  0
 14 15  1  0  0  0
  5  6  2  0  0  0
  5 10  1  0  0  0
  6  7  1  0  0  0
  7  8  2  0  0  0
  8  9  1  0  0  0
  9 10  2  0  0  0
  9  1  1  0  0  0
  1  2  2  0  0  0
  1  3  1  0  0  0
  3 20  1  0  0  0
 20 23  1  0  0  0
 23 24  1  0  0  0
 23 27  1  0  0  0
 23 28  1  0  0  0
 24 25  1  0  0  0
 26 27  1  0  0  0
 28 29  2  0  0  0
 28 32  1  0  0  0
 29 30  1  0  0  0
 30 31  2  0  0  0
 30 33  1  0  0  0
 31 32  1  0  0  0
 33 34  2  0  0  0
 33 38  1  0  0  0
 34 35  1  0  0  0
 35 36  2  0  0  0
 36 37  1  0  0  0
 37 38  2  0  0  0
  3  4  1  0  0  0
M  END
> <minimizedAffinity>
-9.01609

$$$$
