1QF1_TI1_A_317


 30 30  0  0  0  0  0  0  0  0999 V2000
   36.1490   41.8369   -3.5044 C   0  0  0  0  0  0  0  0  0  0  0  0
   35.3522   41.5875   -5.7554 C   0  0  0  0  0  0  0  0  0  0  0  0
   36.2879   42.2844   -6.1687 O   0  0  0  0  0  0  0  0  0  0  0  0
   35.1951   41.3006   -4.4694 N   0  0  0  0  0  0  0  0  0  0  0  0
   34.4467   40.7347   -4.1712 H   0  0  0  0  0  0  0  0  0  0  0  0
   33.9769   42.6740   -7.5980 S   0  0  0  0  0  0  0  0  0  0  0  0
   34.3178   41.0580   -6.7427 C   0  0  0  0  0  0  0  0  0  0  0  0
   33.0461   42.4843   -8.5713 H   0  0  0  0  0  0  0  0  0  0  0  0
   35.0186   40.0325   -7.6414 C   0  0  0  0  0  0  0  0  0  0  0  0
   34.5089   38.6362   -7.5257 C   0  0  0  0  0  0  0  0  0  0  0  0
   33.2142   38.6159   -6.7474 C   0  0  0  0  0  0  0  0  0  0  0  0
   32.3318   37.4916   -7.2464 C   0  0  0  0  0  0  0  0  0  0  0  0
   31.5151   37.9384   -8.4151 C   0  0  0  0  0  0  0  0  0  0  0  0
   37.4555   41.0477   -3.4065 C   0  0  0  0  0  0  0  0  0  0  0  0
   38.5456   41.6339   -3.4245 O   0  0  0  0  0  0  0  0  0  0  0  0
   37.3440   39.7281   -3.3051 N   0  0  0  0  0  0  0  0  0  0  0  0
   36.4462   39.3243   -3.3040 H   0  0  0  0  0  0  0  0  0  0  0  0
   38.5100   38.8582   -3.1953 C   0  0  0  0  0  0  0  0  0  0  0  0
   38.3270   37.8933   -2.0310 C   0  0  0  0  0  0  0  0  0  0  0  0
   38.7507   38.0963   -4.4978 C   0  0  0  0  0  0  0  0  0  0  0  0
   37.7736   37.8044   -5.2172 O   0  0  0  0  0  0  0  0  0  0  0  0
   39.9209   37.8310   -4.8197 O   0  0  0  0  0  0  0  0  0  0  0  0
   40.6280   38.0668   -4.2518 H   0  0  0  0  0  0  0  0  0  0  0  0
   35.5253   41.9930   -2.1155 C   0  0  0  0  0  0  0  0  0  0  0  0
   36.3765   42.7907   -1.1735 C   0  0  0  0  0  0  0  0  0  0  0  0
   36.6751   44.1273   -1.4542 C   0  0  0  0  0  0  0  0  0  0  0  0
   36.9352   42.2011   -0.0432 C   0  0  0  0  0  0  0  0  0  0  0  0
   37.5249   44.8623   -0.6232 C   0  0  0  0  0  0  0  0  0  0  0  0
   37.7890   42.9305    0.7951 C   0  0  0  0  0  0  0  0  0  0  0  0
   38.0829   44.2603    0.4996 C   0  0  0  0  0  0  0  0  0  0  0  0
  6  7  1  0  0  0
  7  9  1  0  0  0
  7  2  1  0  0  0
  9 10  1  0  0  0
 10 11  1  0  0  0
 11 12  1  0  0  0
 12 13  1  0  0  0
  2  3  2  0  0  0
  2  4  1  0  0  0
  4  1  1  0  0  0
  1 24  1  0  0  0
  1 14  1  0  0  0
 24 25  1  0  0  0
 25 26  2  0  0  0
 25 27  1  0  0  0
 26 28  1  0  0  0
 27 29  2  0  0  0
 28 30  2  0  0  0
 29 30  1  0  0  0
 14 15  2  0  0  0
 14 16  1  0  0  0
 16 18  1  0  0  0
 18 19  1  0  0  0
 18 20  1  0  0  0
 20 21  2  0  0  0
 20 22  1  0  0  0
  6  8  1  0  0  0
  4  5  1  0  0  0
 16 17  1  0  0  0
 22 23  1  0  0  0
M  END
> <minimizedAffinity>
-8.36960

$$$$
1QF1_TI1_A_317


 30 30  0  0  0  0  0  0  0  0999 V2000
   36.3696   41.8080   -3.3884 C   0  0  0  0  0  0  0  0  0  0  0  0
   35.7933   41.9422   -5.7151 C   0  0  0  0  0  0  0  0  0  0  0  0
   36.8197   42.5976   -5.9363 O   0  0  0  0  0  0  0  0  0  0  0  0
   35.4811   41.4995   -4.5038 N   0  0  0  0  0  0  0  0  0  0  0  0
   34.6629   40.9712   -4.3600 H   0  0  0  0  0  0  0  0  0  0  0  0
   34.3960   39.9147   -6.3509 S   0  0  0  0  0  0  0  0  0  0  0  0
   34.8279   41.6510   -6.8590 C   0  0  0  0  0  0  0  0  0  0  0  0
   33.5091   39.3900   -7.2384 H   0  0  0  0  0  0  0  0  0  0  0  0
   33.6540   42.6290   -6.7338 C   0  0  0  0  0  0  0  0  0  0  0  0
   32.9790   42.9757   -8.0172 C   0  0  0  0  0  0  0  0  0  0  0  0
   33.9674   42.9201   -9.1585 C   0  0  0  0  0  0  0  0  0  0  0  0
   33.4505   43.7326  -10.3264 C   0  0  0  0  0  0  0  0  0  0  0  0
   33.1179   42.8461  -11.4822 C   0  0  0  0  0  0  0  0  0  0  0  0
   37.5739   40.8729   -3.2664 C   0  0  0  0  0  0  0  0  0  0  0  0
   38.7256   41.3248   -3.3036 O   0  0  0  0  0  0  0  0  0  0  0  0
   37.3072   39.5796   -3.1235 N   0  0  0  0  0  0  0  0  0  0  0  0
   36.3679   39.2853   -3.1092 H   0  0  0  0  0  0  0  0  0  0  0  0
   38.3624   38.5814   -2.9871 C   0  0  0  0  0  0  0  0  0  0  0  0
   38.1146   37.7339   -1.7460 C   0  0  0  0  0  0  0  0  0  0  0  0
   38.4511   37.7029   -4.2342 C   0  0  0  0  0  0  0  0  0  0  0  0
   37.8238   36.6244   -4.2602 O   0  0  0  0  0  0  0  0  0  0  0  0
   39.1123   38.1154   -5.2018 O   0  0  0  0  0  0  0  0  0  0  0  0
   39.5698   38.9310   -5.1431 H   0  0  0  0  0  0  0  0  0  0  0  0
   35.6137   41.8655   -2.0588 C   0  0  0  0  0  0  0  0  0  0  0  0
   36.4103   42.4932   -0.9545 C   0  0  0  0  0  0  0  0  0  0  0  0
   36.8625   43.8107   -1.0734 C   0  0  0  0  0  0  0  0  0  0  0  0
   36.7680   41.7599    0.1732 C   0  0  0  0  0  0  0  0  0  0  0  0
   37.6658   44.3855   -0.0849 C   0  0  0  0  0  0  0  0  0  0  0  0
   37.5739   42.3281    1.1689 C   0  0  0  0  0  0  0  0  0  0  0  0
   38.0225   43.6406    1.0343 C   0  0  0  0  0  0  0  0  0  0  0  0
  6  7  1  0  0  0
  7  9  1  0  0  0
  7  2  1  0  0  0
  9 10  1  0  0  0
 10 11  1  0  0  0
 11 12  1  0  0  0
 12 13  1  0  0  0
  2  3  2  0  0  0
  2  4  1  0  0  0
  4  1  1  0  0  0
  1 24  1  0  0  0
  1 14  1  0  0  0
 24 25  1  0  0  0
 25 26  2  0  0  0
 25 27  1  0  0  0
 26 28  1  0  0  0
 27 29  2  0  0  0
 28 30  2  0  0  0
 29 30  1  0  0  0
 14 15  2  0  0  0
 14 16  1  0  0  0
 16 18  1  0  0  0
 18 19  1  0  0  0
 18 20  1  0  0  0
 20 21  2  0  0  0
 20 22  1  0  0  0
  6  8  1  0  0  0
  4  5  1  0  0  0
 16 17  1  0  0  0
 22 23  1  0  0  0
M  END
> <minimizedAffinity>
-8.06945

$$$$
1QF1_TI1_A_317


 30 30  0  0  0  0  0  0  0  0999 V2000
   36.3513   41.0854   -3.3979 C   0  0  0  0  0  0  0  0  0  0  0  0
   35.6568   40.6616   -5.6567 C   0  0  0  0  0  0  0  0  0  0  0  0
   36.1268   39.5184   -5.5916 O   0  0  0  0  0  0  0  0  0  0  0  0
   35.7065   41.5086   -4.6365 N   0  0  0  0  0  0  0  0  0  0  0  0
   35.3146   42.4083   -4.7140 H   0  0  0  0  0  0  0  0  0  0  0  0
   33.9805   39.6292   -7.2665 S   0  0  0  0  0  0  0  0  0  0  0  0
   35.0221   41.1390   -6.9584 C   0  0  0  0  0  0  0  0  0  0  0  0
   33.2761   39.7918   -8.4184 H   0  0  0  0  0  0  0  0  0  0  0  0
   34.1961   42.3903   -6.6386 C   0  0  0  0  0  0  0  0  0  0  0  0
   33.2963   42.8521   -7.7341 C   0  0  0  0  0  0  0  0  0  0  0  0
   34.0841   43.0509   -9.0079 C   0  0  0  0  0  0  0  0  0  0  0  0
   33.1544   42.9962  -10.2012 C   0  0  0  0  0  0  0  0  0  0  0  0
   33.2542   44.2497  -11.0083 C   0  0  0  0  0  0  0  0  0  0  0  0
   36.0437   41.9756   -2.1928 C   0  0  0  0  0  0  0  0  0  0  0  0
   34.8725   42.2305   -1.8836 O   0  0  0  0  0  0  0  0  0  0  0  0
   37.0890   42.4444   -1.5207 N   0  0  0  0  0  0  0  0  0  0  0  0
   37.9954   42.2091   -1.8245 H   0  0  0  0  0  0  0  0  0  0  0  0
   36.9364   43.2968   -0.3467 C   0  0  0  0  0  0  0  0  0  0  0  0
   37.4816   42.5838    0.8839 C   0  0  0  0  0  0  0  0  0  0  0  0
   37.6362   44.6400   -0.5493 C   0  0  0  0  0  0  0  0  0  0  0  0
   37.8130   45.3846    0.4364 O   0  0  0  0  0  0  0  0  0  0  0  0
   38.0470   44.9269   -1.6862 O   0  0  0  0  0  0  0  0  0  0  0  0
   37.8942   44.3409   -2.4012 H   0  0  0  0  0  0  0  0  0  0  0  0
   37.8651   40.9369   -3.5672 C   0  0  0  0  0  0  0  0  0  0  0  0
   38.3925   39.6364   -3.0392 C   0  0  0  0  0  0  0  0  0  0  0  0
   39.5302   39.0553   -3.6070 C   0  0  0  0  0  0  0  0  0  0  0  0
   37.7263   38.9555   -2.0244 C   0  0  0  0  0  0  0  0  0  0  0  0
   39.9919   37.8096   -3.1735 C   0  0  0  0  0  0  0  0  0  0  0  0
   38.1818   37.7055   -1.5841 C   0  0  0  0  0  0  0  0  0  0  0  0
   39.3138   37.1354   -2.1634 C   0  0  0  0  0  0  0  0  0  0  0  0
  6  7  1  0  0  0
  7  9  1  0  0  0
  7  2  1  0  0  0
  9 10  1  0  0  0
 10 11  1  0  0  0
 11 12  1  0  0  0
 12 13  1  0  0  0
  2  3  2  0  0  0
  2  4  1  0  0  0
  4  1  1  0  0  0
  1 24  1  0  0  0
  1 14  1  0  0  0
 24 25  1  0  0  0
 25 26  2  0  0  0
 25 27  1  0  0  0
 26 28  1  0  0  0
 27 29  2  0  0  0
 28 30  2  0  0  0
 29 30  1  0  0  0
 14 15  2  0  0  0
 14 16  1  0  0  0
 16 18  1  0  0  0
 18 19  1  0  0  0
 18 20  1  0  0  0
 20 21  2  0  0  0
 20 22  1  0  0  0
  6  8  1  0  0  0
  4  5  1  0  0  0
 16 17  1  0  0  0
 22 23  1  0  0  0
M  END
> <minimizedAffinity>
-7.64117

$$$$
1QF1_TI1_A_317


 30 30  0  0  0  0  0  0  0  0999 V2000
   37.5980   39.8066   -3.7030 C   0  0  0  0  0  0  0  0  0  0  0  0
   37.1152   42.1188   -3.2732 C   0  0  0  0  0  0  0  0  0  0  0  0
   37.9299   42.4552   -4.1422 O   0  0  0  0  0  0  0  0  0  0  0  0
   36.8708   40.8471   -2.9838 N   0  0  0  0  0  0  0  0  0  0  0  0
   36.2092   40.6094   -2.2946 H   0  0  0  0  0  0  0  0  0  0  0  0
   35.3127   42.0408   -1.4810 S   0  0  0  0  0  0  0  0  0  0  0  0
   36.3809   43.1922   -2.4772 C   0  0  0  0  0  0  0  0  0  0  0  0
   34.5197   42.7656   -0.6472 H   0  0  0  0  0  0  0  0  0  0  0  0
   37.4223   43.9358   -1.6330 C   0  0  0  0  0  0  0  0  0  0  0  0
   37.2493   43.8083   -0.1575 C   0  0  0  0  0  0  0  0  0  0  0  0
   38.5744   43.4977    0.4985 C   0  0  0  0  0  0  0  0  0  0  0  0
   38.3574   42.5929    1.6926 C   0  0  0  0  0  0  0  0  0  0  0  0
   36.9423   42.1161    1.7455 C   0  0  0  0  0  0  0  0  0  0  0  0
   36.9311   39.3582   -5.0044 C   0  0  0  0  0  0  0  0  0  0  0  0
   37.3028   38.3255   -5.5766 O   0  0  0  0  0  0  0  0  0  0  0  0
   35.9548   40.1313   -5.4664 N   0  0  0  0  0  0  0  0  0  0  0  0
   35.7130   40.9439   -4.9660 H   0  0  0  0  0  0  0  0  0  0  0  0
   35.2295   39.8142   -6.6918 C   0  0  0  0  0  0  0  0  0  0  0  0
   33.8381   39.2977   -6.3498 C   0  0  0  0  0  0  0  0  0  0  0  0
   35.1446   41.0328   -7.6099 C   0  0  0  0  0  0  0  0  0  0  0  0
   34.4498   40.9635   -8.6443 O   0  0  0  0  0  0  0  0  0  0  0  0
   35.7375   42.0706   -7.2710 O   0  0  0  0  0  0  0  0  0  0  0  0
   36.2499   42.0826   -6.4865 H   0  0  0  0  0  0  0  0  0  0  0  0
   37.8816   38.5934   -2.8142 C   0  0  0  0  0  0  0  0  0  0  0  0
   39.3012   38.1186   -2.9001 C   0  0  0  0  0  0  0  0  0  0  0  0
   39.7106   36.9893   -2.1849 C   0  0  0  0  0  0  0  0  0  0  0  0
   40.2470   38.8262   -3.6364 C   0  0  0  0  0  0  0  0  0  0  0  0
   41.0457   36.5766   -2.1984 C   0  0  0  0  0  0  0  0  0  0  0  0
   41.5880   38.4200   -3.6549 C   0  0  0  0  0  0  0  0  0  0  0  0
   41.9831   37.2958   -2.9323 C   0  0  0  0  0  0  0  0  0  0  0  0
  6  7  1  0  0  0
  7  9  1  0  0  0
  7  2  1  0  0  0
  9 10  1  0  0  0
 10 11  1  0  0  0
 11 12  1  0  0  0
 12 13  1  0  0  0
  2  3  2  0  0  0
  2  4  1  0  0  0
  4  1  1  0  0  0
  1 24  1  0  0  0
  1 14  1  0  0  0
 24 25  1  0  0  0
 25 26  2  0  0  0
 25 27  1  0  0  0
 26 28  1  0  0  0
 27 29  2  0  0  0
 28 30  2  0  0  0
 29 30  1  0  0  0
 14 15  2  0  0  0
 14 16  1  0  0  0
 16 18  1  0  0  0
 18 19  1  0  0  0
 18 20  1  0  0  0
 20 21  2  0  0  0
 20 22  1  0  0  0
  6  8  1  0  0  0
  4  5  1  0  0  0
 16 17  1  0  0  0
 22 23  1  0  0  0
M  END
> <minimizedAffinity>
-7.26139

$$$$
1QF1_TI1_A_317


 30 30  0  0  0  0  0  0  0  0999 V2000
   36.6989   41.4540   -3.2289 C   0  0  0  0  0  0  0  0  0  0  0  0
   38.1749   39.5771   -3.4793 C   0  0  0  0  0  0  0  0  0  0  0  0
   37.3195   38.9885   -4.1529 O   0  0  0  0  0  0  0  0  0  0  0  0
   37.9760   40.7922   -2.9846 N   0  0  0  0  0  0  0  0  0  0  0  0
   38.6792   41.2402   -2.4611 H   0  0  0  0  0  0  0  0  0  0  0  0
   38.8092   37.5858   -2.0303 S   0  0  0  0  0  0  0  0  0  0  0  0
   39.4972   38.8825   -3.1725 C   0  0  0  0  0  0  0  0  0  0  0  0
   39.8190   36.7898   -1.5875 H   0  0  0  0  0  0  0  0  0  0  0  0
   40.0341   38.3078   -4.4885 C   0  0  0  0  0  0  0  0  0  0  0  0
   39.9930   36.8211   -4.5937 C   0  0  0  0  0  0  0  0  0  0  0  0
   40.2761   36.3902   -6.0138 C   0  0  0  0  0  0  0  0  0  0  0  0
   41.7533   36.5360   -6.3106 C   0  0  0  0  0  0  0  0  0  0  0  0
   42.4782   35.2600   -6.0301 C   0  0  0  0  0  0  0  0  0  0  0  0
   36.3303   41.5833   -4.7077 C   0  0  0  0  0  0  0  0  0  0  0  0
   36.9012   42.4138   -5.4264 O   0  0  0  0  0  0  0  0  0  0  0  0
   35.3819   40.7682   -5.1550 N   0  0  0  0  0  0  0  0  0  0  0  0
   34.9626   40.1353   -4.5282 H   0  0  0  0  0  0  0  0  0  0  0  0
   34.9418   40.7810   -6.5459 C   0  0  0  0  0  0  0  0  0  0  0  0
   34.0082   39.6053   -6.8033 C   0  0  0  0  0  0  0  0  0  0  0  0
   34.2575   42.1024   -6.8927 C   0  0  0  0  0  0  0  0  0  0  0  0
   33.9369   42.3247   -8.0781 O   0  0  0  0  0  0  0  0  0  0  0  0
   34.0023   42.8956   -5.9711 O   0  0  0  0  0  0  0  0  0  0  0  0
   34.2599   42.6924   -5.0934 H   0  0  0  0  0  0  0  0  0  0  0  0
   36.6294   42.8237   -2.5495 C   0  0  0  0  0  0  0  0  0  0  0  0
   37.0331   42.7868   -1.1060 C   0  0  0  0  0  0  0  0  0  0  0  0
   38.0855   43.5854   -0.6485 C   0  0  0  0  0  0  0  0  0  0  0  0
   36.4153   41.9149   -0.2142 C   0  0  0  0  0  0  0  0  0  0  0  0
   38.5198   43.5093    0.6776 C   0  0  0  0  0  0  0  0  0  0  0  0
   36.8448   41.8316    1.1171 C   0  0  0  0  0  0  0  0  0  0  0  0
   37.8992   42.6291    1.5578 C   0  0  0  0  0  0  0  0  0  0  0  0
  6  7  1  0  0  0
  7  9  1  0  0  0
  7  2  1  0  0  0
  9 10  1  0  0  0
 10 11  1  0  0  0
 11 12  1  0  0  0
 12 13  1  0  0  0
  2  3  2  0  0  0
  2  4  1  0  0  0
  4  1  1  0  0  0
  1 24  1  0  0  0
  1 14  1  0  0  0
 24 25  1  0  0  0
 25 26  2  0  0  0
 25 27  1  0  0  0
 26 28  1  0  0  0
 27 29  2  0  0  0
 28 30  2  0  0  0
 29 30  1  0  0  0
 14 15  2  0  0  0
 14 16  1  0  0  0
 16 18  1  0  0  0
 18 19  1  0  0  0
 18 20  1  0  0  0
 20 21  2  0  0  0
 20 22  1  0  0  0
  6  8  1  0  0  0
  4  5  1  0  0  0
 16 17  1  0  0  0
 22 23  1  0  0  0
M  END
> <minimizedAffinity>
-7.05248

$$$$
1QF1_TI1_A_317


 30 30  0  0  0  0  0  0  0  0999 V2000
   33.3506   38.5760   -9.2594 C   0  0  0  0  0  0  0  0  0  0  0  0
   34.7417   37.0631  -10.5003 C   0  0  0  0  0  0  0  0  0  0  0  0
   34.3418   37.5587  -11.5617 O   0  0  0  0  0  0  0  0  0  0  0  0
   34.3257   37.4921   -9.3156 N   0  0  0  0  0  0  0  0  0  0  0  0
   34.6695   37.0854   -8.4876 H   0  0  0  0  0  0  0  0  0  0  0  0
   37.0948   36.7279   -9.5960 S   0  0  0  0  0  0  0  0  0  0  0  0
   35.7239   35.8974  -10.5396 C   0  0  0  0  0  0  0  0  0  0  0  0
   38.1463   35.8735   -9.4781 H   0  0  0  0  0  0  0  0  0  0  0  0
   35.0859   34.7291   -9.7792 C   0  0  0  0  0  0  0  0  0  0  0  0
   33.9275   34.0858  -10.4629 C   0  0  0  0  0  0  0  0  0  0  0  0
   32.6943   34.1737   -9.5946 C   0  0  0  0  0  0  0  0  0  0  0  0
   31.4563   34.2292  -10.4639 C   0  0  0  0  0  0  0  0  0  0  0  0
   31.5387   35.3652  -11.4309 C   0  0  0  0  0  0  0  0  0  0  0  0
   33.9675   39.9739   -9.1910 C   0  0  0  0  0  0  0  0  0  0  0  0
   35.1025   40.1368   -8.7246 O   0  0  0  0  0  0  0  0  0  0  0  0
   33.2232   40.9728   -9.6516 N   0  0  0  0  0  0  0  0  0  0  0  0
   32.3249   40.7753  -10.0029 H   0  0  0  0  0  0  0  0  0  0  0  0
   33.6945   42.3534   -9.6534 C   0  0  0  0  0  0  0  0  0  0  0  0
   33.0463   43.1192  -10.7995 C   0  0  0  0  0  0  0  0  0  0  0  0
   33.4060   43.0334   -8.3158 C   0  0  0  0  0  0  0  0  0  0  0  0
   32.3331   43.6543   -8.1719 O   0  0  0  0  0  0  0  0  0  0  0  0
   34.2337   42.9070   -7.3979 O   0  0  0  0  0  0  0  0  0  0  0  0
   35.0284   42.4331   -7.5456 H   0  0  0  0  0  0  0  0  0  0  0  0
   32.3548   38.3857   -8.1129 C   0  0  0  0  0  0  0  0  0  0  0  0
   31.0456   37.8070   -8.5591 C   0  0  0  0  0  0  0  0  0  0  0  0
   30.3360   38.3974   -9.6092 C   0  0  0  0  0  0  0  0  0  0  0  0
   30.4843   36.7182   -7.8983 C   0  0  0  0  0  0  0  0  0  0  0  0
   29.0815   37.9129   -9.9891 C   0  0  0  0  0  0  0  0  0  0  0  0
   29.2265   36.2263   -8.2722 C   0  0  0  0  0  0  0  0  0  0  0  0
   28.5277   36.8285   -9.3167 C   0  0  0  0  0  0  0  0  0  0  0  0
  6  7  1  0  0  0
  7  9  1  0  0  0
  7  2  1  0  0  0
  9 10  1  0  0  0
 10 11  1  0  0  0
 11 12  1  0  0  0
 12 13  1  0  0  0
  2  3  2  0  0  0
  2  4  1  0  0  0
  4  1  1  0  0  0
  1 24  1  0  0  0
  1 14  1  0  0  0
 24 25  1  0  0  0
 25 26  2  0  0  0
 25 27  1  0  0  0
 26 28  1  0  0  0
 27 29  2  0  0  0
 28 30  2  0  0  0
 29 30  1  0  0  0
 14 15  2  0  0  0
 14 16  1  0  0  0
 16 18  1  0  0  0
 18 19  1  0  0  0
 18 20  1  0  0  0
 20 21  2  0  0  0
 20 22  1  0  0  0
  6  8  1  0  0  0
  4  5  1  0  0  0
 16 17  1  0  0  0
 22 23  1  0  0  0
M  END
> <minimizedAffinity>
-6.43797

$$$$
1QF1_TI1_A_317


 30 30  0  0  0  0  0  0  0  0999 V2000
   38.1839   38.1677   -2.7108 C   0  0  0  0  0  0  0  0  0  0  0  0
   37.9210   40.5501   -2.8481 C   0  0  0  0  0  0  0  0  0  0  0  0
   39.0311   40.6461   -3.3871 O   0  0  0  0  0  0  0  0  0  0  0  0
   37.4077   39.3820   -2.4835 N   0  0  0  0  0  0  0  0  0  0  0  0
   36.5173   39.3355   -2.0662 H   0  0  0  0  0  0  0  0  0  0  0  0
   36.2316   41.8938   -4.1925 S   0  0  0  0  0  0  0  0  0  0  0  0
   37.1158   41.8121   -2.5582 C   0  0  0  0  0  0  0  0  0  0  0  0
   35.4080   42.9760   -4.2087 H   0  0  0  0  0  0  0  0  0  0  0  0
   36.1843   41.5061   -1.3797 C   0  0  0  0  0  0  0  0  0  0  0  0
   36.3107   42.4298   -0.2162 C   0  0  0  0  0  0  0  0  0  0  0  0
   37.4514   43.3954   -0.4378 C   0  0  0  0  0  0  0  0  0  0  0  0
   38.3270   43.4487    0.7960 C   0  0  0  0  0  0  0  0  0  0  0  0
   37.9140   42.4065    1.7838 C   0  0  0  0  0  0  0  0  0  0  0  0
   38.5659   37.9299   -4.1727 C   0  0  0  0  0  0  0  0  0  0  0  0
   37.7597   38.1741   -5.0797 O   0  0  0  0  0  0  0  0  0  0  0  0
   39.7863   37.4558   -4.3962 N   0  0  0  0  0  0  0  0  0  0  0  0
   40.3758   37.2760   -3.6285 H   0  0  0  0  0  0  0  0  0  0  0  0
   40.2808   37.1929   -5.7433 C   0  0  0  0  0  0  0  0  0  0  0  0
   41.7300   36.7284   -5.6803 C   0  0  0  0  0  0  0  0  0  0  0  0
   39.4104   36.1581   -6.4550 C   0  0  0  0  0  0  0  0  0  0  0  0
   39.3217   35.0095   -5.9750 O   0  0  0  0  0  0  0  0  0  0  0  0
   38.7826   36.5099   -7.4677 O   0  0  0  0  0  0  0  0  0  0  0  0
   38.8761   37.3820   -7.7975 H   0  0  0  0  0  0  0  0  0  0  0  0
   37.4828   36.9307   -2.1444 C   0  0  0  0  0  0  0  0  0  0  0  0
   38.3792   36.0841   -1.2913 C   0  0  0  0  0  0  0  0  0  0  0  0
   38.0085   34.7771   -0.9612 C   0  0  0  0  0  0  0  0  0  0  0  0
   39.5576   36.6016   -0.7615 C   0  0  0  0  0  0  0  0  0  0  0  0
   38.7985   34.0008   -0.1090 C   0  0  0  0  0  0  0  0  0  0  0  0
   40.3555   35.8306    0.0944 C   0  0  0  0  0  0  0  0  0  0  0  0
   39.9705   34.5313    0.4198 C   0  0  0  0  0  0  0  0  0  0  0  0
  6  7  1  0  0  0
  7  9  1  0  0  0
  7  2  1  0  0  0
  9 10  1  0  0  0
 10 11  1  0  0  0
 11 12  1  0  0  0
 12 13  1  0  0  0
  2  3  2  0  0  0
  2  4  1  0  0  0
  4  1  1  0  0  0
  1 24  1  0  0  0
  1 14  1  0  0  0
 24 25  1  0  0  0
 25 26  2  0  0  0
 25 27  1  0  0  0
 26 28  1  0  0  0
 27 29  2  0  0  0
 28 30  2  0  0  0
 29 30  1  0  0  0
 14 15  2  0  0  0
 14 16  1  0  0  0
 16 18  1  0  0  0
 18 19  1  0  0  0
 18 20  1  0  0  0
 20 21  2  0  0  0
 20 22  1  0  0  0
  6  8  1  0  0  0
  4  5  1  0  0  0
 16 17  1  0  0  0
 22 23  1  0  0  0
M  END
> <minimizedAffinity>
-6.42376

$$$$
1QF1_TI1_A_317


 30 30  0  0  0  0  0  0  0  0999 V2000
   38.3660   38.7670   -3.7107 C   0  0  0  0  0  0  0  0  0  0  0  0
   37.5546   40.9355   -3.0756 C   0  0  0  0  0  0  0  0  0  0  0  0
   38.6142   41.4488   -3.4574 O   0  0  0  0  0  0  0  0  0  0  0  0
   37.3266   39.6311   -3.1615 N   0  0  0  0  0  0  0  0  0  0  0  0
   36.4696   39.2524   -2.8593 H   0  0  0  0  0  0  0  0  0  0  0  0
   36.5451   41.0828   -0.7462 S   0  0  0  0  0  0  0  0  0  0  0  0
   36.4755   41.8155   -2.4543 C   0  0  0  0  0  0  0  0  0  0  0  0
   35.6422   41.7109    0.0537 H   0  0  0  0  0  0  0  0  0  0  0  0
   36.9706   43.2653   -2.5126 C   0  0  0  0  0  0  0  0  0  0  0  0
   36.4609   44.1525   -1.4282 C   0  0  0  0  0  0  0  0  0  0  0  0
   37.5837   44.9988   -0.8751 C   0  0  0  0  0  0  0  0  0  0  0  0
   37.8011   44.6727    0.5870 C   0  0  0  0  0  0  0  0  0  0  0  0
   38.7138   43.4994    0.7380 C   0  0  0  0  0  0  0  0  0  0  0  0
   37.9464   37.9968   -4.9638 C   0  0  0  0  0  0  0  0  0  0  0  0
   37.0407   38.4260   -5.6902 O   0  0  0  0  0  0  0  0  0  0  0  0
   38.6002   36.8676   -5.2114 N   0  0  0  0  0  0  0  0  0  0  0  0
   39.3058   36.5788   -4.5885 H   0  0  0  0  0  0  0  0  0  0  0  0
   38.3060   36.0416   -6.3774 C   0  0  0  0  0  0  0  0  0  0  0  0
   39.5914   35.4206   -6.9085 C   0  0  0  0  0  0  0  0  0  0  0  0
   37.2812   34.9598   -6.0388 C   0  0  0  0  0  0  0  0  0  0  0  0
   36.0691   35.1983   -6.2155 O   0  0  0  0  0  0  0  0  0  0  0  0
   37.6946   33.8585   -5.6390 O   0  0  0  0  0  0  0  0  0  0  0  0
   38.6133   33.7185   -5.5187 H   0  0  0  0  0  0  0  0  0  0  0  0
   38.9146   37.7992   -2.6596 C   0  0  0  0  0  0  0  0  0  0  0  0
   40.3999   37.6136   -2.7474 C   0  0  0  0  0  0  0  0  0  0  0  0
   40.9984   36.4652   -2.2206 C   0  0  0  0  0  0  0  0  0  0  0  0
   41.2119   38.6039   -3.2925 C   0  0  0  0  0  0  0  0  0  0  0  0
   42.3873   36.3110   -2.2310 C   0  0  0  0  0  0  0  0  0  0  0  0
   42.6055   38.4579   -3.3064 C   0  0  0  0  0  0  0  0  0  0  0  0
   43.1889   37.3105   -2.7722 C   0  0  0  0  0  0  0  0  0  0  0  0
  6  7  1  0  0  0
  7  9  1  0  0  0
  7  2  1  0  0  0
  9 10  1  0  0  0
 10 11  1  0  0  0
 11 12  1  0  0  0
 12 13  1  0  0  0
  2  3  2  0  0  0
  2  4  1  0  0  0
  4  1  1  0  0  0
  1 24  1  0  0  0
  1 14  1  0  0  0
 24 25  1  0  0  0
 25 26  2  0  0  0
 25 27  1  0  0  0
 26 28  1  0  0  0
 27 29  2  0  0  0
 28 30  2  0  0  0
 29 30  1  0  0  0
 14 15  2  0  0  0
 14 16  1  0  0  0
 16 18  1  0  0  0
 18 19  1  0  0  0
 18 20  1  0  0  0
 20 21  2  0  0  0
 20 22  1  0  0  0
  6  8  1  0  0  0
  4  5  1  0  0  0
 16 17  1  0  0  0
 22 23  1  0  0  0
M  END
> <minimizedAffinity>
-6.42235

$$$$
1QF1_TI1_A_317


 30 30  0  0  0  0  0  0  0  0999 V2000
   34.6821   40.4961   -6.2370 C   0  0  0  0  0  0  0  0  0  0  0  0
   35.5760   41.7633   -4.4041 C   0  0  0  0  0  0  0  0  0  0  0  0
   35.1798   42.8115   -4.9296 O   0  0  0  0  0  0  0  0  0  0  0  0
   35.3778   40.5733   -4.9569 N   0  0  0  0  0  0  0  0  0  0  0  0
   35.6953   39.7554   -4.5102 H   0  0  0  0  0  0  0  0  0  0  0  0
   37.7647   40.7407   -3.6098 S   0  0  0  0  0  0  0  0  0  0  0  0
   36.3474   41.8274   -3.0904 C   0  0  0  0  0  0  0  0  0  0  0  0
   38.6451   40.6209   -2.5802 H   0  0  0  0  0  0  0  0  0  0  0  0
   36.7548   43.2878   -2.8639 C   0  0  0  0  0  0  0  0  0  0  0  0
   37.2910   43.5924   -1.5064 C   0  0  0  0  0  0  0  0  0  0  0  0
   36.3462   43.0797   -0.4448 C   0  0  0  0  0  0  0  0  0  0  0  0
   37.0647   42.0919    0.4493 C   0  0  0  0  0  0  0  0  0  0  0  0
   38.0432   42.7932    1.3343 C   0  0  0  0  0  0  0  0  0  0  0  0
   34.5967   39.0856   -6.8223 C   0  0  0  0  0  0  0  0  0  0  0  0
   33.5406   38.4430   -6.7595 O   0  0  0  0  0  0  0  0  0  0  0  0
   35.7018   38.6102   -7.3851 N   0  0  0  0  0  0  0  0  0  0  0  0
   36.5110   39.1709   -7.3949 H   0  0  0  0  0  0  0  0  0  0  0  0
   35.7546   37.2833   -7.9891 C   0  0  0  0  0  0  0  0  0  0  0  0
   35.7931   37.4075   -9.5067 C   0  0  0  0  0  0  0  0  0  0  0  0
   36.9608   36.4959   -7.4791 C   0  0  0  0  0  0  0  0  0  0  0  0
   36.8509   35.8361   -6.4255 O   0  0  0  0  0  0  0  0  0  0  0  0
   38.0016   36.5038   -8.1575 O   0  0  0  0  0  0  0  0  0  0  0  0
   38.0448   37.0125   -8.9432 H   0  0  0  0  0  0  0  0  0  0  0  0
   35.2804   41.4562   -7.2678 C   0  0  0  0  0  0  0  0  0  0  0  0
   34.3176   41.8281   -8.3554 C   0  0  0  0  0  0  0  0  0  0  0  0
   33.7107   43.0875   -8.3582 C   0  0  0  0  0  0  0  0  0  0  0  0
   33.9626   40.9097   -9.3391 C   0  0  0  0  0  0  0  0  0  0  0  0
   32.7580   43.4226   -9.3242 C   0  0  0  0  0  0  0  0  0  0  0  0
   33.0077   41.2370  -10.3111 C   0  0  0  0  0  0  0  0  0  0  0  0
   32.4062   42.4940  -10.2981 C   0  0  0  0  0  0  0  0  0  0  0  0
  6  7  1  0  0  0
  7  9  1  0  0  0
  7  2  1  0  0  0
  9 10  1  0  0  0
 10 11  1  0  0  0
 11 12  1  0  0  0
 12 13  1  0  0  0
  2  3  2  0  0  0
  2  4  1  0  0  0
  4  1  1  0  0  0
  1 24  1  0  0  0
  1 14  1  0  0  0
 24 25  1  0  0  0
 25 26  2  0  0  0
 25 27  1  0  0  0
 26 28  1  0  0  0
 27 29  2  0  0  0
 28 30  2  0  0  0
 29 30  1  0  0  0
 14 15  2  0  0  0
 14 16  1  0  0  0
 16 18  1  0  0  0
 18 19  1  0  0  0
 18 20  1  0  0  0
 20 21  2  0  0  0
 20 22  1  0  0  0
  6  8  1  0  0  0
  4  5  1  0  0  0
 16 17  1  0  0  0
 22 23  1  0  0  0
M  END
> <minimizedAffinity>
-6.32547

$$$$
1QF1_TI1_A_317


 30 30  0  0  0  0  0  0  0  0999 V2000
   33.7428   38.1232   -8.6732 C   0  0  0  0  0  0  0  0  0  0  0  0
   35.0327   36.3278   -9.6096 C   0  0  0  0  0  0  0  0  0  0  0  0
   34.6609   36.6474  -10.7461 O   0  0  0  0  0  0  0  0  0  0  0  0
   34.6481   36.9886   -8.5251 N   0  0  0  0  0  0  0  0  0  0  0  0
   34.9687   36.7177   -7.6345 H   0  0  0  0  0  0  0  0  0  0  0  0
   36.6736   35.6248   -7.7984 S   0  0  0  0  0  0  0  0  0  0  0  0
   35.9401   35.1156   -9.4300 C   0  0  0  0  0  0  0  0  0  0  0  0
   37.5597   34.6795   -7.3850 H   0  0  0  0  0  0  0  0  0  0  0  0
   35.0427   33.8766   -9.3309 C   0  0  0  0  0  0  0  0  0  0  0  0
   34.9018   33.3047   -7.9612 C   0  0  0  0  0  0  0  0  0  0  0  0
   33.4713   33.4240   -7.4902 C   0  0  0  0  0  0  0  0  0  0  0  0
   33.3888   34.4045   -6.3398 C   0  0  0  0  0  0  0  0  0  0  0  0
   33.5265   33.6976   -5.0307 C   0  0  0  0  0  0  0  0  0  0  0  0
   34.4270   39.4887   -8.5905 C   0  0  0  0  0  0  0  0  0  0  0  0
   35.5951   39.6296   -8.9749 O   0  0  0  0  0  0  0  0  0  0  0  0
   33.7035   40.4842   -8.0910 N   0  0  0  0  0  0  0  0  0  0  0  0
   32.7818   40.3025   -7.7965 H   0  0  0  0  0  0  0  0  0  0  0  0
   34.2314   41.8383   -7.9649 C   0  0  0  0  0  0  0  0  0  0  0  0
   33.1368   42.8507   -8.2765 C   0  0  0  0  0  0  0  0  0  0  0  0
   34.8071   42.0750   -6.5694 C   0  0  0  0  0  0  0  0  0  0  0  0
   36.0312   41.9168   -6.3853 O   0  0  0  0  0  0  0  0  0  0  0  0
   34.0404   42.4618   -5.6716 O   0  0  0  0  0  0  0  0  0  0  0  0
   33.1267   42.5684   -5.8495 H   0  0  0  0  0  0  0  0  0  0  0  0
   32.5817   38.0574   -7.6782 C   0  0  0  0  0  0  0  0  0  0  0  0
   31.2724   37.7127   -8.3223 C   0  0  0  0  0  0  0  0  0  0  0  0
   30.7768   38.4923   -9.3716 C   0  0  0  0  0  0  0  0  0  0  0  0
   30.4998   36.6566   -7.8477 C   0  0  0  0  0  0  0  0  0  0  0  0
   29.5254   38.2264   -9.9339 C   0  0  0  0  0  0  0  0  0  0  0  0
   29.2435   36.3833   -8.4052 C   0  0  0  0  0  0  0  0  0  0  0  0
   28.7594   37.1727   -9.4467 C   0  0  0  0  0  0  0  0  0  0  0  0
  6  7  1  0  0  0
  7  9  1  0  0  0
  7  2  1  0  0  0
  9 10  1  0  0  0
 10 11  1  0  0  0
 11 12  1  0  0  0
 12 13  1  0  0  0
  2  3  2  0  0  0
  2  4  1  0  0  0
  4  1  1  0  0  0
  1 24  1  0  0  0
  1 14  1  0  0  0
 24 25  1  0  0  0
 25 26  2  0  0  0
 25 27  1  0  0  0
 26 28  1  0  0  0
 27 29  2  0  0  0
 28 30  2  0  0  0
 29 30  1  0  0  0
 14 15  2  0  0  0
 14 16  1  0  0  0
 16 18  1  0  0  0
 18 19  1  0  0  0
 18 20  1  0  0  0
 20 21  2  0  0  0
 20 22  1  0  0  0
  6  8  1  0  0  0
  4  5  1  0  0  0
 16 17  1  0  0  0
 22 23  1  0  0  0
M  END
> <minimizedAffinity>
-6.17527

$$$$
