3MZ6_B3N_A_701


 25 25  0  0  0  0  0  0  0  0999 V2000
   -0.6446   39.3160    0.4253 O   0  0  0  0  0  0  0  0  0  0  0  0
   -1.1251   40.1010    0.8119 C   0  0  0  0  0  0  0  0  0  0  0  0
   -0.8424   40.6013    2.0494 N   0  0  0  0  0  0  0  0  0  0  0  0
   -1.3952   41.3693    2.3213 H   0  0  0  0  0  0  0  0  0  0  0  0
   -2.2385   40.7577   -0.0292 C   0  0  0  0  0  0  0  0  0  0  0  0
   -1.9419   41.5699   -1.1987 C   0  0  0  0  0  0  0  0  0  0  0  0
   -3.0012   42.1850   -1.9759 C   0  0  0  0  0  0  0  0  0  0  0  0
   -4.4011   42.0083   -1.6078 C   0  0  0  0  0  0  0  0  0  0  0  0
   -4.6812   41.1927   -0.4012 C   0  0  0  0  0  0  0  0  0  0  0  0
   -3.6296   40.5764    0.3384 C   0  0  0  0  0  0  0  0  0  0  0  0
   -5.4932   42.6191   -2.3579 N   0  0  0  0  0  0  0  0  0  0  0  0
   -6.5505   41.8070   -2.9738 C   0  0  0  0  0  0  0  0  0  0  0  0
   -5.6534   44.0664   -2.5009 C   0  0  0  0  0  0  0  0  0  0  0  0
    0.1668   40.1720    3.0526 C   0  0  0  0  0  0  0  0  0  0  0  0
    1.6331   40.5613    2.7756 C   0  0  0  0  0  0  0  0  0  0  0  0
    2.4472   39.3482    2.2866 C   0  0  0  0  0  0  0  0  0  0  0  0
    1.7342   38.0187    2.4283 C   0  0  0  0  0  0  0  0  0  0  0  0
    2.7246   36.8593    2.4903 C   0  0  0  0  0  0  0  0  0  0  0  0
    1.9527   35.5477    2.4246 C   0  0  0  0  0  0  0  0  0  0  0  0
    2.8367   34.2940    2.4187 C   0  0  0  0  0  0  0  0  0  0  0  0
    2.6552   33.4005    1.5896 O   0  0  0  0  0  0  0  0  0  0  0  0
    3.8114   34.1650    3.3027 N   0  0  0  0  0  0  0  0  0  0  0  0
    4.5121   33.1486    3.2670 O   0  0  0  0  0  0  0  0  0  0  0  0
    3.9753   34.8648    3.9755 H   0  0  0  0  0  0  0  0  0  0  0  0
    4.2107   32.5733    2.5465 H   0  0  0  0  0  0  0  0  0  0  0  0
  1  2  2  0  0  0
  2  5  1  0  0  0
  2  3  1  0  0  0
  5  6  2  0  0  0
  5 10  1  0  0  0
  6  7  1  0  0  0
  7  8  2  0  0  0
  8 11  1  0  0  0
  8  9  1  0  0  0
 11 12  1  0  0  0
 11 13  1  0  0  0
  9 10  2  0  0  0
  3 14  1  0  0  0
 14 15  1  0  0  0
 15 16  1  0  0  0
 16 17  1  0  0  0
 17 18  1  0  0  0
 18 19  1  0  0  0
 19 20  1  0  0  0
 20 21  2  0  0  0
 20 22  1  0  0  0
 22 23  1  0  0  0
  3  4  1  0  0  0
 22 24  1  0  0  0
 23 25  1  0  0  0
M  END
> <minimizedAffinity>
-6.74925

$$$$
3MZ6_B3N_A_701


 25 25  0  0  0  0  0  0  0  0999 V2000
   -0.9974   41.7276    3.2318 O   0  0  0  0  0  0  0  0  0  0  0  0
   -0.3661   41.8473    2.4678 C   0  0  0  0  0  0  0  0  0  0  0  0
    0.0134   40.8174    1.6574 N   0  0  0  0  0  0  0  0  0  0  0  0
    0.6503   41.0624    0.9478 H   0  0  0  0  0  0  0  0  0  0  0  0
    0.2059   43.2565    2.2120 C   0  0  0  0  0  0  0  0  0  0  0  0
    0.9108   43.5897    0.9843 C   0  0  0  0  0  0  0  0  0  0  0  0
    1.4474   44.9190    0.7617 C   0  0  0  0  0  0  0  0  0  0  0  0
    1.2968   45.9663    1.7652 C   0  0  0  0  0  0  0  0  0  0  0  0
    0.5918   45.6009    3.0178 C   0  0  0  0  0  0  0  0  0  0  0  0
    0.0506   44.2961    3.2111 C   0  0  0  0  0  0  0  0  0  0  0  0
    1.8314   47.3114    1.5824 N   0  0  0  0  0  0  0  0  0  0  0  0
    1.8643   48.2812    2.6847 C   0  0  0  0  0  0  0  0  0  0  0  0
    2.4235   47.7723    0.3263 C   0  0  0  0  0  0  0  0  0  0  0  0
   -0.3814   39.3845    1.6747 C   0  0  0  0  0  0  0  0  0  0  0  0
    0.5175   38.4244    2.4798 C   0  0  0  0  0  0  0  0  0  0  0  0
    1.9757   38.4829    1.9859 C   0  0  0  0  0  0  0  0  0  0  0  0
    2.8656   37.3853    2.5331 C   0  0  0  0  0  0  0  0  0  0  0  0
    2.4199   36.0105    2.0430 C   0  0  0  0  0  0  0  0  0  0  0  0
    2.9122   34.9542    3.0239 C   0  0  0  0  0  0  0  0  0  0  0  0
    2.9851   33.5367    2.4420 C   0  0  0  0  0  0  0  0  0  0  0  0
    2.6878   33.3241    1.2650 O   0  0  0  0  0  0  0  0  0  0  0  0
    3.3777   32.5273    3.2003 N   0  0  0  0  0  0  0  0  0  0  0  0
    3.4352   31.3992    2.7009 O   0  0  0  0  0  0  0  0  0  0  0  0
    3.6194   32.6720    4.1437 H   0  0  0  0  0  0  0  0  0  0  0  0
    3.1640   31.4433    1.7706 H   0  0  0  0  0  0  0  0  0  0  0  0
  1  2  2  0  0  0
  2  5  1  0  0  0
  2  3  1  0  0  0
  5  6  2  0  0  0
  5 10  1  0  0  0
  6  7  1  0  0  0
  7  8  2  0  0  0
  8 11  1  0  0  0
  8  9  1  0  0  0
 11 12  1  0  0  0
 11 13  1  0  0  0
  9 10  2  0  0  0
  3 14  1  0  0  0
 14 15  1  0  0  0
 15 16  1  0  0  0
 16 17  1  0  0  0
 17 18  1  0  0  0
 18 19  1  0  0  0
 19 20  1  0  0  0
 20 21  2  0  0  0
 20 22  1  0  0  0
 22 23  1  0  0  0
  3  4  1  0  0  0
 22 24  1  0  0  0
 23 25  1  0  0  0
M  END
> <minimizedAffinity>
-6.45238

$$$$
3MZ6_B3N_A_701


 25 25  0  0  0  0  0  0  0  0999 V2000
   -0.4538   42.4151    0.0953 O   0  0  0  0  0  0  0  0  0  0  0  0
    0.4090   42.3928    0.5970 C   0  0  0  0  0  0  0  0  0  0  0  0
    0.8818   41.2637    1.1996 N   0  0  0  0  0  0  0  0  0  0  0  0
    1.7374   41.3751    1.6737 H   0  0  0  0  0  0  0  0  0  0  0  0
    1.2245   43.6978    0.6980 C   0  0  0  0  0  0  0  0  0  0  0  0
    0.9583   44.6942    1.7235 C   0  0  0  0  0  0  0  0  0  0  0  0
    1.7317   45.9192    1.8011 C   0  0  0  0  0  0  0  0  0  0  0  0
    2.8033   46.1912    0.8503 C   0  0  0  0  0  0  0  0  0  0  0  0
    3.0460   45.1716   -0.1990 C   0  0  0  0  0  0  0  0  0  0  0  0
    2.2918   43.9626   -0.2474 C   0  0  0  0  0  0  0  0  0  0  0  0
    3.5956   47.4156    0.8897 N   0  0  0  0  0  0  0  0  0  0  0  0
    3.9826   48.1199   -0.3395 C   0  0  0  0  0  0  0  0  0  0  0  0
    4.0074   48.0615    2.1363 C   0  0  0  0  0  0  0  0  0  0  0  0
    0.3113   39.8923    1.2546 C   0  0  0  0  0  0  0  0  0  0  0  0
    0.1161   39.2750    2.6542 C   0  0  0  0  0  0  0  0  0  0  0  0
    0.7683   37.8821    2.7432 C   0  0  0  0  0  0  0  0  0  0  0  0
    2.1582   37.8032    2.1449 C   0  0  0  0  0  0  0  0  0  0  0  0
    2.4581   36.4038    1.6153 C   0  0  0  0  0  0  0  0  0  0  0  0
    2.6889   35.4690    2.7956 C   0  0  0  0  0  0  0  0  0  0  0  0
    2.7651   33.9837    2.4198 C   0  0  0  0  0  0  0  0  0  0  0  0
    2.5893   33.6199    1.2555 O   0  0  0  0  0  0  0  0  0  0  0  0
    3.0298   33.0776    3.3455 N   0  0  0  0  0  0  0  0  0  0  0  0
    3.0939   31.8906    3.0106 O   0  0  0  0  0  0  0  0  0  0  0  0
    3.1730   33.3437    4.2825 H   0  0  0  0  0  0  0  0  0  0  0  0
    2.9279   31.8140    2.0580 H   0  0  0  0  0  0  0  0  0  0  0  0
  1  2  2  0  0  0
  2  5  1  0  0  0
  2  3  1  0  0  0
  5  6  2  0  0  0
  5 10  1  0  0  0
  6  7  1  0  0  0
  7  8  2  0  0  0
  8 11  1  0  0  0
  8  9  1  0  0  0
 11 12  1  0  0  0
 11 13  1  0  0  0
  9 10  2  0  0  0
  3 14  1  0  0  0
 14 15  1  0  0  0
 15 16  1  0  0  0
 16 17  1  0  0  0
 17 18  1  0  0  0
 18 19  1  0  0  0
 19 20  1  0  0  0
 20 21  2  0  0  0
 20 22  1  0  0  0
 22 23  1  0  0  0
  3  4  1  0  0  0
 22 24  1  0  0  0
 23 25  1  0  0  0
M  END
> <minimizedAffinity>
-6.37108

$$$$
3MZ6_B3N_A_701


 25 25  0  0  0  0  0  0  0  0999 V2000
    1.0779   42.6125    0.5491 O   0  0  0  0  0  0  0  0  0  0  0  0
    0.5387   41.8086    0.7933 C   0  0  0  0  0  0  0  0  0  0  0  0
    1.0947   40.6831    1.3277 N   0  0  0  0  0  0  0  0  0  0  0  0
    0.4584   39.9551    1.5128 H   0  0  0  0  0  0  0  0  0  0  0  0
   -0.9820   41.8492    0.5393 C   0  0  0  0  0  0  0  0  0  0  0  0
   -1.9248   42.2415    1.5749 C   0  0  0  0  0  0  0  0  0  0  0  0
   -3.3529   42.2692    1.3208 C   0  0  0  0  0  0  0  0  0  0  0  0
   -3.8898   41.9031    0.0154 C   0  0  0  0  0  0  0  0  0  0  0  0
   -2.9133   41.4878   -1.0207 C   0  0  0  0  0  0  0  0  0  0  0  0
   -1.5113   41.4878   -0.7616 C   0  0  0  0  0  0  0  0  0  0  0  0
   -5.3195   41.9085   -0.2751 N   0  0  0  0  0  0  0  0  0  0  0  0
   -5.8279   41.6845   -1.6345 C   0  0  0  0  0  0  0  0  0  0  0  0
   -6.3441   42.0725    0.7565 C   0  0  0  0  0  0  0  0  0  0  0  0
    2.5079   40.3806    1.6751 C   0  0  0  0  0  0  0  0  0  0  0  0
    2.7492   39.2213    2.6629 C   0  0  0  0  0  0  0  0  0  0  0  0
    2.6289   37.8566    1.9581 C   0  0  0  0  0  0  0  0  0  0  0  0
    2.2587   36.7094    2.8760 C   0  0  0  0  0  0  0  0  0  0  0  0
    2.4700   35.3602    2.1948 C   0  0  0  0  0  0  0  0  0  0  0  0
    3.3025   34.4712    3.1096 C   0  0  0  0  0  0  0  0  0  0  0  0
    3.0134   32.9714    2.9673 C   0  0  0  0  0  0  0  0  0  0  0  0
    1.8555   32.5607    2.8703 O   0  0  0  0  0  0  0  0  0  0  0  0
    4.0101   32.1032    2.9387 N   0  0  0  0  0  0  0  0  0  0  0  0
    3.7462   30.9031    2.8138 O   0  0  0  0  0  0  0  0  0  0  0  0
    4.9434   32.4070    3.0154 H   0  0  0  0  0  0  0  0  0  0  0  0
    2.7849   30.7881    2.7531 H   0  0  0  0  0  0  0  0  0  0  0  0
  1  2  2  0  0  0
  2  5  1  0  0  0
  2  3  1  0  0  0
  5  6  2  0  0  0
  5 10  1  0  0  0
  6  7  1  0  0  0
  7  8  2  0  0  0
  8 11  1  0  0  0
  8  9  1  0  0  0
 11 12  1  0  0  0
 11 13  1  0  0  0
  9 10  2  0  0  0
  3 14  1  0  0  0
 14 15  1  0  0  0
 15 16  1  0  0  0
 16 17  1  0  0  0
 17 18  1  0  0  0
 18 19  1  0  0  0
 19 20  1  0  0  0
 20 21  2  0  0  0
 20 22  1  0  0  0
 22 23  1  0  0  0
  3  4  1  0  0  0
 22 24  1  0  0  0
 23 25  1  0  0  0
M  END
> <minimizedAffinity>
-6.26198

$$$$
3MZ6_B3N_A_701


 25 25  0  0  0  0  0  0  0  0999 V2000
   -1.3028   42.3063    1.2740 O   0  0  0  0  0  0  0  0  0  0  0  0
   -0.4171   41.9997    0.9302 C   0  0  0  0  0  0  0  0  0  0  0  0
    0.1442   40.8114    1.2969 N   0  0  0  0  0  0  0  0  0  0  0  0
    1.0261   40.6302    0.8987 H   0  0  0  0  0  0  0  0  0  0  0  0
    0.3427   42.9221   -0.0446 C   0  0  0  0  0  0  0  0  0  0  0  0
   -0.2909   43.4782   -1.2297 C   0  0  0  0  0  0  0  0  0  0  0  0
    0.4399   44.3401   -2.1395 C   0  0  0  0  0  0  0  0  0  0  0  0
    1.8373   44.6767   -1.8940 C   0  0  0  0  0  0  0  0  0  0  0  0
    2.4703   44.0841   -0.6908 C   0  0  0  0  0  0  0  0  0  0  0  0
    1.7314   43.2572    0.2053 C   0  0  0  0  0  0  0  0  0  0  0  0
    2.6082   45.5311   -2.7907 N   0  0  0  0  0  0  0  0  0  0  0  0
    2.1876   46.9055   -3.0925 C   0  0  0  0  0  0  0  0  0  0  0  0
    3.8718   45.1159   -3.4005 C   0  0  0  0  0  0  0  0  0  0  0  0
   -0.3634   39.7468    2.2014 C   0  0  0  0  0  0  0  0  0  0  0  0
    0.6542   38.6861    2.6680 C   0  0  0  0  0  0  0  0  0  0  0  0
    2.0607   38.9839    2.1143 C   0  0  0  0  0  0  0  0  0  0  0  0
    2.9899   37.7873    2.0915 C   0  0  0  0  0  0  0  0  0  0  0  0
    2.2281   36.4958    1.8074 C   0  0  0  0  0  0  0  0  0  0  0  0
    2.4699   35.5192    2.9510 C   0  0  0  0  0  0  0  0  0  0  0  0
    2.9604   34.1352    2.5071 C   0  0  0  0  0  0  0  0  0  0  0  0
    2.6075   33.6599    1.4261 O   0  0  0  0  0  0  0  0  0  0  0  0
    3.7772   33.4408    3.2809 N   0  0  0  0  0  0  0  0  0  0  0  0
    4.1624   32.3337    2.8921 O   0  0  0  0  0  0  0  0  0  0  0  0
    4.0722   33.7989    4.1492 H   0  0  0  0  0  0  0  0  0  0  0  0
    3.7753   32.1435    2.0232 H   0  0  0  0  0  0  0  0  0  0  0  0
  1  2  2  0  0  0
  2  5  1  0  0  0
  2  3  1  0  0  0
  5  6  2  0  0  0
  5 10  1  0  0  0
  6  7  1  0  0  0
  7  8  2  0  0  0
  8 11  1  0  0  0
  8  9  1  0  0  0
 11 12  1  0  0  0
 11 13  1  0  0  0
  9 10  2  0  0  0
  3 14  1  0  0  0
 14 15  1  0  0  0
 15 16  1  0  0  0
 16 17  1  0  0  0
 17 18  1  0  0  0
 18 19  1  0  0  0
 19 20  1  0  0  0
 20 21  2  0  0  0
 20 22  1  0  0  0
 22 23  1  0  0  0
  3  4  1  0  0  0
 22 24  1  0  0  0
 23 25  1  0  0  0
M  END
> <minimizedAffinity>
-6.25150

$$$$
3MZ6_B3N_A_701


 25 25  0  0  0  0  0  0  0  0999 V2000
    0.4562   42.8414   -0.8819 O   0  0  0  0  0  0  0  0  0  0  0  0
    1.1332   43.0723   -0.1855 C   0  0  0  0  0  0  0  0  0  0  0  0
    1.2159   42.4159    1.0078 N   0  0  0  0  0  0  0  0  0  0  0  0
    1.9175   42.7466    1.6141 H   0  0  0  0  0  0  0  0  0  0  0  0
    2.1113   44.2282   -0.4781 C   0  0  0  0  0  0  0  0  0  0  0  0
    2.7021   45.0243    0.5860 C   0  0  0  0  0  0  0  0  0  0  0  0
    3.6165   46.1119    0.2931 C   0  0  0  0  0  0  0  0  0  0  0  0
    3.9729   46.4424   -1.0817 C   0  0  0  0  0  0  0  0  0  0  0  0
    3.3449   45.6311   -2.1527 C   0  0  0  0  0  0  0  0  0  0  0  0
    2.4659   44.5511   -1.8467 C   0  0  0  0  0  0  0  0  0  0  0  0
    4.8801   47.5348   -1.4165 N   0  0  0  0  0  0  0  0  0  0  0  0
    5.6857   47.5152   -2.6443 C   0  0  0  0  0  0  0  0  0  0  0  0
    5.0109   48.7433   -0.6022 C   0  0  0  0  0  0  0  0  0  0  0  0
    0.4158   41.2813    1.5385 C   0  0  0  0  0  0  0  0  0  0  0  0
    1.0287   39.8728    1.4013 C   0  0  0  0  0  0  0  0  0  0  0  0
    2.3927   39.7888    2.1126 C   0  0  0  0  0  0  0  0  0  0  0  0
    2.8987   38.3771    2.3294 C   0  0  0  0  0  0  0  0  0  0  0  0
    2.0345   37.3564    1.5945 C   0  0  0  0  0  0  0  0  0  0  0  0
    1.6468   36.2486    2.5654 C   0  0  0  0  0  0  0  0  0  0  0  0
    2.6036   35.0495    2.5705 C   0  0  0  0  0  0  0  0  0  0  0  0
    2.5382   34.1891    1.6905 O   0  0  0  0  0  0  0  0  0  0  0  0
    3.5168   34.9331    3.5195 N   0  0  0  0  0  0  0  0  0  0  0  0
    4.2789   33.9616    3.4915 O   0  0  0  0  0  0  0  0  0  0  0  0
    3.5879   35.6070    4.2337 H   0  0  0  0  0  0  0  0  0  0  0  0
    4.0668   33.4063    2.7251 H   0  0  0  0  0  0  0  0  0  0  0  0
  1  2  2  0  0  0
  2  5  1  0  0  0
  2  3  1  0  0  0
  5  6  2  0  0  0
  5 10  1  0  0  0
  6  7  1  0  0  0
  7  8  2  0  0  0
  8 11  1  0  0  0
  8  9  1  0  0  0
 11 12  1  0  0  0
 11 13  1  0  0  0
  9 10  2  0  0  0
  3 14  1  0  0  0
 14 15  1  0  0  0
 15 16  1  0  0  0
 16 17  1  0  0  0
 17 18  1  0  0  0
 18 19  1  0  0  0
 19 20  1  0  0  0
 20 21  2  0  0  0
 20 22  1  0  0  0
 22 23  1  0  0  0
  3  4  1  0  0  0
 22 24  1  0  0  0
 23 25  1  0  0  0
M  END
> <minimizedAffinity>
-6.11825

$$$$
3MZ6_B3N_A_701


 25 25  0  0  0  0  0  0  0  0999 V2000
   -1.1168   42.4915   -1.8263 O   0  0  0  0  0  0  0  0  0  0  0  0
   -0.4483   42.6638   -1.1052 C   0  0  0  0  0  0  0  0  0  0  0  0
   -0.6586   42.3071    0.1948 N   0  0  0  0  0  0  0  0  0  0  0  0
    0.0712   42.5436    0.8119 H   0  0  0  0  0  0  0  0  0  0  0  0
    0.8661   43.3740   -1.4878 C   0  0  0  0  0  0  0  0  0  0  0  0
    1.2320   43.6215   -2.8735 C   0  0  0  0  0  0  0  0  0  0  0  0
    2.4750   44.2863   -3.2163 C   0  0  0  0  0  0  0  0  0  0  0  0
    3.4000   44.7282   -2.1792 C   0  0  0  0  0  0  0  0  0  0  0  0
    3.0175   44.4492   -0.7738 C   0  0  0  0  0  0  0  0  0  0  0  0
    1.7815   43.8151   -0.4530 C   0  0  0  0  0  0  0  0  0  0  0  0
    4.6637   45.3903   -2.4846 N   0  0  0  0  0  0  0  0  0  0  0  0
    5.9423   44.6706   -2.4236 C   0  0  0  0  0  0  0  0  0  0  0  0
    4.7501   46.7819   -2.9283 C   0  0  0  0  0  0  0  0  0  0  0  0
   -1.8134   41.6184    0.8282 C   0  0  0  0  0  0  0  0  0  0  0  0
   -1.5896   40.1637    1.2885 C   0  0  0  0  0  0  0  0  0  0  0  0
   -0.1518   39.7001    0.9858 C   0  0  0  0  0  0  0  0  0  0  0  0
    0.7200   39.5253    2.2127 C   0  0  0  0  0  0  0  0  0  0  0  0
    2.2016   39.5200    1.8471 C   0  0  0  0  0  0  0  0  0  0  0  0
    2.8844   38.3681    2.5731 C   0  0  0  0  0  0  0  0  0  0  0  0
    2.3773   36.9777    2.1695 C   0  0  0  0  0  0  0  0  0  0  0  0
    2.4899   36.5798    1.0085 O   0  0  0  0  0  0  0  0  0  0  0  0
    1.8200   36.1870    3.0708 N   0  0  0  0  0  0  0  0  0  0  0  0
    1.4300   35.0697    2.7176 O   0  0  0  0  0  0  0  0  0  0  0  0
    1.7180   36.4829    4.0042 H   0  0  0  0  0  0  0  0  0  0  0  0
    1.6094   34.9485    1.7721 H   0  0  0  0  0  0  0  0  0  0  0  0
  1  2  2  0  0  0
  2  5  1  0  0  0
  2  3  1  0  0  0
  5  6  2  0  0  0
  5 10  1  0  0  0
  6  7  1  0  0  0
  7  8  2  0  0  0
  8 11  1  0  0  0
  8  9  1  0  0  0
 11 12  1  0  0  0
 11 13  1  0  0  0
  9 10  2  0  0  0
  3 14  1  0  0  0
 14 15  1  0  0  0
 15 16  1  0  0  0
 16 17  1  0  0  0
 17 18  1  0  0  0
 18 19  1  0  0  0
 19 20  1  0  0  0
 20 21  2  0  0  0
 20 22  1  0  0  0
 22 23  1  0  0  0
  3  4  1  0  0  0
 22 24  1  0  0  0
 23 25  1  0  0  0
M  END
> <minimizedAffinity>
-5.99127

$$$$
3MZ6_B3N_A_701


 25 25  0  0  0  0  0  0  0  0999 V2000
   -0.2106   39.3534    0.2700 O   0  0  0  0  0  0  0  0  0  0  0  0
   -0.2749   39.9476    1.0697 C   0  0  0  0  0  0  0  0  0  0  0  0
    0.7859   40.1937    1.8917 N   0  0  0  0  0  0  0  0  0  0  0  0
    0.5904   40.7862    2.6533 H   0  0  0  0  0  0  0  0  0  0  0  0
   -1.6376   40.5974    1.3844 C   0  0  0  0  0  0  0  0  0  0  0  0
   -2.8244   40.3189    0.5911 C   0  0  0  0  0  0  0  0  0  0  0  0
   -4.0977   40.9430    0.8974 C   0  0  0  0  0  0  0  0  0  0  0  0
   -4.2283   41.8723    2.0135 C   0  0  0  0  0  0  0  0  0  0  0  0
   -3.0023   42.1574    2.7979 C   0  0  0  0  0  0  0  0  0  0  0  0
   -1.7638   41.5182    2.4976 C   0  0  0  0  0  0  0  0  0  0  0  0
   -5.4887   42.5274    2.3463 N   0  0  0  0  0  0  0  0  0  0  0  0
   -6.1574   43.4313    1.4016 C   0  0  0  0  0  0  0  0  0  0  0  0
   -6.2054   42.2917    3.6000 C   0  0  0  0  0  0  0  0  0  0  0  0
    2.1896   39.7101    1.8211 C   0  0  0  0  0  0  0  0  0  0  0  0
    2.5174   38.4103    2.5835 C   0  0  0  0  0  0  0  0  0  0  0  0
    2.1266   37.1689    1.7591 C   0  0  0  0  0  0  0  0  0  0  0  0
    2.0754   35.8806    2.5551 C   0  0  0  0  0  0  0  0  0  0  0  0
    3.4714   35.4292    2.9748 C   0  0  0  0  0  0  0  0  0  0  0  0
    3.3601   34.0963    3.7036 C   0  0  0  0  0  0  0  0  0  0  0  0
    3.3396   32.8712    2.7806 C   0  0  0  0  0  0  0  0  0  0  0  0
    2.8215   32.9337    1.6641 O   0  0  0  0  0  0  0  0  0  0  0  0
    3.8880   31.7344    3.1742 N   0  0  0  0  0  0  0  0  0  0  0  0
    3.8640   30.7682    2.4052 O   0  0  0  0  0  0  0  0  0  0  0  0
    4.3069   31.6595    4.0620 H   0  0  0  0  0  0  0  0  0  0  0  0
    3.4158   31.0206    1.5828 H   0  0  0  0  0  0  0  0  0  0  0  0
  1  2  2  0  0  0
  2  5  1  0  0  0
  2  3  1  0  0  0
  5  6  2  0  0  0
  5 10  1  0  0  0
  6  7  1  0  0  0
  7  8  2  0  0  0
  8 11  1  0  0  0
  8  9  1  0  0  0
 11 12  1  0  0  0
 11 13  1  0  0  0
  9 10  2  0  0  0
  3 14  1  0  0  0
 14 15  1  0  0  0
 15 16  1  0  0  0
 16 17  1  0  0  0
 17 18  1  0  0  0
 18 19  1  0  0  0
 19 20  1  0  0  0
 20 21  2  0  0  0
 20 22  1  0  0  0
 22 23  1  0  0  0
  3  4  1  0  0  0
 22 24  1  0  0  0
 23 25  1  0  0  0
M  END
> <minimizedAffinity>
-5.96565

$$$$
3MZ6_B3N_A_701


 25 25  0  0  0  0  0  0  0  0999 V2000
    2.2735   44.4919    0.1071 O   0  0  0  0  0  0  0  0  0  0  0  0
    1.7116   44.5588    0.9295 C   0  0  0  0  0  0  0  0  0  0  0  0
    0.9626   43.5183    1.3964 N   0  0  0  0  0  0  0  0  0  0  0  0
    0.4424   43.7150    2.2089 H   0  0  0  0  0  0  0  0  0  0  0  0
    1.6884   45.9023    1.6864 C   0  0  0  0  0  0  0  0  0  0  0  0
    0.5212   46.3452    2.4323 C   0  0  0  0  0  0  0  0  0  0  0  0
    0.5142   47.6147    3.1346 C   0  0  0  0  0  0  0  0  0  0  0  0
    1.6806   48.4895    3.1142 C   0  0  0  0  0  0  0  0  0  0  0  0
    2.8533   48.0283    2.3322 C   0  0  0  0  0  0  0  0  0  0  0  0
    2.8520   46.7676    1.6665 C   0  0  0  0  0  0  0  0  0  0  0  0
    1.7080   49.7775    3.7990 N   0  0  0  0  0  0  0  0  0  0  0  0
    0.4710   50.4813    4.1610 C   0  0  0  0  0  0  0  0  0  0  0  0
    2.9462   50.4289    4.2272 C   0  0  0  0  0  0  0  0  0  0  0  0
    0.8065   42.1355    0.8744 C   0  0  0  0  0  0  0  0  0  0  0  0
    0.6931   41.0059    1.9182 C   0  0  0  0  0  0  0  0  0  0  0  0
    1.7352   39.9016    1.6573 C   0  0  0  0  0  0  0  0  0  0  0  0
    1.6912   38.7543    2.6461 C   0  0  0  0  0  0  0  0  0  0  0  0
    2.8591   37.7943    2.4380 C   0  0  0  0  0  0  0  0  0  0  0  0
    2.3620   36.5706    1.6793 C   0  0  0  0  0  0  0  0  0  0  0  0
    2.6379   35.2357    2.3831 C   0  0  0  0  0  0  0  0  0  0  0  0
    2.2824   34.1712    1.8739 O   0  0  0  0  0  0  0  0  0  0  0  0
    3.2703   35.2158    3.5440 N   0  0  0  0  0  0  0  0  0  0  0  0
    3.4861   34.1251    4.0817 O   0  0  0  0  0  0  0  0  0  0  0  0
    3.5631   36.0531    3.9710 H   0  0  0  0  0  0  0  0  0  0  0  0
    3.1315   33.4143    3.5249 H   0  0  0  0  0  0  0  0  0  0  0  0
  1  2  2  0  0  0
  2  5  1  0  0  0
  2  3  1  0  0  0
  5  6  2  0  0  0
  5 10  1  0  0  0
  6  7  1  0  0  0
  7  8  2  0  0  0
  8 11  1  0  0  0
  8  9  1  0  0  0
 11 12  1  0  0  0
 11 13  1  0  0  0
  9 10  2  0  0  0
  3 14  1  0  0  0
 14 15  1  0  0  0
 15 16  1  0  0  0
 16 17  1  0  0  0
 17 18  1  0  0  0
 18 19  1  0  0  0
 19 20  1  0  0  0
 20 21  2  0  0  0
 20 22  1  0  0  0
 22 23  1  0  0  0
  3  4  1  0  0  0
 22 24  1  0  0  0
 23 25  1  0  0  0
M  END
> <minimizedAffinity>
-5.89435

$$$$
3MZ6_B3N_A_701


 25 25  0  0  0  0  0  0  0  0999 V2000
    0.4221   42.6007    2.4288 O   0  0  0  0  0  0  0  0  0  0  0  0
   -0.1175   41.9260    2.9291 C   0  0  0  0  0  0  0  0  0  0  0  0
   -0.0119   40.5845    2.7039 N   0  0  0  0  0  0  0  0  0  0  0  0
   -0.6072   40.0247    3.2530 H   0  0  0  0  0  0  0  0  0  0  0  0
   -1.1162   42.4352    3.9882 C   0  0  0  0  0  0  0  0  0  0  0  0
   -0.7046   42.7434    5.3487 C   0  0  0  0  0  0  0  0  0  0  0  0
   -1.6582   43.2165    6.3344 C   0  0  0  0  0  0  0  0  0  0  0  0
   -3.0638   43.3980    5.9914 C   0  0  0  0  0  0  0  0  0  0  0  0
   -3.4665   43.0600    4.6046 C   0  0  0  0  0  0  0  0  0  0  0  0
   -2.5125   42.6178    3.6418 C   0  0  0  0  0  0  0  0  0  0  0  0
   -4.0541   43.8616    6.9572 N   0  0  0  0  0  0  0  0  0  0  0  0
   -5.2118   43.0368    7.3263 C   0  0  0  0  0  0  0  0  0  0  0  0
   -3.9416   45.1352    7.6687 C   0  0  0  0  0  0  0  0  0  0  0  0
    0.8585   39.8332    1.7620 C   0  0  0  0  0  0  0  0  0  0  0  0
    2.3725   39.8430    2.0546 C   0  0  0  0  0  0  0  0  0  0  0  0
    2.8483   38.4702    2.5671 C   0  0  0  0  0  0  0  0  0  0  0  0
    1.7839   37.3920    2.5464 C   0  0  0  0  0  0  0  0  0  0  0  0
    2.2649   36.1484    1.8041 C   0  0  0  0  0  0  0  0  0  0  0  0
    2.8788   35.1815    2.8083 C   0  0  0  0  0  0  0  0  0  0  0  0
    2.9269   33.7236    2.3336 C   0  0  0  0  0  0  0  0  0  0  0  0
    2.6304   33.4297    1.1740 O   0  0  0  0  0  0  0  0  0  0  0  0
    3.2971   32.7661    3.1668 N   0  0  0  0  0  0  0  0  0  0  0  0
    3.3350   31.6032    2.7527 O   0  0  0  0  0  0  0  0  0  0  0  0
    3.5376   32.9759    4.0982 H   0  0  0  0  0  0  0  0  0  0  0  0
    3.0685   31.5831    1.8203 H   0  0  0  0  0  0  0  0  0  0  0  0
  1  2  2  0  0  0
  2  5  1  0  0  0
  2  3  1  0  0  0
  5  6  2  0  0  0
  5 10  1  0  0  0
  6  7  1  0  0  0
  7  8  2  0  0  0
  8 11  1  0  0  0
  8  9  1  0  0  0
 11 12  1  0  0  0
 11 13  1  0  0  0
  9 10  2  0  0  0
  3 14  1  0  0  0
 14 15  1  0  0  0
 15 16  1  0  0  0
 16 17  1  0  0  0
 17 18  1  0  0  0
 18 19  1  0  0  0
 19 20  1  0  0  0
 20 21  2  0  0  0
 20 22  1  0  0  0
 22 23  1  0  0  0
  3  4  1  0  0  0
 22 24  1  0  0  0
 23 25  1  0  0  0
M  END
> <minimizedAffinity>
-5.87886

$$$$
