1C88_OTA_A_301


 22 23  0  0  0  0  0  0  0  0999 V2000
   45.3559   10.4004   -0.6170 N   0  0  0  0  0  0  0  0  0  0  0  0
   45.8569   10.5913    0.7640 C   0  0  0  0  0  0  0  0  0  0  0  0
   45.3402   11.9241    1.2689 C   0  0  0  0  0  0  0  0  0  0  0  0
   44.5802   12.7740    0.5212 C   0  0  0  0  0  0  0  0  0  0  0  0
   43.9049   12.4275   -0.7754 C   0  0  0  0  0  0  0  0  0  0  0  0
   43.9381   10.9195   -0.9412 C   0  0  0  0  0  0  0  0  0  0  0  0
   45.8281   12.6171    2.8497 S   0  0  0  0  0  0  0  0  0  0  0  0
   44.9130   14.0020    2.4287 C   0  0  0  0  0  0  0  0  0  0  0  0
   44.3328   14.0134    1.2307 C   0  0  0  0  0  0  0  0  0  0  0  0
   45.3655    9.3988   -0.8094 H   0  0  0  0  0  0  0  0  0  0  0  0
   43.6216   15.2272    0.7968 C   0  0  0  0  0  0  0  0  0  0  0  0
   43.0889   16.0049    1.5438 O   0  0  0  0  0  0  0  0  0  0  0  0
   43.6269   15.3273   -0.5130 O   0  0  0  0  0  0  0  0  0  0  0  0
   43.1279   15.8668    2.4697 H   0  0  0  0  0  0  0  0  0  0  0  0
   44.8041   15.0961    3.3530 N   0  0  0  0  0  0  0  0  0  0  0  0
   45.7171   15.4617    4.2669 C   0  0  0  0  0  0  0  0  0  0  0  0
   46.7256   14.8007    4.6174 O   0  0  0  0  0  0  0  0  0  0  0  0
   43.9784   15.6307    3.3123 H   0  0  0  0  0  0  0  0  0  0  0  0
   45.3304   16.7432    4.9716 C   0  0  0  0  0  0  0  0  0  0  0  0
   44.2398   17.2053    4.9402 O   0  0  0  0  0  0  0  0  0  0  0  0
   46.3909   17.4407    5.5259 O   0  0  0  0  0  0  0  0  0  0  0  0
   43.5352   16.7178    4.5609 H   0  0  0  0  0  0  0  0  0  0  0  0
  1  2  1  0  0  0
  1  6  1  0  0  0
  2  3  1  0  0  0
  3  4  2  0  0  0
  3  7  1  0  0  0
  4  5  1  0  0  0
  4  9  1  0  0  0
  5  6  1  0  0  0
  7  8  1  0  0  0
  8  9  2  0  0  0
  8 15  1  0  0  0
  9 11  1  0  0  0
 11 12  1  0  0  0
 11 13  2  0  0  0
 15 16  1  0  0  0
 16 19  1  0  0  0
 16 17  2  0  0  0
 19 20  1  0  0  0
 19 21  2  0  0  0
  1 10  1  0  0  0
 12 14  1  0  0  0
 15 18  1  0  0  0
 20 22  1  0  0  0
M  END
> <minimizedAffinity>
-7.80217

$$$$
1C88_OTA_A_301


 22 23  0  0  0  0  0  0  0  0999 V2000
   43.3608   15.4940    1.1265 N   0  0  0  0  0  0  0  0  0  0  0  0
   44.2060   14.9032    2.1901 C   0  0  0  0  0  0  0  0  0  0  0  0
   44.7273   13.5713    1.6875 C   0  0  0  0  0  0  0  0  0  0  0  0
   44.4083   13.0435    0.4715 C   0  0  0  0  0  0  0  0  0  0  0  0
   43.7487   13.7868   -0.6552 C   0  0  0  0  0  0  0  0  0  0  0  0
   43.7949   15.2701   -0.3384 C   0  0  0  0  0  0  0  0  0  0  0  0
   45.6780   12.4516    2.7168 S   0  0  0  0  0  0  0  0  0  0  0  0
   45.6425   11.3515    1.4050 C   0  0  0  0  0  0  0  0  0  0  0  0
   44.9649   11.7140    0.3181 C   0  0  0  0  0  0  0  0  0  0  0  0
   43.3301   16.5011    1.2851 H   0  0  0  0  0  0  0  0  0  0  0  0
   44.8305   10.7533   -0.7893 C   0  0  0  0  0  0  0  0  0  0  0  0
   45.7413   10.3879   -1.4847 O   0  0  0  0  0  0  0  0  0  0  0  0
   43.5805   10.3740   -0.9282 O   0  0  0  0  0  0  0  0  0  0  0  0
   46.6090   10.7029   -1.3240 H   0  0  0  0  0  0  0  0  0  0  0  0
   46.3209   10.0897    1.5102 N   0  0  0  0  0  0  0  0  0  0  0  0
   47.5343    9.7934    1.0179 C   0  0  0  0  0  0  0  0  0  0  0  0
   48.1996   10.4873    0.2101 O   0  0  0  0  0  0  0  0  0  0  0  0
   45.8496    9.3713    1.9909 H   0  0  0  0  0  0  0  0  0  0  0  0
   47.9937    8.4145    1.4376 C   0  0  0  0  0  0  0  0  0  0  0  0
   47.9914    7.4749    0.7158 O   0  0  0  0  0  0  0  0  0  0  0  0
   48.2636    8.2818    2.7896 O   0  0  0  0  0  0  0  0  0  0  0  0
   47.8065    7.5851   -0.1961 H   0  0  0  0  0  0  0  0  0  0  0  0
  1  2  1  0  0  0
  1  6  1  0  0  0
  2  3  1  0  0  0
  3  4  2  0  0  0
  3  7  1  0  0  0
  4  5  1  0  0  0
  4  9  1  0  0  0
  5  6  1  0  0  0
  7  8  1  0  0  0
  8  9  2  0  0  0
  8 15  1  0  0  0
  9 11  1  0  0  0
 11 12  1  0  0  0
 11 13  2  0  0  0
 15 16  1  0  0  0
 16 19  1  0  0  0
 16 17  2  0  0  0
 19 20  1  0  0  0
 19 21  2  0  0  0
  1 10  1  0  0  0
 12 14  1  0  0  0
 15 18  1  0  0  0
 20 22  1  0  0  0
M  END
> <minimizedAffinity>
-6.15895

$$$$
1C88_OTA_A_301


 22 23  0  0  0  0  0  0  0  0999 V2000
   42.7142   11.4308   -4.0066 N   0  0  0  0  0  0  0  0  0  0  0  0
   42.8236   12.8372   -3.5541 C   0  0  0  0  0  0  0  0  0  0  0  0
   43.4599   12.8377   -2.1781 C   0  0  0  0  0  0  0  0  0  0  0  0
   43.8146   11.7048   -1.5075 C   0  0  0  0  0  0  0  0  0  0  0  0
   43.9037   10.3296   -2.1060 C   0  0  0  0  0  0  0  0  0  0  0  0
   43.8533   10.4638   -3.6167 C   0  0  0  0  0  0  0  0  0  0  0  0
   43.6477   14.3277   -1.1975 S   0  0  0  0  0  0  0  0  0  0  0  0
   44.2616   13.3274    0.0495 C   0  0  0  0  0  0  0  0  0  0  0  0
   44.2935   12.0158   -0.1754 C   0  0  0  0  0  0  0  0  0  0  0  0
   42.6580   11.4413   -5.0250 H   0  0  0  0  0  0  0  0  0  0  0  0
   44.7220   11.1186    0.9103 C   0  0  0  0  0  0  0  0  0  0  0  0
   45.6074   10.3104    0.8128 O   0  0  0  0  0  0  0  0  0  0  0  0
   43.9894   11.3040    1.9847 O   0  0  0  0  0  0  0  0  0  0  0  0
   46.0876   10.2359    0.0117 H   0  0  0  0  0  0  0  0  0  0  0  0
   44.7080   13.9133    1.2827 N   0  0  0  0  0  0  0  0  0  0  0  0
   44.1208   14.9234    1.9441 C   0  0  0  0  0  0  0  0  0  0  0  0
   43.2072   15.6668    1.5088 O   0  0  0  0  0  0  0  0  0  0  0  0
   45.5253   13.5371    1.6824 H   0  0  0  0  0  0  0  0  0  0  0  0
   44.7843   15.1879    3.2776 C   0  0  0  0  0  0  0  0  0  0  0  0
   45.6830   14.5429    3.7020 O   0  0  0  0  0  0  0  0  0  0  0  0
   44.1537   16.1430    4.0576 O   0  0  0  0  0  0  0  0  0  0  0  0
   46.0969   13.9014    3.1587 H   0  0  0  0  0  0  0  0  0  0  0  0
  1  2  1  0  0  0
  1  6  1  0  0  0
  2  3  1  0  0  0
  3  4  2  0  0  0
  3  7  1  0  0  0
  4  5  1  0  0  0
  4  9  1  0  0  0
  5  6  1  0  0  0
  7  8  1  0  0  0
  8  9  2  0  0  0
  8 15  1  0  0  0
  9 11  1  0  0  0
 11 12  1  0  0  0
 11 13  2  0  0  0
 15 16  1  0  0  0
 16 19  1  0  0  0
 16 17  2  0  0  0
 19 20  1  0  0  0
 19 21  2  0  0  0
  1 10  1  0  0  0
 12 14  1  0  0  0
 15 18  1  0  0  0
 20 22  1  0  0  0
M  END
> <minimizedAffinity>
-6.01785

$$$$
1C88_OTA_A_301


 22 23  0  0  0  0  0  0  0  0999 V2000
   44.8378    9.6708   -4.3117 N   0  0  0  0  0  0  0  0  0  0  0  0
   45.2368    9.7567   -2.8875 C   0  0  0  0  0  0  0  0  0  0  0  0
   44.6685   11.0422   -2.3193 C   0  0  0  0  0  0  0  0  0  0  0  0
   43.9530   11.9426   -3.0517 C   0  0  0  0  0  0  0  0  0  0  0  0
   43.3763   11.6938   -4.4165 C   0  0  0  0  0  0  0  0  0  0  0  0
   43.4404   10.2036   -4.6959 C   0  0  0  0  0  0  0  0  0  0  0  0
   45.0337   11.6128   -0.6585 S   0  0  0  0  0  0  0  0  0  0  0  0
   44.1335   13.0199   -1.0358 C   0  0  0  0  0  0  0  0  0  0  0  0
   43.6400   13.1209   -2.2679 C   0  0  0  0  0  0  0  0  0  0  0  0
   44.8739    8.6874   -4.5799 H   0  0  0  0  0  0  0  0  0  0  0  0
   42.9463   14.3598   -2.6565 C   0  0  0  0  0  0  0  0  0  0  0  0
   41.7767   14.4255   -2.9290 O   0  0  0  0  0  0  0  0  0  0  0  0
   43.7832   15.3718   -2.6902 O   0  0  0  0  0  0  0  0  0  0  0  0
   41.2408   13.6584   -2.8817 H   0  0  0  0  0  0  0  0  0  0  0  0
   43.9451   14.0376   -0.0397 N   0  0  0  0  0  0  0  0  0  0  0  0
   44.0253   13.8756    1.2907 C   0  0  0  0  0  0  0  0  0  0  0  0
   44.0733   12.7820    1.9059 O   0  0  0  0  0  0  0  0  0  0  0  0
   43.7366   14.9432   -0.3646 H   0  0  0  0  0  0  0  0  0  0  0  0
   43.9092   15.1911    2.0286 C   0  0  0  0  0  0  0  0  0  0  0  0
   43.0923   16.0124    1.7799 O   0  0  0  0  0  0  0  0  0  0  0  0
   44.9408   15.4489    2.9161 O   0  0  0  0  0  0  0  0  0  0  0  0
   42.4019   15.8189    1.1767 H   0  0  0  0  0  0  0  0  0  0  0  0
  1  2  1  0  0  0
  1  6  1  0  0  0
  2  3  1  0  0  0
  3  4  2  0  0  0
  3  7  1  0  0  0
  4  5  1  0  0  0
  4  9  1  0  0  0
  5  6  1  0  0  0
  7  8  1  0  0  0
  8  9  2  0  0  0
  8 15  1  0  0  0
  9 11  1  0  0  0
 11 12  1  0  0  0
 11 13  2  0  0  0
 15 16  1  0  0  0
 16 19  1  0  0  0
 16 17  2  0  0  0
 19 20  1  0  0  0
 19 21  2  0  0  0
  1 10  1  0  0  0
 12 14  1  0  0  0
 15 18  1  0  0  0
 20 22  1  0  0  0
M  END
> <minimizedAffinity>
-5.80553

$$$$
1C88_OTA_A_301


 22 23  0  0  0  0  0  0  0  0999 V2000
   44.9993   15.3253    3.2200 N   0  0  0  0  0  0  0  0  0  0  0  0
   44.1505   15.1630    2.0167 C   0  0  0  0  0  0  0  0  0  0  0  0
   44.4663   13.8146    1.4000 C   0  0  0  0  0  0  0  0  0  0  0  0
   45.4065   12.9584    1.8920 C   0  0  0  0  0  0  0  0  0  0  0  0
   46.0614   13.0645    3.2400 C   0  0  0  0  0  0  0  0  0  0  0  0
   45.2821   14.0676    4.0702 C   0  0  0  0  0  0  0  0  0  0  0  0
   43.7652   13.2740   -0.1599 S   0  0  0  0  0  0  0  0  0  0  0  0
   44.7469   11.8779   -0.0197 C   0  0  0  0  0  0  0  0  0  0  0  0
   45.5616   11.8034    1.0304 C   0  0  0  0  0  0  0  0  0  0  0  0
   44.5426   16.0069    3.8260 H   0  0  0  0  0  0  0  0  0  0  0  0
   46.4900   10.6653    1.1305 C   0  0  0  0  0  0  0  0  0  0  0  0
   46.4271    9.8106    1.9743 O   0  0  0  0  0  0  0  0  0  0  0  0
   47.4070   10.7279    0.1919 O   0  0  0  0  0  0  0  0  0  0  0  0
   45.7418    9.8323    2.6129 H   0  0  0  0  0  0  0  0  0  0  0  0
   44.6761   10.8495   -1.0201 N   0  0  0  0  0  0  0  0  0  0  0  0
   45.1126   10.9379   -2.2866 C   0  0  0  0  0  0  0  0  0  0  0  0
   45.4680   11.9859   -2.8801 O   0  0  0  0  0  0  0  0  0  0  0  0
   44.2670    9.9956   -0.7504 H   0  0  0  0  0  0  0  0  0  0  0  0
   45.0037    9.6171   -3.0159 C   0  0  0  0  0  0  0  0  0  0  0  0
   45.7480    8.7110   -2.8459 O   0  0  0  0  0  0  0  0  0  0  0  0
   44.0641    9.5943   -4.0334 O   0  0  0  0  0  0  0  0  0  0  0  0
   46.3767    8.7451   -2.1520 H   0  0  0  0  0  0  0  0  0  0  0  0
  1  2  1  0  0  0
  1  6  1  0  0  0
  2  3  1  0  0  0
  3  4  2  0  0  0
  3  7  1  0  0  0
  4  5  1  0  0  0
  4  9  1  0  0  0
  5  6  1  0  0  0
  7  8  1  0  0  0
  8  9  2  0  0  0
  8 15  1  0  0  0
  9 11  1  0  0  0
 11 12  1  0  0  0
 11 13  2  0  0  0
 15 16  1  0  0  0
 16 19  1  0  0  0
 16 17  2  0  0  0
 19 20  1  0  0  0
 19 21  2  0  0  0
  1 10  1  0  0  0
 12 14  1  0  0  0
 15 18  1  0  0  0
 20 22  1  0  0  0
M  END
> <minimizedAffinity>
-5.57719

$$$$
1C88_OTA_A_301


 22 23  0  0  0  0  0  0  0  0999 V2000
   44.8933   13.9647   -3.0478 N   0  0  0  0  0  0  0  0  0  0  0  0
   46.1684   13.2365   -3.2434 C   0  0  0  0  0  0  0  0  0  0  0  0
   46.3747   12.3255   -2.0494 C   0  0  0  0  0  0  0  0  0  0  0  0
   45.5180   12.2590   -0.9907 C   0  0  0  0  0  0  0  0  0  0  0  0
   44.1305   12.8340   -0.9552 C   0  0  0  0  0  0  0  0  0  0  0  0
   43.7320   13.2037   -2.3719 C   0  0  0  0  0  0  0  0  0  0  0  0
   47.8707   11.3654   -1.8096 S   0  0  0  0  0  0  0  0  0  0  0  0
   47.2132   10.8751   -0.3062 C   0  0  0  0  0  0  0  0  0  0  0  0
   46.0348   11.3855    0.0440 C   0  0  0  0  0  0  0  0  0  0  0  0
   44.5682   14.2633   -3.9673 H   0  0  0  0  0  0  0  0  0  0  0  0
   45.4869   11.0633    1.3719 C   0  0  0  0  0  0  0  0  0  0  0  0
   45.9973   11.3843    2.4125 O   0  0  0  0  0  0  0  0  0  0  0  0
   44.3843   10.3576    1.2624 O   0  0  0  0  0  0  0  0  0  0  0  0
   46.7863   11.8897    2.4111 H   0  0  0  0  0  0  0  0  0  0  0  0
   47.9367    9.9539    0.5252 N   0  0  0  0  0  0  0  0  0  0  0  0
   48.6456    8.8922    0.1095 C   0  0  0  0  0  0  0  0  0  0  0  0
   48.6365    8.3965   -1.0442 O   0  0  0  0  0  0  0  0  0  0  0  0
   47.9102   10.1172    1.4957 H   0  0  0  0  0  0  0  0  0  0  0  0
   49.3903    8.2288    1.2469 C   0  0  0  0  0  0  0  0  0  0  0  0
   50.1125    8.8099    1.9849 O   0  0  0  0  0  0  0  0  0  0  0  0
   49.3028    6.8466    1.2667 O   0  0  0  0  0  0  0  0  0  0  0  0
   50.1577    9.7454    1.9563 H   0  0  0  0  0  0  0  0  0  0  0  0
  1  2  1  0  0  0
  1  6  1  0  0  0
  2  3  1  0  0  0
  3  4  2  0  0  0
  3  7  1  0  0  0
  4  5  1  0  0  0
  4  9  1  0  0  0
  5  6  1  0  0  0
  7  8  1  0  0  0
  8  9  2  0  0  0
  8 15  1  0  0  0
  9 11  1  0  0  0
 11 12  1  0  0  0
 11 13  2  0  0  0
 15 16  1  0  0  0
 16 19  1  0  0  0
 16 17  2  0  0  0
 19 20  1  0  0  0
 19 21  2  0  0  0
  1 10  1  0  0  0
 12 14  1  0  0  0
 15 18  1  0  0  0
 20 22  1  0  0  0
M  END
> <minimizedAffinity>
-5.48679

$$$$
1C88_OTA_A_301


 22 23  0  0  0  0  0  0  0  0999 V2000
   49.1364   11.8304   -3.2942 N   0  0  0  0  0  0  0  0  0  0  0  0
   48.2304   11.0268   -4.1474 C   0  0  0  0  0  0  0  0  0  0  0  0
   46.9231   10.8464   -3.4014 C   0  0  0  0  0  0  0  0  0  0  0  0
   46.6933   11.3316   -2.1480 C   0  0  0  0  0  0  0  0  0  0  0  0
   47.5504   12.3364   -1.4319 C   0  0  0  0  0  0  0  0  0  0  0  0
   48.5058   12.9504   -2.4383 C   0  0  0  0  0  0  0  0  0  0  0  0
   45.5925    9.8110   -4.0135 S   0  0  0  0  0  0  0  0  0  0  0  0
   44.7689   10.1520   -2.5513 C   0  0  0  0  0  0  0  0  0  0  0  0
   45.3985   10.9072   -1.6540 C   0  0  0  0  0  0  0  0  0  0  0  0
   49.8259   12.2660   -3.9067 H   0  0  0  0  0  0  0  0  0  0  0  0
   44.7616   11.1382   -0.3470 C   0  0  0  0  0  0  0  0  0  0  0  0
   44.8576   10.3967    0.5950 O   0  0  0  0  0  0  0  0  0  0  0  0
   44.0562   12.2464   -0.3616 O   0  0  0  0  0  0  0  0  0  0  0  0
   45.3809    9.6221    0.5301 H   0  0  0  0  0  0  0  0  0  0  0  0
   43.4534    9.6195   -2.3297 N   0  0  0  0  0  0  0  0  0  0  0  0
   42.3194   10.0225   -2.9249 C   0  0  0  0  0  0  0  0  0  0  0  0
   42.1702   11.0590   -3.6179 O   0  0  0  0  0  0  0  0  0  0  0  0
   43.3755    8.8866   -1.6770 H   0  0  0  0  0  0  0  0  0  0  0  0
   41.1439    9.1450   -2.5555 C   0  0  0  0  0  0  0  0  0  0  0  0
   41.2556    8.0552   -2.1041 O   0  0  0  0  0  0  0  0  0  0  0  0
   39.9092    9.6401   -2.9414 O   0  0  0  0  0  0  0  0  0  0  0  0
   42.0996    7.7381   -1.8488 H   0  0  0  0  0  0  0  0  0  0  0  0
  1  2  1  0  0  0
  1  6  1  0  0  0
  2  3  1  0  0  0
  3  4  2  0  0  0
  3  7  1  0  0  0
  4  5  1  0  0  0
  4  9  1  0  0  0
  5  6  1  0  0  0
  7  8  1  0  0  0
  8  9  2  0  0  0
  8 15  1  0  0  0
  9 11  1  0  0  0
 11 12  1  0  0  0
 11 13  2  0  0  0
 15 16  1  0  0  0
 16 19  1  0  0  0
 16 17  2  0  0  0
 19 20  1  0  0  0
 19 21  2  0  0  0
  1 10  1  0  0  0
 12 14  1  0  0  0
 15 18  1  0  0  0
 20 22  1  0  0  0
M  END
> <minimizedAffinity>
-5.34223

$$$$
1C88_OTA_A_301


 22 23  0  0  0  0  0  0  0  0999 V2000
   43.7816   15.2876    0.5378 N   0  0  0  0  0  0  0  0  0  0  0  0
   43.5269   14.7016   -0.7987 C   0  0  0  0  0  0  0  0  0  0  0  0
   44.1355   13.3133   -0.8244 C   0  0  0  0  0  0  0  0  0  0  0  0
   44.8198   12.7671    0.2208 C   0  0  0  0  0  0  0  0  0  0  0  0
   44.8405   13.3032    1.6241 C   0  0  0  0  0  0  0  0  0  0  0  0
   43.7383   14.3380    1.7547 C   0  0  0  0  0  0  0  0  0  0  0  0
   44.1823   12.3026   -2.3054 S   0  0  0  0  0  0  0  0  0  0  0  0
   45.0776   11.1612   -1.3953 C   0  0  0  0  0  0  0  0  0  0  0  0
   45.3768   11.4779   -0.1376 C   0  0  0  0  0  0  0  0  0  0  0  0
   43.0810   16.0128    0.6916 H   0  0  0  0  0  0  0  0  0  0  0  0
   46.2288   10.5648    0.6420 C   0  0  0  0  0  0  0  0  0  0  0  0
   45.8527    9.9325    1.5934 O   0  0  0  0  0  0  0  0  0  0  0  0
   47.4558   10.5578    0.1731 O   0  0  0  0  0  0  0  0  0  0  0  0
   44.9591    9.9887    1.8698 H   0  0  0  0  0  0  0  0  0  0  0  0
   45.4825    9.9227   -2.0000 N   0  0  0  0  0  0  0  0  0  0  0  0
   46.4066    9.7697   -2.9618 C   0  0  0  0  0  0  0  0  0  0  0  0
   46.9291   10.6850   -3.6445 O   0  0  0  0  0  0  0  0  0  0  0  0
   45.0385    9.1054   -1.6772 H   0  0  0  0  0  0  0  0  0  0  0  0
   46.6768    8.3114   -3.2598 C   0  0  0  0  0  0  0  0  0  0  0  0
   47.2102    7.5749   -2.5002 O   0  0  0  0  0  0  0  0  0  0  0  0
   46.4069    7.9282   -4.5632 O   0  0  0  0  0  0  0  0  0  0  0  0
   47.3842    7.8526   -1.6224 H   0  0  0  0  0  0  0  0  0  0  0  0
  1  2  1  0  0  0
  1  6  1  0  0  0
  2  3  1  0  0  0
  3  4  2  0  0  0
  3  7  1  0  0  0
  4  5  1  0  0  0
  4  9  1  0  0  0
  5  6  1  0  0  0
  7  8  1  0  0  0
  8  9  2  0  0  0
  8 15  1  0  0  0
  9 11  1  0  0  0
 11 12  1  0  0  0
 11 13  2  0  0  0
 15 16  1  0  0  0
 16 19  1  0  0  0
 16 17  2  0  0  0
 19 20  1  0  0  0
 19 21  2  0  0  0
  1 10  1  0  0  0
 12 14  1  0  0  0
 15 18  1  0  0  0
 20 22  1  0  0  0
M  END
> <minimizedAffinity>
-5.33466

$$$$
1C88_OTA_A_301


 22 23  0  0  0  0  0  0  0  0999 V2000
   43.7269   13.1719   -1.0689 N   0  0  0  0  0  0  0  0  0  0  0  0
   44.0958   12.7957    0.3157 C   0  0  0  0  0  0  0  0  0  0  0  0
   45.2842   11.8572    0.2444 C   0  0  0  0  0  0  0  0  0  0  0  0
   45.8491   11.4380   -0.9236 C   0  0  0  0  0  0  0  0  0  0  0  0
   45.5924   12.0338   -2.2787 C   0  0  0  0  0  0  0  0  0  0  0  0
   44.8716   13.3555   -2.0889 C   0  0  0  0  0  0  0  0  0  0  0  0
   45.9657   11.0444    1.6908 S   0  0  0  0  0  0  0  0  0  0  0  0
   47.0281   10.2265    0.6254 C   0  0  0  0  0  0  0  0  0  0  0  0
   46.8922   10.4623   -0.6776 C   0  0  0  0  0  0  0  0  0  0  0  0
   43.2174   14.0542   -1.0199 H   0  0  0  0  0  0  0  0  0  0  0  0
   47.7215    9.7028   -1.6277 C   0  0  0  0  0  0  0  0  0  0  0  0
   47.4102    8.6429   -2.1034 O   0  0  0  0  0  0  0  0  0  0  0  0
   48.8535   10.3272   -1.8610 O   0  0  0  0  0  0  0  0  0  0  0  0
   46.5830    8.2582   -1.8894 H   0  0  0  0  0  0  0  0  0  0  0  0
   48.0107    9.3200    1.1506 N   0  0  0  0  0  0  0  0  0  0  0  0
   47.8081    8.3796    2.0872 C   0  0  0  0  0  0  0  0  0  0  0  0
   46.7909    8.2595    2.8137 O   0  0  0  0  0  0  0  0  0  0  0  0
   48.9229    9.3956    0.7880 H   0  0  0  0  0  0  0  0  0  0  0  0
   49.0324    7.5159    2.2957 C   0  0  0  0  0  0  0  0  0  0  0  0
   49.0444    6.3435    2.1249 O   0  0  0  0  0  0  0  0  0  0  0  0
   50.1102    8.1697    2.8696 O   0  0  0  0  0  0  0  0  0  0  0  0
   48.3054    5.9193    1.7350 H   0  0  0  0  0  0  0  0  0  0  0  0
  1  2  1  0  0  0
  1  6  1  0  0  0
  2  3  1  0  0  0
  3  4  2  0  0  0
  3  7  1  0  0  0
  4  5  1  0  0  0
  4  9  1  0  0  0
  5  6  1  0  0  0
  7  8  1  0  0  0
  8  9  2  0  0  0
  8 15  1  0  0  0
  9 11  1  0  0  0
 11 12  1  0  0  0
 11 13  2  0  0  0
 15 16  1  0  0  0
 16 19  1  0  0  0
 16 17  2  0  0  0
 19 20  1  0  0  0
 19 21  2  0  0  0
  1 10  1  0  0  0
 12 14  1  0  0  0
 15 18  1  0  0  0
 20 22  1  0  0  0
M  END
> <minimizedAffinity>
-5.30739

$$$$
1C88_OTA_A_301


 22 23  0  0  0  0  0  0  0  0999 V2000
   44.0490   14.3305    2.3778 N   0  0  0  0  0  0  0  0  0  0  0  0
   44.9473   13.1558    2.4643 C   0  0  0  0  0  0  0  0  0  0  0  0
   44.9933   12.5005    1.0980 C   0  0  0  0  0  0  0  0  0  0  0  0
   44.2796   12.9406    0.0228 C   0  0  0  0  0  0  0  0  0  0  0  0
   43.5786   14.2658   -0.0746 C   0  0  0  0  0  0  0  0  0  0  0  0
   44.0604   15.1440    1.0653 C   0  0  0  0  0  0  0  0  0  0  0  0
   45.8529   10.9563    0.7918 S   0  0  0  0  0  0  0  0  0  0  0  0
   45.2430   11.0323   -0.8066 C   0  0  0  0  0  0  0  0  0  0  0  0
   44.4408   12.0504   -1.1096 C   0  0  0  0  0  0  0  0  0  0  0  0
   44.3046   14.9665    3.1332 H   0  0  0  0  0  0  0  0  0  0  0  0
   43.8199   12.0935   -2.4438 C   0  0  0  0  0  0  0  0  0  0  0  0
   42.7928   11.5382   -2.7323 O   0  0  0  0  0  0  0  0  0  0  0  0
   44.5534   12.7962   -3.2768 O   0  0  0  0  0  0  0  0  0  0  0  0
   42.3234   11.0539   -2.0819 H   0  0  0  0  0  0  0  0  0  0  0  0
   45.5959   10.0143   -1.7566 N   0  0  0  0  0  0  0  0  0  0  0  0
   46.7601    9.9090   -2.4167 C   0  0  0  0  0  0  0  0  0  0  0  0
   47.6611   10.7814   -2.4809 O   0  0  0  0  0  0  0  0  0  0  0  0
   44.9169    9.3259   -1.9418 H   0  0  0  0  0  0  0  0  0  0  0  0
   46.8360    8.6358   -3.2302 C   0  0  0  0  0  0  0  0  0  0  0  0
   46.5252    7.5715   -2.8125 O   0  0  0  0  0  0  0  0  0  0  0  0
   47.4603    8.7715   -4.4591 O   0  0  0  0  0  0  0  0  0  0  0  0
   46.1036    7.5003   -1.9787 H   0  0  0  0  0  0  0  0  0  0  0  0
  1  2  1  0  0  0
  1  6  1  0  0  0
  2  3  1  0  0  0
  3  4  2  0  0  0
  3  7  1  0  0  0
  4  5  1  0  0  0
  4  9  1  0  0  0
  5  6  1  0  0  0
  7  8  1  0  0  0
  8  9  2  0  0  0
  8 15  1  0  0  0
  9 11  1  0  0  0
 11 12  1  0  0  0
 11 13  2  0  0  0
 15 16  1  0  0  0
 16 19  1  0  0  0
 16 17  2  0  0  0
 19 20  1  0  0  0
 19 21  2  0  0  0
  1 10  1  0  0  0
 12 14  1  0  0  0
 15 18  1  0  0  0
 20 22  1  0  0  0
M  END
> <minimizedAffinity>
-5.09788

$$$$
