5I80_67B_A_201


 23 25  0  0  0  0  0  0  0  0999 V2000
  -13.7402   -4.2283   10.1388 C   0  0  0  0  0  0  0  0  0  0  0  0
  -12.7167   -4.4868   11.0038 C   0  0  0  0  0  0  0  0  0  0  0  0
  -11.0485   -5.8840   12.0773 C   0  0  0  0  0  0  0  0  0  0  0  0
  -12.0561   -7.8981   10.5476 O   0  0  0  0  0  0  0  0  0  0  0  0
  -12.5821   -6.7879   10.4140 C   0  0  0  0  0  0  0  0  0  0  0  0
  -12.1656   -5.7282   11.1353 N   0  0  0  0  0  0  0  0  0  0  0  0
  -13.6400   -6.6203    9.5043 C   0  0  0  0  0  0  0  0  0  0  0  0
  -14.2751   -7.4834    8.6550 N   0  0  0  0  0  0  0  0  0  0  0  0
  -15.2403   -6.7993    7.9775 C   0  0  0  0  0  0  0  0  0  0  0  0
  -15.2512   -5.5073    8.3685 C   0  0  0  0  0  0  0  0  0  0  0  0
  -14.2421   -5.3552    9.3409 C   0  0  0  0  0  0  0  0  0  0  0  0
  -14.0693   -8.4404    8.5501 H   0  0  0  0  0  0  0  0  0  0  0  0
  -15.2778   -0.2186    9.9353 C   0  0  0  0  0  0  0  0  0  0  0  0
  -15.1459   -0.9799    8.7852 C   0  0  0  0  0  0  0  0  0  0  0  0
  -14.3797   -2.0730   11.1736 C   0  0  0  0  0  0  0  0  0  0  0  0
  -14.6478   -2.2802    8.8101 C   0  0  0  0  0  0  0  0  0  0  0  0
  -14.2487   -2.8362   10.0248 C   0  0  0  0  0  0  0  0  0  0  0  0
  -14.9015   -0.7772   11.1557 C   0  0  0  0  0  0  0  0  0  0  0  0
  -14.9931    0.0135   12.4042 C   0  0  0  0  0  0  0  0  0  0  0  0
  -16.0503    0.8671   14.4144 C   0  0  0  0  0  0  0  0  0  0  0  0
  -14.0017    0.6246   12.7481 O   0  0  0  0  0  0  0  0  0  0  0  0
  -16.1028    0.0732   13.1840 N   0  0  0  0  0  0  0  0  0  0  0  0
  -17.3760   -0.5976   12.8709 C   0  0  0  0  0  0  0  0  0  0  0  0
  9  8  1  0  0  0
  9 10  2  0  0  0
  8  7  1  0  0  0
 10 11  1  0  0  0
  7 11  2  0  0  0
  7  5  1  0  0  0
 11  1  1  0  0  0
  4  5  2  0  0  0
  5  6  1  0  0  0
 16 14  2  0  0  0
 16 17  1  0  0  0
 14 13  1  0  0  0
  1 17  1  0  0  0
  1  2  2  0  0  0
 17 15  2  0  0  0
  6  2  1  0  0  0
  6  3  1  0  0  0
 13 18  2  0  0  0
 15 18  1  0  0  0
 18 19  1  0  0  0
 19 21  2  0  0  0
 19 22  1  0  0  0
 20 22  1  0  0  0
 22 23  1  0  0  0
  8 12  1  0  0  0
M  END
> <minimizedAffinity>
-8.64869

$$$$
5I80_67B_A_201


 23 25  0  0  0  0  0  0  0  0999 V2000
  -13.6148   -4.6054   10.3777 C   0  0  0  0  0  0  0  0  0  0  0  0
  -12.5613   -4.9492   11.1743 C   0  0  0  0  0  0  0  0  0  0  0  0
  -10.8803   -6.4565   12.0632 C   0  0  0  0  0  0  0  0  0  0  0  0
  -11.9971   -8.3271   10.4305 O   0  0  0  0  0  0  0  0  0  0  0  0
  -12.5033   -7.2002   10.4054 C   0  0  0  0  0  0  0  0  0  0  0  0
  -12.0329   -6.2074   11.1862 N   0  0  0  0  0  0  0  0  0  0  0  0
  -13.5952   -6.9428    9.5589 C   0  0  0  0  0  0  0  0  0  0  0  0
  -14.2850   -7.7256    8.6752 N   0  0  0  0  0  0  0  0  0  0  0  0
  -15.2628   -6.9731    8.0952 C   0  0  0  0  0  0  0  0  0  0  0  0
  -15.2281   -5.7153    8.5837 C   0  0  0  0  0  0  0  0  0  0  0  0
  -14.1753   -5.6577    9.5192 C   0  0  0  0  0  0  0  0  0  0  0  0
  -14.1053   -8.6755    8.4887 H   0  0  0  0  0  0  0  0  0  0  0  0
  -14.9425   -0.5173   10.2947 C   0  0  0  0  0  0  0  0  0  0  0  0
  -14.5930   -1.1184   11.4931 C   0  0  0  0  0  0  0  0  0  0  0  0
  -14.4479   -2.5971    9.1955 C   0  0  0  0  0  0  0  0  0  0  0  0
  -14.1629   -2.4413   11.5610 C   0  0  0  0  0  0  0  0  0  0  0  0
  -14.0965   -3.1993   10.3927 C   0  0  0  0  0  0  0  0  0  0  0  0
  -14.8565   -1.2633    9.1204 C   0  0  0  0  0  0  0  0  0  0  0  0
  -15.2536   -0.6708    7.8229 C   0  0  0  0  0  0  0  0  0  0  0  0
  -14.9091    0.1791    5.5765 C   0  0  0  0  0  0  0  0  0  0  0  0
  -16.4369   -0.4620    7.6470 O   0  0  0  0  0  0  0  0  0  0  0  0
  -14.3807   -0.3733    6.8266 N   0  0  0  0  0  0  0  0  0  0  0  0
  -12.9218   -0.5528    6.9182 C   0  0  0  0  0  0  0  0  0  0  0  0
  9  8  1  0  0  0
  9 10  2  0  0  0
  8  7  1  0  0  0
 10 11  1  0  0  0
  7 11  2  0  0  0
  7  5  1  0  0  0
 11  1  1  0  0  0
  4  5  2  0  0  0
  5  6  1  0  0  0
 16 14  2  0  0  0
 16 17  1  0  0  0
 14 13  1  0  0  0
  1 17  1  0  0  0
  1  2  2  0  0  0
 17 15  2  0  0  0
  6  2  1  0  0  0
  6  3  1  0  0  0
 13 18  2  0  0  0
 15 18  1  0  0  0
 18 19  1  0  0  0
 19 21  2  0  0  0
 19 22  1  0  0  0
 20 22  1  0  0  0
 22 23  1  0  0  0
  8 12  1  0  0  0
M  END
> <minimizedAffinity>
-8.13405

$$$$
5I80_67B_A_201


 23 25  0  0  0  0  0  0  0  0999 V2000
  -13.7337   -4.8225    9.9041 C   0  0  0  0  0  0  0  0  0  0  0  0
  -14.5491   -5.6592    9.1987 C   0  0  0  0  0  0  0  0  0  0  0  0
  -15.3734   -7.8207    8.4664 C   0  0  0  0  0  0  0  0  0  0  0  0
  -13.4040   -8.8656   10.0290 O   0  0  0  0  0  0  0  0  0  0  0  0
  -13.4888   -7.6332    9.9990 C   0  0  0  0  0  0  0  0  0  0  0  0
  -14.4210   -7.0170    9.2453 N   0  0  0  0  0  0  0  0  0  0  0  0
  -12.5957   -6.8523   10.7522 C   0  0  0  0  0  0  0  0  0  0  0  0
  -11.5630   -7.1753   11.5882 N   0  0  0  0  0  0  0  0  0  0  0  0
  -11.0209   -6.0245   12.0785 C   0  0  0  0  0  0  0  0  0  0  0  0
  -11.6761   -4.9557   11.5780 C   0  0  0  0  0  0  0  0  0  0  0  0
  -12.6892   -5.4450   10.7288 C   0  0  0  0  0  0  0  0  0  0  0  0
  -11.2609   -8.0879   11.8008 H   0  0  0  0  0  0  0  0  0  0  0  0
  -14.5292   -0.5989    9.8002 C   0  0  0  0  0  0  0  0  0  0  0  0
  -14.2213   -1.2848    8.6364 C   0  0  0  0  0  0  0  0  0  0  0  0
  -14.2808   -2.6697   10.9954 C   0  0  0  0  0  0  0  0  0  0  0  0
  -13.9531   -2.6514    8.6304 C   0  0  0  0  0  0  0  0  0  0  0  0
  -13.9744   -3.3574    9.8324 C   0  0  0  0  0  0  0  0  0  0  0  0
  -14.5741   -1.3038   11.0018 C   0  0  0  0  0  0  0  0  0  0  0  0
  -14.8647   -0.6034   12.2735 C   0  0  0  0  0  0  0  0  0  0  0  0
  -16.0848    0.8754   13.7606 C   0  0  0  0  0  0  0  0  0  0  0  0
  -14.1497   -0.8559   13.2222 O   0  0  0  0  0  0  0  0  0  0  0  0
  -15.8855    0.2762   12.4384 N   0  0  0  0  0  0  0  0  0  0  0  0
  -16.8087    0.6887   11.3676 C   0  0  0  0  0  0  0  0  0  0  0  0
  9  8  1  0  0  0
  9 10  2  0  0  0
  8  7  1  0  0  0
 10 11  1  0  0  0
  7 11  2  0  0  0
  7  5  1  0  0  0
 11  1  1  0  0  0
  4  5  2  0  0  0
  5  6  1  0  0  0
 16 14  2  0  0  0
 16 17  1  0  0  0
 14 13  1  0  0  0
  1 17  1  0  0  0
  1  2  2  0  0  0
 17 15  2  0  0  0
  6  2  1  0  0  0
  6  3  1  0  0  0
 13 18  2  0  0  0
 15 18  1  0  0  0
 18 19  1  0  0  0
 19 21  2  0  0  0
 19 22  1  0  0  0
 20 22  1  0  0  0
 22 23  1  0  0  0
  8 12  1  0  0  0
M  END
> <minimizedAffinity>
-8.00770

$$$$
5I80_67B_A_201


 23 25  0  0  0  0  0  0  0  0999 V2000
  -13.8996   -4.3902   10.1991 C   0  0  0  0  0  0  0  0  0  0  0  0
  -14.0171   -3.6110   11.3134 C   0  0  0  0  0  0  0  0  0  0  0  0
  -14.4287   -1.5425   12.5133 C   0  0  0  0  0  0  0  0  0  0  0  0
  -14.7519   -0.4250   10.0519 O   0  0  0  0  0  0  0  0  0  0  0  0
  -14.4893   -1.6322   10.0795 C   0  0  0  0  0  0  0  0  0  0  0  0
  -14.2969   -2.2770   11.2473 N   0  0  0  0  0  0  0  0  0  0  0  0
  -14.3772   -2.3510    8.8771 C   0  0  0  0  0  0  0  0  0  0  0  0
  -14.5070   -1.9860    7.5658 N   0  0  0  0  0  0  0  0  0  0  0  0
  -14.3064   -3.0849    6.7841 C   0  0  0  0  0  0  0  0  0  0  0  0
  -14.0453   -4.1601    7.5574 C   0  0  0  0  0  0  0  0  0  0  0  0
  -14.0839   -3.7305    8.8993 C   0  0  0  0  0  0  0  0  0  0  0  0
  -14.7115   -1.0798    7.2400 H   0  0  0  0  0  0  0  0  0  0  0  0
  -13.0086   -8.5682   10.6821 C   0  0  0  0  0  0  0  0  0  0  0  0
  -14.0715   -8.1632    9.8908 C   0  0  0  0  0  0  0  0  0  0  0  0
  -12.5790   -6.2513   11.1570 C   0  0  0  0  0  0  0  0  0  0  0  0
  -14.3941   -6.8201    9.7138 C   0  0  0  0  0  0  0  0  0  0  0  0
  -13.6404   -5.8445   10.3649 C   0  0  0  0  0  0  0  0  0  0  0  0
  -12.2375   -7.5963   11.3175 C   0  0  0  0  0  0  0  0  0  0  0  0
  -11.1144   -7.9866   12.1999 C   0  0  0  0  0  0  0  0  0  0  0  0
   -9.3764   -7.6443   13.8580 C   0  0  0  0  0  0  0  0  0  0  0  0
  -10.7937   -9.1579   12.2050 O   0  0  0  0  0  0  0  0  0  0  0  0
  -10.4487   -7.1216   13.0072 N   0  0  0  0  0  0  0  0  0  0  0  0
  -10.7190   -5.6757   13.0789 C   0  0  0  0  0  0  0  0  0  0  0  0
  9  8  1  0  0  0
  9 10  2  0  0  0
  8  7  1  0  0  0
 10 11  1  0  0  0
  7 11  2  0  0  0
  7  5  1  0  0  0
 11  1  1  0  0  0
  4  5  2  0  0  0
  5  6  1  0  0  0
 16 14  2  0  0  0
 16 17  1  0  0  0
 14 13  1  0  0  0
  1 17  1  0  0  0
  1  2  2  0  0  0
 17 15  2  0  0  0
  6  2  1  0  0  0
  6  3  1  0  0  0
 13 18  2  0  0  0
 15 18  1  0  0  0
 18 19  1  0  0  0
 19 21  2  0  0  0
 19 22  1  0  0  0
 20 22  1  0  0  0
 22 23  1  0  0  0
  8 12  1  0  0  0
M  END
> <minimizedAffinity>
-7.82213

$$$$
5I80_67B_A_201


 23 25  0  0  0  0  0  0  0  0999 V2000
  -13.6843   -4.8995   10.1098 C   0  0  0  0  0  0  0  0  0  0  0  0
  -14.4668   -5.7593    9.3948 C   0  0  0  0  0  0  0  0  0  0  0  0
  -15.1960   -7.9420    8.6257 C   0  0  0  0  0  0  0  0  0  0  0  0
  -13.1636   -8.9242   10.1477 O   0  0  0  0  0  0  0  0  0  0  0  0
  -13.3066   -7.6968   10.1441 C   0  0  0  0  0  0  0  0  0  0  0  0
  -14.2745   -7.1102    9.4121 N   0  0  0  0  0  0  0  0  0  0  0  0
  -12.4434   -6.8900   10.9049 C   0  0  0  0  0  0  0  0  0  0  0  0
  -11.3881   -7.1808   11.7243 N   0  0  0  0  0  0  0  0  0  0  0  0
  -10.8957   -6.0158   12.2332 C   0  0  0  0  0  0  0  0  0  0  0  0
  -11.6056   -4.9692   11.7611 C   0  0  0  0  0  0  0  0  0  0  0  0
  -12.6032   -5.4886   10.9116 C   0  0  0  0  0  0  0  0  0  0  0  0
  -11.0413   -8.0822   11.9151 H   0  0  0  0  0  0  0  0  0  0  0  0
  -14.4847   -0.6812    9.8909 C   0  0  0  0  0  0  0  0  0  0  0  0
  -14.5096   -1.3389   11.1102 C   0  0  0  0  0  0  0  0  0  0  0  0
  -13.9715   -2.7874    8.8522 C   0  0  0  0  0  0  0  0  0  0  0  0
  -14.2603   -2.7045   11.2209 C   0  0  0  0  0  0  0  0  0  0  0  0
  -13.9944   -3.4463   10.0707 C   0  0  0  0  0  0  0  0  0  0  0  0
  -14.1972   -1.4133    8.7401 C   0  0  0  0  0  0  0  0  0  0  0  0
  -14.1947   -0.7569    7.4130 C   0  0  0  0  0  0  0  0  0  0  0  0
  -15.1701    0.1114    5.3680 C   0  0  0  0  0  0  0  0  0  0  0  0
  -13.1319   -0.3339    7.0050 O   0  0  0  0  0  0  0  0  0  0  0  0
  -15.3042   -0.5863    6.6495 N   0  0  0  0  0  0  0  0  0  0  0  0
  -16.6463   -1.0716    7.0132 C   0  0  0  0  0  0  0  0  0  0  0  0
  9  8  1  0  0  0
  9 10  2  0  0  0
  8  7  1  0  0  0
 10 11  1  0  0  0
  7 11  2  0  0  0
  7  5  1  0  0  0
 11  1  1  0  0  0
  4  5  2  0  0  0
  5  6  1  0  0  0
 16 14  2  0  0  0
 16 17  1  0  0  0
 14 13  1  0  0  0
  1 17  1  0  0  0
  1  2  2  0  0  0
 17 15  2  0  0  0
  6  2  1  0  0  0
  6  3  1  0  0  0
 13 18  2  0  0  0
 15 18  1  0  0  0
 18 19  1  0  0  0
 19 21  2  0  0  0
 19 22  1  0  0  0
 20 22  1  0  0  0
 22 23  1  0  0  0
  8 12  1  0  0  0
M  END
> <minimizedAffinity>
-7.54358

$$$$
5I80_67B_A_201


 23 25  0  0  0  0  0  0  0  0999 V2000
  -14.1749   -3.2596    9.5903 C   0  0  0  0  0  0  0  0  0  0  0  0
  -13.9578   -2.2926    8.6520 C   0  0  0  0  0  0  0  0  0  0  0  0
  -13.6308   -1.4524    6.3992 C   0  0  0  0  0  0  0  0  0  0  0  0
  -13.8232   -4.0558    5.6263 O   0  0  0  0  0  0  0  0  0  0  0  0
  -13.9288   -3.8305    6.8367 C   0  0  0  0  0  0  0  0  0  0  0  0
  -13.8344   -2.5770    7.3231 N   0  0  0  0  0  0  0  0  0  0  0  0
  -14.1408   -4.8944    7.7300 C   0  0  0  0  0  0  0  0  0  0  0  0
  -14.2713   -6.2432    7.5477 N   0  0  0  0  0  0  0  0  0  0  0  0
  -14.4749   -6.8308    8.7610 C   0  0  0  0  0  0  0  0  0  0  0  0
  -14.4773   -5.8942    9.7330 C   0  0  0  0  0  0  0  0  0  0  0  0
  -14.2688   -4.6458    9.1126 C   0  0  0  0  0  0  0  0  0  0  0  0
  -14.2258   -6.7124    6.6834 H   0  0  0  0  0  0  0  0  0  0  0  0
  -14.6177   -1.9598   13.6643 C   0  0  0  0  0  0  0  0  0  0  0  0
  -14.2245   -3.2575   13.3794 C   0  0  0  0  0  0  0  0  0  0  0  0
  -14.7395   -1.5588   11.2972 C   0  0  0  0  0  0  0  0  0  0  0  0
  -14.0746   -3.7167   12.0733 C   0  0  0  0  0  0  0  0  0  0  0  0
  -14.3448   -2.8556   11.0106 C   0  0  0  0  0  0  0  0  0  0  0  0
  -14.8675   -1.0876   12.6061 C   0  0  0  0  0  0  0  0  0  0  0  0
  -15.3234    0.2971   12.8652 C   0  0  0  0  0  0  0  0  0  0  0  0
  -16.9333    2.0456   13.3533 C   0  0  0  0  0  0  0  0  0  0  0  0
  -14.4725    1.1623   12.9105 O   0  0  0  0  0  0  0  0  0  0  0  0
  -16.6199    0.6419   13.0731 N   0  0  0  0  0  0  0  0  0  0  0  0
  -17.7497   -0.3015   13.0212 C   0  0  0  0  0  0  0  0  0  0  0  0
  9  8  1  0  0  0
  9 10  2  0  0  0
  8  7  1  0  0  0
 10 11  1  0  0  0
  7 11  2  0  0  0
  7  5  1  0  0  0
 11  1  1  0  0  0
  4  5  2  0  0  0
  5  6  1  0  0  0
 16 14  2  0  0  0
 16 17  1  0  0  0
 14 13  1  0  0  0
  1 17  1  0  0  0
  1  2  2  0  0  0
 17 15  2  0  0  0
  6  2  1  0  0  0
  6  3  1  0  0  0
 13 18  2  0  0  0
 15 18  1  0  0  0
 18 19  1  0  0  0
 19 21  2  0  0  0
 19 22  1  0  0  0
 20 22  1  0  0  0
 22 23  1  0  0  0
  8 12  1  0  0  0
M  END
> <minimizedAffinity>
-7.39757

$$$$
5I80_67B_A_201


 23 25  0  0  0  0  0  0  0  0999 V2000
  -14.1050   -5.7052    8.9695 C   0  0  0  0  0  0  0  0  0  0  0  0
  -13.3064   -6.7298    9.3879 C   0  0  0  0  0  0  0  0  0  0  0  0
  -11.6869   -7.7976   10.8456 C   0  0  0  0  0  0  0  0  0  0  0  0
  -11.6515   -5.4309   12.1908 O   0  0  0  0  0  0  0  0  0  0  0  0
  -12.4009   -5.4970   11.2105 C   0  0  0  0  0  0  0  0  0  0  0  0
  -12.4810   -6.6198   10.4690 N   0  0  0  0  0  0  0  0  0  0  0  0
  -13.1790   -4.3841   10.8488 C   0  0  0  0  0  0  0  0  0  0  0  0
  -13.3092   -3.1330   11.3850 N   0  0  0  0  0  0  0  0  0  0  0  0
  -14.2165   -2.4330   10.6465 C   0  0  0  0  0  0  0  0  0  0  0  0
  -14.6801   -3.1998    9.6369 C   0  0  0  0  0  0  0  0  0  0  0  0
  -14.0418   -4.4527    9.7350 C   0  0  0  0  0  0  0  0  0  0  0  0
  -12.8275   -2.7939   12.1737 H   0  0  0  0  0  0  0  0  0  0  0  0
  -16.6239   -6.2810    5.5335 C   0  0  0  0  0  0  0  0  0  0  0  0
  -17.1793   -6.0348    6.7788 C   0  0  0  0  0  0  0  0  0  0  0  0
  -14.4552   -6.1754    6.5651 C   0  0  0  0  0  0  0  0  0  0  0  0
  -16.3969   -5.8477    7.9155 C   0  0  0  0  0  0  0  0  0  0  0  0
  -15.0089   -5.9275    7.8107 C   0  0  0  0  0  0  0  0  0  0  0  0
  -15.2360   -6.3395    5.4184 C   0  0  0  0  0  0  0  0  0  0  0  0
  -14.6020   -6.6349    4.1133 C   0  0  0  0  0  0  0  0  0  0  0  0
  -13.5957   -6.1098    1.9689 C   0  0  0  0  0  0  0  0  0  0  0  0
  -14.3741   -7.8001    3.8581 O   0  0  0  0  0  0  0  0  0  0  0  0
  -14.2479   -5.6850    3.2103 N   0  0  0  0  0  0  0  0  0  0  0  0
  -14.4890   -4.2425    3.3832 C   0  0  0  0  0  0  0  0  0  0  0  0
  9  8  1  0  0  0
  9 10  2  0  0  0
  8  7  1  0  0  0
 10 11  1  0  0  0
  7 11  2  0  0  0
  7  5  1  0  0  0
 11  1  1  0  0  0
  4  5  2  0  0  0
  5  6  1  0  0  0
 16 14  2  0  0  0
 16 17  1  0  0  0
 14 13  1  0  0  0
  1 17  1  0  0  0
  1  2  2  0  0  0
 17 15  2  0  0  0
  6  2  1  0  0  0
  6  3  1  0  0  0
 13 18  2  0  0  0
 15 18  1  0  0  0
 18 19  1  0  0  0
 19 21  2  0  0  0
 19 22  1  0  0  0
 20 22  1  0  0  0
 22 23  1  0  0  0
  8 12  1  0  0  0
M  END
> <minimizedAffinity>
-7.38361

$$$$
5I80_67B_A_201


 23 25  0  0  0  0  0  0  0  0999 V2000
  -15.0515   -0.9273   10.5180 C   0  0  0  0  0  0  0  0  0  0  0  0
  -15.4934   -0.0412   11.4572 C   0  0  0  0  0  0  0  0  0  0  0  0
  -15.8782    0.7540   13.7171 C   0  0  0  0  0  0  0  0  0  0  0  0
  -14.7603   -1.5983   14.5099 O   0  0  0  0  0  0  0  0  0  0  0  0
  -14.8449   -1.4109   13.2915 C   0  0  0  0  0  0  0  0  0  0  0  0
  -15.3952   -0.2845   12.7963 N   0  0  0  0  0  0  0  0  0  0  0  0
  -14.3715   -2.3878   12.3992 C   0  0  0  0  0  0  0  0  0  0  0  0
  -13.7829   -3.6072   12.5899 N   0  0  0  0  0  0  0  0  0  0  0  0
  -13.5049   -4.1538   11.3722 C   0  0  0  0  0  0  0  0  0  0  0  0
  -13.9021   -3.3180   10.3895 C   0  0  0  0  0  0  0  0  0  0  0  0
  -14.4583   -2.1795   11.0068 C   0  0  0  0  0  0  0  0  0  0  0  0
  -13.5917   -4.0218   13.4621 H   0  0  0  0  0  0  0  0  0  0  0  0
  -15.2062    0.1542    6.3600 C   0  0  0  0  0  0  0  0  0  0  0  0
  -16.2354    0.5088    7.2171 C   0  0  0  0  0  0  0  0  0  0  0  0
  -14.1267   -0.9157    8.2224 C   0  0  0  0  0  0  0  0  0  0  0  0
  -16.2235    0.1727    8.5685 C   0  0  0  0  0  0  0  0  0  0  0  0
  -15.1542   -0.5605    9.0812 C   0  0  0  0  0  0  0  0  0  0  0  0
  -14.1236   -0.5595    6.8716 C   0  0  0  0  0  0  0  0  0  0  0  0
  -13.0193   -0.9887    5.9836 C   0  0  0  0  0  0  0  0  0  0  0  0
  -11.8798   -2.4371    4.4053 C   0  0  0  0  0  0  0  0  0  0  0  0
  -12.0689   -0.2401    5.8782 O   0  0  0  0  0  0  0  0  0  0  0  0
  -13.0226   -2.1468    5.2753 N   0  0  0  0  0  0  0  0  0  0  0  0
  -14.0974   -3.1522    5.3306 C   0  0  0  0  0  0  0  0  0  0  0  0
  9  8  1  0  0  0
  9 10  2  0  0  0
  8  7  1  0  0  0
 10 11  1  0  0  0
  7 11  2  0  0  0
  7  5  1  0  0  0
 11  1  1  0  0  0
  4  5  2  0  0  0
  5  6  1  0  0  0
 16 14  2  0  0  0
 16 17  1  0  0  0
 14 13  1  0  0  0
  1 17  1  0  0  0
  1  2  2  0  0  0
 17 15  2  0  0  0
  6  2  1  0  0  0
  6  3  1  0  0  0
 13 18  2  0  0  0
 15 18  1  0  0  0
 18 19  1  0  0  0
 19 21  2  0  0  0
 19 22  1  0  0  0
 20 22  1  0  0  0
 22 23  1  0  0  0
  8 12  1  0  0  0
M  END
> <minimizedAffinity>
-7.24778

$$$$
5I80_67B_A_201


 23 25  0  0  0  0  0  0  0  0999 V2000
  -14.2682   -3.2078    9.4565 C   0  0  0  0  0  0  0  0  0  0  0  0
  -14.3513   -4.5262    9.1136 C   0  0  0  0  0  0  0  0  0  0  0  0
  -14.3012   -6.4029    7.5765 C   0  0  0  0  0  0  0  0  0  0  0  0
  -13.8697   -4.5362    5.6424 O   0  0  0  0  0  0  0  0  0  0  0  0
  -13.9924   -4.1153    6.7976 C   0  0  0  0  0  0  0  0  0  0  0  0
  -14.2225   -4.9567    7.8251 N   0  0  0  0  0  0  0  0  0  0  0  0
  -13.9023   -2.7362    7.0527 C   0  0  0  0  0  0  0  0  0  0  0  0
  -13.6877   -1.6575    6.2404 N   0  0  0  0  0  0  0  0  0  0  0  0
  -13.6823   -0.5286    7.0048 C   0  0  0  0  0  0  0  0  0  0  0  0
  -13.8918   -0.8469    8.2997 C   0  0  0  0  0  0  0  0  0  0  0  0
  -14.0349   -2.2475    8.3692 C   0  0  0  0  0  0  0  0  0  0  0  0
  -13.5584   -1.6905    5.2650 H   0  0  0  0  0  0  0  0  0  0  0  0
  -14.5252   -1.9874   13.5707 C   0  0  0  0  0  0  0  0  0  0  0  0
  -14.1274   -3.2734   13.2427 C   0  0  0  0  0  0  0  0  0  0  0  0
  -14.7717   -1.5466   11.2205 C   0  0  0  0  0  0  0  0  0  0  0  0
  -14.0364   -3.7070   11.9225 C   0  0  0  0  0  0  0  0  0  0  0  0
  -14.3725   -2.8316   10.8907 C   0  0  0  0  0  0  0  0  0  0  0  0
  -14.8409   -1.1006   12.5426 C   0  0  0  0  0  0  0  0  0  0  0  0
  -15.3039    0.2718   12.8497 C   0  0  0  0  0  0  0  0  0  0  0  0
  -16.9103    1.9835   13.4635 C   0  0  0  0  0  0  0  0  0  0  0  0
  -14.4673    1.1521   12.8531 O   0  0  0  0  0  0  0  0  0  0  0  0
  -16.5905    0.5897   13.1442 N   0  0  0  0  0  0  0  0  0  0  0  0
  -17.7043   -0.3738   13.1507 C   0  0  0  0  0  0  0  0  0  0  0  0
  9  8  1  0  0  0
  9 10  2  0  0  0
  8  7  1  0  0  0
 10 11  1  0  0  0
  7 11  2  0  0  0
  7  5  1  0  0  0
 11  1  1  0  0  0
  4  5  2  0  0  0
  5  6  1  0  0  0
 16 14  2  0  0  0
 16 17  1  0  0  0
 14 13  1  0  0  0
  1 17  1  0  0  0
  1  2  2  0  0  0
 17 15  2  0  0  0
  6  2  1  0  0  0
  6  3  1  0  0  0
 13 18  2  0  0  0
 15 18  1  0  0  0
 18 19  1  0  0  0
 19 21  2  0  0  0
 19 22  1  0  0  0
 20 22  1  0  0  0
 22 23  1  0  0  0
  8 12  1  0  0  0
M  END
> <minimizedAffinity>
-7.05709

$$$$
5I80_67B_A_201


 23 25  0  0  0  0  0  0  0  0999 V2000
  -14.6622   -6.3039    5.9568 C   0  0  0  0  0  0  0  0  0  0  0  0
  -15.2967   -7.4827    5.6917 C   0  0  0  0  0  0  0  0  0  0  0  0
  -16.1632   -9.2357    4.2550 C   0  0  0  0  0  0  0  0  0  0  0  0
  -15.2480   -7.7093    2.1948 O   0  0  0  0  0  0  0  0  0  0  0  0
  -15.0650   -7.2658    3.3336 C   0  0  0  0  0  0  0  0  0  0  0  0
  -15.4927   -7.9385    4.4204 N   0  0  0  0  0  0  0  0  0  0  0  0
  -14.4100   -6.0348    3.5076 C   0  0  0  0  0  0  0  0  0  0  0  0
  -13.8789   -5.1366    2.6240 N   0  0  0  0  0  0  0  0  0  0  0  0
  -13.3432   -4.0975    3.3254 C   0  0  0  0  0  0  0  0  0  0  0  0
  -13.5158   -4.2966    4.6493 C   0  0  0  0  0  0  0  0  0  0  0  0
  -14.1914   -5.5239    4.8041 C   0  0  0  0  0  0  0  0  0  0  0  0
  -13.8826   -5.2256    1.6436 H   0  0  0  0  0  0  0  0  0  0  0  0
  -14.0606   -5.2931   10.0919 C   0  0  0  0  0  0  0  0  0  0  0  0
  -14.7434   -4.4304    9.2497 C   0  0  0  0  0  0  0  0  0  0  0  0
  -13.7653   -6.7675    8.2164 C   0  0  0  0  0  0  0  0  0  0  0  0
  -14.9541   -4.7205    7.9040 C   0  0  0  0  0  0  0  0  0  0  0  0
  -14.4492   -5.9067    7.3732 C   0  0  0  0  0  0  0  0  0  0  0  0
  -13.5730   -6.4911    9.5722 C   0  0  0  0  0  0  0  0  0  0  0  0
  -12.8077   -7.4255   10.4286 C   0  0  0  0  0  0  0  0  0  0  0  0
  -11.1594   -8.0640   12.0907 C   0  0  0  0  0  0  0  0  0  0  0  0
  -13.1103   -8.6005   10.3765 O   0  0  0  0  0  0  0  0  0  0  0  0
  -11.8156   -7.0413   11.2718 N   0  0  0  0  0  0  0  0  0  0  0  0
  -11.3344   -5.6566   11.4133 C   0  0  0  0  0  0  0  0  0  0  0  0
  9  8  1  0  0  0
  9 10  2  0  0  0
  8  7  1  0  0  0
 10 11  1  0  0  0
  7 11  2  0  0  0
  7  5  1  0  0  0
 11  1  1  0  0  0
  4  5  2  0  0  0
  5  6  1  0  0  0
 16 14  2  0  0  0
 16 17  1  0  0  0
 14 13  1  0  0  0
  1 17  1  0  0  0
  1  2  2  0  0  0
 17 15  2  0  0  0
  6  2  1  0  0  0
  6  3  1  0  0  0
 13 18  2  0  0  0
 15 18  1  0  0  0
 18 19  1  0  0  0
 19 21  2  0  0  0
 19 22  1  0  0  0
 20 22  1  0  0  0
 22 23  1  0  0  0
  8 12  1  0  0  0
M  END
> <minimizedAffinity>
-7.04634

$$$$
