3HMP_CX4_A_1


 17 19  0  0  0  0  0  0  0  0999 V2000
  -34.9349  -16.3354   -9.4139 C   0  0  0  0  0  0  0  0  0  0  0  0
  -35.8188  -16.6450  -10.4542 C   0  0  0  0  0  0  0  0  0  0  0  0
  -36.5878  -17.8161  -10.4629 C   0  0  0  0  0  0  0  0  0  0  0  0
  -37.4466  -18.0838  -11.5318 C   0  0  0  0  0  0  0  0  0  0  0  0
  -37.5371  -17.1701  -12.5853 C   0  0  0  0  0  0  0  0  0  0  0  0
  -38.5950  -17.4448  -13.9141 Cl  0  0  0  0  0  0  0  0  0  0  0  0
  -36.7750  -16.0034  -12.5799 C   0  0  0  0  0  0  0  0  0  0  0  0
  -35.9140  -15.7378  -11.5190 C   0  0  0  0  0  0  0  0  0  0  0  0
  -35.1765  -14.6155  -11.5216 N   0  0  0  0  0  0  0  0  0  0  0  0
  -34.3567  -14.3611  -10.5173 C   0  0  0  0  0  0  0  0  0  0  0  0
  -34.2299  -15.1904   -9.4872 N   0  0  0  0  0  0  0  0  0  0  0  0
  -34.7878  -17.1394   -8.3551 N   0  0  0  0  0  0  0  0  0  0  0  0
  -35.2379  -18.0150   -8.3569 H   0  0  0  0  0  0  0  0  0  0  0  0
  -33.9778  -16.7607   -7.1900 C   0  0  0  0  0  0  0  0  0  0  0  0
  -35.2215  -14.9325   -5.8712 C   0  0  0  0  0  0  0  0  0  0  0  0
  -34.2633  -15.6193   -4.8900 C   0  0  0  0  0  0  0  0  0  0  0  0
  -34.9065  -16.4218   -6.0229 C   0  0  0  0  0  0  0  0  0  0  0  0
 17 15  1  0  0  0
 16 15  1  0  0  0
 17 16  1  0  0  0
 14 17  1  0  0  0
 12 14  1  0  0  0
  1 12  1  0  0  0
  2  1  2  0  0  0
 11  1  1  0  0  0
  8  2  1  0  0  0
  2  3  1  0  0  0
  4  3  2  0  0  0
  5  4  1  0  0  0
  6  5  1  0  0  0
  7  5  2  0  0  0
  7  8  1  0  0  0
  9  8  2  0  0  0
  9 10  1  0  0  0
 10 11  2  0  0  0
 12 13  1  0  0  0
M  END
> <minimizedAffinity>
-6.31099

$$$$
3HMP_CX4_A_1


 17 19  0  0  0  0  0  0  0  0999 V2000
  -35.1553  -15.2157  -12.1157 C   0  0  0  0  0  0  0  0  0  0  0  0
  -35.9089  -16.3872  -12.2541 C   0  0  0  0  0  0  0  0  0  0  0  0
  -35.7825  -17.4699  -11.3740 C   0  0  0  0  0  0  0  0  0  0  0  0
  -36.5500  -18.6217  -11.5635 C   0  0  0  0  0  0  0  0  0  0  0  0
  -37.4490  -18.6796  -12.6320 C   0  0  0  0  0  0  0  0  0  0  0  0
  -38.4310  -20.0676  -12.8955 Cl  0  0  0  0  0  0  0  0  0  0  0  0
  -37.5789  -17.6043  -13.5089 C   0  0  0  0  0  0  0  0  0  0  0  0
  -36.8104  -16.4583  -13.3256 C   0  0  0  0  0  0  0  0  0  0  0  0
  -36.9341  -15.4274  -14.1773 N   0  0  0  0  0  0  0  0  0  0  0  0
  -36.2049  -14.3388  -14.0075 C   0  0  0  0  0  0  0  0  0  0  0  0
  -35.3358  -14.2246  -13.0093 N   0  0  0  0  0  0  0  0  0  0  0  0
  -34.2786  -15.0588  -11.1178 N   0  0  0  0  0  0  0  0  0  0  0  0
  -33.4726  -15.6238  -11.0999 H   0  0  0  0  0  0  0  0  0  0  0  0
  -34.4773  -14.0725  -10.0478 C   0  0  0  0  0  0  0  0  0  0  0  0
  -33.6656  -16.0419   -8.6017 C   0  0  0  0  0  0  0  0  0  0  0  0
  -34.5745  -15.1804   -7.7160 C   0  0  0  0  0  0  0  0  0  0  0  0
  -33.7165  -14.5260   -8.8008 C   0  0  0  0  0  0  0  0  0  0  0  0
 17 15  1  0  0  0
 16 15  1  0  0  0
 17 16  1  0  0  0
 14 17  1  0  0  0
 12 14  1  0  0  0
  1 12  1  0  0  0
  2  1  2  0  0  0
 11  1  1  0  0  0
  8  2  1  0  0  0
  2  3  1  0  0  0
  4  3  2  0  0  0
  5  4  1  0  0  0
  6  5  1  0  0  0
  7  5  2  0  0  0
  7  8  1  0  0  0
  9  8  2  0  0  0
  9 10  1  0  0  0
 10 11  2  0  0  0
 12 13  1  0  0  0
M  END
> <minimizedAffinity>
-6.18285

$$$$
3HMP_CX4_A_1


 17 19  0  0  0  0  0  0  0  0999 V2000
  -36.6031  -16.1251  -13.0654 C   0  0  0  0  0  0  0  0  0  0  0  0
  -35.8967  -15.9010  -11.8778 C   0  0  0  0  0  0  0  0  0  0  0  0
  -35.8603  -16.8384  -10.8373 C   0  0  0  0  0  0  0  0  0  0  0  0
  -35.1498  -16.5607   -9.6670 C   0  0  0  0  0  0  0  0  0  0  0  0
  -34.4705  -15.3451   -9.5483 C   0  0  0  0  0  0  0  0  0  0  0  0
  -33.5651  -14.9652   -8.1355 Cl  0  0  0  0  0  0  0  0  0  0  0  0
  -34.5030  -14.4105  -10.5814 C   0  0  0  0  0  0  0  0  0  0  0  0
  -35.2156  -14.6826  -11.7458 C   0  0  0  0  0  0  0  0  0  0  0  0
  -35.2495  -13.7759  -12.7358 N   0  0  0  0  0  0  0  0  0  0  0  0
  -35.9265  -14.0299  -13.8415 C   0  0  0  0  0  0  0  0  0  0  0  0
  -36.5895  -15.1683  -14.0130 N   0  0  0  0  0  0  0  0  0  0  0  0
  -37.2733  -17.2626  -13.2795 N   0  0  0  0  0  0  0  0  0  0  0  0
  -36.8533  -18.1165  -13.0273 H   0  0  0  0  0  0  0  0  0  0  0  0
  -38.6144  -17.2813  -13.8780 C   0  0  0  0  0  0  0  0  0  0  0  0
  -40.1496  -19.2696  -13.3138 C   0  0  0  0  0  0  0  0  0  0  0  0
  -38.7086  -19.7304  -13.0613 C   0  0  0  0  0  0  0  0  0  0  0  0
  -39.0091  -18.7283  -14.1778 C   0  0  0  0  0  0  0  0  0  0  0  0
 17 15  1  0  0  0
 16 15  1  0  0  0
 17 16  1  0  0  0
 14 17  1  0  0  0
 12 14  1  0  0  0
  1 12  1  0  0  0
  2  1  2  0  0  0
 11  1  1  0  0  0
  8  2  1  0  0  0
  2  3  1  0  0  0
  4  3  2  0  0  0
  5  4  1  0  0  0
  6  5  1  0  0  0
  7  5  2  0  0  0
  7  8  1  0  0  0
  9  8  2  0  0  0
  9 10  1  0  0  0
 10 11  2  0  0  0
 12 13  1  0  0  0
M  END
> <minimizedAffinity>
-6.07370

$$$$
3HMP_CX4_A_1


 17 19  0  0  0  0  0  0  0  0999 V2000
  -35.5204  -16.5712  -10.7334 C   0  0  0  0  0  0  0  0  0  0  0  0
  -34.8820  -15.8809   -9.6964 C   0  0  0  0  0  0  0  0  0  0  0  0
  -34.7505  -16.4151   -8.4079 C   0  0  0  0  0  0  0  0  0  0  0  0
  -34.1147  -15.6796   -7.4047 C   0  0  0  0  0  0  0  0  0  0  0  0
  -33.6049  -14.4125   -7.7008 C   0  0  0  0  0  0  0  0  0  0  0  0
  -32.7960  -13.4764   -6.5051 Cl  0  0  0  0  0  0  0  0  0  0  0  0
  -33.7324  -13.8779   -8.9814 C   0  0  0  0  0  0  0  0  0  0  0  0
  -34.3712  -14.6065   -9.9807 C   0  0  0  0  0  0  0  0  0  0  0  0
  -34.4976  -14.0843  -11.2115 N   0  0  0  0  0  0  0  0  0  0  0  0
  -35.1051  -14.7721  -12.1619 C   0  0  0  0  0  0  0  0  0  0  0  0
  -35.6073  -15.9820  -11.9413 N   0  0  0  0  0  0  0  0  0  0  0  0
  -36.0288  -17.7951  -10.5533 N   0  0  0  0  0  0  0  0  0  0  0  0
  -36.2225  -18.0993   -9.6372 H   0  0  0  0  0  0  0  0  0  0  0  0
  -36.3079  -18.7008  -11.6753 C   0  0  0  0  0  0  0  0  0  0  0  0
  -38.2757  -19.6703  -13.0231 C   0  0  0  0  0  0  0  0  0  0  0  0
  -38.0752  -18.2259  -13.4987 C   0  0  0  0  0  0  0  0  0  0  0  0
  -37.7892  -18.6010  -12.0432 C   0  0  0  0  0  0  0  0  0  0  0  0
 17 15  1  0  0  0
 16 15  1  0  0  0
 17 16  1  0  0  0
 14 17  1  0  0  0
 12 14  1  0  0  0
  1 12  1  0  0  0
  2  1  2  0  0  0
 11  1  1  0  0  0
  8  2  1  0  0  0
  2  3  1  0  0  0
  4  3  2  0  0  0
  5  4  1  0  0  0
  6  5  1  0  0  0
  7  5  2  0  0  0
  7  8  1  0  0  0
  9  8  2  0  0  0
  9 10  1  0  0  0
 10 11  2  0  0  0
 12 13  1  0  0  0
M  END
> <minimizedAffinity>
-6.06694

$$$$
3HMP_CX4_A_1


 17 19  0  0  0  0  0  0  0  0999 V2000
  -35.0724  -16.3233   -9.8175 C   0  0  0  0  0  0  0  0  0  0  0  0
  -34.6544  -15.8877   -8.5546 C   0  0  0  0  0  0  0  0  0  0  0  0
  -34.7322  -16.7003   -7.4160 C   0  0  0  0  0  0  0  0  0  0  0  0
  -34.3125  -16.2131   -6.1759 C   0  0  0  0  0  0  0  0  0  0  0  0
  -33.8074  -14.9132   -6.0842 C   0  0  0  0  0  0  0  0  0  0  0  0
  -33.2591  -14.2746   -4.5836 Cl  0  0  0  0  0  0  0  0  0  0  0  0
  -33.7269  -14.1020   -7.2144 C   0  0  0  0  0  0  0  0  0  0  0  0
  -34.1506  -14.5834   -8.4499 C   0  0  0  0  0  0  0  0  0  0  0  0
  -34.0774  -13.7955   -9.5349 N   0  0  0  0  0  0  0  0  0  0  0  0
  -34.4804  -14.2484  -10.7088 C   0  0  0  0  0  0  0  0  0  0  0  0
  -34.9670  -15.4754  -10.8585 N   0  0  0  0  0  0  0  0  0  0  0  0
  -35.5573  -17.5548  -10.0103 N   0  0  0  0  0  0  0  0  0  0  0  0
  -35.0576  -18.3239   -9.6524 H   0  0  0  0  0  0  0  0  0  0  0  0
  -36.8096  -17.7990  -10.7376 C   0  0  0  0  0  0  0  0  0  0  0  0
  -36.2882  -18.2573  -13.2169 C   0  0  0  0  0  0  0  0  0  0  0  0
  -37.6374  -18.9205  -12.9127 C   0  0  0  0  0  0  0  0  0  0  0  0
  -36.5601  -18.8410  -11.8292 C   0  0  0  0  0  0  0  0  0  0  0  0
 17 15  1  0  0  0
 16 15  1  0  0  0
 17 16  1  0  0  0
 14 17  1  0  0  0
 12 14  1  0  0  0
  1 12  1  0  0  0
  2  1  2  0  0  0
 11  1  1  0  0  0
  8  2  1  0  0  0
  2  3  1  0  0  0
  4  3  2  0  0  0
  5  4  1  0  0  0
  6  5  1  0  0  0
  7  5  2  0  0  0
  7  8  1  0  0  0
  9  8  2  0  0  0
  9 10  1  0  0  0
 10 11  2  0  0  0
 12 13  1  0  0  0
M  END
> <minimizedAffinity>
-6.03669

$$$$
3HMP_CX4_A_1


 17 19  0  0  0  0  0  0  0  0999 V2000
  -36.8533  -17.1793  -11.4812 C   0  0  0  0  0  0  0  0  0  0  0  0
  -36.4895  -16.0257  -12.1857 C   0  0  0  0  0  0  0  0  0  0  0  0
  -37.0565  -15.6908  -13.4224 C   0  0  0  0  0  0  0  0  0  0  0  0
  -36.6496  -14.5335  -14.0907 C   0  0  0  0  0  0  0  0  0  0  0  0
  -35.6801  -13.7108  -13.5108 C   0  0  0  0  0  0  0  0  0  0  0  0
  -35.1606  -12.2646  -14.2848 Cl  0  0  0  0  0  0  0  0  0  0  0  0
  -35.1146  -14.0394  -12.2803 C   0  0  0  0  0  0  0  0  0  0  0  0
  -35.5140  -15.1955  -11.6158 C   0  0  0  0  0  0  0  0  0  0  0  0
  -34.9611  -15.5115  -10.4334 N   0  0  0  0  0  0  0  0  0  0  0  0
  -35.3364  -16.6090   -9.8008 C   0  0  0  0  0  0  0  0  0  0  0  0
  -36.2548  -17.4283  -10.3008 N   0  0  0  0  0  0  0  0  0  0  0  0
  -37.7814  -18.0225  -11.9464 N   0  0  0  0  0  0  0  0  0  0  0  0
  -38.7271  -17.7500  -11.9203 H   0  0  0  0  0  0  0  0  0  0  0  0
  -37.4381  -19.3410  -12.4947 C   0  0  0  0  0  0  0  0  0  0  0  0
  -39.1146  -18.5656  -14.2882 C   0  0  0  0  0  0  0  0  0  0  0  0
  -39.9191  -19.3088  -13.2143 C   0  0  0  0  0  0  0  0  0  0  0  0
  -38.4863  -19.7395  -13.5349 C   0  0  0  0  0  0  0  0  0  0  0  0
 17 15  1  0  0  0
 16 15  1  0  0  0
 17 16  1  0  0  0
 14 17  1  0  0  0
 12 14  1  0  0  0
  1 12  1  0  0  0
  2  1  2  0  0  0
 11  1  1  0  0  0
  8  2  1  0  0  0
  2  3  1  0  0  0
  4  3  2  0  0  0
  5  4  1  0  0  0
  6  5  1  0  0  0
  7  5  2  0  0  0
  7  8  1  0  0  0
  9  8  2  0  0  0
  9 10  1  0  0  0
 10 11  2  0  0  0
 12 13  1  0  0  0
M  END
> <minimizedAffinity>
-5.90094

$$$$
3HMP_CX4_A_1


 17 19  0  0  0  0  0  0  0  0999 V2000
  -36.6945  -16.5942  -12.9007 C   0  0  0  0  0  0  0  0  0  0  0  0
  -35.9388  -16.1383  -11.8142 C   0  0  0  0  0  0  0  0  0  0  0  0
  -35.2454  -14.9212  -11.8396 C   0  0  0  0  0  0  0  0  0  0  0  0
  -34.4954  -14.5175  -10.7322 C   0  0  0  0  0  0  0  0  0  0  0  0
  -34.4509  -15.3338   -9.5987 C   0  0  0  0  0  0  0  0  0  0  0  0
  -33.5581  -14.8711   -8.2026 Cl  0  0  0  0  0  0  0  0  0  0  0  0
  -35.1404  -16.5445   -9.5687 C   0  0  0  0  0  0  0  0  0  0  0  0
  -35.8830  -16.9515  -10.6734 C   0  0  0  0  0  0  0  0  0  0  0  0
  -36.5401  -18.1223  -10.6423 N   0  0  0  0  0  0  0  0  0  0  0  0
  -37.2443  -18.5127  -11.6897 C   0  0  0  0  0  0  0  0  0  0  0  0
  -37.3262  -17.7787  -12.7939 N   0  0  0  0  0  0  0  0  0  0  0  0
  -36.8100  -15.8788  -14.0250 N   0  0  0  0  0  0  0  0  0  0  0  0
  -36.0284  -15.7957  -14.6179 H   0  0  0  0  0  0  0  0  0  0  0  0
  -38.0627  -15.2130  -14.4052 C   0  0  0  0  0  0  0  0  0  0  0  0
  -36.7064  -14.2613  -16.3758 C   0  0  0  0  0  0  0  0  0  0  0  0
  -36.3195  -13.4505  -15.1325 C   0  0  0  0  0  0  0  0  0  0  0  0
  -37.7401  -13.9997  -15.2788 C   0  0  0  0  0  0  0  0  0  0  0  0
 17 15  1  0  0  0
 16 15  1  0  0  0
 17 16  1  0  0  0
 14 17  1  0  0  0
 12 14  1  0  0  0
  1 12  1  0  0  0
  2  1  2  0  0  0
 11  1  1  0  0  0
  8  2  1  0  0  0
  2  3  1  0  0  0
  4  3  2  0  0  0
  5  4  1  0  0  0
  6  5  1  0  0  0
  7  5  2  0  0  0
  7  8  1  0  0  0
  9  8  2  0  0  0
  9 10  1  0  0  0
 10 11  2  0  0  0
 12 13  1  0  0  0
M  END
> <minimizedAffinity>
-5.70693

$$$$
3HMP_CX4_A_1


 17 19  0  0  0  0  0  0  0  0999 V2000
  -35.2497  -15.1328  -11.8346 C   0  0  0  0  0  0  0  0  0  0  0  0
  -35.9534  -16.3140  -12.0975 C   0  0  0  0  0  0  0  0  0  0  0  0
  -36.5583  -16.5682  -13.3354 C   0  0  0  0  0  0  0  0  0  0  0  0
  -37.2596  -17.7584  -13.5427 C   0  0  0  0  0  0  0  0  0  0  0  0
  -37.3442  -18.6945  -12.5083 C   0  0  0  0  0  0  0  0  0  0  0  0
  -38.1792  -20.1837  -12.7210 Cl  0  0  0  0  0  0  0  0  0  0  0  0
  -36.7428  -18.4462  -11.2760 C   0  0  0  0  0  0  0  0  0  0  0  0
  -36.0490  -17.2580  -11.0654 C   0  0  0  0  0  0  0  0  0  0  0  0
  -35.4770  -17.0204   -9.8738 N   0  0  0  0  0  0  0  0  0  0  0  0
  -34.8194  -15.8929   -9.6697 C   0  0  0  0  0  0  0  0  0  0  0  0
  -34.7029  -14.9670  -10.6151 N   0  0  0  0  0  0  0  0  0  0  0  0
  -35.1014  -14.1824  -12.7639 N   0  0  0  0  0  0  0  0  0  0  0  0
  -34.6337  -14.4050  -13.6012 H   0  0  0  0  0  0  0  0  0  0  0  0
  -35.6123  -12.8180  -12.5781 C   0  0  0  0  0  0  0  0  0  0  0  0
  -36.2734  -13.2797  -15.0232 C   0  0  0  0  0  0  0  0  0  0  0  0
  -35.8085  -11.8196  -14.9527 C   0  0  0  0  0  0  0  0  0  0  0  0
  -36.5182  -12.4574  -13.7566 C   0  0  0  0  0  0  0  0  0  0  0  0
 17 15  1  0  0  0
 16 15  1  0  0  0
 17 16  1  0  0  0
 14 17  1  0  0  0
 12 14  1  0  0  0
  1 12  1  0  0  0
  2  1  2  0  0  0
 11  1  1  0  0  0
  8  2  1  0  0  0
  2  3  1  0  0  0
  4  3  2  0  0  0
  5  4  1  0  0  0
  6  5  1  0  0  0
  7  5  2  0  0  0
  7  8  1  0  0  0
  9  8  2  0  0  0
  9 10  1  0  0  0
 10 11  2  0  0  0
 12 13  1  0  0  0
M  END
> <minimizedAffinity>
-5.68893

$$$$
3HMP_CX4_A_1


 17 19  0  0  0  0  0  0  0  0999 V2000
  -37.7490  -17.4192  -12.4102 C   0  0  0  0  0  0  0  0  0  0  0  0
  -38.4340  -16.8810  -13.5059 C   0  0  0  0  0  0  0  0  0  0  0  0
  -38.4710  -15.5049  -13.7664 C   0  0  0  0  0  0  0  0  0  0  0  0
  -39.1794  -15.0179  -14.8675 C   0  0  0  0  0  0  0  0  0  0  0  0
  -39.8420  -15.9154  -15.7092 C   0  0  0  0  0  0  0  0  0  0  0  0
  -40.7109  -15.3665  -17.0891 Cl  0  0  0  0  0  0  0  0  0  0  0  0
  -39.8066  -17.2850  -15.4545 C   0  0  0  0  0  0  0  0  0  0  0  0
  -39.1066  -17.7718  -14.3543 C   0  0  0  0  0  0  0  0  0  0  0  0
  -39.0811  -19.0919  -14.1092 N   0  0  0  0  0  0  0  0  0  0  0  0
  -38.4194  -19.5574  -13.0647 C   0  0  0  0  0  0  0  0  0  0  0  0
  -37.7686  -18.7538  -12.2308 N   0  0  0  0  0  0  0  0  0  0  0  0
  -37.0733  -16.6439  -11.5550 N   0  0  0  0  0  0  0  0  0  0  0  0
  -37.5680  -15.9793  -11.0231 H   0  0  0  0  0  0  0  0  0  0  0  0
  -35.6187  -16.7500  -11.3823 C   0  0  0  0  0  0  0  0  0  0  0  0
  -34.4592  -14.5206  -10.8221 C   0  0  0  0  0  0  0  0  0  0  0  0
  -35.7209  -14.1801  -11.6251 C   0  0  0  0  0  0  0  0  0  0  0  0
  -34.9573  -15.4753  -11.9087 C   0  0  0  0  0  0  0  0  0  0  0  0
 17 15  1  0  0  0
 16 15  1  0  0  0
 17 16  1  0  0  0
 14 17  1  0  0  0
 12 14  1  0  0  0
  1 12  1  0  0  0
  2  1  2  0  0  0
 11  1  1  0  0  0
  8  2  1  0  0  0
  2  3  1  0  0  0
  4  3  2  0  0  0
  5  4  1  0  0  0
  6  5  1  0  0  0
  7  5  2  0  0  0
  7  8  1  0  0  0
  9  8  2  0  0  0
  9 10  1  0  0  0
 10 11  2  0  0  0
 12 13  1  0  0  0
M  END
> <minimizedAffinity>
-5.65015

$$$$
3HMP_CX4_A_1


 17 19  0  0  0  0  0  0  0  0999 V2000
  -35.8811  -15.4690  -11.8608 C   0  0  0  0  0  0  0  0  0  0  0  0
  -36.8636  -16.1832  -12.5565 C   0  0  0  0  0  0  0  0  0  0  0  0
  -37.4130  -15.7258  -13.7614 C   0  0  0  0  0  0  0  0  0  0  0  0
  -38.4004  -16.4712  -14.4103 C   0  0  0  0  0  0  0  0  0  0  0  0
  -38.8273  -17.6789  -13.8513 C   0  0  0  0  0  0  0  0  0  0  0  0
  -40.0258  -18.6428  -14.6226 Cl  0  0  0  0  0  0  0  0  0  0  0  0
  -38.2824  -18.1382  -12.6538 C   0  0  0  0  0  0  0  0  0  0  0  0
  -37.3031  -17.3938  -12.0024 C   0  0  0  0  0  0  0  0  0  0  0  0
  -36.7860  -17.8372  -10.8450 N   0  0  0  0  0  0  0  0  0  0  0  0
  -35.8578  -17.1323  -10.2230 C   0  0  0  0  0  0  0  0  0  0  0  0
  -35.4104  -15.9788  -10.7066 N   0  0  0  0  0  0  0  0  0  0  0  0
  -35.3977  -14.3099  -12.3210 N   0  0  0  0  0  0  0  0  0  0  0  0
  -34.8008  -14.3210  -13.1038 H   0  0  0  0  0  0  0  0  0  0  0  0
  -35.7271  -13.0210  -11.6986 C   0  0  0  0  0  0  0  0  0  0  0  0
  -36.7343  -12.1660  -13.9083 C   0  0  0  0  0  0  0  0  0  0  0  0
  -35.2339  -12.3734  -14.1504 C   0  0  0  0  0  0  0  0  0  0  0  0
  -35.7352  -11.9329  -12.7735 C   0  0  0  0  0  0  0  0  0  0  0  0
 17 15  1  0  0  0
 16 15  1  0  0  0
 17 16  1  0  0  0
 14 17  1  0  0  0
 12 14  1  0  0  0
  1 12  1  0  0  0
  2  1  2  0  0  0
 11  1  1  0  0  0
  8  2  1  0  0  0
  2  3  1  0  0  0
  4  3  2  0  0  0
  5  4  1  0  0  0
  6  5  1  0  0  0
  7  5  2  0  0  0
  7  8  1  0  0  0
  9  8  2  0  0  0
  9 10  1  0  0  0
 10 11  2  0  0  0
 12 13  1  0  0  0
M  END
> <minimizedAffinity>
-5.57330

$$$$
