5CHK_55R_A_202


 20 21  0  0  0  0  0  0  0  0999 V2000
   11.7995    2.7329   28.7976 C   0  0  0  0  0  0  0  0  0  0  0  0
   11.0070    1.8998   29.5931 C   0  0  0  0  0  0  0  0  0  0  0  0
    9.9016    1.2520   29.0574 C   0  0  0  0  0  0  0  0  0  0  0  0
    9.5877    1.4320   27.7256 C   0  0  0  0  0  0  0  0  0  0  0  0
   10.3818    2.2392   26.9268 C   0  0  0  0  0  0  0  0  0  0  0  0
   11.4745    2.9007   27.4612 C   0  0  0  0  0  0  0  0  0  0  0  0
   13.5592    3.0895   30.3781 O   0  0  0  0  0  0  0  0  0  0  0  0
   13.4650    4.4229   28.6573 O   0  0  0  0  0  0  0  0  0  0  0  0
   13.0104    3.4625   29.3156 C   0  0  0  0  0  0  0  0  0  0  0  0
   13.0425    4.6892   27.8645 H   0  0  0  0  0  0  0  0  0  0  0  0
   11.2859    1.7071   30.9490 N   0  0  0  0  0  0  0  0  0  0  0  0
   11.8352    2.3629   31.4363 H   0  0  0  0  0  0  0  0  0  0  0  0
   13.2999   -1.8463   35.7227 O   0  0  0  0  0  0  0  0  0  0  0  0
   12.7492   -1.2599   34.7567 C   0  0  0  0  0  0  0  0  0  0  0  0
   11.4530   -1.7405   34.2562 C   0  0  0  0  0  0  0  0  0  0  0  0
   10.8432   -1.0939   33.2144 C   0  0  0  0  0  0  0  0  0  0  0  0
   13.3749   -0.0808   34.1328 C   0  0  0  0  0  0  0  0  0  0  0  0
   12.7549    0.5713   33.0953 C   0  0  0  0  0  0  0  0  0  0  0  0
   11.4606    0.0835   32.5812 C   0  0  0  0  0  0  0  0  0  0  0  0
   10.8082    0.6351   31.5833 N   0  0  0  0  0  0  0  0  0  0  0  0
  5  6  2  0  0  0
  5  4  1  0  0  0
  6  1  1  0  0  0
  4  3  2  0  0  0
  3  2  1  0  0  0
  7  9  2  0  0  0
  1  2  2  0  0  0
  1  9  1  0  0  0
  2 11  1  0  0  0
  9  8  1  0  0  0
 11 20  1  0  0  0
 20 19  2  0  0  0
 19 16  1  0  0  0
 19 18  1  0  0  0
 16 15  2  0  0  0
 18 17  2  0  0  0
 15 14  1  0  0  0
 17 14  1  0  0  0
 14 13  2  0  0  0
  8 10  1  0  0  0
 11 12  1  0  0  0
M  END
> <minimizedAffinity>
-10.91277

$$$$
5CHK_55R_A_202


 20 21  0  0  0  0  0  0  0  0999 V2000
   11.7737    2.6940   28.8403 C   0  0  0  0  0  0  0  0  0  0  0  0
   10.9299    2.0376   29.7414 C   0  0  0  0  0  0  0  0  0  0  0  0
    9.8153    1.3430   29.2900 C   0  0  0  0  0  0  0  0  0  0  0  0
    9.5432    1.2996   27.9377 C   0  0  0  0  0  0  0  0  0  0  0  0
   10.3877    1.9300   27.0378 C   0  0  0  0  0  0  0  0  0  0  0  0
   11.4902    2.6382   27.4851 C   0  0  0  0  0  0  0  0  0  0  0  0
   13.3653    4.4644   28.6076 O   0  0  0  0  0  0  0  0  0  0  0  0
   13.6170    3.0974   30.2857 O   0  0  0  0  0  0  0  0  0  0  0  0
   12.9972    3.4626   29.2635 C   0  0  0  0  0  0  0  0  0  0  0  0
   13.3284    2.3457   30.7650 H   0  0  0  0  0  0  0  0  0  0  0  0
   11.1659    2.0737   31.1185 N   0  0  0  0  0  0  0  0  0  0  0  0
   10.9271    2.8754   31.6376 H   0  0  0  0  0  0  0  0  0  0  0  0
    9.1214   -2.1566   35.2894 O   0  0  0  0  0  0  0  0  0  0  0  0
    9.7016   -1.3994   34.4705 C   0  0  0  0  0  0  0  0  0  0  0  0
   11.0999   -1.6622   34.1002 C   0  0  0  0  0  0  0  0  0  0  0  0
   11.7293   -0.8484   33.1963 C   0  0  0  0  0  0  0  0  0  0  0  0
    8.9907   -0.2635   33.8578 C   0  0  0  0  0  0  0  0  0  0  0  0
    9.6223    0.5438   32.9437 C   0  0  0  0  0  0  0  0  0  0  0  0
   11.0300    0.2916   32.5799 C   0  0  0  0  0  0  0  0  0  0  0  0
   11.7145    1.0226   31.7299 N   0  0  0  0  0  0  0  0  0  0  0  0
  5  6  2  0  0  0
  5  4  1  0  0  0
  6  1  1  0  0  0
  4  3  2  0  0  0
  3  2  1  0  0  0
  7  9  2  0  0  0
  1  2  2  0  0  0
  1  9  1  0  0  0
  2 11  1  0  0  0
  9  8  1  0  0  0
 11 20  1  0  0  0
 20 19  2  0  0  0
 19 16  1  0  0  0
 19 18  1  0  0  0
 16 15  2  0  0  0
 18 17  2  0  0  0
 15 14  1  0  0  0
 17 14  1  0  0  0
 14 13  2  0  0  0
  8 10  1  0  0  0
 11 12  1  0  0  0
M  END
> <minimizedAffinity>
-10.03452

$$$$
5CHK_55R_A_202


 20 21  0  0  0  0  0  0  0  0999 V2000
   11.1578   -1.1346   34.2025 C   0  0  0  0  0  0  0  0  0  0  0  0
   11.7770   -0.2096   33.3564 C   0  0  0  0  0  0  0  0  0  0  0  0
   13.1036    0.1512   33.5521 C   0  0  0  0  0  0  0  0  0  0  0  0
   13.8155   -0.4137   34.5907 C   0  0  0  0  0  0  0  0  0  0  0  0
   13.2138   -1.3473   35.4194 C   0  0  0  0  0  0  0  0  0  0  0  0
   11.8863   -1.6967   35.2384 C   0  0  0  0  0  0  0  0  0  0  0  0
    9.3821   -2.7281   34.3739 O   0  0  0  0  0  0  0  0  0  0  0  0
    8.8897   -0.7497   33.6048 O   0  0  0  0  0  0  0  0  0  0  0  0
    9.7249   -1.5691   34.0446 C   0  0  0  0  0  0  0  0  0  0  0  0
    9.1626    0.1134   33.3630 H   0  0  0  0  0  0  0  0  0  0  0  0
   11.0822    0.3942   32.3047 N   0  0  0  0  0  0  0  0  0  0  0  0
   10.1945    0.0574   32.0440 H   0  0  0  0  0  0  0  0  0  0  0  0
   10.2925    2.8992   26.5975 O   0  0  0  0  0  0  0  0  0  0  0  0
   10.5890    2.5313   27.7624 C   0  0  0  0  0  0  0  0  0  0  0  0
   11.5939    3.2817   28.5295 C   0  0  0  0  0  0  0  0  0  0  0  0
   11.9072    2.8927   29.8047 C   0  0  0  0  0  0  0  0  0  0  0  0
    9.9249    1.3698   28.3796 C   0  0  0  0  0  0  0  0  0  0  0  0
   10.2342    0.9895   29.6625 C   0  0  0  0  0  0  0  0  0  0  0  0
   11.2523    1.7317   30.4306 C   0  0  0  0  0  0  0  0  0  0  0  0
   11.6210    1.4266   31.6539 N   0  0  0  0  0  0  0  0  0  0  0  0
  5  6  2  0  0  0
  5  4  1  0  0  0
  6  1  1  0  0  0
  4  3  2  0  0  0
  3  2  1  0  0  0
  7  9  2  0  0  0
  1  2  2  0  0  0
  1  9  1  0  0  0
  2 11  1  0  0  0
  9  8  1  0  0  0
 11 20  1  0  0  0
 20 19  2  0  0  0
 19 16  1  0  0  0
 19 18  1  0  0  0
 16 15  2  0  0  0
 18 17  2  0  0  0
 15 14  1  0  0  0
 17 14  1  0  0  0
 14 13  2  0  0  0
  8 10  1  0  0  0
 11 12  1  0  0  0
M  END
> <minimizedAffinity>
-8.96690

$$$$
5CHK_55R_A_202


 20 21  0  0  0  0  0  0  0  0999 V2000
   10.9706    2.1955   28.8894 C   0  0  0  0  0  0  0  0  0  0  0  0
   11.7538    2.3592   30.0359 C   0  0  0  0  0  0  0  0  0  0  0  0
   12.7894    3.2841   30.0596 C   0  0  0  0  0  0  0  0  0  0  0  0
   13.0426    4.0497   28.9396 C   0  0  0  0  0  0  0  0  0  0  0  0
   12.2562    3.9074   27.8076 C   0  0  0  0  0  0  0  0  0  0  0  0
   11.2338    2.9741   27.7739 C   0  0  0  0  0  0  0  0  0  0  0  0
    9.8726    0.1476   29.4569 O   0  0  0  0  0  0  0  0  0  0  0  0
    8.8505    1.4903   28.0783 O   0  0  0  0  0  0  0  0  0  0  0  0
    9.8336    1.2126   28.7985 C   0  0  0  0  0  0  0  0  0  0  0  0
    8.8372    2.2913   27.5922 H   0  0  0  0  0  0  0  0  0  0  0  0
   11.5360    1.5901   31.1824 N   0  0  0  0  0  0  0  0  0  0  0  0
   10.6509    1.1915   31.3467 H   0  0  0  0  0  0  0  0  0  0  0  0
   12.5386   -2.4622   35.8777 O   0  0  0  0  0  0  0  0  0  0  0  0
   12.5063   -1.5716   34.9910 C   0  0  0  0  0  0  0  0  0  0  0  0
   13.6429   -0.6511   34.8417 C   0  0  0  0  0  0  0  0  0  0  0  0
   13.6173    0.3098   33.8662 C   0  0  0  0  0  0  0  0  0  0  0  0
   11.3527   -1.4522   34.0822 C   0  0  0  0  0  0  0  0  0  0  0  0
   11.3357   -0.4941   33.0984 C   0  0  0  0  0  0  0  0  0  0  0  0
   12.4685    0.4405   32.9543 C   0  0  0  0  0  0  0  0  0  0  0  0
   12.5268    1.3956   32.0544 N   0  0  0  0  0  0  0  0  0  0  0  0
  5  6  2  0  0  0
  5  4  1  0  0  0
  6  1  1  0  0  0
  4  3  2  0  0  0
  3  2  1  0  0  0
  7  9  2  0  0  0
  1  2  2  0  0  0
  1  9  1  0  0  0
  2 11  1  0  0  0
  9  8  1  0  0  0
 11 20  1  0  0  0
 20 19  2  0  0  0
 19 16  1  0  0  0
 19 18  1  0  0  0
 16 15  2  0  0  0
 18 17  2  0  0  0
 15 14  1  0  0  0
 17 14  1  0  0  0
 14 13  2  0  0  0
  8 10  1  0  0  0
 11 12  1  0  0  0
M  END
> <minimizedAffinity>
-8.87852

$$$$
5CHK_55R_A_202


 20 21  0  0  0  0  0  0  0  0999 V2000
   11.6297   -0.6359   34.2075 C   0  0  0  0  0  0  0  0  0  0  0  0
   10.7632   -0.4330   33.1292 C   0  0  0  0  0  0  0  0  0  0  0  0
    9.4375   -0.8404   33.2001 C   0  0  0  0  0  0  0  0  0  0  0  0
    8.9737   -1.4478   34.3493 C   0  0  0  0  0  0  0  0  0  0  0  0
    9.8220   -1.6321   35.4294 C   0  0  0  0  0  0  0  0  0  0  0  0
   11.1489   -1.2432   35.3563 C   0  0  0  0  0  0  0  0  0  0  0  0
   13.9340   -0.9132   34.7866 O   0  0  0  0  0  0  0  0  0  0  0  0
   13.4016    0.8148   33.5705 O   0  0  0  0  0  0  0  0  0  0  0  0
   13.0760   -0.2175   34.1956 C   0  0  0  0  0  0  0  0  0  0  0  0
   12.7474    1.3240   33.1338 H   0  0  0  0  0  0  0  0  0  0  0  0
   11.2025    0.1642   31.9444 N   0  0  0  0  0  0  0  0  0  0  0  0
   12.0768    0.6159   31.9159 H   0  0  0  0  0  0  0  0  0  0  0  0
   10.1887    4.0678   27.1272 O   0  0  0  0  0  0  0  0  0  0  0  0
   10.2571    3.1743   28.0089 C   0  0  0  0  0  0  0  0  0  0  0  0
    9.4644    1.9448   27.8627 C   0  0  0  0  0  0  0  0  0  0  0  0
    9.5491    0.9630   28.8136 C   0  0  0  0  0  0  0  0  0  0  0  0
   11.1404    3.3326   29.1776 C   0  0  0  0  0  0  0  0  0  0  0  0
   11.2305    2.3409   30.1234 C   0  0  0  0  0  0  0  0  0  0  0  0
   10.4260    1.1114   29.9873 C   0  0  0  0  0  0  0  0  0  0  0  0
   10.4378    0.1227   30.8520 N   0  0  0  0  0  0  0  0  0  0  0  0
  5  6  2  0  0  0
  5  4  1  0  0  0
  6  1  1  0  0  0
  4  3  2  0  0  0
  3  2  1  0  0  0
  7  9  2  0  0  0
  1  2  2  0  0  0
  1  9  1  0  0  0
  2 11  1  0  0  0
  9  8  1  0  0  0
 11 20  1  0  0  0
 20 19  2  0  0  0
 19 16  1  0  0  0
 19 18  1  0  0  0
 16 15  2  0  0  0
 18 17  2  0  0  0
 15 14  1  0  0  0
 17 14  1  0  0  0
 14 13  2  0  0  0
  8 10  1  0  0  0
 11 12  1  0  0  0
M  END
> <minimizedAffinity>
-8.64948

$$$$
5CHK_55R_A_202


 20 21  0  0  0  0  0  0  0  0999 V2000
   10.9878    2.1390   29.0376 C   0  0  0  0  0  0  0  0  0  0  0  0
   11.8092    2.2177   30.1663 C   0  0  0  0  0  0  0  0  0  0  0  0
   12.8312    3.1555   30.2339 C   0  0  0  0  0  0  0  0  0  0  0  0
   13.0324    4.0189   29.1763 C   0  0  0  0  0  0  0  0  0  0  0  0
   12.2079    3.9603   28.0641 C   0  0  0  0  0  0  0  0  0  0  0  0
   11.1990    3.0152   27.9852 C   0  0  0  0  0  0  0  0  0  0  0  0
    8.8350    1.4517   28.2536 O   0  0  0  0  0  0  0  0  0  0  0  0
    9.9860    0.0183   29.4234 O   0  0  0  0  0  0  0  0  0  0  0  0
    9.8630    1.1474   28.9015 C   0  0  0  0  0  0  0  0  0  0  0  0
   10.7615   -0.1933   29.9048 H   0  0  0  0  0  0  0  0  0  0  0  0
   11.6444    1.3491   31.2488 N   0  0  0  0  0  0  0  0  0  0  0  0
   12.3484    0.6966   31.4676 H   0  0  0  0  0  0  0  0  0  0  0  0
    8.7041   -2.6632   35.0865 O   0  0  0  0  0  0  0  0  0  0  0  0
    9.1436   -1.7415   34.3533 C   0  0  0  0  0  0  0  0  0  0  0  0
    8.4234   -0.4618   34.2816 C   0  0  0  0  0  0  0  0  0  0  0  0
    8.9087    0.5496   33.4961 C   0  0  0  0  0  0  0  0  0  0  0  0
   10.3860   -1.9181   33.5810 C   0  0  0  0  0  0  0  0  0  0  0  0
   10.8749   -0.8977   32.8028 C   0  0  0  0  0  0  0  0  0  0  0  0
   10.1475    0.3834   32.7175 C   0  0  0  0  0  0  0  0  0  0  0  0
   10.5336    1.4036   31.9857 N   0  0  0  0  0  0  0  0  0  0  0  0
  5  6  2  0  0  0
  5  4  1  0  0  0
  6  1  1  0  0  0
  4  3  2  0  0  0
  3  2  1  0  0  0
  7  9  2  0  0  0
  1  2  2  0  0  0
  1  9  1  0  0  0
  2 11  1  0  0  0
  9  8  1  0  0  0
 11 20  1  0  0  0
 20 19  2  0  0  0
 19 16  1  0  0  0
 19 18  1  0  0  0
 16 15  2  0  0  0
 18 17  2  0  0  0
 15 14  1  0  0  0
 17 14  1  0  0  0
 14 13  2  0  0  0
  8 10  1  0  0  0
 11 12  1  0  0  0
M  END
> <minimizedAffinity>
-8.55019

$$$$
5CHK_55R_A_202


 20 21  0  0  0  0  0  0  0  0999 V2000
    9.7283   -0.8308   34.1218 C   0  0  0  0  0  0  0  0  0  0  0  0
    9.5700    0.2949   33.3078 C   0  0  0  0  0  0  0  0  0  0  0  0
    8.4409    1.0956   33.4189 C   0  0  0  0  0  0  0  0  0  0  0  0
    7.4695    0.7760   34.3457 C   0  0  0  0  0  0  0  0  0  0  0  0
    7.6308   -0.3259   35.1703 C   0  0  0  0  0  0  0  0  0  0  0  0
    8.7468   -1.1369   35.0507 C   0  0  0  0  0  0  0  0  0  0  0  0
   10.7703   -2.9806   34.0021 O   0  0  0  0  0  0  0  0  0  0  0  0
   12.0692   -1.2311   34.0234 O   0  0  0  0  0  0  0  0  0  0  0  0
   10.9274   -1.7388   34.0527 C   0  0  0  0  0  0  0  0  0  0  0  0
   12.1692   -0.3003   34.0621 H   0  0  0  0  0  0  0  0  0  0  0  0
   10.5257    0.6394   32.3478 N   0  0  0  0  0  0  0  0  0  0  0  0
   11.4570    0.8075   32.6190 H   0  0  0  0  0  0  0  0  0  0  0  0
   12.7470    3.8398   27.4188 O   0  0  0  0  0  0  0  0  0  0  0  0
   12.1639    3.1389   28.2843 C   0  0  0  0  0  0  0  0  0  0  0  0
   11.0045    2.3212   27.8988 C   0  0  0  0  0  0  0  0  0  0  0  0
   10.3771    1.5445   28.8361 C   0  0  0  0  0  0  0  0  0  0  0  0
   12.6416    3.1075   29.6778 C   0  0  0  0  0  0  0  0  0  0  0  0
   12.0162    2.3190   30.6123 C   0  0  0  0  0  0  0  0  0  0  0  0
   10.8438    1.5076   30.2323 C   0  0  0  0  0  0  0  0  0  0  0  0
   10.1766    0.7406   31.0642 N   0  0  0  0  0  0  0  0  0  0  0  0
  5  6  2  0  0  0
  5  4  1  0  0  0
  6  1  1  0  0  0
  4  3  2  0  0  0
  3  2  1  0  0  0
  7  9  2  0  0  0
  1  2  2  0  0  0
  1  9  1  0  0  0
  2 11  1  0  0  0
  9  8  1  0  0  0
 11 20  1  0  0  0
 20 19  2  0  0  0
 19 16  1  0  0  0
 19 18  1  0  0  0
 16 15  2  0  0  0
 18 17  2  0  0  0
 15 14  1  0  0  0
 17 14  1  0  0  0
 14 13  2  0  0  0
  8 10  1  0  0  0
 11 12  1  0  0  0
M  END
> <minimizedAffinity>
-8.06558

$$$$
