1CIZ_DPS_A_307


 39 43  0  0  0  0  0  0  0  0999 V2000
   28.6621   49.0188    3.1414 O   0  0  0  0  0  0  0  0  0  0  0  0
   30.2016   50.6260    2.0910 O   0  0  0  0  0  0  0  0  0  0  0  0
   29.3281   49.5117    1.9694 S   0  0  0  0  0  0  0  0  0  0  0  0
   27.4606   50.2140   -1.5504 C   0  0  0  0  0  0  0  0  0  0  0  0
   28.3992   49.7641   -0.6086 C   0  0  0  0  0  0  0  0  0  0  0  0
   28.0811   49.8686    0.7605 C   0  0  0  0  0  0  0  0  0  0  0  0
   26.8130   50.3072    1.1905 C   0  0  0  0  0  0  0  0  0  0  0  0
   26.2136   50.7478   -1.1334 C   0  0  0  0  0  0  0  0  0  0  0  0
   25.8817   50.7471    0.2425 C   0  0  0  0  0  0  0  0  0  0  0  0
   25.3029   51.2121   -2.0669 N   0  0  0  0  0  0  0  0  0  0  0  0
   23.5766   52.5815   -3.9702 C   0  0  0  0  0  0  0  0  0  0  0  0
   24.8972   52.0099   -4.4605 C   0  0  0  0  0  0  0  0  0  0  0  0
   23.2993   52.7304   -2.4876 C   0  0  0  0  0  0  0  0  0  0  0  0
   23.9550   51.6408   -1.6447 C   0  0  0  0  0  0  0  0  0  0  0  0
   25.5804   51.0259   -3.5078 C   0  0  0  0  0  0  0  0  0  0  0  0
   20.9042   54.3810   -6.7858 C   0  0  0  0  0  0  0  0  0  0  0  0
   21.1613   55.0300   -5.5561 C   0  0  0  0  0  0  0  0  0  0  0  0
   22.0354   54.4234   -4.6294 C   0  0  0  0  0  0  0  0  0  0  0  0
   22.6424   53.1825   -4.9401 C   0  0  0  0  0  0  0  0  0  0  0  0
   22.3723   52.5365   -6.1702 C   0  0  0  0  0  0  0  0  0  0  0  0
   21.4983   53.1359   -7.1007 C   0  0  0  0  0  0  0  0  0  0  0  0
   30.3591   48.2223    1.4782 N   0  0  0  0  0  0  0  0  0  0  0  0
   30.4339   48.2825    0.4627 H   0  0  0  0  0  0  0  0  0  0  0  0
   30.0300   46.8266    1.7892 C   0  0  0  0  0  0  0  0  0  0  0  0
   28.6969   46.4690    1.1885 C   0  0  0  0  0  0  0  0  0  0  0  0
   28.5185   46.4277   -0.1557 O   0  0  0  0  0  0  0  0  0  0  0  0
   27.7641   46.2293    1.8828 O   0  0  0  0  0  0  0  0  0  0  0  0
   27.8564   46.2499    2.8150 H   0  0  0  0  0  0  0  0  0  0  0  0
   31.1807   45.8914    1.3450 C   0  0  0  0  0  0  0  0  0  0  0  0
   30.1019   42.3297    1.5253 N   0  0  0  0  0  0  0  0  0  0  0  0
   31.4317   41.9424    5.0560 C   0  0  0  0  0  0  0  0  0  0  0  0
   30.7896   41.5297    3.8694 C   0  0  0  0  0  0  0  0  0  0  0  0
   30.6727   42.4365    2.7905 C   0  0  0  0  0  0  0  0  0  0  0  0
   31.2122   43.7575    2.9143 C   0  0  0  0  0  0  0  0  0  0  0  0
   31.8550   44.1572    4.1104 C   0  0  0  0  0  0  0  0  0  0  0  0
   31.9667   43.2429    5.1804 C   0  0  0  0  0  0  0  0  0  0  0  0
   30.2462   43.5129    0.8700 C   0  0  0  0  0  0  0  0  0  0  0  0
   30.9153   44.4445    1.6774 C   0  0  0  0  0  0  0  0  0  0  0  0
   29.6637   41.5261    1.1627 H   0  0  0  0  0  0  0  0  0  0  0  0
 10  8  1  0  0  0
 10 14  1  0  0  0
 10 15  1  0  0  0
  4  5  2  0  0  0
  4  8  1  0  0  0
  5  6  1  0  0  0
  6  7  2  0  0  0
  6  3  1  0  0  0
  7  9  1  0  0  0
 30 33  1  0  0  0
 30 37  1  0  0  0
 24 22  1  0  0  0
 24 29  1  0  0  0
 24 25  1  0  0  0
 16 17  2  0  0  0
 16 21  1  0  0  0
 11 12  1  0  0  0
 11 13  1  0  0  0
 11 19  1  0  0  0
 17 18  1  0  0  0
  1  3  2  0  0  0
  2  3  2  0  0  0
  8  9  2  0  0  0
  3 22  1  0  0  0
 12 15  1  0  0  0
 13 14  1  0  0  0
 18 19  2  0  0  0
 19 20  1  0  0  0
 20 21  2  0  0  0
 29 38  1  0  0  0
 25 26  2  0  0  0
 25 27  1  0  0  0
 31 32  2  0  0  0
 31 36  1  0  0  0
 32 33  1  0  0  0
 33 34  2  0  0  0
 34 35  1  0  0  0
 34 38  1  0  0  0
 35 36  2  0  0  0
 37 38  2  0  0  0
 30 39  1  0  0  0
 22 23  1  0  0  0
 27 28  1  0  0  0
M  END
> <minimizedAffinity>
-13.16054

$$$$
1CIZ_DPS_A_307


 39 43  0  0  0  0  0  0  0  0999 V2000
   28.5876   49.0292    3.1753 O   0  0  0  0  0  0  0  0  0  0  0  0
   30.2156   50.4813    2.0364 O   0  0  0  0  0  0  0  0  0  0  0  0
   29.2730   49.4197    1.9761 S   0  0  0  0  0  0  0  0  0  0  0  0
   27.4535   50.2066   -1.5509 C   0  0  0  0  0  0  0  0  0  0  0  0
   28.3845   49.7430   -0.6082 C   0  0  0  0  0  0  0  0  0  0  0  0
   28.0403   49.7934    0.7577 C   0  0  0  0  0  0  0  0  0  0  0  0
   26.7560   50.1914    1.1793 C   0  0  0  0  0  0  0  0  0  0  0  0
   26.1887   50.7005   -1.1387 C   0  0  0  0  0  0  0  0  0  0  0  0
   25.8327   50.6453    0.2301 C   0  0  0  0  0  0  0  0  0  0  0  0
   25.2852   51.1787   -2.0721 N   0  0  0  0  0  0  0  0  0  0  0  0
   23.5823   52.5736   -3.9781 C   0  0  0  0  0  0  0  0  0  0  0  0
   24.8891   51.9716   -4.4690 C   0  0  0  0  0  0  0  0  0  0  0  0
   23.3127   52.7366   -2.4956 C   0  0  0  0  0  0  0  0  0  0  0  0
   23.9478   51.6380   -1.6484 C   0  0  0  0  0  0  0  0  0  0  0  0
   25.5543   50.9788   -3.5128 C   0  0  0  0  0  0  0  0  0  0  0  0
   20.9375   54.4150   -6.7926 C   0  0  0  0  0  0  0  0  0  0  0  0
   21.1492   55.0237   -5.5339 C   0  0  0  0  0  0  0  0  0  0  0  0
   22.0146   54.4032   -4.6083 C   0  0  0  0  0  0  0  0  0  0  0  0
   22.6581   53.1888   -4.9486 C   0  0  0  0  0  0  0  0  0  0  0  0
   22.4333   52.5828   -6.2079 C   0  0  0  0  0  0  0  0  0  0  0  0
   21.5684   53.1963   -7.1376 C   0  0  0  0  0  0  0  0  0  0  0  0
   30.2167   48.0448    1.5451 N   0  0  0  0  0  0  0  0  0  0  0  0
   30.1989   47.9894    0.5267 H   0  0  0  0  0  0  0  0  0  0  0  0
   29.8780   46.7059    2.0407 C   0  0  0  0  0  0  0  0  0  0  0  0
   28.6558   46.1907    1.3289 C   0  0  0  0  0  0  0  0  0  0  0  0
   28.5433   46.2653   -0.0210 O   0  0  0  0  0  0  0  0  0  0  0  0
   27.7528   45.7195    1.9389 O   0  0  0  0  0  0  0  0  0  0  0  0
   27.8014   45.6545    2.8724 H   0  0  0  0  0  0  0  0  0  0  0  0
   31.1027   45.7659    1.9288 C   0  0  0  0  0  0  0  0  0  0  0  0
   31.3958   43.3286    4.7317 N   0  0  0  0  0  0  0  0  0  0  0  0
   29.7489   40.5717    2.7140 C   0  0  0  0  0  0  0  0  0  0  0  0
   30.3791   41.1426    3.8399 C   0  0  0  0  0  0  0  0  0  0  0  0
   30.7650   42.5026    3.8054 C   0  0  0  0  0  0  0  0  0  0  0  0
   30.5059   43.2827    2.6325 C   0  0  0  0  0  0  0  0  0  0  0  0
   29.8716   42.6968    1.5109 C   0  0  0  0  0  0  0  0  0  0  0  0
   29.4898   41.3383    1.5572 C   0  0  0  0  0  0  0  0  0  0  0  0
   31.5525   44.5667    4.1907 C   0  0  0  0  0  0  0  0  0  0  0  0
   31.0335   44.6041    2.8882 C   0  0  0  0  0  0  0  0  0  0  0  0
   31.6826   43.0595    5.6342 H   0  0  0  0  0  0  0  0  0  0  0  0
 10  8  1  0  0  0
 10 14  1  0  0  0
 10 15  1  0  0  0
  4  5  2  0  0  0
  4  8  1  0  0  0
  5  6  1  0  0  0
  6  7  2  0  0  0
  6  3  1  0  0  0
  7  9  1  0  0  0
 30 33  1  0  0  0
 30 37  1  0  0  0
 24 22  1  0  0  0
 24 29  1  0  0  0
 24 25  1  0  0  0
 16 17  2  0  0  0
 16 21  1  0  0  0
 11 12  1  0  0  0
 11 13  1  0  0  0
 11 19  1  0  0  0
 17 18  1  0  0  0
  1  3  2  0  0  0
  2  3  2  0  0  0
  8  9  2  0  0  0
  3 22  1  0  0  0
 12 15  1  0  0  0
 13 14  1  0  0  0
 18 19  2  0  0  0
 19 20  1  0  0  0
 20 21  2  0  0  0
 29 38  1  0  0  0
 25 26  2  0  0  0
 25 27  1  0  0  0
 31 32  2  0  0  0
 31 36  1  0  0  0
 32 33  1  0  0  0
 33 34  2  0  0  0
 34 35  1  0  0  0
 34 38  1  0  0  0
 35 36  2  0  0  0
 37 38  2  0  0  0
 30 39  1  0  0  0
 22 23  1  0  0  0
 27 28  1  0  0  0
M  END
> <minimizedAffinity>
-13.01237

$$$$
1CIZ_DPS_A_307


 39 43  0  0  0  0  0  0  0  0999 V2000
   28.0411   47.3489    1.6350 O   0  0  0  0  0  0  0  0  0  0  0  0
   28.6025   49.4184    2.8426 O   0  0  0  0  0  0  0  0  0  0  0  0
   28.5170   48.7030    1.6178 S   0  0  0  0  0  0  0  0  0  0  0  0
   25.3996   50.6725   -0.0475 C   0  0  0  0  0  0  0  0  0  0  0  0
   26.2627   50.1124    0.9074 C   0  0  0  0  0  0  0  0  0  0  0  0
   27.5056   49.6067    0.4758 C   0  0  0  0  0  0  0  0  0  0  0  0
   27.9365   49.7515   -0.8579 C   0  0  0  0  0  0  0  0  0  0  0  0
   25.7767   50.7416   -1.4137 C   0  0  0  0  0  0  0  0  0  0  0  0
   27.0705   50.3180   -1.8007 C   0  0  0  0  0  0  0  0  0  0  0  0
   24.9103   51.2732   -2.3535 N   0  0  0  0  0  0  0  0  0  0  0  0
   23.3043   52.7694   -4.2668 C   0  0  0  0  0  0  0  0  0  0  0  0
   24.5852   52.1065   -4.7474 C   0  0  0  0  0  0  0  0  0  0  0  0
   23.0245   52.9325   -2.7861 C   0  0  0  0  0  0  0  0  0  0  0  0
   23.5926   51.7958   -1.9418 C   0  0  0  0  0  0  0  0  0  0  0  0
   25.1873   51.0728   -3.7927 C   0  0  0  0  0  0  0  0  0  0  0  0
   20.7122   54.6582   -7.0988 C   0  0  0  0  0  0  0  0  0  0  0  0
   21.3070   53.4159   -7.4189 C   0  0  0  0  0  0  0  0  0  0  0  0
   22.1690   52.8062   -6.4830 C   0  0  0  0  0  0  0  0  0  0  0  0
   22.4247   53.4391   -5.2426 C   0  0  0  0  0  0  0  0  0  0  0  0
   21.8313   54.6868   -4.9347 C   0  0  0  0  0  0  0  0  0  0  0  0
   20.9699   55.3031   -5.8659 C   0  0  0  0  0  0  0  0  0  0  0  0
   30.1509   48.5850    1.0859 N   0  0  0  0  0  0  0  0  0  0  0  0
   30.2230   49.1558    0.2437 H   0  0  0  0  0  0  0  0  0  0  0  0
   30.7516   47.2862    0.7611 C   0  0  0  0  0  0  0  0  0  0  0  0
   31.8285   47.4652   -0.2753 C   0  0  0  0  0  0  0  0  0  0  0  0
   32.9754   48.1318    0.0088 O   0  0  0  0  0  0  0  0  0  0  0  0
   31.6892   47.0376   -1.3740 O   0  0  0  0  0  0  0  0  0  0  0  0
   30.9077   46.5727   -1.6002 H   0  0  0  0  0  0  0  0  0  0  0  0
   31.2427   46.5839    2.0502 C   0  0  0  0  0  0  0  0  0  0  0  0
   29.8483   43.1608    1.5809 N   0  0  0  0  0  0  0  0  0  0  0  0
   31.3844   41.9213    4.8195 C   0  0  0  0  0  0  0  0  0  0  0  0
   30.6231   41.8244    3.6355 C   0  0  0  0  0  0  0  0  0  0  0  0
   30.5156   42.9484    2.7842 C   0  0  0  0  0  0  0  0  0  0  0  0
   31.1848   44.1662    3.1313 C   0  0  0  0  0  0  0  0  0  0  0  0
   31.9461   44.2484    4.3218 C   0  0  0  0  0  0  0  0  0  0  0  0
   32.0472   43.1194    5.1635 C   0  0  0  0  0  0  0  0  0  0  0  0
   30.0565   44.4426    1.1762 C   0  0  0  0  0  0  0  0  0  0  0  0
   30.8664   45.1241    2.0964 C   0  0  0  0  0  0  0  0  0  0  0  0
   29.3115   42.4902    1.0998 H   0  0  0  0  0  0  0  0  0  0  0  0
 10  8  1  0  0  0
 10 14  1  0  0  0
 10 15  1  0  0  0
  4  5  2  0  0  0
  4  8  1  0  0  0
  5  6  1  0  0  0
  6  7  2  0  0  0
  6  3  1  0  0  0
  7  9  1  0  0  0
 30 33  1  0  0  0
 30 37  1  0  0  0
 24 22  1  0  0  0
 24 29  1  0  0  0
 24 25  1  0  0  0
 16 17  2  0  0  0
 16 21  1  0  0  0
 11 12  1  0  0  0
 11 13  1  0  0  0
 11 19  1  0  0  0
 17 18  1  0  0  0
  1  3  2  0  0  0
  2  3  2  0  0  0
  8  9  2  0  0  0
  3 22  1  0  0  0
 12 15  1  0  0  0
 13 14  1  0  0  0
 18 19  2  0  0  0
 19 20  1  0  0  0
 20 21  2  0  0  0
 29 38  1  0  0  0
 25 26  2  0  0  0
 25 27  1  0  0  0
 31 32  2  0  0  0
 31 36  1  0  0  0
 32 33  1  0  0  0
 33 34  2  0  0  0
 34 35  1  0  0  0
 34 38  1  0  0  0
 35 36  2  0  0  0
 37 38  2  0  0  0
 30 39  1  0  0  0
 22 23  1  0  0  0
 27 28  1  0  0  0
M  END
> <minimizedAffinity>
-12.63134

$$$$
1CIZ_DPS_A_307


 39 43  0  0  0  0  0  0  0  0999 V2000
   28.3441   47.8240    1.3378 O   0  0  0  0  0  0  0  0  0  0  0  0
   27.2653   49.3241    2.9632 O   0  0  0  0  0  0  0  0  0  0  0  0
   27.9276   49.1437    1.7190 S   0  0  0  0  0  0  0  0  0  0  0  0
   26.6877   50.5188   -1.8784 C   0  0  0  0  0  0  0  0  0  0  0  0
   27.4377   49.8578   -0.8930 C   0  0  0  0  0  0  0  0  0  0  0  0
   26.9112   49.7780    0.4120 C   0  0  0  0  0  0  0  0  0  0  0  0
   25.6166   50.2456    0.7136 C   0  0  0  0  0  0  0  0  0  0  0  0
   25.4214   51.0804   -1.5709 C   0  0  0  0  0  0  0  0  0  0  0  0
   24.8744   50.8971   -0.2784 C   0  0  0  0  0  0  0  0  0  0  0  0
   24.6984   51.7520   -2.5417 N   0  0  0  0  0  0  0  0  0  0  0  0
   22.9595   52.7857   -4.6361 C   0  0  0  0  0  0  0  0  0  0  0  0
   22.4926   52.8668   -3.1916 C   0  0  0  0  0  0  0  0  0  0  0  0
   24.1351   51.9106   -5.0226 C   0  0  0  0  0  0  0  0  0  0  0  0
   25.1959   51.8181   -3.9299 C   0  0  0  0  0  0  0  0  0  0  0  0
   23.5757   52.6260   -2.1373 C   0  0  0  0  0  0  0  0  0  0  0  0
   20.5482   54.5126   -7.7200 C   0  0  0  0  0  0  0  0  0  0  0  0
   21.2290   53.2978   -7.9656 C   0  0  0  0  0  0  0  0  0  0  0  0
   22.0306   52.7418   -6.9463 C   0  0  0  0  0  0  0  0  0  0  0  0
   22.1412   53.4002   -5.6977 C   0  0  0  0  0  0  0  0  0  0  0  0
   21.4626   54.6202   -5.4641 C   0  0  0  0  0  0  0  0  0  0  0  0
   20.6609   55.1828   -6.4789 C   0  0  0  0  0  0  0  0  0  0  0  0
   29.3934   50.0315    1.8915 N   0  0  0  0  0  0  0  0  0  0  0  0
   29.1468   51.0172    1.8021 H   0  0  0  0  0  0  0  0  0  0  0  0
   30.5295   49.8035    0.9912 C   0  0  0  0  0  0  0  0  0  0  0  0
   31.0650   51.1213    0.4990 C   0  0  0  0  0  0  0  0  0  0  0  0
   31.0322   51.4473   -0.8175 O   0  0  0  0  0  0  0  0  0  0  0  0
   31.5441   51.9012    1.2551 O   0  0  0  0  0  0  0  0  0  0  0  0
   31.5811   51.7042    2.1704 H   0  0  0  0  0  0  0  0  0  0  0  0
   31.5957   48.9213    1.6846 C   0  0  0  0  0  0  0  0  0  0  0  0
   32.2551   46.1088   -0.6687 N   0  0  0  0  0  0  0  0  0  0  0  0
   30.9972   43.5310    1.8126 C   0  0  0  0  0  0  0  0  0  0  0  0
   31.5184   43.9884    0.5838 C   0  0  0  0  0  0  0  0  0  0  0  0
   31.7637   45.3694    0.4036 C   0  0  0  0  0  0  0  0  0  0  0  0
   31.4861   46.2831    1.4712 C   0  0  0  0  0  0  0  0  0  0  0  0
   30.9646   45.8096    2.6990 C   0  0  0  0  0  0  0  0  0  0  0  0
   30.7248   44.4286    2.8677 C   0  0  0  0  0  0  0  0  0  0  0  0
   32.2817   47.4252   -0.3273 C   0  0  0  0  0  0  0  0  0  0  0  0
   31.8080   47.6044    0.9806 C   0  0  0  0  0  0  0  0  0  0  0  0
   32.5381   45.7381   -1.5357 H   0  0  0  0  0  0  0  0  0  0  0  0
 10  8  1  0  0  0
 10 14  1  0  0  0
 10 15  1  0  0  0
  4  5  2  0  0  0
  4  8  1  0  0  0
  5  6  1  0  0  0
  6  7  2  0  0  0
  6  3  1  0  0  0
  7  9  1  0  0  0
 30 33  1  0  0  0
 30 37  1  0  0  0
 24 22  1  0  0  0
 24 29  1  0  0  0
 24 25  1  0  0  0
 16 17  2  0  0  0
 16 21  1  0  0  0
 11 12  1  0  0  0
 11 13  1  0  0  0
 11 19  1  0  0  0
 17 18  1  0  0  0
  1  3  2  0  0  0
  2  3  2  0  0  0
  8  9  2  0  0  0
  3 22  1  0  0  0
 12 15  1  0  0  0
 13 14  1  0  0  0
 18 19  2  0  0  0
 19 20  1  0  0  0
 20 21  2  0  0  0
 29 38  1  0  0  0
 25 26  2  0  0  0
 25 27  1  0  0  0
 31 32  2  0  0  0
 31 36  1  0  0  0
 32 33  1  0  0  0
 33 34  2  0  0  0
 34 35  1  0  0  0
 34 38  1  0  0  0
 35 36  2  0  0  0
 37 38  2  0  0  0
 30 39  1  0  0  0
 22 23  1  0  0  0
 27 28  1  0  0  0
M  END
> <minimizedAffinity>
-12.44880

$$$$
1CIZ_DPS_A_307


 39 43  0  0  0  0  0  0  0  0999 V2000
   28.3712   49.2717    3.2107 O   0  0  0  0  0  0  0  0  0  0  0  0
   30.0942   50.4889    1.9434 O   0  0  0  0  0  0  0  0  0  0  0  0
   29.0702   49.5043    1.9788 S   0  0  0  0  0  0  0  0  0  0  0  0
   27.3019   50.2656   -1.5798 C   0  0  0  0  0  0  0  0  0  0  0  0
   28.2182   49.8073   -0.6202 C   0  0  0  0  0  0  0  0  0  0  0  0
   27.8557   49.8714    0.7403 C   0  0  0  0  0  0  0  0  0  0  0  0
   26.5672   50.2777    1.1406 C   0  0  0  0  0  0  0  0  0  0  0  0
   26.0334   50.7678   -1.1894 C   0  0  0  0  0  0  0  0  0  0  0  0
   25.6586   50.7263    0.1748 C   0  0  0  0  0  0  0  0  0  0  0  0
   25.1445   51.2406   -2.1394 N   0  0  0  0  0  0  0  0  0  0  0  0
   23.4787   52.6222   -4.0874 C   0  0  0  0  0  0  0  0  0  0  0  0
   24.7781   51.9873   -4.5558 C   0  0  0  0  0  0  0  0  0  0  0  0
   23.2020   52.8223   -2.6107 C   0  0  0  0  0  0  0  0  0  0  0  0
   23.8125   51.7320   -1.7353 C   0  0  0  0  0  0  0  0  0  0  0  0
   25.4198   51.0045   -3.5734 C   0  0  0  0  0  0  0  0  0  0  0  0
   20.8830   54.4472   -6.9578 C   0  0  0  0  0  0  0  0  0  0  0  0
   21.0546   55.0506   -5.6905 C   0  0  0  0  0  0  0  0  0  0  0  0
   21.9040   54.4355   -4.7466 C   0  0  0  0  0  0  0  0  0  0  0  0
   22.5717   53.2316   -5.0776 C   0  0  0  0  0  0  0  0  0  0  0  0
   22.3870   52.6306   -6.3458 C   0  0  0  0  0  0  0  0  0  0  0  0
   21.5382   53.2389   -7.2937 C   0  0  0  0  0  0  0  0  0  0  0  0
   29.8971   48.0274    1.6603 N   0  0  0  0  0  0  0  0  0  0  0  0
   30.5112   47.8619    2.4577 H   0  0  0  0  0  0  0  0  0  0  0  0
   30.7225   47.8634    0.4583 C   0  0  0  0  0  0  0  0  0  0  0  0
   32.1767   47.7961    0.8412 C   0  0  0  0  0  0  0  0  0  0  0  0
   32.9756   46.7927    0.3993 O   0  0  0  0  0  0  0  0  0  0  0  0
   32.6540   48.6162    1.5548 O   0  0  0  0  0  0  0  0  0  0  0  0
   32.1273   49.3214    1.8761 H   0  0  0  0  0  0  0  0  0  0  0  0
   30.2406   46.6424   -0.3620 C   0  0  0  0  0  0  0  0  0  0  0  0
   27.4965   45.1308    1.6549 N   0  0  0  0  0  0  0  0  0  0  0  0
   29.3433   41.8347    1.9854 C   0  0  0  0  0  0  0  0  0  0  0  0
   28.2872   42.7460    2.1979 C   0  0  0  0  0  0  0  0  0  0  0  0
   28.3553   44.0357    1.6217 C   0  0  0  0  0  0  0  0  0  0  0  0
   29.4904   44.3969    0.8265 C   0  0  0  0  0  0  0  0  0  0  0  0
   30.5419   43.4718    0.6208 C   0  0  0  0  0  0  0  0  0  0  0  0
   30.4624   42.1867    1.2001 C   0  0  0  0  0  0  0  0  0  0  0  0
   28.0448   46.1489    0.9386 C   0  0  0  0  0  0  0  0  0  0  0  0
   29.2851   45.7653    0.4078 C   0  0  0  0  0  0  0  0  0  0  0  0
   26.6306   45.1633    2.1222 H   0  0  0  0  0  0  0  0  0  0  0  0
 10  8  1  0  0  0
 10 14  1  0  0  0
 10 15  1  0  0  0
  4  5  2  0  0  0
  4  8  1  0  0  0
  5  6  1  0  0  0
  6  7  2  0  0  0
  6  3  1  0  0  0
  7  9  1  0  0  0
 30 33  1  0  0  0
 30 37  1  0  0  0
 24 22  1  0  0  0
 24 29  1  0  0  0
 24 25  1  0  0  0
 16 17  2  0  0  0
 16 21  1  0  0  0
 11 12  1  0  0  0
 11 13  1  0  0  0
 11 19  1  0  0  0
 17 18  1  0  0  0
  1  3  2  0  0  0
  2  3  2  0  0  0
  8  9  2  0  0  0
  3 22  1  0  0  0
 12 15  1  0  0  0
 13 14  1  0  0  0
 18 19  2  0  0  0
 19 20  1  0  0  0
 20 21  2  0  0  0
 29 38  1  0  0  0
 25 26  2  0  0  0
 25 27  1  0  0  0
 31 32  2  0  0  0
 31 36  1  0  0  0
 32 33  1  0  0  0
 33 34  2  0  0  0
 34 35  1  0  0  0
 34 38  1  0  0  0
 35 36  2  0  0  0
 37 38  2  0  0  0
 30 39  1  0  0  0
 22 23  1  0  0  0
 27 28  1  0  0  0
M  END
> <minimizedAffinity>
-12.18193

$$$$
1CIZ_DPS_A_307


 39 43  0  0  0  0  0  0  0  0999 V2000
   27.4212   48.9348    2.5402 O   0  0  0  0  0  0  0  0  0  0  0  0
   29.3259   50.0831    1.4866 O   0  0  0  0  0  0  0  0  0  0  0  0
   28.2044   49.2181    1.3712 S   0  0  0  0  0  0  0  0  0  0  0  0
   26.6910   50.4616   -2.1690 C   0  0  0  0  0  0  0  0  0  0  0  0
   27.4946   49.8090   -1.2210 C   0  0  0  0  0  0  0  0  0  0  0  0
   27.1015   49.8439    0.1320 C   0  0  0  0  0  0  0  0  0  0  0  0
   25.8775   50.4186    0.5286 C   0  0  0  0  0  0  0  0  0  0  0  0
   25.5017   51.1283   -1.7755 C   0  0  0  0  0  0  0  0  0  0  0  0
   25.0802   51.0608   -0.4261 C   0  0  0  0  0  0  0  0  0  0  0  0
   24.7270   51.7905   -2.7124 N   0  0  0  0  0  0  0  0  0  0  0  0
   22.8891   52.7987   -4.7333 C   0  0  0  0  0  0  0  0  0  0  0  0
   22.4684   52.8464   -3.2732 C   0  0  0  0  0  0  0  0  0  0  0  0
   24.0768   51.9649   -5.1708 C   0  0  0  0  0  0  0  0  0  0  0  0
   25.1758   51.8901   -4.1151 C   0  0  0  0  0  0  0  0  0  0  0  0
   23.5928   52.6246   -2.2588 C   0  0  0  0  0  0  0  0  0  0  0  0
   20.4001   54.6050   -7.7080 C   0  0  0  0  0  0  0  0  0  0  0  0
   20.5958   55.2613   -6.4709 C   0  0  0  0  0  0  0  0  0  0  0  0
   21.4094   54.6525   -5.4920 C   0  0  0  0  0  0  0  0  0  0  0  0
   22.0179   53.4022   -5.7586 C   0  0  0  0  0  0  0  0  0  0  0  0
   21.8093   52.7490   -6.9968 C   0  0  0  0  0  0  0  0  0  0  0  0
   20.9959   53.3506   -7.9794 C   0  0  0  0  0  0  0  0  0  0  0  0
   28.8886   47.7014    0.9258 N   0  0  0  0  0  0  0  0  0  0  0  0
   28.1899   47.2253    0.3553 H   0  0  0  0  0  0  0  0  0  0  0  0
   29.3233   46.7368    1.9425 C   0  0  0  0  0  0  0  0  0  0  0  0
   28.6325   45.4173    1.7247 C   0  0  0  0  0  0  0  0  0  0  0  0
   29.2702   44.3785    1.1293 O   0  0  0  0  0  0  0  0  0  0  0  0
   27.5035   45.2622    2.0575 O   0  0  0  0  0  0  0  0  0  0  0  0
   27.0367   45.9614    2.4712 H   0  0  0  0  0  0  0  0  0  0  0  0
   30.8676   46.6326    1.9587 C   0  0  0  0  0  0  0  0  0  0  0  0
   32.2438   47.4034   -1.4168 N   0  0  0  0  0  0  0  0  0  0  0  0
   34.0160   50.5108   -0.1570 C   0  0  0  0  0  0  0  0  0  0  0  0
   33.6303   49.5463   -1.1118 C   0  0  0  0  0  0  0  0  0  0  0  0
   32.7799   48.4852   -0.7237 C   0  0  0  0  0  0  0  0  0  0  0  0
   32.3174   48.4072    0.6296 C   0  0  0  0  0  0  0  0  0  0  0  0
   32.7116   49.3827    1.5764 C   0  0  0  0  0  0  0  0  0  0  0  0
   33.5600   50.4382    1.1771 C   0  0  0  0  0  0  0  0  0  0  0  0
   31.4907   46.6572   -0.5647 C   0  0  0  0  0  0  0  0  0  0  0  0
   31.5028   47.2164    0.7216 C   0  0  0  0  0  0  0  0  0  0  0  0
   32.3868   47.2095   -2.3714 H   0  0  0  0  0  0  0  0  0  0  0  0
 10  8  1  0  0  0
 10 14  1  0  0  0
 10 15  1  0  0  0
  4  5  2  0  0  0
  4  8  1  0  0  0
  5  6  1  0  0  0
  6  7  2  0  0  0
  6  3  1  0  0  0
  7  9  1  0  0  0
 30 33  1  0  0  0
 30 37  1  0  0  0
 24 22  1  0  0  0
 24 29  1  0  0  0
 24 25  1  0  0  0
 16 17  2  0  0  0
 16 21  1  0  0  0
 11 12  1  0  0  0
 11 13  1  0  0  0
 11 19  1  0  0  0
 17 18  1  0  0  0
  1  3  2  0  0  0
  2  3  2  0  0  0
  8  9  2  0  0  0
  3 22  1  0  0  0
 12 15  1  0  0  0
 13 14  1  0  0  0
 18 19  2  0  0  0
 19 20  1  0  0  0
 20 21  2  0  0  0
 29 38  1  0  0  0
 25 26  2  0  0  0
 25 27  1  0  0  0
 31 32  2  0  0  0
 31 36  1  0  0  0
 32 33  1  0  0  0
 33 34  2  0  0  0
 34 35  1  0  0  0
 34 38  1  0  0  0
 35 36  2  0  0  0
 37 38  2  0  0  0
 30 39  1  0  0  0
 22 23  1  0  0  0
 27 28  1  0  0  0
M  END
> <minimizedAffinity>
-12.04014

$$$$
1CIZ_DPS_A_307


 39 43  0  0  0  0  0  0  0  0999 V2000
   23.5835   52.7798   -1.0184 O   0  0  0  0  0  0  0  0  0  0  0  0
   23.3145   50.9258   -2.6142 O   0  0  0  0  0  0  0  0  0  0  0  0
   24.1630   51.8468   -1.9425 S   0  0  0  0  0  0  0  0  0  0  0  0
   27.4747   49.6701   -1.1274 C   0  0  0  0  0  0  0  0  0  0  0  0
   26.5668   50.5170   -1.7824 C   0  0  0  0  0  0  0  0  0  0  0  0
   25.4297   50.9587   -1.0764 C   0  0  0  0  0  0  0  0  0  0  0  0
   25.2483   50.6596    0.2886 C   0  0  0  0  0  0  0  0  0  0  0  0
   27.2599   49.2802    0.2200 C   0  0  0  0  0  0  0  0  0  0  0  0
   26.1635   49.8198    0.9341 C   0  0  0  0  0  0  0  0  0  0  0  0
   28.1467   48.4253    0.8518 N   0  0  0  0  0  0  0  0  0  0  0  0
   30.2695   46.6881    1.8287 C   0  0  0  0  0  0  0  0  0  0  0  0
   30.3354   48.1733    2.1467 C   0  0  0  0  0  0  0  0  0  0  0  0
   29.3190   46.1634    0.7711 C   0  0  0  0  0  0  0  0  0  0  0  0
   28.0234   46.9641    0.6819 C   0  0  0  0  0  0  0  0  0  0  0  0
   29.0418   48.9544    1.9038 C   0  0  0  0  0  0  0  0  0  0  0  0
   33.1518   43.9956    3.4870 C   0  0  0  0  0  0  0  0  0  0  0  0
   31.8373   44.0166    4.0077 C   0  0  0  0  0  0  0  0  0  0  0  0
   30.8969   44.9157    3.4617 C   0  0  0  0  0  0  0  0  0  0  0  0
   31.2767   45.7783    2.4051 C   0  0  0  0  0  0  0  0  0  0  0  0
   32.5973   45.7559    1.8962 C   0  0  0  0  0  0  0  0  0  0  0  0
   33.5431   44.8610    2.4381 C   0  0  0  0  0  0  0  0  0  0  0  0
   24.8040   52.8253   -3.2067 N   0  0  0  0  0  0  0  0  0  0  0  0
   24.6638   53.7946   -2.9217 H   0  0  0  0  0  0  0  0  0  0  0  0
   24.2988   52.7181   -4.5802 C   0  0  0  0  0  0  0  0  0  0  0  0
   25.0093   51.6042   -5.3014 C   0  0  0  0  0  0  0  0  0  0  0  0
   25.5379   51.7898   -6.5369 O   0  0  0  0  0  0  0  0  0  0  0  0
   25.1090   50.5292   -4.8075 O   0  0  0  0  0  0  0  0  0  0  0  0
   24.7538   50.3705   -3.9551 H   0  0  0  0  0  0  0  0  0  0  0  0
   22.7581   52.5701   -4.5759 C   0  0  0  0  0  0  0  0  0  0  0  0
   21.1534   55.7616   -5.6350 N   0  0  0  0  0  0  0  0  0  0  0  0
   19.7322   54.1859   -8.7785 C   0  0  0  0  0  0  0  0  0  0  0  0
   19.9609   55.2207   -7.8470 C   0  0  0  0  0  0  0  0  0  0  0  0
   20.7611   54.9673   -6.7090 C   0  0  0  0  0  0  0  0  0  0  0  0
   21.3329   53.6677   -6.5205 C   0  0  0  0  0  0  0  0  0  0  0  0
   21.0959   52.6395   -7.4641 C   0  0  0  0  0  0  0  0  0  0  0  0
   20.2962   52.9045   -8.5971 C   0  0  0  0  0  0  0  0  0  0  0  0
   21.9207   55.0215   -4.7903 C   0  0  0  0  0  0  0  0  0  0  0  0
   22.0622   53.7122   -5.2731 C   0  0  0  0  0  0  0  0  0  0  0  0
   20.9137   56.7079   -5.5074 H   0  0  0  0  0  0  0  0  0  0  0  0
 10  8  1  0  0  0
 10 14  1  0  0  0
 10 15  1  0  0  0
  4  5  2  0  0  0
  4  8  1  0  0  0
  5  6  1  0  0  0
  6  7  2  0  0  0
  6  3  1  0  0  0
  7  9  1  0  0  0
 30 33  1  0  0  0
 30 37  1  0  0  0
 24 22  1  0  0  0
 24 29  1  0  0  0
 24 25  1  0  0  0
 16 17  2  0  0  0
 16 21  1  0  0  0
 11 12  1  0  0  0
 11 13  1  0  0  0
 11 19  1  0  0  0
 17 18  1  0  0  0
  1  3  2  0  0  0
  2  3  2  0  0  0
  8  9  2  0  0  0
  3 22  1  0  0  0
 12 15  1  0  0  0
 13 14  1  0  0  0
 18 19  2  0  0  0
 19 20  1  0  0  0
 20 21  2  0  0  0
 29 38  1  0  0  0
 25 26  2  0  0  0
 25 27  1  0  0  0
 31 32  2  0  0  0
 31 36  1  0  0  0
 32 33  1  0  0  0
 33 34  2  0  0  0
 34 35  1  0  0  0
 34 38  1  0  0  0
 35 36  2  0  0  0
 37 38  2  0  0  0
 30 39  1  0  0  0
 22 23  1  0  0  0
 27 28  1  0  0  0
M  END
> <minimizedAffinity>
-11.65902

$$$$
1CIZ_DPS_A_307


 39 43  0  0  0  0  0  0  0  0999 V2000
   30.2965   50.6557   -0.7893 O   0  0  0  0  0  0  0  0  0  0  0  0
   30.6694   50.9849    1.6208 O   0  0  0  0  0  0  0  0  0  0  0  0
   29.9543   50.3488    0.5704 S   0  0  0  0  0  0  0  0  0  0  0  0
   29.4482   46.3723    0.0220 C   0  0  0  0  0  0  0  0  0  0  0  0
   29.5064   47.7529   -0.2251 C   0  0  0  0  0  0  0  0  0  0  0  0
   30.0652   48.5896    0.7619 C   0  0  0  0  0  0  0  0  0  0  0  0
   30.6575   48.0612    1.9261 C   0  0  0  0  0  0  0  0  0  0  0  0
   29.9543   45.8302    1.2318 C   0  0  0  0  0  0  0  0  0  0  0  0
   30.6000   46.6822    2.1594 C   0  0  0  0  0  0  0  0  0  0  0  0
   29.8714   44.4707    1.4790 N   0  0  0  0  0  0  0  0  0  0  0  0
   29.5340   41.7263    2.3917 C   0  0  0  0  0  0  0  0  0  0  0  0
   28.3702   42.4140    1.6961 C   0  0  0  0  0  0  0  0  0  0  0  0
   30.7203   42.5263    2.8917 C   0  0  0  0  0  0  0  0  0  0  0  0
   31.0335   43.7388    2.0202 C   0  0  0  0  0  0  0  0  0  0  0  0
   28.7204   43.7052    0.9527 C   0  0  0  0  0  0  0  0  0  0  0  0
   29.1663   37.6177    3.5281 C   0  0  0  0  0  0  0  0  0  0  0  0
   29.8427   38.5192    4.3822 C   0  0  0  0  0  0  0  0  0  0  0  0
   29.9685   39.8697    3.9936 C   0  0  0  0  0  0  0  0  0  0  0  0
   29.4180   40.3041    2.7636 C   0  0  0  0  0  0  0  0  0  0  0  0
   28.7500   39.3925    1.9115 C   0  0  0  0  0  0  0  0  0  0  0  0
   28.6219   38.0406    2.2924 C   0  0  0  0  0  0  0  0  0  0  0  0
   28.3405   50.9220    0.7546 N   0  0  0  0  0  0  0  0  0  0  0  0
   28.3377   51.5172    1.5829 H   0  0  0  0  0  0  0  0  0  0  0  0
   27.2170   49.9907    0.9077 C   0  0  0  0  0  0  0  0  0  0  0  0
   27.0804   49.5862    2.3511 C   0  0  0  0  0  0  0  0  0  0  0  0
   26.5386   50.4252    3.2693 O   0  0  0  0  0  0  0  0  0  0  0  0
   27.4602   48.5241    2.7214 O   0  0  0  0  0  0  0  0  0  0  0  0
   27.8390   47.9230    2.1106 H   0  0  0  0  0  0  0  0  0  0  0  0
   25.9266   50.6028    0.3108 C   0  0  0  0  0  0  0  0  0  0  0  0
   26.7328   50.5305   -3.3261 N   0  0  0  0  0  0  0  0  0  0  0  0
   23.6459   52.5487   -4.2103 C   0  0  0  0  0  0  0  0  0  0  0  0
   24.8471   51.8542   -4.4661 C   0  0  0  0  0  0  0  0  0  0  0  0
   25.5475   51.2578   -3.3921 C   0  0  0  0  0  0  0  0  0  0  0  0
   25.0260   51.3611   -2.0622 C   0  0  0  0  0  0  0  0  0  0  0  0
   23.8189   52.0600   -1.8208 C   0  0  0  0  0  0  0  0  0  0  0  0
   23.1277   52.6505   -2.9011 C   0  0  0  0  0  0  0  0  0  0  0  0
   26.9774   50.1937   -2.0312 C   0  0  0  0  0  0  0  0  0  0  0  0
   25.9653   50.6867   -1.1946 C   0  0  0  0  0  0  0  0  0  0  0  0
   27.3029   50.2973   -4.0941 H   0  0  0  0  0  0  0  0  0  0  0  0
 10  8  1  0  0  0
 10 14  1  0  0  0
 10 15  1  0  0  0
  4  5  2  0  0  0
  4  8  1  0  0  0
  5  6  1  0  0  0
  6  7  2  0  0  0
  6  3  1  0  0  0
  7  9  1  0  0  0
 30 33  1  0  0  0
 30 37  1  0  0  0
 24 22  1  0  0  0
 24 29  1  0  0  0
 24 25  1  0  0  0
 16 17  2  0  0  0
 16 21  1  0  0  0
 11 12  1  0  0  0
 11 13  1  0  0  0
 11 19  1  0  0  0
 17 18  1  0  0  0
  1  3  2  0  0  0
  2  3  2  0  0  0
  8  9  2  0  0  0
  3 22  1  0  0  0
 12 15  1  0  0  0
 13 14  1  0  0  0
 18 19  2  0  0  0
 19 20  1  0  0  0
 20 21  2  0  0  0
 29 38  1  0  0  0
 25 26  2  0  0  0
 25 27  1  0  0  0
 31 32  2  0  0  0
 31 36  1  0  0  0
 32 33  1  0  0  0
 33 34  2  0  0  0
 34 35  1  0  0  0
 34 38  1  0  0  0
 35 36  2  0  0  0
 37 38  2  0  0  0
 30 39  1  0  0  0
 22 23  1  0  0  0
 27 28  1  0  0  0
M  END
> <minimizedAffinity>
-11.54723

$$$$
1CIZ_DPS_A_307


 39 43  0  0  0  0  0  0  0  0999 V2000
   29.5787   47.9806    1.3264 O   0  0  0  0  0  0  0  0  0  0  0  0
   28.2701   49.0089    3.1393 O   0  0  0  0  0  0  0  0  0  0  0  0
   29.0010   49.1485    1.9287 S   0  0  0  0  0  0  0  0  0  0  0  0
   25.9706   51.1524    0.1480 C   0  0  0  0  0  0  0  0  0  0  0  0
   26.8686   50.6898    1.1227 C   0  0  0  0  0  0  0  0  0  0  0  0
   27.9766   49.9243    0.7070 C   0  0  0  0  0  0  0  0  0  0  0  0
   28.2548   49.7124   -0.6580 C   0  0  0  0  0  0  0  0  0  0  0  0
   26.1824   50.8685   -1.2261 C   0  0  0  0  0  0  0  0  0  0  0  0
   27.3563   50.1841   -1.6222 C   0  0  0  0  0  0  0  0  0  0  0  0
   25.2796   51.3072   -2.1794 N   0  0  0  0  0  0  0  0  0  0  0  0
   23.5565   52.6285   -4.1193 C   0  0  0  0  0  0  0  0  0  0  0  0
   24.9047   52.0985   -4.5803 C   0  0  0  0  0  0  0  0  0  0  0  0
   23.2409   52.7651   -2.6432 C   0  0  0  0  0  0  0  0  0  0  0  0
   23.9100   51.6938   -1.7874 C   0  0  0  0  0  0  0  0  0  0  0  0
   25.5955   51.1333   -3.6139 C   0  0  0  0  0  0  0  0  0  0  0  0
   20.8237   54.2390   -6.9909 C   0  0  0  0  0  0  0  0  0  0  0  0
   21.5117   53.0381   -7.2807 C   0  0  0  0  0  0  0  0  0  0  0  0
   22.4191   52.5207   -6.3322 C   0  0  0  0  0  0  0  0  0  0  0  0
   22.6269   53.2033   -5.1093 C   0  0  0  0  0  0  0  0  0  0  0  0
   21.9399   54.4093   -4.8317 C   0  0  0  0  0  0  0  0  0  0  0  0
   21.0326   54.9334   -5.7758 C   0  0  0  0  0  0  0  0  0  0  0  0
   30.3493   50.1281    2.3632 N   0  0  0  0  0  0  0  0  0  0  0  0
   29.9673   50.9983    2.7336 H   0  0  0  0  0  0  0  0  0  0  0  0
   31.3631   50.5071    1.3723 C   0  0  0  0  0  0  0  0  0  0  0  0
   31.8206   49.2885    0.6164 C   0  0  0  0  0  0  0  0  0  0  0  0
   32.5876   48.3392    1.2088 O   0  0  0  0  0  0  0  0  0  0  0  0
   31.5308   49.1393   -0.5252 O   0  0  0  0  0  0  0  0  0  0  0  0
   31.0021   49.7781   -0.9617 H   0  0  0  0  0  0  0  0  0  0  0  0
   30.8269   51.6370    0.4604 C   0  0  0  0  0  0  0  0  0  0  0  0
   32.4268   54.9815    0.8309 N   0  0  0  0  0  0  0  0  0  0  0  0
   35.2635   54.0578   -1.5108 C   0  0  0  0  0  0  0  0  0  0  0  0
   34.5213   54.9010   -0.6571 C   0  0  0  0  0  0  0  0  0  0  0  0
   33.3515   54.4056   -0.0358 C   0  0  0  0  0  0  0  0  0  0  0  0
   32.9399   53.0549   -0.2762 C   0  0  0  0  0  0  0  0  0  0  0  0
   33.6952   52.2201   -1.1342 C   0  0  0  0  0  0  0  0  0  0  0  0
   34.8619   52.7253   -1.7480 C   0  0  0  0  0  0  0  0  0  0  0  0
   31.4629   54.0680    1.1253 C   0  0  0  0  0  0  0  0  0  0  0  0
   31.7137   52.8570    0.4637 C   0  0  0  0  0  0  0  0  0  0  0  0
   32.4645   55.9029    1.1757 H   0  0  0  0  0  0  0  0  0  0  0  0
 10  8  1  0  0  0
 10 14  1  0  0  0
 10 15  1  0  0  0
  4  5  2  0  0  0
  4  8  1  0  0  0
  5  6  1  0  0  0
  6  7  2  0  0  0
  6  3  1  0  0  0
  7  9  1  0  0  0
 30 33  1  0  0  0
 30 37  1  0  0  0
 24 22  1  0  0  0
 24 29  1  0  0  0
 24 25  1  0  0  0
 16 17  2  0  0  0
 16 21  1  0  0  0
 11 12  1  0  0  0
 11 13  1  0  0  0
 11 19  1  0  0  0
 17 18  1  0  0  0
  1  3  2  0  0  0
  2  3  2  0  0  0
  8  9  2  0  0  0
  3 22  1  0  0  0
 12 15  1  0  0  0
 13 14  1  0  0  0
 18 19  2  0  0  0
 19 20  1  0  0  0
 20 21  2  0  0  0
 29 38  1  0  0  0
 25 26  2  0  0  0
 25 27  1  0  0  0
 31 32  2  0  0  0
 31 36  1  0  0  0
 32 33  1  0  0  0
 33 34  2  0  0  0
 34 35  1  0  0  0
 34 38  1  0  0  0
 35 36  2  0  0  0
 37 38  2  0  0  0
 30 39  1  0  0  0
 22 23  1  0  0  0
 27 28  1  0  0  0
M  END
> <minimizedAffinity>
-11.27105

$$$$
1CIZ_DPS_A_307


 39 43  0  0  0  0  0  0  0  0999 V2000
   28.2715   48.7837    3.0255 O   0  0  0  0  0  0  0  0  0  0  0  0
   30.2210   50.0047    2.1509 O   0  0  0  0  0  0  0  0  0  0  0  0
   29.0909   49.1765    1.9143 S   0  0  0  0  0  0  0  0  0  0  0  0
   25.9499   51.0607    0.1956 C   0  0  0  0  0  0  0  0  0  0  0  0
   26.8636   50.6052    1.1590 C   0  0  0  0  0  0  0  0  0  0  0  0
   28.0320   49.9498    0.7209 C   0  0  0  0  0  0  0  0  0  0  0  0
   28.3473   49.8438   -0.6484 C   0  0  0  0  0  0  0  0  0  0  0  0
   26.2046   50.8787   -1.1885 C   0  0  0  0  0  0  0  0  0  0  0  0
   27.4323   50.3076   -1.6008 C   0  0  0  0  0  0  0  0  0  0  0  0
   25.2875   51.3087   -2.1320 N   0  0  0  0  0  0  0  0  0  0  0  0
   23.5505   52.6072   -4.0750 C   0  0  0  0  0  0  0  0  0  0  0  0
   24.8629   52.0072   -4.5533 C   0  0  0  0  0  0  0  0  0  0  0  0
   23.2886   52.8203   -2.5975 C   0  0  0  0  0  0  0  0  0  0  0  0
   23.9463   51.7632   -1.7155 C   0  0  0  0  0  0  0  0  0  0  0  0
   25.5497   51.0602   -3.5664 C   0  0  0  0  0  0  0  0  0  0  0  0
   20.7866   54.1904   -6.9318 C   0  0  0  0  0  0  0  0  0  0  0  0
   21.4572   52.9768   -7.2094 C   0  0  0  0  0  0  0  0  0  0  0  0
   22.3750   52.4684   -6.2662 C   0  0  0  0  0  0  0  0  0  0  0  0
   22.6104   53.1725   -5.0605 C   0  0  0  0  0  0  0  0  0  0  0  0
   21.9405   54.3908   -4.7953 C   0  0  0  0  0  0  0  0  0  0  0  0
   21.0230   54.9060   -5.7342 C   0  0  0  0  0  0  0  0  0  0  0  0
   29.7653   47.7044    1.3272 N   0  0  0  0  0  0  0  0  0  0  0  0
   28.9923   47.1700    0.9305 H   0  0  0  0  0  0  0  0  0  0  0  0
   30.4876   46.7910    2.2200 C   0  0  0  0  0  0  0  0  0  0  0  0
   29.8150   45.4444    2.2278 C   0  0  0  0  0  0  0  0  0  0  0  0
   30.2615   44.4388    3.0214 O   0  0  0  0  0  0  0  0  0  0  0  0
   28.8836   45.2282    1.5240 O   0  0  0  0  0  0  0  0  0  0  0  0
   28.5524   45.9030    0.9647 H   0  0  0  0  0  0  0  0  0  0  0  0
   31.9851   46.7335    1.8326 C   0  0  0  0  0  0  0  0  0  0  0  0
   32.3507   44.7000   -1.2680 N   0  0  0  0  0  0  0  0  0  0  0  0
   33.9751   47.5677   -3.1447 C   0  0  0  0  0  0  0  0  0  0  0  0
   33.4855   46.2559   -2.9707 C   0  0  0  0  0  0  0  0  0  0  0  0
   32.9033   45.8894   -1.7352 C   0  0  0  0  0  0  0  0  0  0  0  0
   32.8129   46.8546   -0.6809 C   0  0  0  0  0  0  0  0  0  0  0  0
   33.3072   48.1674   -0.8703 C   0  0  0  0  0  0  0  0  0  0  0  0
   33.8854   48.5223   -2.1085 C   0  0  0  0  0  0  0  0  0  0  0  0
   31.9395   44.8741    0.0168 C   0  0  0  0  0  0  0  0  0  0  0  0
   32.2063   46.1825    0.4461 C   0  0  0  0  0  0  0  0  0  0  0  0
   32.2704   43.8661   -1.7851 H   0  0  0  0  0  0  0  0  0  0  0  0
 10  8  1  0  0  0
 10 14  1  0  0  0
 10 15  1  0  0  0
  4  5  2  0  0  0
  4  8  1  0  0  0
  5  6  1  0  0  0
  6  7  2  0  0  0
  6  3  1  0  0  0
  7  9  1  0  0  0
 30 33  1  0  0  0
 30 37  1  0  0  0
 24 22  1  0  0  0
 24 29  1  0  0  0
 24 25  1  0  0  0
 16 17  2  0  0  0
 16 21  1  0  0  0
 11 12  1  0  0  0
 11 13  1  0  0  0
 11 19  1  0  0  0
 17 18  1  0  0  0
  1  3  2  0  0  0
  2  3  2  0  0  0
  8  9  2  0  0  0
  3 22  1  0  0  0
 12 15  1  0  0  0
 13 14  1  0  0  0
 18 19  2  0  0  0
 19 20  1  0  0  0
 20 21  2  0  0  0
 29 38  1  0  0  0
 25 26  2  0  0  0
 25 27  1  0  0  0
 31 32  2  0  0  0
 31 36  1  0  0  0
 32 33  1  0  0  0
 33 34  2  0  0  0
 34 35  1  0  0  0
 34 38  1  0  0  0
 35 36  2  0  0  0
 37 38  2  0  0  0
 30 39  1  0  0  0
 22 23  1  0  0  0
 27 28  1  0  0  0
M  END
> <minimizedAffinity>
-10.96447

$$$$
