4DE1_0J6_A_301


 26 29  0  0  0  0  0  0  0  0999 V2000
   -9.0388   55.4254   13.3485 O   0  0  0  0  0  0  0  0  0  0  0  0
   -9.1096   55.5557   12.1161 C   0  0  0  0  0  0  0  0  0  0  0  0
   -8.4552   54.7273   11.2913 N   0  0  0  0  0  0  0  0  0  0  0  0
   -8.5519   54.8741   10.3226 H   0  0  0  0  0  0  0  0  0  0  0  0
   -9.9050   56.6827   11.5292 C   0  0  0  0  0  0  0  0  0  0  0  0
  -11.0607   57.0831   12.2113 C   0  0  0  0  0  0  0  0  0  0  0  0
  -11.7747   58.1701   11.7362 C   0  0  0  0  0  0  0  0  0  0  0  0
  -12.9861   58.7731   12.2246 C   0  0  0  0  0  0  0  0  0  0  0  0
  -13.2411   59.7919   11.3761 N   0  0  0  0  0  0  0  0  0  0  0  0
  -12.2543   59.8334   10.3884 N   0  0  0  0  0  0  0  0  0  0  0  0
  -11.3508   58.8386   10.5978 C   0  0  0  0  0  0  0  0  0  0  0  0
  -10.2061   58.4576    9.9070 C   0  0  0  0  0  0  0  0  0  0  0  0
   -9.4631   57.3865   10.3855 C   0  0  0  0  0  0  0  0  0  0  0  0
  -14.0045   60.4100   11.4432 H   0  0  0  0  0  0  0  0  0  0  0  0
   -7.6431   53.6667   11.7124 C   0  0  0  0  0  0  0  0  0  0  0  0
   -6.2953   53.9354   11.9275 C   0  0  0  0  0  0  0  0  0  0  0  0
   -8.1394   52.3633   11.8868 C   0  0  0  0  0  0  0  0  0  0  0  0
   -7.2793   51.3772   12.3645 C   0  0  0  0  0  0  0  0  0  0  0  0
   -5.9309   51.6231   12.6162 C   0  0  0  0  0  0  0  0  0  0  0  0
   -5.4650   52.9039   12.3751 C   0  0  0  0  0  0  0  0  0  0  0  0
   -4.0465   53.1871   12.6245 C   0  0  0  0  0  0  0  0  0  0  0  0
   -3.0595   53.0595   11.7210 N   0  0  0  0  0  0  0  0  0  0  0  0
   -1.8872   53.3640   12.3807 N   0  0  0  0  0  0  0  0  0  0  0  0
   -2.1869   53.6650   13.6680 N   0  0  0  0  0  0  0  0  0  0  0  0
   -3.5272   53.5731   13.8043 N   0  0  0  0  0  0  0  0  0  0  0  0
   -3.1546   52.8002   10.7761 H   0  0  0  0  0  0  0  0  0  0  0  0
 12 11  1  0  0  0
 12 13  2  0  0  0
 10 11  2  0  0  0
 10  9  1  0  0  0
 11  7  1  0  0  0
 13  5  1  0  0  0
  9  8  1  0  0  0
  7  8  2  0  0  0
  7  6  1  0  0  0
 22 23  1  0  0  0
 22 21  1  0  0  0
 23 24  2  0  0  0
  5  6  2  0  0  0
  5  2  1  0  0  0
  3  2  1  0  0  0
  3 15  1  0  0  0
 16 15  2  0  0  0
 16 20  1  0  0  0
  2  1  2  0  0  0
 21 20  1  0  0  0
 21 25  2  0  0  0
 15 17  1  0  0  0
 24 25  1  0  0  0
 20 19  2  0  0  0
 17 18  2  0  0  0
 19 18  1  0  0  0
  9 14  1  0  0  0
  3  4  1  0  0  0
 22 26  1  0  0  0
M  END
> <minimizedAffinity>
-8.50792

$$$$
4DE1_0J6_A_301


 26 29  0  0  0  0  0  0  0  0999 V2000
   -9.0071   55.6335   13.8433 O   0  0  0  0  0  0  0  0  0  0  0  0
   -8.9688   55.4293   12.6195 C   0  0  0  0  0  0  0  0  0  0  0  0
   -8.0752   54.5875   12.0833 N   0  0  0  0  0  0  0  0  0  0  0  0
   -8.0940   54.4597   11.1073 H   0  0  0  0  0  0  0  0  0  0  0  0
   -9.9071   56.1646   11.7104 C   0  0  0  0  0  0  0  0  0  0  0  0
  -10.1770   55.5940   10.4603 C   0  0  0  0  0  0  0  0  0  0  0  0
  -11.0976   56.2094    9.6291 C   0  0  0  0  0  0  0  0  0  0  0  0
  -11.5426   55.8534    8.3081 C   0  0  0  0  0  0  0  0  0  0  0  0
  -12.4371   56.8056    7.9676 N   0  0  0  0  0  0  0  0  0  0  0  0
  -12.5512   57.7307    9.0079 N   0  0  0  0  0  0  0  0  0  0  0  0
  -11.7293   57.3762   10.0319 C   0  0  0  0  0  0  0  0  0  0  0  0
  -11.4760   57.9578   11.2689 C   0  0  0  0  0  0  0  0  0  0  0  0
  -10.5759   57.3387   12.1259 C   0  0  0  0  0  0  0  0  0  0  0  0
  -12.9323   56.8422    7.1175 H   0  0  0  0  0  0  0  0  0  0  0  0
   -7.1161   53.8767   12.8158 C   0  0  0  0  0  0  0  0  0  0  0  0
   -5.8100   53.8793   12.3371 C   0  0  0  0  0  0  0  0  0  0  0  0
   -7.4410   53.1527   13.9759 C   0  0  0  0  0  0  0  0  0  0  0  0
   -6.4185   52.5206   14.6797 C   0  0  0  0  0  0  0  0  0  0  0  0
   -5.0961   52.5295   14.2403 C   0  0  0  0  0  0  0  0  0  0  0  0
   -4.8249   53.2022   13.0615 C   0  0  0  0  0  0  0  0  0  0  0  0
   -3.4410   53.2197   12.5725 C   0  0  0  0  0  0  0  0  0  0  0  0
   -3.0575   52.9230   11.3189 N   0  0  0  0  0  0  0  0  0  0  0  0
   -1.6805   53.0024   11.3048 N   0  0  0  0  0  0  0  0  0  0  0  0
   -1.2592   53.3407   12.5481 N   0  0  0  0  0  0  0  0  0  0  0  0
   -2.3564   53.4933   13.3204 N   0  0  0  0  0  0  0  0  0  0  0  0
   -3.6431   52.6944   10.5612 H   0  0  0  0  0  0  0  0  0  0  0  0
 12 11  1  0  0  0
 12 13  2  0  0  0
 10 11  2  0  0  0
 10  9  1  0  0  0
 11  7  1  0  0  0
 13  5  1  0  0  0
  9  8  1  0  0  0
  7  8  2  0  0  0
  7  6  1  0  0  0
 22 23  1  0  0  0
 22 21  1  0  0  0
 23 24  2  0  0  0
  5  6  2  0  0  0
  5  2  1  0  0  0
  3  2  1  0  0  0
  3 15  1  0  0  0
 16 15  2  0  0  0
 16 20  1  0  0  0
  2  1  2  0  0  0
 21 20  1  0  0  0
 21 25  2  0  0  0
 15 17  1  0  0  0
 24 25  1  0  0  0
 20 19  2  0  0  0
 17 18  2  0  0  0
 19 18  1  0  0  0
  9 14  1  0  0  0
  3  4  1  0  0  0
 22 26  1  0  0  0
M  END
> <minimizedAffinity>
-7.94409

$$$$
4DE1_0J6_A_301


 26 29  0  0  0  0  0  0  0  0999 V2000
   -8.6951   53.4841   13.3424 O   0  0  0  0  0  0  0  0  0  0  0  0
   -7.9189   53.4610   12.3740 C   0  0  0  0  0  0  0  0  0  0  0  0
   -8.2985   53.9062   11.1688 N   0  0  0  0  0  0  0  0  0  0  0  0
   -7.6398   53.8692   10.4381 H   0  0  0  0  0  0  0  0  0  0  0  0
   -6.5430   52.8879   12.5337 C   0  0  0  0  0  0  0  0  0  0  0  0
   -5.4802   53.7878   12.6819 C   0  0  0  0  0  0  0  0  0  0  0  0
   -4.2083   53.2892   12.9074 C   0  0  0  0  0  0  0  0  0  0  0  0
   -2.9557   53.9765   13.0755 C   0  0  0  0  0  0  0  0  0  0  0  0
   -2.0386   53.0018   13.2538 N   0  0  0  0  0  0  0  0  0  0  0  0
   -2.6657   51.7552   13.1906 N   0  0  0  0  0  0  0  0  0  0  0  0
   -3.9982   51.9203   12.9739 C   0  0  0  0  0  0  0  0  0  0  0  0
   -5.0396   51.0106   12.8304 C   0  0  0  0  0  0  0  0  0  0  0  0
   -6.3258   51.4943   12.6309 C   0  0  0  0  0  0  0  0  0  0  0  0
   -1.0767   53.1472   13.4049 H   0  0  0  0  0  0  0  0  0  0  0  0
   -9.5681   54.4208   10.8770 C   0  0  0  0  0  0  0  0  0  0  0  0
   -9.7616   55.7881   11.0448 C   0  0  0  0  0  0  0  0  0  0  0  0
  -10.6328   53.6034   10.4604 C   0  0  0  0  0  0  0  0  0  0  0  0
  -11.8481   54.2008   10.1334 C   0  0  0  0  0  0  0  0  0  0  0  0
  -12.0631   55.5714   10.2641 C   0  0  0  0  0  0  0  0  0  0  0  0
  -11.0096   56.3357   10.7349 C   0  0  0  0  0  0  0  0  0  0  0  0
  -11.2128   57.7812   10.8894 C   0  0  0  0  0  0  0  0  0  0  0  0
  -11.2623   58.4366   12.0619 N   0  0  0  0  0  0  0  0  0  0  0  0
  -11.5285   59.7555   11.7588 N   0  0  0  0  0  0  0  0  0  0  0  0
  -11.6385   59.8709   10.4126 N   0  0  0  0  0  0  0  0  0  0  0  0
  -11.4212   58.6484    9.8818 N   0  0  0  0  0  0  0  0  0  0  0  0
  -11.1341   58.0516   12.9589 H   0  0  0  0  0  0  0  0  0  0  0  0
 12 11  1  0  0  0
 12 13  2  0  0  0
 10 11  2  0  0  0
 10  9  1  0  0  0
 11  7  1  0  0  0
 13  5  1  0  0  0
  9  8  1  0  0  0
  7  8  2  0  0  0
  7  6  1  0  0  0
 22 23  1  0  0  0
 22 21  1  0  0  0
 23 24  2  0  0  0
  5  6  2  0  0  0
  5  2  1  0  0  0
  3  2  1  0  0  0
  3 15  1  0  0  0
 16 15  2  0  0  0
 16 20  1  0  0  0
  2  1  2  0  0  0
 21 20  1  0  0  0
 21 25  2  0  0  0
 15 17  1  0  0  0
 24 25  1  0  0  0
 20 19  2  0  0  0
 17 18  2  0  0  0
 19 18  1  0  0  0
  9 14  1  0  0  0
  3  4  1  0  0  0
 22 26  1  0  0  0
M  END
> <minimizedAffinity>
-7.57735

$$$$
4DE1_0J6_A_301


 26 29  0  0  0  0  0  0  0  0999 V2000
   -8.9454   55.2767   13.9134 O   0  0  0  0  0  0  0  0  0  0  0  0
   -8.6983   55.4032   12.7036 C   0  0  0  0  0  0  0  0  0  0  0  0
   -7.7062   54.7162   12.1217 N   0  0  0  0  0  0  0  0  0  0  0  0
   -7.5587   54.8518   11.1578 H   0  0  0  0  0  0  0  0  0  0  0  0
   -9.4906   56.3710   11.8771 C   0  0  0  0  0  0  0  0  0  0  0  0
  -10.6622   56.8938   12.4386 C   0  0  0  0  0  0  0  0  0  0  0  0
  -11.3750   57.8471   11.7314 C   0  0  0  0  0  0  0  0  0  0  0  0
  -12.6001   58.5261   12.0596 C   0  0  0  0  0  0  0  0  0  0  0  0
  -12.8462   59.3388   11.0099 N   0  0  0  0  0  0  0  0  0  0  0  0
  -11.8408   59.1812   10.0531 N   0  0  0  0  0  0  0  0  0  0  0  0
  -10.9341   58.2638   10.4845 C   0  0  0  0  0  0  0  0  0  0  0  0
   -9.7735   57.7580    9.9103 C   0  0  0  0  0  0  0  0  0  0  0  0
   -9.0319   56.8214   10.6180 C   0  0  0  0  0  0  0  0  0  0  0  0
  -13.6153   59.9483   10.9311 H   0  0  0  0  0  0  0  0  0  0  0  0
   -6.8646   53.8184   12.7904 C   0  0  0  0  0  0  0  0  0  0  0  0
   -6.5715   52.6166   12.1542 C   0  0  0  0  0  0  0  0  0  0  0  0
   -6.3486   54.0831   14.0707 C   0  0  0  0  0  0  0  0  0  0  0  0
   -5.4714   53.1646   14.6427 C   0  0  0  0  0  0  0  0  0  0  0  0
   -5.1367   51.9652   14.0172 C   0  0  0  0  0  0  0  0  0  0  0  0
   -5.7119   51.7121   12.7840 C   0  0  0  0  0  0  0  0  0  0  0  0
   -5.3821   50.4519   12.1074 C   0  0  0  0  0  0  0  0  0  0  0  0
   -6.1983   49.7807   11.2768 N   0  0  0  0  0  0  0  0  0  0  0  0
   -5.5264   48.6313   10.9167 N   0  0  0  0  0  0  0  0  0  0  0  0
   -4.3218   48.6279   11.5383 N   0  0  0  0  0  0  0  0  0  0  0  0
   -4.2328   49.7680   12.2563 N   0  0  0  0  0  0  0  0  0  0  0  0
   -7.0972   50.0551   10.9837 H   0  0  0  0  0  0  0  0  0  0  0  0
 12 11  1  0  0  0
 12 13  2  0  0  0
 10 11  2  0  0  0
 10  9  1  0  0  0
 11  7  1  0  0  0
 13  5  1  0  0  0
  9  8  1  0  0  0
  7  8  2  0  0  0
  7  6  1  0  0  0
 22 23  1  0  0  0
 22 21  1  0  0  0
 23 24  2  0  0  0
  5  6  2  0  0  0
  5  2  1  0  0  0
  3  2  1  0  0  0
  3 15  1  0  0  0
 16 15  2  0  0  0
 16 20  1  0  0  0
  2  1  2  0  0  0
 21 20  1  0  0  0
 21 25  2  0  0  0
 15 17  1  0  0  0
 24 25  1  0  0  0
 20 19  2  0  0  0
 17 18  2  0  0  0
 19 18  1  0  0  0
  9 14  1  0  0  0
  3  4  1  0  0  0
 22 26  1  0  0  0
M  END
> <minimizedAffinity>
-7.55793

$$$$
4DE1_0J6_A_301


 26 29  0  0  0  0  0  0  0  0999 V2000
  -11.3123   55.3522   11.1678 O   0  0  0  0  0  0  0  0  0  0  0  0
  -10.8481   56.4964   11.2951 C   0  0  0  0  0  0  0  0  0  0  0  0
   -9.5277   56.7189   11.2530 N   0  0  0  0  0  0  0  0  0  0  0  0
   -9.2158   57.6472   11.3542 H   0  0  0  0  0  0  0  0  0  0  0  0
  -11.7696   57.6526   11.5429 C   0  0  0  0  0  0  0  0  0  0  0  0
  -13.0439   57.3675   12.0491 C   0  0  0  0  0  0  0  0  0  0  0  0
  -13.8902   58.4183   12.3600 C   0  0  0  0  0  0  0  0  0  0  0  0
  -15.2357   58.4100   12.8694 C   0  0  0  0  0  0  0  0  0  0  0  0
  -15.5817   59.7107   12.9755 N   0  0  0  0  0  0  0  0  0  0  0  0
  -14.5210   60.5113   12.5452 N   0  0  0  0  0  0  0  0  0  0  0  0
  -13.4784   59.7272   12.1609 C   0  0  0  0  0  0  0  0  0  0  0  0
  -12.2174   60.0312   11.6605 C   0  0  0  0  0  0  0  0  0  0  0  0
  -11.3461   58.9901   11.3692 C   0  0  0  0  0  0  0  0  0  0  0  0
  -16.4477   60.0434   13.3051 H   0  0  0  0  0  0  0  0  0  0  0  0
   -8.5605   55.7216   11.0750 C   0  0  0  0  0  0  0  0  0  0  0  0
   -7.7679   55.3922   12.1696 C   0  0  0  0  0  0  0  0  0  0  0  0
   -8.3558   55.0853    9.8386 C   0  0  0  0  0  0  0  0  0  0  0  0
   -7.4136   54.0623    9.7593 C   0  0  0  0  0  0  0  0  0  0  0  0
   -6.6246   53.6907   10.8462 C   0  0  0  0  0  0  0  0  0  0  0  0
   -6.8128   54.3812   12.0309 C   0  0  0  0  0  0  0  0  0  0  0  0
   -5.9886   54.0145   13.1888 C   0  0  0  0  0  0  0  0  0  0  0  0
   -4.6609   53.8061   13.1610 N   0  0  0  0  0  0  0  0  0  0  0  0
   -4.3007   53.4255   14.4368 N   0  0  0  0  0  0  0  0  0  0  0  0
   -5.4153   53.4072   15.2082 N   0  0  0  0  0  0  0  0  0  0  0  0
   -6.4513   53.7931   14.4327 N   0  0  0  0  0  0  0  0  0  0  0  0
   -4.0642   53.9055   12.3843 H   0  0  0  0  0  0  0  0  0  0  0  0
 12 11  1  0  0  0
 12 13  2  0  0  0
 10 11  2  0  0  0
 10  9  1  0  0  0
 11  7  1  0  0  0
 13  5  1  0  0  0
  9  8  1  0  0  0
  7  8  2  0  0  0
  7  6  1  0  0  0
 22 23  1  0  0  0
 22 21  1  0  0  0
 23 24  2  0  0  0
  5  6  2  0  0  0
  5  2  1  0  0  0
  3  2  1  0  0  0
  3 15  1  0  0  0
 16 15  2  0  0  0
 16 20  1  0  0  0
  2  1  2  0  0  0
 21 20  1  0  0  0
 21 25  2  0  0  0
 15 17  1  0  0  0
 24 25  1  0  0  0
 20 19  2  0  0  0
 17 18  2  0  0  0
 19 18  1  0  0  0
  9 14  1  0  0  0
  3  4  1  0  0  0
 22 26  1  0  0  0
M  END
> <minimizedAffinity>
-7.46140

$$$$
4DE1_0J6_A_301


 26 29  0  0  0  0  0  0  0  0999 V2000
   -8.6324   53.6207   13.3665 O   0  0  0  0  0  0  0  0  0  0  0  0
   -7.7726   53.8475   12.5005 C   0  0  0  0  0  0  0  0  0  0  0  0
   -8.0954   54.4246   11.3355 N   0  0  0  0  0  0  0  0  0  0  0  0
   -7.3719   54.5857   10.6876 H   0  0  0  0  0  0  0  0  0  0  0  0
   -6.3507   53.4341   12.7342 C   0  0  0  0  0  0  0  0  0  0  0  0
   -6.0648   52.0632   12.7218 C   0  0  0  0  0  0  0  0  0  0  0  0
   -4.7495   51.6532   12.8586 C   0  0  0  0  0  0  0  0  0  0  0  0
   -4.1865   50.3298   12.8974 C   0  0  0  0  0  0  0  0  0  0  0  0
   -2.8589   50.5147   13.0583 N   0  0  0  0  0  0  0  0  0  0  0  0
   -2.5848   51.8824   13.1322 N   0  0  0  0  0  0  0  0  0  0  0  0
   -3.7400   52.5907   13.0149 C   0  0  0  0  0  0  0  0  0  0  0  0
   -4.0026   53.9558   13.0289 C   0  0  0  0  0  0  0  0  0  0  0  0
   -5.3130   54.3852   12.8655 C   0  0  0  0  0  0  0  0  0  0  0  0
   -2.1877   49.7967   13.1149 H   0  0  0  0  0  0  0  0  0  0  0  0
   -9.3917   54.8147   10.9758 C   0  0  0  0  0  0  0  0  0  0  0  0
   -9.7228   56.1578   11.1228 C   0  0  0  0  0  0  0  0  0  0  0  0
  -10.3511   53.8981   10.5123 C   0  0  0  0  0  0  0  0  0  0  0  0
  -11.5993   54.3756   10.1196 C   0  0  0  0  0  0  0  0  0  0  0  0
  -11.9504   55.7198   10.2284 C   0  0  0  0  0  0  0  0  0  0  0  0
  -10.9999   56.5827   10.7459 C   0  0  0  0  0  0  0  0  0  0  0  0
  -11.3475   58.0026   10.8785 C   0  0  0  0  0  0  0  0  0  0  0  0
  -11.2604   58.7199   12.0119 N   0  0  0  0  0  0  0  0  0  0  0  0
  -11.7382   59.9787   11.7127 N   0  0  0  0  0  0  0  0  0  0  0  0
  -12.1077   59.9967   10.4086 N   0  0  0  0  0  0  0  0  0  0  0  0
  -11.8430   58.7761    9.8953 N   0  0  0  0  0  0  0  0  0  0  0  0
  -10.9228   58.4085   12.8827 H   0  0  0  0  0  0  0  0  0  0  0  0
 12 11  1  0  0  0
 12 13  2  0  0  0
 10 11  2  0  0  0
 10  9  1  0  0  0
 11  7  1  0  0  0
 13  5  1  0  0  0
  9  8  1  0  0  0
  7  8  2  0  0  0
  7  6  1  0  0  0
 22 23  1  0  0  0
 22 21  1  0  0  0
 23 24  2  0  0  0
  5  6  2  0  0  0
  5  2  1  0  0  0
  3  2  1  0  0  0
  3 15  1  0  0  0
 16 15  2  0  0  0
 16 20  1  0  0  0
  2  1  2  0  0  0
 21 20  1  0  0  0
 21 25  2  0  0  0
 15 17  1  0  0  0
 24 25  1  0  0  0
 20 19  2  0  0  0
 17 18  2  0  0  0
 19 18  1  0  0  0
  9 14  1  0  0  0
  3  4  1  0  0  0
 22 26  1  0  0  0
M  END
> <minimizedAffinity>
-7.33191

$$$$
4DE1_0J6_A_301


 26 29  0  0  0  0  0  0  0  0999 V2000
   -8.4392   55.0875    9.3582 O   0  0  0  0  0  0  0  0  0  0  0  0
   -9.4006   55.0879   10.1434 C   0  0  0  0  0  0  0  0  0  0  0  0
   -9.4594   54.2292   11.1700 N   0  0  0  0  0  0  0  0  0  0  0  0
  -10.2429   54.2779   11.7642 H   0  0  0  0  0  0  0  0  0  0  0  0
  -10.5429   56.0337    9.9244 C   0  0  0  0  0  0  0  0  0  0  0  0
  -10.4519   57.3042   10.5068 C   0  0  0  0  0  0  0  0  0  0  0  0
  -11.4549   58.2262   10.2599 C   0  0  0  0  0  0  0  0  0  0  0  0
  -11.6182   59.5736   10.7370 C   0  0  0  0  0  0  0  0  0  0  0  0
  -12.7767   60.0034   10.1930 N   0  0  0  0  0  0  0  0  0  0  0  0
  -13.3344   58.9832    9.4188 N   0  0  0  0  0  0  0  0  0  0  0  0
  -12.5324   57.8854    9.4566 C   0  0  0  0  0  0  0  0  0  0  0  0
  -12.6408   56.6304    8.8685 C   0  0  0  0  0  0  0  0  0  0  0  0
  -11.6301   55.7029    9.0836 C   0  0  0  0  0  0  0  0  0  0  0  0
  -13.1679   60.8976   10.3220 H   0  0  0  0  0  0  0  0  0  0  0  0
   -8.4829   53.2668   11.4560 C   0  0  0  0  0  0  0  0  0  0  0  0
   -7.2396   53.7203   11.8846 C   0  0  0  0  0  0  0  0  0  0  0  0
   -8.7140   51.8900   11.2931 C   0  0  0  0  0  0  0  0  0  0  0  0
   -7.7103   50.9945   11.6555 C   0  0  0  0  0  0  0  0  0  0  0  0
   -6.4647   51.4180   12.1148 C   0  0  0  0  0  0  0  0  0  0  0  0
   -6.2534   52.7829   12.2046 C   0  0  0  0  0  0  0  0  0  0  0  0
   -4.9468   53.2554   12.6780 C   0  0  0  0  0  0  0  0  0  0  0  0
   -4.1706   52.6212   13.5736 N   0  0  0  0  0  0  0  0  0  0  0  0
   -3.0730   53.4309   13.7788 N   0  0  0  0  0  0  0  0  0  0  0  0
   -3.2087   54.5380   13.0084 N   0  0  0  0  0  0  0  0  0  0  0  0
   -4.3606   54.4110   12.3154 N   0  0  0  0  0  0  0  0  0  0  0  0
   -4.3499   51.7514   13.9986 H   0  0  0  0  0  0  0  0  0  0  0  0
 12 11  1  0  0  0
 12 13  2  0  0  0
 10 11  2  0  0  0
 10  9  1  0  0  0
 11  7  1  0  0  0
 13  5  1  0  0  0
  9  8  1  0  0  0
  7  8  2  0  0  0
  7  6  1  0  0  0
 22 23  1  0  0  0
 22 21  1  0  0  0
 23 24  2  0  0  0
  5  6  2  0  0  0
  5  2  1  0  0  0
  3  2  1  0  0  0
  3 15  1  0  0  0
 16 15  2  0  0  0
 16 20  1  0  0  0
  2  1  2  0  0  0
 21 20  1  0  0  0
 21 25  2  0  0  0
 15 17  1  0  0  0
 24 25  1  0  0  0
 20 19  2  0  0  0
 17 18  2  0  0  0
 19 18  1  0  0  0
  9 14  1  0  0  0
  3  4  1  0  0  0
 22 26  1  0  0  0
M  END
> <minimizedAffinity>
-7.31232

$$$$
4DE1_0J6_A_301


 26 29  0  0  0  0  0  0  0  0999 V2000
   -9.0066   55.5968   13.7280 O   0  0  0  0  0  0  0  0  0  0  0  0
   -8.3534   55.2185   12.7426 C   0  0  0  0  0  0  0  0  0  0  0  0
   -8.6513   55.6426   11.5073 N   0  0  0  0  0  0  0  0  0  0  0  0
   -8.0962   55.3143   10.7635 H   0  0  0  0  0  0  0  0  0  0  0  0
   -7.2350   54.2363   12.9207 C   0  0  0  0  0  0  0  0  0  0  0  0
   -5.9252   54.7225   12.8243 C   0  0  0  0  0  0  0  0  0  0  0  0
   -4.8713   53.8558   13.0593 C   0  0  0  0  0  0  0  0  0  0  0  0
   -3.4514   54.0826   13.0110 C   0  0  0  0  0  0  0  0  0  0  0  0
   -2.8924   52.8917   13.3142 N   0  0  0  0  0  0  0  0  0  0  0  0
   -3.8982   51.9473   13.5327 N   0  0  0  0  0  0  0  0  0  0  0  0
   -5.1178   52.5282   13.3743 C   0  0  0  0  0  0  0  0  0  0  0  0
   -6.4103   52.0263   13.4759 C   0  0  0  0  0  0  0  0  0  0  0  0
   -7.4792   52.8884   13.2702 C   0  0  0  0  0  0  0  0  0  0  0  0
   -1.9255   52.7160   13.3723 H   0  0  0  0  0  0  0  0  0  0  0  0
   -9.6984   56.5211   11.2012 C   0  0  0  0  0  0  0  0  0  0  0  0
  -10.9626   56.2097   11.6908 C   0  0  0  0  0  0  0  0  0  0  0  0
   -9.5122   57.6636   10.4040 C   0  0  0  0  0  0  0  0  0  0  0  0
  -10.5923   58.5180   10.1947 C   0  0  0  0  0  0  0  0  0  0  0  0
  -11.8640   58.2473   10.6960 C   0  0  0  0  0  0  0  0  0  0  0  0
  -12.0222   57.0818   11.4257 C   0  0  0  0  0  0  0  0  0  0  0  0
  -13.3539   56.7692   11.9582 C   0  0  0  0  0  0  0  0  0  0  0  0
  -14.2855   57.6762   12.2989 N   0  0  0  0  0  0  0  0  0  0  0  0
  -15.3528   56.9651   12.8063 N   0  0  0  0  0  0  0  0  0  0  0  0
  -15.0449   55.6455   12.7664 N   0  0  0  0  0  0  0  0  0  0  0  0
  -13.8147   55.5326   12.2210 N   0  0  0  0  0  0  0  0  0  0  0  0
  -14.2192   58.6540   12.2049 H   0  0  0  0  0  0  0  0  0  0  0  0
 12 11  1  0  0  0
 12 13  2  0  0  0
 10 11  2  0  0  0
 10  9  1  0  0  0
 11  7  1  0  0  0
 13  5  1  0  0  0
  9  8  1  0  0  0
  7  8  2  0  0  0
  7  6  1  0  0  0
 22 23  1  0  0  0
 22 21  1  0  0  0
 23 24  2  0  0  0
  5  6  2  0  0  0
  5  2  1  0  0  0
  3  2  1  0  0  0
  3 15  1  0  0  0
 16 15  2  0  0  0
 16 20  1  0  0  0
  2  1  2  0  0  0
 21 20  1  0  0  0
 21 25  2  0  0  0
 15 17  1  0  0  0
 24 25  1  0  0  0
 20 19  2  0  0  0
 17 18  2  0  0  0
 19 18  1  0  0  0
  9 14  1  0  0  0
  3  4  1  0  0  0
 22 26  1  0  0  0
M  END
> <minimizedAffinity>
-7.22850

$$$$
4DE1_0J6_A_301


 26 29  0  0  0  0  0  0  0  0999 V2000
   -3.6977   50.0493   11.9066 O   0  0  0  0  0  0  0  0  0  0  0  0
   -3.4105   50.9830   11.1408 C   0  0  0  0  0  0  0  0  0  0  0  0
   -4.3482   51.8300   10.6959 N   0  0  0  0  0  0  0  0  0  0  0  0
   -4.0627   52.5555   10.0949 H   0  0  0  0  0  0  0  0  0  0  0  0
   -1.9989   51.1508   10.6648 C   0  0  0  0  0  0  0  0  0  0  0  0
   -1.6272   52.4077   10.1716 C   0  0  0  0  0  0  0  0  0  0  0  0
   -0.3111   52.6160    9.7955 C   0  0  0  0  0  0  0  0  0  0  0  0
    0.3270   53.7841    9.2493 C   0  0  0  0  0  0  0  0  0  0  0  0
    1.6151   53.4271    9.0591 N   0  0  0  0  0  0  0  0  0  0  0  0
    1.7924   52.0977    9.4495 N   0  0  0  0  0  0  0  0  0  0  0  0
    0.6143   51.5886    9.8995 C   0  0  0  0  0  0  0  0  0  0  0  0
    0.2658   50.3343   10.3874 C   0  0  0  0  0  0  0  0  0  0  0  0
   -1.0437   50.1167   10.7946 C   0  0  0  0  0  0  0  0  0  0  0  0
    2.3203   54.0132    8.7007 H   0  0  0  0  0  0  0  0  0  0  0  0
   -5.7070   51.7542   11.0271 C   0  0  0  0  0  0  0  0  0  0  0  0
   -6.3040   52.8933   11.5572 C   0  0  0  0  0  0  0  0  0  0  0  0
   -6.4541   50.5740   10.8703 C   0  0  0  0  0  0  0  0  0  0  0  0
   -7.8148   50.5978   11.1680 C   0  0  0  0  0  0  0  0  0  0  0  0
   -8.4468   51.7321   11.6737 C   0  0  0  0  0  0  0  0  0  0  0  0
   -7.6654   52.8573   11.8714 C   0  0  0  0  0  0  0  0  0  0  0  0
   -8.3053   54.0632   12.4108 C   0  0  0  0  0  0  0  0  0  0  0  0
   -8.7989   55.0743   11.6755 N   0  0  0  0  0  0  0  0  0  0  0  0
   -9.2484   56.0224   12.5707 N   0  0  0  0  0  0  0  0  0  0  0  0
   -9.0146   55.5690   13.8267 N   0  0  0  0  0  0  0  0  0  0  0  0
   -8.4499   54.3472   13.7181 N   0  0  0  0  0  0  0  0  0  0  0  0
   -8.8329   55.1275   10.6930 H   0  0  0  0  0  0  0  0  0  0  0  0
 12 11  1  0  0  0
 12 13  2  0  0  0
 10 11  2  0  0  0
 10  9  1  0  0  0
 11  7  1  0  0  0
 13  5  1  0  0  0
  9  8  1  0  0  0
  7  8  2  0  0  0
  7  6  1  0  0  0
 22 23  1  0  0  0
 22 21  1  0  0  0
 23 24  2  0  0  0
  5  6  2  0  0  0
  5  2  1  0  0  0
  3  2  1  0  0  0
  3 15  1  0  0  0
 16 15  2  0  0  0
 16 20  1  0  0  0
  2  1  2  0  0  0
 21 20  1  0  0  0
 21 25  2  0  0  0
 15 17  1  0  0  0
 24 25  1  0  0  0
 20 19  2  0  0  0
 17 18  2  0  0  0
 19 18  1  0  0  0
  9 14  1  0  0  0
  3  4  1  0  0  0
 22 26  1  0  0  0
M  END
> <minimizedAffinity>
-7.17431

$$$$
4DE1_0J6_A_301


 26 29  0  0  0  0  0  0  0  0999 V2000
  -12.1912   56.1158   11.2232 O   0  0  0  0  0  0  0  0  0  0  0  0
  -11.8437   57.3066   11.1773 C   0  0  0  0  0  0  0  0  0  0  0  0
  -10.5671   57.6499   10.9604 N   0  0  0  0  0  0  0  0  0  0  0  0
  -10.3495   58.6095   10.9286 H   0  0  0  0  0  0  0  0  0  0  0  0
  -12.8550   58.3887   11.4095 C   0  0  0  0  0  0  0  0  0  0  0  0
  -13.1980   59.1986   10.3196 C   0  0  0  0  0  0  0  0  0  0  0  0
  -14.1841   60.1567   10.4828 C   0  0  0  0  0  0  0  0  0  0  0  0
  -14.7105   61.1183    9.5511 C   0  0  0  0  0  0  0  0  0  0  0  0
  -15.6438   61.8065   10.2426 N   0  0  0  0  0  0  0  0  0  0  0  0
  -15.7048   61.3224   11.5515 N   0  0  0  0  0  0  0  0  0  0  0  0
  -14.8090   60.3114   11.7108 C   0  0  0  0  0  0  0  0  0  0  0  0
  -14.4837   59.5172   12.8045 C   0  0  0  0  0  0  0  0  0  0  0  0
  -13.5162   58.5331   12.6506 C   0  0  0  0  0  0  0  0  0  0  0  0
  -16.1960   62.5367    9.8804 H   0  0  0  0  0  0  0  0  0  0  0  0
   -9.5208   56.7374   10.7756 C   0  0  0  0  0  0  0  0  0  0  0  0
   -8.9002   56.2319   11.9134 C   0  0  0  0  0  0  0  0  0  0  0  0
   -9.0734   56.3552    9.4991 C   0  0  0  0  0  0  0  0  0  0  0  0
   -8.0663   55.3979    9.4009 C   0  0  0  0  0  0  0  0  0  0  0  0
   -7.4453   54.8524   10.5228 C   0  0  0  0  0  0  0  0  0  0  0  0
   -7.8714   55.2981   11.7620 C   0  0  0  0  0  0  0  0  0  0  0  0
   -7.2277   54.7451   12.9597 C   0  0  0  0  0  0  0  0  0  0  0  0
   -7.3147   53.4671   13.3670 N   0  0  0  0  0  0  0  0  0  0  0  0
   -6.6206   53.3903   14.5564 N   0  0  0  0  0  0  0  0  0  0  0  0
   -6.1323   54.6212   14.8465 N   0  0  0  0  0  0  0  0  0  0  0  0
   -6.4953   55.4483   13.8427 N   0  0  0  0  0  0  0  0  0  0  0  0
   -7.7811   52.7319   12.9075 H   0  0  0  0  0  0  0  0  0  0  0  0
 12 11  1  0  0  0
 12 13  2  0  0  0
 10 11  2  0  0  0
 10  9  1  0  0  0
 11  7  1  0  0  0
 13  5  1  0  0  0
  9  8  1  0  0  0
  7  8  2  0  0  0
  7  6  1  0  0  0
 22 23  1  0  0  0
 22 21  1  0  0  0
 23 24  2  0  0  0
  5  6  2  0  0  0
  5  2  1  0  0  0
  3  2  1  0  0  0
  3 15  1  0  0  0
 16 15  2  0  0  0
 16 20  1  0  0  0
  2  1  2  0  0  0
 21 20  1  0  0  0
 21 25  2  0  0  0
 15 17  1  0  0  0
 24 25  1  0  0  0
 20 19  2  0  0  0
 17 18  2  0  0  0
 19 18  1  0  0  0
  9 14  1  0  0  0
  3  4  1  0  0  0
 22 26  1  0  0  0
M  END
> <minimizedAffinity>
-6.87752

$$$$
