4BPS_3EB_A_1345


 16 16  0  0  0  0  0  0  0  0999 V2000
   56.8768    6.1849    7.0192 C   0  0  0  0  0  0  0  0  0  0  0  0
   56.8927    6.4971    8.3731 C   0  0  0  0  0  0  0  0  0  0  0  0
   56.4046    4.9465    6.5831 C   0  0  0  0  0  0  0  0  0  0  0  0
   56.4509    5.5783    9.3098 C   0  0  0  0  0  0  0  0  0  0  0  0
   55.9443    4.0405    7.5393 C   0  0  0  0  0  0  0  0  0  0  0  0
   55.9445    4.3495    8.8994 C   0  0  0  0  0  0  0  0  0  0  0  0
   54.6268    2.4519    9.5274 O   0  0  0  0  0  0  0  0  0  0  0  0
   55.6793    3.5576   11.1371 O   0  0  0  0  0  0  0  0  0  0  0  0
   55.3914    3.3666    9.8953 C   0  0  0  0  0  0  0  0  0  0  0  0
   56.2570    4.2533   11.3825 H   0  0  0  0  0  0  0  0  0  0  0  0
   56.4248    4.5419    5.1176 C   0  0  0  0  0  0  0  0  0  0  0  0
   55.2836    5.1015    4.2429 C   0  0  0  0  0  0  0  0  0  0  0  0
   54.1786    4.1019    4.0456 C   0  0  0  0  0  0  0  0  0  0  0  0
   53.6058    3.5609    4.9974 O   0  0  0  0  0  0  0  0  0  0  0  0
   53.9103    3.8033    2.8194 O   0  0  0  0  0  0  0  0  0  0  0  0
   53.8260    3.8026    5.8755 H   0  0  0  0  0  0  0  0  0  0  0  0
 13 14  1  0  0  0
 13 12  1  0  0  0
 13 15  2  0  0  0
 12 11  1  0  0  0
  7  9  2  0  0  0
  8  9  1  0  0  0
  1  2  1  0  0  0
  1  3  2  0  0  0
  2  4  2  0  0  0
  3  5  1  0  0  0
  3 11  1  0  0  0
  4  6  1  0  0  0
  9  6  1  0  0  0
  5  6  2  0  0  0
 14 16  1  0  0  0
  8 10  1  0  0  0
M  END
> <minimizedAffinity>
-7.89734

$$$$
4BPS_3EB_A_1345


 16 16  0  0  0  0  0  0  0  0999 V2000
   54.8137    3.9258    5.5659 C   0  0  0  0  0  0  0  0  0  0  0  0
   54.3954    4.5892    4.4189 C   0  0  0  0  0  0  0  0  0  0  0  0
   55.7731    4.4953    6.4038 C   0  0  0  0  0  0  0  0  0  0  0  0
   54.9338    5.8202    4.0851 C   0  0  0  0  0  0  0  0  0  0  0  0
   56.2901    5.7457    6.0627 C   0  0  0  0  0  0  0  0  0  0  0  0
   55.8673    6.4251    4.9204 C   0  0  0  0  0  0  0  0  0  0  0  0
   55.7612    8.5910    3.9059 O   0  0  0  0  0  0  0  0  0  0  0  0
   57.5912    8.0733    5.0482 O   0  0  0  0  0  0  0  0  0  0  0  0
   56.4098    7.7946    4.6143 C   0  0  0  0  0  0  0  0  0  0  0  0
   58.0536    7.4546    5.5786 H   0  0  0  0  0  0  0  0  0  0  0  0
   56.3018    3.7776    7.6356 C   0  0  0  0  0  0  0  0  0  0  0  0
   55.9918    4.4415    8.9935 C   0  0  0  0  0  0  0  0  0  0  0  0
   55.3720    3.4783    9.9667 C   0  0  0  0  0  0  0  0  0  0  0  0
   55.7039    3.4432   11.1564 O   0  0  0  0  0  0  0  0  0  0  0  0
   54.5163    2.6532    9.4651 O   0  0  0  0  0  0  0  0  0  0  0  0
   56.3286    4.0584   11.4869 H   0  0  0  0  0  0  0  0  0  0  0  0
 13 14  1  0  0  0
 13 12  1  0  0  0
 13 15  2  0  0  0
 12 11  1  0  0  0
  7  9  2  0  0  0
  8  9  1  0  0  0
  1  2  1  0  0  0
  1  3  2  0  0  0
  2  4  2  0  0  0
  3  5  1  0  0  0
  3 11  1  0  0  0
  4  6  1  0  0  0
  9  6  1  0  0  0
  5  6  2  0  0  0
 14 16  1  0  0  0
  8 10  1  0  0  0
M  END
> <minimizedAffinity>
-7.85801

$$$$
4BPS_3EB_A_1345


 16 16  0  0  0  0  0  0  0  0999 V2000
   56.6358    6.4053    6.4913 C   0  0  0  0  0  0  0  0  0  0  0  0
   56.1455    6.9127    5.2942 C   0  0  0  0  0  0  0  0  0  0  0  0
   56.3023    5.1146    6.9031 C   0  0  0  0  0  0  0  0  0  0  0  0
   55.3093    6.1482    4.4986 C   0  0  0  0  0  0  0  0  0  0  0  0
   55.4748    4.3508    6.0792 C   0  0  0  0  0  0  0  0  0  0  0  0
   54.9882    4.8466    4.8698 C   0  0  0  0  0  0  0  0  0  0  0  0
   53.9829    4.2558    2.7789 O   0  0  0  0  0  0  0  0  0  0  0  0
   53.5352    2.9802    4.5379 O   0  0  0  0  0  0  0  0  0  0  0  0
   54.1413    3.9739    3.9840 C   0  0  0  0  0  0  0  0  0  0  0  0
   53.6745    2.7935    5.4455 H   0  0  0  0  0  0  0  0  0  0  0  0
   56.7682    4.5425    8.2327 C   0  0  0  0  0  0  0  0  0  0  0  0
   55.8976    4.8826    9.4605 C   0  0  0  0  0  0  0  0  0  0  0  0
   55.4153    3.6496   10.1720 C   0  0  0  0  0  0  0  0  0  0  0  0
   55.7748    3.3725   11.3212 O   0  0  0  0  0  0  0  0  0  0  0  0
   54.6505    2.8722    9.4826 O   0  0  0  0  0  0  0  0  0  0  0  0
   56.3309    3.9610   11.7929 H   0  0  0  0  0  0  0  0  0  0  0  0
 13 14  1  0  0  0
 13 12  1  0  0  0
 13 15  2  0  0  0
 12 11  1  0  0  0
  7  9  2  0  0  0
  8  9  1  0  0  0
  1  2  1  0  0  0
  1  3  2  0  0  0
  2  4  2  0  0  0
  3  5  1  0  0  0
  3 11  1  0  0  0
  4  6  1  0  0  0
  9  6  1  0  0  0
  5  6  2  0  0  0
 14 16  1  0  0  0
  8 10  1  0  0  0
M  END
> <minimizedAffinity>
-7.50110

$$$$
4BPS_3EB_A_1345


 16 16  0  0  0  0  0  0  0  0999 V2000
   55.0642    6.5751    4.2098 C   0  0  0  0  0  0  0  0  0  0  0  0
   54.7829    5.2622    4.5676 C   0  0  0  0  0  0  0  0  0  0  0  0
   56.0240    7.3094    4.9073 C   0  0  0  0  0  0  0  0  0  0  0  0
   55.4433    4.6679    5.6294 C   0  0  0  0  0  0  0  0  0  0  0  0
   56.6942    6.6880    5.9616 C   0  0  0  0  0  0  0  0  0  0  0  0
   56.4280    5.3667    6.3201 C   0  0  0  0  0  0  0  0  0  0  0  0
   56.6362    4.3347    8.4702 O   0  0  0  0  0  0  0  0  0  0  0  0
   58.4875    4.6388    7.2862 O   0  0  0  0  0  0  0  0  0  0  0  0
   57.2087    4.7149    7.4289 C   0  0  0  0  0  0  0  0  0  0  0  0
   58.8886    4.9325    6.4920 H   0  0  0  0  0  0  0  0  0  0  0  0
   56.3201    8.7661    4.5873 C   0  0  0  0  0  0  0  0  0  0  0  0
   55.7311    9.3044    3.2667 C   0  0  0  0  0  0  0  0  0  0  0  0
   55.7320   10.8066    3.2166 C   0  0  0  0  0  0  0  0  0  0  0  0
   55.7642   11.4274    2.1488 O   0  0  0  0  0  0  0  0  0  0  0  0
   55.7572   11.4019    4.3611 O   0  0  0  0  0  0  0  0  0  0  0  0
   55.7442   10.9622    1.3356 H   0  0  0  0  0  0  0  0  0  0  0  0
 13 14  1  0  0  0
 13 12  1  0  0  0
 13 15  2  0  0  0
 12 11  1  0  0  0
  7  9  2  0  0  0
  8  9  1  0  0  0
  1  2  1  0  0  0
  1  3  2  0  0  0
  2  4  2  0  0  0
  3  5  1  0  0  0
  3 11  1  0  0  0
  4  6  1  0  0  0
  9  6  1  0  0  0
  5  6  2  0  0  0
 14 16  1  0  0  0
  8 10  1  0  0  0
M  END
> <minimizedAffinity>
-7.19351

$$$$
4BPS_3EB_A_1345


 16 16  0  0  0  0  0  0  0  0999 V2000
   55.2360    6.0741    4.0862 C   0  0  0  0  0  0  0  0  0  0  0  0
   55.7474    7.1005    4.8709 C   0  0  0  0  0  0  0  0  0  0  0  0
   55.4720    4.7406    4.4222 C   0  0  0  0  0  0  0  0  0  0  0  0
   56.5086    6.8141    5.9913 C   0  0  0  0  0  0  0  0  0  0  0  0
   56.2242    4.4701    5.5660 C   0  0  0  0  0  0  0  0  0  0  0  0
   56.7309    5.4933    6.3669 C   0  0  0  0  0  0  0  0  0  0  0  0
   56.9764    5.3366    8.7432 O   0  0  0  0  0  0  0  0  0  0  0  0
   58.7121    4.7656    7.4850 O   0  0  0  0  0  0  0  0  0  0  0  0
   57.4928    5.1612    7.6210 C   0  0  0  0  0  0  0  0  0  0  0  0
   59.0720    4.6429    6.6287 H   0  0  0  0  0  0  0  0  0  0  0  0
   54.9817    3.5885    3.5594 C   0  0  0  0  0  0  0  0  0  0  0  0
   53.6081    2.9951    3.9357 C   0  0  0  0  0  0  0  0  0  0  0  0
   53.1572    1.9459    2.9585 C   0  0  0  0  0  0  0  0  0  0  0  0
   52.0228    1.9500    2.4686 O   0  0  0  0  0  0  0  0  0  0  0  0
   54.0110    1.0104    2.7125 O   0  0  0  0  0  0  0  0  0  0  0  0
   51.4283    2.6458    2.6693 H   0  0  0  0  0  0  0  0  0  0  0  0
 13 14  1  0  0  0
 13 12  1  0  0  0
 13 15  2  0  0  0
 12 11  1  0  0  0
  7  9  2  0  0  0
  8  9  1  0  0  0
  1  2  1  0  0  0
  1  3  2  0  0  0
  2  4  2  0  0  0
  3  5  1  0  0  0
  3 11  1  0  0  0
  4  6  1  0  0  0
  9  6  1  0  0  0
  5  6  2  0  0  0
 14 16  1  0  0  0
  8 10  1  0  0  0
M  END
> <minimizedAffinity>
-7.00586

$$$$
4BPS_3EB_A_1345


 16 16  0  0  0  0  0  0  0  0999 V2000
   55.6888    5.7567    5.1841 C   0  0  0  0  0  0  0  0  0  0  0  0
   55.0483    5.9451    3.9655 C   0  0  0  0  0  0  0  0  0  0  0  0
   55.7010    4.5006    5.7913 C   0  0  0  0  0  0  0  0  0  0  0  0
   54.4029    4.8908    3.3421 C   0  0  0  0  0  0  0  0  0  0  0  0
   55.0629    3.4448    5.1392 C   0  0  0  0  0  0  0  0  0  0  0  0
   54.4284    3.6212    3.9098 C   0  0  0  0  0  0  0  0  0  0  0  0
   52.5805    2.4531    2.9339 O   0  0  0  0  0  0  0  0  0  0  0  0
   54.5429    1.4199    2.9900 O   0  0  0  0  0  0  0  0  0  0  0  0
   53.7966    2.4470    3.2128 C   0  0  0  0  0  0  0  0  0  0  0  0
   55.4532    1.4456    3.2104 H   0  0  0  0  0  0  0  0  0  0  0  0
   56.3384    4.2642    7.1515 C   0  0  0  0  0  0  0  0  0  0  0  0
   57.3127    5.3548    7.6435 C   0  0  0  0  0  0  0  0  0  0  0  0
   56.7807    6.0915    8.8407 C   0  0  0  0  0  0  0  0  0  0  0  0
   56.9513    7.3058    8.9928 O   0  0  0  0  0  0  0  0  0  0  0  0
   56.1879    5.3626    9.7249 O   0  0  0  0  0  0  0  0  0  0  0  0
   57.3862    7.8045    8.3294 H   0  0  0  0  0  0  0  0  0  0  0  0
 13 14  1  0  0  0
 13 12  1  0  0  0
 13 15  2  0  0  0
 12 11  1  0  0  0
  7  9  2  0  0  0
  8  9  1  0  0  0
  1  2  1  0  0  0
  1  3  2  0  0  0
  2  4  2  0  0  0
  3  5  1  0  0  0
  3 11  1  0  0  0
  4  6  1  0  0  0
  9  6  1  0  0  0
  5  6  2  0  0  0
 14 16  1  0  0  0
  8 10  1  0  0  0
M  END
> <minimizedAffinity>
-6.86130

$$$$
4BPS_3EB_A_1345


 16 16  0  0  0  0  0  0  0  0999 V2000
   56.7237    6.3353    6.4898 C   0  0  0  0  0  0  0  0  0  0  0  0
   56.4592    5.0174    6.8419 C   0  0  0  0  0  0  0  0  0  0  0  0
   56.1975    6.8741    5.3152 C   0  0  0  0  0  0  0  0  0  0  0  0
   55.6789    4.2166    6.0256 C   0  0  0  0  0  0  0  0  0  0  0  0
   55.3966    6.0588    4.5147 C   0  0  0  0  0  0  0  0  0  0  0  0
   55.1150    4.7387    4.8661 C   0  0  0  0  0  0  0  0  0  0  0  0
   54.1271    4.1163    2.7761 O   0  0  0  0  0  0  0  0  0  0  0  0
   53.4636    3.0345    4.5958 O   0  0  0  0  0  0  0  0  0  0  0  0
   54.2046    3.9074    4.0038 C   0  0  0  0  0  0  0  0  0  0  0  0
   53.5449    2.9002    5.5195 H   0  0  0  0  0  0  0  0  0  0  0  0
   56.5103    8.2917    4.8628 C   0  0  0  0  0  0  0  0  0  0  0  0
   55.7749    8.7780    3.5965 C   0  0  0  0  0  0  0  0  0  0  0  0
   55.9627   10.2509    3.3627 C   0  0  0  0  0  0  0  0  0  0  0  0
   56.0124   10.7336    2.2264 O   0  0  0  0  0  0  0  0  0  0  0  0
   56.1278   10.9664    4.4236 O   0  0  0  0  0  0  0  0  0  0  0  0
   55.8877   10.1838    1.4780 H   0  0  0  0  0  0  0  0  0  0  0  0
 13 14  1  0  0  0
 13 12  1  0  0  0
 13 15  2  0  0  0
 12 11  1  0  0  0
  7  9  2  0  0  0
  8  9  1  0  0  0
  1  2  1  0  0  0
  1  3  2  0  0  0
  2  4  2  0  0  0
  3  5  1  0  0  0
  3 11  1  0  0  0
  4  6  1  0  0  0
  9  6  1  0  0  0
  5  6  2  0  0  0
 14 16  1  0  0  0
  8 10  1  0  0  0
M  END
> <minimizedAffinity>
-6.82445

$$$$
4BPS_3EB_A_1345


 16 16  0  0  0  0  0  0  0  0999 V2000
   54.8564    3.8252    4.6876 C   0  0  0  0  0  0  0  0  0  0  0  0
   54.4952    4.5768    3.5760 C   0  0  0  0  0  0  0  0  0  0  0  0
   55.6691    4.3740    5.6801 C   0  0  0  0  0  0  0  0  0  0  0  0
   54.9465    5.8776    3.4322 C   0  0  0  0  0  0  0  0  0  0  0  0
   56.0982    5.6931    5.5288 C   0  0  0  0  0  0  0  0  0  0  0  0
   55.7305    6.4595    4.4231 C   0  0  0  0  0  0  0  0  0  0  0  0
   55.5064    8.7169    3.6578 O   0  0  0  0  0  0  0  0  0  0  0  0
   57.2877    8.2120    4.8801 O   0  0  0  0  0  0  0  0  0  0  0  0
   56.1702    7.8948    4.3214 C   0  0  0  0  0  0  0  0  0  0  0  0
   57.7635    7.5723    5.3723 H   0  0  0  0  0  0  0  0  0  0  0  0
   56.1364    3.5684    6.8821 C   0  0  0  0  0  0  0  0  0  0  0  0
   56.3932    4.3675    8.1768 C   0  0  0  0  0  0  0  0  0  0  0  0
   57.6346    5.2099    8.0858 C   0  0  0  0  0  0  0  0  0  0  0  0
   58.6709    4.7959    7.5554 O   0  0  0  0  0  0  0  0  0  0  0  0
   57.5641    6.3681    8.6500 O   0  0  0  0  0  0  0  0  0  0  0  0
   58.6861    3.9490    7.1547 H   0  0  0  0  0  0  0  0  0  0  0  0
 13 14  1  0  0  0
 13 12  1  0  0  0
 13 15  2  0  0  0
 12 11  1  0  0  0
  7  9  2  0  0  0
  8  9  1  0  0  0
  1  2  1  0  0  0
  1  3  2  0  0  0
  2  4  2  0  0  0
  3  5  1  0  0  0
  3 11  1  0  0  0
  4  6  1  0  0  0
  9  6  1  0  0  0
  5  6  2  0  0  0
 14 16  1  0  0  0
  8 10  1  0  0  0
M  END
> <minimizedAffinity>
-6.45439

$$$$
4BPS_3EB_A_1345


 16 16  0  0  0  0  0  0  0  0999 V2000
   56.0287    4.2604    5.0370 C   0  0  0  0  0  0  0  0  0  0  0  0
   55.9835    3.4516    6.1659 C   0  0  0  0  0  0  0  0  0  0  0  0
   56.2509    5.6326    5.1570 C   0  0  0  0  0  0  0  0  0  0  0  0
   56.1466    3.9984    7.4273 C   0  0  0  0  0  0  0  0  0  0  0  0
   56.4334    6.1636    6.4344 C   0  0  0  0  0  0  0  0  0  0  0  0
   56.4024    5.3579    7.5725 C   0  0  0  0  0  0  0  0  0  0  0  0
   56.2741    5.3758    9.9631 O   0  0  0  0  0  0  0  0  0  0  0  0
   57.2083    7.1231    8.9652 O   0  0  0  0  0  0  0  0  0  0  0  0
   56.6556    5.9592    8.9283 C   0  0  0  0  0  0  0  0  0  0  0  0
   57.4844    7.5360    8.1707 H   0  0  0  0  0  0  0  0  0  0  0  0
   56.2489    6.5622    3.9536 C   0  0  0  0  0  0  0  0  0  0  0  0
   55.2647    7.7490    4.0141 C   0  0  0  0  0  0  0  0  0  0  0  0
   55.9755    9.0714    4.0847 C   0  0  0  0  0  0  0  0  0  0  0  0
   56.5613    9.4477    5.1056 O   0  0  0  0  0  0  0  0  0  0  0  0
   55.8823    9.8106    3.0314 O   0  0  0  0  0  0  0  0  0  0  0  0
   56.6095    8.8841    5.8526 H   0  0  0  0  0  0  0  0  0  0  0  0
 13 14  1  0  0  0
 13 12  1  0  0  0
 13 15  2  0  0  0
 12 11  1  0  0  0
  7  9  2  0  0  0
  8  9  1  0  0  0
  1  2  1  0  0  0
  1  3  2  0  0  0
  2  4  2  0  0  0
  3  5  1  0  0  0
  3 11  1  0  0  0
  4  6  1  0  0  0
  9  6  1  0  0  0
  5  6  2  0  0  0
 14 16  1  0  0  0
  8 10  1  0  0  0
M  END
> <minimizedAffinity>
-6.33425

$$$$
4BPS_3EB_A_1345


 16 16  0  0  0  0  0  0  0  0999 V2000
   55.0433    6.0246    4.0651 C   0  0  0  0  0  0  0  0  0  0  0  0
   54.4200    4.8477    4.4614 C   0  0  0  0  0  0  0  0  0  0  0  0
   56.0651    6.5796    4.8362 C   0  0  0  0  0  0  0  0  0  0  0  0
   54.7965    4.2153    5.6340 C   0  0  0  0  0  0  0  0  0  0  0  0
   56.4456    5.9180    6.0044 C   0  0  0  0  0  0  0  0  0  0  0  0
   55.8346    4.7296    6.4039 C   0  0  0  0  0  0  0  0  0  0  0  0
   56.5439    4.6545    8.6892 O   0  0  0  0  0  0  0  0  0  0  0  0
   56.5286    2.7516    7.5488 O   0  0  0  0  0  0  0  0  0  0  0  0
   56.3083    4.0182    7.6422 C   0  0  0  0  0  0  0  0  0  0  0  0
   56.3415    2.3012    6.7487 H   0  0  0  0  0  0  0  0  0  0  0  0
   56.7327    7.8959    4.4706 C   0  0  0  0  0  0  0  0  0  0  0  0
   56.1576    9.1591    5.1447 C   0  0  0  0  0  0  0  0  0  0  0  0
   56.0252   10.3051    4.1813 C   0  0  0  0  0  0  0  0  0  0  0  0
   55.8603   11.4683    4.5642 O   0  0  0  0  0  0  0  0  0  0  0  0
   56.0354    9.9858    2.9313 O   0  0  0  0  0  0  0  0  0  0  0  0
   55.8587   11.6641    5.4806 H   0  0  0  0  0  0  0  0  0  0  0  0
 13 14  1  0  0  0
 13 12  1  0  0  0
 13 15  2  0  0  0
 12 11  1  0  0  0
  7  9  2  0  0  0
  8  9  1  0  0  0
  1  2  1  0  0  0
  1  3  2  0  0  0
  2  4  2  0  0  0
  3  5  1  0  0  0
  3 11  1  0  0  0
  4  6  1  0  0  0
  9  6  1  0  0  0
  5  6  2  0  0  0
 14 16  1  0  0  0
  8 10  1  0  0  0
M  END
> <minimizedAffinity>
-5.94154

$$$$
