3T2W_BTN_A_600


 19 20  0  0  0  0  0  0  0  0999 V2000
   -8.6926  -26.3964    0.4083 C   0  0  0  0  0  0  0  0  0  0  0  0
   -7.3866  -27.4834    0.5771 S   0  0  0  0  0  0  0  0  0  0  0  0
   -8.1056  -28.4844   -0.7524 C   0  0  0  0  0  0  0  0  0  0  0  0
   -8.5112  -27.4557   -1.8318 C   0  0  0  0  0  0  0  0  0  0  0  0
   -7.4249  -27.0479   -2.6975 N   0  0  0  0  0  0  0  0  0  0  0  0
   -7.2072  -25.7234   -2.5392 C   0  0  0  0  0  0  0  0  0  0  0  0
   -6.2348  -25.0639   -3.2565 O   0  0  0  0  0  0  0  0  0  0  0  0
   -7.9869  -25.1829   -1.6240 N   0  0  0  0  0  0  0  0  0  0  0  0
   -8.9123  -26.1656   -1.0895 C   0  0  0  0  0  0  0  0  0  0  0  0
   -6.9249  -27.6404   -3.3043 H   0  0  0  0  0  0  0  0  0  0  0  0
   -7.9471  -24.2407   -1.3412 H   0  0  0  0  0  0  0  0  0  0  0  0
   -8.6005  -25.0900    1.2502 C   0  0  0  0  0  0  0  0  0  0  0  0
   -9.9640  -24.7802    1.8701 C   0  0  0  0  0  0  0  0  0  0  0  0
  -10.0002  -25.0210    3.3870 C   0  0  0  0  0  0  0  0  0  0  0  0
   -9.5740  -26.4311    3.8111 C   0  0  0  0  0  0  0  0  0  0  0  0
   -8.7812  -26.5552    5.1072 C   0  0  0  0  0  0  0  0  0  0  0  0
   -7.7281  -25.8969    5.3117 O   0  0  0  0  0  0  0  0  0  0  0  0
   -9.1559  -27.3420    6.0019 O   0  0  0  0  0  0  0  0  0  0  0  0
   -9.9354  -27.8485    5.8840 H   0  0  0  0  0  0  0  0  0  0  0  0
 16 17  2  0  0  0
 16 18  1  0  0  0
 16 15  1  0  0  0
 15 14  1  0  0  0
 14 13  1  0  0  0
 13 12  1  0  0  0
 12  1  1  0  0  0
  1  2  1  0  0  0
  1  9  1  0  0  0
  2  3  1  0  0  0
  3  4  1  0  0  0
  4  5  1  0  0  0
  4  9  1  0  0  0
  5  6  1  0  0  0
  6  7  2  0  0  0
  6  8  1  0  0  0
  8  9  1  0  0  0
 18 19  1  0  0  0
  5 10  1  0  0  0
  8 11  1  0  0  0
M  END
> <minimizedAffinity>
-7.24084

$$$$
3T2W_BTN_A_600


 19 20  0  0  0  0  0  0  0  0999 V2000
   -9.0961  -26.9033   -0.8966 C   0  0  0  0  0  0  0  0  0  0  0  0
   -8.5191  -28.0121    0.2667 S   0  0  0  0  0  0  0  0  0  0  0  0
   -7.8384  -29.0089   -1.0858 C   0  0  0  0  0  0  0  0  0  0  0  0
   -7.1573  -27.9804   -2.0164 C   0  0  0  0  0  0  0  0  0  0  0  0
   -5.8248  -27.5976   -1.5996 N   0  0  0  0  0  0  0  0  0  0  0  0
   -5.8131  -26.2762   -1.3161 C   0  0  0  0  0  0  0  0  0  0  0  0
   -4.6635  -25.6388   -0.9074 O   0  0  0  0  0  0  0  0  0  0  0  0
   -6.9998  -25.7160   -1.4411 N   0  0  0  0  0  0  0  0  0  0  0  0
   -7.9768  -26.6786   -1.9172 C   0  0  0  0  0  0  0  0  0  0  0  0
   -5.0512  -28.2029   -1.5333 H   0  0  0  0  0  0  0  0  0  0  0  0
   -7.1968  -24.7728   -1.2391 H   0  0  0  0  0  0  0  0  0  0  0  0
   -9.7207  -25.5931   -0.3333 C   0  0  0  0  0  0  0  0  0  0  0  0
   -9.9886  -25.7532    1.1640 C   0  0  0  0  0  0  0  0  0  0  0  0
   -9.3722  -24.6256    2.0060 C   0  0  0  0  0  0  0  0  0  0  0  0
   -8.1585  -25.0532    2.8391 C   0  0  0  0  0  0  0  0  0  0  0  0
   -8.4273  -25.5289    4.2622 C   0  0  0  0  0  0  0  0  0  0  0  0
   -7.5310  -25.5325    5.1459 O   0  0  0  0  0  0  0  0  0  0  0  0
   -9.5583  -25.9515    4.5820 O   0  0  0  0  0  0  0  0  0  0  0  0
  -10.2498  -25.9635    3.9499 H   0  0  0  0  0  0  0  0  0  0  0  0
 16 17  2  0  0  0
 16 18  1  0  0  0
 16 15  1  0  0  0
 15 14  1  0  0  0
 14 13  1  0  0  0
 13 12  1  0  0  0
 12  1  1  0  0  0
  1  2  1  0  0  0
  1  9  1  0  0  0
  2  3  1  0  0  0
  3  4  1  0  0  0
  4  5  1  0  0  0
  4  9  1  0  0  0
  5  6  1  0  0  0
  6  7  2  0  0  0
  6  8  1  0  0  0
  8  9  1  0  0  0
 18 19  1  0  0  0
  5 10  1  0  0  0
  8 11  1  0  0  0
M  END
> <minimizedAffinity>
-7.10610

$$$$
3T2W_BTN_A_600


 19 20  0  0  0  0  0  0  0  0999 V2000
   -8.2735  -25.5872    0.1149 C   0  0  0  0  0  0  0  0  0  0  0  0
   -9.7579  -26.0742   -0.5745 S   0  0  0  0  0  0  0  0  0  0  0  0
   -8.8245  -27.0359   -1.7953 C   0  0  0  0  0  0  0  0  0  0  0  0
   -7.7391  -27.7591   -0.9667 C   0  0  0  0  0  0  0  0  0  0  0  0
   -8.1960  -28.9748   -0.3270 N   0  0  0  0  0  0  0  0  0  0  0  0
   -8.1060  -28.8292    1.0136 C   0  0  0  0  0  0  0  0  0  0  0  0
   -8.4629  -29.8441    1.8725 O   0  0  0  0  0  0  0  0  0  0  0  0
   -7.6872  -27.6314    1.3709 N   0  0  0  0  0  0  0  0  0  0  0  0
   -7.3763  -26.8248    0.2045 C   0  0  0  0  0  0  0  0  0  0  0  0
   -8.5202  -29.7787   -0.7938 H   0  0  0  0  0  0  0  0  0  0  0  0
   -7.5974  -27.3254    2.3023 H   0  0  0  0  0  0  0  0  0  0  0  0
   -8.3752  -24.7735    1.4384 C   0  0  0  0  0  0  0  0  0  0  0  0
   -9.8375  -24.6869    1.8781 C   0  0  0  0  0  0  0  0  0  0  0  0
  -10.0277  -24.9531    3.3792 C   0  0  0  0  0  0  0  0  0  0  0  0
   -9.6780  -26.3807    3.8149 C   0  0  0  0  0  0  0  0  0  0  0  0
   -8.8145  -26.5330    5.0618 C   0  0  0  0  0  0  0  0  0  0  0  0
   -7.7647  -25.8601    5.2336 O   0  0  0  0  0  0  0  0  0  0  0  0
   -9.1254  -27.3581    5.9463 O   0  0  0  0  0  0  0  0  0  0  0  0
   -9.9003  -27.8764    5.8519 H   0  0  0  0  0  0  0  0  0  0  0  0
 16 17  2  0  0  0
 16 18  1  0  0  0
 16 15  1  0  0  0
 15 14  1  0  0  0
 14 13  1  0  0  0
 13 12  1  0  0  0
 12  1  1  0  0  0
  1  2  1  0  0  0
  1  9  1  0  0  0
  2  3  1  0  0  0
  3  4  1  0  0  0
  4  5  1  0  0  0
  4  9  1  0  0  0
  5  6  1  0  0  0
  6  7  2  0  0  0
  6  8  1  0  0  0
  8  9  1  0  0  0
 18 19  1  0  0  0
  5 10  1  0  0  0
  8 11  1  0  0  0
M  END
> <minimizedAffinity>
-6.88305

$$$$
3T2W_BTN_A_600


 19 20  0  0  0  0  0  0  0  0999 V2000
   -8.5029  -26.7647    1.0581 C   0  0  0  0  0  0  0  0  0  0  0  0
   -8.4312  -25.0788    0.7967 S   0  0  0  0  0  0  0  0  0  0  0  0
  -10.0456  -24.9292    1.6077 C   0  0  0  0  0  0  0  0  0  0  0  0
   -9.9306  -25.8253    2.8613 C   0  0  0  0  0  0  0  0  0  0  0  0
   -9.2823  -25.1864    3.9870 N   0  0  0  0  0  0  0  0  0  0  0  0
   -8.1475  -25.8583    4.2828 C   0  0  0  0  0  0  0  0  0  0  0  0
   -7.3363  -25.4747    5.3267 O   0  0  0  0  0  0  0  0  0  0  0  0
   -7.9143  -26.8574    3.4550 N   0  0  0  0  0  0  0  0  0  0  0  0
   -8.9920  -26.9907    2.4914 C   0  0  0  0  0  0  0  0  0  0  0  0
   -9.6147  -24.3902    4.4611 H   0  0  0  0  0  0  0  0  0  0  0  0
   -7.1175  -27.4348    3.4861 H   0  0  0  0  0  0  0  0  0  0  0  0
   -7.2192  -27.5636    0.6867 C   0  0  0  0  0  0  0  0  0  0  0  0
   -6.4831  -26.8546   -0.4512 C   0  0  0  0  0  0  0  0  0  0  0  0
   -6.0727  -27.8079   -1.5840 C   0  0  0  0  0  0  0  0  0  0  0  0
   -5.5763  -27.1030   -2.8515 C   0  0  0  0  0  0  0  0  0  0  0  0
   -6.5646  -26.1914   -3.5700 C   0  0  0  0  0  0  0  0  0  0  0  0
   -6.5750  -24.9454   -3.3920 O   0  0  0  0  0  0  0  0  0  0  0  0
   -7.4133  -26.6728   -4.3495 O   0  0  0  0  0  0  0  0  0  0  0  0
   -7.4352  -27.5964   -4.5060 H   0  0  0  0  0  0  0  0  0  0  0  0
 16 17  2  0  0  0
 16 18  1  0  0  0
 16 15  1  0  0  0
 15 14  1  0  0  0
 14 13  1  0  0  0
 13 12  1  0  0  0
 12  1  1  0  0  0
  1  2  1  0  0  0
  1  9  1  0  0  0
  2  3  1  0  0  0
  3  4  1  0  0  0
  4  5  1  0  0  0
  4  9  1  0  0  0
  5  6  1  0  0  0
  6  7  2  0  0  0
  6  8  1  0  0  0
  8  9  1  0  0  0
 18 19  1  0  0  0
  5 10  1  0  0  0
  8 11  1  0  0  0
M  END
> <minimizedAffinity>
-6.64656

$$$$
3T2W_BTN_A_600


 19 20  0  0  0  0  0  0  0  0999 V2000
   -8.5214  -28.3909    2.1643 C   0  0  0  0  0  0  0  0  0  0  0  0
  -10.1261  -28.8664    2.5026 S   0  0  0  0  0  0  0  0  0  0  0  0
   -9.8292  -28.4688    4.2463 C   0  0  0  0  0  0  0  0  0  0  0  0
   -9.0997  -27.1071    4.2113 C   0  0  0  0  0  0  0  0  0  0  0  0
   -9.9820  -25.9670    4.0796 N   0  0  0  0  0  0  0  0  0  0  0  0
   -9.7120  -25.3313    2.9179 C   0  0  0  0  0  0  0  0  0  0  0  0
  -10.3963  -24.1971    2.5432 O   0  0  0  0  0  0  0  0  0  0  0  0
   -8.7781  -25.9348    2.2099 N   0  0  0  0  0  0  0  0  0  0  0  0
   -8.2553  -27.0870    2.9218 C   0  0  0  0  0  0  0  0  0  0  0  0
  -10.6687  -25.6979    4.7318 H   0  0  0  0  0  0  0  0  0  0  0  0
   -8.4760  -25.6437    1.3192 H   0  0  0  0  0  0  0  0  0  0  0  0
   -8.1306  -28.3468    0.6578 C   0  0  0  0  0  0  0  0  0  0  0  0
   -9.3860  -28.4912   -0.2039 C   0  0  0  0  0  0  0  0  0  0  0  0
   -9.6974  -27.2298   -1.0237 C   0  0  0  0  0  0  0  0  0  0  0  0
   -8.5666  -26.7937   -1.9623 C   0  0  0  0  0  0  0  0  0  0  0  0
   -7.8426  -25.4966   -1.6196 C   0  0  0  0  0  0  0  0  0  0  0  0
   -8.2497  -24.7238   -0.7134 O   0  0  0  0  0  0  0  0  0  0  0  0
   -6.8229  -25.1574   -2.2560 O   0  0  0  0  0  0  0  0  0  0  0  0
   -6.4913  -25.7081   -2.9377 H   0  0  0  0  0  0  0  0  0  0  0  0
 16 17  2  0  0  0
 16 18  1  0  0  0
 16 15  1  0  0  0
 15 14  1  0  0  0
 14 13  1  0  0  0
 13 12  1  0  0  0
 12  1  1  0  0  0
  1  2  1  0  0  0
  1  9  1  0  0  0
  2  3  1  0  0  0
  3  4  1  0  0  0
  4  5  1  0  0  0
  4  9  1  0  0  0
  5  6  1  0  0  0
  6  7  2  0  0  0
  6  8  1  0  0  0
  8  9  1  0  0  0
 18 19  1  0  0  0
  5 10  1  0  0  0
  8 11  1  0  0  0
M  END
> <minimizedAffinity>
-6.37400

$$$$
3T2W_BTN_A_600


 19 20  0  0  0  0  0  0  0  0999 V2000
   -7.6044  -25.7788   -0.7446 C   0  0  0  0  0  0  0  0  0  0  0  0
   -7.2153  -25.5131   -2.3859 S   0  0  0  0  0  0  0  0  0  0  0  0
   -5.5782  -26.2236   -2.0667 C   0  0  0  0  0  0  0  0  0  0  0  0
   -5.8650  -27.4867   -1.2242 C   0  0  0  0  0  0  0  0  0  0  0  0
   -6.2392  -28.6463   -2.0059 N   0  0  0  0  0  0  0  0  0  0  0  0
   -7.4972  -29.0142   -1.6761 C   0  0  0  0  0  0  0  0  0  0  0  0
   -8.1040  -30.1034   -2.2595 O   0  0  0  0  0  0  0  0  0  0  0  0
   -8.0507  -28.2076   -0.7925 N   0  0  0  0  0  0  0  0  0  0  0  0
   -7.1135  -27.1810   -0.3735 C   0  0  0  0  0  0  0  0  0  0  0  0
   -5.6687  -29.0950   -2.6711 H   0  0  0  0  0  0  0  0  0  0  0  0
   -8.9742  -28.2902   -0.4616 H   0  0  0  0  0  0  0  0  0  0  0  0
   -9.0807  -25.4905   -0.3426 C   0  0  0  0  0  0  0  0  0  0  0  0
   -9.1197  -24.8423    1.0422 C   0  0  0  0  0  0  0  0  0  0  0  0
   -9.8172  -25.7187    2.0937 C   0  0  0  0  0  0  0  0  0  0  0  0
   -9.4586  -25.3697    3.5426 C   0  0  0  0  0  0  0  0  0  0  0  0
   -8.1440  -25.9206    4.0834 C   0  0  0  0  0  0  0  0  0  0  0  0
   -7.6248  -25.4878    5.1451 O   0  0  0  0  0  0  0  0  0  0  0  0
   -7.5333  -26.8157    3.4624 O   0  0  0  0  0  0  0  0  0  0  0  0
   -7.8901  -27.1618    2.6681 H   0  0  0  0  0  0  0  0  0  0  0  0
 16 17  2  0  0  0
 16 18  1  0  0  0
 16 15  1  0  0  0
 15 14  1  0  0  0
 14 13  1  0  0  0
 13 12  1  0  0  0
 12  1  1  0  0  0
  1  2  1  0  0  0
  1  9  1  0  0  0
  2  3  1  0  0  0
  3  4  1  0  0  0
  4  5  1  0  0  0
  4  9  1  0  0  0
  5  6  1  0  0  0
  6  7  2  0  0  0
  6  8  1  0  0  0
  8  9  1  0  0  0
 18 19  1  0  0  0
  5 10  1  0  0  0
  8 11  1  0  0  0
M  END
> <minimizedAffinity>
-6.29496

$$$$
3T2W_BTN_A_600


 19 20  0  0  0  0  0  0  0  0999 V2000
   -8.6175  -27.7547   -0.8252 C   0  0  0  0  0  0  0  0  0  0  0  0
   -7.8924  -28.6577   -2.0801 S   0  0  0  0  0  0  0  0  0  0  0  0
   -8.1802  -27.2568   -3.1942 C   0  0  0  0  0  0  0  0  0  0  0  0
   -7.7474  -26.0196   -2.3760 C   0  0  0  0  0  0  0  0  0  0  0  0
   -6.3219  -25.7682   -2.3940 N   0  0  0  0  0  0  0  0  0  0  0  0
   -5.8382  -25.8771   -1.1367 C   0  0  0  0  0  0  0  0  0  0  0  0
   -4.5057  -25.6717   -0.8587 O   0  0  0  0  0  0  0  0  0  0  0  0
   -6.7610  -26.2260   -0.2623 N   0  0  0  0  0  0  0  0  0  0  0  0
   -8.0616  -26.3298   -0.8991 C   0  0  0  0  0  0  0  0  0  0  0  0
   -5.7900  -25.5524   -3.1938 H   0  0  0  0  0  0  0  0  0  0  0  0
   -6.5913  -26.3933    0.6929 H   0  0  0  0  0  0  0  0  0  0  0  0
   -8.5544  -28.3933    0.5933 C   0  0  0  0  0  0  0  0  0  0  0  0
   -9.8251  -28.0463    1.3708 C   0  0  0  0  0  0  0  0  0  0  0  0
   -9.5858  -27.9218    2.8833 C   0  0  0  0  0  0  0  0  0  0  0  0
   -9.1640  -26.5209    3.3409 C   0  0  0  0  0  0  0  0  0  0  0  0
   -8.8409  -26.3427    4.8200 C   0  0  0  0  0  0  0  0  0  0  0  0
   -9.1997  -27.1809    5.6877 O   0  0  0  0  0  0  0  0  0  0  0  0
   -8.2191  -25.3329    5.2116 O   0  0  0  0  0  0  0  0  0  0  0  0
   -7.9364  -24.6878    4.5936 H   0  0  0  0  0  0  0  0  0  0  0  0
 16 17  2  0  0  0
 16 18  1  0  0  0
 16 15  1  0  0  0
 15 14  1  0  0  0
 14 13  1  0  0  0
 13 12  1  0  0  0
 12  1  1  0  0  0
  1  2  1  0  0  0
  1  9  1  0  0  0
  2  3  1  0  0  0
  3  4  1  0  0  0
  4  5  1  0  0  0
  4  9  1  0  0  0
  5  6  1  0  0  0
  6  7  2  0  0  0
  6  8  1  0  0  0
  8  9  1  0  0  0
 18 19  1  0  0  0
  5 10  1  0  0  0
  8 11  1  0  0  0
M  END
> <minimizedAffinity>
-6.11010

$$$$
3T2W_BTN_A_600


 19 20  0  0  0  0  0  0  0  0999 V2000
   -7.3003  -26.8272    0.3116 C   0  0  0  0  0  0  0  0  0  0  0  0
   -8.6662  -27.8241    0.0739 S   0  0  0  0  0  0  0  0  0  0  0  0
   -8.4441  -28.4544    1.7592 C   0  0  0  0  0  0  0  0  0  0  0  0
   -8.1731  -27.1926    2.6089 C   0  0  0  0  0  0  0  0  0  0  0  0
   -9.3688  -26.4817    3.0097 N   0  0  0  0  0  0  0  0  0  0  0  0
   -9.3506  -25.2447    2.4654 C   0  0  0  0  0  0  0  0  0  0  0  0
  -10.3650  -24.3431    2.6956 O   0  0  0  0  0  0  0  0  0  0  0  0
   -8.3019  -25.0414    1.6929 N   0  0  0  0  0  0  0  0  0  0  0  0
   -7.4232  -26.1971    1.7018 C   0  0  0  0  0  0  0  0  0  0  0  0
  -10.0810  -26.8416    3.5862 H   0  0  0  0  0  0  0  0  0  0  0  0
   -8.1370  -24.2176    1.1797 H   0  0  0  0  0  0  0  0  0  0  0  0
   -6.9969  -25.8100   -0.8273 C   0  0  0  0  0  0  0  0  0  0  0  0
   -5.5029  -25.8338   -1.1540 C   0  0  0  0  0  0  0  0  0  0  0  0
   -5.2193  -25.7733   -2.6628 C   0  0  0  0  0  0  0  0  0  0  0  0
   -5.5690  -27.0587   -3.4213 C   0  0  0  0  0  0  0  0  0  0  0  0
   -6.5461  -26.9330   -4.5847 C   0  0  0  0  0  0  0  0  0  0  0  0
   -6.5905  -27.7805   -5.5143 O   0  0  0  0  0  0  0  0  0  0  0  0
   -7.3239  -25.9581   -4.6514 O   0  0  0  0  0  0  0  0  0  0  0  0
   -7.3186  -25.3075   -3.9771 H   0  0  0  0  0  0  0  0  0  0  0  0
 16 17  2  0  0  0
 16 18  1  0  0  0
 16 15  1  0  0  0
 15 14  1  0  0  0
 14 13  1  0  0  0
 13 12  1  0  0  0
 12  1  1  0  0  0
  1  2  1  0  0  0
  1  9  1  0  0  0
  2  3  1  0  0  0
  3  4  1  0  0  0
  4  5  1  0  0  0
  4  9  1  0  0  0
  5  6  1  0  0  0
  6  7  2  0  0  0
  6  8  1  0  0  0
  8  9  1  0  0  0
 18 19  1  0  0  0
  5 10  1  0  0  0
  8 11  1  0  0  0
M  END
> <minimizedAffinity>
-6.07614

$$$$
3T2W_BTN_A_600


 19 20  0  0  0  0  0  0  0  0999 V2000
   -9.7332  -26.3770   -0.3036 C   0  0  0  0  0  0  0  0  0  0  0  0
   -9.2470  -27.8793    0.3462 S   0  0  0  0  0  0  0  0  0  0  0  0
   -8.9525  -28.4648   -1.3440 C   0  0  0  0  0  0  0  0  0  0  0  0
   -8.2026  -27.3003   -2.0291 C   0  0  0  0  0  0  0  0  0  0  0  0
   -6.7792  -27.2779   -1.7663 N   0  0  0  0  0  0  0  0  0  0  0  0
   -6.4699  -26.1406   -1.1049 C   0  0  0  0  0  0  0  0  0  0  0  0
   -5.1747  -25.8509   -0.7396 O   0  0  0  0  0  0  0  0  0  0  0  0
   -7.5279  -25.4011   -0.8371 N   0  0  0  0  0  0  0  0  0  0  0  0
   -8.7283  -25.9974   -1.3949 C   0  0  0  0  0  0  0  0  0  0  0  0
   -6.1391  -27.9788   -2.0274 H   0  0  0  0  0  0  0  0  0  0  0  0
   -7.5068  -24.5587   -0.3279 H   0  0  0  0  0  0  0  0  0  0  0  0
  -10.0098  -25.2479    0.7322 C   0  0  0  0  0  0  0  0  0  0  0  0
   -9.1573  -25.4756    1.9815 C   0  0  0  0  0  0  0  0  0  0  0  0
   -9.9938  -25.5769    3.2662 C   0  0  0  0  0  0  0  0  0  0  0  0
   -9.5665  -26.7083    4.2082 C   0  0  0  0  0  0  0  0  0  0  0  0
  -10.4662  -27.9375    4.2682 C   0  0  0  0  0  0  0  0  0  0  0  0
  -11.5049  -27.9709    4.9784 O   0  0  0  0  0  0  0  0  0  0  0  0
  -10.1757  -28.9630    3.6173 O   0  0  0  0  0  0  0  0  0  0  0  0
   -9.4097  -28.9742    3.0779 H   0  0  0  0  0  0  0  0  0  0  0  0
 16 17  2  0  0  0
 16 18  1  0  0  0
 16 15  1  0  0  0
 15 14  1  0  0  0
 14 13  1  0  0  0
 13 12  1  0  0  0
 12  1  1  0  0  0
  1  2  1  0  0  0
  1  9  1  0  0  0
  2  3  1  0  0  0
  3  4  1  0  0  0
  4  5  1  0  0  0
  4  9  1  0  0  0
  5  6  1  0  0  0
  6  7  2  0  0  0
  6  8  1  0  0  0
  8  9  1  0  0  0
 18 19  1  0  0  0
  5 10  1  0  0  0
  8 11  1  0  0  0
M  END
> <minimizedAffinity>
-5.91004

$$$$
3T2W_BTN_A_600


 19 20  0  0  0  0  0  0  0  0999 V2000
   -8.4727  -27.3279   -2.6757 C   0  0  0  0  0  0  0  0  0  0  0  0
   -7.6915  -28.8131   -2.3596 S   0  0  0  0  0  0  0  0  0  0  0  0
   -6.6141  -28.4985   -3.7833 C   0  0  0  0  0  0  0  0  0  0  0  0
   -6.2012  -27.0170   -3.6330 C   0  0  0  0  0  0  0  0  0  0  0  0
   -5.0967  -26.8007   -2.7225 N   0  0  0  0  0  0  0  0  0  0  0  0
   -5.5201  -26.0430   -1.6866 C   0  0  0  0  0  0  0  0  0  0  0  0
   -4.6667  -25.6693   -0.6732 O   0  0  0  0  0  0  0  0  0  0  0  0
   -6.8050  -25.7560   -1.7546 N   0  0  0  0  0  0  0  0  0  0  0  0
   -7.3883  -26.2883   -2.9728 C   0  0  0  0  0  0  0  0  0  0  0  0
   -4.1835  -27.1496   -2.8393 H   0  0  0  0  0  0  0  0  0  0  0  0
   -7.3016  -25.2495   -1.0719 H   0  0  0  0  0  0  0  0  0  0  0  0
   -9.5209  -26.8745   -1.6175 C   0  0  0  0  0  0  0  0  0  0  0  0
   -9.4662  -27.8072   -0.4065 C   0  0  0  0  0  0  0  0  0  0  0  0
   -8.8211  -27.1523    0.8245 C   0  0  0  0  0  0  0  0  0  0  0  0
   -9.8251  -26.6107    1.8484 C   0  0  0  0  0  0  0  0  0  0  0  0
   -9.8749  -25.0989    2.0378 C   0  0  0  0  0  0  0  0  0  0  0  0
  -10.3838  -24.5702    3.0604 O   0  0  0  0  0  0  0  0  0  0  0  0
   -9.4212  -24.3386    1.1570 O   0  0  0  0  0  0  0  0  0  0  0  0
   -9.0351  -24.6970    0.3821 H   0  0  0  0  0  0  0  0  0  0  0  0
 16 17  2  0  0  0
 16 18  1  0  0  0
 16 15  1  0  0  0
 15 14  1  0  0  0
 14 13  1  0  0  0
 13 12  1  0  0  0
 12  1  1  0  0  0
  1  2  1  0  0  0
  1  9  1  0  0  0
  2  3  1  0  0  0
  3  4  1  0  0  0
  4  5  1  0  0  0
  4  9  1  0  0  0
  5  6  1  0  0  0
  6  7  2  0  0  0
  6  8  1  0  0  0
  8  9  1  0  0  0
 18 19  1  0  0  0
  5 10  1  0  0  0
  8 11  1  0  0  0
M  END
> <minimizedAffinity>
-5.90701

$$$$
