4O0B_2QA_A_4000


 30 34  0  0  0  0  0  0  0  0999 V2000
   -1.5284  -11.2093  -26.1155 O   0  0  0  0  0  0  0  0  0  0  0  0
   -1.0264  -11.5147  -25.0391 C   0  0  0  0  0  0  0  0  0  0  0  0
   -1.7107  -12.2957  -24.1770 N   0  0  0  0  0  0  0  0  0  0  0  0
   -1.1775  -12.8488  -22.9177 C   0  0  0  0  0  0  0  0  0  0  0  0
    0.2663  -13.2270  -23.1722 C   0  0  0  0  0  0  0  0  0  0  0  0
    1.0269  -12.0853  -23.8054 C   0  0  0  0  0  0  0  0  0  0  0  0
    2.3784  -11.9298  -23.5111 C   0  0  0  0  0  0  0  0  0  0  0  0
    0.3744  -11.1428  -24.6567 C   0  0  0  0  0  0  0  0  0  0  0  0
    1.0917  -10.0089  -25.1374 C   0  0  0  0  0  0  0  0  0  0  0  0
    2.4553   -9.8945  -24.8340 C   0  0  0  0  0  0  0  0  0  0  0  0
    3.0919  -10.8558  -24.0456 C   0  0  0  0  0  0  0  0  0  0  0  0
   -2.6425  -12.5144  -24.4075 H   0  0  0  0  0  0  0  0  0  0  0  0
    6.5412   -9.7898  -23.6466 C   0  0  0  0  0  0  0  0  0  0  0  0
    5.1969   -9.5898  -23.5569 C   0  0  0  0  0  0  0  0  0  0  0  0
    5.4756  -11.7403  -24.0980 C   0  0  0  0  0  0  0  0  0  0  0  0
    6.7319  -11.1755  -23.9807 C   0  0  0  0  0  0  0  0  0  0  0  0
    7.9185  -12.0393  -24.1948 C   0  0  0  0  0  0  0  0  0  0  0  0
    7.6939  -13.5012  -24.5056 C   0  0  0  0  0  0  0  0  0  0  0  0
    4.5167  -10.7634  -23.8238 N   0  0  0  0  0  0  0  0  0  0  0  0
    5.2213  -13.1606  -24.5095 C   0  0  0  0  0  0  0  0  0  0  0  0
    6.3886  -13.8341  -25.2444 C   0  0  0  0  0  0  0  0  0  0  0  0
    6.1729  -15.3455  -25.2566 C   0  0  0  0  0  0  0  0  0  0  0  0
    6.4599  -13.3360  -26.6921 C   0  0  0  0  0  0  0  0  0  0  0  0
    9.0609  -11.5996  -24.1502 O   0  0  0  0  0  0  0  0  0  0  0  0
    7.5847   -8.7203  -23.4536 C   0  0  0  0  0  0  0  0  0  0  0  0
    0.4018   -8.8859  -25.9011 C   0  0  0  0  0  0  0  0  0  0  0  0
    0.7646   -8.7370  -27.3940 C   0  0  0  0  0  0  0  0  0  0  0  0
    0.2547   -7.3458  -27.7808 C   0  0  0  0  0  0  0  0  0  0  0  0
    0.0564   -6.5682  -26.4925 C   0  0  0  0  0  0  0  0  0  0  0  0
    0.6078   -7.4373  -25.3845 C   0  0  0  0  0  0  0  0  0  0  0  0
 28 27  1  0  0  0
 28 29  1  0  0  0
 27 26  1  0  0  0
 23 21  1  0  0  0
  1  2  2  0  0  0
 29 30  1  0  0  0
 26 30  1  0  0  0
 26  9  1  0  0  0
 22 21  1  0  0  0
 21 20  1  0  0  0
 21 18  1  0  0  0
  2  8  1  0  0  0
  2  3  1  0  0  0
  9  8  2  0  0  0
  9 10  1  0  0  0
  8  6  1  0  0  0
 10 11  2  0  0  0
 20 15  1  0  0  0
  3  4  1  0  0  0
 18 17  1  0  0  0
 17 24  2  0  0  0
 17 16  1  0  0  0
 15 16  2  0  0  0
 15 19  1  0  0  0
 11 19  1  0  0  0
 11  7  1  0  0  0
  6  7  2  0  0  0
  6  5  1  0  0  0
 16 13  1  0  0  0
 19 14  1  0  0  0
  5  4  1  0  0  0
 13 14  2  0  0  0
 13 25  1  0  0  0
  3 12  1  0  0  0
M  END
> <minimizedAffinity>
-13.93325

$$$$
4O0B_2QA_A_4000


 30 34  0  0  0  0  0  0  0  0999 V2000
   -1.8022  -11.3370  -25.1949 O   0  0  0  0  0  0  0  0  0  0  0  0
   -1.1137  -11.7491  -24.2676 C   0  0  0  0  0  0  0  0  0  0  0  0
   -1.6906  -12.4267  -23.2529 N   0  0  0  0  0  0  0  0  0  0  0  0
   -0.9697  -13.0927  -22.1516 C   0  0  0  0  0  0  0  0  0  0  0  0
    0.2853  -13.6998  -22.7424 C   0  0  0  0  0  0  0  0  0  0  0  0
    1.0509  -12.6852  -23.5592 C   0  0  0  0  0  0  0  0  0  0  0  0
    2.4398  -12.7648  -23.6037 C   0  0  0  0  0  0  0  0  0  0  0  0
    0.3799  -11.6258  -24.2420 C   0  0  0  0  0  0  0  0  0  0  0  0
    1.1398  -10.6155  -24.9002 C   0  0  0  0  0  0  0  0  0  0  0  0
    2.5355  -10.7379  -24.9383 C   0  0  0  0  0  0  0  0  0  0  0  0
    3.1730  -11.8116  -24.3124 C   0  0  0  0  0  0  0  0  0  0  0  0
   -2.6736  -12.4810  -23.2472 H   0  0  0  0  0  0  0  0  0  0  0  0
    6.6010  -13.0072  -24.4242 C   0  0  0  0  0  0  0  0  0  0  0  0
    5.2576  -13.1749  -24.5738 C   0  0  0  0  0  0  0  0  0  0  0  0
    5.5787  -10.9955  -24.1970 C   0  0  0  0  0  0  0  0  0  0  0  0
    6.8199  -11.6045  -24.1953 C   0  0  0  0  0  0  0  0  0  0  0  0
    8.0214  -10.7606  -23.9856 C   0  0  0  0  0  0  0  0  0  0  0  0
    7.8298   -9.2718  -23.8100 C   0  0  0  0  0  0  0  0  0  0  0  0
    4.6039  -11.9637  -24.4440 N   0  0  0  0  0  0  0  0  0  0  0  0
    5.3505   -9.5388  -23.9193 C   0  0  0  0  0  0  0  0  0  0  0  0
    6.4980   -8.8400  -23.1769 C   0  0  0  0  0  0  0  0  0  0  0  0
    6.3332   -7.3272  -23.3019 C   0  0  0  0  0  0  0  0  0  0  0  0
    6.4735   -9.2161  -21.6914 C   0  0  0  0  0  0  0  0  0  0  0  0
    9.1490  -11.2355  -23.9285 O   0  0  0  0  0  0  0  0  0  0  0  0
    7.6167  -14.1191  -24.4683 C   0  0  0  0  0  0  0  0  0  0  0  0
    0.4845   -9.3742  -25.4919 C   0  0  0  0  0  0  0  0  0  0  0  0
    0.5503   -9.2192  -27.0262 C   0  0  0  0  0  0  0  0  0  0  0  0
    0.1871   -7.7542  -27.2846 C   0  0  0  0  0  0  0  0  0  0  0  0
    0.3776   -7.0088  -25.9761 C   0  0  0  0  0  0  0  0  0  0  0  0
    1.0081   -7.9931  -25.0165 C   0  0  0  0  0  0  0  0  0  0  0  0
 28 27  1  0  0  0
 28 29  1  0  0  0
 27 26  1  0  0  0
 23 21  1  0  0  0
  1  2  2  0  0  0
 29 30  1  0  0  0
 26 30  1  0  0  0
 26  9  1  0  0  0
 22 21  1  0  0  0
 21 20  1  0  0  0
 21 18  1  0  0  0
  2  8  1  0  0  0
  2  3  1  0  0  0
  9  8  2  0  0  0
  9 10  1  0  0  0
  8  6  1  0  0  0
 10 11  2  0  0  0
 20 15  1  0  0  0
  3  4  1  0  0  0
 18 17  1  0  0  0
 17 24  2  0  0  0
 17 16  1  0  0  0
 15 16  2  0  0  0
 15 19  1  0  0  0
 11 19  1  0  0  0
 11  7  1  0  0  0
  6  7  2  0  0  0
  6  5  1  0  0  0
 16 13  1  0  0  0
 19 14  1  0  0  0
  5  4  1  0  0  0
 13 14  2  0  0  0
 13 25  1  0  0  0
  3 12  1  0  0  0
M  END
> <minimizedAffinity>
-12.55653

$$$$
4O0B_2QA_A_4000


 30 34  0  0  0  0  0  0  0  0999 V2000
    1.7349   -6.9702  -22.7480 O   0  0  0  0  0  0  0  0  0  0  0  0
    2.8083   -6.7120  -23.2818 C   0  0  0  0  0  0  0  0  0  0  0  0
    3.1647   -5.4262  -23.4852 N   0  0  0  0  0  0  0  0  0  0  0  0
    4.4754   -4.9723  -23.9867 C   0  0  0  0  0  0  0  0  0  0  0  0
    5.5250   -5.8756  -23.3744 C   0  0  0  0  0  0  0  0  0  0  0  0
    5.1739   -7.3321  -23.5700 C   0  0  0  0  0  0  0  0  0  0  0  0
    6.2010   -8.2580  -23.7280 C   0  0  0  0  0  0  0  0  0  0  0  0
    3.8145   -7.7628  -23.6424 C   0  0  0  0  0  0  0  0  0  0  0  0
    3.5190   -9.1226  -23.9509 C   0  0  0  0  0  0  0  0  0  0  0  0
    4.5789  -10.0296  -24.0869 C   0  0  0  0  0  0  0  0  0  0  0  0
    5.9023   -9.6021  -23.9575 C   0  0  0  0  0  0  0  0  0  0  0  0
    2.4945   -4.7343  -23.2820 H   0  0  0  0  0  0  0  0  0  0  0  0
    9.0629  -11.3575  -24.3072 C   0  0  0  0  0  0  0  0  0  0  0  0
    8.3183  -10.2612  -23.9929 C   0  0  0  0  0  0  0  0  0  0  0  0
    6.8666  -11.9210  -24.3571 C   0  0  0  0  0  0  0  0  0  0  0  0
    8.1380  -12.4359  -24.5297 C   0  0  0  0  0  0  0  0  0  0  0  0
    8.2789  -13.8726  -24.8701 C   0  0  0  0  0  0  0  0  0  0  0  0
    7.0248  -14.7080  -24.9859 C   0  0  0  0  0  0  0  0  0  0  0  0
    6.9715  -10.5726  -24.0113 N   0  0  0  0  0  0  0  0  0  0  0  0
    5.6020  -12.6998  -24.5703 C   0  0  0  0  0  0  0  0  0  0  0  0
    5.7616  -13.9577  -25.4355 C   0  0  0  0  0  0  0  0  0  0  0  0
    4.5377  -14.8527  -25.2560 C   0  0  0  0  0  0  0  0  0  0  0  0
    5.8756  -13.5714  -26.9143 C   0  0  0  0  0  0  0  0  0  0  0  0
    9.3699  -14.3883  -25.0801 O   0  0  0  0  0  0  0  0  0  0  0  0
   10.5654  -11.3740  -24.4174 C   0  0  0  0  0  0  0  0  0  0  0  0
    2.0951   -9.5964  -24.2121 C   0  0  0  0  0  0  0  0  0  0  0  0
    1.8457  -11.1179  -24.1404 C   0  0  0  0  0  0  0  0  0  0  0  0
    0.4850  -11.3208  -24.8127 C   0  0  0  0  0  0  0  0  0  0  0  0
    0.2047  -10.0786  -25.6387 C   0  0  0  0  0  0  0  0  0  0  0  0
    1.4631   -9.2415  -25.5840 C   0  0  0  0  0  0  0  0  0  0  0  0
 28 27  1  0  0  0
 28 29  1  0  0  0
 27 26  1  0  0  0
 23 21  1  0  0  0
  1  2  2  0  0  0
 29 30  1  0  0  0
 26 30  1  0  0  0
 26  9  1  0  0  0
 22 21  1  0  0  0
 21 20  1  0  0  0
 21 18  1  0  0  0
  2  8  1  0  0  0
  2  3  1  0  0  0
  9  8  2  0  0  0
  9 10  1  0  0  0
  8  6  1  0  0  0
 10 11  2  0  0  0
 20 15  1  0  0  0
  3  4  1  0  0  0
 18 17  1  0  0  0
 17 24  2  0  0  0
 17 16  1  0  0  0
 15 16  2  0  0  0
 15 19  1  0  0  0
 11 19  1  0  0  0
 11  7  1  0  0  0
  6  7  2  0  0  0
  6  5  1  0  0  0
 16 13  1  0  0  0
 19 14  1  0  0  0
  5  4  1  0  0  0
 13 14  2  0  0  0
 13 25  1  0  0  0
  3 12  1  0  0  0
M  END
> <minimizedAffinity>
-10.93998

$$$$
