2EWA_SB2_A_361


 28 31  0  0  0  0  0  0  0  0999 V2000
   -3.1028    2.7913   22.1178 N   0  0  0  0  0  0  0  0  0  0  0  0
   -3.3005    3.9290   21.3405 C   0  0  0  0  0  0  0  0  0  0  0  0
   -3.8871    3.7377   20.0920 N   0  0  0  0  0  0  0  0  0  0  0  0
   -4.0899    2.3376   20.0454 C   0  0  0  0  0  0  0  0  0  0  0  0
   -3.5879    1.7377   21.3335 C   0  0  0  0  0  0  0  0  0  0  0  0
   -2.7095    2.7391   23.0188 H   0  0  0  0  0  0  0  0  0  0  0  0
   -4.0649    1.9452   17.5851 C   0  0  0  0  0  0  0  0  0  0  0  0
   -4.6039    1.3539   16.3869 C   0  0  0  0  0  0  0  0  0  0  0  0
   -5.7785    0.5073   16.4533 C   0  0  0  0  0  0  0  0  0  0  0  0
   -6.4405    0.2377   17.7424 C   0  0  0  0  0  0  0  0  0  0  0  0
   -5.9009    0.8323   18.9578 C   0  0  0  0  0  0  0  0  0  0  0  0
   -4.6854    1.7085   18.8960 C   0  0  0  0  0  0  0  0  0  0  0  0
   -6.2439   -0.0241   15.2896 F   0  0  0  0  0  0  0  0  0  0  0  0
   -2.3684    5.3719   23.2095 C   0  0  0  0  0  0  0  0  0  0  0  0
   -1.9528    6.6559   23.7256 C   0  0  0  0  0  0  0  0  0  0  0  0
   -2.0641    7.8341   22.8665 C   0  0  0  0  0  0  0  0  0  0  0  0
   -2.5898    7.7562   21.4987 C   0  0  0  0  0  0  0  0  0  0  0  0
   -3.0050    6.4612   20.9925 C   0  0  0  0  0  0  0  0  0  0  0  0
   -2.9067    5.2224   21.8306 C   0  0  0  0  0  0  0  0  0  0  0  0
   -1.3815    9.3220   25.1240 O   0  0  0  0  0  0  0  0  0  0  0  0
    0.0373    9.8559   22.7032 C   0  0  0  0  0  0  0  0  0  0  0  0
   -1.5384    9.3896   23.5181 S   0  0  0  0  0  0  0  0  0  0  0  0
   -3.4504   -2.3160   22.9100 N   0  0  0  0  0  0  0  0  0  0  0  0
   -3.0251   -2.1279   21.5925 C   0  0  0  0  0  0  0  0  0  0  0  0
   -3.0461   -0.7853   21.0032 C   0  0  0  0  0  0  0  0  0  0  0  0
   -3.5284    0.3536   21.8462 C   0  0  0  0  0  0  0  0  0  0  0  0
   -3.9713    0.0595   23.2621 C   0  0  0  0  0  0  0  0  0  0  0  0
   -3.9100   -1.3018   23.7461 C   0  0  0  0  0  0  0  0  0  0  0  0
 20 22  2  0  0  0
 21 22  1  0  0  0
 22 16  1  0  0  0
 14 15  2  0  0  0
 14 19  1  0  0  0
 15 16  1  0  0  0
 16 17  2  0  0  0
 17 18  1  0  0  0
 18 19  2  0  0  0
 19  2  1  0  0  0
 23 24  2  0  0  0
 23 28  1  0  0  0
 24 25  1  0  0  0
 25 26  2  0  0  0
 26 27  1  0  0  0
 26  5  1  0  0  0
 27 28  2  0  0  0
  1  2  1  0  0  0
  1  5  1  0  0  0
  2  3  2  0  0  0
  3  4  1  0  0  0
  4  5  2  0  0  0
  4 12  1  0  0  0
  7  8  2  0  0  0
  7 12  1  0  0  0
  8  9  1  0  0  0
  9 10  2  0  0  0
  9 13  1  0  0  0
 10 11  1  0  0  0
 11 12  2  0  0  0
  1  6  1  0  0  0
M  END
> <minimizedAffinity>
-10.95302

$$$$
2EWA_SB2_A_361


 28 31  0  0  0  0  0  0  0  0999 V2000
   -3.0161    2.8363   22.5423 N   0  0  0  0  0  0  0  0  0  0  0  0
   -3.1591    4.0020   21.7951 C   0  0  0  0  0  0  0  0  0  0  0  0
   -3.6985    3.8631   20.5187 N   0  0  0  0  0  0  0  0  0  0  0  0
   -3.9274    2.4698   20.4185 C   0  0  0  0  0  0  0  0  0  0  0  0
   -3.4902    1.8188   21.7053 C   0  0  0  0  0  0  0  0  0  0  0  0
   -2.6607    2.7471   23.4560 H   0  0  0  0  0  0  0  0  0  0  0  0
   -5.7251    1.1079   19.3597 C   0  0  0  0  0  0  0  0  0  0  0  0
   -6.3462    0.4934   18.2140 C   0  0  0  0  0  0  0  0  0  0  0  0
   -5.7574    0.6374   16.8974 C   0  0  0  0  0  0  0  0  0  0  0  0
   -4.5173    1.4112   16.7077 C   0  0  0  0  0  0  0  0  0  0  0  0
   -3.8839    2.0351   17.8616 C   0  0  0  0  0  0  0  0  0  0  0  0
   -4.4885    1.8905   19.2264 C   0  0  0  0  0  0  0  0  0  0  0  0
   -6.3873    0.0352   15.8517 F   0  0  0  0  0  0  0  0  0  0  0  0
   -2.2137    5.3549   23.7239 C   0  0  0  0  0  0  0  0  0  0  0  0
   -1.7922    6.6126   24.2966 C   0  0  0  0  0  0  0  0  0  0  0  0
   -1.9048    7.8295   23.4935 C   0  0  0  0  0  0  0  0  0  0  0  0
   -2.4377    7.8162   22.1263 C   0  0  0  0  0  0  0  0  0  0  0  0
   -2.8588    6.5469   21.5630 C   0  0  0  0  0  0  0  0  0  0  0  0
   -2.7594    5.2704   22.3425 C   0  0  0  0  0  0  0  0  0  0  0  0
   -1.5777   10.5818   23.1874 O   0  0  0  0  0  0  0  0  0  0  0  0
   -2.2997    9.6104   25.7744 C   0  0  0  0  0  0  0  0  0  0  0  0
   -1.3717    9.3520   24.2135 S   0  0  0  0  0  0  0  0  0  0  0  0
   -3.4177   -2.3282   23.0226 N   0  0  0  0  0  0  0  0  0  0  0  0
   -3.9196   -1.3814   23.9193 C   0  0  0  0  0  0  0  0  0  0  0  0
   -3.9718    0.0327   23.5346 C   0  0  0  0  0  0  0  0  0  0  0  0
   -3.4794    0.4181   22.1747 C   0  0  0  0  0  0  0  0  0  0  0  0
   -2.9514   -0.6716   21.2685 C   0  0  0  0  0  0  0  0  0  0  0  0
   -2.9446   -2.0367   21.7459 C   0  0  0  0  0  0  0  0  0  0  0  0
 20 22  2  0  0  0
 21 22  1  0  0  0
 22 16  1  0  0  0
 14 15  2  0  0  0
 14 19  1  0  0  0
 15 16  1  0  0  0
 16 17  2  0  0  0
 17 18  1  0  0  0
 18 19  2  0  0  0
 19  2  1  0  0  0
 23 24  2  0  0  0
 23 28  1  0  0  0
 24 25  1  0  0  0
 25 26  2  0  0  0
 26 27  1  0  0  0
 26  5  1  0  0  0
 27 28  2  0  0  0
  1  2  1  0  0  0
  1  5  1  0  0  0
  2  3  2  0  0  0
  3  4  1  0  0  0
  4  5  2  0  0  0
  4 12  1  0  0  0
  7  8  2  0  0  0
  7 12  1  0  0  0
  8  9  1  0  0  0
  9 10  2  0  0  0
  9 13  1  0  0  0
 10 11  1  0  0  0
 11 12  2  0  0  0
  1  6  1  0  0  0
M  END
> <minimizedAffinity>
-10.75238

$$$$
2EWA_SB2_A_361


 28 31  0  0  0  0  0  0  0  0999 V2000
   -3.6354    4.1633   20.3768 N   0  0  0  0  0  0  0  0  0  0  0  0
   -3.0899    4.4941   21.6139 C   0  0  0  0  0  0  0  0  0  0  0  0
   -2.9470    3.4557   22.5309 N   0  0  0  0  0  0  0  0  0  0  0  0
   -3.4520    2.3363   21.8271 C   0  0  0  0  0  0  0  0  0  0  0  0
   -3.8916    2.7892   20.4587 C   0  0  0  0  0  0  0  0  0  0  0  0
   -3.8037    4.7624   19.6139 H   0  0  0  0  0  0  0  0  0  0  0  0
   -3.8914    0.9381   23.8419 C   0  0  0  0  0  0  0  0  0  0  0  0
   -3.9500   -0.3323   24.5192 C   0  0  0  0  0  0  0  0  0  0  0  0
   -3.6104   -1.5530   23.8154 C   0  0  0  0  0  0  0  0  0  0  0  0
   -3.1999   -1.5169   22.4002 C   0  0  0  0  0  0  0  0  0  0  0  0
   -3.1384   -0.2360   21.7092 C   0  0  0  0  0  0  0  0  0  0  0  0
   -3.4893    1.0306   22.4315 C   0  0  0  0  0  0  0  0  0  0  0  0
   -3.6833   -2.7241   24.5054 F   0  0  0  0  0  0  0  0  0  0  0  0
   -2.1415    6.2067   23.2300 C   0  0  0  0  0  0  0  0  0  0  0  0
   -1.7334    7.5570   23.5425 C   0  0  0  0  0  0  0  0  0  0  0  0
   -1.8770    8.5944   22.5219 C   0  0  0  0  0  0  0  0  0  0  0  0
   -2.4278    8.3101   21.1917 C   0  0  0  0  0  0  0  0  0  0  0  0
   -2.8352    6.9503   20.8907 C   0  0  0  0  0  0  0  0  0  0  0  0
   -2.7042    5.8497   21.8999 C   0  0  0  0  0  0  0  0  0  0  0  0
   -1.6063   10.5508   24.4904 O   0  0  0  0  0  0  0  0  0  0  0  0
    0.4077   10.4130   22.4699 C   0  0  0  0  0  0  0  0  0  0  0  0
   -1.3598   10.2344   22.9261 S   0  0  0  0  0  0  0  0  0  0  0  0
   -5.7267    0.6957   17.1139 N   0  0  0  0  0  0  0  0  0  0  0  0
   -4.5736    1.4386   16.8479 C   0  0  0  0  0  0  0  0  0  0  0  0
   -3.9072    2.1660   17.9329 C   0  0  0  0  0  0  0  0  0  0  0  0
   -4.4934    2.0853   19.3077 C   0  0  0  0  0  0  0  0  0  0  0  0
   -5.7445    1.2589   19.5058 C   0  0  0  0  0  0  0  0  0  0  0  0
   -6.3223    0.5799   18.3672 C   0  0  0  0  0  0  0  0  0  0  0  0
 20 22  2  0  0  0
 21 22  1  0  0  0
 22 16  1  0  0  0
 14 15  2  0  0  0
 14 19  1  0  0  0
 15 16  1  0  0  0
 16 17  2  0  0  0
 17 18  1  0  0  0
 18 19  2  0  0  0
 19  2  1  0  0  0
 23 24  2  0  0  0
 23 28  1  0  0  0
 24 25  1  0  0  0
 25 26  2  0  0  0
 26 27  1  0  0  0
 26  5  1  0  0  0
 27 28  2  0  0  0
  1  2  1  0  0  0
  1  5  1  0  0  0
  2  3  2  0  0  0
  3  4  1  0  0  0
  4  5  2  0  0  0
  4 12  1  0  0  0
  7  8  2  0  0  0
  7 12  1  0  0  0
  8  9  1  0  0  0
  9 10  2  0  0  0
  9 13  1  0  0  0
 10 11  1  0  0  0
 11 12  2  0  0  0
  1  6  1  0  0  0
M  END
> <minimizedAffinity>
-9.53363

$$$$
