5OSL_A9K_A_406


 19 20  0  0  0  0  0  0  0  0999 V2000
 -112.3114 -175.0209  307.2989 C   0  0  0  0  0  0  0  0  0  0  0  0
 -111.2711 -174.1114  307.1982 C   0  0  0  0  0  0  0  0  0  0  0  0
 -109.9679 -174.4781  307.4811 C   0  0  0  0  0  0  0  0  0  0  0  0
 -109.6642 -175.7790  307.8831 C   0  0  0  0  0  0  0  0  0  0  0  0
 -110.7197 -176.6769  308.0065 C   0  0  0  0  0  0  0  0  0  0  0  0
 -112.0186 -176.3128  307.7146 C   0  0  0  0  0  0  0  0  0  0  0  0
 -110.4301 -178.2879  308.5770 Cl  0  0  0  0  0  0  0  0  0  0  0  0
 -108.2376 -176.1542  308.1170 C   0  0  0  0  0  0  0  0  0  0  0  0
 -107.4154 -176.7264  307.1372 C   0  0  0  0  0  0  0  0  0  0  0  0
 -107.9072 -176.9384  305.8911 O   0  0  0  0  0  0  0  0  0  0  0  0
 -106.0972 -177.0610  307.4282 C   0  0  0  0  0  0  0  0  0  0  0  0
 -105.5857 -176.8242  308.6901 C   0  0  0  0  0  0  0  0  0  0  0  0
 -106.3776 -176.2568  309.6607 C   0  0  0  0  0  0  0  0  0  0  0  0
 -107.6924 -175.9259  309.3815 C   0  0  0  0  0  0  0  0  0  0  0  0
 -107.3628 -177.3207  305.2313 H   0  0  0  0  0  0  0  0  0  0  0  0
 -113.7399 -174.6870  306.9635 C   0  0  0  0  0  0  0  0  0  0  0  0
 -114.7235 -175.0092  307.9658 N   0  0  0  0  0  0  0  0  0  0  0  0
 -114.5464 -174.4580  308.8055 H   0  0  0  0  0  0  0  0  0  0  0  0
 -114.6655 -176.0021  308.1923 H   0  0  0  0  0  0  0  0  0  0  0  0
 10  9  1  0  0  0
 17 16  1  0  0  0
  9 11  2  0  0  0
  9  8  1  0  0  0
  7  5  1  0  0  0
  6  5  2  0  0  0
  6  1  1  0  0  0
 11 12  1  0  0  0
 16  1  1  0  0  0
  5  4  1  0  0  0
  1  2  2  0  0  0
  4  3  2  0  0  0
  4  8  1  0  0  0
  2  3  1  0  0  0
  8 14  2  0  0  0
 12 13  2  0  0  0
 14 13  1  0  0  0
 17 18  1  0  0  0
 17 19  1  0  0  0
 10 15  1  0  0  0
M  END
> <minimizedAffinity>
-9.14741

$$$$
5OSL_A9K_A_406


 19 20  0  0  0  0  0  0  0  0999 V2000
 -112.9472 -175.2212  307.2216 C   0  0  0  0  0  0  0  0  0  0  0  0
 -112.5332 -176.5367  307.3546 C   0  0  0  0  0  0  0  0  0  0  0  0
 -111.1917 -176.8610  307.4432 C   0  0  0  0  0  0  0  0  0  0  0  0
 -110.2131 -175.8679  307.3952 C   0  0  0  0  0  0  0  0  0  0  0  0
 -110.6385 -174.5531  307.2349 C   0  0  0  0  0  0  0  0  0  0  0  0
 -111.9779 -174.2293  307.1563 C   0  0  0  0  0  0  0  0  0  0  0  0
 -109.4778 -173.2743  307.0874 Cl  0  0  0  0  0  0  0  0  0  0  0  0
 -108.7788 -176.2510  307.5590 C   0  0  0  0  0  0  0  0  0  0  0  0
 -108.0958 -176.1948  308.7813 C   0  0  0  0  0  0  0  0  0  0  0  0
 -108.7550 -175.8002  309.8989 O   0  0  0  0  0  0  0  0  0  0  0  0
 -106.7553 -176.5571  308.8588 C   0  0  0  0  0  0  0  0  0  0  0  0
 -106.0869 -176.9827  307.7264 C   0  0  0  0  0  0  0  0  0  0  0  0
 -106.7450 -177.0500  306.5208 C   0  0  0  0  0  0  0  0  0  0  0  0
 -108.0776 -176.6859  306.4333 C   0  0  0  0  0  0  0  0  0  0  0  0
 -108.3042 -175.7605  310.7194 H   0  0  0  0  0  0  0  0  0  0  0  0
 -114.3933 -174.8091  307.1628 C   0  0  0  0  0  0  0  0  0  0  0  0
 -115.3149 -175.7854  306.6399 N   0  0  0  0  0  0  0  0  0  0  0  0
 -115.3298 -176.6010  307.2522 H   0  0  0  0  0  0  0  0  0  0  0  0
 -115.0181 -176.0670  305.7056 H   0  0  0  0  0  0  0  0  0  0  0  0
 10  9  1  0  0  0
 17 16  1  0  0  0
  9 11  2  0  0  0
  9  8  1  0  0  0
  7  5  1  0  0  0
  6  5  2  0  0  0
  6  1  1  0  0  0
 11 12  1  0  0  0
 16  1  1  0  0  0
  5  4  1  0  0  0
  1  2  2  0  0  0
  4  3  2  0  0  0
  4  8  1  0  0  0
  2  3  1  0  0  0
  8 14  2  0  0  0
 12 13  2  0  0  0
 14 13  1  0  0  0
 17 18  1  0  0  0
 17 19  1  0  0  0
 10 15  1  0  0  0
M  END
> <minimizedAffinity>
-9.07550

$$$$
5OSL_A9K_A_406


 19 20  0  0  0  0  0  0  0  0999 V2000
 -106.5470 -177.0937  307.4226 C   0  0  0  0  0  0  0  0  0  0  0  0
 -107.2717 -177.0334  306.2433 C   0  0  0  0  0  0  0  0  0  0  0  0
 -108.5785 -176.5810  306.2269 C   0  0  0  0  0  0  0  0  0  0  0  0
 -109.2080 -176.1762  307.4042 C   0  0  0  0  0  0  0  0  0  0  0  0
 -108.4800 -176.2657  308.5863 C   0  0  0  0  0  0  0  0  0  0  0  0
 -107.1727 -176.7081  308.6004 C   0  0  0  0  0  0  0  0  0  0  0  0
 -109.2213 -175.8557  310.0986 Cl  0  0  0  0  0  0  0  0  0  0  0  0
 -110.5977 -175.6329  307.3368 C   0  0  0  0  0  0  0  0  0  0  0  0
 -111.7470 -176.4271  307.4455 C   0  0  0  0  0  0  0  0  0  0  0  0
 -111.6213 -177.7620  307.6501 O   0  0  0  0  0  0  0  0  0  0  0  0
 -113.0118 -175.8546  307.3629 C   0  0  0  0  0  0  0  0  0  0  0  0
 -113.1435 -174.4913  307.1785 C   0  0  0  0  0  0  0  0  0  0  0  0
 -112.0253 -173.6972  307.0769 C   0  0  0  0  0  0  0  0  0  0  0  0
 -110.7626 -174.2593  307.1522 C   0  0  0  0  0  0  0  0  0  0  0  0
 -112.3858 -178.2987  307.7237 H   0  0  0  0  0  0  0  0  0  0  0  0
 -105.1107 -177.5377  307.4912 C   0  0  0  0  0  0  0  0  0  0  0  0
 -104.3341 -177.0208  308.5892 N   0  0  0  0  0  0  0  0  0  0  0  0
 -104.7243 -177.3572  309.4696 H   0  0  0  0  0  0  0  0  0  0  0  0
 -104.3596 -176.0013  308.5735 H   0  0  0  0  0  0  0  0  0  0  0  0
 10  9  1  0  0  0
 17 16  1  0  0  0
  9 11  2  0  0  0
  9  8  1  0  0  0
  7  5  1  0  0  0
  6  5  2  0  0  0
  6  1  1  0  0  0
 11 12  1  0  0  0
 16  1  1  0  0  0
  5  4  1  0  0  0
  1  2  2  0  0  0
  4  3  2  0  0  0
  4  8  1  0  0  0
  2  3  1  0  0  0
  8 14  2  0  0  0
 12 13  2  0  0  0
 14 13  1  0  0  0
 17 18  1  0  0  0
 17 19  1  0  0  0
 10 15  1  0  0  0
M  END
> <minimizedAffinity>
-7.60207

$$$$
5OSL_A9K_A_406


 19 20  0  0  0  0  0  0  0  0999 V2000
 -106.5839 -176.4911  308.9292 C   0  0  0  0  0  0  0  0  0  0  0  0
 -107.5304 -176.0268  309.8281 C   0  0  0  0  0  0  0  0  0  0  0  0
 -108.8193 -175.7306  309.4233 C   0  0  0  0  0  0  0  0  0  0  0  0
 -109.2022 -175.8866  308.0910 C   0  0  0  0  0  0  0  0  0  0  0  0
 -108.2367 -176.3282  307.1919 C   0  0  0  0  0  0  0  0  0  0  0  0
 -106.9534 -176.6328  307.5984 C   0  0  0  0  0  0  0  0  0  0  0  0
 -108.6164 -176.4703  305.5067 Cl  0  0  0  0  0  0  0  0  0  0  0  0
 -110.6198 -175.6184  307.7049 C   0  0  0  0  0  0  0  0  0  0  0  0
 -111.5964 -176.6174  307.5962 C   0  0  0  0  0  0  0  0  0  0  0  0
 -111.2718 -177.9040  307.8768 O   0  0  0  0  0  0  0  0  0  0  0  0
 -112.8966 -176.2966  307.2209 C   0  0  0  0  0  0  0  0  0  0  0  0
 -113.2366 -174.9832  306.9576 C   0  0  0  0  0  0  0  0  0  0  0  0
 -112.2915 -173.9902  307.0666 C   0  0  0  0  0  0  0  0  0  0  0  0
 -110.9937 -174.3012  307.4339 C   0  0  0  0  0  0  0  0  0  0  0  0
 -111.9201 -178.5769  307.8062 H   0  0  0  0  0  0  0  0  0  0  0  0
 -105.1812 -176.8677  309.3230 C   0  0  0  0  0  0  0  0  0  0  0  0
 -104.3065 -177.2795  308.2547 N   0  0  0  0  0  0  0  0  0  0  0  0
 -104.1666 -176.5011  307.6106 H   0  0  0  0  0  0  0  0  0  0  0  0
 -104.7261 -178.0633  307.7548 H   0  0  0  0  0  0  0  0  0  0  0  0
 10  9  1  0  0  0
 17 16  1  0  0  0
  9 11  2  0  0  0
  9  8  1  0  0  0
  7  5  1  0  0  0
  6  5  2  0  0  0
  6  1  1  0  0  0
 11 12  1  0  0  0
 16  1  1  0  0  0
  5  4  1  0  0  0
  1  2  2  0  0  0
  4  3  2  0  0  0
  4  8  1  0  0  0
  2  3  1  0  0  0
  8 14  2  0  0  0
 12 13  2  0  0  0
 14 13  1  0  0  0
 17 18  1  0  0  0
 17 19  1  0  0  0
 10 15  1  0  0  0
M  END
> <minimizedAffinity>
-7.25558

$$$$
5OSL_A9K_A_406


 19 20  0  0  0  0  0  0  0  0999 V2000
 -106.4710 -176.5473  308.8848 C   0  0  0  0  0  0  0  0  0  0  0  0
 -107.3982 -176.0868  309.8055 C   0  0  0  0  0  0  0  0  0  0  0  0
 -108.6930 -175.7809  309.4279 C   0  0  0  0  0  0  0  0  0  0  0  0
 -109.1016 -175.9231  308.1016 C   0  0  0  0  0  0  0  0  0  0  0  0
 -108.1554 -176.3609  307.1805 C   0  0  0  0  0  0  0  0  0  0  0  0
 -106.8661 -176.6752  307.5600 C   0  0  0  0  0  0  0  0  0  0  0  0
 -108.5675 -176.4860  305.5016 Cl  0  0  0  0  0  0  0  0  0  0  0  0
 -110.5250 -175.6447  307.7447 C   0  0  0  0  0  0  0  0  0  0  0  0
 -110.9891 -174.3898  307.3283 C   0  0  0  0  0  0  0  0  0  0  0  0
 -110.1155 -173.3593  307.2080 O   0  0  0  0  0  0  0  0  0  0  0  0
 -112.3322 -174.1994  307.0216 C   0  0  0  0  0  0  0  0  0  0  0  0
 -113.2206 -175.2534  307.1200 C   0  0  0  0  0  0  0  0  0  0  0  0
 -112.7796 -176.4929  307.5205 C   0  0  0  0  0  0  0  0  0  0  0  0
 -111.4457 -176.6900  307.8333 C   0  0  0  0  0  0  0  0  0  0  0  0
 -110.4193 -172.5176  306.9300 H   0  0  0  0  0  0  0  0  0  0  0  0
 -105.0629 -176.9340  309.2487 C   0  0  0  0  0  0  0  0  0  0  0  0
 -104.1976 -177.2977  308.1556 N   0  0  0  0  0  0  0  0  0  0  0  0
 -104.0672 -176.4928  307.5429 H   0  0  0  0  0  0  0  0  0  0  0  0
 -104.6194 -178.0619  307.6279 H   0  0  0  0  0  0  0  0  0  0  0  0
 10  9  1  0  0  0
 17 16  1  0  0  0
  9 11  2  0  0  0
  9  8  1  0  0  0
  7  5  1  0  0  0
  6  5  2  0  0  0
  6  1  1  0  0  0
 11 12  1  0  0  0
 16  1  1  0  0  0
  5  4  1  0  0  0
  1  2  2  0  0  0
  4  3  2  0  0  0
  4  8  1  0  0  0
  2  3  1  0  0  0
  8 14  2  0  0  0
 12 13  2  0  0  0
 14 13  1  0  0  0
 17 18  1  0  0  0
 17 19  1  0  0  0
 10 15  1  0  0  0
M  END
> <minimizedAffinity>
-7.14679

$$$$
