2J62_GSZ_A_1626


 32 34  0  0  0  0  0  0  0  0999 V2000
   32.9934   42.8362   21.1183 C   0  0  0  0  0  0  0  0  0  0  0  0
   32.3742   43.0436   22.5010 C   0  0  0  0  0  0  0  0  0  0  0  0
   32.4295   44.4199   22.7310 O   0  0  0  0  0  0  0  0  0  0  0  0
   30.9176   42.5490   22.6242 C   0  0  0  0  0  0  0  0  0  0  0  0
   30.4206   42.8104   23.9454 O   0  0  0  0  0  0  0  0  0  0  0  0
   30.9062   41.0475   22.3179 C   0  0  0  0  0  0  0  0  0  0  0  0
   31.2914   40.8837   20.8878 N   0  0  0  0  0  0  0  0  0  0  0  0
   30.9032   40.0486   19.9241 C   0  0  0  0  0  0  0  0  0  0  0  0
   32.2888   41.7146   20.3144 C   0  0  0  0  0  0  0  0  0  0  0  0
   32.4187   41.3427   19.0419 N   0  0  0  0  0  0  0  0  0  0  0  0
   31.5694   40.3346   18.7940 C   0  0  0  0  0  0  0  0  0  0  0  0
   31.9192   44.8826   22.0481 H   0  0  0  0  0  0  0  0  0  0  0  0
   30.9782   42.3561   24.5963 H   0  0  0  0  0  0  0  0  0  0  0  0
   33.0376   41.7428   18.3893 H   0  0  0  0  0  0  0  0  0  0  0  0
   35.0258   41.7135   22.0313 C   0  0  0  0  0  0  0  0  0  0  0  0
   34.3787   40.9888   22.8048 O   0  0  0  0  0  0  0  0  0  0  0  0
   34.4721   42.6166   21.2009 N   0  0  0  0  0  0  0  0  0  0  0  0
   35.0628   43.1541   20.6252 H   0  0  0  0  0  0  0  0  0  0  0  0
   37.1301   40.3852   22.6701 C   0  0  0  0  0  0  0  0  0  0  0  0
   36.5681   41.6245   21.9492 C   0  0  0  0  0  0  0  0  0  0  0  0
   37.1860   42.8872   22.5322 C   0  0  0  0  0  0  0  0  0  0  0  0
   29.5923   40.3032   22.6782 C   0  0  0  0  0  0  0  0  0  0  0  0
   29.4319   40.2897   24.0700 O   0  0  0  0  0  0  0  0  0  0  0  0
   30.1851   39.8343   24.4779 H   0  0  0  0  0  0  0  0  0  0  0  0
   31.4330   39.5707   17.4565 C   0  0  0  0  0  0  0  0  0  0  0  0
   31.3215   40.5397   16.2849 C   0  0  0  0  0  0  0  0  0  0  0  0
   29.9544   41.2562   16.2356 C   0  0  0  0  0  0  0  0  0  0  0  0
   28.7908   40.5531   15.8678 C   0  0  0  0  0  0  0  0  0  0  0  0
   27.5509   41.2015   15.7985 C   0  0  0  0  0  0  0  0  0  0  0  0
   27.4906   42.5604   16.1117 C   0  0  0  0  0  0  0  0  0  0  0  0
   28.6516   43.2677   16.4791 C   0  0  0  0  0  0  0  0  0  0  0  0
   29.8835   42.6208   16.5478 C   0  0  0  0  0  0  0  0  0  0  0  0
 19 20  1  0  0  0
 20 21  1  0  0  0
 20 15  1  0  0  0
 15 16  2  0  0  0
 15 17  1  0  0  0
 17  1  1  0  0  0
  1  2  1  0  0  0
  1  9  1  0  0  0
  2  3  1  0  0  0
  2  4  1  0  0  0
  4  5  1  0  0  0
  4  6  1  0  0  0
  6 22  1  0  0  0
  6  7  1  0  0  0
 22 23  1  0  0  0
  7  8  1  0  0  0
  7  9  2  0  0  0
  8 11  2  0  0  0
  9 10  1  0  0  0
 10 11  1  0  0  0
 11 25  1  0  0  0
 25 26  1  0  0  0
 26 27  1  0  0  0
 27 28  1  0  0  0
 27 32  2  0  0  0
 28 29  2  0  0  0
 29 30  1  0  0  0
 30 31  2  0  0  0
 31 32  1  0  0  0
 17 18  1  0  0  0
  3 12  1  0  0  0
  5 13  1  0  0  0
 23 24  1  0  0  0
 10 14  1  0  0  0
M  CHG 1   7   1
M  END
> <minimizedAffinity>
-12.02836

$$$$
2J62_GSZ_A_1626


 32 34  0  0  0  0  0  0  0  0999 V2000
   32.9765   42.8154   21.0877 C   0  0  0  0  0  0  0  0  0  0  0  0
   32.3402   43.0006   22.4658 C   0  0  0  0  0  0  0  0  0  0  0  0
   32.3987   44.3722   22.7215 O   0  0  0  0  0  0  0  0  0  0  0  0
   30.8800   42.5107   22.5610 C   0  0  0  0  0  0  0  0  0  0  0  0
   30.3669   42.7504   23.8802 O   0  0  0  0  0  0  0  0  0  0  0  0
   30.8659   41.0151   22.2271 C   0  0  0  0  0  0  0  0  0  0  0  0
   31.2690   40.8755   20.7995 N   0  0  0  0  0  0  0  0  0  0  0  0
   30.8898   40.0600   19.8157 C   0  0  0  0  0  0  0  0  0  0  0  0
   32.2775   41.7120   20.2544 C   0  0  0  0  0  0  0  0  0  0  0  0
   32.4224   41.3627   18.9771 N   0  0  0  0  0  0  0  0  0  0  0  0
   31.5719   40.3633   18.6998 C   0  0  0  0  0  0  0  0  0  0  0  0
   31.8994   44.8496   22.0406 H   0  0  0  0  0  0  0  0  0  0  0  0
   30.9138   42.2817   24.5299 H   0  0  0  0  0  0  0  0  0  0  0  0
   33.0516   41.7718   18.3400 H   0  0  0  0  0  0  0  0  0  0  0  0
   34.9940   41.6919   22.0325 C   0  0  0  0  0  0  0  0  0  0  0  0
   34.3357   40.9819   22.8101 O   0  0  0  0  0  0  0  0  0  0  0  0
   34.4531   42.5875   21.1856 N   0  0  0  0  0  0  0  0  0  0  0  0
   35.0520   43.1133   20.6077 H   0  0  0  0  0  0  0  0  0  0  0  0
   37.0836   40.3548   22.7003 C   0  0  0  0  0  0  0  0  0  0  0  0
   36.5362   41.5919   21.9644 C   0  0  0  0  0  0  0  0  0  0  0  0
   37.1577   42.8552   22.5423 C   0  0  0  0  0  0  0  0  0  0  0  0
   29.5440   40.2706   22.5567 C   0  0  0  0  0  0  0  0  0  0  0  0
   29.3580   40.2452   23.9452 O   0  0  0  0  0  0  0  0  0  0  0  0
   30.1026   39.7846   24.3627 H   0  0  0  0  0  0  0  0  0  0  0  0
   31.4497   39.6245   17.3470 C   0  0  0  0  0  0  0  0  0  0  0  0
   31.8425   40.5371   16.1907 C   0  0  0  0  0  0  0  0  0  0  0  0
   33.1037   40.0446   15.4480 C   0  0  0  0  0  0  0  0  0  0  0  0
   33.6324   38.7650   15.7064 C   0  0  0  0  0  0  0  0  0  0  0  0
   34.7892   38.3200   15.0536 C   0  0  0  0  0  0  0  0  0  0  0  0
   35.4035   39.1695   14.1321 C   0  0  0  0  0  0  0  0  0  0  0  0
   34.8790   40.4501   13.8712 C   0  0  0  0  0  0  0  0  0  0  0  0
   33.7282   40.8905   14.5211 C   0  0  0  0  0  0  0  0  0  0  0  0
 19 20  1  0  0  0
 20 21  1  0  0  0
 20 15  1  0  0  0
 15 16  2  0  0  0
 15 17  1  0  0  0
 17  1  1  0  0  0
  1  2  1  0  0  0
  1  9  1  0  0  0
  2  3  1  0  0  0
  2  4  1  0  0  0
  4  5  1  0  0  0
  4  6  1  0  0  0
  6 22  1  0  0  0
  6  7  1  0  0  0
 22 23  1  0  0  0
  7  8  1  0  0  0
  7  9  2  0  0  0
  8 11  2  0  0  0
  9 10  1  0  0  0
 10 11  1  0  0  0
 11 25  1  0  0  0
 25 26  1  0  0  0
 26 27  1  0  0  0
 27 28  1  0  0  0
 27 32  2  0  0  0
 28 29  2  0  0  0
 29 30  1  0  0  0
 30 31  2  0  0  0
 31 32  1  0  0  0
 17 18  1  0  0  0
  3 12  1  0  0  0
  5 13  1  0  0  0
 23 24  1  0  0  0
 10 14  1  0  0  0
M  CHG 1   7   1
M  END
> <minimizedAffinity>
-11.09910

$$$$
2J62_GSZ_A_1626


 32 34  0  0  0  0  0  0  0  0999 V2000
   31.2509   39.4227   17.1668 C   0  0  0  0  0  0  0  0  0  0  0  0
   30.1773   39.8937   16.1850 C   0  0  0  0  0  0  0  0  0  0  0  0
   29.5754   38.7289   15.7046 O   0  0  0  0  0  0  0  0  0  0  0  0
   29.1098   40.8177   16.8080 C   0  0  0  0  0  0  0  0  0  0  0  0
   28.1378   41.1828   15.8166 O   0  0  0  0  0  0  0  0  0  0  0  0
   29.8265   42.0549   17.3593 C   0  0  0  0  0  0  0  0  0  0  0  0
   30.7000   41.6000   18.4775 N   0  0  0  0  0  0  0  0  0  0  0  0
   31.0419   42.1353   19.6494 C   0  0  0  0  0  0  0  0  0  0  0  0
   31.3906   40.3633   18.3900 C   0  0  0  0  0  0  0  0  0  0  0  0
   32.0818   40.2245   19.5203 N   0  0  0  0  0  0  0  0  0  0  0  0
   31.8655   41.2961   20.2974 C   0  0  0  0  0  0  0  0  0  0  0  0
   29.1807   38.2403   16.4438 H   0  0  0  0  0  0  0  0  0  0  0  0
   28.5795   41.6387   15.0832 H   0  0  0  0  0  0  0  0  0  0  0  0
   32.6579   39.4594   19.7483 H   0  0  0  0  0  0  0  0  0  0  0  0
   33.0993   40.0887   15.6290 C   0  0  0  0  0  0  0  0  0  0  0  0
   32.5634   41.1648   15.3178 O   0  0  0  0  0  0  0  0  0  0  0  0
   32.5647   39.1978   16.4849 N   0  0  0  0  0  0  0  0  0  0  0  0
   33.0571   38.3656   16.6697 H   0  0  0  0  0  0  0  0  0  0  0  0
   34.6946   40.2053   13.6186 C   0  0  0  0  0  0  0  0  0  0  0  0
   34.4735   39.6787   15.0487 C   0  0  0  0  0  0  0  0  0  0  0  0
   34.6066   38.1627   15.0686 C   0  0  0  0  0  0  0  0  0  0  0  0
   28.9037   43.2383   17.7573 C   0  0  0  0  0  0  0  0  0  0  0  0
   28.7249   44.0808   16.6521 O   0  0  0  0  0  0  0  0  0  0  0  0
   29.5856   44.4232   16.3639 H   0  0  0  0  0  0  0  0  0  0  0  0
   32.5161   41.5651   21.6741 C   0  0  0  0  0  0  0  0  0  0  0  0
   33.6077   42.6234   21.5630 C   0  0  0  0  0  0  0  0  0  0  0  0
   34.9897   42.0997   22.0112 C   0  0  0  0  0  0  0  0  0  0  0  0
   36.0542   42.9934   22.2389 C   0  0  0  0  0  0  0  0  0  0  0  0
   37.3169   42.5242   22.6234 C   0  0  0  0  0  0  0  0  0  0  0  0
   37.4964   41.1496   22.7859 C   0  0  0  0  0  0  0  0  0  0  0  0
   36.4352   40.2522   22.5585 C   0  0  0  0  0  0  0  0  0  0  0  0
   35.1802   40.7210   22.1766 C   0  0  0  0  0  0  0  0  0  0  0  0
 19 20  1  0  0  0
 20 21  1  0  0  0
 20 15  1  0  0  0
 15 16  2  0  0  0
 15 17  1  0  0  0
 17  1  1  0  0  0
  1  2  1  0  0  0
  1  9  1  0  0  0
  2  3  1  0  0  0
  2  4  1  0  0  0
  4  5  1  0  0  0
  4  6  1  0  0  0
  6 22  1  0  0  0
  6  7  1  0  0  0
 22 23  1  0  0  0
  7  8  1  0  0  0
  7  9  2  0  0  0
  8 11  2  0  0  0
  9 10  1  0  0  0
 10 11  1  0  0  0
 11 25  1  0  0  0
 25 26  1  0  0  0
 26 27  1  0  0  0
 27 28  1  0  0  0
 27 32  2  0  0  0
 28 29  2  0  0  0
 29 30  1  0  0  0
 30 31  2  0  0  0
 31 32  1  0  0  0
 17 18  1  0  0  0
  3 12  1  0  0  0
  5 13  1  0  0  0
 23 24  1  0  0  0
 10 14  1  0  0  0
M  CHG 1   7   1
M  END
> <minimizedAffinity>
-9.31242

$$$$
