1M2X_MCO_A_811


 16 16  0  0  0  0  0  0  0  0999 V2000
  -22.7376   37.1724    9.6322 C   0  0  0  0  0  0  0  0  0  0  0  0
  -21.4864   37.8594   10.1826 C   0  0  0  0  0  0  0  0  0  0  0  0
  -21.8921   39.3269   10.3637 C   0  0  0  0  0  0  0  0  0  0  0  0
  -23.3675   39.2788   10.7736 C   0  0  0  0  0  0  0  0  0  0  0  0
  -23.8192   37.9663   10.2556 N   0  0  0  0  0  0  0  0  0  0  0  0
  -25.0701   37.4946   10.4473 C   0  0  0  0  0  0  0  0  0  0  0  0
  -25.3599   36.3570   10.0741 O   0  0  0  0  0  0  0  0  0  0  0  0
  -23.7633   37.9951    7.6338 O   0  0  0  0  0  0  0  0  0  0  0  0
  -22.8046   37.3343    8.0963 C   0  0  0  0  0  0  0  0  0  0  0  0
  -21.9002   36.7991    7.4264 O   0  0  0  0  0  0  0  0  0  0  0  0
  -21.2186   36.3213    7.8567 H   0  0  0  0  0  0  0  0  0  0  0  0
  -26.1262   38.3852   11.1133 C   0  0  0  0  0  0  0  0  0  0  0  0
  -26.4185   37.8483   12.5194 C   0  0  0  0  0  0  0  0  0  0  0  0
  -27.4009   38.4106   10.2664 C   0  0  0  0  0  0  0  0  0  0  0  0
  -27.1057   39.0915    8.5967 S   0  0  0  0  0  0  0  0  0  0  0  0
  -26.6701   40.3756    8.7013 H   0  0  0  0  0  0  0  0  0  0  0  0
  8  9  2  0  0  0
  9 10  1  0  0  0
  9  1  1  0  0  0
  1  2  1  0  0  0
  1  5  1  0  0  0
  2  3  1  0  0  0
  3  4  1  0  0  0
  4  5  1  0  0  0
  5  6  1  0  0  0
  6  7  2  0  0  0
  6 12  1  0  0  0
 12 13  1  0  0  0
 12 14  1  0  0  0
 14 15  1  0  0  0
 10 11  1  0  0  0
 15 16  1  0  0  0
M  END
> <minimizedAffinity>
-5.85007

$$$$
1M2X_MCO_A_811


 16 16  0  0  0  0  0  0  0  0999 V2000
  -23.1817   38.4952    8.4061 C   0  0  0  0  0  0  0  0  0  0  0  0
  -24.4518   38.2951    7.5770 C   0  0  0  0  0  0  0  0  0  0  0  0
  -25.5041   37.8114    8.5819 C   0  0  0  0  0  0  0  0  0  0  0  0
  -25.1683   38.5434    9.8853 C   0  0  0  0  0  0  0  0  0  0  0  0
  -23.7358   38.8841    9.7215 N   0  0  0  0  0  0  0  0  0  0  0  0
  -23.0418   39.5913   10.6393 C   0  0  0  0  0  0  0  0  0  0  0  0
  -21.8791   39.9242   10.4055 O   0  0  0  0  0  0  0  0  0  0  0  0
  -22.4812   36.5807    9.6577 O   0  0  0  0  0  0  0  0  0  0  0  0
  -22.4193   37.1579    8.5475 C   0  0  0  0  0  0  0  0  0  0  0  0
  -21.7992   36.7465    7.5477 O   0  0  0  0  0  0  0  0  0  0  0  0
  -21.8067   37.2445    6.7541 H   0  0  0  0  0  0  0  0  0  0  0  0
  -23.7010   39.9608   11.9739 C   0  0  0  0  0  0  0  0  0  0  0  0
  -23.6919   41.4859   12.1309 C   0  0  0  0  0  0  0  0  0  0  0  0
  -22.9548   39.2918   13.1308 C   0  0  0  0  0  0  0  0  0  0  0  0
  -21.9806   40.4902   14.1072 S   0  0  0  0  0  0  0  0  0  0  0  0
  -21.0437   41.0696   13.3097 H   0  0  0  0  0  0  0  0  0  0  0  0
  8  9  2  0  0  0
  9 10  1  0  0  0
  9  1  1  0  0  0
  1  2  1  0  0  0
  1  5  1  0  0  0
  2  3  1  0  0  0
  3  4  1  0  0  0
  4  5  1  0  0  0
  5  6  1  0  0  0
  6  7  2  0  0  0
  6 12  1  0  0  0
 12 13  1  0  0  0
 12 14  1  0  0  0
 14 15  1  0  0  0
 10 11  1  0  0  0
 15 16  1  0  0  0
M  END
> <minimizedAffinity>
-5.82415

$$$$
1M2X_MCO_A_811


 16 16  0  0  0  0  0  0  0  0999 V2000
  -21.7057   40.6756   12.0768 C   0  0  0  0  0  0  0  0  0  0  0  0
  -20.2043   40.8937   11.8797 C   0  0  0  0  0  0  0  0  0  0  0  0
  -19.6280   39.4885   11.6697 C   0  0  0  0  0  0  0  0  0  0  0  0
  -20.7183   38.7262   10.9098 C   0  0  0  0  0  0  0  0  0  0  0  0
  -21.9506   39.4780   11.2435 N   0  0  0  0  0  0  0  0  0  0  0  0
  -23.1605   39.1650   10.7313 C   0  0  0  0  0  0  0  0  0  0  0  0
  -24.1322   39.8830   10.9718 O   0  0  0  0  0  0  0  0  0  0  0  0
  -21.1882   40.7468   14.4112 O   0  0  0  0  0  0  0  0  0  0  0  0
  -22.0077   40.3402   13.5553 C   0  0  0  0  0  0  0  0  0  0  0  0
  -23.0453   39.6918   13.7926 O   0  0  0  0  0  0  0  0  0  0  0  0
  -23.6037   39.4270   13.0883 H   0  0  0  0  0  0  0  0  0  0  0  0
  -23.3199   37.9080    9.8672 C   0  0  0  0  0  0  0  0  0  0  0  0
  -23.1716   38.2940    8.3907 C   0  0  0  0  0  0  0  0  0  0  0  0
  -24.6839   37.2633   10.1252 C   0  0  0  0  0  0  0  0  0  0  0  0
  -25.5708   36.8827    8.5737 S   0  0  0  0  0  0  0  0  0  0  0  0
  -25.7971   38.0344    7.8867 H   0  0  0  0  0  0  0  0  0  0  0  0
  8  9  2  0  0  0
  9 10  1  0  0  0
  9  1  1  0  0  0
  1  2  1  0  0  0
  1  5  1  0  0  0
  2  3  1  0  0  0
  3  4  1  0  0  0
  4  5  1  0  0  0
  5  6  1  0  0  0
  6  7  2  0  0  0
  6 12  1  0  0  0
 12 13  1  0  0  0
 12 14  1  0  0  0
 14 15  1  0  0  0
 10 11  1  0  0  0
 15 16  1  0  0  0
M  END
> <minimizedAffinity>
-5.44562

$$$$
1M2X_MCO_A_811


 16 16  0  0  0  0  0  0  0  0999 V2000
  -21.0457   39.8032   12.1531 C   0  0  0  0  0  0  0  0  0  0  0  0
  -21.6143   40.3841   13.4492 C   0  0  0  0  0  0  0  0  0  0  0  0
  -22.8716   41.1485   13.0180 C   0  0  0  0  0  0  0  0  0  0  0  0
  -23.4469   40.3340   11.8549 C   0  0  0  0  0  0  0  0  0  0  0  0
  -22.2720   39.5821   11.3556 N   0  0  0  0  0  0  0  0  0  0  0  0
  -22.3495   38.6887   10.3458 C   0  0  0  0  0  0  0  0  0  0  0  0
  -21.3583   38.0260   10.0364 O   0  0  0  0  0  0  0  0  0  0  0  0
  -20.7161   41.6113   10.6219 O   0  0  0  0  0  0  0  0  0  0  0  0
  -20.1559   40.8492   11.4435 C   0  0  0  0  0  0  0  0  0  0  0  0
  -18.9453   40.8632   11.7396 O   0  0  0  0  0  0  0  0  0  0  0  0
  -18.6095   40.2542   12.3676 H   0  0  0  0  0  0  0  0  0  0  0  0
  -23.6671   38.5175    9.5797 C   0  0  0  0  0  0  0  0  0  0  0  0
  -24.4515   37.3492   10.1886 C   0  0  0  0  0  0  0  0  0  0  0  0
  -23.3832   38.2661    8.0969 C   0  0  0  0  0  0  0  0  0  0  0  0
  -24.9155   38.0067    7.1360 S   0  0  0  0  0  0  0  0  0  0  0  0
  -25.5672   36.9108    7.6092 H   0  0  0  0  0  0  0  0  0  0  0  0
  8  9  2  0  0  0
  9 10  1  0  0  0
  9  1  1  0  0  0
  1  2  1  0  0  0
  1  5  1  0  0  0
  2  3  1  0  0  0
  3  4  1  0  0  0
  4  5  1  0  0  0
  5  6  1  0  0  0
  6  7  2  0  0  0
  6 12  1  0  0  0
 12 13  1  0  0  0
 12 14  1  0  0  0
 14 15  1  0  0  0
 10 11  1  0  0  0
 15 16  1  0  0  0
M  END
> <minimizedAffinity>
-5.44059

$$$$
1M2X_MCO_A_811


 16 16  0  0  0  0  0  0  0  0999 V2000
  -24.6596   38.3405    9.5288 C   0  0  0  0  0  0  0  0  0  0  0  0
  -26.0711   38.6487   10.0321 C   0  0  0  0  0  0  0  0  0  0  0  0
  -25.9783   38.5294   11.5579 C   0  0  0  0  0  0  0  0  0  0  0  0
  -24.5731   39.0307   11.9064 C   0  0  0  0  0  0  0  0  0  0  0  0
  -23.8240   38.8412   10.6422 N   0  0  0  0  0  0  0  0  0  0  0  0
  -22.5329   39.2087   10.4941 C   0  0  0  0  0  0  0  0  0  0  0  0
  -21.9907   39.1120    9.3922 O   0  0  0  0  0  0  0  0  0  0  0  0
  -25.4883   36.1234    9.1820 O   0  0  0  0  0  0  0  0  0  0  0  0
  -24.4634   36.8136    9.3888 C   0  0  0  0  0  0  0  0  0  0  0  0
  -23.3005   36.3765    9.4887 O   0  0  0  0  0  0  0  0  0  0  0  0
  -22.5898   36.9669    9.6444 H   0  0  0  0  0  0  0  0  0  0  0  0
  -21.7453   39.7281   11.7032 C   0  0  0  0  0  0  0  0  0  0  0  0
  -21.8844   41.2535   11.7729 C   0  0  0  0  0  0  0  0  0  0  0  0
  -20.2742   39.3223   11.5850 C   0  0  0  0  0  0  0  0  0  0  0  0
  -19.1455   40.7284   11.8808 S   0  0  0  0  0  0  0  0  0  0  0  0
  -19.3695   41.6934   10.9491 H   0  0  0  0  0  0  0  0  0  0  0  0
  8  9  2  0  0  0
  9 10  1  0  0  0
  9  1  1  0  0  0
  1  2  1  0  0  0
  1  5  1  0  0  0
  2  3  1  0  0  0
  3  4  1  0  0  0
  4  5  1  0  0  0
  5  6  1  0  0  0
  6  7  2  0  0  0
  6 12  1  0  0  0
 12 13  1  0  0  0
 12 14  1  0  0  0
 14 15  1  0  0  0
 10 11  1  0  0  0
 15 16  1  0  0  0
M  END
> <minimizedAffinity>
-5.27084

$$$$
1M2X_MCO_A_811


 16 16  0  0  0  0  0  0  0  0999 V2000
  -24.4753   37.2132    8.3246 C   0  0  0  0  0  0  0  0  0  0  0  0
  -23.0065   37.5789    8.5469 C   0  0  0  0  0  0  0  0  0  0  0  0
  -23.0223   38.5747    9.7127 C   0  0  0  0  0  0  0  0  0  0  0  0
  -24.1677   38.1048   10.6152 C   0  0  0  0  0  0  0  0  0  0  0  0
  -25.0271   37.3270    9.6925 N   0  0  0  0  0  0  0  0  0  0  0  0
  -26.1427   36.6832   10.0986 C   0  0  0  0  0  0  0  0  0  0  0  0
  -26.7654   35.9760    9.3052 O   0  0  0  0  0  0  0  0  0  0  0  0
  -25.9477   39.0618    7.9542 O   0  0  0  0  0  0  0  0  0  0  0  0
  -25.1542   38.2589    7.4107 C   0  0  0  0  0  0  0  0  0  0  0  0
  -24.8634   38.2320    6.1991 O   0  0  0  0  0  0  0  0  0  0  0  0
  -24.2573   37.5942    5.8768 H   0  0  0  0  0  0  0  0  0  0  0  0
  -26.6363   36.8506   11.5410 C   0  0  0  0  0  0  0  0  0  0  0  0
  -27.7199   35.8032   11.8236 C   0  0  0  0  0  0  0  0  0  0  0  0
  -27.1823   38.2654   11.7480 C   0  0  0  0  0  0  0  0  0  0  0  0
  -28.6461   38.5986   10.7065 S   0  0  0  0  0  0  0  0  0  0  0  0
  -28.3033   38.4909    9.3949 H   0  0  0  0  0  0  0  0  0  0  0  0
  8  9  2  0  0  0
  9 10  1  0  0  0
  9  1  1  0  0  0
  1  2  1  0  0  0
  1  5  1  0  0  0
  2  3  1  0  0  0
  3  4  1  0  0  0
  4  5  1  0  0  0
  5  6  1  0  0  0
  6  7  2  0  0  0
  6 12  1  0  0  0
 12 13  1  0  0  0
 12 14  1  0  0  0
 14 15  1  0  0  0
 10 11  1  0  0  0
 15 16  1  0  0  0
M  END
> <minimizedAffinity>
-5.24810

$$$$
1M2X_MCO_A_811


 16 16  0  0  0  0  0  0  0  0999 V2000
  -25.1030   37.3709    8.6714 C   0  0  0  0  0  0  0  0  0  0  0  0
  -24.1956   37.2588    9.8980 C   0  0  0  0  0  0  0  0  0  0  0  0
  -24.3659   38.5924   10.6352 C   0  0  0  0  0  0  0  0  0  0  0  0
  -25.8291   38.9842   10.4055 C   0  0  0  0  0  0  0  0  0  0  0  0
  -26.1882   38.2413    9.1749 N   0  0  0  0  0  0  0  0  0  0  0  0
  -27.4282   38.2659    8.6403 C   0  0  0  0  0  0  0  0  0  0  0  0
  -27.6914   37.5545    7.6697 O   0  0  0  0  0  0  0  0  0  0  0  0
  -23.1872   38.4649    7.7466 O   0  0  0  0  0  0  0  0  0  0  0  0
  -24.3617   38.0910    7.5219 C   0  0  0  0  0  0  0  0  0  0  0  0
  -24.9823   38.2471    6.4524 O   0  0  0  0  0  0  0  0  0  0  0  0
  -25.8620   37.9346    6.3713 H   0  0  0  0  0  0  0  0  0  0  0  0
  -28.4958   39.1925    9.2351 C   0  0  0  0  0  0  0  0  0  0  0  0
  -29.6456   38.3414    9.7867 C   0  0  0  0  0  0  0  0  0  0  0  0
  -29.0035   40.1627    8.1656 C   0  0  0  0  0  0  0  0  0  0  0  0
  -30.3922   41.1865    8.7672 S   0  0  0  0  0  0  0  0  0  0  0  0
  -31.4357   40.3821    9.1043 H   0  0  0  0  0  0  0  0  0  0  0  0
  8  9  2  0  0  0
  9 10  1  0  0  0
  9  1  1  0  0  0
  1  2  1  0  0  0
  1  5  1  0  0  0
  2  3  1  0  0  0
  3  4  1  0  0  0
  4  5  1  0  0  0
  5  6  1  0  0  0
  6  7  2  0  0  0
  6 12  1  0  0  0
 12 13  1  0  0  0
 12 14  1  0  0  0
 14 15  1  0  0  0
 10 11  1  0  0  0
 15 16  1  0  0  0
M  END
> <minimizedAffinity>
-5.12965

$$$$
1M2X_MCO_A_811


 16 16  0  0  0  0  0  0  0  0999 V2000
  -24.8967   37.0010    8.2211 C   0  0  0  0  0  0  0  0  0  0  0  0
  -23.6798   37.3811    9.0668 C   0  0  0  0  0  0  0  0  0  0  0  0
  -24.2654   38.0115   10.3359 C   0  0  0  0  0  0  0  0  0  0  0  0
  -25.5632   37.2396   10.5951 C   0  0  0  0  0  0  0  0  0  0  0  0
  -25.9052   36.6965    9.2597 N   0  0  0  0  0  0  0  0  0  0  0  0
  -26.9728   35.8974    9.0458 C   0  0  0  0  0  0  0  0  0  0  0  0
  -27.1534   35.4008    7.9330 O   0  0  0  0  0  0  0  0  0  0  0  0
  -26.1555   39.0165    7.9460 O   0  0  0  0  0  0  0  0  0  0  0  0
  -25.3699   38.2150    7.3893 C   0  0  0  0  0  0  0  0  0  0  0  0
  -24.9355   38.3129    6.2252 O   0  0  0  0  0  0  0  0  0  0  0  0
  -24.3488   37.6647    5.8880 H   0  0  0  0  0  0  0  0  0  0  0  0
  -27.9626   35.6272   10.1857 C   0  0  0  0  0  0  0  0  0  0  0  0
  -28.0137   34.1189   10.4567 C   0  0  0  0  0  0  0  0  0  0  0  0
  -29.3489   36.1590    9.8141 C   0  0  0  0  0  0  0  0  0  0  0  0
  -29.3464   37.9675    9.5540 S   0  0  0  0  0  0  0  0  0  0  0  0
  -28.9749   38.5905   10.7044 H   0  0  0  0  0  0  0  0  0  0  0  0
  8  9  2  0  0  0
  9 10  1  0  0  0
  9  1  1  0  0  0
  1  2  1  0  0  0
  1  5  1  0  0  0
  2  3  1  0  0  0
  3  4  1  0  0  0
  4  5  1  0  0  0
  5  6  1  0  0  0
  6  7  2  0  0  0
  6 12  1  0  0  0
 12 13  1  0  0  0
 12 14  1  0  0  0
 14 15  1  0  0  0
 10 11  1  0  0  0
 15 16  1  0  0  0
M  END
> <minimizedAffinity>
-5.08293

$$$$
1M2X_MCO_A_811


 16 16  0  0  0  0  0  0  0  0999 V2000
  -23.5013   37.4709    9.7460 C   0  0  0  0  0  0  0  0  0  0  0  0
  -22.7782   38.4933   10.6247 C   0  0  0  0  0  0  0  0  0  0  0  0
  -23.8029   39.6113   10.8504 C   0  0  0  0  0  0  0  0  0  0  0  0
  -25.1565   38.8964   10.9144 C   0  0  0  0  0  0  0  0  0  0  0  0
  -24.9048   37.6313   10.1856 N   0  0  0  0  0  0  0  0  0  0  0  0
  -25.8405   36.6673   10.0474 C   0  0  0  0  0  0  0  0  0  0  0  0
  -25.5445   35.5981    9.5119 O   0  0  0  0  0  0  0  0  0  0  0  0
  -24.4361   38.2185    7.6748 O   0  0  0  0  0  0  0  0  0  0  0  0
  -23.3835   37.8676    8.2566 C   0  0  0  0  0  0  0  0  0  0  0  0
  -22.2506   37.8132    7.7398 O   0  0  0  0  0  0  0  0  0  0  0  0
  -21.5151   37.5384    8.2511 H   0  0  0  0  0  0  0  0  0  0  0  0
  -27.2702   36.9168   10.5431 C   0  0  0  0  0  0  0  0  0  0  0  0
  -27.5776   35.9484   11.6914 C   0  0  0  0  0  0  0  0  0  0  0  0
  -28.2643   36.7294    9.3945 C   0  0  0  0  0  0  0  0  0  0  0  0
  -29.7218   35.7490    9.8974 S   0  0  0  0  0  0  0  0  0  0  0  0
  -29.3218   34.5085   10.2857 H   0  0  0  0  0  0  0  0  0  0  0  0
  8  9  2  0  0  0
  9 10  1  0  0  0
  9  1  1  0  0  0
  1  2  1  0  0  0
  1  5  1  0  0  0
  2  3  1  0  0  0
  3  4  1  0  0  0
  4  5  1  0  0  0
  5  6  1  0  0  0
  6  7  2  0  0  0
  6 12  1  0  0  0
 12 13  1  0  0  0
 12 14  1  0  0  0
 14 15  1  0  0  0
 10 11  1  0  0  0
 15 16  1  0  0  0
M  END
> <minimizedAffinity>
-4.99157

$$$$
1M2X_MCO_A_811


 16 16  0  0  0  0  0  0  0  0999 V2000
  -23.7534   38.3699    8.4086 C   0  0  0  0  0  0  0  0  0  0  0  0
  -24.6292   38.2126    7.1641 C   0  0  0  0  0  0  0  0  0  0  0  0
  -25.8601   37.4358    7.6463 C   0  0  0  0  0  0  0  0  0  0  0  0
  -26.0960   37.9237    9.0793 C   0  0  0  0  0  0  0  0  0  0  0  0
  -24.7651   38.4319    9.4862 N   0  0  0  0  0  0  0  0  0  0  0  0
  -24.5369   39.0082   10.6861 C   0  0  0  0  0  0  0  0  0  0  0  0
  -23.4326   39.4956   10.9318 O   0  0  0  0  0  0  0  0  0  0  0  0
  -22.0656   36.8349    7.6890 O   0  0  0  0  0  0  0  0  0  0  0  0
  -22.8733   37.1144    8.6051 C   0  0  0  0  0  0  0  0  0  0  0  0
  -23.0265   36.4700    9.6609 O   0  0  0  0  0  0  0  0  0  0  0  0
  -23.6565   36.7520   10.2946 H   0  0  0  0  0  0  0  0  0  0  0  0
  -25.6495   39.0369   11.7413 C   0  0  0  0  0  0  0  0  0  0  0  0
  -25.1878   39.8852   12.9321 C   0  0  0  0  0  0  0  0  0  0  0  0
  -25.9859   37.6121   12.1881 C   0  0  0  0  0  0  0  0  0  0  0  0
  -27.6694   37.4885   12.8875 S   0  0  0  0  0  0  0  0  0  0  0  0
  -27.7633   38.2843   13.9864 H   0  0  0  0  0  0  0  0  0  0  0  0
  8  9  2  0  0  0
  9 10  1  0  0  0
  9  1  1  0  0  0
  1  2  1  0  0  0
  1  5  1  0  0  0
  2  3  1  0  0  0
  3  4  1  0  0  0
  4  5  1  0  0  0
  5  6  1  0  0  0
  6  7  2  0  0  0
  6 12  1  0  0  0
 12 13  1  0  0  0
 12 14  1  0  0  0
 14 15  1  0  0  0
 10 11  1  0  0  0
 15 16  1  0  0  0
M  END
> <minimizedAffinity>
-4.84048

$$$$
