3D9Z_D9Z_A_263


 18 19  0  0  0  0  0  0  0  0999 V2000
   -5.2689    1.7744   15.1515 C   0  0  0  0  0  0  0  0  0  0  0  0
   -5.0251    2.4509   13.5947 S   0  0  0  0  0  0  0  0  0  0  0  0
   -5.9941    2.5614   15.9671 N   0  0  0  0  0  0  0  0  0  0  0  0
   -6.2974    3.7480   15.3508 N   0  0  0  0  0  0  0  0  0  0  0  0
   -5.8747    3.8786   14.0825 C   0  0  0  0  0  0  0  0  0  0  0  0
   -6.1671    5.0235   13.3388 C   0  0  0  0  0  0  0  0  0  0  0  0
   -7.4328    5.5896   13.3674 C   0  0  0  0  0  0  0  0  0  0  0  0
   -5.1950    5.5809   12.5619 C   0  0  0  0  0  0  0  0  0  0  0  0
   -5.3731    6.7230   11.8130 C   0  0  0  0  0  0  0  0  0  0  0  0
   -6.6455    7.3056   11.8466 C   0  0  0  0  0  0  0  0  0  0  0  0
   -7.6632    6.7480   12.6004 C   0  0  0  0  0  0  0  0  0  0  0  0
   -3.5825    5.1401   12.2672 Cl  0  0  0  0  0  0  0  0  0  0  0  0
   -3.4413    0.7375   16.4106 O   0  0  0  0  0  0  0  0  0  0  0  0
   -4.6994    0.3829   15.8231 S   0  0  0  0  0  0  0  0  0  0  0  0
   -4.5863   -0.5179   14.7237 O   0  0  0  0  0  0  0  0  0  0  0  0
   -5.6752   -0.2303   16.9134 N   0  0  0  0  0  0  0  0  0  0  0  0
   -5.2687   -1.0866   17.2903 H   0  0  0  0  0  0  0  0  0  0  0  0
   -6.5755   -0.4420   16.4833 H   0  0  0  0  0  0  0  0  0  0  0  0
 13 14  2  0  0  0
 14 15  2  0  0  0
 14 16  1  0  0  0
 14  1  1  0  0  0
  1  2  1  0  0  0
  1  3  2  0  0  0
  2  5  1  0  0  0
  3  4  1  0  0  0
  4  5  2  0  0  0
  5  6  1  0  0  0
  6  7  2  0  0  0
  6  8  1  0  0  0
  7 11  1  0  0  0
  8  9  2  0  0  0
  8 12  1  0  0  0
  9 10  1  0  0  0
 10 11  2  0  0  0
 16 17  1  0  0  0
 16 18  1  0  0  0
M  END
> <minimizedAffinity>
-7.32041

$$$$
3D9Z_D9Z_A_263


 18 19  0  0  0  0  0  0  0  0999 V2000
   -5.0970    1.5055   16.4011 C   0  0  0  0  0  0  0  0  0  0  0  0
   -5.6981    2.8268   15.4879 S   0  0  0  0  0  0  0  0  0  0  0  0
   -3.7543    1.4199   16.3945 N   0  0  0  0  0  0  0  0  0  0  0  0
   -3.2114    2.3893   15.5911 N   0  0  0  0  0  0  0  0  0  0  0  0
   -4.0821    3.2402   15.0234 C   0  0  0  0  0  0  0  0  0  0  0  0
   -3.6413    4.2971   14.2245 C   0  0  0  0  0  0  0  0  0  0  0  0
   -3.7049    5.6072   14.6748 C   0  0  0  0  0  0  0  0  0  0  0  0
   -3.1565    4.0339   12.9775 C   0  0  0  0  0  0  0  0  0  0  0  0
   -2.6731    5.0001   12.1233 C   0  0  0  0  0  0  0  0  0  0  0  0
   -2.7242    6.3236   12.5766 C   0  0  0  0  0  0  0  0  0  0  0  0
   -3.2386    6.6284   13.8245 C   0  0  0  0  0  0  0  0  0  0  0  0
   -2.9728    2.5860   12.1109 Cl  0  0  0  0  0  0  0  0  0  0  0  0
   -5.4845    0.4331   18.5690 O   0  0  0  0  0  0  0  0  0  0  0  0
   -5.8852    0.3001   17.1995 S   0  0  0  0  0  0  0  0  0  0  0  0
   -5.4202   -0.8961   16.5786 O   0  0  0  0  0  0  0  0  0  0  0  0
   -7.4635    0.3889   17.0653 N   0  0  0  0  0  0  0  0  0  0  0  0
   -7.8922   -0.3811   17.5788 H   0  0  0  0  0  0  0  0  0  0  0  0
   -7.7250    0.3286   16.0812 H   0  0  0  0  0  0  0  0  0  0  0  0
 13 14  2  0  0  0
 14 15  2  0  0  0
 14 16  1  0  0  0
 14  1  1  0  0  0
  1  2  1  0  0  0
  1  3  2  0  0  0
  2  5  1  0  0  0
  3  4  1  0  0  0
  4  5  2  0  0  0
  5  6  1  0  0  0
  6  7  2  0  0  0
  6  8  1  0  0  0
  7 11  1  0  0  0
  8  9  2  0  0  0
  8 12  1  0  0  0
  9 10  1  0  0  0
 10 11  2  0  0  0
 16 17  1  0  0  0
 16 18  1  0  0  0
M  END
> <minimizedAffinity>
-7.20754

$$$$
3D9Z_D9Z_A_263


 18 19  0  0  0  0  0  0  0  0999 V2000
   -3.3604    2.6865   12.3098 C   0  0  0  0  0  0  0  0  0  0  0  0
   -4.7617    1.7780   12.6995 S   0  0  0  0  0  0  0  0  0  0  0  0
   -2.7117    3.1560   13.3910 N   0  0  0  0  0  0  0  0  0  0  0  0
   -3.3894    2.8356   14.5391 N   0  0  0  0  0  0  0  0  0  0  0  0
   -4.5022    2.1000   14.3810 C   0  0  0  0  0  0  0  0  0  0  0  0
   -5.2473    1.6731   15.4819 C   0  0  0  0  0  0  0  0  0  0  0  0
   -5.0704    0.4054   16.0156 C   0  0  0  0  0  0  0  0  0  0  0  0
   -6.1727    2.5129   16.0275 C   0  0  0  0  0  0  0  0  0  0  0  0
   -6.9384    2.1987   17.1284 C   0  0  0  0  0  0  0  0  0  0  0  0
   -6.7564    0.9244   17.6786 C   0  0  0  0  0  0  0  0  0  0  0  0
   -5.8476    0.0364   17.1305 C   0  0  0  0  0  0  0  0  0  0  0  0
   -6.6656    4.0841   15.6155 Cl  0  0  0  0  0  0  0  0  0  0  0  0
   -1.7947    2.1154   10.5146 O   0  0  0  0  0  0  0  0  0  0  0  0
   -2.7397    3.1383   10.8530 S   0  0  0  0  0  0  0  0  0  0  0  0
   -2.1450    4.4098   11.1028 O   0  0  0  0  0  0  0  0  0  0  0  0
   -3.8418    3.2810    9.7208 N   0  0  0  0  0  0  0  0  0  0  0  0
   -3.3971    3.5616    8.8468 H   0  0  0  0  0  0  0  0  0  0  0  0
   -4.5238    3.9874    9.9973 H   0  0  0  0  0  0  0  0  0  0  0  0
 13 14  2  0  0  0
 14 15  2  0  0  0
 14 16  1  0  0  0
 14  1  1  0  0  0
  1  2  1  0  0  0
  1  3  2  0  0  0
  2  5  1  0  0  0
  3  4  1  0  0  0
  4  5  2  0  0  0
  5  6  1  0  0  0
  6  7  2  0  0  0
  6  8  1  0  0  0
  7 11  1  0  0  0
  8  9  2  0  0  0
  8 12  1  0  0  0
  9 10  1  0  0  0
 10 11  2  0  0  0
 16 17  1  0  0  0
 16 18  1  0  0  0
M  END
> <minimizedAffinity>
-7.01560

$$$$
3D9Z_D9Z_A_263


 18 19  0  0  0  0  0  0  0  0999 V2000
   -3.6262    2.9842   12.3025 C   0  0  0  0  0  0  0  0  0  0  0  0
   -5.1602    2.3321   12.7053 S   0  0  0  0  0  0  0  0  0  0  0  0
   -2.8256    3.1615   13.3691 N   0  0  0  0  0  0  0  0  0  0  0  0
   -3.4813    2.8306   14.5269 N   0  0  0  0  0  0  0  0  0  0  0  0
   -4.7322    2.3628   14.3829 C   0  0  0  0  0  0  0  0  0  0  0  0
   -5.4792    1.9486   15.4873 C   0  0  0  0  0  0  0  0  0  0  0  0
   -6.3934    2.7992   16.0907 C   0  0  0  0  0  0  0  0  0  0  0  0
   -5.2925    0.6935   15.9865 C   0  0  0  0  0  0  0  0  0  0  0  0
   -5.9966    0.1801   17.0531 C   0  0  0  0  0  0  0  0  0  0  0  0
   -6.9290    1.0301   17.6595 C   0  0  0  0  0  0  0  0  0  0  0  0
   -7.1211    2.3202   17.1972 C   0  0  0  0  0  0  0  0  0  0  0  0
   -4.2545   -0.5694   15.5295 Cl  0  0  0  0  0  0  0  0  0  0  0  0
   -1.9130    2.6247   10.5889 O   0  0  0  0  0  0  0  0  0  0  0  0
   -3.0179    3.4961   10.8604 S   0  0  0  0  0  0  0  0  0  0  0  0
   -2.6370    4.8491   11.0995 O   0  0  0  0  0  0  0  0  0  0  0  0
   -4.0774    3.4436    9.6807 N   0  0  0  0  0  0  0  0  0  0  0  0
   -3.6424    3.7713    8.8182 H   0  0  0  0  0  0  0  0  0  0  0  0
   -4.8712    4.0417    9.9097 H   0  0  0  0  0  0  0  0  0  0  0  0
 13 14  2  0  0  0
 14 15  2  0  0  0
 14 16  1  0  0  0
 14  1  1  0  0  0
  1  2  1  0  0  0
  1  3  2  0  0  0
  2  5  1  0  0  0
  3  4  1  0  0  0
  4  5  2  0  0  0
  5  6  1  0  0  0
  6  7  2  0  0  0
  6  8  1  0  0  0
  7 11  1  0  0  0
  8  9  2  0  0  0
  8 12  1  0  0  0
  9 10  1  0  0  0
 10 11  2  0  0  0
 16 17  1  0  0  0
 16 18  1  0  0  0
M  END
> <minimizedAffinity>
-6.91093

$$$$
3D9Z_D9Z_A_263


 18 19  0  0  0  0  0  0  0  0999 V2000
   -6.1163    1.9242   16.1758 C   0  0  0  0  0  0  0  0  0  0  0  0
   -5.1359    2.2445   14.8058 S   0  0  0  0  0  0  0  0  0  0  0  0
   -6.8760    2.9717   16.5443 N   0  0  0  0  0  0  0  0  0  0  0  0
   -6.6139    4.0614   15.7545 N   0  0  0  0  0  0  0  0  0  0  0  0
   -5.7210    3.8738   14.7687 C   0  0  0  0  0  0  0  0  0  0  0  0
   -5.4109    4.8978   13.8715 C   0  0  0  0  0  0  0  0  0  0  0  0
   -6.3879    5.4586   13.0626 C   0  0  0  0  0  0  0  0  0  0  0  0
   -4.1239    5.3392   13.7816 C   0  0  0  0  0  0  0  0  0  0  0  0
   -3.7199    6.3600   12.9499 C   0  0  0  0  0  0  0  0  0  0  0  0
   -4.7038    6.9378   12.1389 C   0  0  0  0  0  0  0  0  0  0  0  0
   -6.0133    6.4927   12.1831 C   0  0  0  0  0  0  0  0  0  0  0  0
   -2.7008    4.8648   14.5759 Cl  0  0  0  0  0  0  0  0  0  0  0  0
   -7.6157    0.3244   17.2679 O   0  0  0  0  0  0  0  0  0  0  0  0
   -6.2140    0.5959   17.1442 S   0  0  0  0  0  0  0  0  0  0  0  0
   -5.5981    1.0033   18.3638 O   0  0  0  0  0  0  0  0  0  0  0  0
   -5.4480   -0.6634   16.5575 N   0  0  0  0  0  0  0  0  0  0  0  0
   -5.5451   -1.4500   17.1996 H   0  0  0  0  0  0  0  0  0  0  0  0
   -4.4598   -0.4376   16.4435 H   0  0  0  0  0  0  0  0  0  0  0  0
 13 14  2  0  0  0
 14 15  2  0  0  0
 14 16  1  0  0  0
 14  1  1  0  0  0
  1  2  1  0  0  0
  1  3  2  0  0  0
  2  5  1  0  0  0
  3  4  1  0  0  0
  4  5  2  0  0  0
  5  6  1  0  0  0
  6  7  2  0  0  0
  6  8  1  0  0  0
  7 11  1  0  0  0
  8  9  2  0  0  0
  8 12  1  0  0  0
  9 10  1  0  0  0
 10 11  2  0  0  0
 16 17  1  0  0  0
 16 18  1  0  0  0
M  END
> <minimizedAffinity>
-6.63040

$$$$
3D9Z_D9Z_A_263


 18 19  0  0  0  0  0  0  0  0999 V2000
   -5.4538    1.5653   16.4303 C   0  0  0  0  0  0  0  0  0  0  0  0
   -5.9027    2.6233   15.1574 S   0  0  0  0  0  0  0  0  0  0  0  0
   -4.1273    1.3528   16.5039 N   0  0  0  0  0  0  0  0  0  0  0  0
   -3.4765    1.9965   15.4831 N   0  0  0  0  0  0  0  0  0  0  0  0
   -4.2468    2.7300   14.6628 C   0  0  0  0  0  0  0  0  0  0  0  0
   -3.6886    3.4682   13.6173 C   0  0  0  0  0  0  0  0  0  0  0  0
   -3.2151    2.8419   12.4742 C   0  0  0  0  0  0  0  0  0  0  0  0
   -3.5954    4.8237   13.7330 C   0  0  0  0  0  0  0  0  0  0  0  0
   -3.0870    5.6438   12.7502 C   0  0  0  0  0  0  0  0  0  0  0  0
   -2.6177    5.0184   11.5891 C   0  0  0  0  0  0  0  0  0  0  0  0
   -2.6692    3.6423   11.4522 C   0  0  0  0  0  0  0  0  0  0  0  0
   -4.0311    5.8914   14.9785 Cl  0  0  0  0  0  0  0  0  0  0  0  0
   -5.8293   -0.6072   17.4977 O   0  0  0  0  0  0  0  0  0  0  0  0
   -6.3730    0.7188   17.5027 S   0  0  0  0  0  0  0  0  0  0  0  0
   -7.6947    0.7996   16.9741 O   0  0  0  0  0  0  0  0  0  0  0  0
   -6.3485    1.3301   18.9665 N   0  0  0  0  0  0  0  0  0  0  0  0
   -6.9337    0.7643   19.5811 H   0  0  0  0  0  0  0  0  0  0  0  0
   -6.7052    2.2854   18.9420 H   0  0  0  0  0  0  0  0  0  0  0  0
 13 14  2  0  0  0
 14 15  2  0  0  0
 14 16  1  0  0  0
 14  1  1  0  0  0
  1  2  1  0  0  0
  1  3  2  0  0  0
  2  5  1  0  0  0
  3  4  1  0  0  0
  4  5  2  0  0  0
  5  6  1  0  0  0
  6  7  2  0  0  0
  6  8  1  0  0  0
  7 11  1  0  0  0
  8  9  2  0  0  0
  8 12  1  0  0  0
  9 10  1  0  0  0
 10 11  2  0  0  0
 16 17  1  0  0  0
 16 18  1  0  0  0
M  END
> <minimizedAffinity>
-6.49542

$$$$
3D9Z_D9Z_A_263


 18 19  0  0  0  0  0  0  0  0999 V2000
   -5.7779    1.3998   16.1706 C   0  0  0  0  0  0  0  0  0  0  0  0
   -4.5525    0.8698   15.0943 S   0  0  0  0  0  0  0  0  0  0  0  0
   -6.2455    2.6281   15.8827 N   0  0  0  0  0  0  0  0  0  0  0  0
   -5.5615    3.1710   14.8258 N   0  0  0  0  0  0  0  0  0  0  0  0
   -4.6245    2.3884   14.2654 C   0  0  0  0  0  0  0  0  0  0  0  0
   -3.8982    2.8165   13.1524 C   0  0  0  0  0  0  0  0  0  0  0  0
   -2.9066    3.7783   13.2737 C   0  0  0  0  0  0  0  0  0  0  0  0
   -4.1823    2.2895   11.9273 C   0  0  0  0  0  0  0  0  0  0  0  0
   -3.5078    2.6237   10.7739 C   0  0  0  0  0  0  0  0  0  0  0  0
   -2.4980    3.5860   10.8918 C   0  0  0  0  0  0  0  0  0  0  0  0
   -2.2051    4.1633   12.1149 C   0  0  0  0  0  0  0  0  0  0  0  0
   -5.3297    1.1465   11.4192 Cl  0  0  0  0  0  0  0  0  0  0  0  0
   -5.6068   -0.4754   17.7374 O   0  0  0  0  0  0  0  0  0  0  0  0
   -6.4031    0.6966   17.5220 S   0  0  0  0  0  0  0  0  0  0  0  0
   -7.7578    0.4151   17.1778 O   0  0  0  0  0  0  0  0  0  0  0  0
   -6.3645    1.6432   18.7945 N   0  0  0  0  0  0  0  0  0  0  0  0
   -6.7635    1.1531   19.5951 H   0  0  0  0  0  0  0  0  0  0  0  0
   -6.9067    2.4866   18.6074 H   0  0  0  0  0  0  0  0  0  0  0  0
 13 14  2  0  0  0
 14 15  2  0  0  0
 14 16  1  0  0  0
 14  1  1  0  0  0
  1  2  1  0  0  0
  1  3  2  0  0  0
  2  5  1  0  0  0
  3  4  1  0  0  0
  4  5  2  0  0  0
  5  6  1  0  0  0
  6  7  2  0  0  0
  6  8  1  0  0  0
  7 11  1  0  0  0
  8  9  2  0  0  0
  8 12  1  0  0  0
  9 10  1  0  0  0
 10 11  2  0  0  0
 16 17  1  0  0  0
 16 18  1  0  0  0
M  END
> <minimizedAffinity>
-6.41713

$$$$
3D9Z_D9Z_A_263


 18 19  0  0  0  0  0  0  0  0999 V2000
   -3.7996    0.4683   12.1086 C   0  0  0  0  0  0  0  0  0  0  0  0
   -4.1013    2.1289   11.8050 S   0  0  0  0  0  0  0  0  0  0  0  0
   -3.9685    0.1228   13.3979 N   0  0  0  0  0  0  0  0  0  0  0  0
   -4.2785    1.2218   14.1569 N   0  0  0  0  0  0  0  0  0  0  0  0
   -4.4003    2.3824   13.4916 C   0  0  0  0  0  0  0  0  0  0  0  0
   -4.7608    3.5584   14.1523 C   0  0  0  0  0  0  0  0  0  0  0  0
   -6.0728    3.7866   14.5393 C   0  0  0  0  0  0  0  0  0  0  0  0
   -3.8081    4.5007   14.4049 C   0  0  0  0  0  0  0  0  0  0  0  0
   -4.0543    5.6799   15.0726 C   0  0  0  0  0  0  0  0  0  0  0  0
   -5.3748    5.9110   15.4757 C   0  0  0  0  0  0  0  0  0  0  0  0
   -6.3717    4.9894   15.2080 C   0  0  0  0  0  0  0  0  0  0  0  0
   -2.1501    4.5660   14.0475 Cl  0  0  0  0  0  0  0  0  0  0  0  0
   -3.7719   -1.9437   11.6821 O   0  0  0  0  0  0  0  0  0  0  0  0
   -3.2662   -0.7297   11.1126 S   0  0  0  0  0  0  0  0  0  0  0  0
   -1.8454   -0.6211   11.1608 O   0  0  0  0  0  0  0  0  0  0  0  0
   -3.7607   -0.5639    9.6143 N   0  0  0  0  0  0  0  0  0  0  0  0
   -3.3992   -1.3327    9.0499 H   0  0  0  0  0  0  0  0  0  0  0  0
   -3.4205    0.3219    9.2401 H   0  0  0  0  0  0  0  0  0  0  0  0
 13 14  2  0  0  0
 14 15  2  0  0  0
 14 16  1  0  0  0
 14  1  1  0  0  0
  1  2  1  0  0  0
  1  3  2  0  0  0
  2  5  1  0  0  0
  3  4  1  0  0  0
  4  5  2  0  0  0
  5  6  1  0  0  0
  6  7  2  0  0  0
  6  8  1  0  0  0
  7 11  1  0  0  0
  8  9  2  0  0  0
  8 12  1  0  0  0
  9 10  1  0  0  0
 10 11  2  0  0  0
 16 17  1  0  0  0
 16 18  1  0  0  0
M  END
> <minimizedAffinity>
-6.39972

$$$$
3D9Z_D9Z_A_263


 18 19  0  0  0  0  0  0  0  0999 V2000
   -3.8100    0.9643   11.9531 C   0  0  0  0  0  0  0  0  0  0  0  0
   -3.5702    2.6134   11.5483 S   0  0  0  0  0  0  0  0  0  0  0  0
   -3.9132    0.7500   13.2773 N   0  0  0  0  0  0  0  0  0  0  0  0
   -3.7302    1.9176   13.9724 N   0  0  0  0  0  0  0  0  0  0  0  0
   -3.5397    3.0213   13.2309 C   0  0  0  0  0  0  0  0  0  0  0  0
   -3.3906    4.2747   13.8278 C   0  0  0  0  0  0  0  0  0  0  0  0
   -2.1949    4.9713   13.7369 C   0  0  0  0  0  0  0  0  0  0  0  0
   -4.4340    4.8111   14.5228 C   0  0  0  0  0  0  0  0  0  0  0  0
   -4.3984    6.0495   15.1245 C   0  0  0  0  0  0  0  0  0  0  0  0
   -3.1977    6.7624   15.0267 C   0  0  0  0  0  0  0  0  0  0  0  0
   -2.1095    6.2338   14.3549 C   0  0  0  0  0  0  0  0  0  0  0  0
   -5.9936    4.2320   14.8598 Cl  0  0  0  0  0  0  0  0  0  0  0  0
   -4.6435   -1.3287   11.7341 O   0  0  0  0  0  0  0  0  0  0  0  0
   -3.8498   -0.3828   11.0067 S   0  0  0  0  0  0  0  0  0  0  0  0
   -2.4815   -0.7615   10.8758 O   0  0  0  0  0  0  0  0  0  0  0  0
   -4.4674   -0.1193    9.5694 N   0  0  0  0  0  0  0  0  0  0  0  0
   -4.4645   -0.9873    9.0337 H   0  0  0  0  0  0  0  0  0  0  0  0
   -3.9094    0.5824    9.0829 H   0  0  0  0  0  0  0  0  0  0  0  0
 13 14  2  0  0  0
 14 15  2  0  0  0
 14 16  1  0  0  0
 14  1  1  0  0  0
  1  2  1  0  0  0
  1  3  2  0  0  0
  2  5  1  0  0  0
  3  4  1  0  0  0
  4  5  2  0  0  0
  5  6  1  0  0  0
  6  7  2  0  0  0
  6  8  1  0  0  0
  7 11  1  0  0  0
  8  9  2  0  0  0
  8 12  1  0  0  0
  9 10  1  0  0  0
 10 11  2  0  0  0
 16 17  1  0  0  0
 16 18  1  0  0  0
M  END
> <minimizedAffinity>
-6.31805

$$$$
3D9Z_D9Z_A_263


 18 19  0  0  0  0  0  0  0  0999 V2000
   -4.6203    1.9259   14.9244 C   0  0  0  0  0  0  0  0  0  0  0  0
   -5.5192    2.5924   13.6250 S   0  0  0  0  0  0  0  0  0  0  0  0
   -3.6440    2.7379   15.3690 N   0  0  0  0  0  0  0  0  0  0  0  0
   -3.5794    3.8779   14.6100 N   0  0  0  0  0  0  0  0  0  0  0  0
   -4.4973    3.9903   13.6357 C   0  0  0  0  0  0  0  0  0  0  0  0
   -4.5593    5.1294   12.8307 C   0  0  0  0  0  0  0  0  0  0  0  0
   -3.4417    5.5806   12.1447 C   0  0  0  0  0  0  0  0  0  0  0  0
   -5.7343    5.8143   12.7329 C   0  0  0  0  0  0  0  0  0  0  0  0
   -5.9072    6.9317   11.9465 C   0  0  0  0  0  0  0  0  0  0  0  0
   -4.7855    7.3855   11.2426 C   0  0  0  0  0  0  0  0  0  0  0  0
   -3.5700    6.7317   11.3437 C   0  0  0  0  0  0  0  0  0  0  0  0
   -7.2548    5.5718   13.4473 Cl  0  0  0  0  0  0  0  0  0  0  0  0
   -3.5549    0.3828   16.5005 O   0  0  0  0  0  0  0  0  0  0  0  0
   -4.7035    0.4480   15.6460 S   0  0  0  0  0  0  0  0  0  0  0  0
   -4.6652   -0.4761   14.5609 O   0  0  0  0  0  0  0  0  0  0  0  0
   -6.0362    0.2331   16.4794 N   0  0  0  0  0  0  0  0  0  0  0  0
   -6.0281   -0.6961   16.8999 H   0  0  0  0  0  0  0  0  0  0  0  0
   -6.8421    0.3192   15.8602 H   0  0  0  0  0  0  0  0  0  0  0  0
 13 14  2  0  0  0
 14 15  2  0  0  0
 14 16  1  0  0  0
 14  1  1  0  0  0
  1  2  1  0  0  0
  1  3  2  0  0  0
  2  5  1  0  0  0
  3  4  1  0  0  0
  4  5  2  0  0  0
  5  6  1  0  0  0
  6  7  2  0  0  0
  6  8  1  0  0  0
  7 11  1  0  0  0
  8  9  2  0  0  0
  8 12  1  0  0  0
  9 10  1  0  0  0
 10 11  2  0  0  0
 16 17  1  0  0  0
 16 18  1  0  0  0
M  END
> <minimizedAffinity>
-6.30675

$$$$
