4EJ8_1F1_A_106


 14 15  0  0  0  0  0  0  0  0999 V2000
   11.7748   22.3785   22.1393 C   0  0  0  0  0  0  0  0  0  0  0  0
   10.8242   21.6674   21.4013 C   0  0  0  0  0  0  0  0  0  0  0  0
    9.4733   21.6270   21.7551 C   0  0  0  0  0  0  0  0  0  0  0  0
    9.1076   22.3353   22.9006 C   0  0  0  0  0  0  0  0  0  0  0  0
    7.8680   22.5010   23.5257 C   0  0  0  0  0  0  0  0  0  0  0  0
    8.0773   23.3199   24.6337 C   0  0  0  0  0  0  0  0  0  0  0  0
    9.3930   23.6366   24.6823 N   0  0  0  0  0  0  0  0  0  0  0  0
   10.0440   23.0522   23.6453 C   0  0  0  0  0  0  0  0  0  0  0  0
   11.3952   23.0944   23.2803 C   0  0  0  0  0  0  0  0  0  0  0  0
    9.8137   24.2053   25.3670 H   0  0  0  0  0  0  0  0  0  0  0  0
   13.8783   23.4093   21.8298 O   0  0  0  0  0  0  0  0  0  0  0  0
   13.2171   22.3918   21.7067 C   0  0  0  0  0  0  0  0  0  0  0  0
   13.8078   21.3146   21.1774 O   0  0  0  0  0  0  0  0  0  0  0  0
   13.3235   20.5195   21.0712 H   0  0  0  0  0  0  0  0  0  0  0  0
 11 12  2  0  0  0
 12 13  1  0  0  0
 12  1  1  0  0  0
  1  2  2  0  0  0
  1  9  1  0  0  0
  2  3  1  0  0  0
  3  4  2  0  0  0
  8  4  1  0  0  0
  4  5  1  0  0  0
  5  6  2  0  0  0
  7  6  1  0  0  0
  8  7  1  0  0  0
  9  8  2  0  0  0
 13 14  1  0  0  0
  7 10  1  0  0  0
M  END
> <minimizedAffinity>
-4.99246

$$$$
4EJ8_1F1_A_106


 14 15  0  0  0  0  0  0  0  0999 V2000
   12.2792   22.7939   22.4563 C   0  0  0  0  0  0  0  0  0  0  0  0
   12.2946   23.6545   23.5577 C   0  0  0  0  0  0  0  0  0  0  0  0
   11.1503   23.9380   24.3071 C   0  0  0  0  0  0  0  0  0  0  0  0
    9.9683   23.3186   23.8986 C   0  0  0  0  0  0  0  0  0  0  0  0
    8.6690   23.3827   24.4108 C   0  0  0  0  0  0  0  0  0  0  0  0
    7.8782   22.5517   23.6194 C   0  0  0  0  0  0  0  0  0  0  0  0
    8.6651   22.0069   22.6614 N   0  0  0  0  0  0  0  0  0  0  0  0
    9.9378   22.4549   22.8038 C   0  0  0  0  0  0  0  0  0  0  0  0
   11.0905   22.1694   22.0617 C   0  0  0  0  0  0  0  0  0  0  0  0
    8.3597   21.3801   21.9664 H   0  0  0  0  0  0  0  0  0  0  0  0
   14.3761   23.4027   21.5533 O   0  0  0  0  0  0  0  0  0  0  0  0
   13.5456   22.5198   21.6891 C   0  0  0  0  0  0  0  0  0  0  0  0
   13.7947   21.3276   21.1360 O   0  0  0  0  0  0  0  0  0  0  0  0
   13.1741   20.6312   21.2246 H   0  0  0  0  0  0  0  0  0  0  0  0
 11 12  2  0  0  0
 12 13  1  0  0  0
 12  1  1  0  0  0
  1  2  2  0  0  0
  1  9  1  0  0  0
  2  3  1  0  0  0
  3  4  2  0  0  0
  8  4  1  0  0  0
  4  5  1  0  0  0
  5  6  2  0  0  0
  7  6  1  0  0  0
  8  7  1  0  0  0
  9  8  2  0  0  0
 13 14  1  0  0  0
  7 10  1  0  0  0
M  END
> <minimizedAffinity>
-4.96962

$$$$
4EJ8_1F1_A_106


 14 15  0  0  0  0  0  0  0  0999 V2000
    9.1994   21.5021   20.6223 C   0  0  0  0  0  0  0  0  0  0  0  0
    8.9661   22.8698   20.4529 C   0  0  0  0  0  0  0  0  0  0  0  0
    9.8379   23.8476   20.9383 C   0  0  0  0  0  0  0  0  0  0  0  0
   10.9694   23.3925   21.6166 C   0  0  0  0  0  0  0  0  0  0  0  0
   12.0233   24.0851   22.2202 C   0  0  0  0  0  0  0  0  0  0  0  0
   12.8921   23.1290   22.7429 C   0  0  0  0  0  0  0  0  0  0  0  0
   12.3844   21.9034   22.4710 N   0  0  0  0  0  0  0  0  0  0  0  0
   11.2175   22.0310   21.7907 C   0  0  0  0  0  0  0  0  0  0  0  0
   10.3430   21.0563   21.2947 C   0  0  0  0  0  0  0  0  0  0  0  0
   12.7994   21.0485   22.7283 H   0  0  0  0  0  0  0  0  0  0  0  0
    7.5733   20.7590   19.0774 O   0  0  0  0  0  0  0  0  0  0  0  0
    8.2276   20.4922   20.0715 C   0  0  0  0  0  0  0  0  0  0  0  0
    8.0470   19.2972   20.6449 O   0  0  0  0  0  0  0  0  0  0  0  0
    8.5364   19.0657   21.4097 H   0  0  0  0  0  0  0  0  0  0  0  0
 11 12  2  0  0  0
 12 13  1  0  0  0
 12  1  1  0  0  0
  1  2  2  0  0  0
  1  9  1  0  0  0
  2  3  1  0  0  0
  3  4  2  0  0  0
  8  4  1  0  0  0
  4  5  1  0  0  0
  5  6  2  0  0  0
  7  6  1  0  0  0
  8  7  1  0  0  0
  9  8  2  0  0  0
 13 14  1  0  0  0
  7 10  1  0  0  0
M  END
> <minimizedAffinity>
-4.95314

$$$$
4EJ8_1F1_A_106


 14 15  0  0  0  0  0  0  0  0999 V2000
    9.1632   21.2958   21.4331 C   0  0  0  0  0  0  0  0  0  0  0  0
    8.4713   21.9773   22.4383 C   0  0  0  0  0  0  0  0  0  0  0  0
    9.1086   22.8211   23.3512 C   0  0  0  0  0  0  0  0  0  0  0  0
   10.4915   22.9527   23.2179 C   0  0  0  0  0  0  0  0  0  0  0  0
   11.4216   23.6977   23.9492 C   0  0  0  0  0  0  0  0  0  0  0  0
   12.6698   23.4676   23.3738 C   0  0  0  0  0  0  0  0  0  0  0  0
   12.5056   22.6135   22.3359 N   0  0  0  0  0  0  0  0  0  0  0  0
   11.1954   22.2818   22.2180 C   0  0  0  0  0  0  0  0  0  0  0  0
   10.5487   21.4434   21.3015 C   0  0  0  0  0  0  0  0  0  0  0  0
   13.2281   22.2830   21.7545 H   0  0  0  0  0  0  0  0  0  0  0  0
    8.0778   20.8365   19.3852 O   0  0  0  0  0  0  0  0  0  0  0  0
    8.4225   20.4038   20.4722 C   0  0  0  0  0  0  0  0  0  0  0  0
    8.1173   19.1368   20.7736 O   0  0  0  0  0  0  0  0  0  0  0  0
    8.3699   18.7783   21.6016 H   0  0  0  0  0  0  0  0  0  0  0  0
 11 12  2  0  0  0
 12 13  1  0  0  0
 12  1  1  0  0  0
  1  2  2  0  0  0
  1  9  1  0  0  0
  2  3  1  0  0  0
  3  4  2  0  0  0
  8  4  1  0  0  0
  4  5  1  0  0  0
  5  6  2  0  0  0
  7  6  1  0  0  0
  8  7  1  0  0  0
  9  8  2  0  0  0
 13 14  1  0  0  0
  7 10  1  0  0  0
M  END
> <minimizedAffinity>
-4.84390

$$$$
4EJ8_1F1_A_106


 14 15  0  0  0  0  0  0  0  0999 V2000
    9.2584   21.2933   21.4114 C   0  0  0  0  0  0  0  0  0  0  0  0
   10.6538   21.3288   21.3367 C   0  0  0  0  0  0  0  0  0  0  0  0
   11.4312   22.1409   22.1658 C   0  0  0  0  0  0  0  0  0  0  0  0
   10.7427   22.9337   23.0851 C   0  0  0  0  0  0  0  0  0  0  0  0
   11.2003   23.8443   24.0423 C   0  0  0  0  0  0  0  0  0  0  0  0
   10.0766   24.3465   24.6959 C   0  0  0  0  0  0  0  0  0  0  0  0
    8.9789   23.7668   24.1548 N   0  0  0  0  0  0  0  0  0  0  0  0
    9.3510   22.9067   23.1738 C   0  0  0  0  0  0  0  0  0  0  0  0
    8.5785   22.0844   22.3444 C   0  0  0  0  0  0  0  0  0  0  0  0
    8.0507   23.9430   24.4316 H   0  0  0  0  0  0  0  0  0  0  0  0
    8.0891   20.8106   19.4157 O   0  0  0  0  0  0  0  0  0  0  0  0
    8.4717   20.3930   20.4959 C   0  0  0  0  0  0  0  0  0  0  0  0
    8.1658   19.1346   20.8312 O   0  0  0  0  0  0  0  0  0  0  0  0
    8.4470   18.7877   21.6550 H   0  0  0  0  0  0  0  0  0  0  0  0
 11 12  2  0  0  0
 12 13  1  0  0  0
 12  1  1  0  0  0
  1  2  2  0  0  0
  1  9  1  0  0  0
  2  3  1  0  0  0
  3  4  2  0  0  0
  8  4  1  0  0  0
  4  5  1  0  0  0
  5  6  2  0  0  0
  7  6  1  0  0  0
  8  7  1  0  0  0
  9  8  2  0  0  0
 13 14  1  0  0  0
  7 10  1  0  0  0
M  END
> <minimizedAffinity>
-4.74037

$$$$
4EJ8_1F1_A_106


 14 15  0  0  0  0  0  0  0  0999 V2000
   10.6498   22.8823   23.0417 C   0  0  0  0  0  0  0  0  0  0  0  0
   11.1307   24.1626   23.3303 C   0  0  0  0  0  0  0  0  0  0  0  0
   12.4057   24.5904   22.9521 C   0  0  0  0  0  0  0  0  0  0  0  0
   13.1951   23.6665   22.2660 C   0  0  0  0  0  0  0  0  0  0  0  0
   14.4929   23.7622   21.7548 C   0  0  0  0  0  0  0  0  0  0  0  0
   14.7839   22.5400   21.1518 C   0  0  0  0  0  0  0  0  0  0  0  0
   13.7067   21.7317   21.2941 N   0  0  0  0  0  0  0  0  0  0  0  0
   12.7279   22.3866   21.9678 C   0  0  0  0  0  0  0  0  0  0  0  0
   11.4458   21.9672   22.3435 C   0  0  0  0  0  0  0  0  0  0  0  0
   13.6435   20.8081   20.9592 H   0  0  0  0  0  0  0  0  0  0  0  0
    8.8490   22.8009   24.5694 O   0  0  0  0  0  0  0  0  0  0  0  0
    9.2635   22.4779   23.4687 C   0  0  0  0  0  0  0  0  0  0  0  0
    8.4594   21.7602   22.6764 O   0  0  0  0  0  0  0  0  0  0  0  0
    8.7521   21.4983   21.8256 H   0  0  0  0  0  0  0  0  0  0  0  0
 11 12  2  0  0  0
 12 13  1  0  0  0
 12  1  1  0  0  0
  1  2  2  0  0  0
  1  9  1  0  0  0
  2  3  1  0  0  0
  3  4  2  0  0  0
  8  4  1  0  0  0
  4  5  1  0  0  0
  5  6  2  0  0  0
  7  6  1  0  0  0
  8  7  1  0  0  0
  9  8  2  0  0  0
 13 14  1  0  0  0
  7 10  1  0  0  0
M  END
> <minimizedAffinity>
-4.65528

$$$$
4EJ8_1F1_A_106


 14 15  0  0  0  0  0  0  0  0999 V2000
   14.8286   23.3596   21.5200 C   0  0  0  0  0  0  0  0  0  0  0  0
   14.5048   24.4760   22.2962 C   0  0  0  0  0  0  0  0  0  0  0  0
   13.2879   24.5954   22.9718 C   0  0  0  0  0  0  0  0  0  0  0  0
   12.3906   23.5357   22.8317 C   0  0  0  0  0  0  0  0  0  0  0  0
   11.1108   23.3355   23.3577 C   0  0  0  0  0  0  0  0  0  0  0  0
   10.6734   22.0932   22.9021 C   0  0  0  0  0  0  0  0  0  0  0  0
   11.6475   21.5608   22.1266 N   0  0  0  0  0  0  0  0  0  0  0  0
   12.7007   22.4137   22.0633 C   0  0  0  0  0  0  0  0  0  0  0  0
   13.9258   22.2975   21.3950 C   0  0  0  0  0  0  0  0  0  0  0  0
   11.5988   20.6866   21.6765 H   0  0  0  0  0  0  0  0  0  0  0  0
   16.9240   22.3655   21.0680 O   0  0  0  0  0  0  0  0  0  0  0  0
   16.1591   23.2823   20.8190 C   0  0  0  0  0  0  0  0  0  0  0  0
   16.5427   24.1999   19.9244 O   0  0  0  0  0  0  0  0  0  0  0  0
   15.9750   24.9150   19.7140 H   0  0  0  0  0  0  0  0  0  0  0  0
 11 12  2  0  0  0
 12 13  1  0  0  0
 12  1  1  0  0  0
  1  2  2  0  0  0
  1  9  1  0  0  0
  2  3  1  0  0  0
  3  4  2  0  0  0
  8  4  1  0  0  0
  4  5  1  0  0  0
  5  6  2  0  0  0
  7  6  1  0  0  0
  8  7  1  0  0  0
  9  8  2  0  0  0
 13 14  1  0  0  0
  7 10  1  0  0  0
M  END
> <minimizedAffinity>
-4.60698

$$$$
4EJ8_1F1_A_106


 14 15  0  0  0  0  0  0  0  0999 V2000
    9.2822   21.5289   20.7513 C   0  0  0  0  0  0  0  0  0  0  0  0
   10.4799   21.1720   21.3774 C   0  0  0  0  0  0  0  0  0  0  0  0
   11.3543   22.1154   21.9222 C   0  0  0  0  0  0  0  0  0  0  0  0
   10.9770   23.4541   21.8079 C   0  0  0  0  0  0  0  0  0  0  0  0
   11.6061   24.6287   22.2313 C   0  0  0  0  0  0  0  0  0  0  0  0
   10.7781   25.6883   21.8654 C   0  0  0  0  0  0  0  0  0  0  0  0
    9.6902   25.1781   21.2408 N   0  0  0  0  0  0  0  0  0  0  0  0
    9.7836   23.8256   21.1890 C   0  0  0  0  0  0  0  0  0  0  0  0
    8.9081   22.8738   20.6517 C   0  0  0  0  0  0  0  0  0  0  0  0
    8.9441   25.7087   20.8790 H   0  0  0  0  0  0  0  0  0  0  0  0
    7.7776   20.6718   19.1436 O   0  0  0  0  0  0  0  0  0  0  0  0
    8.3747   20.4678   20.1874 C   0  0  0  0  0  0  0  0  0  0  0  0
    8.1903   19.2939   20.8017 O   0  0  0  0  0  0  0  0  0  0  0  0
    8.6363   19.1104   21.6051 H   0  0  0  0  0  0  0  0  0  0  0  0
 11 12  2  0  0  0
 12 13  1  0  0  0
 12  1  1  0  0  0
  1  2  2  0  0  0
  1  9  1  0  0  0
  2  3  1  0  0  0
  3  4  2  0  0  0
  8  4  1  0  0  0
  4  5  1  0  0  0
  5  6  2  0  0  0
  7  6  1  0  0  0
  8  7  1  0  0  0
  9  8  2  0  0  0
 13 14  1  0  0  0
  7 10  1  0  0  0
M  END
> <minimizedAffinity>
-4.60612

$$$$
4EJ8_1F1_A_106


 14 15  0  0  0  0  0  0  0  0999 V2000
   12.7764   23.1659   22.4760 C   0  0  0  0  0  0  0  0  0  0  0  0
   12.9578   24.4168   23.0727 C   0  0  0  0  0  0  0  0  0  0  0  0
   12.0007   24.9981   23.9079 C   0  0  0  0  0  0  0  0  0  0  0  0
   10.8319   24.2657   24.1207 C   0  0  0  0  0  0  0  0  0  0  0  0
    9.6932   24.5470   24.8815 C   0  0  0  0  0  0  0  0  0  0  0  0
    8.8342   23.4580   24.7461 C   0  0  0  0  0  0  0  0  0  0  0  0
    9.4259   22.5519   23.9320 N   0  0  0  0  0  0  0  0  0  0  0  0
   10.6378   23.0148   23.5350 C   0  0  0  0  0  0  0  0  0  0  0  0
   11.6051   22.4350   22.7048 C   0  0  0  0  0  0  0  0  0  0  0  0
    9.0354   21.6876   23.6681 H   0  0  0  0  0  0  0  0  0  0  0  0
   14.8183   23.2585   21.2907 O   0  0  0  0  0  0  0  0  0  0  0  0
   13.8460   22.5853   21.5892 C   0  0  0  0  0  0  0  0  0  0  0  0
   13.7652   21.3417   21.1032 O   0  0  0  0  0  0  0  0  0  0  0  0
   13.0292   20.8023   21.3163 H   0  0  0  0  0  0  0  0  0  0  0  0
 11 12  2  0  0  0
 12 13  1  0  0  0
 12  1  1  0  0  0
  1  2  2  0  0  0
  1  9  1  0  0  0
  2  3  1  0  0  0
  3  4  2  0  0  0
  8  4  1  0  0  0
  4  5  1  0  0  0
  5  6  2  0  0  0
  7  6  1  0  0  0
  8  7  1  0  0  0
  9  8  2  0  0  0
 13 14  1  0  0  0
  7 10  1  0  0  0
M  END
> <minimizedAffinity>
-4.55196

$$$$
4EJ8_1F1_A_106


 14 15  0  0  0  0  0  0  0  0999 V2000
   10.8714   22.1836   21.4501 C   0  0  0  0  0  0  0  0  0  0  0  0
   10.5007   23.5276   21.3498 C   0  0  0  0  0  0  0  0  0  0  0  0
    9.2901   23.9340   20.7833 C   0  0  0  0  0  0  0  0  0  0  0  0
    8.4537   22.9229   20.3083 C   0  0  0  0  0  0  0  0  0  0  0  0
    7.1987   22.9768   19.6944 C   0  0  0  0  0  0  0  0  0  0  0  0
    6.8153   21.6621   19.4360 C   0  0  0  0  0  0  0  0  0  0  0  0
    7.8002   20.8415   19.8723 N   0  0  0  0  0  0  0  0  0  0  0  0
    8.8082   21.5773   20.4043 C   0  0  0  0  0  0  0  0  0  0  0  0
   10.0202   21.1769   20.9803 C   0  0  0  0  0  0  0  0  0  0  0  0
    7.7868   19.8589   19.8124 H   0  0  0  0  0  0  0  0  0  0  0  0
   12.3117   21.8308   23.2896 O   0  0  0  0  0  0  0  0  0  0  0  0
   12.1869   21.8036   22.0767 C   0  0  0  0  0  0  0  0  0  0  0  0
   13.2426   21.4383   21.3408 O   0  0  0  0  0  0  0  0  0  0  0  0
   13.1749   21.4086   20.4068 H   0  0  0  0  0  0  0  0  0  0  0  0
 11 12  2  0  0  0
 12 13  1  0  0  0
 12  1  1  0  0  0
  1  2  2  0  0  0
  1  9  1  0  0  0
  2  3  1  0  0  0
  3  4  2  0  0  0
  8  4  1  0  0  0
  4  5  1  0  0  0
  5  6  2  0  0  0
  7  6  1  0  0  0
  8  7  1  0  0  0
  9  8  2  0  0  0
 13 14  1  0  0  0
  7 10  1  0  0  0
M  END
> <minimizedAffinity>
-4.51053

$$$$
