1N4K_I3P_A_1000


 33 33  0  0  0  0  0  0  0  0999 V2000
   23.5689    0.0262   10.3903 C   0  0  0  0  0  0  0  0  0  0  0  0
   23.7488    1.0168   11.5799 C   0  0  0  0  0  0  0  0  0  0  0  0
   22.9320    0.5426   12.7837 C   0  0  0  0  0  0  0  0  0  0  0  0
   23.4065   -0.8663   13.1990 C   0  0  0  0  0  0  0  0  0  0  0  0
   23.2331   -1.8465   12.0230 C   0  0  0  0  0  0  0  0  0  0  0  0
   24.0485   -1.3851   10.7973 C   0  0  0  0  0  0  0  0  0  0  0  0
   25.1301    1.1127   11.9504 O   0  0  0  0  0  0  0  0  0  0  0  0
   23.1165    1.4400   13.8569 O   0  0  0  0  0  0  0  0  0  0  0  0
   23.8709   -2.2819    9.7047 O   0  0  0  0  0  0  0  0  0  0  0  0
   25.4505    0.2416   12.2324 H   0  0  0  0  0  0  0  0  0  0  0  0
   24.0568    1.4729   14.0928 H   0  0  0  0  0  0  0  0  0  0  0  0
   22.9330   -2.3106    9.4591 H   0  0  0  0  0  0  0  0  0  0  0  0
   24.3656    0.3880    9.1931 O   0  0  0  0  0  0  0  0  0  0  0  0
   23.7603    0.5533    7.7292 P   0  0  0  0  0  0  0  0  0  0  0  0
   24.3317    1.8298    7.2216 O   0  0  0  0  0  0  0  0  0  0  0  0
   22.2909    0.5791    7.9458 O   0  0  0  0  0  0  0  0  0  0  0  0
   24.2236   -0.6830    7.1032 O   0  0  0  0  0  0  0  0  0  0  0  0
   22.0401    1.4186    8.3620 H   0  0  0  0  0  0  0  0  0  0  0  0
   25.1858   -0.6453    6.9862 H   0  0  0  0  0  0  0  0  0  0  0  0
   22.6091   -1.2997   14.3699 O   0  0  0  0  0  0  0  0  0  0  0  0
   23.1371   -1.5076   15.8626 P   0  0  0  0  0  0  0  0  0  0  0  0
   24.2814   -0.5581   15.8619 O   0  0  0  0  0  0  0  0  0  0  0  0
   22.0104   -1.0705   16.6837 O   0  0  0  0  0  0  0  0  0  0  0  0
   23.4626   -2.9463   16.0361 O   0  0  0  0  0  0  0  0  0  0  0  0
   21.8446   -0.1273   16.5294 H   0  0  0  0  0  0  0  0  0  0  0  0
   24.2148   -3.1783   15.4693 H   0  0  0  0  0  0  0  0  0  0  0  0
   23.7112   -3.1796   12.4413 O   0  0  0  0  0  0  0  0  0  0  0  0
   22.9017   -4.5578   12.4729 P   0  0  0  0  0  0  0  0  0  0  0  0
   22.7869   -4.7579   13.9405 O   0  0  0  0  0  0  0  0  0  0  0  0
   21.6355   -4.2567   11.7446 O   0  0  0  0  0  0  0  0  0  0  0  0
   23.8191   -5.4605   11.7865 O   0  0  0  0  0  0  0  0  0  0  0  0
   21.0931   -3.6525   12.2754 H   0  0  0  0  0  0  0  0  0  0  0  0
   24.6087   -5.5961   12.3333 H   0  0  0  0  0  0  0  0  0  0  0  0
  1  2  1  0  0  0
  1  6  1  0  0  0
  1 13  1  0  0  0
  2  3  1  0  0  0
  2  7  1  0  0  0
  3  4  1  0  0  0
  3  8  1  0  0  0
  4  5  1  0  0  0
  4 20  1  0  0  0
  5  6  1  0  0  0
  5 27  1  0  0  0
  6  9  1  0  0  0
 13 14  1  0  0  0
 20 21  1  0  0  0
 27 28  1  0  0  0
 14 15  2  0  0  0
 14 16  1  0  0  0
 14 17  1  0  0  0
 21 22  2  0  0  0
 21 23  1  0  0  0
 21 24  1  0  0  0
 28 29  2  0  0  0
 28 30  1  0  0  0
 28 31  1  0  0  0
  7 10  1  0  0  0
  8 11  1  0  0  0
  9 12  1  0  0  0
 16 18  1  0  0  0
 17 19  1  0  0  0
 23 25  1  0  0  0
 24 26  1  0  0  0
 30 32  1  0  0  0
 31 33  1  0  0  0
M  END
> <minimizedAffinity>
-7.51454

$$$$
1N4K_I3P_A_1000


 33 33  0  0  0  0  0  0  0  0999 V2000
   23.2529   -2.3081   10.1555 C   0  0  0  0  0  0  0  0  0  0  0  0
   22.9023   -3.6947   10.7743 C   0  0  0  0  0  0  0  0  0  0  0  0
   23.4759   -3.7963   12.1892 C   0  0  0  0  0  0  0  0  0  0  0  0
   22.8843   -2.6688   13.0617 C   0  0  0  0  0  0  0  0  0  0  0  0
   23.2265   -1.2969   12.4495 C   0  0  0  0  0  0  0  0  0  0  0  0
   22.6577   -1.1747   11.0206 C   0  0  0  0  0  0  0  0  0  0  0  0
   21.4817   -3.8795   10.8227 O   0  0  0  0  0  0  0  0  0  0  0  0
   23.1378   -5.0498   12.7420 O   0  0  0  0  0  0  0  0  0  0  0  0
   22.9923    0.0867   10.4491 O   0  0  0  0  0  0  0  0  0  0  0  0
   21.0849   -3.1918   11.3798 H   0  0  0  0  0  0  0  0  0  0  0  0
   22.1725   -5.1394   12.7738 H   0  0  0  0  0  0  0  0  0  0  0  0
   23.9572    0.1765   10.4064 H   0  0  0  0  0  0  0  0  0  0  0  0
   22.6938   -2.1078    8.7967 O   0  0  0  0  0  0  0  0  0  0  0  0
   23.4249   -1.2981    7.6363 P   0  0  0  0  0  0  0  0  0  0  0  0
   24.8343   -1.1641    8.0938 O   0  0  0  0  0  0  0  0  0  0  0  0
   22.6768   -0.0170    7.5619 O   0  0  0  0  0  0  0  0  0  0  0  0
   23.1725   -2.1739    6.4943 O   0  0  0  0  0  0  0  0  0  0  0  0
   22.8811    0.5225    8.3417 H   0  0  0  0  0  0  0  0  0  0  0  0
   23.6841   -2.9919    6.5948 H   0  0  0  0  0  0  0  0  0  0  0  0
   23.4461   -2.7931   14.4268 O   0  0  0  0  0  0  0  0  0  0  0  0
   22.6265   -2.9680   15.7861 P   0  0  0  0  0  0  0  0  0  0  0  0
   22.0802   -4.3353   15.5793 O   0  0  0  0  0  0  0  0  0  0  0  0
   23.6605   -2.8969   16.8158 O   0  0  0  0  0  0  0  0  0  0  0  0
   21.6406   -1.8603   15.8711 O   0  0  0  0  0  0  0  0  0  0  0  0
   24.2727   -3.6419   16.7112 H   0  0  0  0  0  0  0  0  0  0  0  0
   20.9816   -1.9591   15.1662 H   0  0  0  0  0  0  0  0  0  0  0  0
   22.6337   -0.2393   13.2925 O   0  0  0  0  0  0  0  0  0  0  0  0
   23.3811    0.9246   14.0939 P   0  0  0  0  0  0  0  0  0  0  0  0
   24.2232    1.4884   13.0076 O   0  0  0  0  0  0  0  0  0  0  0  0
   22.2771    1.7933   14.5946 O   0  0  0  0  0  0  0  0  0  0  0  0
   24.0983    0.1718   15.1169 O   0  0  0  0  0  0  0  0  0  0  0  0
   21.8616    2.2510   13.8471 H   0  0  0  0  0  0  0  0  0  0  0  0
   24.7931   -0.3606   14.6991 H   0  0  0  0  0  0  0  0  0  0  0  0
  1  2  1  0  0  0
  1  6  1  0  0  0
  1 13  1  0  0  0
  2  3  1  0  0  0
  2  7  1  0  0  0
  3  4  1  0  0  0
  3  8  1  0  0  0
  4  5  1  0  0  0
  4 20  1  0  0  0
  5  6  1  0  0  0
  5 27  1  0  0  0
  6  9  1  0  0  0
 13 14  1  0  0  0
 20 21  1  0  0  0
 27 28  1  0  0  0
 14 15  2  0  0  0
 14 16  1  0  0  0
 14 17  1  0  0  0
 21 22  2  0  0  0
 21 23  1  0  0  0
 21 24  1  0  0  0
 28 29  2  0  0  0
 28 30  1  0  0  0
 28 31  1  0  0  0
  7 10  1  0  0  0
  8 11  1  0  0  0
  9 12  1  0  0  0
 16 18  1  0  0  0
 17 19  1  0  0  0
 23 25  1  0  0  0
 24 26  1  0  0  0
 30 32  1  0  0  0
 31 33  1  0  0  0
M  END
> <minimizedAffinity>
-7.37850

$$$$
1N4K_I3P_A_1000


 33 33  0  0  0  0  0  0  0  0999 V2000
   22.7019   -0.7317   10.5553 C   0  0  0  0  0  0  0  0  0  0  0  0
   23.6776    0.1571   11.3841 C   0  0  0  0  0  0  0  0  0  0  0  0
   23.0736    0.4567   12.7577 C   0  0  0  0  0  0  0  0  0  0  0  0
   22.8146   -0.8708   13.5015 C   0  0  0  0  0  0  0  0  0  0  0  0
   21.8532   -1.7529   12.6820 C   0  0  0  0  0  0  0  0  0  0  0  0
   22.4436   -2.0655   11.2913 C   0  0  0  0  0  0  0  0  0  0  0  0
   24.9390   -0.5023   11.5528 O   0  0  0  0  0  0  0  0  0  0  0  0
   23.9737    1.2487   13.5017 O   0  0  0  0  0  0  0  0  0  0  0  0
   21.5445   -2.8644   10.5279 O   0  0  0  0  0  0  0  0  0  0  0  0
   24.8071   -1.3344   12.0335 H   0  0  0  0  0  0  0  0  0  0  0  0
   24.8110    0.7711   13.6103 H   0  0  0  0  0  0  0  0  0  0  0  0
   20.7089   -2.3865   10.4086 H   0  0  0  0  0  0  0  0  0  0  0  0
   23.2316   -1.1081    9.2224 O   0  0  0  0  0  0  0  0  0  0  0  0
   23.3361   -0.1114    7.9846 P   0  0  0  0  0  0  0  0  0  0  0  0
   23.3152   -0.9900    6.7841 O   0  0  0  0  0  0  0  0  0  0  0  0
   24.6198    0.6036    8.2027 O   0  0  0  0  0  0  0  0  0  0  0  0
   22.1659    0.7324    8.2166 O   0  0  0  0  0  0  0  0  0  0  0  0
   25.3593   -0.0014    8.0354 H   0  0  0  0  0  0  0  0  0  0  0  0
   21.3593    0.2167    8.0604 H   0  0  0  0  0  0  0  0  0  0  0  0
   22.2396   -0.5556   14.8299 O   0  0  0  0  0  0  0  0  0  0  0  0
   22.7815   -1.0501   16.2483 P   0  0  0  0  0  0  0  0  0  0  0  0
   24.2380   -0.8193   16.0584 O   0  0  0  0  0  0  0  0  0  0  0  0
   22.1569   -0.1241   17.1903 O   0  0  0  0  0  0  0  0  0  0  0  0
   22.3470   -2.4576   16.4383 O   0  0  0  0  0  0  0  0  0  0  0  0
   22.4768    0.7755   17.0195 H   0  0  0  0  0  0  0  0  0  0  0  0
   22.7920   -3.0239   15.7884 H   0  0  0  0  0  0  0  0  0  0  0  0
   21.6381   -3.0215   13.4065 O   0  0  0  0  0  0  0  0  0  0  0  0
   20.2793   -3.5895   14.0283 P   0  0  0  0  0  0  0  0  0  0  0  0
   20.8158   -4.7068   14.8475 O   0  0  0  0  0  0  0  0  0  0  0  0
   19.7073   -2.4341   14.7779 O   0  0  0  0  0  0  0  0  0  0  0  0
   19.5444   -3.9853   12.8322 O   0  0  0  0  0  0  0  0  0  0  0  0
   20.2601   -2.2455   15.5524 H   0  0  0  0  0  0  0  0  0  0  0  0
   19.9888   -4.7396   12.4145 H   0  0  0  0  0  0  0  0  0  0  0  0
  1  2  1  0  0  0
  1  6  1  0  0  0
  1 13  1  0  0  0
  2  3  1  0  0  0
  2  7  1  0  0  0
  3  4  1  0  0  0
  3  8  1  0  0  0
  4  5  1  0  0  0
  4 20  1  0  0  0
  5  6  1  0  0  0
  5 27  1  0  0  0
  6  9  1  0  0  0
 13 14  1  0  0  0
 20 21  1  0  0  0
 27 28  1  0  0  0
 14 15  2  0  0  0
 14 16  1  0  0  0
 14 17  1  0  0  0
 21 22  2  0  0  0
 21 23  1  0  0  0
 21 24  1  0  0  0
 28 29  2  0  0  0
 28 30  1  0  0  0
 28 31  1  0  0  0
  7 10  1  0  0  0
  8 11  1  0  0  0
  9 12  1  0  0  0
 16 18  1  0  0  0
 17 19  1  0  0  0
 23 25  1  0  0  0
 24 26  1  0  0  0
 30 32  1  0  0  0
 31 33  1  0  0  0
M  END
> <minimizedAffinity>
-7.29614

$$$$
1N4K_I3P_A_1000


 33 33  0  0  0  0  0  0  0  0999 V2000
   20.2713   -4.3331   14.0004 C   0  0  0  0  0  0  0  0  0  0  0  0
   20.5616   -4.3310   12.4692 C   0  0  0  0  0  0  0  0  0  0  0  0
   20.9106   -2.9156   12.0047 C   0  0  0  0  0  0  0  0  0  0  0  0
   22.1529   -2.4180   12.7739 C   0  0  0  0  0  0  0  0  0  0  0  0
   21.8694   -2.4229   14.2884 C   0  0  0  0  0  0  0  0  0  0  0  0
   21.5137   -3.8424   14.7770 C   0  0  0  0  0  0  0  0  0  0  0  0
   21.6482   -5.2139   12.1618 O   0  0  0  0  0  0  0  0  0  0  0  0
   21.1856   -2.9319   10.6209 O   0  0  0  0  0  0  0  0  0  0  0  0
   21.2324   -3.8410   16.1736 O   0  0  0  0  0  0  0  0  0  0  0  0
   22.4484   -4.9138   12.6207 H   0  0  0  0  0  0  0  0  0  0  0  0
   21.9322   -3.5261   10.4465 H   0  0  0  0  0  0  0  0  0  0  0  0
   20.4799   -3.2553   16.3513 H   0  0  0  0  0  0  0  0  0  0  0  0
   19.9678   -5.6791   14.5435 O   0  0  0  0  0  0  0  0  0  0  0  0
   18.7422   -6.0017   15.5082 P   0  0  0  0  0  0  0  0  0  0  0  0
   17.6508   -6.4501   14.6019 O   0  0  0  0  0  0  0  0  0  0  0  0
   18.4781   -4.7144   16.2009 O   0  0  0  0  0  0  0  0  0  0  0  0
   19.3424   -7.0076   16.3817 O   0  0  0  0  0  0  0  0  0  0  0  0
   18.0816   -4.0867   15.5766 H   0  0  0  0  0  0  0  0  0  0  0  0
   19.4923   -7.8238   15.8795 H   0  0  0  0  0  0  0  0  0  0  0  0
   22.4766   -1.0518   12.3015 O   0  0  0  0  0  0  0  0  0  0  0  0
   23.7747   -0.6044   11.4860 P   0  0  0  0  0  0  0  0  0  0  0  0
   23.1710   -0.3931   10.1436 O   0  0  0  0  0  0  0  0  0  0  0  0
   24.1812    0.6322   12.1495 O   0  0  0  0  0  0  0  0  0  0  0  0
   24.7836   -1.6882   11.6020 O   0  0  0  0  0  0  0  0  0  0  0  0
   23.4868    1.3007   12.0411 H   0  0  0  0  0  0  0  0  0  0  0  0
   24.4608   -2.4806   11.1450 H   0  0  0  0  0  0  0  0  0  0  0  0
   23.0785   -1.9612   14.9995 O   0  0  0  0  0  0  0  0  0  0  0  0
   23.2421   -0.6884   15.9528 P   0  0  0  0  0  0  0  0  0  0  0  0
   24.5291   -1.0237   16.6150 O   0  0  0  0  0  0  0  0  0  0  0  0
   23.2620    0.4719   15.0160 O   0  0  0  0  0  0  0  0  0  0  0  0
   22.0569   -0.7912   16.7968 O   0  0  0  0  0  0  0  0  0  0  0  0
   24.0832    0.4568   14.5000 H   0  0  0  0  0  0  0  0  0  0  0  0
   22.1338   -1.5711   17.3685 H   0  0  0  0  0  0  0  0  0  0  0  0
  1  2  1  0  0  0
  1  6  1  0  0  0
  1 13  1  0  0  0
  2  3  1  0  0  0
  2  7  1  0  0  0
  3  4  1  0  0  0
  3  8  1  0  0  0
  4  5  1  0  0  0
  4 20  1  0  0  0
  5  6  1  0  0  0
  5 27  1  0  0  0
  6  9  1  0  0  0
 13 14  1  0  0  0
 20 21  1  0  0  0
 27 28  1  0  0  0
 14 15  2  0  0  0
 14 16  1  0  0  0
 14 17  1  0  0  0
 21 22  2  0  0  0
 21 23  1  0  0  0
 21 24  1  0  0  0
 28 29  2  0  0  0
 28 30  1  0  0  0
 28 31  1  0  0  0
  7 10  1  0  0  0
  8 11  1  0  0  0
  9 12  1  0  0  0
 16 18  1  0  0  0
 17 19  1  0  0  0
 23 25  1  0  0  0
 24 26  1  0  0  0
 30 32  1  0  0  0
 31 33  1  0  0  0
M  END
> <minimizedAffinity>
-6.88021

$$$$
1N4K_I3P_A_1000


 33 33  0  0  0  0  0  0  0  0999 V2000
   23.8130   -2.5488   11.1421 C   0  0  0  0  0  0  0  0  0  0  0  0
   22.8007   -3.6894   10.8212 C   0  0  0  0  0  0  0  0  0  0  0  0
   22.5680   -4.5481   12.0661 C   0  0  0  0  0  0  0  0  0  0  0  0
   22.0146   -3.6609   13.2015 C   0  0  0  0  0  0  0  0  0  0  0  0
   23.0121   -2.5300   13.5179 C   0  0  0  0  0  0  0  0  0  0  0  0
   23.2618   -1.6526   12.2737 C   0  0  0  0  0  0  0  0  0  0  0  0
   21.5511   -3.1438   10.3794 O   0  0  0  0  0  0  0  0  0  0  0  0
   21.6389   -5.5663   11.7649 O   0  0  0  0  0  0  0  0  0  0  0  0
   24.1995   -0.6199   12.5630 O   0  0  0  0  0  0  0  0  0  0  0  0
   21.1720   -2.5934   11.0825 H   0  0  0  0  0  0  0  0  0  0  0  0
   20.8013   -5.1666   11.4827 H   0  0  0  0  0  0  0  0  0  0  0  0
   25.0420   -1.0154   12.8364 H   0  0  0  0  0  0  0  0  0  0  0  0
   24.0614   -1.6386    9.9981 O   0  0  0  0  0  0  0  0  0  0  0  0
   25.5088   -1.2491    9.4597 P   0  0  0  0  0  0  0  0  0  0  0  0
   25.8494   -2.3127    8.4766 O   0  0  0  0  0  0  0  0  0  0  0  0
   26.3585   -1.2413   10.6781 O   0  0  0  0  0  0  0  0  0  0  0  0
   25.2513    0.0899    8.9345 O   0  0  0  0  0  0  0  0  0  0  0  0
   26.4964   -2.1521   10.9820 H   0  0  0  0  0  0  0  0  0  0  0  0
   24.6945    0.0251    8.1428 H   0  0  0  0  0  0  0  0  0  0  0  0
   21.7889   -4.5144   14.3911 O   0  0  0  0  0  0  0  0  0  0  0  0
   20.4955   -4.5269   15.3277 P   0  0  0  0  0  0  0  0  0  0  0  0
   21.1481   -4.4775   16.6628 O   0  0  0  0  0  0  0  0  0  0  0  0
   19.8035   -3.2923   14.9650 O   0  0  0  0  0  0  0  0  0  0  0  0
   19.7135   -5.7492   15.0109 O   0  0  0  0  0  0  0  0  0  0  0  0
   20.3592   -2.5309   15.1939 H   0  0  0  0  0  0  0  0  0  0  0  0
   20.2201   -6.5340   15.2723 H   0  0  0  0  0  0  0  0  0  0  0  0
   22.4500   -1.6876   14.5925 O   0  0  0  0  0  0  0  0  0  0  0  0
   23.0659   -1.3799   16.0352 P   0  0  0  0  0  0  0  0  0  0  0  0
   24.1260   -0.4078   15.6630 O   0  0  0  0  0  0  0  0  0  0  0  0
   21.9169   -0.8394   16.8174 O   0  0  0  0  0  0  0  0  0  0  0  0
   23.5390   -2.6968   16.4467 O   0  0  0  0  0  0  0  0  0  0  0  0
   21.6742    0.0345   16.4735 H   0  0  0  0  0  0  0  0  0  0  0  0
   24.2830   -2.9634   15.8843 H   0  0  0  0  0  0  0  0  0  0  0  0
  1  2  1  0  0  0
  1  6  1  0  0  0
  1 13  1  0  0  0
  2  3  1  0  0  0
  2  7  1  0  0  0
  3  4  1  0  0  0
  3  8  1  0  0  0
  4  5  1  0  0  0
  4 20  1  0  0  0
  5  6  1  0  0  0
  5 27  1  0  0  0
  6  9  1  0  0  0
 13 14  1  0  0  0
 20 21  1  0  0  0
 27 28  1  0  0  0
 14 15  2  0  0  0
 14 16  1  0  0  0
 14 17  1  0  0  0
 21 22  2  0  0  0
 21 23  1  0  0  0
 21 24  1  0  0  0
 28 29  2  0  0  0
 28 30  1  0  0  0
 28 31  1  0  0  0
  7 10  1  0  0  0
  8 11  1  0  0  0
  9 12  1  0  0  0
 16 18  1  0  0  0
 17 19  1  0  0  0
 23 25  1  0  0  0
 24 26  1  0  0  0
 30 32  1  0  0  0
 31 33  1  0  0  0
M  END
> <minimizedAffinity>
-6.84529

$$$$
1N4K_I3P_A_1000


 33 33  0  0  0  0  0  0  0  0999 V2000
   22.9338   -3.6140   10.6086 C   0  0  0  0  0  0  0  0  0  0  0  0
   23.2510   -2.2099   10.0115 C   0  0  0  0  0  0  0  0  0  0  0  0
   22.6388   -1.1172   10.8902 C   0  0  0  0  0  0  0  0  0  0  0  0
   23.2206   -1.2234   12.3160 C   0  0  0  0  0  0  0  0  0  0  0  0
   22.9115   -2.6125   12.9069 C   0  0  0  0  0  0  0  0  0  0  0  0
   23.5196   -3.7296   12.0337 C   0  0  0  0  0  0  0  0  0  0  0  0
   24.6675   -2.0096    9.9212 O   0  0  0  0  0  0  0  0  0  0  0  0
   22.9467    0.1478   10.3462 O   0  0  0  0  0  0  0  0  0  0  0  0
   23.2156   -5.0135   12.5709 O   0  0  0  0  0  0  0  0  0  0  0  0
   25.0576   -2.0551   10.8081 H   0  0  0  0  0  0  0  0  0  0  0  0
   23.9097    0.2588   10.3106 H   0  0  0  0  0  0  0  0  0  0  0  0
   22.2534   -5.1326   12.5993 H   0  0  0  0  0  0  0  0  0  0  0  0
   23.5313   -4.7327    9.8402 O   0  0  0  0  0  0  0  0  0  0  0  0
   22.8196   -6.1373    9.6008 P   0  0  0  0  0  0  0  0  0  0  0  0
   21.4442   -5.9654   10.1414 O   0  0  0  0  0  0  0  0  0  0  0  0
   23.6613   -7.1026   10.3534 O   0  0  0  0  0  0  0  0  0  0  0  0
   22.9577   -6.2676    8.1521 O   0  0  0  0  0  0  0  0  0  0  0  0
   23.5306   -6.9718   11.3056 H   0  0  0  0  0  0  0  0  0  0  0  0
   22.3887   -5.6162    7.7131 H   0  0  0  0  0  0  0  0  0  0  0  0
   22.6212   -0.1516   13.1445 O   0  0  0  0  0  0  0  0  0  0  0  0
   23.4031    0.9261   14.0260 P   0  0  0  0  0  0  0  0  0  0  0  0
   22.2545    1.7268   14.5264 O   0  0  0  0  0  0  0  0  0  0  0  0
   24.0488    0.1159   15.0562 O   0  0  0  0  0  0  0  0  0  0  0  0
   24.3702    1.6252   13.1416 O   0  0  0  0  0  0  0  0  0  0  0  0
   23.3713   -0.3147   15.6007 H   0  0  0  0  0  0  0  0  0  0  0  0
   23.8867    2.1449   12.4806 H   0  0  0  0  0  0  0  0  0  0  0  0
   23.4945   -2.6930   14.2612 O   0  0  0  0  0  0  0  0  0  0  0  0
   22.7430   -2.9388   15.6507 P   0  0  0  0  0  0  0  0  0  0  0  0
   22.3256   -4.3535   15.4733 O   0  0  0  0  0  0  0  0  0  0  0  0
   23.7874   -2.6810   16.6836 O   0  0  0  0  0  0  0  0  0  0  0  0
   21.6678   -1.9551   15.5884 O   0  0  0  0  0  0  0  0  0  0  0  0
   24.4558   -3.3830   16.6498 H   0  0  0  0  0  0  0  0  0  0  0  0
   21.0408   -2.2051   14.8918 H   0  0  0  0  0  0  0  0  0  0  0  0
  1  2  1  0  0  0
  1  6  1  0  0  0
  1 13  1  0  0  0
  2  3  1  0  0  0
  2  7  1  0  0  0
  3  4  1  0  0  0
  3  8  1  0  0  0
  4  5  1  0  0  0
  4 20  1  0  0  0
  5  6  1  0  0  0
  5 27  1  0  0  0
  6  9  1  0  0  0
 13 14  1  0  0  0
 20 21  1  0  0  0
 27 28  1  0  0  0
 14 15  2  0  0  0
 14 16  1  0  0  0
 14 17  1  0  0  0
 21 22  2  0  0  0
 21 23  1  0  0  0
 21 24  1  0  0  0
 28 29  2  0  0  0
 28 30  1  0  0  0
 28 31  1  0  0  0
  7 10  1  0  0  0
  8 11  1  0  0  0
  9 12  1  0  0  0
 16 18  1  0  0  0
 17 19  1  0  0  0
 23 25  1  0  0  0
 24 26  1  0  0  0
 30 32  1  0  0  0
 31 33  1  0  0  0
M  END
> <minimizedAffinity>
-6.73004

$$$$
1N4K_I3P_A_1000


 33 33  0  0  0  0  0  0  0  0999 V2000
   22.5685   -3.6194   10.9145 C   0  0  0  0  0  0  0  0  0  0  0  0
   23.5897   -2.4939   11.2596 C   0  0  0  0  0  0  0  0  0  0  0  0
   23.0505   -1.6306   12.4021 C   0  0  0  0  0  0  0  0  0  0  0  0
   22.8100   -2.5177   13.6421 C   0  0  0  0  0  0  0  0  0  0  0  0
   21.8035   -3.6337   13.3020 C   0  0  0  0  0  0  0  0  0  0  0  0
   22.3283   -4.5156   12.1501 C   0  0  0  0  0  0  0  0  0  0  0  0
   24.8499   -3.0583   11.6439 O   0  0  0  0  0  0  0  0  0  0  0  0
   23.9914   -0.6262   12.7135 O   0  0  0  0  0  0  0  0  0  0  0  0
   21.3874   -5.5343   11.8239 O   0  0  0  0  0  0  0  0  0  0  0  0
   24.7303   -3.6092   12.4333 H   0  0  0  0  0  0  0  0  0  0  0  0
   24.8273   -1.0384   12.9822 H   0  0  0  0  0  0  0  0  0  0  0  0
   20.5527   -5.1263   11.5453 H   0  0  0  0  0  0  0  0  0  0  0  0
   23.0344   -4.5335    9.8438 O   0  0  0  0  0  0  0  0  0  0  0  0
   23.0846   -4.1525    8.2982 P   0  0  0  0  0  0  0  0  0  0  0  0
   24.4567   -3.6199    8.0806 O   0  0  0  0  0  0  0  0  0  0  0  0
   22.0014   -3.1488    8.1372 O   0  0  0  0  0  0  0  0  0  0  0  0
   22.7632   -5.4419    7.6907 O   0  0  0  0  0  0  0  0  0  0  0  0
   22.2673   -2.3159    8.5574 H   0  0  0  0  0  0  0  0  0  0  0  0
   23.5020   -6.0559    7.8253 H   0  0  0  0  0  0  0  0  0  0  0  0
   22.2979   -1.6599   14.7359 O   0  0  0  0  0  0  0  0  0  0  0  0
   22.9554   -1.4525   16.1764 P   0  0  0  0  0  0  0  0  0  0  0  0
   24.1596   -0.6679   15.7956 O   0  0  0  0  0  0  0  0  0  0  0  0
   21.9505   -0.6752   16.8979 O   0  0  0  0  0  0  0  0  0  0  0  0
   23.1916   -2.7941   16.7684 O   0  0  0  0  0  0  0  0  0  0  0  0
   21.8388    0.1872   16.4681 H   0  0  0  0  0  0  0  0  0  0  0  0
   23.8649   -3.2622   16.2503 H   0  0  0  0  0  0  0  0  0  0  0  0
   21.6067   -4.4766   14.4984 O   0  0  0  0  0  0  0  0  0  0  0  0
   20.3095   -4.5943   15.4253 P   0  0  0  0  0  0  0  0  0  0  0  0
   19.7018   -5.8291   14.8658 O   0  0  0  0  0  0  0  0  0  0  0  0
   20.8551   -4.6934   16.8097 O   0  0  0  0  0  0  0  0  0  0  0  0
   19.6067   -3.3539   15.1168 O   0  0  0  0  0  0  0  0  0  0  0  0
   21.3023   -5.5470   16.9207 H   0  0  0  0  0  0  0  0  0  0  0  0
   19.2898   -3.3812   14.2004 H   0  0  0  0  0  0  0  0  0  0  0  0
  1  2  1  0  0  0
  1  6  1  0  0  0
  1 13  1  0  0  0
  2  3  1  0  0  0
  2  7  1  0  0  0
  3  4  1  0  0  0
  3  8  1  0  0  0
  4  5  1  0  0  0
  4 20  1  0  0  0
  5  6  1  0  0  0
  5 27  1  0  0  0
  6  9  1  0  0  0
 13 14  1  0  0  0
 20 21  1  0  0  0
 27 28  1  0  0  0
 14 15  2  0  0  0
 14 16  1  0  0  0
 14 17  1  0  0  0
 21 22  2  0  0  0
 21 23  1  0  0  0
 21 24  1  0  0  0
 28 29  2  0  0  0
 28 30  1  0  0  0
 28 31  1  0  0  0
  7 10  1  0  0  0
  8 11  1  0  0  0
  9 12  1  0  0  0
 16 18  1  0  0  0
 17 19  1  0  0  0
 23 25  1  0  0  0
 24 26  1  0  0  0
 30 32  1  0  0  0
 31 33  1  0  0  0
M  END
> <minimizedAffinity>
-6.45929

$$$$
1N4K_I3P_A_1000


 33 33  0  0  0  0  0  0  0  0999 V2000
   22.5032   -1.2720   12.9304 C   0  0  0  0  0  0  0  0  0  0  0  0
   22.8856   -1.9189   14.2957 C   0  0  0  0  0  0  0  0  0  0  0  0
   21.6265   -2.1632   15.1299 C   0  0  0  0  0  0  0  0  0  0  0  0
   20.6750   -3.0996   14.3551 C   0  0  0  0  0  0  0  0  0  0  0  0
   20.2986   -2.4638   13.0030 C   0  0  0  0  0  0  0  0  0  0  0  0
   21.5558   -2.2077   12.1464 C   0  0  0  0  0  0  0  0  0  0  0  0
   23.5684   -3.1622   14.0898 O   0  0  0  0  0  0  0  0  0  0  0  0
   21.9864   -2.7625   16.3556 O   0  0  0  0  0  0  0  0  0  0  0  0
   21.2075   -1.6015   10.9052 O   0  0  0  0  0  0  0  0  0  0  0  0
   22.9853   -3.7771   13.6178 H   0  0  0  0  0  0  0  0  0  0  0  0
   22.4333   -3.6062   16.1840 H   0  0  0  0  0  0  0  0  0  0  0  0
   20.7688   -0.7525   11.0718 H   0  0  0  0  0  0  0  0  0  0  0  0
   23.6650   -1.0425   12.0380 O   0  0  0  0  0  0  0  0  0  0  0  0
   24.1037    0.3856   11.4860 P   0  0  0  0  0  0  0  0  0  0  0  0
   25.4980    0.1963   11.0027 O   0  0  0  0  0  0  0  0  0  0  0  0
   23.9759    1.2834   12.6625 O   0  0  0  0  0  0  0  0  0  0  0  0
   23.0714    0.6152   10.4777 O   0  0  0  0  0  0  0  0  0  0  0  0
   24.6834    1.0881   13.2967 H   0  0  0  0  0  0  0  0  0  0  0  0
   23.2028    0.0045    9.7356 H   0  0  0  0  0  0  0  0  0  0  0  0
   19.4694   -3.3287   15.1849 O   0  0  0  0  0  0  0  0  0  0  0  0
   18.8496   -4.7400   15.6022 P   0  0  0  0  0  0  0  0  0  0  0  0
   17.4044   -4.3906   15.6101 O   0  0  0  0  0  0  0  0  0  0  0  0
   19.2367   -5.6182   14.5006 O   0  0  0  0  0  0  0  0  0  0  0  0
   19.4486   -5.1358   16.9025 O   0  0  0  0  0  0  0  0  0  0  0  0
   18.8177   -5.3125   13.6809 H   0  0  0  0  0  0  0  0  0  0  0  0
   19.1578   -4.5200   17.5933 H   0  0  0  0  0  0  0  0  0  0  0  0
   19.4044   -3.3873   12.2762 O   0  0  0  0  0  0  0  0  0  0  0  0
   17.9148   -3.1233   11.7598 P   0  0  0  0  0  0  0  0  0  0  0  0
   18.1431   -1.9265   10.9095 O   0  0  0  0  0  0  0  0  0  0  0  0
   17.5446   -4.3804   11.0479 O   0  0  0  0  0  0  0  0  0  0  0  0
   17.2030   -2.8786   13.0092 O   0  0  0  0  0  0  0  0  0  0  0  0
   18.0663   -4.4565   10.2337 H   0  0  0  0  0  0  0  0  0  0  0  0
   17.5085   -2.0437   13.3972 H   0  0  0  0  0  0  0  0  0  0  0  0
  1  2  1  0  0  0
  1  6  1  0  0  0
  1 13  1  0  0  0
  2  3  1  0  0  0
  2  7  1  0  0  0
  3  4  1  0  0  0
  3  8  1  0  0  0
  4  5  1  0  0  0
  4 20  1  0  0  0
  5  6  1  0  0  0
  5 27  1  0  0  0
  6  9  1  0  0  0
 13 14  1  0  0  0
 20 21  1  0  0  0
 27 28  1  0  0  0
 14 15  2  0  0  0
 14 16  1  0  0  0
 14 17  1  0  0  0
 21 22  2  0  0  0
 21 23  1  0  0  0
 21 24  1  0  0  0
 28 29  2  0  0  0
 28 30  1  0  0  0
 28 31  1  0  0  0
  7 10  1  0  0  0
  8 11  1  0  0  0
  9 12  1  0  0  0
 16 18  1  0  0  0
 17 19  1  0  0  0
 23 25  1  0  0  0
 24 26  1  0  0  0
 30 32  1  0  0  0
 31 33  1  0  0  0
M  END
> <minimizedAffinity>
-6.35749

$$$$
1N4K_I3P_A_1000


 33 33  0  0  0  0  0  0  0  0999 V2000
   22.6486   -2.7955   13.2988 C   0  0  0  0  0  0  0  0  0  0  0  0
   22.2222   -4.2258   12.8503 C   0  0  0  0  0  0  0  0  0  0  0  0
   21.5003   -4.1582   11.5029 C   0  0  0  0  0  0  0  0  0  0  0  0
   22.4431   -3.5384   10.4496 C   0  0  0  0  0  0  0  0  0  0  0  0
   22.8692   -2.1256   10.8929 C   0  0  0  0  0  0  0  0  0  0  0  0
   23.5983   -2.1718   12.2517 C   0  0  0  0  0  0  0  0  0  0  0  0
   23.3679   -5.0792   12.7337 O   0  0  0  0  0  0  0  0  0  0  0  0
   21.1340   -5.4607   11.1027 O   0  0  0  0  0  0  0  0  0  0  0  0
   23.9736   -0.8624   12.6691 O   0  0  0  0  0  0  0  0  0  0  0  0
   23.9713   -4.7207   12.0642 H   0  0  0  0  0  0  0  0  0  0  0  0
   21.9297   -6.0092   11.0197 H   0  0  0  0  0  0  0  0  0  0  0  0
   23.1797   -0.3130   12.7629 H   0  0  0  0  0  0  0  0  0  0  0  0
   23.3977   -2.7751   14.5784 O   0  0  0  0  0  0  0  0  0  0  0  0
   23.0020   -1.8803   15.8352 P   0  0  0  0  0  0  0  0  0  0  0  0
   21.5573   -1.5776   15.6487 O   0  0  0  0  0  0  0  0  0  0  0  0
   23.8971   -0.6990   15.7348 O   0  0  0  0  0  0  0  0  0  0  0  0
   23.3616   -2.7778   16.9308 O   0  0  0  0  0  0  0  0  0  0  0  0
   23.6134   -0.1404   14.9942 H   0  0  0  0  0  0  0  0  0  0  0  0
   22.7470   -3.5280   16.9492 H   0  0  0  0  0  0  0  0  0  0  0  0
   21.7269   -3.4920    9.1537 O   0  0  0  0  0  0  0  0  0  0  0  0
   22.1304   -4.2548    7.8100 P   0  0  0  0  0  0  0  0  0  0  0  0
   20.9395   -3.9460    6.9751 O   0  0  0  0  0  0  0  0  0  0  0  0
   23.3447   -3.5645    7.3811 O   0  0  0  0  0  0  0  0  0  0  0  0
   22.3587   -5.6834    8.1463 O   0  0  0  0  0  0  0  0  0  0  0  0
   23.1356   -2.6399    7.1758 H   0  0  0  0  0  0  0  0  0  0  0  0
   21.5218   -6.0882    8.4230 H   0  0  0  0  0  0  0  0  0  0  0  0
   23.7836   -1.5649    9.8780 O   0  0  0  0  0  0  0  0  0  0  0  0
   23.6138   -0.2244    9.0237 P   0  0  0  0  0  0  0  0  0  0  0  0
   25.0363    0.0620    8.7045 O   0  0  0  0  0  0  0  0  0  0  0  0
   22.7462   -0.6258    7.8791 O   0  0  0  0  0  0  0  0  0  0  0  0
   22.9955    0.6730    9.9932 O   0  0  0  0  0  0  0  0  0  0  0  0
   23.2401   -1.2188    7.2914 H   0  0  0  0  0  0  0  0  0  0  0  0
   23.6317    0.8772   10.6964 H   0  0  0  0  0  0  0  0  0  0  0  0
  1  2  1  0  0  0
  1  6  1  0  0  0
  1 13  1  0  0  0
  2  3  1  0  0  0
  2  7  1  0  0  0
  3  4  1  0  0  0
  3  8  1  0  0  0
  4  5  1  0  0  0
  4 20  1  0  0  0
  5  6  1  0  0  0
  5 27  1  0  0  0
  6  9  1  0  0  0
 13 14  1  0  0  0
 20 21  1  0  0  0
 27 28  1  0  0  0
 14 15  2  0  0  0
 14 16  1  0  0  0
 14 17  1  0  0  0
 21 22  2  0  0  0
 21 23  1  0  0  0
 21 24  1  0  0  0
 28 29  2  0  0  0
 28 30  1  0  0  0
 28 31  1  0  0  0
  7 10  1  0  0  0
  8 11  1  0  0  0
  9 12  1  0  0  0
 16 18  1  0  0  0
 17 19  1  0  0  0
 23 25  1  0  0  0
 24 26  1  0  0  0
 30 32  1  0  0  0
 31 33  1  0  0  0
M  END
> <minimizedAffinity>
-6.32292

$$$$
1N4K_I3P_A_1000


 33 33  0  0  0  0  0  0  0  0999 V2000
   21.1561   -3.1071   14.4850 C   0  0  0  0  0  0  0  0  0  0  0  0
   21.8608   -1.8855   15.1482 C   0  0  0  0  0  0  0  0  0  0  0  0
   23.1646   -1.5705   14.4121 C   0  0  0  0  0  0  0  0  0  0  0  0
   22.8525   -1.2558   12.9335 C   0  0  0  0  0  0  0  0  0  0  0  0
   22.1522   -2.4609   12.2768 C   0  0  0  0  0  0  0  0  0  0  0  0
   20.8346   -2.7961   13.0060 C   0  0  0  0  0  0  0  0  0  0  0  0
   21.0072   -0.7344   15.1174 O   0  0  0  0  0  0  0  0  0  0  0  0
   23.7833   -0.4541   15.0135 O   0  0  0  0  0  0  0  0  0  0  0  0
   20.1988   -3.9229   12.4097 O   0  0  0  0  0  0  0  0  0  0  0  0
   20.8081   -0.5040   14.1965 H   0  0  0  0  0  0  0  0  0  0  0  0
   23.1882    0.3104   14.9652 H   0  0  0  0  0  0  0  0  0  0  0  0
   20.7868   -4.6924   12.4645 H   0  0  0  0  0  0  0  0  0  0  0  0
   19.8570   -3.4527   15.1110 O   0  0  0  0  0  0  0  0  0  0  0  0
   19.5179   -4.8726   15.7479 P   0  0  0  0  0  0  0  0  0  0  0  0
   18.0612   -4.8193   16.0460 O   0  0  0  0  0  0  0  0  0  0  0  0
   20.3901   -4.9488   16.9480 O   0  0  0  0  0  0  0  0  0  0  0  0
   19.9485   -5.7622   14.6717 O   0  0  0  0  0  0  0  0  0  0  0  0
   20.0592   -4.3406   17.6273 H   0  0  0  0  0  0  0  0  0  0  0  0
   19.3460   -5.6717   13.9169 H   0  0  0  0  0  0  0  0  0  0  0  0
   24.1267   -0.9455   12.2446 O   0  0  0  0  0  0  0  0  0  0  0  0
   24.4973    0.4086   11.4835 P   0  0  0  0  0  0  0  0  0  0  0  0
   25.7789    0.0010   10.8492 O   0  0  0  0  0  0  0  0  0  0  0  0
   23.3983    0.5751   10.5353 O   0  0  0  0  0  0  0  0  0  0  0  0
   24.5674    1.4959   12.4929 O   0  0  0  0  0  0  0  0  0  0  0  0
   23.4023   -0.1607    9.9033 H   0  0  0  0  0  0  0  0  0  0  0  0
   25.3123    1.3331   13.0924 H   0  0  0  0  0  0  0  0  0  0  0  0
   21.8491   -2.1260   10.8709 O   0  0  0  0  0  0  0  0  0  0  0  0
   22.5435   -2.6899    9.5460 P   0  0  0  0  0  0  0  0  0  0  0  0
   21.5866   -3.7694    9.1906 O   0  0  0  0  0  0  0  0  0  0  0  0
   22.5887   -1.5162    8.6270 O   0  0  0  0  0  0  0  0  0  0  0  0
   23.8357   -3.1388   10.0522 O   0  0  0  0  0  0  0  0  0  0  0  0
   21.6884   -1.2921    8.3442 H   0  0  0  0  0  0  0  0  0  0  0  0
   23.7064   -3.9014   10.6375 H   0  0  0  0  0  0  0  0  0  0  0  0
  1  2  1  0  0  0
  1  6  1  0  0  0
  1 13  1  0  0  0
  2  3  1  0  0  0
  2  7  1  0  0  0
  3  4  1  0  0  0
  3  8  1  0  0  0
  4  5  1  0  0  0
  4 20  1  0  0  0
  5  6  1  0  0  0
  5 27  1  0  0  0
  6  9  1  0  0  0
 13 14  1  0  0  0
 20 21  1  0  0  0
 27 28  1  0  0  0
 14 15  2  0  0  0
 14 16  1  0  0  0
 14 17  1  0  0  0
 21 22  2  0  0  0
 21 23  1  0  0  0
 21 24  1  0  0  0
 28 29  2  0  0  0
 28 30  1  0  0  0
 28 31  1  0  0  0
  7 10  1  0  0  0
  8 11  1  0  0  0
  9 12  1  0  0  0
 16 18  1  0  0  0
 17 19  1  0  0  0
 23 25  1  0  0  0
 24 26  1  0  0  0
 30 32  1  0  0  0
 31 33  1  0  0  0
M  END
> <minimizedAffinity>
-6.31849

$$$$
