3FX6_BPX_A_311


 22 22  0  0  0  0  0  0  0  0999 V2000
  -23.8635    2.1154   -7.2668 C   0  0  0  0  0  0  0  0  0  0  0  0
  -22.6134    2.9404   -7.5829 C   0  0  0  0  0  0  0  0  0  0  0  0
  -21.7133    2.9501   -6.7145 O   0  0  0  0  0  0  0  0  0  0  0  0
  -22.5841    3.5438   -8.6771 O   0  0  0  0  0  0  0  0  0  0  0  0
  -23.3084    3.4780   -9.2679 H   0  0  0  0  0  0  0  0  0  0  0  0
  -24.1750    2.1478   -5.7675 C   0  0  0  0  0  0  0  0  0  0  0  0
  -24.9548    0.0854   -4.5107 C   0  0  0  0  0  0  0  0  0  0  0  0
  -25.9385   -0.8318   -4.1604 C   0  0  0  0  0  0  0  0  0  0  0  0
  -27.2194   -0.7143   -4.6898 C   0  0  0  0  0  0  0  0  0  0  0  0
  -27.5130    0.3215   -5.5695 C   0  0  0  0  0  0  0  0  0  0  0  0
  -26.5280    1.2382   -5.9187 C   0  0  0  0  0  0  0  0  0  0  0  0
  -25.2474    1.1232   -5.3879 C   0  0  0  0  0  0  0  0  0  0  0  0
  -23.6355    0.6734   -7.7247 C   0  0  0  0  0  0  0  0  0  0  0  0
  -24.4401    0.4188   -9.0013 C   0  0  0  0  0  0  0  0  0  0  0  0
  -25.4704   -0.5412   -8.7520 O   0  0  0  0  0  0  0  0  0  0  0  0
  -25.0408    1.6501   -9.4122 O   0  0  0  0  0  0  0  0  0  0  0  0
  -25.2464   -1.4070   -8.4725 H   0  0  0  0  0  0  0  0  0  0  0  0
  -24.5020    2.3891   -9.6162 H   0  0  0  0  0  0  0  0  0  0  0  0
  -23.5162   -0.0795  -10.1162 C   0  0  0  0  0  0  0  0  0  0  0  0
  -23.3464    0.9713  -11.1299 N   0  0  0  0  0  0  0  0  0  0  0  0
  -24.2458    1.0499  -12.2293 O   0  0  0  0  0  0  0  0  0  0  0  0
  -22.2793    1.9042  -11.0217 O   0  0  0  0  0  0  0  0  0  0  0  0
  7  8  2  0  0  0
  7 12  1  0  0  0
  8  9  1  0  0  0
  9 10  2  0  0  0
 10 11  1  0  0  0
 11 12  2  0  0  0
 12  6  1  0  0  0
  6  1  1  0  0  0
  1  2  1  0  0  0
  1 13  1  0  0  0
  2  3  2  0  0  0
  2  4  1  0  0  0
 13 14  1  0  0  0
 14 15  1  0  0  0
 14 16  1  0  0  0
 14 19  1  0  0  0
 19 20  1  0  0  0
 20 21  2  0  0  0
 20 22  1  0  0  0
  4  5  1  0  0  0
 15 17  1  0  0  0
 16 18  1  0  0  0
M  CHG 1  20   1
M  CHG 1  22  -1
M  END
> <minimizedAffinity>
-7.49396

$$$$
3FX6_BPX_A_311


 22 22  0  0  0  0  0  0  0  0999 V2000
  -23.9616    1.8149   -6.9772 C   0  0  0  0  0  0  0  0  0  0  0  0
  -23.5832    1.3840   -5.5579 C   0  0  0  0  0  0  0  0  0  0  0  0
  -22.3968    1.0324   -5.3759 O   0  0  0  0  0  0  0  0  0  0  0  0
  -24.4821    1.4111   -4.6899 O   0  0  0  0  0  0  0  0  0  0  0  0
  -25.3466    1.6904   -4.9192 H   0  0  0  0  0  0  0  0  0  0  0  0
  -23.3527    3.1792   -7.3148 C   0  0  0  0  0  0  0  0  0  0  0  0
  -20.9490    3.7582   -7.8876 C   0  0  0  0  0  0  0  0  0  0  0  0
  -19.8141    3.6173   -8.6773 C   0  0  0  0  0  0  0  0  0  0  0  0
  -19.8308    2.7605   -9.7729 C   0  0  0  0  0  0  0  0  0  0  0  0
  -20.9845    2.0463  -10.0761 C   0  0  0  0  0  0  0  0  0  0  0  0
  -22.1189    2.1883   -9.2852 C   0  0  0  0  0  0  0  0  0  0  0  0
  -22.1025    3.0429   -8.1878 C   0  0  0  0  0  0  0  0  0  0  0  0
  -25.4864    1.8790   -7.0867 C   0  0  0  0  0  0  0  0  0  0  0  0
  -25.9723    0.7492   -7.9975 C   0  0  0  0  0  0  0  0  0  0  0  0
  -26.0317    1.1996   -9.3535 O   0  0  0  0  0  0  0  0  0  0  0  0
  -25.0453   -0.3364   -7.9078 O   0  0  0  0  0  0  0  0  0  0  0  0
  -26.5957    1.9105   -9.5868 H   0  0  0  0  0  0  0  0  0  0  0  0
  -24.8870   -0.7503   -7.0822 H   0  0  0  0  0  0  0  0  0  0  0  0
  -27.3519    0.2631   -7.5442 C   0  0  0  0  0  0  0  0  0  0  0  0
  -27.4067    0.2170   -6.0761 N   0  0  0  0  0  0  0  0  0  0  0  0
  -26.5138   -0.6260   -5.3579 O   0  0  0  0  0  0  0  0  0  0  0  0
  -28.3568    1.0045   -5.3705 O   0  0  0  0  0  0  0  0  0  0  0  0
  7  8  2  0  0  0
  7 12  1  0  0  0
  8  9  1  0  0  0
  9 10  2  0  0  0
 10 11  1  0  0  0
 11 12  2  0  0  0
 12  6  1  0  0  0
  6  1  1  0  0  0
  1  2  1  0  0  0
  1 13  1  0  0  0
  2  3  2  0  0  0
  2  4  1  0  0  0
 13 14  1  0  0  0
 14 15  1  0  0  0
 14 16  1  0  0  0
 14 19  1  0  0  0
 19 20  1  0  0  0
 20 21  2  0  0  0
 20 22  1  0  0  0
  4  5  1  0  0  0
 15 17  1  0  0  0
 16 18  1  0  0  0
M  CHG 1  20   1
M  CHG 1  22  -1
M  END
> <minimizedAffinity>
-7.25903

$$$$
3FX6_BPX_A_311


 22 22  0  0  0  0  0  0  0  0999 V2000
  -24.0122    1.5924   -6.7941 C   0  0  0  0  0  0  0  0  0  0  0  0
  -23.5254    1.1204   -5.4218 C   0  0  0  0  0  0  0  0  0  0  0  0
  -22.2875    1.0331   -5.2651 O   0  0  0  0  0  0  0  0  0  0  0  0
  -24.3943    0.8546   -4.5635 O   0  0  0  0  0  0  0  0  0  0  0  0
  -25.3029    0.9500   -4.7716 H   0  0  0  0  0  0  0  0  0  0  0  0
  -23.4909    2.9987   -7.1049 C   0  0  0  0  0  0  0  0  0  0  0  0
  -22.2294    2.2019   -9.1580 C   0  0  0  0  0  0  0  0  0  0  0  0
  -21.0981    2.1831   -9.9650 C   0  0  0  0  0  0  0  0  0  0  0  0
  -19.9751    2.9212   -9.6059 C   0  0  0  0  0  0  0  0  0  0  0  0
  -19.9869    3.6768   -8.4389 C   0  0  0  0  0  0  0  0  0  0  0  0
  -21.1194    3.6946   -7.6328 C   0  0  0  0  0  0  0  0  0  0  0  0
  -22.2439    2.9589   -7.9923 C   0  0  0  0  0  0  0  0  0  0  0  0
  -25.5422    1.5848   -6.8077 C   0  0  0  0  0  0  0  0  0  0  0  0
  -26.0298    0.6719   -7.9350 C   0  0  0  0  0  0  0  0  0  0  0  0
  -27.0796   -0.1771   -7.4633 O   0  0  0  0  0  0  0  0  0  0  0  0
  -26.5333    1.4894   -8.9952 O   0  0  0  0  0  0  0  0  0  0  0  0
  -26.9164   -0.7799   -6.7647 H   0  0  0  0  0  0  0  0  0  0  0  0
  -25.9700    2.1070   -9.4185 H   0  0  0  0  0  0  0  0  0  0  0  0
  -24.8696   -0.1736   -8.4678 C   0  0  0  0  0  0  0  0  0  0  0  0
  -25.1584   -0.6067   -9.8425 N   0  0  0  0  0  0  0  0  0  0  0  0
  -24.3387   -0.1589  -10.9154 O   0  0  0  0  0  0  0  0  0  0  0  0
  -26.2614   -1.4638  -10.1057 O   0  0  0  0  0  0  0  0  0  0  0  0
  7  8  2  0  0  0
  7 12  1  0  0  0
  8  9  1  0  0  0
  9 10  2  0  0  0
 10 11  1  0  0  0
 11 12  2  0  0  0
 12  6  1  0  0  0
  6  1  1  0  0  0
  1  2  1  0  0  0
  1 13  1  0  0  0
  2  3  2  0  0  0
  2  4  1  0  0  0
 13 14  1  0  0  0
 14 15  1  0  0  0
 14 16  1  0  0  0
 14 19  1  0  0  0
 19 20  1  0  0  0
 20 21  2  0  0  0
 20 22  1  0  0  0
  4  5  1  0  0  0
 15 17  1  0  0  0
 16 18  1  0  0  0
M  CHG 1  20   1
M  CHG 1  22  -1
M  END
> <minimizedAffinity>
-7.08553

$$$$
3FX6_BPX_A_311


 22 22  0  0  0  0  0  0  0  0999 V2000
  -22.8459    0.9614   -9.8217 C   0  0  0  0  0  0  0  0  0  0  0  0
  -24.2392    0.7037  -10.4010 C   0  0  0  0  0  0  0  0  0  0  0  0
  -24.3672   -0.3077  -11.1256 O   0  0  0  0  0  0  0  0  0  0  0  0
  -25.1416    1.5190  -10.1129 O   0  0  0  0  0  0  0  0  0  0  0  0
  -24.9523    2.2513   -9.5598 H   0  0  0  0  0  0  0  0  0  0  0  0
  -22.8966    2.0405   -8.7359 C   0  0  0  0  0  0  0  0  0  0  0  0
  -23.3820    0.1316   -7.1354 C   0  0  0  0  0  0  0  0  0  0  0  0
  -23.8669   -0.3557   -5.9275 C   0  0  0  0  0  0  0  0  0  0  0  0
  -24.4170    0.5179   -4.9953 C   0  0  0  0  0  0  0  0  0  0  0  0
  -24.4808    1.8785   -5.2745 C   0  0  0  0  0  0  0  0  0  0  0  0
  -23.9952    2.3644   -6.4831 C   0  0  0  0  0  0  0  0  0  0  0  0
  -23.4425    1.4919   -7.4149 C   0  0  0  0  0  0  0  0  0  0  0  0
  -21.9112    1.3974  -10.9519 C   0  0  0  0  0  0  0  0  0  0  0  0
  -20.7907    0.3660  -11.1028 C   0  0  0  0  0  0  0  0  0  0  0  0
  -19.9436    0.3857   -9.9507 O   0  0  0  0  0  0  0  0  0  0  0  0
  -21.3813   -0.9310  -11.2242 O   0  0  0  0  0  0  0  0  0  0  0  0
  -19.4772    1.1665   -9.7255 H   0  0  0  0  0  0  0  0  0  0  0  0
  -21.9677   -1.1145  -11.9316 H   0  0  0  0  0  0  0  0  0  0  0  0
  -19.9712    0.6586  -12.3628 C   0  0  0  0  0  0  0  0  0  0  0  0
  -20.6004    0.0181  -13.5267 N   0  0  0  0  0  0  0  0  0  0  0  0
  -20.2658   -1.3219  -13.8674 O   0  0  0  0  0  0  0  0  0  0  0  0
  -21.5352    0.7369  -14.3204 O   0  0  0  0  0  0  0  0  0  0  0  0
  7  8  2  0  0  0
  7 12  1  0  0  0
  8  9  1  0  0  0
  9 10  2  0  0  0
 10 11  1  0  0  0
 11 12  2  0  0  0
 12  6  1  0  0  0
  6  1  1  0  0  0
  1  2  1  0  0  0
  1 13  1  0  0  0
  2  3  2  0  0  0
  2  4  1  0  0  0
 13 14  1  0  0  0
 14 15  1  0  0  0
 14 16  1  0  0  0
 14 19  1  0  0  0
 19 20  1  0  0  0
 20 21  2  0  0  0
 20 22  1  0  0  0
  4  5  1  0  0  0
 15 17  1  0  0  0
 16 18  1  0  0  0
M  CHG 1  20   1
M  CHG 1  22  -1
M  END
> <minimizedAffinity>
-6.94057

$$$$
3FX6_BPX_A_311


 22 22  0  0  0  0  0  0  0  0999 V2000
  -23.9080    1.6172   -6.4716 C   0  0  0  0  0  0  0  0  0  0  0  0
  -22.9840    0.5543   -5.8719 C   0  0  0  0  0  0  0  0  0  0  0  0
  -22.1710    0.9425   -5.0042 O   0  0  0  0  0  0  0  0  0  0  0  0
  -23.1054   -0.6165   -6.2922 O   0  0  0  0  0  0  0  0  0  0  0  0
  -23.7453   -0.8152   -6.9472 H   0  0  0  0  0  0  0  0  0  0  0  0
  -23.1883    2.9643   -6.5877 C   0  0  0  0  0  0  0  0  0  0  0  0
  -20.9639    3.6675   -7.5870 C   0  0  0  0  0  0  0  0  0  0  0  0
  -20.0237    3.6461   -8.6104 C   0  0  0  0  0  0  0  0  0  0  0  0
  -20.2727    2.9175   -9.7687 C   0  0  0  0  0  0  0  0  0  0  0  0
  -21.4631    2.2114   -9.9005 C   0  0  0  0  0  0  0  0  0  0  0  0
  -22.4024    2.2336   -8.8759 C   0  0  0  0  0  0  0  0  0  0  0  0
  -22.1534    2.9599   -7.7159 C   0  0  0  0  0  0  0  0  0  0  0  0
  -25.1454    1.7580   -5.5828 C   0  0  0  0  0  0  0  0  0  0  0  0
  -26.2903    0.9385   -6.1826 C   0  0  0  0  0  0  0  0  0  0  0  0
  -26.2306   -0.4107   -5.7122 O   0  0  0  0  0  0  0  0  0  0  0  0
  -27.5298    1.5209   -5.7698 O   0  0  0  0  0  0  0  0  0  0  0  0
  -25.4790   -0.9387   -5.8976 H   0  0  0  0  0  0  0  0  0  0  0  0
  -27.7296    2.4076   -5.9974 H   0  0  0  0  0  0  0  0  0  0  0  0
  -26.2135    0.9659   -7.7117 C   0  0  0  0  0  0  0  0  0  0  0  0
  -27.1530   -0.0137   -8.2757 N   0  0  0  0  0  0  0  0  0  0  0  0
  -28.5026   -0.0438   -7.8269 O   0  0  0  0  0  0  0  0  0  0  0  0
  -26.7152   -0.9395   -9.2616 O   0  0  0  0  0  0  0  0  0  0  0  0
  7  8  2  0  0  0
  7 12  1  0  0  0
  8  9  1  0  0  0
  9 10  2  0  0  0
 10 11  1  0  0  0
 11 12  2  0  0  0
 12  6  1  0  0  0
  6  1  1  0  0  0
  1  2  1  0  0  0
  1 13  1  0  0  0
  2  3  2  0  0  0
  2  4  1  0  0  0
 13 14  1  0  0  0
 14 15  1  0  0  0
 14 16  1  0  0  0
 14 19  1  0  0  0
 19 20  1  0  0  0
 20 21  2  0  0  0
 20 22  1  0  0  0
  4  5  1  0  0  0
 15 17  1  0  0  0
 16 18  1  0  0  0
M  CHG 1  20   1
M  CHG 1  22  -1
M  END
> <minimizedAffinity>
-6.92611

$$$$
3FX6_BPX_A_311


 22 22  0  0  0  0  0  0  0  0999 V2000
  -21.4973    3.2422   -9.3523 C   0  0  0  0  0  0  0  0  0  0  0  0
  -20.7926    4.3958  -10.0705 C   0  0  0  0  0  0  0  0  0  0  0  0
  -21.2968    4.7763  -11.1500 O   0  0  0  0  0  0  0  0  0  0  0  0
  -19.7688    4.8689   -9.5317 O   0  0  0  0  0  0  0  0  0  0  0  0
  -19.4631    4.5185   -8.7182 H   0  0  0  0  0  0  0  0  0  0  0  0
  -21.3731    3.3873   -7.8326 C   0  0  0  0  0  0  0  0  0  0  0  0
  -22.4774    1.9073   -6.0915 C   0  0  0  0  0  0  0  0  0  0  0  0
  -23.6033    1.4330   -5.4289 C   0  0  0  0  0  0  0  0  0  0  0  0
  -24.8660    1.8964   -5.7835 C   0  0  0  0  0  0  0  0  0  0  0  0
  -24.9991    2.8341   -6.8014 C   0  0  0  0  0  0  0  0  0  0  0  0
  -23.8719    3.3076   -7.4630 C   0  0  0  0  0  0  0  0  0  0  0  0
  -22.6085    2.8468   -7.1076 C   0  0  0  0  0  0  0  0  0  0  0  0
  -20.8746    1.9204   -9.8062 C   0  0  0  0  0  0  0  0  0  0  0  0
  -21.9157    1.1177  -10.5896 C   0  0  0  0  0  0  0  0  0  0  0  0
  -22.5066    1.9339  -11.6045 O   0  0  0  0  0  0  0  0  0  0  0  0
  -21.2605    0.0070  -11.2085 O   0  0  0  0  0  0  0  0  0  0  0  0
  -22.9779    2.7082  -11.3675 H   0  0  0  0  0  0  0  0  0  0  0  0
  -20.8192   -0.6297  -10.6814 H   0  0  0  0  0  0  0  0  0  0  0  0
  -22.9975    0.5913   -9.6423 C   0  0  0  0  0  0  0  0  0  0  0  0
  -24.2982    0.5822  -10.3270 N   0  0  0  0  0  0  0  0  0  0  0  0
  -25.3000    1.5237   -9.9616 O   0  0  0  0  0  0  0  0  0  0  0  0
  -24.5633   -0.3720  -11.3468 O   0  0  0  0  0  0  0  0  0  0  0  0
  7  8  2  0  0  0
  7 12  1  0  0  0
  8  9  1  0  0  0
  9 10  2  0  0  0
 10 11  1  0  0  0
 11 12  2  0  0  0
 12  6  1  0  0  0
  6  1  1  0  0  0
  1  2  1  0  0  0
  1 13  1  0  0  0
  2  3  2  0  0  0
  2  4  1  0  0  0
 13 14  1  0  0  0
 14 15  1  0  0  0
 14 16  1  0  0  0
 14 19  1  0  0  0
 19 20  1  0  0  0
 20 21  2  0  0  0
 20 22  1  0  0  0
  4  5  1  0  0  0
 15 17  1  0  0  0
 16 18  1  0  0  0
M  CHG 1  20   1
M  CHG 1  22  -1
M  END
> <minimizedAffinity>
-6.82143

$$$$
3FX6_BPX_A_311


 22 22  0  0  0  0  0  0  0  0999 V2000
  -24.1704    0.7119   -8.1425 C   0  0  0  0  0  0  0  0  0  0  0  0
  -25.4033    0.5883   -9.0412 C   0  0  0  0  0  0  0  0  0  0  0  0
  -25.8816   -0.5586   -9.1831 O   0  0  0  0  0  0  0  0  0  0  0  0
  -25.8382    1.6351   -9.5679 O   0  0  0  0  0  0  0  0  0  0  0  0
  -25.4131    2.4538   -9.4036 H   0  0  0  0  0  0  0  0  0  0  0  0
  -24.4968    1.5039   -6.8728 C   0  0  0  0  0  0  0  0  0  0  0  0
  -26.7969    0.8292   -6.0389 C   0  0  0  0  0  0  0  0  0  0  0  0
  -27.6233    0.1008   -5.1914 C   0  0  0  0  0  0  0  0  0  0  0  0
  -27.0686   -0.7405   -4.2327 C   0  0  0  0  0  0  0  0  0  0  0  0
  -25.6869   -0.8509   -4.1240 C   0  0  0  0  0  0  0  0  0  0  0  0
  -24.8617   -0.1218   -4.9726 C   0  0  0  0  0  0  0  0  0  0  0  0
  -25.4153    0.7179   -5.9334 C   0  0  0  0  0  0  0  0  0  0  0  0
  -23.0544    1.4087   -8.9236 C   0  0  0  0  0  0  0  0  0  0  0  0
  -22.4405    0.4172   -9.9146 C   0  0  0  0  0  0  0  0  0  0  0  0
  -22.1271   -0.8114   -9.2531 O   0  0  0  0  0  0  0  0  0  0  0  0
  -23.3949    0.1590  -10.9481 O   0  0  0  0  0  0  0  0  0  0  0  0
  -21.5130   -0.8191   -8.5454 H   0  0  0  0  0  0  0  0  0  0  0  0
  -23.7092    0.8620  -11.4818 H   0  0  0  0  0  0  0  0  0  0  0  0
  -21.1773    1.0131  -10.5424 C   0  0  0  0  0  0  0  0  0  0  0  0
  -21.4276    1.3373  -11.9541 N   0  0  0  0  0  0  0  0  0  0  0  0
  -22.0450    2.5710  -12.3010 O   0  0  0  0  0  0  0  0  0  0  0  0
  -21.0642    0.4171  -12.9748 O   0  0  0  0  0  0  0  0  0  0  0  0
  7  8  2  0  0  0
  7 12  1  0  0  0
  8  9  1  0  0  0
  9 10  2  0  0  0
 10 11  1  0  0  0
 11 12  2  0  0  0
 12  6  1  0  0  0
  6  1  1  0  0  0
  1  2  1  0  0  0
  1 13  1  0  0  0
  2  3  2  0  0  0
  2  4  1  0  0  0
 13 14  1  0  0  0
 14 15  1  0  0  0
 14 16  1  0  0  0
 14 19  1  0  0  0
 19 20  1  0  0  0
 20 21  2  0  0  0
 20 22  1  0  0  0
  4  5  1  0  0  0
 15 17  1  0  0  0
 16 18  1  0  0  0
M  CHG 1  20   1
M  CHG 1  22  -1
M  END
> <minimizedAffinity>
-6.75669

$$$$
3FX6_BPX_A_311


 22 22  0  0  0  0  0  0  0  0999 V2000
  -23.0639    0.3416   -9.5625 C   0  0  0  0  0  0  0  0  0  0  0  0
  -24.2386    0.6937  -10.4787 C   0  0  0  0  0  0  0  0  0  0  0  0
  -24.2206    0.2014  -11.6283 O   0  0  0  0  0  0  0  0  0  0  0  0
  -25.1234    1.4456  -10.0161 O   0  0  0  0  0  0  0  0  0  0  0  0
  -25.0528    1.7680   -9.1391 H   0  0  0  0  0  0  0  0  0  0  0  0
  -21.9070   -0.2617  -10.3646 C   0  0  0  0  0  0  0  0  0  0  0  0
  -20.8990    2.0544  -10.1187 C   0  0  0  0  0  0  0  0  0  0  0  0
  -19.8867    2.9769  -10.3550 C   0  0  0  0  0  0  0  0  0  0  0  0
  -18.7765    2.6133  -11.1100 C   0  0  0  0  0  0  0  0  0  0  0  0
  -18.6819    1.3263  -11.6273 C   0  0  0  0  0  0  0  0  0  0  0  0
  -19.6953    0.4046  -11.3898 C   0  0  0  0  0  0  0  0  0  0  0  0
  -20.8048    0.7664  -10.6328 C   0  0  0  0  0  0  0  0  0  0  0  0
  -23.5420   -0.6522   -8.5020 C   0  0  0  0  0  0  0  0  0  0  0  0
  -23.9633    0.1161   -7.2473 C   0  0  0  0  0  0  0  0  0  0  0  0
  -23.3564    1.4110   -7.2347 O   0  0  0  0  0  0  0  0  0  0  0  0
  -25.3854    0.2688   -7.2650 O   0  0  0  0  0  0  0  0  0  0  0  0
  -22.4228    1.4908   -7.2225 H   0  0  0  0  0  0  0  0  0  0  0  0
  -25.9377   -0.4880   -7.2749 H   0  0  0  0  0  0  0  0  0  0  0  0
  -23.5630   -0.6641   -5.9921 C   0  0  0  0  0  0  0  0  0  0  0  0
  -24.4386   -0.2901   -4.8722 N   0  0  0  0  0  0  0  0  0  0  0  0
  -24.3503    1.0117   -4.3055 O   0  0  0  0  0  0  0  0  0  0  0  0
  -25.3671   -1.2288   -4.3455 O   0  0  0  0  0  0  0  0  0  0  0  0
  7  8  2  0  0  0
  7 12  1  0  0  0
  8  9  1  0  0  0
  9 10  2  0  0  0
 10 11  1  0  0  0
 11 12  2  0  0  0
 12  6  1  0  0  0
  6  1  1  0  0  0
  1  2  1  0  0  0
  1 13  1  0  0  0
  2  3  2  0  0  0
  2  4  1  0  0  0
 13 14  1  0  0  0
 14 15  1  0  0  0
 14 16  1  0  0  0
 14 19  1  0  0  0
 19 20  1  0  0  0
 20 21  2  0  0  0
 20 22  1  0  0  0
  4  5  1  0  0  0
 15 17  1  0  0  0
 16 18  1  0  0  0
M  CHG 1  20   1
M  CHG 1  22  -1
M  END
> <minimizedAffinity>
-6.66451

$$$$
3FX6_BPX_A_311


 22 22  0  0  0  0  0  0  0  0999 V2000
  -20.9673    2.5962  -10.1595 C   0  0  0  0  0  0  0  0  0  0  0  0
  -20.7133    3.8418  -11.0121 C   0  0  0  0  0  0  0  0  0  0  0  0
  -19.7791    4.5898  -10.6484 O   0  0  0  0  0  0  0  0  0  0  0  0
  -21.4552    4.0224  -12.0017 O   0  0  0  0  0  0  0  0  0  0  0  0
  -22.1326    3.4056  -12.1981 H   0  0  0  0  0  0  0  0  0  0  0  0
  -21.3101    2.9817   -8.7173 C   0  0  0  0  0  0  0  0  0  0  0  0
  -23.4334    3.2387   -7.3511 C   0  0  0  0  0  0  0  0  0  0  0  0
  -24.7286    2.8554   -7.0237 C   0  0  0  0  0  0  0  0  0  0  0  0
  -25.3251    1.7855   -7.6826 C   0  0  0  0  0  0  0  0  0  0  0  0
  -24.6233    1.1009   -8.6684 C   0  0  0  0  0  0  0  0  0  0  0  0
  -23.3279    1.4856   -8.9949 C   0  0  0  0  0  0  0  0  0  0  0  0
  -22.7314    2.5571   -8.3383 C   0  0  0  0  0  0  0  0  0  0  0  0
  -19.7173    1.7143  -10.1842 C   0  0  0  0  0  0  0  0  0  0  0  0
  -20.0579    0.3789  -10.8497 C   0  0  0  0  0  0  0  0  0  0  0  0
  -18.8918   -0.1795  -11.4609 O   0  0  0  0  0  0  0  0  0  0  0  0
  -20.5326   -0.5210   -9.8443 O   0  0  0  0  0  0  0  0  0  0  0  0
  -18.4526    0.2866  -12.1450 H   0  0  0  0  0  0  0  0  0  0  0  0
  -21.2952   -0.3050   -9.3445 H   0  0  0  0  0  0  0  0  0  0  0  0
  -21.1567    0.5773  -11.8976 C   0  0  0  0  0  0  0  0  0  0  0  0
  -20.5711    0.5495  -13.2455 N   0  0  0  0  0  0  0  0  0  0  0  0
  -20.0651    1.7460  -13.8251 O   0  0  0  0  0  0  0  0  0  0  0  0
  -20.5178   -0.6679  -13.9775 O   0  0  0  0  0  0  0  0  0  0  0  0
  7  8  2  0  0  0
  7 12  1  0  0  0
  8  9  1  0  0  0
  9 10  2  0  0  0
 10 11  1  0  0  0
 11 12  2  0  0  0
 12  6  1  0  0  0
  6  1  1  0  0  0
  1  2  1  0  0  0
  1 13  1  0  0  0
  2  3  2  0  0  0
  2  4  1  0  0  0
 13 14  1  0  0  0
 14 15  1  0  0  0
 14 16  1  0  0  0
 14 19  1  0  0  0
 19 20  1  0  0  0
 20 21  2  0  0  0
 20 22  1  0  0  0
  4  5  1  0  0  0
 15 17  1  0  0  0
 16 18  1  0  0  0
M  CHG 1  20   1
M  CHG 1  22  -1
M  END
> <minimizedAffinity>
-6.59512

$$$$
3FX6_BPX_A_311


 22 22  0  0  0  0  0  0  0  0999 V2000
  -24.4219    0.7509   -8.3870 C   0  0  0  0  0  0  0  0  0  0  0  0
  -25.7634    0.2298   -8.9085 C   0  0  0  0  0  0  0  0  0  0  0  0
  -26.7091    1.0477   -8.9399 O   0  0  0  0  0  0  0  0  0  0  0  0
  -25.8175   -0.9685   -9.2597 O   0  0  0  0  0  0  0  0  0  0  0  0
  -25.0543   -1.5089   -9.2008 H   0  0  0  0  0  0  0  0  0  0  0  0
  -23.5791    1.3287   -9.5280 C   0  0  0  0  0  0  0  0  0  0  0  0
  -22.5954    2.9609   -7.8518 C   0  0  0  0  0  0  0  0  0  0  0  0
  -21.5461    3.7376   -7.3752 C   0  0  0  0  0  0  0  0  0  0  0  0
  -20.3314    3.7572   -8.0526 C   0  0  0  0  0  0  0  0  0  0  0  0
  -20.1697    2.9989   -9.2067 C   0  0  0  0  0  0  0  0  0  0  0  0
  -21.2202    2.2223   -9.6820 C   0  0  0  0  0  0  0  0  0  0  0  0
  -22.4345    2.2000   -9.0039 C   0  0  0  0  0  0  0  0  0  0  0  0
  -23.6720   -0.3983   -7.7103 C   0  0  0  0  0  0  0  0  0  0  0  0
  -23.7726   -0.2384   -6.1917 C   0  0  0  0  0  0  0  0  0  0  0  0
  -23.9096   -1.5185   -5.5687 O   0  0  0  0  0  0  0  0  0  0  0  0
  -22.5734    0.3826   -5.7204 O   0  0  0  0  0  0  0  0  0  0  0  0
  -24.6472   -2.0605   -5.7691 H   0  0  0  0  0  0  0  0  0  0  0  0
  -22.3326    1.2329   -6.0318 H   0  0  0  0  0  0  0  0  0  0  0  0
  -24.9665    0.6509   -5.8332 C   0  0  0  0  0  0  0  0  0  0  0  0
  -25.9593   -0.1274   -5.0787 N   0  0  0  0  0  0  0  0  0  0  0  0
  -25.6662   -0.5605   -3.7558 O   0  0  0  0  0  0  0  0  0  0  0  0
  -27.2086   -0.4587   -5.6704 O   0  0  0  0  0  0  0  0  0  0  0  0
  7  8  2  0  0  0
  7 12  1  0  0  0
  8  9  1  0  0  0
  9 10  2  0  0  0
 10 11  1  0  0  0
 11 12  2  0  0  0
 12  6  1  0  0  0
  6  1  1  0  0  0
  1  2  1  0  0  0
  1 13  1  0  0  0
  2  3  2  0  0  0
  2  4  1  0  0  0
 13 14  1  0  0  0
 14 15  1  0  0  0
 14 16  1  0  0  0
 14 19  1  0  0  0
 19 20  1  0  0  0
 20 21  2  0  0  0
 20 22  1  0  0  0
  4  5  1  0  0  0
 15 17  1  0  0  0
 16 18  1  0  0  0
M  CHG 1  20   1
M  CHG 1  22  -1
M  END
> <minimizedAffinity>
-6.54143

$$$$
