3QWC_98P_H_2001


 31 33  0  0  0  0  0  0  0  0999 V2000
   17.4167  -12.9932   22.4927 C   0  0  0  0  0  0  0  0  0  0  0  0
   16.3780  -12.3797   22.7288 O   0  0  0  0  0  0  0  0  0  0  0  0
   18.3164  -12.5633   21.6010 N   0  0  0  0  0  0  0  0  0  0  0  0
   18.0667  -11.3212   20.8679 C   0  0  0  0  0  0  0  0  0  0  0  0
   19.2285  -11.1974   19.8910 C   0  0  0  0  0  0  0  0  0  0  0  0
   20.3033  -12.1519   20.3964 C   0  0  0  0  0  0  0  0  0  0  0  0
   19.5782  -13.2053   21.2193 C   0  0  0  0  0  0  0  0  0  0  0  0
   16.5256  -15.1312   23.1348 N   0  0  0  0  0  0  0  0  0  0  0  0
   17.7099  -14.2870   23.2043 C   0  0  0  0  0  0  0  0  0  0  0  0
   16.7083  -16.0133   23.6133 H   0  0  0  0  0  0  0  0  0  0  0  0
   16.2961  -15.3153   22.1582 H   0  0  0  0  0  0  0  0  0  0  0  0
   18.0897  -14.0567   24.6734 C   0  0  0  0  0  0  0  0  0  0  0  0
   19.5494  -13.6646   24.7733 C   0  0  0  0  0  0  0  0  0  0  0  0
   20.5465  -14.5572   24.3903 C   0  0  0  0  0  0  0  0  0  0  0  0
   19.8985  -12.4147   25.2657 C   0  0  0  0  0  0  0  0  0  0  0  0
   21.8862  -14.1849   24.4872 C   0  0  0  0  0  0  0  0  0  0  0  0
   21.2331  -12.0444   25.3599 C   0  0  0  0  0  0  0  0  0  0  0  0
   22.2318  -12.9328   24.9712 C   0  0  0  0  0  0  0  0  0  0  0  0
   16.7736  -11.4350   20.1227 C   0  0  0  0  0  0  0  0  0  0  0  0
   16.6087  -12.3549   19.3256 O   0  0  0  0  0  0  0  0  0  0  0  0
   15.8349  -10.5223   20.3789 N   0  0  0  0  0  0  0  0  0  0  0  0
   16.0404   -9.8162   21.0335 H   0  0  0  0  0  0  0  0  0  0  0  0
   14.5211  -10.5110   19.7443 C   0  0  0  0  0  0  0  0  0  0  0  0
   13.4810  -10.7601   20.8197 C   0  0  0  0  0  0  0  0  0  0  0  0
   13.1190   -9.7626   21.7118 C   0  0  0  0  0  0  0  0  0  0  0  0
   11.8338   -8.9186   23.5849 C   0  0  0  0  0  0  0  0  0  0  0  0
   11.6007  -11.1894   22.7699 C   0  0  0  0  0  0  0  0  0  0  0  0
   11.9196  -12.2246   21.9045 C   0  0  0  0  0  0  0  0  0  0  0  0
   12.8782  -11.9885   20.9329 C   0  0  0  0  0  0  0  0  0  0  0  0
   12.1975   -9.9932   22.6550 N   0  0  0  0  0  0  0  0  0  0  0  0
   13.3241  -13.2736   19.7863 Cl  0  0  0  0  0  0  0  0  0  0  0  0
 13 12  1  0  0  0
 13 14  2  0  0  0
 13 15  1  0  0  0
 12  9  1  0  0  0
  9  1  1  0  0  0
  9  8  1  0  0  0
  1  3  1  0  0  0
  1  2  2  0  0  0
 14 16  1  0  0  0
 16 18  2  0  0  0
 18 17  1  0  0  0
 17 15  2  0  0  0
  4 19  1  0  0  0
  4  5  1  0  0  0
  4  3  1  0  0  0
 19 21  1  0  0  0
 19 20  2  0  0  0
 23 24  1  0  0  0
 23 21  1  0  0  0
 24 25  2  0  0  0
 24 29  1  0  0  0
  5  6  1  0  0  0
  6  7  1  0  0  0
  7  3  1  0  0  0
 25 30  1  0  0  0
 26 30  1  0  0  0
 27 28  1  0  0  0
 27 30  2  0  0  0
 28 29  2  0  0  0
 29 31  1  0  0  0
  8 10  1  0  0  0
  8 11  1  0  0  0
 21 22  1  0  0  0
M  CHG 1  30   1
M  END
> <minimizedAffinity>
-9.31223

$$$$
3QWC_98P_H_2001


 31 33  0  0  0  0  0  0  0  0999 V2000
   17.5018  -13.0022   22.5145 C   0  0  0  0  0  0  0  0  0  0  0  0
   16.4649  -12.3807   22.7371 O   0  0  0  0  0  0  0  0  0  0  0  0
   18.4213  -12.5738   21.6425 N   0  0  0  0  0  0  0  0  0  0  0  0
   18.1966  -11.3236   20.9153 C   0  0  0  0  0  0  0  0  0  0  0  0
   19.3768  -11.2031   19.9604 C   0  0  0  0  0  0  0  0  0  0  0  0
   20.4333  -12.1719   20.4770 C   0  0  0  0  0  0  0  0  0  0  0  0
   19.6837  -13.2248   21.2781 C   0  0  0  0  0  0  0  0  0  0  0  0
   16.5746  -15.1313   23.1348 N   0  0  0  0  0  0  0  0  0  0  0  0
   17.7700  -14.3044   23.2206 C   0  0  0  0  0  0  0  0  0  0  0  0
   16.7403  -16.0188   23.6094 H   0  0  0  0  0  0  0  0  0  0  0  0
   16.3517  -15.3061   22.1549 H   0  0  0  0  0  0  0  0  0  0  0  0
   18.1393  -14.0886   24.6946 C   0  0  0  0  0  0  0  0  0  0  0  0
   19.5961  -13.6897   24.8082 C   0  0  0  0  0  0  0  0  0  0  0  0
   20.6019  -14.5931   24.4766 C   0  0  0  0  0  0  0  0  0  0  0  0
   19.9336  -12.4221   25.2620 C   0  0  0  0  0  0  0  0  0  0  0  0
   21.9389  -14.2144   24.5857 C   0  0  0  0  0  0  0  0  0  0  0  0
   21.2656  -12.0455   25.3682 C   0  0  0  0  0  0  0  0  0  0  0  0
   22.2729  -12.9449   25.0309 C   0  0  0  0  0  0  0  0  0  0  0  0
   16.9160  -11.4189   20.1463 C   0  0  0  0  0  0  0  0  0  0  0  0
   16.7678  -12.3142   19.3185 O   0  0  0  0  0  0  0  0  0  0  0  0
   15.9695  -10.5182   20.4157 N   0  0  0  0  0  0  0  0  0  0  0  0
   16.1615   -9.8321   21.0950 H   0  0  0  0  0  0  0  0  0  0  0  0
   14.6659  -10.4921   19.7607 C   0  0  0  0  0  0  0  0  0  0  0  0
   13.6689  -11.1745   20.6777 C   0  0  0  0  0  0  0  0  0  0  0  0
   13.4015  -12.5300   20.5641 C   0  0  0  0  0  0  0  0  0  0  0  0
   12.2592  -14.5581   21.2381 C   0  0  0  0  0  0  0  0  0  0  0  0
   11.8717  -12.4279   22.3276 C   0  0  0  0  0  0  0  0  0  0  0  0
   12.1000  -11.0701   22.4907 C   0  0  0  0  0  0  0  0  0  0  0  0
   13.0050  -10.4558   21.6409 C   0  0  0  0  0  0  0  0  0  0  0  0
   12.5218  -13.1220   21.3811 N   0  0  0  0  0  0  0  0  0  0  0  0
   13.3484   -8.7180   21.8060 Cl  0  0  0  0  0  0  0  0  0  0  0  0
 13 12  1  0  0  0
 13 14  2  0  0  0
 13 15  1  0  0  0
 12  9  1  0  0  0
  9  1  1  0  0  0
  9  8  1  0  0  0
  1  3  1  0  0  0
  1  2  2  0  0  0
 14 16  1  0  0  0
 16 18  2  0  0  0
 18 17  1  0  0  0
 17 15  2  0  0  0
  4 19  1  0  0  0
  4  5  1  0  0  0
  4  3  1  0  0  0
 19 21  1  0  0  0
 19 20  2  0  0  0
 23 24  1  0  0  0
 23 21  1  0  0  0
 24 25  2  0  0  0
 24 29  1  0  0  0
  5  6  1  0  0  0
  6  7  1  0  0  0
  7  3  1  0  0  0
 25 30  1  0  0  0
 26 30  1  0  0  0
 27 28  1  0  0  0
 27 30  2  0  0  0
 28 29  2  0  0  0
 29 31  1  0  0  0
  8 10  1  0  0  0
  8 11  1  0  0  0
 21 22  1  0  0  0
M  CHG 1  30   1
M  END
> <minimizedAffinity>
-8.75978

$$$$
3QWC_98P_H_2001


 31 33  0  0  0  0  0  0  0  0999 V2000
   17.4472  -12.9946   22.4399 C   0  0  0  0  0  0  0  0  0  0  0  0
   16.4321  -12.3414   22.6721 O   0  0  0  0  0  0  0  0  0  0  0  0
   18.3612  -12.6049   21.5443 N   0  0  0  0  0  0  0  0  0  0  0  0
   18.1569  -11.3600   20.8021 C   0  0  0  0  0  0  0  0  0  0  0  0
   19.3215  -11.2866   19.8235 C   0  0  0  0  0  0  0  0  0  0  0  0
   20.3608  -12.2763   20.3352 C   0  0  0  0  0  0  0  0  0  0  0  0
   19.5981  -13.2960   21.1665 C   0  0  0  0  0  0  0  0  0  0  0  0
   16.4957  -15.1146   23.0544 N   0  0  0  0  0  0  0  0  0  0  0  0
   17.6931  -14.2930   23.1609 C   0  0  0  0  0  0  0  0  0  0  0  0
   16.6464  -15.9995   23.5388 H   0  0  0  0  0  0  0  0  0  0  0  0
   16.2938  -15.2954   22.0710 H   0  0  0  0  0  0  0  0  0  0  0  0
   18.0306  -14.0684   24.6412 C   0  0  0  0  0  0  0  0  0  0  0  0
   19.4935  -13.7039   24.7871 C   0  0  0  0  0  0  0  0  0  0  0  0
   20.4851  -14.6147   24.4339 C   0  0  0  0  0  0  0  0  0  0  0  0
   19.8504  -12.4612   25.2921 C   0  0  0  0  0  0  0  0  0  0  0  0
   21.8279  -14.2677   24.5731 C   0  0  0  0  0  0  0  0  0  0  0  0
   21.1882  -12.1162   25.4283 C   0  0  0  0  0  0  0  0  0  0  0  0
   22.1816  -13.0228   25.0695 C   0  0  0  0  0  0  0  0  0  0  0  0
   16.8597  -11.4314   20.0587 C   0  0  0  0  0  0  0  0  0  0  0  0
   16.1830  -10.4164   19.9157 O   0  0  0  0  0  0  0  0  0  0  0  0
   16.5019  -12.6161   19.5607 N   0  0  0  0  0  0  0  0  0  0  0  0
   17.0988  -13.3837   19.7143 H   0  0  0  0  0  0  0  0  0  0  0  0
   15.2760  -12.8390   18.8012 C   0  0  0  0  0  0  0  0  0  0  0  0
   14.2190  -13.3512   19.7607 C   0  0  0  0  0  0  0  0  0  0  0  0
   13.4360  -12.4768   20.4983 C   0  0  0  0  0  0  0  0  0  0  0  0
   11.6897  -11.9916   22.1069 C   0  0  0  0  0  0  0  0  0  0  0  0
   12.3006  -14.2571   21.4991 C   0  0  0  0  0  0  0  0  0  0  0  0
   13.0510  -15.1797   20.7864 C   0  0  0  0  0  0  0  0  0  0  0  0
   14.0202  -14.7003   19.9208 C   0  0  0  0  0  0  0  0  0  0  0  0
   12.5040  -12.9405   21.3398 N   0  0  0  0  0  0  0  0  0  0  0  0
   15.0094  -15.8334   18.9707 Cl  0  0  0  0  0  0  0  0  0  0  0  0
 13 12  1  0  0  0
 13 14  2  0  0  0
 13 15  1  0  0  0
 12  9  1  0  0  0
  9  1  1  0  0  0
  9  8  1  0  0  0
  1  3  1  0  0  0
  1  2  2  0  0  0
 14 16  1  0  0  0
 16 18  2  0  0  0
 18 17  1  0  0  0
 17 15  2  0  0  0
  4 19  1  0  0  0
  4  5  1  0  0  0
  4  3  1  0  0  0
 19 21  1  0  0  0
 19 20  2  0  0  0
 23 24  1  0  0  0
 23 21  1  0  0  0
 24 25  2  0  0  0
 24 29  1  0  0  0
  5  6  1  0  0  0
  6  7  1  0  0  0
  7  3  1  0  0  0
 25 30  1  0  0  0
 26 30  1  0  0  0
 27 28  1  0  0  0
 27 30  2  0  0  0
 28 29  2  0  0  0
 29 31  1  0  0  0
  8 10  1  0  0  0
  8 11  1  0  0  0
 21 22  1  0  0  0
M  CHG 1  30   1
M  END
> <minimizedAffinity>
-8.15485

$$$$
3QWC_98P_H_2001


 31 33  0  0  0  0  0  0  0  0999 V2000
   17.4603  -13.0601   22.4617 C   0  0  0  0  0  0  0  0  0  0  0  0
   16.4571  -12.4111   22.7509 O   0  0  0  0  0  0  0  0  0  0  0  0
   18.3333  -12.6546   21.5328 N   0  0  0  0  0  0  0  0  0  0  0  0
   18.0966  -11.3968   20.8227 C   0  0  0  0  0  0  0  0  0  0  0  0
   19.2160  -11.3060   19.7940 C   0  0  0  0  0  0  0  0  0  0  0  0
   20.2765  -12.3046   20.2408 C   0  0  0  0  0  0  0  0  0  0  0  0
   19.5514  -13.3388   21.0875 C   0  0  0  0  0  0  0  0  0  0  0  0
   16.5467  -15.2035   23.0521 N   0  0  0  0  0  0  0  0  0  0  0  0
   17.7374  -14.3710   23.1479 C   0  0  0  0  0  0  0  0  0  0  0  0
   16.7185  -16.0970   23.5132 H   0  0  0  0  0  0  0  0  0  0  0  0
   16.3229  -15.3651   22.0702 H   0  0  0  0  0  0  0  0  0  0  0  0
   18.1084  -14.1749   24.6242 C   0  0  0  0  0  0  0  0  0  0  0  0
   19.5443  -13.7062   24.7372 C   0  0  0  0  0  0  0  0  0  0  0  0
   20.5798  -14.4755   24.2142 C   0  0  0  0  0  0  0  0  0  0  0  0
   19.8340  -12.5111   25.3811 C   0  0  0  0  0  0  0  0  0  0  0  0
   21.8972  -14.0337   24.3249 C   0  0  0  0  0  0  0  0  0  0  0  0
   21.1463  -12.0712   25.4887 C   0  0  0  0  0  0  0  0  0  0  0  0
   22.1829  -12.8356   24.9607 C   0  0  0  0  0  0  0  0  0  0  0  0
   16.7672  -11.4551   20.1374 C   0  0  0  0  0  0  0  0  0  0  0  0
   16.1151  -10.4255   19.9843 O   0  0  0  0  0  0  0  0  0  0  0  0
   16.3536  -12.6456   19.6999 N   0  0  0  0  0  0  0  0  0  0  0  0
   16.9338  -13.4252   19.8575 H   0  0  0  0  0  0  0  0  0  0  0  0
   15.0903  -12.8580   19.0014 C   0  0  0  0  0  0  0  0  0  0  0  0
   14.2087  -13.7215   19.8831 C   0  0  0  0  0  0  0  0  0  0  0  0
   14.3764  -15.0965   19.9376 C   0  0  0  0  0  0  0  0  0  0  0  0
   13.7950  -17.3006   20.7599 C   0  0  0  0  0  0  0  0  0  0  0  0
   12.6266  -15.3003   21.4730 C   0  0  0  0  0  0  0  0  0  0  0  0
   12.4136  -13.9303   21.4622 C   0  0  0  0  0  0  0  0  0  0  0  0
   13.2182  -13.1531   20.6454 C   0  0  0  0  0  0  0  0  0  0  0  0
   13.5941  -15.8481   20.7219 N   0  0  0  0  0  0  0  0  0  0  0  0
   13.0006  -11.3882   20.5948 Cl  0  0  0  0  0  0  0  0  0  0  0  0
 13 12  1  0  0  0
 13 14  2  0  0  0
 13 15  1  0  0  0
 12  9  1  0  0  0
  9  1  1  0  0  0
  9  8  1  0  0  0
  1  3  1  0  0  0
  1  2  2  0  0  0
 14 16  1  0  0  0
 16 18  2  0  0  0
 18 17  1  0  0  0
 17 15  2  0  0  0
  4 19  1  0  0  0
  4  5  1  0  0  0
  4  3  1  0  0  0
 19 21  1  0  0  0
 19 20  2  0  0  0
 23 24  1  0  0  0
 23 21  1  0  0  0
 24 25  2  0  0  0
 24 29  1  0  0  0
  5  6  1  0  0  0
  6  7  1  0  0  0
  7  3  1  0  0  0
 25 30  1  0  0  0
 26 30  1  0  0  0
 27 28  1  0  0  0
 27 30  2  0  0  0
 28 29  2  0  0  0
 29 31  1  0  0  0
  8 10  1  0  0  0
  8 11  1  0  0  0
 21 22  1  0  0  0
M  CHG 1  30   1
M  END
> <minimizedAffinity>
-8.10381

$$$$
3QWC_98P_H_2001


 31 33  0  0  0  0  0  0  0  0999 V2000
   16.7654  -13.8176   22.2183 C   0  0  0  0  0  0  0  0  0  0  0  0
   16.1215  -12.7921   22.0065 O   0  0  0  0  0  0  0  0  0  0  0  0
   16.6472  -14.9091   21.4540 N   0  0  0  0  0  0  0  0  0  0  0  0
   15.7176  -14.8991   20.3234 C   0  0  0  0  0  0  0  0  0  0  0  0
   15.7725  -16.3101   19.7530 C   0  0  0  0  0  0  0  0  0  0  0  0
   17.0371  -16.9420   20.3212 C   0  0  0  0  0  0  0  0  0  0  0  0
   17.3417  -16.1913   21.6081 C   0  0  0  0  0  0  0  0  0  0  0  0
   17.0078  -13.4804   24.5858 N   0  0  0  0  0  0  0  0  0  0  0  0
   17.7186  -13.8861   23.3815 C   0  0  0  0  0  0  0  0  0  0  0  0
   17.6411  -13.5214   25.3844 H   0  0  0  0  0  0  0  0  0  0  0  0
   16.2202  -14.1089   24.7438 H   0  0  0  0  0  0  0  0  0  0  0  0
   18.9373  -12.9764   23.1746 C   0  0  0  0  0  0  0  0  0  0  0  0
   19.9483  -13.2098   24.2781 C   0  0  0  0  0  0  0  0  0  0  0  0
   20.5299  -14.4630   24.4473 C   0  0  0  0  0  0  0  0  0  0  0  0
   20.2859  -12.1740   25.1382 C   0  0  0  0  0  0  0  0  0  0  0  0
   21.4587  -14.6655   25.4667 C   0  0  0  0  0  0  0  0  0  0  0  0
   21.2127  -12.3764   26.1519 C   0  0  0  0  0  0  0  0  0  0  0  0
   21.8005  -13.6271   26.3189 C   0  0  0  0  0  0  0  0  0  0  0  0
   14.3380  -14.5933   20.8167 C   0  0  0  0  0  0  0  0  0  0  0  0
   13.7981  -15.3470   21.6225 O   0  0  0  0  0  0  0  0  0  0  0  0
   13.7552  -13.4829   20.3615 N   0  0  0  0  0  0  0  0  0  0  0  0
   14.2529  -12.9274   19.7189 H   0  0  0  0  0  0  0  0  0  0  0  0
   12.4221  -13.0450   20.7617 C   0  0  0  0  0  0  0  0  0  0  0  0
   12.5382  -11.6347   21.3075 C   0  0  0  0  0  0  0  0  0  0  0  0
   11.8801  -11.2587   22.4682 C   0  0  0  0  0  0  0  0  0  0  0  0
   11.2852   -9.6425   24.1731 C   0  0  0  0  0  0  0  0  0  0  0  0
   12.7372   -9.0904   22.3125 C   0  0  0  0  0  0  0  0  0  0  0  0
   13.4208   -9.4087   21.1490 C   0  0  0  0  0  0  0  0  0  0  0  0
   13.2991  -10.6968   20.6545 C   0  0  0  0  0  0  0  0  0  0  0  0
   11.9925  -10.0119   22.9422 N   0  0  0  0  0  0  0  0  0  0  0  0
   14.1594  -11.1696   19.1708 Cl  0  0  0  0  0  0  0  0  0  0  0  0
 13 12  1  0  0  0
 13 14  2  0  0  0
 13 15  1  0  0  0
 12  9  1  0  0  0
  9  1  1  0  0  0
  9  8  1  0  0  0
  1  3  1  0  0  0
  1  2  2  0  0  0
 14 16  1  0  0  0
 16 18  2  0  0  0
 18 17  1  0  0  0
 17 15  2  0  0  0
  4 19  1  0  0  0
  4  5  1  0  0  0
  4  3  1  0  0  0
 19 21  1  0  0  0
 19 20  2  0  0  0
 23 24  1  0  0  0
 23 21  1  0  0  0
 24 25  2  0  0  0
 24 29  1  0  0  0
  5  6  1  0  0  0
  6  7  1  0  0  0
  7  3  1  0  0  0
 25 30  1  0  0  0
 26 30  1  0  0  0
 27 28  1  0  0  0
 27 30  2  0  0  0
 28 29  2  0  0  0
 29 31  1  0  0  0
  8 10  1  0  0  0
  8 11  1  0  0  0
 21 22  1  0  0  0
M  CHG 1  30   1
M  END
> <minimizedAffinity>
-7.63819

$$$$
3QWC_98P_H_2001


 31 33  0  0  0  0  0  0  0  0999 V2000
   17.2336  -14.3082   21.7554 C   0  0  0  0  0  0  0  0  0  0  0  0
   17.0825  -14.4671   20.5459 O   0  0  0  0  0  0  0  0  0  0  0  0
   16.8164  -15.2069   22.6542 N   0  0  0  0  0  0  0  0  0  0  0  0
   16.1493  -16.4267   22.1964 C   0  0  0  0  0  0  0  0  0  0  0  0
   15.7346  -17.1529   23.4692 C   0  0  0  0  0  0  0  0  0  0  0  0
   16.5486  -16.5244   24.5934 C   0  0  0  0  0  0  0  0  0  0  0  0
   16.9220  -15.1302   24.1147 C   0  0  0  0  0  0  0  0  0  0  0  0
   17.2805  -11.9082   21.6340 N   0  0  0  0  0  0  0  0  0  0  0  0
   17.8943  -13.0607   22.2782 C   0  0  0  0  0  0  0  0  0  0  0  0
   17.7180  -11.0534   21.9781 H   0  0  0  0  0  0  0  0  0  0  0  0
   16.2835  -11.8899   21.8483 H   0  0  0  0  0  0  0  0  0  0  0  0
   19.4045  -13.0573   22.0040 C   0  0  0  0  0  0  0  0  0  0  0  0
   20.1640  -12.8811   23.3027 C   0  0  0  0  0  0  0  0  0  0  0  0
   21.5551  -12.9271   23.3171 C   0  0  0  0  0  0  0  0  0  0  0  0
   19.4706  -12.6899   24.4899 C   0  0  0  0  0  0  0  0  0  0  0  0
   22.2427  -12.7640   24.5185 C   0  0  0  0  0  0  0  0  0  0  0  0
   20.1568  -12.5255   25.6855 C   0  0  0  0  0  0  0  0  0  0  0  0
   21.5481  -12.5645   25.7013 C   0  0  0  0  0  0  0  0  0  0  0  0
   14.9412  -16.0608   21.3920 C   0  0  0  0  0  0  0  0  0  0  0  0
   14.6992  -16.6621   20.3486 O   0  0  0  0  0  0  0  0  0  0  0  0
   14.1584  -15.0905   21.8665 N   0  0  0  0  0  0  0  0  0  0  0  0
   14.4170  -14.6570   22.7118 H   0  0  0  0  0  0  0  0  0  0  0  0
   12.9407  -14.6349   21.2041 C   0  0  0  0  0  0  0  0  0  0  0  0
   13.0204  -13.1266   21.0665 C   0  0  0  0  0  0  0  0  0  0  0  0
   12.4674  -12.2892   22.0229 C   0  0  0  0  0  0  0  0  0  0  0  0
   11.9528  -10.0978   22.9204 C   0  0  0  0  0  0  0  0  0  0  0  0
   13.1560  -10.3967   20.8376 C   0  0  0  0  0  0  0  0  0  0  0  0
   13.7302  -11.1830   19.8507 C   0  0  0  0  0  0  0  0  0  0  0  0
   13.6422  -12.5591   19.9819 C   0  0  0  0  0  0  0  0  0  0  0  0
   12.5466  -10.9593   21.8923 N   0  0  0  0  0  0  0  0  0  0  0  0
   14.3675  -13.6223   18.7536 Cl  0  0  0  0  0  0  0  0  0  0  0  0
 13 12  1  0  0  0
 13 14  2  0  0  0
 13 15  1  0  0  0
 12  9  1  0  0  0
  9  1  1  0  0  0
  9  8  1  0  0  0
  1  3  1  0  0  0
  1  2  2  0  0  0
 14 16  1  0  0  0
 16 18  2  0  0  0
 18 17  1  0  0  0
 17 15  2  0  0  0
  4 19  1  0  0  0
  4  5  1  0  0  0
  4  3  1  0  0  0
 19 21  1  0  0  0
 19 20  2  0  0  0
 23 24  1  0  0  0
 23 21  1  0  0  0
 24 25  2  0  0  0
 24 29  1  0  0  0
  5  6  1  0  0  0
  6  7  1  0  0  0
  7  3  1  0  0  0
 25 30  1  0  0  0
 26 30  1  0  0  0
 27 28  1  0  0  0
 27 30  2  0  0  0
 28 29  2  0  0  0
 29 31  1  0  0  0
  8 10  1  0  0  0
  8 11  1  0  0  0
 21 22  1  0  0  0
M  CHG 1  30   1
M  END
> <minimizedAffinity>
-7.58091

$$$$
3QWC_98P_H_2001


 31 33  0  0  0  0  0  0  0  0999 V2000
   17.1411  -13.1917   22.3171 C   0  0  0  0  0  0  0  0  0  0  0  0
   16.1651  -12.5143   22.6327 O   0  0  0  0  0  0  0  0  0  0  0  0
   18.1408  -12.7056   21.5730 N   0  0  0  0  0  0  0  0  0  0  0  0
   18.0824  -11.3197   21.1057 C   0  0  0  0  0  0  0  0  0  0  0  0
   19.3130  -11.1463   20.2254 C   0  0  0  0  0  0  0  0  0  0  0  0
   20.2370  -12.3094   20.5646 C   0  0  0  0  0  0  0  0  0  0  0  0
   19.3445  -13.4089   21.1185 C   0  0  0  0  0  0  0  0  0  0  0  0
   18.3974  -14.7699   23.6242 N   0  0  0  0  0  0  0  0  0  0  0  0
   17.2382  -14.6289   22.7544 C   0  0  0  0  0  0  0  0  0  0  0  0
   18.4772  -15.7398   23.9296 H   0  0  0  0  0  0  0  0  0  0  0  0
   18.2873  -14.1651   24.4381 H   0  0  0  0  0  0  0  0  0  0  0  0
   17.3758  -15.5810   21.5585 C   0  0  0  0  0  0  0  0  0  0  0  0
   16.0061  -15.9129   21.0033 C   0  0  0  0  0  0  0  0  0  0  0  0
   14.9297  -16.1207   21.8610 C   0  0  0  0  0  0  0  0  0  0  0  0
   15.8242  -16.0284   19.6321 C   0  0  0  0  0  0  0  0  0  0  0  0
   13.6742  -16.4259   21.3381 C   0  0  0  0  0  0  0  0  0  0  0  0
   14.5728  -16.3304   19.1125 C   0  0  0  0  0  0  0  0  0  0  0  0
   13.4933  -16.5321   19.9679 C   0  0  0  0  0  0  0  0  0  0  0  0
   16.8371  -11.1186   20.3000 C   0  0  0  0  0  0  0  0  0  0  0  0
   16.7301  -11.6544   19.1999 O   0  0  0  0  0  0  0  0  0  0  0  0
   15.8746  -10.3655   20.8350 N   0  0  0  0  0  0  0  0  0  0  0  0
   16.0330   -9.9718   21.7233 H   0  0  0  0  0  0  0  0  0  0  0  0
   14.6006  -10.0919   20.1784 C   0  0  0  0  0  0  0  0  0  0  0  0
   13.4901  -10.5429   21.1077 C   0  0  0  0  0  0  0  0  0  0  0  0
   12.9737   -9.6929   22.0734 C   0  0  0  0  0  0  0  0  0  0  0  0
   11.4641   -9.1796   23.8982 C   0  0  0  0  0  0  0  0  0  0  0  0
   11.4803  -11.3384   22.7962 C   0  0  0  0  0  0  0  0  0  0  0  0
   11.9544  -12.2320   21.8480 C   0  0  0  0  0  0  0  0  0  0  0  0
   12.9756  -11.8123   21.0117 C   0  0  0  0  0  0  0  0  0  0  0  0
   11.9915  -10.1011   22.8860 N   0  0  0  0  0  0  0  0  0  0  0  0
   13.6203  -12.9092   19.7682 Cl  0  0  0  0  0  0  0  0  0  0  0  0
 13 12  1  0  0  0
 13 14  2  0  0  0
 13 15  1  0  0  0
 12  9  1  0  0  0
  9  1  1  0  0  0
  9  8  1  0  0  0
  1  3  1  0  0  0
  1  2  2  0  0  0
 14 16  1  0  0  0
 16 18  2  0  0  0
 18 17  1  0  0  0
 17 15  2  0  0  0
  4 19  1  0  0  0
  4  5  1  0  0  0
  4  3  1  0  0  0
 19 21  1  0  0  0
 19 20  2  0  0  0
 23 24  1  0  0  0
 23 21  1  0  0  0
 24 25  2  0  0  0
 24 29  1  0  0  0
  5  6  1  0  0  0
  6  7  1  0  0  0
  7  3  1  0  0  0
 25 30  1  0  0  0
 26 30  1  0  0  0
 27 28  1  0  0  0
 27 30  2  0  0  0
 28 29  2  0  0  0
 29 31  1  0  0  0
  8 10  1  0  0  0
  8 11  1  0  0  0
 21 22  1  0  0  0
M  CHG 1  30   1
M  END
> <minimizedAffinity>
-7.56014

$$$$
3QWC_98P_H_2001


 31 33  0  0  0  0  0  0  0  0999 V2000
   14.8486  -11.9413   20.8247 C   0  0  0  0  0  0  0  0  0  0  0  0
   15.0837  -13.1128   21.1133 O   0  0  0  0  0  0  0  0  0  0  0  0
   13.7441  -11.3091   21.2369 N   0  0  0  0  0  0  0  0  0  0  0  0
   12.7680  -12.0267   22.0582 C   0  0  0  0  0  0  0  0  0  0  0  0
   11.6185  -11.0470   22.2539 C   0  0  0  0  0  0  0  0  0  0  0  0
   12.1716   -9.6751   21.8888 C   0  0  0  0  0  0  0  0  0  0  0  0
   13.3417   -9.9284   20.9512 C   0  0  0  0  0  0  0  0  0  0  0  0
   16.4255  -12.0842   19.0163 N   0  0  0  0  0  0  0  0  0  0  0  0
   15.8105  -11.1662   19.9644 C   0  0  0  0  0  0  0  0  0  0  0  0
   17.0812  -11.5735   18.4249 H   0  0  0  0  0  0  0  0  0  0  0  0
   15.7022  -12.5077   18.4350 H   0  0  0  0  0  0  0  0  0  0  0  0
   16.9026  -10.4853   20.8007 C   0  0  0  0  0  0  0  0  0  0  0  0
   18.1024  -11.4012   20.9260 C   0  0  0  0  0  0  0  0  0  0  0  0
   18.1827  -12.3184   21.9700 C   0  0  0  0  0  0  0  0  0  0  0  0
   19.1379  -11.3157   20.0056 C   0  0  0  0  0  0  0  0  0  0  0  0
   19.2922  -13.1556   22.0749 C   0  0  0  0  0  0  0  0  0  0  0  0
   20.2414  -12.1516   20.1101 C   0  0  0  0  0  0  0  0  0  0  0  0
   20.3208  -13.0742   21.1494 C   0  0  0  0  0  0  0  0  0  0  0  0
   12.2942  -13.2402   21.3211 C   0  0  0  0  0  0  0  0  0  0  0  0
   11.7882  -13.1182   20.2085 O   0  0  0  0  0  0  0  0  0  0  0  0
   12.4643  -14.4235   21.9130 N   0  0  0  0  0  0  0  0  0  0  0  0
   12.8807  -14.4408   22.8050 H   0  0  0  0  0  0  0  0  0  0  0  0
   12.0685  -15.6937   21.3138 C   0  0  0  0  0  0  0  0  0  0  0  0
   13.3278  -16.4141   20.8719 C   0  0  0  0  0  0  0  0  0  0  0  0
   14.2129  -16.9444   21.7978 C   0  0  0  0  0  0  0  0  0  0  0  0
   16.2378  -18.1324   22.3982 C   0  0  0  0  0  0  0  0  0  0  0  0
   15.6094  -17.7225   20.0934 C   0  0  0  0  0  0  0  0  0  0  0  0
   14.7605  -17.2157   19.1214 C   0  0  0  0  0  0  0  0  0  0  0  0
   13.6187  -16.5509   19.5370 C   0  0  0  0  0  0  0  0  0  0  0  0
   15.3198  -17.5808   21.3959 N   0  0  0  0  0  0  0  0  0  0  0  0
   12.4848  -15.8863   18.3379 Cl  0  0  0  0  0  0  0  0  0  0  0  0
 13 12  1  0  0  0
 13 14  2  0  0  0
 13 15  1  0  0  0
 12  9  1  0  0  0
  9  1  1  0  0  0
  9  8  1  0  0  0
  1  3  1  0  0  0
  1  2  2  0  0  0
 14 16  1  0  0  0
 16 18  2  0  0  0
 18 17  1  0  0  0
 17 15  2  0  0  0
  4 19  1  0  0  0
  4  5  1  0  0  0
  4  3  1  0  0  0
 19 21  1  0  0  0
 19 20  2  0  0  0
 23 24  1  0  0  0
 23 21  1  0  0  0
 24 25  2  0  0  0
 24 29  1  0  0  0
  5  6  1  0  0  0
  6  7  1  0  0  0
  7  3  1  0  0  0
 25 30  1  0  0  0
 26 30  1  0  0  0
 27 28  1  0  0  0
 27 30  2  0  0  0
 28 29  2  0  0  0
 29 31  1  0  0  0
  8 10  1  0  0  0
  8 11  1  0  0  0
 21 22  1  0  0  0
M  CHG 1  30   1
M  END
> <minimizedAffinity>
-7.43398

$$$$
3QWC_98P_H_2001


 31 33  0  0  0  0  0  0  0  0999 V2000
   17.6668  -13.3823   22.7025 C   0  0  0  0  0  0  0  0  0  0  0  0
   16.6834  -12.8233   23.1837 O   0  0  0  0  0  0  0  0  0  0  0  0
   18.4008  -12.8303   21.7299 N   0  0  0  0  0  0  0  0  0  0  0  0
   18.0292  -11.5153   21.2055 C   0  0  0  0  0  0  0  0  0  0  0  0
   19.0071  -11.2516   20.0682 C   0  0  0  0  0  0  0  0  0  0  0  0
   20.1527  -12.2367   20.2649 C   0  0  0  0  0  0  0  0  0  0  0  0
   19.5792  -13.3956   21.0651 C   0  0  0  0  0  0  0  0  0  0  0  0
   16.9447  -15.6486   23.0492 N   0  0  0  0  0  0  0  0  0  0  0  0
   18.0777  -14.7452   23.1923 C   0  0  0  0  0  0  0  0  0  0  0  0
   17.2074  -16.5779   23.3773 H   0  0  0  0  0  0  0  0  0  0  0  0
   16.6720  -15.6991   22.0676 H   0  0  0  0  0  0  0  0  0  0  0  0
   18.5254  -14.7129   24.6600 C   0  0  0  0  0  0  0  0  0  0  0  0
   19.7951  -13.8980   24.7940 C   0  0  0  0  0  0  0  0  0  0  0  0
   20.9704  -14.3185   24.1781 C   0  0  0  0  0  0  0  0  0  0  0  0
   19.7939  -12.7335   25.5494 C   0  0  0  0  0  0  0  0  0  0  0  0
   22.1326  -13.5601   24.3092 C   0  0  0  0  0  0  0  0  0  0  0  0
   20.9516  -11.9780   25.6774 C   0  0  0  0  0  0  0  0  0  0  0  0
   22.1265  -12.3930   25.0570 C   0  0  0  0  0  0  0  0  0  0  0  0
   16.6279  -11.5667   20.6819 C   0  0  0  0  0  0  0  0  0  0  0  0
   15.7687  -10.8361   21.1685 O   0  0  0  0  0  0  0  0  0  0  0  0
   16.3780  -12.4087   19.6779 N   0  0  0  0  0  0  0  0  0  0  0  0
   17.1198  -12.9601   19.3389 H   0  0  0  0  0  0  0  0  0  0  0  0
   15.0678  -12.5590   19.0534 C   0  0  0  0  0  0  0  0  0  0  0  0
   15.0338  -13.9065   18.3582 C   0  0  0  0  0  0  0  0  0  0  0  0
   14.7310  -15.0657   19.0557 C   0  0  0  0  0  0  0  0  0  0  0  0
   14.3768  -17.4590   19.1943 C   0  0  0  0  0  0  0  0  0  0  0  0
   14.9645  -16.3527   17.1193 C   0  0  0  0  0  0  0  0  0  0  0  0
   15.2708  -15.2278   16.3689 C   0  0  0  0  0  0  0  0  0  0  0  0
   15.3089  -14.0041   17.0166 C   0  0  0  0  0  0  0  0  0  0  0  0
   14.7010  -16.2491   18.4308 N   0  0  0  0  0  0  0  0  0  0  0  0
   15.6863  -12.5226   16.1068 Cl  0  0  0  0  0  0  0  0  0  0  0  0
 13 12  1  0  0  0
 13 14  2  0  0  0
 13 15  1  0  0  0
 12  9  1  0  0  0
  9  1  1  0  0  0
  9  8  1  0  0  0
  1  3  1  0  0  0
  1  2  2  0  0  0
 14 16  1  0  0  0
 16 18  2  0  0  0
 18 17  1  0  0  0
 17 15  2  0  0  0
  4 19  1  0  0  0
  4  5  1  0  0  0
  4  3  1  0  0  0
 19 21  1  0  0  0
 19 20  2  0  0  0
 23 24  1  0  0  0
 23 21  1  0  0  0
 24 25  2  0  0  0
 24 29  1  0  0  0
  5  6  1  0  0  0
  6  7  1  0  0  0
  7  3  1  0  0  0
 25 30  1  0  0  0
 26 30  1  0  0  0
 27 28  1  0  0  0
 27 30  2  0  0  0
 28 29  2  0  0  0
 29 31  1  0  0  0
  8 10  1  0  0  0
  8 11  1  0  0  0
 21 22  1  0  0  0
M  CHG 1  30   1
M  END
> <minimizedAffinity>
-7.36115

$$$$
3QWC_98P_H_2001


 31 33  0  0  0  0  0  0  0  0999 V2000
   14.8575  -11.9255   20.8617 C   0  0  0  0  0  0  0  0  0  0  0  0
   15.1093  -13.0885   21.1701 O   0  0  0  0  0  0  0  0  0  0  0  0
   13.7402  -11.3048   21.2568 N   0  0  0  0  0  0  0  0  0  0  0  0
   12.7701  -12.0252   22.0827 C   0  0  0  0  0  0  0  0  0  0  0  0
   11.6038  -11.0612   22.2555 C   0  0  0  0  0  0  0  0  0  0  0  0
   12.1374   -9.6864   21.8727 C   0  0  0  0  0  0  0  0  0  0  0  0
   13.3178   -9.9353   20.9469 C   0  0  0  0  0  0  0  0  0  0  0  0
   16.4189  -12.0640   19.0396 N   0  0  0  0  0  0  0  0  0  0  0  0
   15.8127  -11.1484   19.9958 C   0  0  0  0  0  0  0  0  0  0  0  0
   17.0700  -11.5519   18.4444 H   0  0  0  0  0  0  0  0  0  0  0  0
   15.6904  -12.4850   18.4631 H   0  0  0  0  0  0  0  0  0  0  0  0
   16.9124  -10.4711   20.8251 C   0  0  0  0  0  0  0  0  0  0  0  0
   18.1170  -11.3837   20.9275 C   0  0  0  0  0  0  0  0  0  0  0  0
   19.1329  -11.3187   19.9780 C   0  0  0  0  0  0  0  0  0  0  0  0
   18.2029  -12.3034   21.9635 C   0  0  0  0  0  0  0  0  0  0  0  0
   20.2362  -12.1640   20.0828 C   0  0  0  0  0  0  0  0  0  0  0  0
   19.3034  -13.1433   22.0679 C   0  0  0  0  0  0  0  0  0  0  0  0
   20.3236  -13.0755   21.1233 C   0  0  0  0  0  0  0  0  0  0  0  0
   12.3208  -13.2574   21.3615 C   0  0  0  0  0  0  0  0  0  0  0  0
   11.7200  -13.1541   20.2951 O   0  0  0  0  0  0  0  0  0  0  0  0
   12.6167  -14.4348   21.9144 N   0  0  0  0  0  0  0  0  0  0  0  0
   13.1036  -14.4366   22.7701 H   0  0  0  0  0  0  0  0  0  0  0  0
   12.2598  -15.7202   21.3233 C   0  0  0  0  0  0  0  0  0  0  0  0
   13.4314  -16.1886   20.4818 C   0  0  0  0  0  0  0  0  0  0  0  0
   13.5009  -15.9024   19.1271 C   0  0  0  0  0  0  0  0  0  0  0  0
   14.5885  -16.0004   16.9638 C   0  0  0  0  0  0  0  0  0  0  0  0
   15.5426  -17.0240   18.9429 C   0  0  0  0  0  0  0  0  0  0  0  0
   15.5297  -17.3379   20.2932 C   0  0  0  0  0  0  0  0  0  0  0  0
   14.4496  -16.9137   21.0496 C   0  0  0  0  0  0  0  0  0  0  0  0
   14.5414  -16.3184   18.3950 N   0  0  0  0  0  0  0  0  0  0  0  0
   14.3794  -17.2768   22.7898 Cl  0  0  0  0  0  0  0  0  0  0  0  0
 13 12  1  0  0  0
 13 14  2  0  0  0
 13 15  1  0  0  0
 12  9  1  0  0  0
  9  1  1  0  0  0
  9  8  1  0  0  0
  1  3  1  0  0  0
  1  2  2  0  0  0
 14 16  1  0  0  0
 16 18  2  0  0  0
 18 17  1  0  0  0
 17 15  2  0  0  0
  4 19  1  0  0  0
  4  5  1  0  0  0
  4  3  1  0  0  0
 19 21  1  0  0  0
 19 20  2  0  0  0
 23 24  1  0  0  0
 23 21  1  0  0  0
 24 25  2  0  0  0
 24 29  1  0  0  0
  5  6  1  0  0  0
  6  7  1  0  0  0
  7  3  1  0  0  0
 25 30  1  0  0  0
 26 30  1  0  0  0
 27 28  1  0  0  0
 27 30  2  0  0  0
 28 29  2  0  0  0
 29 31  1  0  0  0
  8 10  1  0  0  0
  8 11  1  0  0  0
 21 22  1  0  0  0
M  CHG 1  30   1
M  END
> <minimizedAffinity>
-7.27516

$$$$
