5JQ5_I74_A_302


 33 36  0  0  0  0  0  0  0  0999 V2000
    0.8582   -8.6392  -27.9755 C   0  0  0  0  0  0  0  0  0  0  0  0
    2.1472   -8.5663  -28.5409 C   0  0  0  0  0  0  0  0  0  0  0  0
    2.5928   -7.3152  -29.0380 C   0  0  0  0  0  0  0  0  0  0  0  0
    1.7340   -6.2483  -29.0068 N   0  0  0  0  0  0  0  0  0  0  0  0
    2.0360   -4.9556  -29.4122 N   0  0  0  0  0  0  0  0  0  0  0  0
    0.9458   -4.1980  -29.0925 C   0  0  0  0  0  0  0  0  0  0  0  0
    0.0036   -5.0671  -28.5173 C   0  0  0  0  0  0  0  0  0  0  0  0
    0.5552   -6.3555  -28.4366 C   0  0  0  0  0  0  0  0  0  0  0  0
    0.0745   -7.5277  -27.9482 N   0  0  0  0  0  0  0  0  0  0  0  0
   -1.3416   -4.5696  -28.0407 C   0  0  0  0  0  0  0  0  0  0  0  0
   -2.4819   -5.6012  -28.0656 C   0  0  0  0  0  0  0  0  0  0  0  0
   -1.2634   -4.1058  -26.5606 C   0  0  0  0  0  0  0  0  0  0  0  0
    0.3608   -9.8312  -27.4821 N   0  0  0  0  0  0  0  0  0  0  0  0
    1.0003  -10.5520  -27.2805 H   0  0  0  0  0  0  0  0  0  0  0  0
   -1.0491  -10.0822  -27.2440 C   0  0  0  0  0  0  0  0  0  0  0  0
   -2.9279   -8.8124  -25.5614 O   0  0  0  0  0  0  0  0  0  0  0  0
   -1.6286   -8.9652  -25.0334 C   0  0  0  0  0  0  0  0  0  0  0  0
   -1.7462   -9.1467  -23.5199 C   0  0  0  0  0  0  0  0  0  0  0  0
   -0.4851   -9.7182  -23.0281 N   0  0  0  0  0  0  0  0  0  0  0  0
    0.0458  -10.9254  -23.6240 C   0  0  0  0  0  0  0  0  0  0  0  0
    0.1084  -10.9279  -25.1564 C   0  0  0  0  0  0  0  0  0  0  0  0
   -1.1429  -10.2214  -25.7333 C   0  0  0  0  0  0  0  0  0  0  0  0
   -2.8745   -8.6957  -26.5229 H   0  0  0  0  0  0  0  0  0  0  0  0
    0.2277   -8.9972  -23.1396 H   0  0  0  0  0  0  0  0  0  0  0  0
    3.7962   -7.1618  -29.5794 N   0  0  0  0  0  0  0  0  0  0  0  0
    3.9273   -6.5103  -30.3057 H   0  0  0  0  0  0  0  0  0  0  0  0
    4.9288   -7.9576  -29.1009 C   0  0  0  0  0  0  0  0  0  0  0  0
    5.3885   -8.8018  -30.2560 C   0  0  0  0  0  0  0  0  0  0  0  0
    6.1779   -9.9141  -30.0004 C   0  0  0  0  0  0  0  0  0  0  0  0
    6.5830  -10.6900  -31.0731 C   0  0  0  0  0  0  0  0  0  0  0  0
    6.2142  -10.3651  -32.3982 C   0  0  0  0  0  0  0  0  0  0  0  0
    5.4028   -9.2497  -32.6564 C   0  0  0  0  0  0  0  0  0  0  0  0
    5.0110   -8.4682  -31.5704 C   0  0  0  0  0  0  0  0  0  0  0  0
 32 31  2  0  0  0
 32 33  1  0  0  0
 31 30  1  0  0  0
 33 28  2  0  0  0
 30 29  2  0  0  0
 28 29  1  0  0  0
 28 27  1  0  0  0
 25 27  1  0  0  0
 25  3  1  0  0  0
  5  6  2  0  0  0
  5  4  1  0  0  0
  6  7  1  0  0  0
  3  4  1  0  0  0
  3  2  2  0  0  0
  4  8  1  0  0  0
  2  1  1  0  0  0
  7  8  2  0  0  0
  7 10  1  0  0  0
  8  9  1  0  0  0
 11 10  1  0  0  0
 10 12  1  0  0  0
  1  9  2  0  0  0
  1 13  1  0  0  0
 13 15  1  0  0  0
 15 22  1  0  0  0
 22 21  1  0  0  0
 22 17  1  0  0  0
 21 20  1  0  0  0
 16 17  1  0  0  0
 17 18  1  0  0  0
 20 19  1  0  0  0
 18 19  1  0  0  0
 16 23  1  0  0  0
 19 24  1  0  0  0
 13 14  1  0  0  0
 25 26  1  0  0  0
M  END
> <minimizedAffinity>
-9.91503

$$$$
5JQ5_I74_A_302


 33 36  0  0  0  0  0  0  0  0999 V2000
    1.5195   -9.2546  -26.5853 C   0  0  0  0  0  0  0  0  0  0  0  0
    0.9708   -7.9951  -26.8999 C   0  0  0  0  0  0  0  0  0  0  0  0
    1.4695   -7.3102  -28.0370 C   0  0  0  0  0  0  0  0  0  0  0  0
    2.5025   -7.8677  -28.7433 N   0  0  0  0  0  0  0  0  0  0  0  0
    3.0668   -7.3446  -29.8986 N   0  0  0  0  0  0  0  0  0  0  0  0
    3.9661   -8.2763  -30.3318 C   0  0  0  0  0  0  0  0  0  0  0  0
    3.9314   -9.3332  -29.4066 C   0  0  0  0  0  0  0  0  0  0  0  0
    2.9566   -9.0611  -28.4337 C   0  0  0  0  0  0  0  0  0  0  0  0
    2.5206   -9.7605  -27.3547 N   0  0  0  0  0  0  0  0  0  0  0  0
    4.8102  -10.5522  -29.5672 C   0  0  0  0  0  0  0  0  0  0  0  0
    4.8457  -11.1686  -30.9756 C   0  0  0  0  0  0  0  0  0  0  0  0
    6.2913  -10.2076  -29.2516 C   0  0  0  0  0  0  0  0  0  0  0  0
    1.0840   -9.9689  -25.4845 N   0  0  0  0  0  0  0  0  0  0  0  0
    1.3883   -9.6792  -24.5941 H   0  0  0  0  0  0  0  0  0  0  0  0
    0.2042  -11.1209  -25.5645 C   0  0  0  0  0  0  0  0  0  0  0  0
   -2.0828   -9.5529  -26.0975 O   0  0  0  0  0  0  0  0  0  0  0  0
   -1.5351   -9.4279  -24.8034 C   0  0  0  0  0  0  0  0  0  0  0  0
   -2.6762   -9.1426  -23.8269 C   0  0  0  0  0  0  0  0  0  0  0  0
   -2.1979   -9.4287  -22.4675 N   0  0  0  0  0  0  0  0  0  0  0  0
   -1.6047  -10.7129  -22.1621 C   0  0  0  0  0  0  0  0  0  0  0  0
   -0.5193  -11.1830  -23.1383 C   0  0  0  0  0  0  0  0  0  0  0  0
   -0.9114  -10.7944  -24.5851 C   0  0  0  0  0  0  0  0  0  0  0  0
   -1.3728   -9.7346  -26.7329 H   0  0  0  0  0  0  0  0  0  0  0  0
   -1.4968   -8.7212  -22.2475 H   0  0  0  0  0  0  0  0  0  0  0  0
    1.0009   -6.1226  -28.4042 N   0  0  0  0  0  0  0  0  0  0  0  0
    1.5649   -5.3216  -28.3062 H   0  0  0  0  0  0  0  0  0  0  0  0
   -0.3509   -5.9993  -28.9542 C   0  0  0  0  0  0  0  0  0  0  0  0
   -1.2147   -5.4272  -27.8658 C   0  0  0  0  0  0  0  0  0  0  0  0
   -0.8860   -4.1898  -27.3305 C   0  0  0  0  0  0  0  0  0  0  0  0
   -1.6985   -3.6692  -26.3376 C   0  0  0  0  0  0  0  0  0  0  0  0
   -2.8316   -4.3720  -25.8690 C   0  0  0  0  0  0  0  0  0  0  0  0
   -3.1739   -5.6160  -26.4206 C   0  0  0  0  0  0  0  0  0  0  0  0
   -2.3421   -6.1367  -27.4108 C   0  0  0  0  0  0  0  0  0  0  0  0
 32 31  2  0  0  0
 32 33  1  0  0  0
 31 30  1  0  0  0
 33 28  2  0  0  0
 30 29  2  0  0  0
 28 29  1  0  0  0
 28 27  1  0  0  0
 25 27  1  0  0  0
 25  3  1  0  0  0
  5  6  2  0  0  0
  5  4  1  0  0  0
  6  7  1  0  0  0
  3  4  1  0  0  0
  3  2  2  0  0  0
  4  8  1  0  0  0
  2  1  1  0  0  0
  7  8  2  0  0  0
  7 10  1  0  0  0
  8  9  1  0  0  0
 11 10  1  0  0  0
 10 12  1  0  0  0
  1  9  2  0  0  0
  1 13  1  0  0  0
 13 15  1  0  0  0
 15 22  1  0  0  0
 22 21  1  0  0  0
 22 17  1  0  0  0
 21 20  1  0  0  0
 16 17  1  0  0  0
 17 18  1  0  0  0
 20 19  1  0  0  0
 18 19  1  0  0  0
 16 23  1  0  0  0
 19 24  1  0  0  0
 13 14  1  0  0  0
 25 26  1  0  0  0
M  END
> <minimizedAffinity>
-9.80284

$$$$
5JQ5_I74_A_302


 33 36  0  0  0  0  0  0  0  0999 V2000
   -0.2759   -9.6620  -26.0606 C   0  0  0  0  0  0  0  0  0  0  0  0
    0.6478   -9.8370  -27.1107 C   0  0  0  0  0  0  0  0  0  0  0  0
    0.8644   -8.7555  -28.0020 C   0  0  0  0  0  0  0  0  0  0  0  0
    0.1249   -7.6128  -27.8459 N   0  0  0  0  0  0  0  0  0  0  0  0
    0.2519   -6.4579  -28.6053 N   0  0  0  0  0  0  0  0  0  0  0  0
   -0.5795   -5.5389  -28.0321 C   0  0  0  0  0  0  0  0  0  0  0  0
   -1.2030   -6.1781  -26.9474 C   0  0  0  0  0  0  0  0  0  0  0  0
   -0.6979   -7.4826  -26.8300 C   0  0  0  0  0  0  0  0  0  0  0  0
   -0.9482   -8.4849  -25.9487 N   0  0  0  0  0  0  0  0  0  0  0  0
   -2.2033   -5.4561  -26.0742 C   0  0  0  0  0  0  0  0  0  0  0  0
   -2.1501   -3.9202  -26.1280 C   0  0  0  0  0  0  0  0  0  0  0  0
   -3.6559   -5.8139  -26.4910 C   0  0  0  0  0  0  0  0  0  0  0  0
   -0.5396  -10.6808  -25.1638 N   0  0  0  0  0  0  0  0  0  0  0  0
   -1.0157  -11.4768  -25.4937 H   0  0  0  0  0  0  0  0  0  0  0  0
   -0.1554  -10.6455  -23.7643 C   0  0  0  0  0  0  0  0  0  0  0  0
   -2.3538   -8.9718  -23.1819 O   0  0  0  0  0  0  0  0  0  0  0  0
   -2.0297   -9.9314  -22.1998 C   0  0  0  0  0  0  0  0  0  0  0  0
   -3.3218  -10.3558  -21.5016 C   0  0  0  0  0  0  0  0  0  0  0  0
   -3.0688  -11.6220  -20.8005 N   0  0  0  0  0  0  0  0  0  0  0  0
   -2.5087  -12.7484  -21.5161 C   0  0  0  0  0  0  0  0  0  0  0  0
   -1.2680  -12.4370  -22.3621 C   0  0  0  0  0  0  0  0  0  0  0  0
   -1.4236  -11.0485  -23.0296 C   0  0  0  0  0  0  0  0  0  0  0  0
   -1.5452   -8.6893  -23.6372 H   0  0  0  0  0  0  0  0  0  0  0  0
   -2.4278  -11.4115  -20.0355 H   0  0  0  0  0  0  0  0  0  0  0  0
    1.7228   -8.8381  -29.0125 N   0  0  0  0  0  0  0  0  0  0  0  0
    1.3992   -9.0720  -29.9124 H   0  0  0  0  0  0  0  0  0  0  0  0
    3.1483   -8.5826  -28.7941 C   0  0  0  0  0  0  0  0  0  0  0  0
    3.8802   -9.1517  -29.9767 C   0  0  0  0  0  0  0  0  0  0  0  0
    4.3057   -8.2910  -30.9786 C   0  0  0  0  0  0  0  0  0  0  0  0
    4.9904   -8.8277  -32.0557 C   0  0  0  0  0  0  0  0  0  0  0  0
    5.2499  -10.2140  -32.1471 C   0  0  0  0  0  0  0  0  0  0  0  0
    4.8340  -11.0831  -31.1269 C   0  0  0  0  0  0  0  0  0  0  0  0
    4.1345  -10.5340  -30.0531 C   0  0  0  0  0  0  0  0  0  0  0  0
 32 31  2  0  0  0
 32 33  1  0  0  0
 31 30  1  0  0  0
 33 28  2  0  0  0
 30 29  2  0  0  0
 28 29  1  0  0  0
 28 27  1  0  0  0
 25 27  1  0  0  0
 25  3  1  0  0  0
  5  6  2  0  0  0
  5  4  1  0  0  0
  6  7  1  0  0  0
  3  4  1  0  0  0
  3  2  2  0  0  0
  4  8  1  0  0  0
  2  1  1  0  0  0
  7  8  2  0  0  0
  7 10  1  0  0  0
  8  9  1  0  0  0
 11 10  1  0  0  0
 10 12  1  0  0  0
  1  9  2  0  0  0
  1 13  1  0  0  0
 13 15  1  0  0  0
 15 22  1  0  0  0
 22 21  1  0  0  0
 22 17  1  0  0  0
 21 20  1  0  0  0
 16 17  1  0  0  0
 17 18  1  0  0  0
 20 19  1  0  0  0
 18 19  1  0  0  0
 16 23  1  0  0  0
 19 24  1  0  0  0
 13 14  1  0  0  0
 25 26  1  0  0  0
M  END
> <minimizedAffinity>
-9.67974

$$$$
5JQ5_I74_A_302


 33 36  0  0  0  0  0  0  0  0999 V2000
    2.4630   -9.7726  -28.6252 C   0  0  0  0  0  0  0  0  0  0  0  0
    2.1602   -8.4082  -28.8075 C   0  0  0  0  0  0  0  0  0  0  0  0
    1.3551   -7.7630  -27.8346 C   0  0  0  0  0  0  0  0  0  0  0  0
    0.8540   -8.5027  -26.7961 N   0  0  0  0  0  0  0  0  0  0  0  0
    0.0918   -8.0093  -25.7462 N   0  0  0  0  0  0  0  0  0  0  0  0
   -0.0806   -9.0543  -24.8844 C   0  0  0  0  0  0  0  0  0  0  0  0
    0.5713  -10.1608  -25.4544 C   0  0  0  0  0  0  0  0  0  0  0  0
    1.1938   -9.7632  -26.6481 C   0  0  0  0  0  0  0  0  0  0  0  0
    1.9572  -10.4334  -27.5492 N   0  0  0  0  0  0  0  0  0  0  0  0
    0.5849  -11.5080  -24.7696 C   0  0  0  0  0  0  0  0  0  0  0  0
    1.9694  -12.0295  -24.3499 C   0  0  0  0  0  0  0  0  0  0  0  0
   -0.2342  -11.4628  -23.4509 C   0  0  0  0  0  0  0  0  0  0  0  0
    3.2346  -10.4619  -29.5423 N   0  0  0  0  0  0  0  0  0  0  0  0
    2.8293  -11.2314  -30.0036 H   0  0  0  0  0  0  0  0  0  0  0  0
    4.6075  -10.1175  -29.8650 C   0  0  0  0  0  0  0  0  0  0  0  0
    4.4335  -12.6228  -31.1559 O   0  0  0  0  0  0  0  0  0  0  0  0
    5.3384  -11.6984  -31.7190 C   0  0  0  0  0  0  0  0  0  0  0  0
    5.3877  -11.9367  -33.2283 C   0  0  0  0  0  0  0  0  0  0  0  0
    5.9724  -10.7463  -33.8608 N   0  0  0  0  0  0  0  0  0  0  0  0
    5.4195   -9.4362  -33.5920 C   0  0  0  0  0  0  0  0  0  0  0  0
    5.2019   -9.1074  -32.1099 C   0  0  0  0  0  0  0  0  0  0  0  0
    4.7023  -10.3675  -31.3613 C   0  0  0  0  0  0  0  0  0  0  0  0
    4.3881  -12.4874  -30.1965 H   0  0  0  0  0  0  0  0  0  0  0  0
    6.9524  -10.7153  -33.5796 H   0  0  0  0  0  0  0  0  0  0  0  0
    1.0304   -6.4784  -27.9301 N   0  0  0  0  0  0  0  0  0  0  0  0
    1.5673   -5.8010  -27.4589 H   0  0  0  0  0  0  0  0  0  0  0  0
   -0.1226   -6.0652  -28.7332 C   0  0  0  0  0  0  0  0  0  0  0  0
   -1.1451   -5.5156  -27.7789 C   0  0  0  0  0  0  0  0  0  0  0  0
   -2.3177   -6.2277  -27.5705 C   0  0  0  0  0  0  0  0  0  0  0  0
   -3.2448   -5.7159  -26.6785 C   0  0  0  0  0  0  0  0  0  0  0  0
   -3.0175   -4.4989  -25.9970 C   0  0  0  0  0  0  0  0  0  0  0  0
   -1.8250   -3.7861  -26.1949 C   0  0  0  0  0  0  0  0  0  0  0  0
   -0.9040   -4.3038  -27.1045 C   0  0  0  0  0  0  0  0  0  0  0  0
 32 31  2  0  0  0
 32 33  1  0  0  0
 31 30  1  0  0  0
 33 28  2  0  0  0
 30 29  2  0  0  0
 28 29  1  0  0  0
 28 27  1  0  0  0
 25 27  1  0  0  0
 25  3  1  0  0  0
  5  6  2  0  0  0
  5  4  1  0  0  0
  6  7  1  0  0  0
  3  4  1  0  0  0
  3  2  2  0  0  0
  4  8  1  0  0  0
  2  1  1  0  0  0
  7  8  2  0  0  0
  7 10  1  0  0  0
  8  9  1  0  0  0
 11 10  1  0  0  0
 10 12  1  0  0  0
  1  9  2  0  0  0
  1 13  1  0  0  0
 13 15  1  0  0  0
 15 22  1  0  0  0
 22 21  1  0  0  0
 22 17  1  0  0  0
 21 20  1  0  0  0
 16 17  1  0  0  0
 17 18  1  0  0  0
 20 19  1  0  0  0
 18 19  1  0  0  0
 16 23  1  0  0  0
 19 24  1  0  0  0
 13 14  1  0  0  0
 25 26  1  0  0  0
M  END
> <minimizedAffinity>
-9.51094

$$$$
5JQ5_I74_A_302


 33 36  0  0  0  0  0  0  0  0999 V2000
    1.1132   -8.3467  -27.3180 C   0  0  0  0  0  0  0  0  0  0  0  0
    2.3346   -8.3980  -28.0195 C   0  0  0  0  0  0  0  0  0  0  0  0
    2.6945   -7.2869  -28.8238 C   0  0  0  0  0  0  0  0  0  0  0  0
    1.8165   -6.2413  -28.9365 N   0  0  0  0  0  0  0  0  0  0  0  0
    2.0419   -5.0696  -29.6457 N   0  0  0  0  0  0  0  0  0  0  0  0
    0.9717   -4.2622  -29.3860 C   0  0  0  0  0  0  0  0  0  0  0  0
    0.1164   -4.9846  -28.5371 C   0  0  0  0  0  0  0  0  0  0  0  0
    0.7061   -6.2221  -28.2346 C   0  0  0  0  0  0  0  0  0  0  0  0
    0.3085   -7.2583  -27.4523 N   0  0  0  0  0  0  0  0  0  0  0  0
   -1.1846   -4.3968  -28.0410 C   0  0  0  0  0  0  0  0  0  0  0  0
   -2.4083   -5.3250  -28.1169 C   0  0  0  0  0  0  0  0  0  0  0  0
   -1.0767   -4.0106  -26.5406 C   0  0  0  0  0  0  0  0  0  0  0  0
    0.7001   -9.4011  -26.5248 N   0  0  0  0  0  0  0  0  0  0  0  0
    0.8734   -9.3486  -25.5571 H   0  0  0  0  0  0  0  0  0  0  0  0
    0.0257  -10.5811  -27.0352 C   0  0  0  0  0  0  0  0  0  0  0  0
   -0.7583  -11.6149  -24.5273 O   0  0  0  0  0  0  0  0  0  0  0  0
    0.6298  -11.5866  -24.7781 C   0  0  0  0  0  0  0  0  0  0  0  0
    1.2703  -12.7713  -24.0547 C   0  0  0  0  0  0  0  0  0  0  0  0
    2.6003  -12.9983  -24.6366 N   0  0  0  0  0  0  0  0  0  0  0  0
    2.7483  -13.1626  -26.0667 C   0  0  0  0  0  0  0  0  0  0  0  0
    2.0475  -12.1022  -26.9250 C   0  0  0  0  0  0  0  0  0  0  0  0
    0.6864  -11.7282  -26.2883 C   0  0  0  0  0  0  0  0  0  0  0  0
   -1.1837  -10.8693  -24.9789 H   0  0  0  0  0  0  0  0  0  0  0  0
    3.1775  -12.2003  -24.3710 H   0  0  0  0  0  0  0  0  0  0  0  0
    3.8312   -7.2546  -29.5106 N   0  0  0  0  0  0  0  0  0  0  0  0
    3.9258   -6.6387  -30.2728 H   0  0  0  0  0  0  0  0  0  0  0  0
    4.9442   -8.1311  -29.1392 C   0  0  0  0  0  0  0  0  0  0  0  0
    5.2781   -8.9514  -30.3532 C   0  0  0  0  0  0  0  0  0  0  0  0
    4.8834   -8.4915  -31.6016 C   0  0  0  0  0  0  0  0  0  0  0  0
    5.2095   -9.2511  -32.7123 C   0  0  0  0  0  0  0  0  0  0  0  0
    5.9195  -10.4670  -32.5907 C   0  0  0  0  0  0  0  0  0  0  0  0
    6.3329  -10.9250  -31.3303 C   0  0  0  0  0  0  0  0  0  0  0  0
    5.9885  -10.1589  -30.2176 C   0  0  0  0  0  0  0  0  0  0  0  0
 32 31  2  0  0  0
 32 33  1  0  0  0
 31 30  1  0  0  0
 33 28  2  0  0  0
 30 29  2  0  0  0
 28 29  1  0  0  0
 28 27  1  0  0  0
 25 27  1  0  0  0
 25  3  1  0  0  0
  5  6  2  0  0  0
  5  4  1  0  0  0
  6  7  1  0  0  0
  3  4  1  0  0  0
  3  2  2  0  0  0
  4  8  1  0  0  0
  2  1  1  0  0  0
  7  8  2  0  0  0
  7 10  1  0  0  0
  8  9  1  0  0  0
 11 10  1  0  0  0
 10 12  1  0  0  0
  1  9  2  0  0  0
  1 13  1  0  0  0
 13 15  1  0  0  0
 15 22  1  0  0  0
 22 21  1  0  0  0
 22 17  1  0  0  0
 21 20  1  0  0  0
 16 17  1  0  0  0
 17 18  1  0  0  0
 20 19  1  0  0  0
 18 19  1  0  0  0
 16 23  1  0  0  0
 19 24  1  0  0  0
 13 14  1  0  0  0
 25 26  1  0  0  0
M  END
> <minimizedAffinity>
-9.42339

$$$$
5JQ5_I74_A_302


 33 36  0  0  0  0  0  0  0  0999 V2000
    2.9447   -9.4036  -27.5782 C   0  0  0  0  0  0  0  0  0  0  0  0
    2.0038   -8.5726  -28.2189 C   0  0  0  0  0  0  0  0  0  0  0  0
    0.6440   -8.6721  -27.8289 C   0  0  0  0  0  0  0  0  0  0  0  0
    0.2918   -9.6111  -26.8955 N   0  0  0  0  0  0  0  0  0  0  0  0
   -0.9832   -9.7999  -26.3803 N   0  0  0  0  0  0  0  0  0  0  0  0
   -0.8557  -10.7411  -25.3993 C   0  0  0  0  0  0  0  0  0  0  0  0
    0.4998  -11.1092  -25.3653 C   0  0  0  0  0  0  0  0  0  0  0  0
    1.2095  -10.3381  -26.2993 C   0  0  0  0  0  0  0  0  0  0  0  0
    2.5244  -10.2886  -26.6346 N   0  0  0  0  0  0  0  0  0  0  0  0
    1.0126  -12.1446  -24.3910 C   0  0  0  0  0  0  0  0  0  0  0  0
    0.0409  -12.5429  -23.2676 C   0  0  0  0  0  0  0  0  0  0  0  0
    1.3346  -13.4761  -25.1226 C   0  0  0  0  0  0  0  0  0  0  0  0
    4.2839   -9.3621  -27.9195 N   0  0  0  0  0  0  0  0  0  0  0  0
    4.8504  -10.1266  -27.6667 H   0  0  0  0  0  0  0  0  0  0  0  0
    4.9037   -8.2574  -28.6286 C   0  0  0  0  0  0  0  0  0  0  0  0
    4.2000   -7.7169  -31.3093 O   0  0  0  0  0  0  0  0  0  0  0  0
    4.5183   -9.0587  -31.0119 C   0  0  0  0  0  0  0  0  0  0  0  0
    5.1566   -9.6846  -32.2520 C   0  0  0  0  0  0  0  0  0  0  0  0
    5.8617  -10.9052  -31.8374 N   0  0  0  0  0  0  0  0  0  0  0  0
    6.8304  -10.8544  -30.7635 C   0  0  0  0  0  0  0  0  0  0  0  0
    6.3609  -10.1413  -29.4895 C   0  0  0  0  0  0  0  0  0  0  0  0
    5.5012   -8.9093  -29.8649 C   0  0  0  0  0  0  0  0  0  0  0  0
    3.7930   -7.3014  -30.5330 H   0  0  0  0  0  0  0  0  0  0  0  0
    5.1470  -11.5768  -31.5571 H   0  0  0  0  0  0  0  0  0  0  0  0
   -0.3024   -7.9198  -28.3793 N   0  0  0  0  0  0  0  0  0  0  0  0
   -1.1511   -8.3301  -28.6632 H   0  0  0  0  0  0  0  0  0  0  0  0
   -0.0891   -6.4829  -28.5658 C   0  0  0  0  0  0  0  0  0  0  0  0
   -1.0702   -5.7763  -27.6733 C   0  0  0  0  0  0  0  0  0  0  0  0
   -2.2150   -6.4495  -27.2710 C   0  0  0  0  0  0  0  0  0  0  0  0
   -3.1033   -5.7906  -26.4380 C   0  0  0  0  0  0  0  0  0  0  0  0
   -2.8650   -4.4658  -26.0072 C   0  0  0  0  0  0  0  0  0  0  0  0
   -1.7000   -3.7898  -26.4006 C   0  0  0  0  0  0  0  0  0  0  0  0
   -0.8185   -4.4579  -27.2493 C   0  0  0  0  0  0  0  0  0  0  0  0
 32 31  2  0  0  0
 32 33  1  0  0  0
 31 30  1  0  0  0
 33 28  2  0  0  0
 30 29  2  0  0  0
 28 29  1  0  0  0
 28 27  1  0  0  0
 25 27  1  0  0  0
 25  3  1  0  0  0
  5  6  2  0  0  0
  5  4  1  0  0  0
  6  7  1  0  0  0
  3  4  1  0  0  0
  3  2  2  0  0  0
  4  8  1  0  0  0
  2  1  1  0  0  0
  7  8  2  0  0  0
  7 10  1  0  0  0
  8  9  1  0  0  0
 11 10  1  0  0  0
 10 12  1  0  0  0
  1  9  2  0  0  0
  1 13  1  0  0  0
 13 15  1  0  0  0
 15 22  1  0  0  0
 22 21  1  0  0  0
 22 17  1  0  0  0
 21 20  1  0  0  0
 16 17  1  0  0  0
 17 18  1  0  0  0
 20 19  1  0  0  0
 18 19  1  0  0  0
 16 23  1  0  0  0
 19 24  1  0  0  0
 13 14  1  0  0  0
 25 26  1  0  0  0
M  END
> <minimizedAffinity>
-9.39541

$$$$
5JQ5_I74_A_302


 33 36  0  0  0  0  0  0  0  0999 V2000
    1.7645   -8.0756  -27.9582 C   0  0  0  0  0  0  0  0  0  0  0  0
    1.9234   -9.0238  -26.9276 C   0  0  0  0  0  0  0  0  0  0  0  0
    1.0541   -8.9528  -25.8095 C   0  0  0  0  0  0  0  0  0  0  0  0
    0.1416   -7.9329  -25.7462 N   0  0  0  0  0  0  0  0  0  0  0  0
   -0.8029   -7.7545  -24.7448 N   0  0  0  0  0  0  0  0  0  0  0  0
   -1.5759   -6.7012  -25.1418 C   0  0  0  0  0  0  0  0  0  0  0  0
   -1.0581   -6.2598  -26.3711 C   0  0  0  0  0  0  0  0  0  0  0  0
    0.0058   -7.0942  -26.7484 C   0  0  0  0  0  0  0  0  0  0  0  0
    0.8119   -7.1117  -27.8409 N   0  0  0  0  0  0  0  0  0  0  0  0
   -1.6699   -5.0934  -27.1122 C   0  0  0  0  0  0  0  0  0  0  0  0
   -0.6743   -4.1341  -27.7855 C   0  0  0  0  0  0  0  0  0  0  0  0
   -2.5782   -5.5924  -28.2689 C   0  0  0  0  0  0  0  0  0  0  0  0
    2.5861   -8.0845  -29.0702 N   0  0  0  0  0  0  0  0  0  0  0  0
    2.1825   -8.2963  -29.9428 H   0  0  0  0  0  0  0  0  0  0  0  0
    4.0090   -7.7998  -29.0265 C   0  0  0  0  0  0  0  0  0  0  0  0
    5.6950   -9.9522  -28.3212 O   0  0  0  0  0  0  0  0  0  0  0  0
    5.9799   -9.3203  -29.5499 C   0  0  0  0  0  0  0  0  0  0  0  0
    6.5453  -10.3696  -30.5072 C   0  0  0  0  0  0  0  0  0  0  0  0
    6.4457   -9.8424  -31.8751 N   0  0  0  0  0  0  0  0  0  0  0  0
    5.1770   -9.3590  -32.3759 C   0  0  0  0  0  0  0  0  0  0  0  0
    4.4364   -8.3828  -31.4535 C   0  0  0  0  0  0  0  0  0  0  0  0
    4.6126   -8.8195  -29.9784 C   0  0  0  0  0  0  0  0  0  0  0  0
    5.3344   -9.3014  -27.6988 H   0  0  0  0  0  0  0  0  0  0  0  0
    7.1027   -9.0648  -31.9390 H   0  0  0  0  0  0  0  0  0  0  0  0
    1.1346   -9.8129  -24.8003 N   0  0  0  0  0  0  0  0  0  0  0  0
    1.2616   -9.4807  -23.8823 H   0  0  0  0  0  0  0  0  0  0  0  0
    1.0355  -11.2532  -25.0470 C   0  0  0  0  0  0  0  0  0  0  0  0
    0.3240  -11.8506  -23.8659 C   0  0  0  0  0  0  0  0  0  0  0  0
   -0.5040  -11.0399  -23.1023 C   0  0  0  0  0  0  0  0  0  0  0  0
   -1.1633  -11.6072  -22.0251 C   0  0  0  0  0  0  0  0  0  0  0  0
   -1.0011  -12.9724  -21.6978 C   0  0  0  0  0  0  0  0  0  0  0  0
   -0.1766  -13.7968  -22.4786 C   0  0  0  0  0  0  0  0  0  0  0  0
    0.4923  -13.2127  -23.5533 C   0  0  0  0  0  0  0  0  0  0  0  0
 32 31  2  0  0  0
 32 33  1  0  0  0
 31 30  1  0  0  0
 33 28  2  0  0  0
 30 29  2  0  0  0
 28 29  1  0  0  0
 28 27  1  0  0  0
 25 27  1  0  0  0
 25  3  1  0  0  0
  5  6  2  0  0  0
  5  4  1  0  0  0
  6  7  1  0  0  0
  3  4  1  0  0  0
  3  2  2  0  0  0
  4  8  1  0  0  0
  2  1  1  0  0  0
  7  8  2  0  0  0
  7 10  1  0  0  0
  8  9  1  0  0  0
 11 10  1  0  0  0
 10 12  1  0  0  0
  1  9  2  0  0  0
  1 13  1  0  0  0
 13 15  1  0  0  0
 15 22  1  0  0  0
 22 21  1  0  0  0
 22 17  1  0  0  0
 21 20  1  0  0  0
 16 17  1  0  0  0
 17 18  1  0  0  0
 20 19  1  0  0  0
 18 19  1  0  0  0
 16 23  1  0  0  0
 19 24  1  0  0  0
 13 14  1  0  0  0
 25 26  1  0  0  0
M  END
> <minimizedAffinity>
-9.26323

$$$$
5JQ5_I74_A_302


 33 36  0  0  0  0  0  0  0  0999 V2000
    1.8729  -10.5398  -25.6334 C   0  0  0  0  0  0  0  0  0  0  0  0
    0.9801   -9.4516  -25.5589 C   0  0  0  0  0  0  0  0  0  0  0  0
   -0.1358   -9.5566  -24.6902 C   0  0  0  0  0  0  0  0  0  0  0  0
   -0.3354  -10.7290  -24.0102 N   0  0  0  0  0  0  0  0  0  0  0  0
   -1.3501  -10.9692  -23.0941 N   0  0  0  0  0  0  0  0  0  0  0  0
   -1.0984  -12.2053  -22.5712 C   0  0  0  0  0  0  0  0  0  0  0  0
    0.0588  -12.6857  -23.2070 C   0  0  0  0  0  0  0  0  0  0  0  0
    0.5440  -11.7024  -24.0835 C   0  0  0  0  0  0  0  0  0  0  0  0
    1.6275  -11.6593  -24.9008 N   0  0  0  0  0  0  0  0  0  0  0  0
    0.6359  -14.0427  -22.8759 C   0  0  0  0  0  0  0  0  0  0  0  0
    0.0222  -14.7494  -21.6558 C   0  0  0  0  0  0  0  0  0  0  0  0
    0.4218  -15.0332  -24.0527 C   0  0  0  0  0  0  0  0  0  0  0  0
    2.9744  -10.5043  -26.4683 N   0  0  0  0  0  0  0  0  0  0  0  0
    3.8260  -10.1770  -26.0982 H   0  0  0  0  0  0  0  0  0  0  0  0
    2.9489  -10.9213  -27.8586 C   0  0  0  0  0  0  0  0  0  0  0  0
    5.5741   -9.9846  -28.3106 O   0  0  0  0  0  0  0  0  0  0  0  0
    4.5928   -8.9944  -28.0941 C   0  0  0  0  0  0  0  0  0  0  0  0
    4.9778   -7.7552  -28.9024 C   0  0  0  0  0  0  0  0  0  0  0  0
    3.7882   -6.9018  -29.0265 N   0  0  0  0  0  0  0  0  0  0  0  0
    2.5506   -7.4516  -29.5370 C   0  0  0  0  0  0  0  0  0  0  0  0
    2.1037   -8.7700  -28.8934 C   0  0  0  0  0  0  0  0  0  0  0  0
    3.3375   -9.6653  -28.6214 C   0  0  0  0  0  0  0  0  0  0  0  0
    5.3472  -10.7807  -27.8050 H   0  0  0  0  0  0  0  0  0  0  0  0
    3.5869   -6.5405  -28.0941 H   0  0  0  0  0  0  0  0  0  0  0  0
   -1.0192   -8.5732  -24.5582 N   0  0  0  0  0  0  0  0  0  0  0  0
   -1.9567   -8.7824  -24.3425 H   0  0  0  0  0  0  0  0  0  0  0  0
   -0.6048   -7.1792  -24.7320 C   0  0  0  0  0  0  0  0  0  0  0  0
   -1.3313   -6.6549  -25.9385 C   0  0  0  0  0  0  0  0  0  0  0  0
   -0.5924   -6.2389  -27.0370 C   0  0  0  0  0  0  0  0  0  0  0  0
   -1.2757   -5.7706  -28.1464 C   0  0  0  0  0  0  0  0  0  0  0  0
   -2.6873   -5.7071  -28.1696 C   0  0  0  0  0  0  0  0  0  0  0  0
   -3.4360   -6.1424  -27.0654 C   0  0  0  0  0  0  0  0  0  0  0  0
   -2.7378   -6.6003  -25.9490 C   0  0  0  0  0  0  0  0  0  0  0  0
 32 31  2  0  0  0
 32 33  1  0  0  0
 31 30  1  0  0  0
 33 28  2  0  0  0
 30 29  2  0  0  0
 28 29  1  0  0  0
 28 27  1  0  0  0
 25 27  1  0  0  0
 25  3  1  0  0  0
  5  6  2  0  0  0
  5  4  1  0  0  0
  6  7  1  0  0  0
  3  4  1  0  0  0
  3  2  2  0  0  0
  4  8  1  0  0  0
  2  1  1  0  0  0
  7  8  2  0  0  0
  7 10  1  0  0  0
  8  9  1  0  0  0
 11 10  1  0  0  0
 10 12  1  0  0  0
  1  9  2  0  0  0
  1 13  1  0  0  0
 13 15  1  0  0  0
 15 22  1  0  0  0
 22 21  1  0  0  0
 22 17  1  0  0  0
 21 20  1  0  0  0
 16 17  1  0  0  0
 17 18  1  0  0  0
 20 19  1  0  0  0
 18 19  1  0  0  0
 16 23  1  0  0  0
 19 24  1  0  0  0
 13 14  1  0  0  0
 25 26  1  0  0  0
M  END
> <minimizedAffinity>
-9.03998

$$$$
5JQ5_I74_A_302


 33 36  0  0  0  0  0  0  0  0999 V2000
    1.4137   -9.6310  -25.8201 C   0  0  0  0  0  0  0  0  0  0  0  0
    0.6802  -10.5210  -25.0099 C   0  0  0  0  0  0  0  0  0  0  0  0
   -0.6329  -10.1507  -24.6234 C   0  0  0  0  0  0  0  0  0  0  0  0
   -1.1099   -8.9222  -24.9977 N   0  0  0  0  0  0  0  0  0  0  0  0
   -2.3835   -8.4359  -24.7367 N   0  0  0  0  0  0  0  0  0  0  0  0
   -2.4704   -7.2413  -25.3925 C   0  0  0  0  0  0  0  0  0  0  0  0
   -1.2299   -7.0318  -26.0181 C   0  0  0  0  0  0  0  0  0  0  0  0
   -0.4033   -8.1420  -25.7839 C   0  0  0  0  0  0  0  0  0  0  0  0
    0.8599   -8.4423  -26.1814 N   0  0  0  0  0  0  0  0  0  0  0  0
   -0.9597   -5.7929  -26.8405 C   0  0  0  0  0  0  0  0  0  0  0  0
   -0.7326   -6.0259  -28.3435 C   0  0  0  0  0  0  0  0  0  0  0  0
   -2.1636   -4.8142  -26.7720 C   0  0  0  0  0  0  0  0  0  0  0  0
    2.7024   -9.9284  -26.2230 N   0  0  0  0  0  0  0  0  0  0  0  0
    3.4488   -9.5638  -25.6947 H   0  0  0  0  0  0  0  0  0  0  0  0
    3.0195  -10.7467  -27.3795 C   0  0  0  0  0  0  0  0  0  0  0  0
    2.0116   -8.6038  -28.9175 O   0  0  0  0  0  0  0  0  0  0  0  0
    3.0741   -9.3320  -29.4929 C   0  0  0  0  0  0  0  0  0  0  0  0
    3.9018   -8.3735  -30.3493 C   0  0  0  0  0  0  0  0  0  0  0  0
    5.2096   -8.9951  -30.5983 N   0  0  0  0  0  0  0  0  0  0  0  0
    6.0088   -9.4728  -29.4903 C   0  0  0  0  0  0  0  0  0  0  0  0
    5.2671  -10.3552  -28.4788 C   0  0  0  0  0  0  0  0  0  0  0  0
    3.8297   -9.8185  -28.2697 C   0  0  0  0  0  0  0  0  0  0  0  0
    1.4735   -9.1959  -28.3690 H   0  0  0  0  0  0  0  0  0  0  0  0
    5.0433   -9.7960  -31.2076 H   0  0  0  0  0  0  0  0  0  0  0  0
   -1.3912  -10.9364  -23.8667 N   0  0  0  0  0  0  0  0  0  0  0  0
   -2.0881  -11.4933  -24.2830 H   0  0  0  0  0  0  0  0  0  0  0  0
   -1.1952  -10.9778  -22.4158 C   0  0  0  0  0  0  0  0  0  0  0  0
   -1.4657  -12.3899  -21.9788 C   0  0  0  0  0  0  0  0  0  0  0  0
   -0.5136  -13.3655  -22.2385 C   0  0  0  0  0  0  0  0  0  0  0  0
   -0.7706  -14.6595  -21.8183 C   0  0  0  0  0  0  0  0  0  0  0  0
   -1.9692  -14.9919  -21.1473 C   0  0  0  0  0  0  0  0  0  0  0  0
   -2.9255  -14.0031  -20.8700 C   0  0  0  0  0  0  0  0  0  0  0  0
   -2.6624  -12.7061  -21.3085 C   0  0  0  0  0  0  0  0  0  0  0  0
 32 31  2  0  0  0
 32 33  1  0  0  0
 31 30  1  0  0  0
 33 28  2  0  0  0
 30 29  2  0  0  0
 28 29  1  0  0  0
 28 27  1  0  0  0
 25 27  1  0  0  0
 25  3  1  0  0  0
  5  6  2  0  0  0
  5  4  1  0  0  0
  6  7  1  0  0  0
  3  4  1  0  0  0
  3  2  2  0  0  0
  4  8  1  0  0  0
  2  1  1  0  0  0
  7  8  2  0  0  0
  7 10  1  0  0  0
  8  9  1  0  0  0
 11 10  1  0  0  0
 10 12  1  0  0  0
  1  9  2  0  0  0
  1 13  1  0  0  0
 13 15  1  0  0  0
 15 22  1  0  0  0
 22 21  1  0  0  0
 22 17  1  0  0  0
 21 20  1  0  0  0
 16 17  1  0  0  0
 17 18  1  0  0  0
 20 19  1  0  0  0
 18 19  1  0  0  0
 16 23  1  0  0  0
 19 24  1  0  0  0
 13 14  1  0  0  0
 25 26  1  0  0  0
M  END
> <minimizedAffinity>
-9.00028

$$$$
5JQ5_I74_A_302


 33 36  0  0  0  0  0  0  0  0999 V2000
   -0.4367  -10.0040  -26.4821 C   0  0  0  0  0  0  0  0  0  0  0  0
   -1.1916   -8.8181  -26.3818 C   0  0  0  0  0  0  0  0  0  0  0  0
   -1.9605   -8.6084  -25.2089 C   0  0  0  0  0  0  0  0  0  0  0  0
   -1.9889   -9.5899  -24.2536 N   0  0  0  0  0  0  0  0  0  0  0  0
   -2.6544   -9.5153  -23.0378 N   0  0  0  0  0  0  0  0  0  0  0  0
   -2.3134  -10.6468  -22.3536 C   0  0  0  0  0  0  0  0  0  0  0  0
   -1.4613  -11.3853  -23.1918 C   0  0  0  0  0  0  0  0  0  0  0  0
   -1.2397  -10.6623  -24.3746 C   0  0  0  0  0  0  0  0  0  0  0  0
   -0.4878  -10.9180  -25.4760 N   0  0  0  0  0  0  0  0  0  0  0  0
   -0.8842  -12.7132  -22.7585 C   0  0  0  0  0  0  0  0  0  0  0  0
    0.5397  -13.0159  -23.2543 C   0  0  0  0  0  0  0  0  0  0  0  0
   -0.7862  -12.7912  -21.2105 C   0  0  0  0  0  0  0  0  0  0  0  0
    0.3259  -10.2729  -27.6036 N   0  0  0  0  0  0  0  0  0  0  0  0
   -0.1430  -10.4714  -28.4461 H   0  0  0  0  0  0  0  0  0  0  0  0
    1.7776  -10.2796  -27.6116 C   0  0  0  0  0  0  0  0  0  0  0  0
    3.4236  -10.6054  -29.8827 O   0  0  0  0  0  0  0  0  0  0  0  0
    3.5273   -9.3662  -29.2163 C   0  0  0  0  0  0  0  0  0  0  0  0
    3.8493   -8.2909  -30.2542 C   0  0  0  0  0  0  0  0  0  0  0  0
    3.5443   -6.9799  -29.6649 N   0  0  0  0  0  0  0  0  0  0  0  0
    2.2401   -6.7281  -29.0906 C   0  0  0  0  0  0  0  0  0  0  0  0
    1.7353   -7.7979  -28.1146 C   0  0  0  0  0  0  0  0  0  0  0  0
    2.1399   -9.2037  -28.6223 C   0  0  0  0  0  0  0  0  0  0  0  0
    3.2191  -11.3022  -29.2396 H   0  0  0  0  0  0  0  0  0  0  0  0
    4.2271   -6.8250  -28.9231 H   0  0  0  0  0  0  0  0  0  0  0  0
   -2.6935   -7.5142  -25.0348 N   0  0  0  0  0  0  0  0  0  0  0  0
   -2.7850   -7.1237  -24.1357 H   0  0  0  0  0  0  0  0  0  0  0  0
   -3.3661   -6.8861  -26.1741 C   0  0  0  0  0  0  0  0  0  0  0  0
   -2.5295   -5.7050  -26.5782 C   0  0  0  0  0  0  0  0  0  0  0  0
   -1.7819   -5.7814  -27.7448 C   0  0  0  0  0  0  0  0  0  0  0  0
   -1.0263   -4.6807  -28.1116 C   0  0  0  0  0  0  0  0  0  0  0  0
   -1.0037   -3.5072  -27.3244 C   0  0  0  0  0  0  0  0  0  0  0  0
   -1.7717   -3.4230  -26.1530 C   0  0  0  0  0  0  0  0  0  0  0  0
   -2.5190   -4.5413  -25.7863 C   0  0  0  0  0  0  0  0  0  0  0  0
 32 31  2  0  0  0
 32 33  1  0  0  0
 31 30  1  0  0  0
 33 28  2  0  0  0
 30 29  2  0  0  0
 28 29  1  0  0  0
 28 27  1  0  0  0
 25 27  1  0  0  0
 25  3  1  0  0  0
  5  6  2  0  0  0
  5  4  1  0  0  0
  6  7  1  0  0  0
  3  4  1  0  0  0
  3  2  2  0  0  0
  4  8  1  0  0  0
  2  1  1  0  0  0
  7  8  2  0  0  0
  7 10  1  0  0  0
  8  9  1  0  0  0
 11 10  1  0  0  0
 10 12  1  0  0  0
  1  9  2  0  0  0
  1 13  1  0  0  0
 13 15  1  0  0  0
 15 22  1  0  0  0
 22 21  1  0  0  0
 22 17  1  0  0  0
 21 20  1  0  0  0
 16 17  1  0  0  0
 17 18  1  0  0  0
 20 19  1  0  0  0
 18 19  1  0  0  0
 16 23  1  0  0  0
 19 24  1  0  0  0
 13 14  1  0  0  0
 25 26  1  0  0  0
M  END
> <minimizedAffinity>
-8.98160

$$$$
