3AAS_GUS_A_1001


 24 24  0  0  0  0  0  0  0  0999 V2000
   -1.8275   13.3040   16.1259 C   0  0  0  0  0  0  0  0  0  0  0  0
   -1.1567   12.3184   16.8432 C   0  0  0  0  0  0  0  0  0  0  0  0
   -0.5532   12.6297   18.0561 C   0  0  0  0  0  0  0  0  0  0  0  0
   -1.8940   14.5936   16.6373 C   0  0  0  0  0  0  0  0  0  0  0  0
   -1.2924   14.9095   17.8472 C   0  0  0  0  0  0  0  0  0  0  0  0
   -0.6164   13.9232   18.5598 C   0  0  0  0  0  0  0  0  0  0  0  0
   -0.0100   14.2186   19.7410 O   0  0  0  0  0  0  0  0  0  0  0  0
    0.4432   13.5495   20.2151 H   0  0  0  0  0  0  0  0  0  0  0  0
   -1.9103   16.5546   19.4491 N   0  0  0  0  0  0  0  0  0  0  0  0
   -1.3506   16.2246   18.3023 C   0  0  0  0  0  0  0  0  0  0  0  0
   -1.9645   17.9762   19.8218 C   0  0  0  0  0  0  0  0  0  0  0  0
   -3.2609   18.5874   19.2886 C   0  0  0  0  0  0  0  0  0  0  0  0
   -1.9155   18.1374   21.3421 C   0  0  0  0  0  0  0  0  0  0  0  0
   -2.3481   19.2138   21.8088 O   0  0  0  0  0  0  0  0  0  0  0  0
   -1.4461   17.1864   22.0047 O   0  0  0  0  0  0  0  0  0  0  0  0
   -1.1442   16.4147   21.5674 H   0  0  0  0  0  0  0  0  0  0  0  0
   -2.3869   13.0557   14.9444 N   0  0  0  0  0  0  0  0  0  0  0  0
   -2.8600   13.8630   14.6382 H   0  0  0  0  0  0  0  0  0  0  0  0
   -2.5972   12.3649   12.7432 N   0  0  0  0  0  0  0  0  0  0  0  0
   -2.5282   12.1125   14.0463 C   0  0  0  0  0  0  0  0  0  0  0  0
   -2.6143   10.8541   14.4721 N   0  0  0  0  0  0  0  0  0  0  0  0
   -2.5345   13.2918   12.4174 H   0  0  0  0  0  0  0  0  0  0  0  0
   -2.7210   10.1212   13.8234 H   0  0  0  0  0  0  0  0  0  0  0  0
   -2.5714   10.6564   15.4355 H   0  0  0  0  0  0  0  0  0  0  0  0
 13 14  2  0  0  0
 13 11  1  0  0  0
 13 15  1  0  0  0
  9 11  1  0  0  0
  9 10  2  0  0  0
 11 12  1  0  0  0
 19 20  2  0  0  0
 20 17  1  0  0  0
 20 21  1  0  0  0
 17  1  1  0  0  0
  1  2  2  0  0  0
  1  4  1  0  0  0
  2  3  1  0  0  0
  3  6  2  0  0  0
  4  5  2  0  0  0
  5  6  1  0  0  0
  5 10  1  0  0  0
  6  7  1  0  0  0
 19 22  1  0  0  0
 17 18  1  0  0  0
 21 23  1  0  0  0
 21 24  1  0  0  0
  7  8  1  0  0  0
 15 16  1  0  0  0
M  END
> <minimizedAffinity>
-7.33300

$$$$
3AAS_GUS_A_1001


 24 24  0  0  0  0  0  0  0  0999 V2000
   -1.9315   13.3560   16.1791 C   0  0  0  0  0  0  0  0  0  0  0  0
   -1.7700   12.3929   17.1701 C   0  0  0  0  0  0  0  0  0  0  0  0
   -1.1250   12.7181   18.3578 C   0  0  0  0  0  0  0  0  0  0  0  0
   -1.4509   14.6414   16.3925 C   0  0  0  0  0  0  0  0  0  0  0  0
   -0.8056   14.9707   17.5761 C   0  0  0  0  0  0  0  0  0  0  0  0
   -0.6395   14.0037   18.5634 C   0  0  0  0  0  0  0  0  0  0  0  0
    0.0021   14.3060   19.7241 O   0  0  0  0  0  0  0  0  0  0  0  0
    0.1101   13.6499   20.3842 H   0  0  0  0  0  0  0  0  0  0  0  0
    0.9348   16.5009   18.1090 N   0  0  0  0  0  0  0  0  0  0  0  0
   -0.3049   16.2612   17.7307 C   0  0  0  0  0  0  0  0  0  0  0  0
    1.3572   17.8979   18.2896 C   0  0  0  0  0  0  0  0  0  0  0  0
    2.7462   17.9253   18.9288 C   0  0  0  0  0  0  0  0  0  0  0  0
    1.4034   18.6255   16.9448 C   0  0  0  0  0  0  0  0  0  0  0  0
    0.5887   19.5601   16.7816 O   0  0  0  0  0  0  0  0  0  0  0  0
    2.2469   18.2331   16.1092 O   0  0  0  0  0  0  0  0  0  0  0  0
    2.8191   17.5217   16.3199 H   0  0  0  0  0  0  0  0  0  0  0  0
   -2.5104   13.0757   15.0142 N   0  0  0  0  0  0  0  0  0  0  0  0
   -3.0964   13.8247   14.7595 H   0  0  0  0  0  0  0  0  0  0  0  0
   -2.6613   12.4364   12.7927 N   0  0  0  0  0  0  0  0  0  0  0  0
   -2.5731   12.1514   14.0879 C   0  0  0  0  0  0  0  0  0  0  0  0
   -2.5565   10.8780   14.4757 N   0  0  0  0  0  0  0  0  0  0  0  0
   -2.6744   13.3747   12.4949 H   0  0  0  0  0  0  0  0  0  0  0  0
   -2.6022   10.1586   13.8051 H   0  0  0  0  0  0  0  0  0  0  0  0
   -2.4985   10.6557   15.4330 H   0  0  0  0  0  0  0  0  0  0  0  0
 13 14  2  0  0  0
 13 11  1  0  0  0
 13 15  1  0  0  0
  9 11  1  0  0  0
  9 10  2  0  0  0
 11 12  1  0  0  0
 19 20  2  0  0  0
 20 17  1  0  0  0
 20 21  1  0  0  0
 17  1  1  0  0  0
  1  2  2  0  0  0
  1  4  1  0  0  0
  2  3  1  0  0  0
  3  6  2  0  0  0
  4  5  2  0  0  0
  5  6  1  0  0  0
  5 10  1  0  0  0
  6  7  1  0  0  0
 19 22  1  0  0  0
 17 18  1  0  0  0
 21 23  1  0  0  0
 21 24  1  0  0  0
  7  8  1  0  0  0
 15 16  1  0  0  0
M  END
> <minimizedAffinity>
-7.29520

$$$$
3AAS_GUS_A_1001


 24 24  0  0  0  0  0  0  0  0999 V2000
   -1.9249   13.3541   16.1399 C   0  0  0  0  0  0  0  0  0  0  0  0
   -1.6739   12.3797   17.1008 C   0  0  0  0  0  0  0  0  0  0  0  0
   -1.0218   12.7180   18.2809 C   0  0  0  0  0  0  0  0  0  0  0  0
   -1.5260   14.6633   16.3759 C   0  0  0  0  0  0  0  0  0  0  0  0
   -0.8740   15.0059   17.5520 C   0  0  0  0  0  0  0  0  0  0  0  0
   -0.6183   14.0280   18.5090 C   0  0  0  0  0  0  0  0  0  0  0  0
    0.0313   14.3439   19.6615 O   0  0  0  0  0  0  0  0  0  0  0  0
    0.2000   13.6803   20.3012 H   0  0  0  0  0  0  0  0  0  0  0  0
    0.7685   16.6356   18.1000 N   0  0  0  0  0  0  0  0  0  0  0  0
   -0.4570   16.3230   17.7288 C   0  0  0  0  0  0  0  0  0  0  0  0
    1.1008   18.0534   18.3058 C   0  0  0  0  0  0  0  0  0  0  0  0
    0.0325   18.6977   19.1902 C   0  0  0  0  0  0  0  0  0  0  0  0
    2.4680   18.1949   18.9773 C   0  0  0  0  0  0  0  0  0  0  0  0
    2.7345   19.3067   19.4838 O   0  0  0  0  0  0  0  0  0  0  0  0
    3.2173   17.1939   18.9687 O   0  0  0  0  0  0  0  0  0  0  0  0
    2.9321   16.3986   18.5636 H   0  0  0  0  0  0  0  0  0  0  0  0
   -2.5136   13.0645   14.9822 N   0  0  0  0  0  0  0  0  0  0  0  0
   -3.1065   13.8087   14.7295 H   0  0  0  0  0  0  0  0  0  0  0  0
   -2.6633   12.4130   12.7642 N   0  0  0  0  0  0  0  0  0  0  0  0
   -2.5798   12.1352   14.0612 C   0  0  0  0  0  0  0  0  0  0  0  0
   -2.5718   10.8640   14.4565 N   0  0  0  0  0  0  0  0  0  0  0  0
   -2.6700   13.3496   12.4608 H   0  0  0  0  0  0  0  0  0  0  0  0
   -2.6204   10.1410   13.7901 H   0  0  0  0  0  0  0  0  0  0  0  0
   -2.5174   10.6470   15.4153 H   0  0  0  0  0  0  0  0  0  0  0  0
 13 14  2  0  0  0
 13 11  1  0  0  0
 13 15  1  0  0  0
  9 11  1  0  0  0
  9 10  2  0  0  0
 11 12  1  0  0  0
 19 20  2  0  0  0
 20 17  1  0  0  0
 20 21  1  0  0  0
 17  1  1  0  0  0
  1  2  2  0  0  0
  1  4  1  0  0  0
  2  3  1  0  0  0
  3  6  2  0  0  0
  4  5  2  0  0  0
  5  6  1  0  0  0
  5 10  1  0  0  0
  6  7  1  0  0  0
 19 22  1  0  0  0
 17 18  1  0  0  0
 21 23  1  0  0  0
 21 24  1  0  0  0
  7  8  1  0  0  0
 15 16  1  0  0  0
M  END
> <minimizedAffinity>
-7.25811

$$$$
3AAS_GUS_A_1001


 24 24  0  0  0  0  0  0  0  0999 V2000
   -2.6133   13.0271   16.6868 C   0  0  0  0  0  0  0  0  0  0  0  0
   -1.8833   12.4843   17.7396 C   0  0  0  0  0  0  0  0  0  0  0  0
   -1.5419   13.2755   18.8303 C   0  0  0  0  0  0  0  0  0  0  0  0
   -3.0021   14.3593   16.7421 C   0  0  0  0  0  0  0  0  0  0  0  0
   -2.6631   15.1534   17.8284 C   0  0  0  0  0  0  0  0  0  0  0  0
   -1.9272   14.6098   18.8773 C   0  0  0  0  0  0  0  0  0  0  0  0
   -1.5751   15.3774   19.9436 O   0  0  0  0  0  0  0  0  0  0  0  0
   -1.0797   15.0046   20.6461 H   0  0  0  0  0  0  0  0  0  0  0  0
   -2.1658   17.4776   17.8983 N   0  0  0  0  0  0  0  0  0  0  0  0
   -3.0402   16.4942   17.8229 C   0  0  0  0  0  0  0  0  0  0  0  0
   -2.6644   18.8607   17.9328 C   0  0  0  0  0  0  0  0  0  0  0  0
   -3.4784   19.1342   16.6674 C   0  0  0  0  0  0  0  0  0  0  0  0
   -3.5469   19.0854   19.1619 C   0  0  0  0  0  0  0  0  0  0  0  0
   -2.9744   19.0893   20.2735 O   0  0  0  0  0  0  0  0  0  0  0  0
   -4.7717   19.2456   18.9668 O   0  0  0  0  0  0  0  0  0  0  0  0
   -5.1135   19.2272   18.0945 H   0  0  0  0  0  0  0  0  0  0  0  0
   -2.9287   12.3138   15.6088 N   0  0  0  0  0  0  0  0  0  0  0  0
   -3.8925   12.1136   15.6280 H   0  0  0  0  0  0  0  0  0  0  0  0
   -1.6701   10.6777   14.5572 N   0  0  0  0  0  0  0  0  0  0  0  0
   -2.4050   11.7848   14.5307 C   0  0  0  0  0  0  0  0  0  0  0  0
   -2.6183   12.3981   13.3686 N   0  0  0  0  0  0  0  0  0  0  0  0
   -1.5061   10.2161   15.4112 H   0  0  0  0  0  0  0  0  0  0  0  0
   -2.2390   12.0270   12.5393 H   0  0  0  0  0  0  0  0  0  0  0  0
   -3.1553   13.2227   13.3384 H   0  0  0  0  0  0  0  0  0  0  0  0
 13 14  2  0  0  0
 13 11  1  0  0  0
 13 15  1  0  0  0
  9 11  1  0  0  0
  9 10  2  0  0  0
 11 12  1  0  0  0
 19 20  2  0  0  0
 20 17  1  0  0  0
 20 21  1  0  0  0
 17  1  1  0  0  0
  1  2  2  0  0  0
  1  4  1  0  0  0
  2  3  1  0  0  0
  3  6  2  0  0  0
  4  5  2  0  0  0
  5  6  1  0  0  0
  5 10  1  0  0  0
  6  7  1  0  0  0
 19 22  1  0  0  0
 17 18  1  0  0  0
 21 23  1  0  0  0
 21 24  1  0  0  0
  7  8  1  0  0  0
 15 16  1  0  0  0
M  END
> <minimizedAffinity>
-6.82862

$$$$
3AAS_GUS_A_1001


 24 24  0  0  0  0  0  0  0  0999 V2000
   -2.3384   13.9191   15.9375 C   0  0  0  0  0  0  0  0  0  0  0  0
   -2.2514   13.5205   17.2676 C   0  0  0  0  0  0  0  0  0  0  0  0
   -1.6251   14.3396   18.1999 C   0  0  0  0  0  0  0  0  0  0  0  0
   -1.8026   15.1423   15.5557 C   0  0  0  0  0  0  0  0  0  0  0  0
   -1.1757   15.9631   16.4824 C   0  0  0  0  0  0  0  0  0  0  0  0
   -1.0842   15.5592   17.8113 C   0  0  0  0  0  0  0  0  0  0  0  0
   -0.4616   16.3455   18.7301 O   0  0  0  0  0  0  0  0  0  0  0  0
   -0.4039   16.0671   19.6229 H   0  0  0  0  0  0  0  0  0  0  0  0
    0.5996   17.5417   16.3806 N   0  0  0  0  0  0  0  0  0  0  0  0
   -0.6181   17.1629   16.0471 C   0  0  0  0  0  0  0  0  0  0  0  0
    1.0833   18.8482   15.9095 C   0  0  0  0  0  0  0  0  0  0  0  0
    2.4069   19.1748   16.6023 C   0  0  0  0  0  0  0  0  0  0  0  0
    1.2946   18.8308   14.3946 C   0  0  0  0  0  0  0  0  0  0  0  0
    0.6188   19.6400   13.7221 O   0  0  0  0  0  0  0  0  0  0  0  0
    2.1222   18.0107   13.9405 O   0  0  0  0  0  0  0  0  0  0  0  0
    2.5846   17.4406   14.5228 H   0  0  0  0  0  0  0  0  0  0  0  0
   -2.8973   13.1484   15.0078 N   0  0  0  0  0  0  0  0  0  0  0  0
   -3.8446   13.3984   14.9118 H   0  0  0  0  0  0  0  0  0  0  0  0
   -2.5401   12.3528   12.8617 N   0  0  0  0  0  0  0  0  0  0  0  0
   -2.6273   12.1732   14.1757 C   0  0  0  0  0  0  0  0  0  0  0  0
   -2.4447   10.9552   14.6809 N   0  0  0  0  0  0  0  0  0  0  0  0
   -2.6734   13.2493   12.4774 H   0  0  0  0  0  0  0  0  0  0  0  0
   -2.2403   10.2000   14.0833 H   0  0  0  0  0  0  0  0  0  0  0  0
   -2.5139   10.8096   15.6521 H   0  0  0  0  0  0  0  0  0  0  0  0
 13 14  2  0  0  0
 13 11  1  0  0  0
 13 15  1  0  0  0
  9 11  1  0  0  0
  9 10  2  0  0  0
 11 12  1  0  0  0
 19 20  2  0  0  0
 20 17  1  0  0  0
 20 21  1  0  0  0
 17  1  1  0  0  0
  1  2  2  0  0  0
  1  4  1  0  0  0
  2  3  1  0  0  0
  3  6  2  0  0  0
  4  5  2  0  0  0
  5  6  1  0  0  0
  5 10  1  0  0  0
  6  7  1  0  0  0
 19 22  1  0  0  0
 17 18  1  0  0  0
 21 23  1  0  0  0
 21 24  1  0  0  0
  7  8  1  0  0  0
 15 16  1  0  0  0
M  END
> <minimizedAffinity>
-6.54419

$$$$
3AAS_GUS_A_1001


 24 24  0  0  0  0  0  0  0  0999 V2000
   -2.1312   14.7414   16.1819 C   0  0  0  0  0  0  0  0  0  0  0  0
   -3.1192   14.9055   17.1477 C   0  0  0  0  0  0  0  0  0  0  0  0
   -2.9264   15.7982   18.1956 C   0  0  0  0  0  0  0  0  0  0  0  0
   -0.9599   15.4822   16.2719 C   0  0  0  0  0  0  0  0  0  0  0  0
   -0.7623   16.3740   17.3166 C   0  0  0  0  0  0  0  0  0  0  0  0
   -1.7495   16.5317   18.2851 C   0  0  0  0  0  0  0  0  0  0  0  0
   -1.5668   17.3918   19.3228 O   0  0  0  0  0  0  0  0  0  0  0  0
   -2.2358   17.4927   19.9711 H   0  0  0  0  0  0  0  0  0  0  0  0
    1.2628   16.9606   18.4161 N   0  0  0  0  0  0  0  0  0  0  0  0
    0.4441   17.0664   17.3885 C   0  0  0  0  0  0  0  0  0  0  0  0
    2.4919   17.7681   18.4218 C   0  0  0  0  0  0  0  0  0  0  0  0
    2.4925   18.6929   17.2039 C   0  0  0  0  0  0  0  0  0  0  0  0
    2.5790   18.6087   19.6969 C   0  0  0  0  0  0  0  0  0  0  0  0
    1.5221   18.7542   20.3491 O   0  0  0  0  0  0  0  0  0  0  0  0
    3.6952   19.0892   19.9917 O   0  0  0  0  0  0  0  0  0  0  0  0
    4.4356   18.9267   19.4409 H   0  0  0  0  0  0  0  0  0  0  0  0
   -2.2615   13.8711   15.1838 N   0  0  0  0  0  0  0  0  0  0  0  0
   -2.1745   14.3500   14.3280 H   0  0  0  0  0  0  0  0  0  0  0  0
   -3.4719   12.1627   14.1925 N   0  0  0  0  0  0  0  0  0  0  0  0
   -2.4651   12.5998   14.9420 C   0  0  0  0  0  0  0  0  0  0  0  0
   -1.6259   11.7199   15.4840 N   0  0  0  0  0  0  0  0  0  0  0  0
   -4.0985   12.8047   13.7869 H   0  0  0  0  0  0  0  0  0  0  0  0
   -1.7504   10.7568   15.3223 H   0  0  0  0  0  0  0  0  0  0  0  0
   -0.8808   12.0323   16.0465 H   0  0  0  0  0  0  0  0  0  0  0  0
 13 14  2  0  0  0
 13 11  1  0  0  0
 13 15  1  0  0  0
  9 11  1  0  0  0
  9 10  2  0  0  0
 11 12  1  0  0  0
 19 20  2  0  0  0
 20 17  1  0  0  0
 20 21  1  0  0  0
 17  1  1  0  0  0
  1  2  2  0  0  0
  1  4  1  0  0  0
  2  3  1  0  0  0
  3  6  2  0  0  0
  4  5  2  0  0  0
  5  6  1  0  0  0
  5 10  1  0  0  0
  6  7  1  0  0  0
 19 22  1  0  0  0
 17 18  1  0  0  0
 21 23  1  0  0  0
 21 24  1  0  0  0
  7  8  1  0  0  0
 15 16  1  0  0  0
M  END
> <minimizedAffinity>
-6.36326

$$$$
3AAS_GUS_A_1001


 24 24  0  0  0  0  0  0  0  0999 V2000
   -2.5477   12.9278   16.7302 C   0  0  0  0  0  0  0  0  0  0  0  0
   -1.9637   12.4265   17.8892 C   0  0  0  0  0  0  0  0  0  0  0  0
   -1.6375   13.2860   18.9318 C   0  0  0  0  0  0  0  0  0  0  0  0
   -2.8076   14.2885   16.6310 C   0  0  0  0  0  0  0  0  0  0  0  0
   -2.4832   15.1508   17.6688 C   0  0  0  0  0  0  0  0  0  0  0  0
   -1.8930   14.6477   18.8247 C   0  0  0  0  0  0  0  0  0  0  0  0
   -1.5566   15.4806   19.8462 O   0  0  0  0  0  0  0  0  0  0  0  0
   -1.1597   15.1348   20.6213 H   0  0  0  0  0  0  0  0  0  0  0  0
   -3.5775   17.1754   18.2669 N   0  0  0  0  0  0  0  0  0  0  0  0
   -2.7256   16.5131   17.5098 C   0  0  0  0  0  0  0  0  0  0  0  0
   -3.8004   18.6027   17.9915 C   0  0  0  0  0  0  0  0  0  0  0  0
   -2.6158   19.1532   17.1964 C   0  0  0  0  0  0  0  0  0  0  0  0
   -5.0869   18.8025   17.1884 C   0  0  0  0  0  0  0  0  0  0  0  0
   -6.1107   19.1178   17.8336 O   0  0  0  0  0  0  0  0  0  0  0  0
   -5.0224   18.6343   15.9510 O   0  0  0  0  0  0  0  0  0  0  0  0
   -4.2081   18.3977   15.5522 H   0  0  0  0  0  0  0  0  0  0  0  0
   -2.8415   12.1444   15.6955 N   0  0  0  0  0  0  0  0  0  0  0  0
   -3.7439   11.7717   15.8221 H   0  0  0  0  0  0  0  0  0  0  0  0
   -1.5703   10.6212   14.4995 N   0  0  0  0  0  0  0  0  0  0  0  0
   -2.3496   11.6957   14.5672 C   0  0  0  0  0  0  0  0  0  0  0  0
   -2.6433   12.3595   13.4513 N   0  0  0  0  0  0  0  0  0  0  0  0
   -1.3468   10.1228   15.3185 H   0  0  0  0  0  0  0  0  0  0  0  0
   -2.2898   12.0492   12.5864 H   0  0  0  0  0  0  0  0  0  0  0  0
   -3.2139   13.1608   13.4910 H   0  0  0  0  0  0  0  0  0  0  0  0
 13 14  2  0  0  0
 13 11  1  0  0  0
 13 15  1  0  0  0
  9 11  1  0  0  0
  9 10  2  0  0  0
 11 12  1  0  0  0
 19 20  2  0  0  0
 20 17  1  0  0  0
 20 21  1  0  0  0
 17  1  1  0  0  0
  1  2  2  0  0  0
  1  4  1  0  0  0
  2  3  1  0  0  0
  3  6  2  0  0  0
  4  5  2  0  0  0
  5  6  1  0  0  0
  5 10  1  0  0  0
  6  7  1  0  0  0
 19 22  1  0  0  0
 17 18  1  0  0  0
 21 23  1  0  0  0
 21 24  1  0  0  0
  7  8  1  0  0  0
 15 16  1  0  0  0
M  END
> <minimizedAffinity>
-6.33382

$$$$
3AAS_GUS_A_1001


 24 24  0  0  0  0  0  0  0  0999 V2000
   -2.4346   15.1297   17.4700 C   0  0  0  0  0  0  0  0  0  0  0  0
   -3.3801   15.7814   16.6843 C   0  0  0  0  0  0  0  0  0  0  0  0
   -3.9549   16.9669   17.1272 C   0  0  0  0  0  0  0  0  0  0  0  0
   -2.0676   15.6792   18.6916 C   0  0  0  0  0  0  0  0  0  0  0  0
   -2.6391   16.8621   19.1385 C   0  0  0  0  0  0  0  0  0  0  0  0
   -3.5895   17.5087   18.3536 C   0  0  0  0  0  0  0  0  0  0  0  0
   -4.1693   18.6620   18.7823 O   0  0  0  0  0  0  0  0  0  0  0  0
   -4.8083   19.0918   18.2485 H   0  0  0  0  0  0  0  0  0  0  0  0
   -2.0016   16.5686   21.4104 N   0  0  0  0  0  0  0  0  0  0  0  0
   -2.2700   17.3555   20.3876 C   0  0  0  0  0  0  0  0  0  0  0  0
   -1.6661   17.1851   22.7028 C   0  0  0  0  0  0  0  0  0  0  0  0
   -1.7373   18.7068   22.5684 C   0  0  0  0  0  0  0  0  0  0  0  0
   -2.6408   16.7258   23.7886 C   0  0  0  0  0  0  0  0  0  0  0  0
   -2.6154   15.5130   24.0921 O   0  0  0  0  0  0  0  0  0  0  0  0
   -3.3904   17.5920   24.2899 O   0  0  0  0  0  0  0  0  0  0  0  0
   -3.3391   18.4812   23.9988 H   0  0  0  0  0  0  0  0  0  0  0  0
   -1.8879   13.9747   17.0990 N   0  0  0  0  0  0  0  0  0  0  0  0
   -1.7119   14.0001   16.1307 H   0  0  0  0  0  0  0  0  0  0  0  0
   -2.2127   11.7032   17.4174 N   0  0  0  0  0  0  0  0  0  0  0  0
   -1.5020   12.8156   17.5720 C   0  0  0  0  0  0  0  0  0  0  0  0
   -0.3524   12.7669   18.2415 N   0  0  0  0  0  0  0  0  0  0  0  0
   -3.0643   11.7278   16.9240 H   0  0  0  0  0  0  0  0  0  0  0  0
   -0.0332   11.9117   18.6102 H   0  0  0  0  0  0  0  0  0  0  0  0
    0.1787   13.5862   18.3680 H   0  0  0  0  0  0  0  0  0  0  0  0
 13 14  2  0  0  0
 13 11  1  0  0  0
 13 15  1  0  0  0
  9 11  1  0  0  0
  9 10  2  0  0  0
 11 12  1  0  0  0
 19 20  2  0  0  0
 20 17  1  0  0  0
 20 21  1  0  0  0
 17  1  1  0  0  0
  1  2  2  0  0  0
  1  4  1  0  0  0
  2  3  1  0  0  0
  3  6  2  0  0  0
  4  5  2  0  0  0
  5  6  1  0  0  0
  5 10  1  0  0  0
  6  7  1  0  0  0
 19 22  1  0  0  0
 17 18  1  0  0  0
 21 23  1  0  0  0
 21 24  1  0  0  0
  7  8  1  0  0  0
 15 16  1  0  0  0
M  END
> <minimizedAffinity>
-6.24614

$$$$
3AAS_GUS_A_1001


 24 24  0  0  0  0  0  0  0  0999 V2000
   -1.6652   13.1113   16.6615 C   0  0  0  0  0  0  0  0  0  0  0  0
   -1.7424   12.6335   17.9659 C   0  0  0  0  0  0  0  0  0  0  0  0
   -1.7474   13.5234   19.0337 C   0  0  0  0  0  0  0  0  0  0  0  0
   -1.6021   14.4808   16.4395 C   0  0  0  0  0  0  0  0  0  0  0  0
   -1.6060   15.3733   17.5022 C   0  0  0  0  0  0  0  0  0  0  0  0
   -1.6768   14.8925   18.8065 C   0  0  0  0  0  0  0  0  0  0  0  0
   -1.6685   15.7527   19.8602 O   0  0  0  0  0  0  0  0  0  0  0  0
   -1.7164   15.4217   20.7355 H   0  0  0  0  0  0  0  0  0  0  0  0
   -0.9884   17.2014   16.1126 N   0  0  0  0  0  0  0  0  0  0  0  0
   -1.5013   16.7360   17.2342 C   0  0  0  0  0  0  0  0  0  0  0  0
   -0.8774   18.6578   15.9412 C   0  0  0  0  0  0  0  0  0  0  0  0
    0.5841   19.0748   16.1110 C   0  0  0  0  0  0  0  0  0  0  0  0
   -1.3664   19.0763   14.5535 C   0  0  0  0  0  0  0  0  0  0  0  0
   -1.1427   20.2577   14.2100 O   0  0  0  0  0  0  0  0  0  0  0  0
   -1.9537   18.2114   13.8676 O   0  0  0  0  0  0  0  0  0  0  0  0
   -2.0768   17.3473   14.2085 H   0  0  0  0  0  0  0  0  0  0  0  0
   -1.6211   12.2917   15.6141 N   0  0  0  0  0  0  0  0  0  0  0  0
   -0.6888   12.0130   15.4646 H   0  0  0  0  0  0  0  0  0  0  0  0
   -2.0264   10.6301   14.0517 N   0  0  0  0  0  0  0  0  0  0  0  0
   -2.3849   11.7262   14.7124 C   0  0  0  0  0  0  0  0  0  0  0  0
   -3.5623   12.2894   14.4506 N   0  0  0  0  0  0  0  0  0  0  0  0
   -1.1579   10.2053   14.2374 H   0  0  0  0  0  0  0  0  0  0  0  0
   -4.1605   11.8900   13.7785 H   0  0  0  0  0  0  0  0  0  0  0  0
   -3.8348   13.1055   14.9292 H   0  0  0  0  0  0  0  0  0  0  0  0
 13 14  2  0  0  0
 13 11  1  0  0  0
 13 15  1  0  0  0
  9 11  1  0  0  0
  9 10  2  0  0  0
 11 12  1  0  0  0
 19 20  2  0  0  0
 20 17  1  0  0  0
 20 21  1  0  0  0
 17  1  1  0  0  0
  1  2  2  0  0  0
  1  4  1  0  0  0
  2  3  1  0  0  0
  3  6  2  0  0  0
  4  5  2  0  0  0
  5  6  1  0  0  0
  5 10  1  0  0  0
  6  7  1  0  0  0
 19 22  1  0  0  0
 17 18  1  0  0  0
 21 23  1  0  0  0
 21 24  1  0  0  0
  7  8  1  0  0  0
 15 16  1  0  0  0
M  END
> <minimizedAffinity>
-6.22029

$$$$
3AAS_GUS_A_1001


 24 24  0  0  0  0  0  0  0  0999 V2000
   -2.2945   18.1341   18.3438 C   0  0  0  0  0  0  0  0  0  0  0  0
   -2.3630   18.9174   17.1960 C   0  0  0  0  0  0  0  0  0  0  0  0
   -2.5569   18.3194   15.9562 C   0  0  0  0  0  0  0  0  0  0  0  0
   -2.4300   16.7559   18.2381 C   0  0  0  0  0  0  0  0  0  0  0  0
   -2.6229   16.1542   17.0026 C   0  0  0  0  0  0  0  0  0  0  0  0
   -2.6846   16.9394   15.8549 C   0  0  0  0  0  0  0  0  0  0  0  0
   -2.8601   16.3649   14.6346 O   0  0  0  0  0  0  0  0  0  0  0  0
   -2.9007   16.8999   13.8664 H   0  0  0  0  0  0  0  0  0  0  0  0
   -1.9342   14.0379   16.1652 N   0  0  0  0  0  0  0  0  0  0  0  0
   -2.7140   14.7658   16.9395 C   0  0  0  0  0  0  0  0  0  0  0  0
   -2.1379   12.5818   16.1318 C   0  0  0  0  0  0  0  0  0  0  0  0
   -2.3531   12.1366   14.6848 C   0  0  0  0  0  0  0  0  0  0  0  0
   -0.9235   11.8540   16.7111 C   0  0  0  0  0  0  0  0  0  0  0  0
   -0.3959   12.3582   17.7265 O   0  0  0  0  0  0  0  0  0  0  0  0
   -0.5468   10.8137   16.1284 O   0  0  0  0  0  0  0  0  0  0  0  0
   -1.0057   10.5090   15.3704 H   0  0  0  0  0  0  0  0  0  0  0  0
   -2.0738   18.6640   19.5443 N   0  0  0  0  0  0  0  0  0  0  0  0
   -2.5105   19.5451   19.5906 H   0  0  0  0  0  0  0  0  0  0  0  0
   -0.1824   18.6434   20.8818 N   0  0  0  0  0  0  0  0  0  0  0  0
   -1.4784   18.4229   20.6861 C   0  0  0  0  0  0  0  0  0  0  0  0
   -2.2129   17.9276   21.6798 N   0  0  0  0  0  0  0  0  0  0  0  0
    0.3701   19.0094   20.1538 H   0  0  0  0  0  0  0  0  0  0  0  0
   -1.7966   17.7350   22.5509 H   0  0  0  0  0  0  0  0  0  0  0  0
   -3.1723   17.7539   21.5435 H   0  0  0  0  0  0  0  0  0  0  0  0
 13 14  2  0  0  0
 13 11  1  0  0  0
 13 15  1  0  0  0
  9 11  1  0  0  0
  9 10  2  0  0  0
 11 12  1  0  0  0
 19 20  2  0  0  0
 20 17  1  0  0  0
 20 21  1  0  0  0
 17  1  1  0  0  0
  1  2  2  0  0  0
  1  4  1  0  0  0
  2  3  1  0  0  0
  3  6  2  0  0  0
  4  5  2  0  0  0
  5  6  1  0  0  0
  5 10  1  0  0  0
  6  7  1  0  0  0
 19 22  1  0  0  0
 17 18  1  0  0  0
 21 23  1  0  0  0
 21 24  1  0  0  0
  7  8  1  0  0  0
 15 16  1  0  0  0
M  END
> <minimizedAffinity>
-5.85767

$$$$
