5X74_JAY_A_201


 46 52  0  0  0  0  0  0  0  0999 V2000
   17.0775  -16.7918   12.3357 C   0  0  0  0  0  0  0  0  0  0  0  0
   16.0465  -17.8337   12.0788 C   0  0  0  0  0  0  0  0  0  0  0  0
   14.7874  -17.1455   11.6506 C   0  0  0  0  0  0  0  0  0  0  0  0
   16.6318  -15.9644   13.5387 C   0  0  0  0  0  0  0  0  0  0  0  0
   15.2739  -15.2696   13.2565 C   0  0  0  0  0  0  0  0  0  0  0  0
   14.2654  -16.2218   12.7255 N   0  0  0  0  0  0  0  0  0  0  0  0
   18.8724  -17.8399   13.9533 C   0  0  0  0  0  0  0  0  0  0  0  0
   19.6939  -19.0727   13.9624 N   0  0  0  0  0  0  0  0  0  0  0  0
   20.5781  -19.2378   12.9434 C   0  0  0  0  0  0  0  0  0  0  0  0
   21.6345  -20.0631   13.1667 C   0  0  0  0  0  0  0  0  0  0  0  0
   22.5717  -20.2688   12.1885 C   0  0  0  0  0  0  0  0  0  0  0  0
   22.4116  -19.5988   11.0054 C   0  0  0  0  0  0  0  0  0  0  0  0
   21.3333  -18.7794   10.7698 C   0  0  0  0  0  0  0  0  0  0  0  0
   20.4019  -18.5517   11.7652 C   0  0  0  0  0  0  0  0  0  0  0  0
   19.2401  -17.7296   11.5284 C   0  0  0  0  0  0  0  0  0  0  0  0
   18.8212  -17.4713   10.3649 O   0  0  0  0  0  0  0  0  0  0  0  0
   18.4080  -17.4849   12.5567 N   0  0  0  0  0  0  0  0  0  0  0  0
   19.6032  -19.7442   14.6766 H   0  0  0  0  0  0  0  0  0  0  0  0
   19.3320  -17.6272   16.6021 F   0  0  0  0  0  0  0  0  0  0  0  0
   19.8175  -16.7175   15.8635 C   0  0  0  0  0  0  0  0  0  0  0  0
   20.5352  -15.6748   16.4603 C   0  0  0  0  0  0  0  0  0  0  0  0
   21.1169  -14.6611   15.7087 C   0  0  0  0  0  0  0  0  0  0  0  0
   20.9588  -14.6983   14.3228 C   0  0  0  0  0  0  0  0  0  0  0  0
   20.1988  -15.7324   13.7330 C   0  0  0  0  0  0  0  0  0  0  0  0
   19.6381  -16.7739   14.4992 C   0  0  0  0  0  0  0  0  0  0  0  0
   13.4936  -16.8265   13.8265 C   0  0  0  0  0  0  0  0  0  0  0  0
   13.0749  -15.7627   14.8905 C   0  0  0  0  0  0  0  0  0  0  0  0
   11.7371  -16.1607   15.4507 N   0  0  0  0  0  0  0  0  0  0  0  0
   11.5731  -16.4674   16.7575 C   0  0  0  0  0  0  0  0  0  0  0  0
   12.5859  -16.4448   17.4846 O   0  0  0  0  0  0  0  0  0  0  0  0
   10.2819  -16.8638   17.2244 C   0  0  0  0  0  0  0  0  0  0  0  0
   10.0394  -17.2070   18.5541 C   0  0  0  0  0  0  0  0  0  0  0  0
    8.7725  -17.6638   19.0000 C   0  0  0  0  0  0  0  0  0  0  0  0
    7.7118  -17.7849   18.1181 C   0  0  0  0  0  0  0  0  0  0  0  0
    7.9541  -17.4643   16.7769 C   0  0  0  0  0  0  0  0  0  0  0  0
    9.2099  -17.0136   16.3324 C   0  0  0  0  0  0  0  0  0  0  0  0
    9.3876  -16.7547   15.0130 N   0  0  0  0  0  0  0  0  0  0  0  0
   10.5737  -16.0658   14.5214 C   0  0  0  0  0  0  0  0  0  0  0  0
    8.6976  -17.0394   14.3710 H   0  0  0  0  0  0  0  0  0  0  0  0
   10.2689  -14.6671   14.3139 C   0  0  0  0  0  0  0  0  0  0  0  0
    9.9362  -14.2147   13.0241 C   0  0  0  0  0  0  0  0  0  0  0  0
    9.8966  -14.9960   12.1545 F   0  0  0  0  0  0  0  0  0  0  0  0
    9.6339  -12.8845   12.7218 C   0  0  0  0  0  0  0  0  0  0  0  0
    9.6665  -11.9776   13.7528 C   0  0  0  0  0  0  0  0  0  0  0  0
   10.0034  -12.3962   15.0417 C   0  0  0  0  0  0  0  0  0  0  0  0
   10.3213  -13.7103   15.3481 C   0  0  0  0  0  0  0  0  0  0  0  0
 16 15  2  0  0  0
 13 12  2  0  0  0
 13 14  1  0  0  0
 12 11  1  0  0  0
 15 14  1  0  0  0
 15 17  1  0  0  0
 14  9  2  0  0  0
 11 10  2  0  0  0
 42 41  1  0  0  0
 43 41  2  0  0  0
 43 44  1  0  0  0
  9 10  1  0  0  0
  9  8  1  0  0  0
  1 17  1  0  0  0
  1  2  1  0  0  0
  1  4  1  0  0  0
 17  7  1  0  0  0
  3  2  1  0  0  0
  3  6  1  0  0  0
 41 40  1  0  0  0
  5  4  1  0  0  0
  5  6  1  0  0  0
 44 45  2  0  0  0
 24 23  2  0  0  0
 24 25  1  0  0  0
  6 26  1  0  0  0
  8  7  1  0  0  0
  7 25  1  0  0  0
 23 22  1  0  0  0
 40 38  1  0  0  0
 40 46  2  0  0  0
 25 20  2  0  0  0
 38 37  1  0  0  0
 38 28  1  0  0  0
 45 46  1  0  0  0
 37 36  1  0  0  0
 26 27  1  0  0  0
 27 28  1  0  0  0
 22 21  2  0  0  0
 20 21  1  0  0  0
 20 19  1  0  0  0
 28 29  1  0  0  0
 36 35  1  0  0  0
 36 31  2  0  0  0
 35 34  2  0  0  0
 29 31  1  0  0  0
 29 30  2  0  0  0
 31 32  1  0  0  0
 34 33  1  0  0  0
 32 33  2  0  0  0
  8 18  1  0  0  0
 37 39  1  0  0  0
M  END
> <minimizedAffinity>
-15.28978

$$$$
5X74_JAY_A_201


 46 52  0  0  0  0  0  0  0  0999 V2000
   13.6474  -15.2539   14.9005 C   0  0  0  0  0  0  0  0  0  0  0  0
   14.5488  -16.3764   15.2773 C   0  0  0  0  0  0  0  0  0  0  0  0
   15.9628  -15.9096   15.1189 C   0  0  0  0  0  0  0  0  0  0  0  0
   13.8245  -14.9781   13.4095 C   0  0  0  0  0  0  0  0  0  0  0  0
   15.2889  -14.5747   13.0944 C   0  0  0  0  0  0  0  0  0  0  0  0
   16.2641  -15.5232   13.6902 N   0  0  0  0  0  0  0  0  0  0  0  0
   11.1343  -15.6456   14.2162 C   0  0  0  0  0  0  0  0  0  0  0  0
   10.1161  -16.6869   14.4873 N   0  0  0  0  0  0  0  0  0  0  0  0
    9.7482  -16.8741   15.7824 C   0  0  0  0  0  0  0  0  0  0  0  0
    8.5330  -17.4400   16.0061 C   0  0  0  0  0  0  0  0  0  0  0  0
    8.0915  -17.6494   17.2863 C   0  0  0  0  0  0  0  0  0  0  0  0
    8.9051  -17.2482   18.3116 C   0  0  0  0  0  0  0  0  0  0  0  0
   10.1432  -16.6943   18.0881 C   0  0  0  0  0  0  0  0  0  0  0  0
   10.5776  -16.4594   16.7972 C   0  0  0  0  0  0  0  0  0  0  0  0
   11.8893  -15.9183   16.5364 C   0  0  0  0  0  0  0  0  0  0  0  0
   12.8187  -15.9580   17.3912 O   0  0  0  0  0  0  0  0  0  0  0  0
   12.2274  -15.6430   15.2638 N   0  0  0  0  0  0  0  0  0  0  0  0
    9.7223  -17.2209   13.7600 H   0  0  0  0  0  0  0  0  0  0  0  0
   10.0003  -14.6949   11.9617 F   0  0  0  0  0  0  0  0  0  0  0  0
    9.9522  -13.9464   12.9845 C   0  0  0  0  0  0  0  0  0  0  0  0
    9.3374  -12.6939   12.8760 C   0  0  0  0  0  0  0  0  0  0  0  0
    9.2254  -11.8356   13.9630 C   0  0  0  0  0  0  0  0  0  0  0  0
    9.7577  -12.2505   15.1844 C   0  0  0  0  0  0  0  0  0  0  0  0
   10.4119  -13.4990   15.2743 C   0  0  0  0  0  0  0  0  0  0  0  0
   10.4942  -14.3771   14.1751 C   0  0  0  0  0  0  0  0  0  0  0  0
   16.5759  -16.6091   12.7430 C   0  0  0  0  0  0  0  0  0  0  0  0
   17.8520  -16.2915   11.9004 C   0  0  0  0  0  0  0  0  0  0  0  0
   18.8961  -17.3251   12.2224 N   0  0  0  0  0  0  0  0  0  0  0  0
   19.7152  -17.8318   11.2733 C   0  0  0  0  0  0  0  0  0  0  0  0
   19.5512  -17.4371   10.1020 O   0  0  0  0  0  0  0  0  0  0  0  0
   20.6701  -18.8311   11.6370 C   0  0  0  0  0  0  0  0  0  0  0  0
   21.5385  -19.4089   10.7114 C   0  0  0  0  0  0  0  0  0  0  0  0
   22.4389  -20.4475   11.0627 C   0  0  0  0  0  0  0  0  0  0  0  0
   22.4918  -20.9318   12.3589 C   0  0  0  0  0  0  0  0  0  0  0  0
   21.6064  -20.3726   13.2883 C   0  0  0  0  0  0  0  0  0  0  0  0
   20.7115  -19.3446   12.9416 C   0  0  0  0  0  0  0  0  0  0  0  0
   19.8553  -18.8719   13.8812 N   0  0  0  0  0  0  0  0  0  0  0  0
   19.0749  -17.6606   13.6652 C   0  0  0  0  0  0  0  0  0  0  0  0
   19.7587  -19.3597   14.7309 H   0  0  0  0  0  0  0  0  0  0  0  0
   19.7254  -16.5443   14.3155 C   0  0  0  0  0  0  0  0  0  0  0  0
   19.5590  -16.3563   15.6997 C   0  0  0  0  0  0  0  0  0  0  0  0
   18.9089  -17.1284   16.2909 F   0  0  0  0  0  0  0  0  0  0  0  0
   20.1390  -15.3062   16.4160 C   0  0  0  0  0  0  0  0  0  0  0  0
   20.9144  -14.4145   15.7160 C   0  0  0  0  0  0  0  0  0  0  0  0
   21.0891  -14.5702   14.3393 C   0  0  0  0  0  0  0  0  0  0  0  0
   20.5040  -15.5989   13.6172 C   0  0  0  0  0  0  0  0  0  0  0  0
 16 15  2  0  0  0
 13 12  2  0  0  0
 13 14  1  0  0  0
 12 11  1  0  0  0
 15 14  1  0  0  0
 15 17  1  0  0  0
 14  9  2  0  0  0
 11 10  2  0  0  0
 42 41  1  0  0  0
 43 41  2  0  0  0
 43 44  1  0  0  0
  9 10  1  0  0  0
  9  8  1  0  0  0
  1 17  1  0  0  0
  1  2  1  0  0  0
  1  4  1  0  0  0
 17  7  1  0  0  0
  3  2  1  0  0  0
  3  6  1  0  0  0
 41 40  1  0  0  0
  5  4  1  0  0  0
  5  6  1  0  0  0
 44 45  2  0  0  0
 24 23  2  0  0  0
 24 25  1  0  0  0
  6 26  1  0  0  0
  8  7  1  0  0  0
  7 25  1  0  0  0
 23 22  1  0  0  0
 40 38  1  0  0  0
 40 46  2  0  0  0
 25 20  2  0  0  0
 38 37  1  0  0  0
 38 28  1  0  0  0
 45 46  1  0  0  0
 37 36  1  0  0  0
 26 27  1  0  0  0
 27 28  1  0  0  0
 22 21  2  0  0  0
 20 21  1  0  0  0
 20 19  1  0  0  0
 28 29  1  0  0  0
 36 35  1  0  0  0
 36 31  2  0  0  0
 35 34  2  0  0  0
 29 31  1  0  0  0
 29 30  2  0  0  0
 31 32  1  0  0  0
 34 33  1  0  0  0
 32 33  2  0  0  0
  8 18  1  0  0  0
 37 39  1  0  0  0
M  END
> <minimizedAffinity>
-13.91540

$$$$
5X74_JAY_A_201


 46 52  0  0  0  0  0  0  0  0999 V2000
   13.8793  -15.8756   14.3029 C   0  0  0  0  0  0  0  0  0  0  0  0
   13.7169  -16.9432   13.2792 C   0  0  0  0  0  0  0  0  0  0  0  0
   14.7630  -17.9860   13.5258 C   0  0  0  0  0  0  0  0  0  0  0  0
   15.2170  -15.1809   14.0615 C   0  0  0  0  0  0  0  0  0  0  0  0
   16.3911  -16.1862   14.1926 C   0  0  0  0  0  0  0  0  0  0  0  0
   16.1562  -17.4175   13.3961 N   0  0  0  0  0  0  0  0  0  0  0  0
   11.9887  -14.4364   15.4394 C   0  0  0  0  0  0  0  0  0  0  0  0
   11.4470  -13.0700   15.2551 N   0  0  0  0  0  0  0  0  0  0  0  0
   10.8841  -12.7817   14.0520 C   0  0  0  0  0  0  0  0  0  0  0  0
    9.9876  -11.7609   14.0155 C   0  0  0  0  0  0  0  0  0  0  0  0
    9.3724  -11.4210   12.8393 C   0  0  0  0  0  0  0  0  0  0  0  0
    9.6782  -12.1583   11.7271 C   0  0  0  0  0  0  0  0  0  0  0  0
   10.5996  -13.1780   11.7570 C   0  0  0  0  0  0  0  0  0  0  0  0
   11.2009  -13.5377   12.9484 C   0  0  0  0  0  0  0  0  0  0  0  0
   12.2014  -14.5760   12.9975 C   0  0  0  0  0  0  0  0  0  0  0  0
   12.8291  -14.9584   11.9701 O   0  0  0  0  0  0  0  0  0  0  0  0
   12.6969  -14.9320   14.1964 N   0  0  0  0  0  0  0  0  0  0  0  0
   11.4927  -12.3988   15.9739 H   0  0  0  0  0  0  0  0  0  0  0  0
   11.1805  -14.7853   17.9885 F   0  0  0  0  0  0  0  0  0  0  0  0
   10.5729  -15.4562   17.1000 C   0  0  0  0  0  0  0  0  0  0  0  0
    9.5508  -16.3274   17.4932 C   0  0  0  0  0  0  0  0  0  0  0  0
    8.8261  -17.0715   16.5701 C   0  0  0  0  0  0  0  0  0  0  0  0
    9.1513  -16.9383   15.2197 C   0  0  0  0  0  0  0  0  0  0  0  0
   10.2110  -16.0871   14.8360 C   0  0  0  0  0  0  0  0  0  0  0  0
   10.9208  -15.3124   15.7752 C   0  0  0  0  0  0  0  0  0  0  0  0
   16.7063  -17.2679   12.0365 C   0  0  0  0  0  0  0  0  0  0  0  0
   18.0697  -16.5061   12.0458 C   0  0  0  0  0  0  0  0  0  0  0  0
   19.1679  -17.5121   12.2555 N   0  0  0  0  0  0  0  0  0  0  0  0
   19.9683  -17.9163   11.2433 C   0  0  0  0  0  0  0  0  0  0  0  0
   19.7408  -17.4503   10.1093 O   0  0  0  0  0  0  0  0  0  0  0  0
   20.9777  -18.8949   11.5003 C   0  0  0  0  0  0  0  0  0  0  0  0
   21.8312  -19.3694   10.5047 C   0  0  0  0  0  0  0  0  0  0  0  0
   22.7873  -20.3887   10.7486 C   0  0  0  0  0  0  0  0  0  0  0  0
   22.9126  -20.9574   12.0049 C   0  0  0  0  0  0  0  0  0  0  0  0
   22.0432  -20.5025   13.0037 C   0  0  0  0  0  0  0  0  0  0  0  0
   21.0931  -19.4938   12.7634 C   0  0  0  0  0  0  0  0  0  0  0  0
   20.2568  -19.1245   13.7651 N   0  0  0  0  0  0  0  0  0  0  0  0
   19.4187  -17.9370   13.6636 C   0  0  0  0  0  0  0  0  0  0  0  0
   20.2149  -19.6728   14.5817 H   0  0  0  0  0  0  0  0  0  0  0  0
   20.0481  -16.8400   14.3655 C   0  0  0  0  0  0  0  0  0  0  0  0
   19.9822  -16.7873   15.7697 C   0  0  0  0  0  0  0  0  0  0  0  0
   19.4316  -17.6523   16.3327 F   0  0  0  0  0  0  0  0  0  0  0  0
   20.5510  -15.7669   16.5361 C   0  0  0  0  0  0  0  0  0  0  0  0
   21.2100  -14.7647   15.8669 C   0  0  0  0  0  0  0  0  0  0  0  0
   21.2828  -14.7853   14.4725 C   0  0  0  0  0  0  0  0  0  0  0  0
   20.7071  -15.7843   13.7028 C   0  0  0  0  0  0  0  0  0  0  0  0
 16 15  2  0  0  0
 13 12  2  0  0  0
 13 14  1  0  0  0
 12 11  1  0  0  0
 15 14  1  0  0  0
 15 17  1  0  0  0
 14  9  2  0  0  0
 11 10  2  0  0  0
 42 41  1  0  0  0
 43 41  2  0  0  0
 43 44  1  0  0  0
  9 10  1  0  0  0
  9  8  1  0  0  0
  1 17  1  0  0  0
  1  2  1  0  0  0
  1  4  1  0  0  0
 17  7  1  0  0  0
  3  2  1  0  0  0
  3  6  1  0  0  0
 41 40  1  0  0  0
  5  4  1  0  0  0
  5  6  1  0  0  0
 44 45  2  0  0  0
 24 23  2  0  0  0
 24 25  1  0  0  0
  6 26  1  0  0  0
  8  7  1  0  0  0
  7 25  1  0  0  0
 23 22  1  0  0  0
 40 38  1  0  0  0
 40 46  2  0  0  0
 25 20  2  0  0  0
 38 37  1  0  0  0
 38 28  1  0  0  0
 45 46  1  0  0  0
 37 36  1  0  0  0
 26 27  1  0  0  0
 27 28  1  0  0  0
 22 21  2  0  0  0
 20 21  1  0  0  0
 20 19  1  0  0  0
 28 29  1  0  0  0
 36 35  1  0  0  0
 36 31  2  0  0  0
 35 34  2  0  0  0
 29 31  1  0  0  0
 29 30  2  0  0  0
 31 32  1  0  0  0
 34 33  1  0  0  0
 32 33  2  0  0  0
  8 18  1  0  0  0
 37 39  1  0  0  0
M  END
> <minimizedAffinity>
-13.24795

$$$$
5X74_JAY_A_201


 46 52  0  0  0  0  0  0  0  0999 V2000
   17.2280  -16.9107   12.5288 C   0  0  0  0  0  0  0  0  0  0  0  0
   16.2053  -17.8936   12.9786 C   0  0  0  0  0  0  0  0  0  0  0  0
   14.8527  -17.3327   12.6651 C   0  0  0  0  0  0  0  0  0  0  0  0
   17.0948  -15.6552   13.3869 C   0  0  0  0  0  0  0  0  0  0  0  0
   15.6865  -15.0250   13.2258 C   0  0  0  0  0  0  0  0  0  0  0  0
   14.6078  -16.0321   13.3928 N   0  0  0  0  0  0  0  0  0  0  0  0
   19.1496  -17.9601   13.9927 C   0  0  0  0  0  0  0  0  0  0  0  0
   20.0145  -19.1591   13.8978 N   0  0  0  0  0  0  0  0  0  0  0  0
   20.8442  -19.2436   12.8245 C   0  0  0  0  0  0  0  0  0  0  0  0
   21.9409  -20.0364   12.9495 C   0  0  0  0  0  0  0  0  0  0  0  0
   22.8273  -20.1611   11.9120 C   0  0  0  0  0  0  0  0  0  0  0  0
   22.5754  -19.4452   10.7727 C   0  0  0  0  0  0  0  0  0  0  0  0
   21.4563  -18.6585   10.6364 C   0  0  0  0  0  0  0  0  0  0  0  0
   20.5759  -18.5124   11.6917 C   0  0  0  0  0  0  0  0  0  0  0  0
   19.3734  -17.7263   11.5590 C   0  0  0  0  0  0  0  0  0  0  0  0
   18.8793  -17.4323   10.4342 O   0  0  0  0  0  0  0  0  0  0  0  0
   18.5933  -17.5608   12.6424 N   0  0  0  0  0  0  0  0  0  0  0  0
   19.9894  -19.8652   14.5835 H   0  0  0  0  0  0  0  0  0  0  0  0
   19.4003  -17.6195   16.6561 F   0  0  0  0  0  0  0  0  0  0  0  0
   19.9763  -16.7666   15.9147 C   0  0  0  0  0  0  0  0  0  0  0  0
   20.6801  -15.7164   16.5148 C   0  0  0  0  0  0  0  0  0  0  0  0
   21.3567  -14.7634   15.7631 C   0  0  0  0  0  0  0  0  0  0  0  0
   21.3102  -14.8703   14.3726 C   0  0  0  0  0  0  0  0  0  0  0  0
   20.5640  -15.9103   13.7756 C   0  0  0  0  0  0  0  0  0  0  0  0
   19.9062  -16.8908   14.5449 C   0  0  0  0  0  0  0  0  0  0  0  0
   14.1861  -16.1105   14.8033 C   0  0  0  0  0  0  0  0  0  0  0  0
   12.7176  -16.6249   14.9392 C   0  0  0  0  0  0  0  0  0  0  0  0
   11.7927  -15.4483   14.7903 N   0  0  0  0  0  0  0  0  0  0  0  0
   11.4581  -14.9524   13.5776 C   0  0  0  0  0  0  0  0  0  0  0  0
   11.9758  -15.4851   12.5760 O   0  0  0  0  0  0  0  0  0  0  0  0
   10.5951  -13.8157   13.5024 C   0  0  0  0  0  0  0  0  0  0  0  0
   10.2171  -13.2415   12.2891 C   0  0  0  0  0  0  0  0  0  0  0  0
    9.4146  -12.0737   12.2207 C   0  0  0  0  0  0  0  0  0  0  0  0
    8.9670  -11.4524   13.3745 C   0  0  0  0  0  0  0  0  0  0  0  0
    9.3619  -12.0098   14.5967 C   0  0  0  0  0  0  0  0  0  0  0  0
   10.1594  -13.1660   14.6667 C   0  0  0  0  0  0  0  0  0  0  0  0
   10.5365  -13.6335   15.8827 N   0  0  0  0  0  0  0  0  0  0  0  0
   11.1542  -14.9436   16.0408 C   0  0  0  0  0  0  0  0  0  0  0  0
   10.3891  -13.0734   16.6788 H   0  0  0  0  0  0  0  0  0  0  0  0
   10.1550  -15.9014   16.4610 C   0  0  0  0  0  0  0  0  0  0  0  0
    9.9511  -16.1326   17.8335 C   0  0  0  0  0  0  0  0  0  0  0  0
   10.5891  -15.5219   18.6004 F   0  0  0  0  0  0  0  0  0  0  0  0
    9.0170  -17.0412   18.3376 C   0  0  0  0  0  0  0  0  0  0  0  0
    8.2608  -17.7412   17.4295 C   0  0  0  0  0  0  0  0  0  0  0  0
    8.4483  -17.5398   16.0605 C   0  0  0  0  0  0  0  0  0  0  0  0
    9.3842  -16.6532   15.5507 C   0  0  0  0  0  0  0  0  0  0  0  0
 16 15  2  0  0  0
 13 12  2  0  0  0
 13 14  1  0  0  0
 12 11  1  0  0  0
 15 14  1  0  0  0
 15 17  1  0  0  0
 14  9  2  0  0  0
 11 10  2  0  0  0
 42 41  1  0  0  0
 43 41  2  0  0  0
 43 44  1  0  0  0
  9 10  1  0  0  0
  9  8  1  0  0  0
  1 17  1  0  0  0
  1  2  1  0  0  0
  1  4  1  0  0  0
 17  7  1  0  0  0
  3  2  1  0  0  0
  3  6  1  0  0  0
 41 40  1  0  0  0
  5  4  1  0  0  0
  5  6  1  0  0  0
 44 45  2  0  0  0
 24 23  2  0  0  0
 24 25  1  0  0  0
  6 26  1  0  0  0
  8  7  1  0  0  0
  7 25  1  0  0  0
 23 22  1  0  0  0
 40 38  1  0  0  0
 40 46  2  0  0  0
 25 20  2  0  0  0
 38 37  1  0  0  0
 38 28  1  0  0  0
 45 46  1  0  0  0
 37 36  1  0  0  0
 26 27  1  0  0  0
 27 28  1  0  0  0
 22 21  2  0  0  0
 20 21  1  0  0  0
 20 19  1  0  0  0
 28 29  1  0  0  0
 36 35  1  0  0  0
 36 31  2  0  0  0
 35 34  2  0  0  0
 29 31  1  0  0  0
 29 30  2  0  0  0
 31 32  1  0  0  0
 34 33  1  0  0  0
 32 33  2  0  0  0
  8 18  1  0  0  0
 37 39  1  0  0  0
M  END
> <minimizedAffinity>
-13.24498

$$$$
