4KCX_1QK_A_201


 32 35  0  0  0  0  0  0  0  0999 V2000
   31.4122  -25.7611    7.6853 C   0  0  0  0  0  0  0  0  0  0  0  0
   30.2928  -23.9919    3.9464 C   0  0  0  0  0  0  0  0  0  0  0  0
   29.3052  -24.8805    3.5326 C   0  0  0  0  0  0  0  0  0  0  0  0
   29.1766  -25.8745    4.4977 N   0  0  0  0  0  0  0  0  0  0  0  0
   30.1090  -25.5921    5.5238 N   0  0  0  0  0  0  0  0  0  0  0  0
   30.7675  -24.4365    5.1966 C   0  0  0  0  0  0  0  0  0  0  0  0
   31.8082  -23.8876    6.0902 N   0  0  0  0  0  0  0  0  0  0  0  0
   32.1131  -24.5413    7.3134 C   0  0  0  0  0  0  0  0  0  0  0  0
   30.4099  -26.2879    6.7970 C   0  0  0  0  0  0  0  0  0  0  0  0
   34.4852  -24.5281    8.1555 C   0  0  0  0  0  0  0  0  0  0  0  0
   34.9155  -23.2535   10.3256 C   0  0  0  0  0  0  0  0  0  0  0  0
   33.0264  -22.7064    8.9265 C   0  0  0  0  0  0  0  0  0  0  0  0
   33.1371  -23.9407    8.1357 N   0  0  0  0  0  0  0  0  0  0  0  0
   35.2721  -24.3855    9.4475 C   0  0  0  0  0  0  0  0  0  0  0  0
   33.4825  -22.9565   10.3260 C   0  0  0  0  0  0  0  0  0  0  0  0
   33.3452  -21.5612    7.9970 C   0  0  0  0  0  0  0  0  0  0  0  0
   32.2814  -20.5363    7.6995 C   0  0  0  0  0  0  0  0  0  0  0  0
   31.2534  -20.9843    6.8411 O   0  0  0  0  0  0  0  0  0  0  0  0
   30.7780  -21.7179    7.2615 H   0  0  0  0  0  0  0  0  0  0  0  0
   29.6838  -27.5127    7.0931 N   0  0  0  0  0  0  0  0  0  0  0  0
   30.0463  -28.3833    6.8105 H   0  0  0  0  0  0  0  0  0  0  0  0
   28.4371  -27.4462    7.7988 C   0  0  0  0  0  0  0  0  0  0  0  0
   27.0243  -27.6108    5.6656 C   0  0  0  0  0  0  0  0  0  0  0  0
   25.1615  -29.3200    5.5048 C   0  0  0  0  0  0  0  0  0  0  0  0
   27.2940  -28.0957    7.0340 C   0  0  0  0  0  0  0  0  0  0  0  0
   25.9325  -28.2252    4.9048 C   0  0  0  0  0  0  0  0  0  0  0  0
   25.4391  -29.7907    6.8784 N   0  0  0  0  0  0  0  0  0  0  0  0
   26.5163  -29.1736    7.6354 C   0  0  0  0  0  0  0  0  0  0  0  0
   24.7807  -30.7173    7.4005 O   0  0  0  0  0  0  0  0  0  0  0  0
   24.9765  -30.9972    8.2731 H   0  0  0  0  0  0  0  0  0  0  0  0
   30.0206  -21.4575    3.6472 C   0  0  0  0  0  0  0  0  0  0  0  0
   30.7519  -22.7156    3.2059 C   0  0  0  0  0  0  0  0  0  0  0  0
 32 31  1  0  0  0
 32  2  1  0  0  0
  3  2  1  0  0  0
  3  4  2  0  0  0
  2  6  2  0  0  0
  4  5  1  0  0  0
  6  5  1  0  0  0
  6  7  1  0  0  0
 18 17  1  0  0  0
  5  9  1  0  0  0
 17 16  1  0  0  0
  7  8  2  0  0  0
  9 20  1  0  0  0
  9  1  2  0  0  0
 20 22  1  0  0  0
  8  1  1  0  0  0
  8 13  1  0  0  0
 16 12  1  0  0  0
 12 13  1  0  0  0
 12 15  1  0  0  0
 13 10  1  0  0  0
 22 25  1  0  0  0
 23 25  2  0  0  0
 23 26  1  0  0  0
 15 11  1  0  0  0
 25 28  1  0  0  0
 26 24  2  0  0  0
 10 14  1  0  0  0
 11 14  1  0  0  0
 28 27  2  0  0  0
 24 27  1  0  0  0
 27 29  1  0  0  0
 20 21  1  0  0  0
 29 30  1  0  0  0
 18 19  1  0  0  0
M  CHG 1  27   1
M  END
> <minimizedAffinity>
-8.25779

$$$$
4KCX_1QK_A_201


 32 35  0  0  0  0  0  0  0  0999 V2000
   29.1430  -26.2258    3.1131 C   0  0  0  0  0  0  0  0  0  0  0  0
   30.1102  -22.1752    2.1031 C   0  0  0  0  0  0  0  0  0  0  0  0
   29.6790  -22.1352    0.7808 C   0  0  0  0  0  0  0  0  0  0  0  0
   29.1709  -23.3867    0.4466 N   0  0  0  0  0  0  0  0  0  0  0  0
   29.2976  -24.2140    1.5875 N   0  0  0  0  0  0  0  0  0  0  0  0
   29.8464  -23.4684    2.5970 C   0  0  0  0  0  0  0  0  0  0  0  0
   30.0969  -24.0705    3.9228 N   0  0  0  0  0  0  0  0  0  0  0  0
   29.7419  -25.4232    4.1689 C   0  0  0  0  0  0  0  0  0  0  0  0
   28.9171  -25.6264    1.8244 C   0  0  0  0  0  0  0  0  0  0  0  0
   30.7596  -25.1104    6.4498 C   0  0  0  0  0  0  0  0  0  0  0  0
   31.2196  -27.2333    7.7917 C   0  0  0  0  0  0  0  0  0  0  0  0
   29.5380  -27.2074    6.0605 C   0  0  0  0  0  0  0  0  0  0  0  0
   30.0120  -25.9377    5.4909 N   0  0  0  0  0  0  0  0  0  0  0  0
   31.6151  -25.8488    7.4656 C   0  0  0  0  0  0  0  0  0  0  0  0
   30.6864  -27.9643    6.6414 C   0  0  0  0  0  0  0  0  0  0  0  0
   28.1662  -26.9456    6.6317 C   0  0  0  0  0  0  0  0  0  0  0  0
   27.2039  -28.0941    6.7923 C   0  0  0  0  0  0  0  0  0  0  0  0
   27.6060  -29.0754    7.7248 O   0  0  0  0  0  0  0  0  0  0  0  0
   27.6646  -28.6778    8.6076 H   0  0  0  0  0  0  0  0  0  0  0  0
   28.3417  -26.3728    0.7168 N   0  0  0  0  0  0  0  0  0  0  0  0
   27.3650  -26.4695    0.6399 H   0  0  0  0  0  0  0  0  0  0  0  0
   29.2039  -26.9672   -0.2630 C   0  0  0  0  0  0  0  0  0  0  0  0
   27.7878  -25.5712   -1.8815 C   0  0  0  0  0  0  0  0  0  0  0  0
   27.9710  -25.9493   -4.3797 C   0  0  0  0  0  0  0  0  0  0  0  0
   28.7828  -26.6450   -1.6886 C   0  0  0  0  0  0  0  0  0  0  0  0
   27.3706  -25.2367   -3.2462 C   0  0  0  0  0  0  0  0  0  0  0  0
   28.9616  -27.0266   -4.1706 N   0  0  0  0  0  0  0  0  0  0  0  0
   29.3673  -27.3638   -2.8156 C   0  0  0  0  0  0  0  0  0  0  0  0
   29.4715  -27.6451   -5.1309 O   0  0  0  0  0  0  0  0  0  0  0  0
   30.0973  -28.3241   -4.9716 H   0  0  0  0  0  0  0  0  0  0  0  0
   29.7996  -20.4789    4.0038 C   0  0  0  0  0  0  0  0  0  0  0  0
   30.7158  -21.0045    2.9099 C   0  0  0  0  0  0  0  0  0  0  0  0
 32 31  1  0  0  0
 32  2  1  0  0  0
  3  2  1  0  0  0
  3  4  2  0  0  0
  2  6  2  0  0  0
  4  5  1  0  0  0
  6  5  1  0  0  0
  6  7  1  0  0  0
 18 17  1  0  0  0
  5  9  1  0  0  0
 17 16  1  0  0  0
  7  8  2  0  0  0
  9 20  1  0  0  0
  9  1  2  0  0  0
 20 22  1  0  0  0
  8  1  1  0  0  0
  8 13  1  0  0  0
 16 12  1  0  0  0
 12 13  1  0  0  0
 12 15  1  0  0  0
 13 10  1  0  0  0
 22 25  1  0  0  0
 23 25  2  0  0  0
 23 26  1  0  0  0
 15 11  1  0  0  0
 25 28  1  0  0  0
 26 24  2  0  0  0
 10 14  1  0  0  0
 11 14  1  0  0  0
 28 27  2  0  0  0
 24 27  1  0  0  0
 27 29  1  0  0  0
 20 21  1  0  0  0
 29 30  1  0  0  0
 18 19  1  0  0  0
M  CHG 1  27   1
M  END
> <minimizedAffinity>
-7.95976

$$$$
4KCX_1QK_A_201


 32 35  0  0  0  0  0  0  0  0999 V2000
   31.2031  -24.3902    6.3248 C   0  0  0  0  0  0  0  0  0  0  0  0
   29.8566  -23.6120    2.3318 C   0  0  0  0  0  0  0  0  0  0  0  0
   29.1940  -24.8033    2.0524 C   0  0  0  0  0  0  0  0  0  0  0  0
   29.2969  -25.6340    3.1639 N   0  0  0  0  0  0  0  0  0  0  0  0
   30.0431  -24.9390    4.1448 N   0  0  0  0  0  0  0  0  0  0  0  0
   30.3606  -23.7040    3.6446 C   0  0  0  0  0  0  0  0  0  0  0  0
   31.1419  -22.7456    4.4533 N   0  0  0  0  0  0  0  0  0  0  0  0
   31.5453  -23.0889    5.7708 C   0  0  0  0  0  0  0  0  0  0  0  0
   30.4517  -25.3157    5.5185 C   0  0  0  0  0  0  0  0  0  0  0  0
   33.7262  -21.9059    6.1957 C   0  0  0  0  0  0  0  0  0  0  0  0
   33.9608  -20.7253    8.4475 C   0  0  0  0  0  0  0  0  0  0  0  0
   31.7832  -21.1468    7.4956 C   0  0  0  0  0  0  0  0  0  0  0  0
   32.3002  -22.0973    6.5004 N   0  0  0  0  0  0  0  0  0  0  0  0
   34.6143  -21.4563    7.3437 C   0  0  0  0  0  0  0  0  0  0  0  0
   32.6105  -21.2099    8.7369 C   0  0  0  0  0  0  0  0  0  0  0  0
   31.2761  -19.9476    6.7331 C   0  0  0  0  0  0  0  0  0  0  0  0
   29.8119  -19.8598    6.3878 C   0  0  0  0  0  0  0  0  0  0  0  0
   29.4920  -20.2478    5.0682 O   0  0  0  0  0  0  0  0  0  0  0  0
   29.7194  -21.1823    4.9419 H   0  0  0  0  0  0  0  0  0  0  0  0
   30.0915  -26.6405    5.9981 N   0  0  0  0  0  0  0  0  0  0  0  0
   30.4475  -27.4421    5.5510 H   0  0  0  0  0  0  0  0  0  0  0  0
   29.2152  -26.7736    7.1255 C   0  0  0  0  0  0  0  0  0  0  0  0
   27.3367  -27.3608    5.4822 C   0  0  0  0  0  0  0  0  0  0  0  0
   25.5976  -29.0932    6.1078 C   0  0  0  0  0  0  0  0  0  0  0  0
   27.9611  -27.5719    6.8035 C   0  0  0  0  0  0  0  0  0  0  0  0
   26.1312  -28.1232    5.1448 C   0  0  0  0  0  0  0  0  0  0  0  0
   26.2301  -29.2892    7.4295 N   0  0  0  0  0  0  0  0  0  0  0  0
   27.4203  -28.5251    7.7665 C   0  0  0  0  0  0  0  0  0  0  0  0
   25.7762  -30.1075    8.2597 O   0  0  0  0  0  0  0  0  0  0  0  0
   26.1957  -30.2131    9.0909 H   0  0  0  0  0  0  0  0  0  0  0  0
   28.9723  -22.3864    0.2575 C   0  0  0  0  0  0  0  0  0  0  0  0
   29.9745  -22.3840    1.4012 C   0  0  0  0  0  0  0  0  0  0  0  0
 32 31  1  0  0  0
 32  2  1  0  0  0
  3  2  1  0  0  0
  3  4  2  0  0  0
  2  6  2  0  0  0
  4  5  1  0  0  0
  6  5  1  0  0  0
  6  7  1  0  0  0
 18 17  1  0  0  0
  5  9  1  0  0  0
 17 16  1  0  0  0
  7  8  2  0  0  0
  9 20  1  0  0  0
  9  1  2  0  0  0
 20 22  1  0  0  0
  8  1  1  0  0  0
  8 13  1  0  0  0
 16 12  1  0  0  0
 12 13  1  0  0  0
 12 15  1  0  0  0
 13 10  1  0  0  0
 22 25  1  0  0  0
 23 25  2  0  0  0
 23 26  1  0  0  0
 15 11  1  0  0  0
 25 28  1  0  0  0
 26 24  2  0  0  0
 10 14  1  0  0  0
 11 14  1  0  0  0
 28 27  2  0  0  0
 24 27  1  0  0  0
 27 29  1  0  0  0
 20 21  1  0  0  0
 29 30  1  0  0  0
 18 19  1  0  0  0
M  CHG 1  27   1
M  END
> <minimizedAffinity>
-7.88213

$$$$
4KCX_1QK_A_201


 32 35  0  0  0  0  0  0  0  0999 V2000
   29.2889  -25.9720    2.5897 C   0  0  0  0  0  0  0  0  0  0  0  0
   30.6359  -22.0593    3.7027 C   0  0  0  0  0  0  0  0  0  0  0  0
   30.9731  -22.2781    5.0348 C   0  0  0  0  0  0  0  0  0  0  0  0
   30.7099  -23.6096    5.3413 N   0  0  0  0  0  0  0  0  0  0  0  0
   30.1954  -24.2197    4.1729 N   0  0  0  0  0  0  0  0  0  0  0  0
   30.1741  -23.2817    3.1750 C   0  0  0  0  0  0  0  0  0  0  0  0
   29.6843  -23.6329    1.8261 N   0  0  0  0  0  0  0  0  0  0  0  0
   29.2580  -24.9582    1.5463 C   0  0  0  0  0  0  0  0  0  0  0  0
   29.7579  -25.6091    3.9009 C   0  0  0  0  0  0  0  0  0  0  0  0
   28.1868  -26.5262   -0.1059 C   0  0  0  0  0  0  0  0  0  0  0  0
   28.6183  -26.0453   -2.5761 C   0  0  0  0  0  0  0  0  0  0  0  0
   28.7829  -24.2884   -0.9294 C   0  0  0  0  0  0  0  0  0  0  0  0
   28.7990  -25.2253    0.2034 N   0  0  0  0  0  0  0  0  0  0  0  0
   28.3731  -27.0483   -1.5207 C   0  0  0  0  0  0  0  0  0  0  0  0
   29.4306  -24.9173   -2.1186 C   0  0  0  0  0  0  0  0  0  0  0  0
   27.4966  -23.5057   -0.8315 C   0  0  0  0  0  0  0  0  0  0  0  0
   27.5543  -22.0024   -0.7435 C   0  0  0  0  0  0  0  0  0  0  0  0
   28.2080  -21.5028    0.4042 O   0  0  0  0  0  0  0  0  0  0  0  0
   29.1361  -21.7849    0.3963 H   0  0  0  0  0  0  0  0  0  0  0  0
   29.7976  -26.5637    4.9974 N   0  0  0  0  0  0  0  0  0  0  0  0
   30.4082  -27.3351    4.9597 H   0  0  0  0  0  0  0  0  0  0  0  0
   28.9432  -26.3759    6.1338 C   0  0  0  0  0  0  0  0  0  0  0  0
   26.8633  -27.4160    5.0540 C   0  0  0  0  0  0  0  0  0  0  0  0
   25.6505  -29.3181    6.2067 C   0  0  0  0  0  0  0  0  0  0  0  0
   27.8080  -27.3869    6.1884 C   0  0  0  0  0  0  0  0  0  0  0  0
   25.7646  -28.3859    5.0793 C   0  0  0  0  0  0  0  0  0  0  0  0
   26.6005  -29.2728    7.3385 N   0  0  0  0  0  0  0  0  0  0  0  0
   27.6842  -28.3036    7.3165 C   0  0  0  0  0  0  0  0  0  0  0  0
   26.5050  -30.0579    8.3077 O   0  0  0  0  0  0  0  0  0  0  0  0
   27.1200  -30.0088    9.0128 H   0  0  0  0  0  0  0  0  0  0  0  0
   29.6461  -19.7592    3.1402 C   0  0  0  0  0  0  0  0  0  0  0  0
   30.7902  -20.7362    2.9193 C   0  0  0  0  0  0  0  0  0  0  0  0
 32 31  1  0  0  0
 32  2  1  0  0  0
  3  2  1  0  0  0
  3  4  2  0  0  0
  2  6  2  0  0  0
  4  5  1  0  0  0
  6  5  1  0  0  0
  6  7  1  0  0  0
 18 17  1  0  0  0
  5  9  1  0  0  0
 17 16  1  0  0  0
  7  8  2  0  0  0
  9 20  1  0  0  0
  9  1  2  0  0  0
 20 22  1  0  0  0
  8  1  1  0  0  0
  8 13  1  0  0  0
 16 12  1  0  0  0
 12 13  1  0  0  0
 12 15  1  0  0  0
 13 10  1  0  0  0
 22 25  1  0  0  0
 23 25  2  0  0  0
 23 26  1  0  0  0
 15 11  1  0  0  0
 25 28  1  0  0  0
 26 24  2  0  0  0
 10 14  1  0  0  0
 11 14  1  0  0  0
 28 27  2  0  0  0
 24 27  1  0  0  0
 27 29  1  0  0  0
 20 21  1  0  0  0
 29 30  1  0  0  0
 18 19  1  0  0  0
M  CHG 1  27   1
M  END
> <minimizedAffinity>
-7.86765

$$$$
4KCX_1QK_A_201


 32 35  0  0  0  0  0  0  0  0999 V2000
   31.2197  -25.0436    7.0346 C   0  0  0  0  0  0  0  0  0  0  0  0
   30.1233  -23.7379    3.1032 C   0  0  0  0  0  0  0  0  0  0  0  0
   29.3323  -24.8071    2.6938 C   0  0  0  0  0  0  0  0  0  0  0  0
   29.2937  -25.7436    3.7221 N   0  0  0  0  0  0  0  0  0  0  0  0
   30.0821  -25.2402    4.7837 N   0  0  0  0  0  0  0  0  0  0  0  0
   30.5643  -24.0129    4.4131 C   0  0  0  0  0  0  0  0  0  0  0  0
   31.4256  -23.2376    5.3296 N   0  0  0  0  0  0  0  0  0  0  0  0
   31.7365  -23.7488    6.6174 C   0  0  0  0  0  0  0  0  0  0  0  0
   30.3920  -25.7903    6.1243 C   0  0  0  0  0  0  0  0  0  0  0  0
   33.1010  -23.4840    8.7160 C   0  0  0  0  0  0  0  0  0  0  0  0
   33.5692  -21.0914    9.4748 C   0  0  0  0  0  0  0  0  0  0  0  0
   33.0777  -21.5793    7.1626 C   0  0  0  0  0  0  0  0  0  0  0  0
   32.5785  -22.9301    7.4578 N   0  0  0  0  0  0  0  0  0  0  0  0
   33.3323  -22.4996    9.8501 C   0  0  0  0  0  0  0  0  0  0  0  0
   32.7899  -20.6687    8.3104 C   0  0  0  0  0  0  0  0  0  0  0  0
   34.3422  -21.7467    6.3563 C   0  0  0  0  0  0  0  0  0  0  0  0
   34.2969  -21.5395    4.8644 C   0  0  0  0  0  0  0  0  0  0  0  0
   33.0909  -20.9858    4.3814 O   0  0  0  0  0  0  0  0  0  0  0  0
   32.9686  -20.0999    4.7570 H   0  0  0  0  0  0  0  0  0  0  0  0
   29.8573  -27.0991    6.4648 N   0  0  0  0  0  0  0  0  0  0  0  0
   30.2129  -27.9073    6.0292 H   0  0  0  0  0  0  0  0  0  0  0  0
   28.8096  -27.2070    7.4381 C   0  0  0  0  0  0  0  0  0  0  0  0
   26.9705  -28.9518    7.8221 C   0  0  0  0  0  0  0  0  0  0  0  0
   25.2677  -29.4227    6.0067 C   0  0  0  0  0  0  0  0  0  0  0  0
   27.6008  -27.9695    6.9176 C   0  0  0  0  0  0  0  0  0  0  0  0
   25.7998  -29.6946    7.3468 C   0  0  0  0  0  0  0  0  0  0  0  0
   25.9132  -28.4406    5.1099 N   0  0  0  0  0  0  0  0  0  0  0  0
   27.0804  -27.7115    5.5793 C   0  0  0  0  0  0  0  0  0  0  0  0
   25.4714  -28.2095    3.9626 O   0  0  0  0  0  0  0  0  0  0  0  0
   25.8989  -27.5821    3.4135 H   0  0  0  0  0  0  0  0  0  0  0  0
   29.7615  -21.2079    2.8694 C   0  0  0  0  0  0  0  0  0  0  0  0
   30.4223  -22.4529    2.2986 C   0  0  0  0  0  0  0  0  0  0  0  0
 32 31  1  0  0  0
 32  2  1  0  0  0
  3  2  1  0  0  0
  3  4  2  0  0  0
  2  6  2  0  0  0
  4  5  1  0  0  0
  6  5  1  0  0  0
  6  7  1  0  0  0
 18 17  1  0  0  0
  5  9  1  0  0  0
 17 16  1  0  0  0
  7  8  2  0  0  0
  9 20  1  0  0  0
  9  1  2  0  0  0
 20 22  1  0  0  0
  8  1  1  0  0  0
  8 13  1  0  0  0
 16 12  1  0  0  0
 12 13  1  0  0  0
 12 15  1  0  0  0
 13 10  1  0  0  0
 22 25  1  0  0  0
 23 25  2  0  0  0
 23 26  1  0  0  0
 15 11  1  0  0  0
 25 28  1  0  0  0
 26 24  2  0  0  0
 10 14  1  0  0  0
 11 14  1  0  0  0
 28 27  2  0  0  0
 24 27  1  0  0  0
 27 29  1  0  0  0
 20 21  1  0  0  0
 29 30  1  0  0  0
 18 19  1  0  0  0
M  CHG 1  27   1
M  END
> <minimizedAffinity>
-7.81060

$$$$
4KCX_1QK_A_201


 32 35  0  0  0  0  0  0  0  0999 V2000
   28.9435  -25.9022    2.6798 C   0  0  0  0  0  0  0  0  0  0  0  0
   31.0470  -22.4531    4.1085 C   0  0  0  0  0  0  0  0  0  0  0  0
   31.2993  -22.8376    5.4218 C   0  0  0  0  0  0  0  0  0  0  0  0
   30.7578  -24.1039    5.6202 N   0  0  0  0  0  0  0  0  0  0  0  0
   30.1560  -24.5029    4.4034 N   0  0  0  0  0  0  0  0  0  0  0  0
   30.3541  -23.5085    3.4824 C   0  0  0  0  0  0  0  0  0  0  0  0
   29.8346  -23.6466    2.1062 N   0  0  0  0  0  0  0  0  0  0  0  0
   29.1491  -24.8284    1.7194 C   0  0  0  0  0  0  0  0  0  0  0  0
   29.4461  -25.7456    4.0192 C   0  0  0  0  0  0  0  0  0  0  0  0
   28.8302  -23.7179   -0.5169 C   0  0  0  0  0  0  0  0  0  0  0  0
   27.0603  -24.7350   -2.0507 C   0  0  0  0  0  0  0  0  0  0  0  0
   28.1152  -26.0623   -0.3329 C   0  0  0  0  0  0  0  0  0  0  0  0
   28.6769  -24.8915    0.3561 N   0  0  0  0  0  0  0  0  0  0  0  0
   27.7751  -23.5267   -1.5935 C   0  0  0  0  0  0  0  0  0  0  0  0
   26.8181  -25.6994   -0.9770 C   0  0  0  0  0  0  0  0  0  0  0  0
   29.2807  -26.8467   -0.8836 C   0  0  0  0  0  0  0  0  0  0  0  0
   29.2740  -27.2548   -2.3342 C   0  0  0  0  0  0  0  0  0  0  0  0
   29.9960  -26.3966   -3.1924 O   0  0  0  0  0  0  0  0  0  0  0  0
   30.9325  -26.3999   -2.9398 H   0  0  0  0  0  0  0  0  0  0  0  0
   29.2602  -26.7674    5.0371 N   0  0  0  0  0  0  0  0  0  0  0  0
   29.7567  -27.6158    4.9829 H   0  0  0  0  0  0  0  0  0  0  0  0
   28.3500  -26.5334    6.1204 C   0  0  0  0  0  0  0  0  0  0  0  0
   27.1975  -28.3091    7.5670 C   0  0  0  0  0  0  0  0  0  0  0  0
   25.3122  -29.7018    6.6062 C   0  0  0  0  0  0  0  0  0  0  0  0
   27.3075  -27.6322    6.2593 C   0  0  0  0  0  0  0  0  0  0  0  0
   26.1957  -29.3667    7.7288 C   0  0  0  0  0  0  0  0  0  0  0  0
   25.4382  -29.0196    5.3008 N   0  0  0  0  0  0  0  0  0  0  0  0
   26.4390  -27.9773    5.1390 C   0  0  0  0  0  0  0  0  0  0  0  0
   24.6950  -29.3055    4.3361 O   0  0  0  0  0  0  0  0  0  0  0  0
   24.7952  -28.8583    3.5188 H   0  0  0  0  0  0  0  0  0  0  0  0
   32.9080  -20.7144    3.7917 C   0  0  0  0  0  0  0  0  0  0  0  0
   31.4917  -21.1361    3.4332 C   0  0  0  0  0  0  0  0  0  0  0  0
 32 31  1  0  0  0
 32  2  1  0  0  0
  3  2  1  0  0  0
  3  4  2  0  0  0
  2  6  2  0  0  0
  4  5  1  0  0  0
  6  5  1  0  0  0
  6  7  1  0  0  0
 18 17  1  0  0  0
  5  9  1  0  0  0
 17 16  1  0  0  0
  7  8  2  0  0  0
  9 20  1  0  0  0
  9  1  2  0  0  0
 20 22  1  0  0  0
  8  1  1  0  0  0
  8 13  1  0  0  0
 16 12  1  0  0  0
 12 13  1  0  0  0
 12 15  1  0  0  0
 13 10  1  0  0  0
 22 25  1  0  0  0
 23 25  2  0  0  0
 23 26  1  0  0  0
 15 11  1  0  0  0
 25 28  1  0  0  0
 26 24  2  0  0  0
 10 14  1  0  0  0
 11 14  1  0  0  0
 28 27  2  0  0  0
 24 27  1  0  0  0
 27 29  1  0  0  0
 20 21  1  0  0  0
 29 30  1  0  0  0
 18 19  1  0  0  0
M  CHG 1  27   1
M  END
> <minimizedAffinity>
-7.74608

$$$$
4KCX_1QK_A_201


 32 35  0  0  0  0  0  0  0  0999 V2000
   29.5579  -24.9215    2.5325 C   0  0  0  0  0  0  0  0  0  0  0  0
   29.7175  -20.6394    2.5507 C   0  0  0  0  0  0  0  0  0  0  0  0
   30.0819  -20.4062    3.8733 C   0  0  0  0  0  0  0  0  0  0  0  0
   30.2038  -21.6333    4.5179 N   0  0  0  0  0  0  0  0  0  0  0  0
   29.9029  -22.6410    3.5714 N   0  0  0  0  0  0  0  0  0  0  0  0
   29.6313  -22.0347    2.3735 C   0  0  0  0  0  0  0  0  0  0  0  0
   29.2830  -22.8423    1.1863 N   0  0  0  0  0  0  0  0  0  0  0  0
   29.2562  -24.2594    1.2723 C   0  0  0  0  0  0  0  0  0  0  0  0
   29.8834  -24.1186    3.6816 C   0  0  0  0  0  0  0  0  0  0  0  0
   28.7930  -26.4441    0.1110 C   0  0  0  0  0  0  0  0  0  0  0  0
   29.0184  -26.4513   -2.4323 C   0  0  0  0  0  0  0  0  0  0  0  0
   28.5661  -24.4027   -1.2390 C   0  0  0  0  0  0  0  0  0  0  0  0
   28.9135  -24.9790    0.0680 N   0  0  0  0  0  0  0  0  0  0  0  0
   29.1437  -27.1946   -1.1628 C   0  0  0  0  0  0  0  0  0  0  0  0
   29.3875  -25.0404   -2.3104 C   0  0  0  0  0  0  0  0  0  0  0  0
   27.0879  -24.1019   -1.2056 C   0  0  0  0  0  0  0  0  0  0  0  0
   26.1134  -25.1432   -1.6923 C   0  0  0  0  0  0  0  0  0  0  0  0
   25.4281  -25.8347   -0.6693 O   0  0  0  0  0  0  0  0  0  0  0  0
   24.8874  -25.2090   -0.1623 H   0  0  0  0  0  0  0  0  0  0  0  0
   30.1759  -24.7098    4.9777 N   0  0  0  0  0  0  0  0  0  0  0  0
   30.1921  -24.1473    5.7856 H   0  0  0  0  0  0  0  0  0  0  0  0
   30.4404  -26.1160    5.0735 C   0  0  0  0  0  0  0  0  0  0  0  0
   28.0499  -26.8894    5.5844 C   0  0  0  0  0  0  0  0  0  0  0  0
   27.5690  -28.2287    7.6801 C   0  0  0  0  0  0  0  0  0  0  0  0
   29.4672  -26.8353    5.9949 C   0  0  0  0  0  0  0  0  0  0  0  0
   27.0931  -27.5828    6.4516 C   0  0  0  0  0  0  0  0  0  0  0  0
   28.9902  -28.1608    8.0813 N   0  0  0  0  0  0  0  0  0  0  0  0
   29.9364  -27.4643    7.2248 C   0  0  0  0  0  0  0  0  0  0  0  0
   29.4025  -28.7010    9.1316 O   0  0  0  0  0  0  0  0  0  0  0  0
   30.3085  -28.6435    9.3636 H   0  0  0  0  0  0  0  0  0  0  0  0
   29.2945  -18.1687    1.9999 C   0  0  0  0  0  0  0  0  0  0  0  0
   29.5012  -19.5727    1.4537 C   0  0  0  0  0  0  0  0  0  0  0  0
 32 31  1  0  0  0
 32  2  1  0  0  0
  3  2  1  0  0  0
  3  4  2  0  0  0
  2  6  2  0  0  0
  4  5  1  0  0  0
  6  5  1  0  0  0
  6  7  1  0  0  0
 18 17  1  0  0  0
  5  9  1  0  0  0
 17 16  1  0  0  0
  7  8  2  0  0  0
  9 20  1  0  0  0
  9  1  2  0  0  0
 20 22  1  0  0  0
  8  1  1  0  0  0
  8 13  1  0  0  0
 16 12  1  0  0  0
 12 13  1  0  0  0
 12 15  1  0  0  0
 13 10  1  0  0  0
 22 25  1  0  0  0
 23 25  2  0  0  0
 23 26  1  0  0  0
 15 11  1  0  0  0
 25 28  1  0  0  0
 26 24  2  0  0  0
 10 14  1  0  0  0
 11 14  1  0  0  0
 28 27  2  0  0  0
 24 27  1  0  0  0
 27 29  1  0  0  0
 20 21  1  0  0  0
 29 30  1  0  0  0
 18 19  1  0  0  0
M  CHG 1  27   1
M  END
> <minimizedAffinity>
-7.70404

$$$$
4KCX_1QK_A_201


 32 35  0  0  0  0  0  0  0  0999 V2000
   31.1451  -24.8806    6.5971 C   0  0  0  0  0  0  0  0  0  0  0  0
   29.9981  -23.6598    2.6528 C   0  0  0  0  0  0  0  0  0  0  0  0
   29.1704  -24.7185    2.2919 C   0  0  0  0  0  0  0  0  0  0  0  0
   29.1294  -25.6236    3.3480 N   0  0  0  0  0  0  0  0  0  0  0  0
   29.9538  -25.1112    4.3774 N   0  0  0  0  0  0  0  0  0  0  0  0
   30.4602  -23.9087    3.9607 C   0  0  0  0  0  0  0  0  0  0  0  0
   31.3615  -23.1309    4.8356 N   0  0  0  0  0  0  0  0  0  0  0  0
   31.6867  -23.6129    6.1311 C   0  0  0  0  0  0  0  0  0  0  0  0
   30.2782  -25.6305    5.7268 C   0  0  0  0  0  0  0  0  0  0  0  0
   32.0575  -21.5486    7.5231 C   0  0  0  0  0  0  0  0  0  0  0  0
   34.4799  -20.8010    7.8271 C   0  0  0  0  0  0  0  0  0  0  0  0
   33.9525  -23.1004    7.3171 C   0  0  0  0  0  0  0  0  0  0  0  0
   32.5682  -22.7933    6.9291 N   0  0  0  0  0  0  0  0  0  0  0  0
   33.0585  -20.4203    7.7071 C   0  0  0  0  0  0  0  0  0  0  0  0
   34.8404  -21.9456    6.9896 C   0  0  0  0  0  0  0  0  0  0  0  0
   33.8802  -23.9378    8.5703 C   0  0  0  0  0  0  0  0  0  0  0  0
   34.9043  -23.7288    9.6557 C   0  0  0  0  0  0  0  0  0  0  0  0
   34.3881  -23.7654   10.9696 O   0  0  0  0  0  0  0  0  0  0  0  0
   34.0170  -24.6439   11.1469 H   0  0  0  0  0  0  0  0  0  0  0  0
   29.7166  -26.9141    6.1169 N   0  0  0  0  0  0  0  0  0  0  0  0
   30.0729  -27.7473    5.7322 H   0  0  0  0  0  0  0  0  0  0  0  0
   28.6413  -26.9602    7.0646 C   0  0  0  0  0  0  0  0  0  0  0  0
   26.9459  -27.4187    5.1967 C   0  0  0  0  0  0  0  0  0  0  0  0
   25.1824  -29.2128    5.4945 C   0  0  0  0  0  0  0  0  0  0  0  0
   27.4391  -27.7379    6.5513 C   0  0  0  0  0  0  0  0  0  0  0  0
   25.7930  -28.1590    4.6761 C   0  0  0  0  0  0  0  0  0  0  0  0
   25.6834  -29.5169    6.8517 N   0  0  0  0  0  0  0  0  0  0  0  0
   26.8211  -28.7750    7.3705 C   0  0  0  0  0  0  0  0  0  0  0  0
   25.1628  -30.4074    7.5594 O   0  0  0  0  0  0  0  0  0  0  0  0
   25.4991  -30.5809    8.4166 H   0  0  0  0  0  0  0  0  0  0  0  0
   29.5892  -22.3771    0.4679 C   0  0  0  0  0  0  0  0  0  0  0  0
   30.3134  -22.4071    1.8047 C   0  0  0  0  0  0  0  0  0  0  0  0
 32 31  1  0  0  0
 32  2  1  0  0  0
  3  2  1  0  0  0
  3  4  2  0  0  0
  2  6  2  0  0  0
  4  5  1  0  0  0
  6  5  1  0  0  0
  6  7  1  0  0  0
 18 17  1  0  0  0
  5  9  1  0  0  0
 17 16  1  0  0  0
  7  8  2  0  0  0
  9 20  1  0  0  0
  9  1  2  0  0  0
 20 22  1  0  0  0
  8  1  1  0  0  0
  8 13  1  0  0  0
 16 12  1  0  0  0
 12 13  1  0  0  0
 12 15  1  0  0  0
 13 10  1  0  0  0
 22 25  1  0  0  0
 23 25  2  0  0  0
 23 26  1  0  0  0
 15 11  1  0  0  0
 25 28  1  0  0  0
 26 24  2  0  0  0
 10 14  1  0  0  0
 11 14  1  0  0  0
 28 27  2  0  0  0
 24 27  1  0  0  0
 27 29  1  0  0  0
 20 21  1  0  0  0
 29 30  1  0  0  0
 18 19  1  0  0  0
M  CHG 1  27   1
M  END
> <minimizedAffinity>
-7.68922

$$$$
4KCX_1QK_A_201


 32 35  0  0  0  0  0  0  0  0999 V2000
   30.0193  -23.8415    3.1007 C   0  0  0  0  0  0  0  0  0  0  0  0
   28.2803  -25.5252   -0.4354 C   0  0  0  0  0  0  0  0  0  0  0  0
   28.3592  -26.8814   -0.1340 C   0  0  0  0  0  0  0  0  0  0  0  0
   28.9490  -27.0192    1.1186 N   0  0  0  0  0  0  0  0  0  0  0  0
   29.2429  -25.7193    1.5940 N   0  0  0  0  0  0  0  0  0  0  0  0
   28.8144  -24.8152    0.6585 C   0  0  0  0  0  0  0  0  0  0  0  0
   28.9864  -23.3651    0.8832 N   0  0  0  0  0  0  0  0  0  0  0  0
   29.5730  -22.8962    2.0884 C   0  0  0  0  0  0  0  0  0  0  0  0
   29.8546  -25.2508    2.8597 C   0  0  0  0  0  0  0  0  0  0  0  0
   29.9668  -20.8982    3.5678 C   0  0  0  0  0  0  0  0  0  0  0  0
   29.1736  -18.6433    2.6702 C   0  0  0  0  0  0  0  0  0  0  0  0
   29.6874  -20.4593    1.1656 C   0  0  0  0  0  0  0  0  0  0  0  0
   29.7011  -21.4655    2.2373 N   0  0  0  0  0  0  0  0  0  0  0  0
   29.4100  -19.5110    3.8411 C   0  0  0  0  0  0  0  0  0  0  0  0
   28.7094  -19.3800    1.4939 C   0  0  0  0  0  0  0  0  0  0  0  0
   31.0995  -20.3568    0.6436 C   0  0  0  0  0  0  0  0  0  0  0  0
   31.4357  -20.9627   -0.6945 C   0  0  0  0  0  0  0  0  0  0  0  0
   30.4814  -21.8818   -1.1831 O   0  0  0  0  0  0  0  0  0  0  0  0
   29.6366  -21.4264   -1.3241 H   0  0  0  0  0  0  0  0  0  0  0  0
   30.2951  -26.2535    3.8165 N   0  0  0  0  0  0  0  0  0  0  0  0
   30.5211  -27.1621    3.5121 H   0  0  0  0  0  0  0  0  0  0  0  0
   30.3989  -25.9124    5.2056 C   0  0  0  0  0  0  0  0  0  0  0  0
   28.0429  -26.8249    5.6421 C   0  0  0  0  0  0  0  0  0  0  0  0
   27.5970  -28.2698    7.6745 C   0  0  0  0  0  0  0  0  0  0  0  0
   29.4488  -26.7162    6.0802 C   0  0  0  0  0  0  0  0  0  0  0  0
   27.1088  -27.5998    6.4638 C   0  0  0  0  0  0  0  0  0  0  0  0
   29.0062  -28.1468    8.1038 N   0  0  0  0  0  0  0  0  0  0  0  0
   29.9294  -27.3697    7.2927 C   0  0  0  0  0  0  0  0  0  0  0  0
   29.4284  -28.7073    9.1394 O   0  0  0  0  0  0  0  0  0  0  0  0
   30.3264  -28.6137    9.3899 H   0  0  0  0  0  0  0  0  0  0  0  0
   27.9533  -25.6903   -2.9756 C   0  0  0  0  0  0  0  0  0  0  0  0
   27.6680  -24.8991   -1.7086 C   0  0  0  0  0  0  0  0  0  0  0  0
 32 31  1  0  0  0
 32  2  1  0  0  0
  3  2  1  0  0  0
  3  4  2  0  0  0
  2  6  2  0  0  0
  4  5  1  0  0  0
  6  5  1  0  0  0
  6  7  1  0  0  0
 18 17  1  0  0  0
  5  9  1  0  0  0
 17 16  1  0  0  0
  7  8  2  0  0  0
  9 20  1  0  0  0
  9  1  2  0  0  0
 20 22  1  0  0  0
  8  1  1  0  0  0
  8 13  1  0  0  0
 16 12  1  0  0  0
 12 13  1  0  0  0
 12 15  1  0  0  0
 13 10  1  0  0  0
 22 25  1  0  0  0
 23 25  2  0  0  0
 23 26  1  0  0  0
 15 11  1  0  0  0
 25 28  1  0  0  0
 26 24  2  0  0  0
 10 14  1  0  0  0
 11 14  1  0  0  0
 28 27  2  0  0  0
 24 27  1  0  0  0
 27 29  1  0  0  0
 20 21  1  0  0  0
 29 30  1  0  0  0
 18 19  1  0  0  0
M  CHG 1  27   1
M  END
> <minimizedAffinity>
-7.60241

$$$$
4KCX_1QK_A_201


 32 35  0  0  0  0  0  0  0  0999 V2000
   29.0211  -26.0943    2.5667 C   0  0  0  0  0  0  0  0  0  0  0  0
   30.8073  -22.3911    3.7745 C   0  0  0  0  0  0  0  0  0  0  0  0
   31.0299  -22.6468    5.1240 C   0  0  0  0  0  0  0  0  0  0  0  0
   30.5731  -23.9298    5.4090 N   0  0  0  0  0  0  0  0  0  0  0  0
   30.0545  -24.4713    4.2090 N   0  0  0  0  0  0  0  0  0  0  0  0
   30.2198  -23.5434    3.2151 C   0  0  0  0  0  0  0  0  0  0  0  0
   29.7712  -23.8323    1.8373 N   0  0  0  0  0  0  0  0  0  0  0  0
   29.1899  -25.0902    1.5271 C   0  0  0  0  0  0  0  0  0  0  0  0
   29.4531  -25.7911    3.9057 C   0  0  0  0  0  0  0  0  0  0  0  0
   28.2295  -26.6032   -0.2406 C   0  0  0  0  0  0  0  0  0  0  0  0
   28.7181  -25.9730   -2.6662 C   0  0  0  0  0  0  0  0  0  0  0  0
   28.7660  -24.3038   -0.9235 C   0  0  0  0  0  0  0  0  0  0  0  0
   28.7826  -25.2999    0.1575 N   0  0  0  0  0  0  0  0  0  0  0  0
   28.4786  -27.0402   -1.6744 C   0  0  0  0  0  0  0  0  0  0  0  0
   29.4731  -24.8431   -2.1228 C   0  0  0  0  0  0  0  0  0  0  0  0
   27.4488  -23.5742   -0.8259 C   0  0  0  0  0  0  0  0  0  0  0  0
   27.4097  -22.0886   -1.0756 C   0  0  0  0  0  0  0  0  0  0  0  0
   26.2946  -21.6440   -1.8193 O   0  0  0  0  0  0  0  0  0  0  0  0
   25.4810  -21.8324   -1.3260 H   0  0  0  0  0  0  0  0  0  0  0  0
   29.2977  -26.7374    4.9990 N   0  0  0  0  0  0  0  0  0  0  0  0
   29.8396  -27.5589    5.0229 H   0  0  0  0  0  0  0  0  0  0  0  0
   28.3512  -26.4680    6.0423 C   0  0  0  0  0  0  0  0  0  0  0  0
   27.2313  -28.2328    7.5272 C   0  0  0  0  0  0  0  0  0  0  0  0
   25.3635  -29.6718    6.6009 C   0  0  0  0  0  0  0  0  0  0  0  0
   27.3259  -27.5795    6.2064 C   0  0  0  0  0  0  0  0  0  0  0  0
   26.2462  -29.3021    7.7132 C   0  0  0  0  0  0  0  0  0  0  0  0
   25.4742  -29.0129    5.2822 N   0  0  0  0  0  0  0  0  0  0  0  0
   26.4585  -27.9589    5.0965 C   0  0  0  0  0  0  0  0  0  0  0  0
   24.7317  -29.3284    4.3262 O   0  0  0  0  0  0  0  0  0  0  0  0
   24.8220  -28.8954    3.5002 H   0  0  0  0  0  0  0  0  0  0  0  0
   31.2941  -19.8741    3.8943 C   0  0  0  0  0  0  0  0  0  0  0  0
   31.1846  -21.1041    3.0068 C   0  0  0  0  0  0  0  0  0  0  0  0
 32 31  1  0  0  0
 32  2  1  0  0  0
  3  2  1  0  0  0
  3  4  2  0  0  0
  2  6  2  0  0  0
  4  5  1  0  0  0
  6  5  1  0  0  0
  6  7  1  0  0  0
 18 17  1  0  0  0
  5  9  1  0  0  0
 17 16  1  0  0  0
  7  8  2  0  0  0
  9 20  1  0  0  0
  9  1  2  0  0  0
 20 22  1  0  0  0
  8  1  1  0  0  0
  8 13  1  0  0  0
 16 12  1  0  0  0
 12 13  1  0  0  0
 12 15  1  0  0  0
 13 10  1  0  0  0
 22 25  1  0  0  0
 23 25  2  0  0  0
 23 26  1  0  0  0
 15 11  1  0  0  0
 25 28  1  0  0  0
 26 24  2  0  0  0
 10 14  1  0  0  0
 11 14  1  0  0  0
 28 27  2  0  0  0
 24 27  1  0  0  0
 27 29  1  0  0  0
 20 21  1  0  0  0
 29 30  1  0  0  0
 18 19  1  0  0  0
M  CHG 1  27   1
M  END
> <minimizedAffinity>
-7.59762

$$$$
