3PS1_ZH2_A_401


 34 35  0  0  0  0  0  0  0  0999 V2000
   31.5543   -7.6500  -10.2525 C   0  0  0  0  0  0  0  0  0  0  0  0
   31.4866   -9.1433  -12.6224 C   0  0  0  0  0  0  0  0  0  0  0  0
   31.8342   -9.0170  -10.2308 C   0  0  0  0  0  0  0  0  0  0  0  0
   31.2296   -7.0196  -11.4582 C   0  0  0  0  0  0  0  0  0  0  0  0
   31.1807   -7.7816  -12.6384 C   0  0  0  0  0  0  0  0  0  0  0  0
   31.8053   -9.7764  -11.4124 C   0  0  0  0  0  0  0  0  0  0  0  0
   31.2649   -9.6951   -7.9067 N   0  0  0  0  0  0  0  0  0  0  0  0
   32.2461   -9.6399   -8.9429 C   0  0  0  0  0  0  0  0  0  0  0  0
   33.4216   -9.8174   -8.6893 O   0  0  0  0  0  0  0  0  0  0  0  0
   30.3496   -9.3753   -8.0776 H   0  0  0  0  0  0  0  0  0  0  0  0
   31.6168  -10.2215   -6.6052 C   0  0  0  0  0  0  0  0  0  0  0  0
   30.1526  -12.0632   -6.8891 O   0  0  0  0  0  0  0  0  0  0  0  0
   31.2744  -11.6820   -6.6087 C   0  0  0  0  0  0  0  0  0  0  0  0
   32.2735  -12.6589   -6.3479 N   0  0  0  0  0  0  0  0  0  0  0  0
   31.9135  -13.9089   -6.3737 O   0  0  0  0  0  0  0  0  0  0  0  0
   33.2033  -12.3993   -6.1550 H   0  0  0  0  0  0  0  0  0  0  0  0
   30.9673  -13.9688   -6.5787 H   0  0  0  0  0  0  0  0  0  0  0  0
   30.9038   -9.4733   -5.5128 C   0  0  0  0  0  0  0  0  0  0  0  0
   29.5811   -8.9868   -6.0035 C   0  0  0  0  0  0  0  0  0  0  0  0
   30.6951  -10.2897   -4.4327 O   0  0  0  0  0  0  0  0  0  0  0  0
   30.1415  -11.0410   -4.6974 H   0  0  0  0  0  0  0  0  0  0  0  0
   30.8725   -7.1269  -13.9544 C   0  0  0  0  0  0  0  0  0  0  0  0
   30.6336   -6.5732  -15.0210 C   0  0  0  0  0  0  0  0  0  0  0  0
   30.3393   -5.8513  -16.3090 C   0  0  0  0  0  0  0  0  0  0  0  0
   30.1050   -5.2385  -17.3427 C   0  0  0  0  0  0  0  0  0  0  0  0
   29.8238   -4.4941  -18.6128 C   0  0  0  0  0  0  0  0  0  0  0  0
   29.2764   -3.0629  -20.9377 C   0  0  0  0  0  0  0  0  0  0  0  0
   30.6025   -3.2073  -20.5036 C   0  0  0  0  0  0  0  0  0  0  0  0
   28.4962   -4.3416  -19.0349 C   0  0  0  0  0  0  0  0  0  0  0  0
   28.2253   -3.6298  -20.2038 C   0  0  0  0  0  0  0  0  0  0  0  0
   28.9954   -2.3259  -22.1267 N   0  0  0  0  0  0  0  0  0  0  0  0
   30.8765   -3.9184  -19.3356 C   0  0  0  0  0  0  0  0  0  0  0  0
   29.7318   -1.9267  -22.6441 H   0  0  0  0  0  0  0  0  0  0  0  0
   28.0651   -2.2166  -22.4298 H   0  0  0  0  0  0  0  0  0  0  0  0
 31 27  1  0  0  0
 27 28  2  0  0  0
 27 30  1  0  0  0
 28 32  1  0  0  0
 30 29  2  0  0  0
 32 26  2  0  0  0
 29 26  1  0  0  0
 26 25  1  0  0  0
 25 24  3  0  0  0
 24 23  1  0  0  0
 23 22  3  0  0  0
 22  5  1  0  0  0
  5  4  2  0  0  0
  5  2  1  0  0  0
  4  1  1  0  0  0
  2  6  2  0  0  0
  1  3  2  0  0  0
  6  3  1  0  0  0
  3  8  1  0  0  0
  8  7  1  0  0  0
  8  9  2  0  0  0
  7 11  1  0  0  0
 12 13  2  0  0  0
 13 11  1  0  0  0
 13 14  1  0  0  0
 11 18  1  0  0  0
 15 14  1  0  0  0
 19 18  1  0  0  0
 18 20  1  0  0  0
 14 16  1  0  0  0
 15 17  1  0  0  0
  7 10  1  0  0  0
 31 33  1  0  0  0
 31 34  1  0  0  0
 20 21  1  0  0  0
M  END
> <minimizedAffinity>
-10.58043

$$$$
3PS1_ZH2_A_401


 34 35  0  0  0  0  0  0  0  0999 V2000
   31.4811   -9.8362  -12.0929 C   0  0  0  0  0  0  0  0  0  0  0  0
   31.3060   -7.0397  -12.0710 C   0  0  0  0  0  0  0  0  0  0  0  0
   31.6181   -9.1321  -10.8958 C   0  0  0  0  0  0  0  0  0  0  0  0
   31.2639   -9.1473  -13.2908 C   0  0  0  0  0  0  0  0  0  0  0  0
   31.1958   -7.7434  -13.2713 C   0  0  0  0  0  0  0  0  0  0  0  0
   31.5306   -7.7302  -10.8713 C   0  0  0  0  0  0  0  0  0  0  0  0
   31.8798   -9.1467   -8.4226 N   0  0  0  0  0  0  0  0  0  0  0  0
   31.7760   -9.9010   -9.6308 C   0  0  0  0  0  0  0  0  0  0  0  0
   32.0950  -11.0737   -9.6551 O   0  0  0  0  0  0  0  0  0  0  0  0
   31.7968   -8.1660   -8.4456 H   0  0  0  0  0  0  0  0  0  0  0  0
   32.1070   -9.8248   -7.1643 C   0  0  0  0  0  0  0  0  0  0  0  0
   29.9859   -9.2374   -6.2854 O   0  0  0  0  0  0  0  0  0  0  0  0
   30.7619  -10.1299   -6.5742 C   0  0  0  0  0  0  0  0  0  0  0  0
   30.3375  -11.4754   -6.4007 N   0  0  0  0  0  0  0  0  0  0  0  0
   29.1568  -11.6726   -5.8911 O   0  0  0  0  0  0  0  0  0  0  0  0
   30.9156  -12.2301   -6.6567 H   0  0  0  0  0  0  0  0  0  0  0  0
   28.7387  -10.8176   -5.7036 H   0  0  0  0  0  0  0  0  0  0  0  0
   32.9526   -8.9851   -6.2470 C   0  0  0  0  0  0  0  0  0  0  0  0
   33.2905   -9.7545   -5.0137 C   0  0  0  0  0  0  0  0  0  0  0  0
   34.1185   -8.6244   -6.8694 O   0  0  0  0  0  0  0  0  0  0  0  0
   34.6211   -9.4209   -7.1013 H   0  0  0  0  0  0  0  0  0  0  0  0
   30.9259   -6.9773  -14.5345 C   0  0  0  0  0  0  0  0  0  0  0  0
   30.6987   -6.3331  -15.5517 C   0  0  0  0  0  0  0  0  0  0  0  0
   30.3840   -5.5199  -16.7790 C   0  0  0  0  0  0  0  0  0  0  0  0
   30.1033   -4.8492  -17.7640 C   0  0  0  0  0  0  0  0  0  0  0  0
   29.7683   -4.0246  -18.9700 C   0  0  0  0  0  0  0  0  0  0  0  0
   29.1023   -2.4606  -21.1753 C   0  0  0  0  0  0  0  0  0  0  0  0
   30.3356   -2.2726  -20.5339 C   0  0  0  0  0  0  0  0  0  0  0  0
   28.5293   -4.2073  -19.5989 C   0  0  0  0  0  0  0  0  0  0  0  0
   28.2010   -3.4270  -20.7078 C   0  0  0  0  0  0  0  0  0  0  0  0
   28.7591   -1.6563  -22.3028 N   0  0  0  0  0  0  0  0  0  0  0  0
   30.6667   -3.0512  -19.4253 C   0  0  0  0  0  0  0  0  0  0  0  0
   29.3903   -0.9768  -22.6332 H   0  0  0  0  0  0  0  0  0  0  0  0
   27.8911   -1.7808  -22.7504 H   0  0  0  0  0  0  0  0  0  0  0  0
 31 27  1  0  0  0
 27 28  2  0  0  0
 27 30  1  0  0  0
 28 32  1  0  0  0
 30 29  2  0  0  0
 32 26  2  0  0  0
 29 26  1  0  0  0
 26 25  1  0  0  0
 25 24  3  0  0  0
 24 23  1  0  0  0
 23 22  3  0  0  0
 22  5  1  0  0  0
  5  4  2  0  0  0
  5  2  1  0  0  0
  4  1  1  0  0  0
  2  6  2  0  0  0
  1  3  2  0  0  0
  6  3  1  0  0  0
  3  8  1  0  0  0
  8  7  1  0  0  0
  8  9  2  0  0  0
  7 11  1  0  0  0
 12 13  2  0  0  0
 13 11  1  0  0  0
 13 14  1  0  0  0
 11 18  1  0  0  0
 15 14  1  0  0  0
 19 18  1  0  0  0
 18 20  1  0  0  0
 14 16  1  0  0  0
 15 17  1  0  0  0
  7 10  1  0  0  0
 31 33  1  0  0  0
 31 34  1  0  0  0
 20 21  1  0  0  0
M  END
> <minimizedAffinity>
-8.76151

$$$$
