2ZGX_29U_H_1601


 30 31  0  0  0  0  0  0  0  0999 V2000
   17.0088  -11.8855   19.8473 C   0  0  0  0  0  0  0  0  0  0  0  0
   16.7742  -12.8873   19.2051 O   0  0  0  0  0  0  0  0  0  0  0  0
   16.1628  -10.8373   19.9796 N   0  0  0  0  0  0  0  0  0  0  0  0
   16.4249  -10.0228   20.4666 H   0  0  0  0  0  0  0  0  0  0  0  0
   17.6945  -13.3691   22.2540 C   0  0  0  0  0  0  0  0  0  0  0  0
   16.6727  -12.7150   22.4922 O   0  0  0  0  0  0  0  0  0  0  0  0
   18.5907  -12.9763   21.3134 N   0  0  0  0  0  0  0  0  0  0  0  0
   18.3512  -11.7759   20.5305 C   0  0  0  0  0  0  0  0  0  0  0  0
   19.4744  -11.8585   19.4510 C   0  0  0  0  0  0  0  0  0  0  0  0
   20.5707  -12.6262   20.2315 C   0  0  0  0  0  0  0  0  0  0  0  0
   19.7639  -13.7597   20.9136 C   0  0  0  0  0  0  0  0  0  0  0  0
   16.5555  -15.3341   23.2412 N   0  0  0  0  0  0  0  0  0  0  0  0
   17.8417  -14.6158   23.1114 C   0  0  0  0  0  0  0  0  0  0  0  0
   16.2529  -15.6582   22.3226 H   0  0  0  0  0  0  0  0  0  0  0  0
   15.8523  -14.7049   23.6284 H   0  0  0  0  0  0  0  0  0  0  0  0
   18.1936  -14.1752   24.5690 C   0  0  0  0  0  0  0  0  0  0  0  0
   19.4956  -13.4504   24.9614 C   0  0  0  0  0  0  0  0  0  0  0  0
   14.8450  -10.9692   19.3678 C   0  0  0  0  0  0  0  0  0  0  0  0
   13.8034  -10.9008   20.5020 C   0  0  0  0  0  0  0  0  0  0  0  0
   13.0448  -12.0189   20.8383 C   0  0  0  0  0  0  0  0  0  0  0  0
   12.1016  -11.9696   21.8585 C   0  0  0  0  0  0  0  0  0  0  0  0
   11.9037  -10.7828   22.5655 C   0  0  0  0  0  0  0  0  0  0  0  0
   12.6679   -9.6564   22.2271 C   0  0  0  0  0  0  0  0  0  0  0  0
   13.6115   -9.7136   21.2030 C   0  0  0  0  0  0  0  0  0  0  0  0
   10.8221  -10.7037   23.7411 C   0  0  0  0  0  0  0  0  0  0  0  0
   10.2178  -11.8207   24.1167 N   0  0  0  0  0  0  0  0  0  0  0  0
   10.5590   -9.5511   24.3016 N   0  0  0  0  0  0  0  0  0  0  0  0
   10.4383  -12.6723   23.6746 H   0  0  0  0  0  0  0  0  0  0  0  0
   11.0258   -8.7388   23.9992 H   0  0  0  0  0  0  0  0  0  0  0  0
    9.8942   -9.4962   25.0257 H   0  0  0  0  0  0  0  0  0  0  0  0
  8  7  1  0  0  0
 11  7  1  0  0  0
  7  5  1  0  0  0
  9  8  1  0  0  0
  1  8  1  0  0  0
  2  1  2  0  0  0
  1  3  1  0  0  0
 18  3  1  0  0  0
 18 19  1  0  0  0
 19 24  2  0  0  0
 19 20  1  0  0  0
 24 23  1  0  0  0
 23 22  2  0  0  0
 21 22  1  0  0  0
 22 25  1  0  0  0
 25 26  2  0  0  0
 25 27  1  0  0  0
 20 21  2  0  0  0
  9 10  1  0  0  0
 10 11  1  0  0  0
  5  6  2  0  0  0
  5 13  1  0  0  0
 12 13  1  0  0  0
 13 16  1  0  0  0
 16 17  1  0  0  0
 12 14  1  0  0  0
 12 15  1  0  0  0
  3  4  1  0  0  0
 26 28  1  0  0  0
 27 29  1  0  0  0
 27 30  1  0  0  0
M  END
> <minimizedAffinity>
-8.86253

$$$$
2ZGX_29U_H_1601


 30 31  0  0  0  0  0  0  0  0999 V2000
   14.6467  -14.5750   20.0284 C   0  0  0  0  0  0  0  0  0  0  0  0
   14.2776  -14.7842   18.8922 O   0  0  0  0  0  0  0  0  0  0  0  0
   14.0540  -13.7122   20.8864 N   0  0  0  0  0  0  0  0  0  0  0  0
   14.4275  -13.5372   21.7803 H   0  0  0  0  0  0  0  0  0  0  0  0
   17.1928  -13.2542   20.5149 C   0  0  0  0  0  0  0  0  0  0  0  0
   16.8710  -13.0331   19.3418 O   0  0  0  0  0  0  0  0  0  0  0  0
   16.7618  -14.3575   21.1778 N   0  0  0  0  0  0  0  0  0  0  0  0
   15.8733  -15.3034   20.5241 C   0  0  0  0  0  0  0  0  0  0  0  0
   15.4625  -16.2372   21.7044 C   0  0  0  0  0  0  0  0  0  0  0  0
   16.7224  -16.1424   22.6011 C   0  0  0  0  0  0  0  0  0  0  0  0
   17.0227  -14.6222   22.5961 C   0  0  0  0  0  0  0  0  0  0  0  0
   17.8741  -10.8734   20.4948 N   0  0  0  0  0  0  0  0  0  0  0  0
   18.1065  -12.1966   21.1130 C   0  0  0  0  0  0  0  0  0  0  0  0
   16.9215  -10.5677   20.6937 H   0  0  0  0  0  0  0  0  0  0  0  0
   18.0054  -10.9418   19.4856 H   0  0  0  0  0  0  0  0  0  0  0  0
   19.5826  -12.5497   20.7402 C   0  0  0  0  0  0  0  0  0  0  0  0
   20.3221  -11.9843   19.5122 C   0  0  0  0  0  0  0  0  0  0  0  0
   12.8363  -13.0534   20.4264 C   0  0  0  0  0  0  0  0  0  0  0  0
   12.5967  -11.8385   21.3445 C   0  0  0  0  0  0  0  0  0  0  0  0
   13.3196  -10.6617   21.1688 C   0  0  0  0  0  0  0  0  0  0  0  0
   13.1135   -9.5597   21.9909 C   0  0  0  0  0  0  0  0  0  0  0  0
   12.1665   -9.6230   23.0139 C   0  0  0  0  0  0  0  0  0  0  0  0
   11.4379  -10.8083   23.1910 C   0  0  0  0  0  0  0  0  0  0  0  0
   11.6503  -11.9090   22.3629 C   0  0  0  0  0  0  0  0  0  0  0  0
   11.9152   -8.3675   23.9726 C   0  0  0  0  0  0  0  0  0  0  0  0
   12.9116   -7.5180   24.1713 N   0  0  0  0  0  0  0  0  0  0  0  0
   10.7447   -8.2067   24.5345 N   0  0  0  0  0  0  0  0  0  0  0  0
   13.7806   -7.6675   23.7335 H   0  0  0  0  0  0  0  0  0  0  0  0
   10.0245   -8.8565   24.3663 H   0  0  0  0  0  0  0  0  0  0  0  0
   10.5841   -7.4359   25.1255 H   0  0  0  0  0  0  0  0  0  0  0  0
  8  7  1  0  0  0
 11  7  1  0  0  0
  7  5  1  0  0  0
  9  8  1  0  0  0
  1  8  1  0  0  0
  2  1  2  0  0  0
  1  3  1  0  0  0
 18  3  1  0  0  0
 18 19  1  0  0  0
 19 24  2  0  0  0
 19 20  1  0  0  0
 24 23  1  0  0  0
 23 22  2  0  0  0
 21 22  1  0  0  0
 22 25  1  0  0  0
 25 26  2  0  0  0
 25 27  1  0  0  0
 20 21  2  0  0  0
  9 10  1  0  0  0
 10 11  1  0  0  0
  5  6  2  0  0  0
  5 13  1  0  0  0
 12 13  1  0  0  0
 13 16  1  0  0  0
 16 17  1  0  0  0
 12 14  1  0  0  0
 12 15  1  0  0  0
  3  4  1  0  0  0
 26 28  1  0  0  0
 27 29  1  0  0  0
 27 30  1  0  0  0
M  END
> <minimizedAffinity>
-8.15593

$$$$
2ZGX_29U_H_1601


 30 31  0  0  0  0  0  0  0  0999 V2000
   15.7515  -14.5549   20.8667 C   0  0  0  0  0  0  0  0  0  0  0  0
   15.9773  -14.4546   19.6792 O   0  0  0  0  0  0  0  0  0  0  0  0
   16.6914  -14.4984   21.8389 N   0  0  0  0  0  0  0  0  0  0  0  0
   16.4620  -14.6420   22.7855 H   0  0  0  0  0  0  0  0  0  0  0  0
   13.8161  -12.4074   21.1923 C   0  0  0  0  0  0  0  0  0  0  0  0
   14.7900  -12.1495   21.9090 O   0  0  0  0  0  0  0  0  0  0  0  0
   13.4976  -13.6821   20.8517 N   0  0  0  0  0  0  0  0  0  0  0  0
   14.3247  -14.7884   21.3029 C   0  0  0  0  0  0  0  0  0  0  0  0
   13.7397  -15.9868   20.4933 C   0  0  0  0  0  0  0  0  0  0  0  0
   12.2680  -15.5327   20.3255 C   0  0  0  0  0  0  0  0  0  0  0  0
   12.4212  -14.0438   19.9242 C   0  0  0  0  0  0  0  0  0  0  0  0
   13.7345  -10.4408   19.6892 N   0  0  0  0  0  0  0  0  0  0  0  0
   13.0293  -11.1814   20.7576 C   0  0  0  0  0  0  0  0  0  0  0  0
   13.8147  -11.0319   18.8618 H   0  0  0  0  0  0  0  0  0  0  0  0
   14.6662  -10.1814   20.0134 H   0  0  0  0  0  0  0  0  0  0  0  0
   12.9712  -10.1801   21.9561 C   0  0  0  0  0  0  0  0  0  0  0  0
   11.7009   -9.8912   22.7791 C   0  0  0  0  0  0  0  0  0  0  0  0
   18.0600  -14.2150   21.4205 C   0  0  0  0  0  0  0  0  0  0  0  0
   18.8869  -13.9608   22.6964 C   0  0  0  0  0  0  0  0  0  0  0  0
   20.2470  -13.6743   22.6162 C   0  0  0  0  0  0  0  0  0  0  0  0
   21.0037  -13.4442   23.7596 C   0  0  0  0  0  0  0  0  0  0  0  0
   20.3988  -13.4981   25.0160 C   0  0  0  0  0  0  0  0  0  0  0  0
   19.0286  -13.7863   25.0971 C   0  0  0  0  0  0  0  0  0  0  0  0
   18.2766  -14.0161   23.9463 C   0  0  0  0  0  0  0  0  0  0  0  0
   21.2514  -13.2388   26.3442 C   0  0  0  0  0  0  0  0  0  0  0  0
   20.9285  -12.2059   27.1077 N   0  0  0  0  0  0  0  0  0  0  0  0
   22.2386  -14.0423   26.6464 N   0  0  0  0  0  0  0  0  0  0  0  0
   20.1797  -11.6200   26.8523 H   0  0  0  0  0  0  0  0  0  0  0  0
   22.4532  -14.8016   26.0575 H   0  0  0  0  0  0  0  0  0  0  0  0
   22.7669  -13.8878   27.4626 H   0  0  0  0  0  0  0  0  0  0  0  0
  8  7  1  0  0  0
 11  7  1  0  0  0
  7  5  1  0  0  0
  9  8  1  0  0  0
  1  8  1  0  0  0
  2  1  2  0  0  0
  1  3  1  0  0  0
 18  3  1  0  0  0
 18 19  1  0  0  0
 19 24  2  0  0  0
 19 20  1  0  0  0
 24 23  1  0  0  0
 23 22  2  0  0  0
 21 22  1  0  0  0
 22 25  1  0  0  0
 25 26  2  0  0  0
 25 27  1  0  0  0
 20 21  2  0  0  0
  9 10  1  0  0  0
 10 11  1  0  0  0
  5  6  2  0  0  0
  5 13  1  0  0  0
 12 13  1  0  0  0
 13 16  1  0  0  0
 16 17  1  0  0  0
 12 14  1  0  0  0
 12 15  1  0  0  0
  3  4  1  0  0  0
 26 28  1  0  0  0
 27 29  1  0  0  0
 27 30  1  0  0  0
M  END
> <minimizedAffinity>
-7.55472

$$$$
2ZGX_29U_H_1601


 30 31  0  0  0  0  0  0  0  0999 V2000
   14.5168  -14.4041   20.7305 C   0  0  0  0  0  0  0  0  0  0  0  0
   14.6395  -14.2919   19.5290 O   0  0  0  0  0  0  0  0  0  0  0  0
   13.6181  -13.7260   21.4816 N   0  0  0  0  0  0  0  0  0  0  0  0
   13.5976  -13.8121   22.4621 H   0  0  0  0  0  0  0  0  0  0  0  0
   13.8127  -17.1507   21.3820 C   0  0  0  0  0  0  0  0  0  0  0  0
   12.9521  -16.4131   21.8760 O   0  0  0  0  0  0  0  0  0  0  0  0
   15.0781  -16.7170   21.1517 N   0  0  0  0  0  0  0  0  0  0  0  0
   15.4484  -15.3454   21.4564 C   0  0  0  0  0  0  0  0  0  0  0  0
   16.8687  -15.2398   20.8196 C   0  0  0  0  0  0  0  0  0  0  0  0
   17.3518  -16.7066   20.9435 C   0  0  0  0  0  0  0  0  0  0  0  0
   16.1110  -17.5081   20.4755 C   0  0  0  0  0  0  0  0  0  0  0  0
   11.9201  -18.5460   20.6046 N   0  0  0  0  0  0  0  0  0  0  0  0
   13.3199  -18.5571   21.0816 C   0  0  0  0  0  0  0  0  0  0  0  0
   11.8651  -18.0343   19.7240 H   0  0  0  0  0  0  0  0  0  0  0  0
   11.3277  -18.0916   21.2995 H   0  0  0  0  0  0  0  0  0  0  0  0
   13.2714  -19.3610   22.4210 C   0  0  0  0  0  0  0  0  0  0  0  0
   14.3419  -19.2646   23.5253 C   0  0  0  0  0  0  0  0  0  0  0  0
   12.6812  -12.8615   20.7723 C   0  0  0  0  0  0  0  0  0  0  0  0
   12.4399  -11.6224   21.6569 C   0  0  0  0  0  0  0  0  0  0  0  0
   11.5057  -11.6571   22.6887 C   0  0  0  0  0  0  0  0  0  0  0  0
   11.2783  -10.5459   23.4927 C   0  0  0  0  0  0  0  0  0  0  0  0
   11.9946   -9.3690   23.2708 C   0  0  0  0  0  0  0  0  0  0  0  0
   12.9360   -9.3338   22.2317 C   0  0  0  0  0  0  0  0  0  0  0  0
   13.1583  -10.4518   21.4298 C   0  0  0  0  0  0  0  0  0  0  0  0
   11.7469   -8.0784   24.1826 C   0  0  0  0  0  0  0  0  0  0  0  0
   12.7849   -7.3146   24.4875 N   0  0  0  0  0  0  0  0  0  0  0  0
   10.5385   -7.8062   24.6039 N   0  0  0  0  0  0  0  0  0  0  0  0
   13.6818   -7.5470   24.1545 H   0  0  0  0  0  0  0  0  0  0  0  0
    9.7878   -8.3944   24.3594 H   0  0  0  0  0  0  0  0  0  0  0  0
   10.3799   -7.0132   25.1654 H   0  0  0  0  0  0  0  0  0  0  0  0
  8  7  1  0  0  0
 11  7  1  0  0  0
  7  5  1  0  0  0
  9  8  1  0  0  0
  1  8  1  0  0  0
  2  1  2  0  0  0
  1  3  1  0  0  0
 18  3  1  0  0  0
 18 19  1  0  0  0
 19 24  2  0  0  0
 19 20  1  0  0  0
 24 23  1  0  0  0
 23 22  2  0  0  0
 21 22  1  0  0  0
 22 25  1  0  0  0
 25 26  2  0  0  0
 25 27  1  0  0  0
 20 21  2  0  0  0
  9 10  1  0  0  0
 10 11  1  0  0  0
  5  6  2  0  0  0
  5 13  1  0  0  0
 12 13  1  0  0  0
 13 16  1  0  0  0
 16 17  1  0  0  0
 12 14  1  0  0  0
 12 15  1  0  0  0
  3  4  1  0  0  0
 26 28  1  0  0  0
 27 29  1  0  0  0
 27 30  1  0  0  0
M  END
> <minimizedAffinity>
-7.28777

$$$$
2ZGX_29U_H_1601


 30 31  0  0  0  0  0  0  0  0999 V2000
   15.2280  -11.4144   19.0099 C   0  0  0  0  0  0  0  0  0  0  0  0
   15.3463  -11.2819   17.8101 O   0  0  0  0  0  0  0  0  0  0  0  0
   16.2296  -11.7627   19.8509 N   0  0  0  0  0  0  0  0  0  0  0  0
   16.0674  -11.9119   20.8104 H   0  0  0  0  0  0  0  0  0  0  0  0
   13.6258  -13.5824   20.1036 C   0  0  0  0  0  0  0  0  0  0  0  0
   13.8926  -13.8653   18.9300 O   0  0  0  0  0  0  0  0  0  0  0  0
   13.5718  -12.2961   20.5336 N   0  0  0  0  0  0  0  0  0  0  0  0
   13.8613  -11.2057   19.6179 C   0  0  0  0  0  0  0  0  0  0  0  0
   13.9189   -9.9775   20.5780 C   0  0  0  0  0  0  0  0  0  0  0  0
   12.9381  -10.4310   21.6882 C   0  0  0  0  0  0  0  0  0  0  0  0
   13.3637  -11.9012   21.9302 C   0  0  0  0  0  0  0  0  0  0  0  0
   14.6084  -15.3033   21.5888 N   0  0  0  0  0  0  0  0  0  0  0  0
   13.3592  -14.7929   20.9838 C   0  0  0  0  0  0  0  0  0  0  0  0
   15.0050  -14.5912   22.2020 H   0  0  0  0  0  0  0  0  0  0  0  0
   15.2765  -15.5274   20.8514 H   0  0  0  0  0  0  0  0  0  0  0  0
   12.8560  -15.9626   20.0775 C   0  0  0  0  0  0  0  0  0  0  0  0
   11.3834  -16.1701   19.6739 C   0  0  0  0  0  0  0  0  0  0  0  0
   17.5604  -11.9071   19.2709 C   0  0  0  0  0  0  0  0  0  0  0  0
   18.5074  -12.3569   20.4010 C   0  0  0  0  0  0  0  0  0  0  0  0
   18.0018  -12.7496   21.6374 C   0  0  0  0  0  0  0  0  0  0  0  0
   18.8455  -13.1563   22.6648 C   0  0  0  0  0  0  0  0  0  0  0  0
   20.2263  -13.1758   22.4638 C   0  0  0  0  0  0  0  0  0  0  0  0
   20.7359  -12.7806   21.2183 C   0  0  0  0  0  0  0  0  0  0  0  0
   19.8837  -12.3739   20.1932 C   0  0  0  0  0  0  0  0  0  0  0  0
   21.2150  -13.6380   23.6331 C   0  0  0  0  0  0  0  0  0  0  0  0
   22.5199  -13.5339   23.4318 N   0  0  0  0  0  0  0  0  0  0  0  0
   20.7211  -14.1039   24.7514 N   0  0  0  0  0  0  0  0  0  0  0  0
   22.8596  -13.1790   22.5787 H   0  0  0  0  0  0  0  0  0  0  0  0
   19.7459  -14.1685   24.8697 H   0  0  0  0  0  0  0  0  0  0  0  0
   21.3247  -14.3899   25.4747 H   0  0  0  0  0  0  0  0  0  0  0  0
  8  7  1  0  0  0
 11  7  1  0  0  0
  7  5  1  0  0  0
  9  8  1  0  0  0
  1  8  1  0  0  0
  2  1  2  0  0  0
  1  3  1  0  0  0
 18  3  1  0  0  0
 18 19  1  0  0  0
 19 24  2  0  0  0
 19 20  1  0  0  0
 24 23  1  0  0  0
 23 22  2  0  0  0
 21 22  1  0  0  0
 22 25  1  0  0  0
 25 26  2  0  0  0
 25 27  1  0  0  0
 20 21  2  0  0  0
  9 10  1  0  0  0
 10 11  1  0  0  0
  5  6  2  0  0  0
  5 13  1  0  0  0
 12 13  1  0  0  0
 13 16  1  0  0  0
 16 17  1  0  0  0
 12 14  1  0  0  0
 12 15  1  0  0  0
  3  4  1  0  0  0
 26 28  1  0  0  0
 27 29  1  0  0  0
 27 30  1  0  0  0
M  END
> <minimizedAffinity>
-6.97540

$$$$
2ZGX_29U_H_1601


 30 31  0  0  0  0  0  0  0  0999 V2000
   16.1690  -13.9535   21.4360 C   0  0  0  0  0  0  0  0  0  0  0  0
   15.7110  -15.0344   21.7411 O   0  0  0  0  0  0  0  0  0  0  0  0
   16.9048  -13.1672   22.2558 N   0  0  0  0  0  0  0  0  0  0  0  0
   17.2056  -12.2722   21.9771 H   0  0  0  0  0  0  0  0  0  0  0  0
   14.0172  -12.0797   20.8683 C   0  0  0  0  0  0  0  0  0  0  0  0
   13.5198  -13.0716   21.4136 O   0  0  0  0  0  0  0  0  0  0  0  0
   15.1729  -12.1581   20.1608 N   0  0  0  0  0  0  0  0  0  0  0  0
   15.8799  -13.4228   20.0519 C   0  0  0  0  0  0  0  0  0  0  0  0
   17.2234  -12.9915   19.3866 C   0  0  0  0  0  0  0  0  0  0  0  0
   16.7594  -11.7609   18.5675 C   0  0  0  0  0  0  0  0  0  0  0  0
   15.8649  -11.0029   19.5806 C   0  0  0  0  0  0  0  0  0  0  0  0
   14.0266   -9.7441   21.6917 N   0  0  0  0  0  0  0  0  0  0  0  0
   13.2126  -10.8039   21.0582 C   0  0  0  0  0  0  0  0  0  0  0  0
   14.8029   -9.4986   21.0772 H   0  0  0  0  0  0  0  0  0  0  0  0
   14.3917  -10.0822   22.5821 H   0  0  0  0  0  0  0  0  0  0  0  0
   12.0701  -11.0878   22.0861 C   0  0  0  0  0  0  0  0  0  0  0  0
   11.5396  -10.0515   23.0957 C   0  0  0  0  0  0  0  0  0  0  0  0
   17.2319  -13.7062   23.5715 C   0  0  0  0  0  0  0  0  0  0  0  0
   18.7683  -13.7113   23.6965 C   0  0  0  0  0  0  0  0  0  0  0  0
   19.5714  -13.4143   22.5986 C   0  0  0  0  0  0  0  0  0  0  0  0
   20.9581  -13.4166   22.6983 C   0  0  0  0  0  0  0  0  0  0  0  0
   21.5669  -13.7202   23.9168 C   0  0  0  0  0  0  0  0  0  0  0  0
   20.7581  -14.0191   25.0230 C   0  0  0  0  0  0  0  0  0  0  0  0
   19.3686  -14.0149   24.9152 C   0  0  0  0  0  0  0  0  0  0  0  0
   23.1605  -13.7308   24.0528 C   0  0  0  0  0  0  0  0  0  0  0  0
   23.7831  -12.5785   24.2494 N   0  0  0  0  0  0  0  0  0  0  0  0
   23.8094  -14.8637   23.9682 N   0  0  0  0  0  0  0  0  0  0  0  0
   23.2655  -11.7432   24.3085 H   0  0  0  0  0  0  0  0  0  0  0  0
   23.3168  -15.7034   23.8215 H   0  0  0  0  0  0  0  0  0  0  0  0
   24.7904  -14.8765   24.0511 H   0  0  0  0  0  0  0  0  0  0  0  0
  8  7  1  0  0  0
 11  7  1  0  0  0
  7  5  1  0  0  0
  9  8  1  0  0  0
  1  8  1  0  0  0
  2  1  2  0  0  0
  1  3  1  0  0  0
 18  3  1  0  0  0
 18 19  1  0  0  0
 19 24  2  0  0  0
 19 20  1  0  0  0
 24 23  1  0  0  0
 23 22  2  0  0  0
 21 22  1  0  0  0
 22 25  1  0  0  0
 25 26  2  0  0  0
 25 27  1  0  0  0
 20 21  2  0  0  0
  9 10  1  0  0  0
 10 11  1  0  0  0
  5  6  2  0  0  0
  5 13  1  0  0  0
 12 13  1  0  0  0
 13 16  1  0  0  0
 16 17  1  0  0  0
 12 14  1  0  0  0
 12 15  1  0  0  0
  3  4  1  0  0  0
 26 28  1  0  0  0
 27 29  1  0  0  0
 27 30  1  0  0  0
M  END
> <minimizedAffinity>
-6.76829

$$$$
2ZGX_29U_H_1601


 30 31  0  0  0  0  0  0  0  0999 V2000
   19.8185  -13.8815   23.0721 C   0  0  0  0  0  0  0  0  0  0  0  0
   20.5688  -13.1425   22.4703 O   0  0  0  0  0  0  0  0  0  0  0  0
   18.7449  -14.5013   22.5290 N   0  0  0  0  0  0  0  0  0  0  0  0
   18.1347  -15.0471   23.0757 H   0  0  0  0  0  0  0  0  0  0  0  0
   21.8846  -15.6728   24.0652 C   0  0  0  0  0  0  0  0  0  0  0  0
   21.1468  -16.3252   23.3177 O   0  0  0  0  0  0  0  0  0  0  0  0
   21.4400  -14.5734   24.7256 N   0  0  0  0  0  0  0  0  0  0  0  0
   20.0743  -14.1122   24.5425 C   0  0  0  0  0  0  0  0  0  0  0  0
   20.0926  -12.7341   25.2734 C   0  0  0  0  0  0  0  0  0  0  0  0
   21.1757  -12.9916   26.3508 C   0  0  0  0  0  0  0  0  0  0  0  0
   22.2905  -13.7011   25.5414 C   0  0  0  0  0  0  0  0  0  0  0  0
   23.6989  -16.9186   22.9298 N   0  0  0  0  0  0  0  0  0  0  0  0
   23.2967  -16.2253   24.1727 C   0  0  0  0  0  0  0  0  0  0  0  0
   23.7155  -16.2514   22.1585 H   0  0  0  0  0  0  0  0  0  0  0  0
   23.0305  -17.6608   22.7230 H   0  0  0  0  0  0  0  0  0  0  0  0
   23.3094  -17.3418   25.2662 C   0  0  0  0  0  0  0  0  0  0  0  0
   23.2773  -17.0663   26.7820 C   0  0  0  0  0  0  0  0  0  0  0  0
   18.5330  -14.3237   21.0965 C   0  0  0  0  0  0  0  0  0  0  0  0
   17.4217  -13.2694   20.9241 C   0  0  0  0  0  0  0  0  0  0  0  0
   17.5678  -12.2254   20.0145 C   0  0  0  0  0  0  0  0  0  0  0  0
   16.5733  -11.2678   19.8506 C   0  0  0  0  0  0  0  0  0  0  0  0
   15.4026  -11.3452   20.6061 C   0  0  0  0  0  0  0  0  0  0  0  0
   15.2549  -12.3969   21.5222 C   0  0  0  0  0  0  0  0  0  0  0  0
   16.2565  -13.3530   21.6811 C   0  0  0  0  0  0  0  0  0  0  0  0
   14.2469  -10.2527   20.4349 C   0  0  0  0  0  0  0  0  0  0  0  0
   13.0155  -10.6727   20.1873 N   0  0  0  0  0  0  0  0  0  0  0  0
   14.5374   -8.9815   20.5416 N   0  0  0  0  0  0  0  0  0  0  0  0
   12.8298  -11.6366   20.1129 H   0  0  0  0  0  0  0  0  0  0  0  0
   15.4631   -8.7020   20.7263 H   0  0  0  0  0  0  0  0  0  0  0  0
   13.8303   -8.3045   20.4372 H   0  0  0  0  0  0  0  0  0  0  0  0
  8  7  1  0  0  0
 11  7  1  0  0  0
  7  5  1  0  0  0
  9  8  1  0  0  0
  1  8  1  0  0  0
  2  1  2  0  0  0
  1  3  1  0  0  0
 18  3  1  0  0  0
 18 19  1  0  0  0
 19 24  2  0  0  0
 19 20  1  0  0  0
 24 23  1  0  0  0
 23 22  2  0  0  0
 21 22  1  0  0  0
 22 25  1  0  0  0
 25 26  2  0  0  0
 25 27  1  0  0  0
 20 21  2  0  0  0
  9 10  1  0  0  0
 10 11  1  0  0  0
  5  6  2  0  0  0
  5 13  1  0  0  0
 12 13  1  0  0  0
 13 16  1  0  0  0
 16 17  1  0  0  0
 12 14  1  0  0  0
 12 15  1  0  0  0
  3  4  1  0  0  0
 26 28  1  0  0  0
 27 29  1  0  0  0
 27 30  1  0  0  0
M  END
> <minimizedAffinity>
-6.76129

$$$$
2ZGX_29U_H_1601


 30 31  0  0  0  0  0  0  0  0999 V2000
   20.3326  -13.4828   23.5459 C   0  0  0  0  0  0  0  0  0  0  0  0
   21.3523  -13.6734   22.9175 O   0  0  0  0  0  0  0  0  0  0  0  0
   19.1642  -13.0574   23.0114 N   0  0  0  0  0  0  0  0  0  0  0  0
   18.3805  -12.8641   23.5752 H   0  0  0  0  0  0  0  0  0  0  0  0
   19.8996  -16.0838   24.7752 C   0  0  0  0  0  0  0  0  0  0  0  0
   18.9145  -15.8298   24.0726 O   0  0  0  0  0  0  0  0  0  0  0  0
   20.6680  -15.1009   25.3098 N   0  0  0  0  0  0  0  0  0  0  0  0
   20.3644  -13.7059   25.0392 C   0  0  0  0  0  0  0  0  0  0  0  0
   21.6108  -12.9780   25.6312 C   0  0  0  0  0  0  0  0  0  0  0  0
   22.0092  -13.9588   26.7624 C   0  0  0  0  0  0  0  0  0  0  0  0
   21.9040  -15.3372   26.0623 C   0  0  0  0  0  0  0  0  0  0  0  0
   19.5221  -18.3709   23.9036 N   0  0  0  0  0  0  0  0  0  0  0  0
   20.1427  -17.5702   24.9811 C   0  0  0  0  0  0  0  0  0  0  0  0
   19.9569  -18.1354   23.0115 H   0  0  0  0  0  0  0  0  0  0  0  0
   18.5238  -18.1662   23.8598 H   0  0  0  0  0  0  0  0  0  0  0  0
   19.3988  -18.0181   26.2805 C   0  0  0  0  0  0  0  0  0  0  0  0
   17.8871  -18.3079   26.3537 C   0  0  0  0  0  0  0  0  0  0  0  0
   19.1187  -12.8982   21.5619 C   0  0  0  0  0  0  0  0  0  0  0  0
   17.6996  -12.4196   21.1969 C   0  0  0  0  0  0  0  0  0  0  0  0
   17.5025  -11.4968   20.1731 C   0  0  0  0  0  0  0  0  0  0  0  0
   16.2278  -11.0566   19.8352 C   0  0  0  0  0  0  0  0  0  0  0  0
   15.1182  -11.5427   20.5279 C   0  0  0  0  0  0  0  0  0  0  0  0
   15.3164  -12.4726   21.5591 C   0  0  0  0  0  0  0  0  0  0  0  0
   16.5974  -12.9090   21.8922 C   0  0  0  0  0  0  0  0  0  0  0  0
   13.6431  -11.0478   20.1569 C   0  0  0  0  0  0  0  0  0  0  0  0
   12.6146  -11.7815   20.5541 N   0  0  0  0  0  0  0  0  0  0  0  0
   13.4839   -9.9416   19.4767 N   0  0  0  0  0  0  0  0  0  0  0  0
   12.7683  -12.6091   21.0646 H   0  0  0  0  0  0  0  0  0  0  0  0
   14.2695   -9.4188   19.1962 H   0  0  0  0  0  0  0  0  0  0  0  0
   12.5784   -9.6319   19.2454 H   0  0  0  0  0  0  0  0  0  0  0  0
  8  7  1  0  0  0
 11  7  1  0  0  0
  7  5  1  0  0  0
  9  8  1  0  0  0
  1  8  1  0  0  0
  2  1  2  0  0  0
  1  3  1  0  0  0
 18  3  1  0  0  0
 18 19  1  0  0  0
 19 24  2  0  0  0
 19 20  1  0  0  0
 24 23  1  0  0  0
 23 22  2  0  0  0
 21 22  1  0  0  0
 22 25  1  0  0  0
 25 26  2  0  0  0
 25 27  1  0  0  0
 20 21  2  0  0  0
  9 10  1  0  0  0
 10 11  1  0  0  0
  5  6  2  0  0  0
  5 13  1  0  0  0
 12 13  1  0  0  0
 13 16  1  0  0  0
 16 17  1  0  0  0
 12 14  1  0  0  0
 12 15  1  0  0  0
  3  4  1  0  0  0
 26 28  1  0  0  0
 27 29  1  0  0  0
 27 30  1  0  0  0
M  END
> <minimizedAffinity>
-6.70743

$$$$
2ZGX_29U_H_1601


 30 31  0  0  0  0  0  0  0  0999 V2000
   17.2009  -13.7410   21.3235 C   0  0  0  0  0  0  0  0  0  0  0  0
   17.7731  -13.3182   20.3412 O   0  0  0  0  0  0  0  0  0  0  0  0
   17.6456  -13.6052   22.5946 N   0  0  0  0  0  0  0  0  0  0  0  0
   17.1708  -14.0167   23.3526 H   0  0  0  0  0  0  0  0  0  0  0  0
   14.6249  -12.4365   20.9676 C   0  0  0  0  0  0  0  0  0  0  0  0
   15.1063  -12.0368   22.0340 O   0  0  0  0  0  0  0  0  0  0  0  0
   14.9506  -13.6467   20.4463 N   0  0  0  0  0  0  0  0  0  0  0  0
   15.9111  -14.5009   21.1241 C   0  0  0  0  0  0  0  0  0  0  0  0
   16.1476  -15.6280   20.0717 C   0  0  0  0  0  0  0  0  0  0  0  0
   14.7779  -15.6408   19.3477 C   0  0  0  0  0  0  0  0  0  0  0  0
   14.4956  -14.1315   19.1395 C   0  0  0  0  0  0  0  0  0  0  0  0
   14.3046  -10.1769   20.0061 N   0  0  0  0  0  0  0  0  0  0  0  0
   13.6482  -11.4622   20.3290 C   0  0  0  0  0  0  0  0  0  0  0  0
   15.0382  -10.3339   19.3150 H   0  0  0  0  0  0  0  0  0  0  0  0
   14.7140   -9.7821   20.8528 H   0  0  0  0  0  0  0  0  0  0  0  0
   12.5576  -11.0912   21.3850 C   0  0  0  0  0  0  0  0  0  0  0  0
   12.1341   -9.6475   21.7183 C   0  0  0  0  0  0  0  0  0  0  0  0
   18.8604  -12.8215   22.7904 C   0  0  0  0  0  0  0  0  0  0  0  0
   19.7331  -13.5753   23.8134 C   0  0  0  0  0  0  0  0  0  0  0  0
   20.2023  -12.9336   24.9564 C   0  0  0  0  0  0  0  0  0  0  0  0
   20.9909  -13.6022   25.8859 C   0  0  0  0  0  0  0  0  0  0  0  0
   21.3239  -14.9416   25.6797 C   0  0  0  0  0  0  0  0  0  0  0  0
   20.8512  -15.5884   24.5284 C   0  0  0  0  0  0  0  0  0  0  0  0
   20.0612  -14.9114   23.6010 C   0  0  0  0  0  0  0  0  0  0  0  0
   22.2319  -15.7289   26.7352 C   0  0  0  0  0  0  0  0  0  0  0  0
   22.8713  -15.0296   27.6604 N   0  0  0  0  0  0  0  0  0  0  0  0
   22.3238  -17.0320   26.6644 N   0  0  0  0  0  0  0  0  0  0  0  0
   22.7812  -14.0496   27.6866 H   0  0  0  0  0  0  0  0  0  0  0  0
   21.8356  -17.5226   25.9642 H   0  0  0  0  0  0  0  0  0  0  0  0
   22.8812  -17.5221   27.3112 H   0  0  0  0  0  0  0  0  0  0  0  0
  8  7  1  0  0  0
 11  7  1  0  0  0
  7  5  1  0  0  0
  9  8  1  0  0  0
  1  8  1  0  0  0
  2  1  2  0  0  0
  1  3  1  0  0  0
 18  3  1  0  0  0
 18 19  1  0  0  0
 19 24  2  0  0  0
 19 20  1  0  0  0
 24 23  1  0  0  0
 23 22  2  0  0  0
 21 22  1  0  0  0
 22 25  1  0  0  0
 25 26  2  0  0  0
 25 27  1  0  0  0
 20 21  2  0  0  0
  9 10  1  0  0  0
 10 11  1  0  0  0
  5  6  2  0  0  0
  5 13  1  0  0  0
 12 13  1  0  0  0
 13 16  1  0  0  0
 16 17  1  0  0  0
 12 14  1  0  0  0
 12 15  1  0  0  0
  3  4  1  0  0  0
 26 28  1  0  0  0
 27 29  1  0  0  0
 27 30  1  0  0  0
M  END
> <minimizedAffinity>
-6.51070

$$$$
2ZGX_29U_H_1601


 30 31  0  0  0  0  0  0  0  0999 V2000
   19.8260  -15.1958   24.0984 C   0  0  0  0  0  0  0  0  0  0  0  0
   19.0851  -16.1341   23.8937 O   0  0  0  0  0  0  0  0  0  0  0  0
   20.5816  -14.5882   23.1541 N   0  0  0  0  0  0  0  0  0  0  0  0
   21.2097  -13.8658   23.3839 H   0  0  0  0  0  0  0  0  0  0  0  0
   21.8520  -16.1229   25.9691 C   0  0  0  0  0  0  0  0  0  0  0  0
   21.2176  -17.1102   25.5799 O   0  0  0  0  0  0  0  0  0  0  0  0
   21.3019  -14.8821   25.9866 N   0  0  0  0  0  0  0  0  0  0  0  0
   19.9440  -14.6770   25.5118 C   0  0  0  0  0  0  0  0  0  0  0  0
   19.8364  -13.1208   25.4881 C   0  0  0  0  0  0  0  0  0  0  0  0
   20.8169  -12.7450   26.6272 C   0  0  0  0  0  0  0  0  0  0  0  0
   22.0330  -13.6605   26.3373 C   0  0  0  0  0  0  0  0  0  0  0  0
   24.2152  -16.4188   25.2903 N   0  0  0  0  0  0  0  0  0  0  0  0
   23.2670  -16.4403   26.4251 C   0  0  0  0  0  0  0  0  0  0  0  0
   24.2508  -15.4793   24.8948 H   0  0  0  0  0  0  0  0  0  0  0  0
   23.9050  -17.0770   24.5755 H   0  0  0  0  0  0  0  0  0  0  0  0
   23.3025  -17.9163   26.9377 C   0  0  0  0  0  0  0  0  0  0  0  0
   23.0677  -18.3269   28.4043 C   0  0  0  0  0  0  0  0  0  0  0  0
   20.4229  -15.0524   21.7801 C   0  0  0  0  0  0  0  0  0  0  0  0
   19.4503  -14.0843   21.0779 C   0  0  0  0  0  0  0  0  0  0  0  0
   18.0747  -14.2896   21.1408 C   0  0  0  0  0  0  0  0  0  0  0  0
   17.1874  -13.4243   20.5109 C   0  0  0  0  0  0  0  0  0  0  0  0
   17.6736  -12.3261   19.8002 C   0  0  0  0  0  0  0  0  0  0  0  0
   19.0593  -12.1189   19.7369 C   0  0  0  0  0  0  0  0  0  0  0  0
   19.9426  -12.9909   20.3709 C   0  0  0  0  0  0  0  0  0  0  0  0
   16.6704  -11.3196   19.0662 C   0  0  0  0  0  0  0  0  0  0  0  0
   16.0500  -10.4053   19.7964 N   0  0  0  0  0  0  0  0  0  0  0  0
   16.4848  -11.4183   17.7749 N   0  0  0  0  0  0  0  0  0  0  0  0
   16.2115  -10.3574   20.7663 H   0  0  0  0  0  0  0  0  0  0  0  0
   16.9615  -12.1092   17.2604 H   0  0  0  0  0  0  0  0  0  0  0  0
   15.8686  -10.8015   17.3176 H   0  0  0  0  0  0  0  0  0  0  0  0
  8  7  1  0  0  0
 11  7  1  0  0  0
  7  5  1  0  0  0
  9  8  1  0  0  0
  1  8  1  0  0  0
  2  1  2  0  0  0
  1  3  1  0  0  0
 18  3  1  0  0  0
 18 19  1  0  0  0
 19 24  2  0  0  0
 19 20  1  0  0  0
 24 23  1  0  0  0
 23 22  2  0  0  0
 21 22  1  0  0  0
 22 25  1  0  0  0
 25 26  2  0  0  0
 25 27  1  0  0  0
 20 21  2  0  0  0
  9 10  1  0  0  0
 10 11  1  0  0  0
  5  6  2  0  0  0
  5 13  1  0  0  0
 12 13  1  0  0  0
 13 16  1  0  0  0
 16 17  1  0  0  0
 12 14  1  0  0  0
 12 15  1  0  0  0
  3  4  1  0  0  0
 26 28  1  0  0  0
 27 29  1  0  0  0
 27 30  1  0  0  0
M  END
> <minimizedAffinity>
-6.49771

$$$$
