4E4L_0NH_A_1201


 24 27  0  0  0  0  0  0  0  0999 V2000
  -13.7597   28.8597   -0.6582 N   0  0  0  0  0  0  0  0  0  0  0  0
  -12.5158   28.8372   -0.0600 C   0  0  0  0  0  0  0  0  0  0  0  0
  -12.3418   27.6743    0.4976 N   0  0  0  0  0  0  0  0  0  0  0  0
  -13.4229   26.8739    0.3016 C   0  0  0  0  0  0  0  0  0  0  0  0
  -14.3438   27.6249   -0.4514 C   0  0  0  0  0  0  0  0  0  0  0  0
  -15.5617   27.0047   -0.8030 C   0  0  0  0  0  0  0  0  0  0  0  0
  -16.7631   27.4270   -1.5486 C   0  0  0  0  0  0  0  0  0  0  0  0
  -17.5814   26.3785   -1.5689 C   0  0  0  0  0  0  0  0  0  0  0  0
  -17.0066   25.3298   -0.8999 N   0  0  0  0  0  0  0  0  0  0  0  0
  -15.7851   25.6741   -0.4102 C   0  0  0  0  0  0  0  0  0  0  0  0
  -14.8802   24.9889    0.3015 N   0  0  0  0  0  0  0  0  0  0  0  0
  -13.7399   25.5640    0.6776 C   0  0  0  0  0  0  0  0  0  0  0  0
  -17.4225   24.4445   -0.7885 H   0  0  0  0  0  0  0  0  0  0  0  0
  -14.4585   29.5082   -2.9462 C   0  0  0  0  0  0  0  0  0  0  0  0
  -14.2824   29.9936   -1.4627 C   0  0  0  0  0  0  0  0  0  0  0  0
  -13.2016   31.0776   -1.4229 C   0  0  0  0  0  0  0  0  0  0  0  0
  -13.6189   32.4148   -2.0527 C   0  0  0  0  0  0  0  0  0  0  0  0
  -15.0243   32.7741   -1.8170 N   0  0  0  0  0  0  0  0  0  0  0  0
  -16.0815   31.7525   -1.6001 C   0  0  0  0  0  0  0  0  0  0  0  0
  -15.5884   30.4952   -0.8770 C   0  0  0  0  0  0  0  0  0  0  0  0
  -15.4522   34.3547   -1.9651 S   0  0  0  0  0  0  0  0  0  0  0  0
  -14.4637   35.1329   -1.2924 O   0  0  0  0  0  0  0  0  0  0  0  0
  -15.6950   34.6181   -3.3525 O   0  0  0  0  0  0  0  0  0  0  0  0
  -17.0477   34.4849   -1.0907 C   0  0  0  0  0  0  0  0  0  0  0  0
 14 15  1  0  0  0
 15 16  1  0  0  0
 15 20  1  0  0  0
 15  1  1  0  0  0
 16 17  1  0  0  0
 17 18  1  0  0  0
 18 19  1  0  0  0
 18 21  1  0  0  0
 19 20  1  0  0  0
 21 22  2  0  0  0
 21 23  2  0  0  0
 21 24  1  0  0  0
  1  2  1  0  0  0
  1  5  1  0  0  0
  2  3  2  0  0  0
  3  4  1  0  0  0
  4  5  2  0  0  0
  4 12  1  0  0  0
  5  6  1  0  0  0
  6  7  1  0  0  0
  6 10  2  0  0  0
  7  8  2  0  0  0
  8  9  1  0  0  0
  9 10  1  0  0  0
 10 11  1  0  0  0
 11 12  2  0  0  0
  9 13  1  0  0  0
M  END
> <minimizedAffinity>
-10.36363

$$$$
4E4L_0NH_A_1201


 24 27  0  0  0  0  0  0  0  0999 V2000
  -16.2686   28.1152   -1.2985 N   0  0  0  0  0  0  0  0  0  0  0  0
  -17.4580   27.4665   -1.5631 C   0  0  0  0  0  0  0  0  0  0  0  0
  -17.3585   26.2323   -1.1623 N   0  0  0  0  0  0  0  0  0  0  0  0
  -16.1371   25.9955   -0.6145 C   0  0  0  0  0  0  0  0  0  0  0  0
  -15.4252   27.2067   -0.6885 C   0  0  0  0  0  0  0  0  0  0  0  0
  -14.1144   27.2282   -0.1662 C   0  0  0  0  0  0  0  0  0  0  0  0
  -13.0576   28.2525   -0.0589 C   0  0  0  0  0  0  0  0  0  0  0  0
  -12.0333   27.6730    0.5613 C   0  0  0  0  0  0  0  0  0  0  0  0
  -12.3460   26.3714    0.8541 N   0  0  0  0  0  0  0  0  0  0  0  0
  -13.5963   26.0599    0.4180 C   0  0  0  0  0  0  0  0  0  0  0  0
  -14.3080   24.9263    0.4756 N   0  0  0  0  0  0  0  0  0  0  0  0
  -15.5326   24.8701   -0.0437 C   0  0  0  0  0  0  0  0  0  0  0  0
  -11.7454   25.7447    1.3186 H   0  0  0  0  0  0  0  0  0  0  0  0
  -17.3575   30.1956   -2.0921 C   0  0  0  0  0  0  0  0  0  0  0  0
  -16.0296   29.5606   -1.5437 C   0  0  0  0  0  0  0  0  0  0  0  0
  -14.9586   29.6357   -2.6355 C   0  0  0  0  0  0  0  0  0  0  0  0
  -14.4354   31.0521   -2.9163 C   0  0  0  0  0  0  0  0  0  0  0  0
  -14.3189   31.8950   -1.7180 N   0  0  0  0  0  0  0  0  0  0  0  0
  -15.1778   31.7002   -0.5212 C   0  0  0  0  0  0  0  0  0  0  0  0
  -15.5666   30.2400   -0.2692 C   0  0  0  0  0  0  0  0  0  0  0  0
  -13.3145   33.1951   -1.7836 S   0  0  0  0  0  0  0  0  0  0  0  0
  -12.4207   33.1046   -0.6753 O   0  0  0  0  0  0  0  0  0  0  0  0
  -12.7567   33.2559   -3.1021 O   0  0  0  0  0  0  0  0  0  0  0  0
  -14.4125   34.6374   -1.5812 C   0  0  0  0  0  0  0  0  0  0  0  0
 14 15  1  0  0  0
 15 16  1  0  0  0
 15 20  1  0  0  0
 15  1  1  0  0  0
 16 17  1  0  0  0
 17 18  1  0  0  0
 18 19  1  0  0  0
 18 21  1  0  0  0
 19 20  1  0  0  0
 21 22  2  0  0  0
 21 23  2  0  0  0
 21 24  1  0  0  0
  1  2  1  0  0  0
  1  5  1  0  0  0
  2  3  2  0  0  0
  3  4  1  0  0  0
  4  5  2  0  0  0
  4 12  1  0  0  0
  5  6  1  0  0  0
  6  7  1  0  0  0
  6 10  2  0  0  0
  7  8  2  0  0  0
  8  9  1  0  0  0
  9 10  1  0  0  0
 10 11  1  0  0  0
 11 12  2  0  0  0
  9 13  1  0  0  0
M  END
> <minimizedAffinity>
-9.32796

$$$$
4E4L_0NH_A_1201


 24 27  0  0  0  0  0  0  0  0999 V2000
  -15.9499   28.2470   -1.4073 N   0  0  0  0  0  0  0  0  0  0  0  0
  -17.2245   27.8520   -1.7605 C   0  0  0  0  0  0  0  0  0  0  0  0
  -17.4110   26.6302   -1.3530 N   0  0  0  0  0  0  0  0  0  0  0  0
  -16.3082   26.1564   -0.7147 C   0  0  0  0  0  0  0  0  0  0  0  0
  -15.3588   27.1944   -0.7353 C   0  0  0  0  0  0  0  0  0  0  0  0
  -14.1136   26.9547   -0.1158 C   0  0  0  0  0  0  0  0  0  0  0  0
  -12.8795   27.7420    0.0705 C   0  0  0  0  0  0  0  0  0  0  0  0
  -12.0450   26.9746    0.7662 C   0  0  0  0  0  0  0  0  0  0  0  0
  -12.6395   25.7696    1.0350 N   0  0  0  0  0  0  0  0  0  0  0  0
  -13.8915   25.7144    0.5061 C   0  0  0  0  0  0  0  0  0  0  0  0
  -14.8236   24.7520    0.5103 N   0  0  0  0  0  0  0  0  0  0  0  0
  -15.9919   24.9401   -0.0998 C   0  0  0  0  0  0  0  0  0  0  0  0
  -12.2166   25.0404    1.5436 H   0  0  0  0  0  0  0  0  0  0  0  0
  -13.8939   29.4710   -2.0541 C   0  0  0  0  0  0  0  0  0  0  0  0
  -15.4012   29.6085   -1.6342 C   0  0  0  0  0  0  0  0  0  0  0  0
  -15.4741   30.3272   -0.2841 C   0  0  0  0  0  0  0  0  0  0  0  0
  -15.1151   31.8195   -0.3382 C   0  0  0  0  0  0  0  0  0  0  0  0
  -15.5756   32.5016   -1.5558 N   0  0  0  0  0  0  0  0  0  0  0  0
  -15.7610   31.7882   -2.8461 C   0  0  0  0  0  0  0  0  0  0  0  0
  -16.2145   30.3333   -2.6895 C   0  0  0  0  0  0  0  0  0  0  0  0
  -15.7277   34.1382   -1.5132 S   0  0  0  0  0  0  0  0  0  0  0  0
  -16.8129   34.4468   -0.6401 O   0  0  0  0  0  0  0  0  0  0  0  0
  -14.4402   34.6936   -1.2180 O   0  0  0  0  0  0  0  0  0  0  0  0
  -16.1527   34.6070   -3.2239 C   0  0  0  0  0  0  0  0  0  0  0  0
 14 15  1  0  0  0
 15 16  1  0  0  0
 15 20  1  0  0  0
 15  1  1  0  0  0
 16 17  1  0  0  0
 17 18  1  0  0  0
 18 19  1  0  0  0
 18 21  1  0  0  0
 19 20  1  0  0  0
 21 22  2  0  0  0
 21 23  2  0  0  0
 21 24  1  0  0  0
  1  2  1  0  0  0
  1  5  1  0  0  0
  2  3  2  0  0  0
  3  4  1  0  0  0
  4  5  2  0  0  0
  4 12  1  0  0  0
  5  6  1  0  0  0
  6  7  1  0  0  0
  6 10  2  0  0  0
  7  8  2  0  0  0
  8  9  1  0  0  0
  9 10  1  0  0  0
 10 11  1  0  0  0
 11 12  2  0  0  0
  9 13  1  0  0  0
M  END
> <minimizedAffinity>
-8.96263

$$$$
4E4L_0NH_A_1201


 24 27  0  0  0  0  0  0  0  0999 V2000
  -15.2330   31.2065   -1.6796 N   0  0  0  0  0  0  0  0  0  0  0  0
  -16.5333   31.6328   -1.8619 C   0  0  0  0  0  0  0  0  0  0  0  0
  -16.5469   32.9339   -1.8836 N   0  0  0  0  0  0  0  0  0  0  0  0
  -15.2930   33.4363   -1.7314 C   0  0  0  0  0  0  0  0  0  0  0  0
  -14.4326   32.3303   -1.6068 C   0  0  0  0  0  0  0  0  0  0  0  0
  -13.0541   32.5880   -1.4487 C   0  0  0  0  0  0  0  0  0  0  0  0
  -11.8547   31.7458   -1.2772 C   0  0  0  0  0  0  0  0  0  0  0  0
  -10.8187   32.5768   -1.2023 C   0  0  0  0  0  0  0  0  0  0  0  0
  -11.2554   33.8714   -1.3083 N   0  0  0  0  0  0  0  0  0  0  0  0
  -12.6077   33.9204   -1.4473 C   0  0  0  0  0  0  0  0  0  0  0  0
  -13.4578   34.9480   -1.5751 N   0  0  0  0  0  0  0  0  0  0  0  0
  -14.7667   34.7320   -1.6878 C   0  0  0  0  0  0  0  0  0  0  0  0
  -10.6682   34.6613   -1.2867 H   0  0  0  0  0  0  0  0  0  0  0  0
  -14.0882   29.4821   -3.0433 C   0  0  0  0  0  0  0  0  0  0  0  0
  -14.8098   29.7828   -1.6808 C   0  0  0  0  0  0  0  0  0  0  0  0
  -16.0968   28.9561   -1.6107 C   0  0  0  0  0  0  0  0  0  0  0  0
  -15.8742   27.4481   -1.4234 C   0  0  0  0  0  0  0  0  0  0  0  0
  -14.7422   27.1150   -0.5473 N   0  0  0  0  0  0  0  0  0  0  0  0
  -13.5682   28.0118   -0.3880 C   0  0  0  0  0  0  0  0  0  0  0  0
  -13.9084   29.5018   -0.4938 C   0  0  0  0  0  0  0  0  0  0  0  0
  -14.7138   25.6232    0.1435 S   0  0  0  0  0  0  0  0  0  0  0  0
  -15.7988   25.5561    1.0674 O   0  0  0  0  0  0  0  0  0  0  0  0
  -14.6563   24.6511   -0.9076 O   0  0  0  0  0  0  0  0  0  0  0  0
  -13.1273   25.5606    1.0414 C   0  0  0  0  0  0  0  0  0  0  0  0
 14 15  1  0  0  0
 15 16  1  0  0  0
 15 20  1  0  0  0
 15  1  1  0  0  0
 16 17  1  0  0  0
 17 18  1  0  0  0
 18 19  1  0  0  0
 18 21  1  0  0  0
 19 20  1  0  0  0
 21 22  2  0  0  0
 21 23  2  0  0  0
 21 24  1  0  0  0
  1  2  1  0  0  0
  1  5  1  0  0  0
  2  3  2  0  0  0
  3  4  1  0  0  0
  4  5  2  0  0  0
  4 12  1  0  0  0
  5  6  1  0  0  0
  6  7  1  0  0  0
  6 10  2  0  0  0
  7  8  2  0  0  0
  8  9  1  0  0  0
  9 10  1  0  0  0
 10 11  1  0  0  0
 11 12  2  0  0  0
  9 13  1  0  0  0
M  END
> <minimizedAffinity>
-7.94747

$$$$
4E4L_0NH_A_1201


 24 27  0  0  0  0  0  0  0  0999 V2000
  -15.0189   29.2353   -0.9132 N   0  0  0  0  0  0  0  0  0  0  0  0
  -15.6610   28.0522   -0.6074 C   0  0  0  0  0  0  0  0  0  0  0  0
  -14.7760   27.1907   -0.1973 N   0  0  0  0  0  0  0  0  0  0  0  0
  -13.5305   27.7356   -0.1962 C   0  0  0  0  0  0  0  0  0  0  0  0
  -13.6742   29.0598   -0.6490 C   0  0  0  0  0  0  0  0  0  0  0  0
  -12.5106   29.8545   -0.7273 C   0  0  0  0  0  0  0  0  0  0  0  0
  -12.2278   31.2406   -1.1470 C   0  0  0  0  0  0  0  0  0  0  0  0
  -10.9224   31.4277   -0.9731 C   0  0  0  0  0  0  0  0  0  0  0  0
  -10.3520   30.2821   -0.4831 N   0  0  0  0  0  0  0  0  0  0  0  0
  -11.2814   29.3005   -0.3313 C   0  0  0  0  0  0  0  0  0  0  0  0
  -11.1856   28.0361    0.1010 N   0  0  0  0  0  0  0  0  0  0  0  0
  -12.2626   27.2547    0.1483 C   0  0  0  0  0  0  0  0  0  0  0  0
   -9.3961   30.1827   -0.2692 H   0  0  0  0  0  0  0  0  0  0  0  0
  -17.1925   30.1165   -1.7147 C   0  0  0  0  0  0  0  0  0  0  0  0
  -15.7108   30.4785   -1.3397 C   0  0  0  0  0  0  0  0  0  0  0  0
  -14.9856   30.9583   -2.6001 C   0  0  0  0  0  0  0  0  0  0  0  0
  -15.4361   32.3363   -3.1070 C   0  0  0  0  0  0  0  0  0  0  0  0
  -15.7537   33.2925   -2.0371 N   0  0  0  0  0  0  0  0  0  0  0  0
  -16.2300   32.8592   -0.6978 C   0  0  0  0  0  0  0  0  0  0  0  0
  -15.6483   31.5188   -0.2377 C   0  0  0  0  0  0  0  0  0  0  0  0
  -15.7339   34.8952   -2.4034 S   0  0  0  0  0  0  0  0  0  0  0  0
  -16.6671   35.5450   -1.5419 O   0  0  0  0  0  0  0  0  0  0  0  0
  -14.3706   35.3359   -2.3828 O   0  0  0  0  0  0  0  0  0  0  0  0
  -16.3165   34.9815   -4.1297 C   0  0  0  0  0  0  0  0  0  0  0  0
 14 15  1  0  0  0
 15 16  1  0  0  0
 15 20  1  0  0  0
 15  1  1  0  0  0
 16 17  1  0  0  0
 17 18  1  0  0  0
 18 19  1  0  0  0
 18 21  1  0  0  0
 19 20  1  0  0  0
 21 22  2  0  0  0
 21 23  2  0  0  0
 21 24  1  0  0  0
  1  2  1  0  0  0
  1  5  1  0  0  0
  2  3  2  0  0  0
  3  4  1  0  0  0
  4  5  2  0  0  0
  4 12  1  0  0  0
  5  6  1  0  0  0
  6  7  1  0  0  0
  6 10  2  0  0  0
  7  8  2  0  0  0
  8  9  1  0  0  0
  9 10  1  0  0  0
 10 11  1  0  0  0
 11 12  2  0  0  0
  9 13  1  0  0  0
M  END
> <minimizedAffinity>
-7.93921

$$$$
