6CWN_6LA_A_301


 24 25  0  0  0  0  0  0  0  0999 V2000
  -19.0528  -11.8637   14.2478 C   0  0  0  0  0  0  0  0  0  0  0  0
  -18.6015  -10.4223   14.0050 C   0  0  0  0  0  0  0  0  0  0  0  0
  -19.6103   -9.4541   14.2172 O   0  0  0  0  0  0  0  0  0  0  0  0
  -17.4063  -10.1279   14.9300 C   0  0  0  0  0  0  0  0  0  0  0  0
  -16.8342   -8.8466   14.6141 O   0  0  0  0  0  0  0  0  0  0  0  0
  -15.7537   -8.4831   15.4912 C   0  0  0  0  0  0  0  0  0  0  0  0
  -15.1854   -7.1612   14.9684 C   0  0  0  0  0  0  0  0  0  0  0  0
  -14.7665   -9.4828   15.4403 O   0  0  0  0  0  0  0  0  0  0  0  0
  -15.1442  -10.8285   15.6542 C   0  0  0  0  0  0  0  0  0  0  0  0
  -16.3670  -11.1308   14.7187 C   0  0  0  0  0  0  0  0  0  0  0  0
  -16.8132  -12.4431   14.9621 O   0  0  0  0  0  0  0  0  0  0  0  0
  -17.8447  -12.7541   14.0323 C   0  0  0  0  0  0  0  0  0  0  0  0
  -19.8906   -9.4772   15.1456 H   0  0  0  0  0  0  0  0  0  0  0  0
  -21.1681  -12.7291   17.2021 C   0  0  0  0  0  0  0  0  0  0  0  0
  -20.7374  -12.5740   15.7476 C   0  0  0  0  0  0  0  0  0  0  0  0
  -21.4544  -12.9845   14.8497 O   0  0  0  0  0  0  0  0  0  0  0  0
  -19.5420  -12.0592   15.5724 N   0  0  0  0  0  0  0  0  0  0  0  0
  -18.9892  -11.8107   16.3483 H   0  0  0  0  0  0  0  0  0  0  0  0
  -16.3161   -8.2854   16.9458 C   0  0  0  0  0  0  0  0  0  0  0  0
  -17.5095   -7.8776   17.0104 O   0  0  0  0  0  0  0  0  0  0  0  0
  -15.5301   -8.4234   17.8940 O   0  0  0  0  0  0  0  0  0  0  0  0
  -14.6599   -8.7349   17.7397 H   0  0  0  0  0  0  0  0  0  0  0  0
  -18.2084  -14.0689   14.1764 O   0  0  0  0  0  0  0  0  0  0  0  0
  -17.1604  -15.0159   14.0743 C   0  0  0  0  0  0  0  0  0  0  0  0
  7  6  1  0  0  0
 20 19  2  0  0  0
  8  6  1  0  0  0
  8  9  1  0  0  0
  6 19  1  0  0  0
  6  5  1  0  0  0
 19 21  1  0  0  0
  9 10  1  0  0  0
  5  4  1  0  0  0
 10  4  1  0  0  0
 10 11  1  0  0  0
  4  2  1  0  0  0
 11 12  1  0  0  0
  2  3  1  0  0  0
  2  1  1  0  0  0
 12  1  1  0  0  0
 12 23  1  0  0  0
  1 17  1  0  0  0
 17 15  1  0  0  0
 23 24  1  0  0  0
 15 14  1  0  0  0
 15 16  2  0  0  0
 17 18  1  0  0  0
  3 13  1  0  0  0
 21 22  1  0  0  0
M  END
> <minimizedAffinity>
-9.39216

$$$$
6CWN_6LA_A_301


 24 25  0  0  0  0  0  0  0  0999 V2000
  -19.9659  -11.9429   14.4463 C   0  0  0  0  0  0  0  0  0  0  0  0
  -19.4402  -10.5416   14.1296 C   0  0  0  0  0  0  0  0  0  0  0  0
  -20.2635   -9.4922   14.5998 O   0  0  0  0  0  0  0  0  0  0  0  0
  -18.0342  -10.4032   14.7417 C   0  0  0  0  0  0  0  0  0  0  0  0
  -17.4259   -9.1694   14.3214 O   0  0  0  0  0  0  0  0  0  0  0  0
  -16.1350   -8.9493   14.9164 C   0  0  0  0  0  0  0  0  0  0  0  0
  -15.5759   -7.6656   14.2973 C   0  0  0  0  0  0  0  0  0  0  0  0
  -15.2972  -10.0350   14.6072 O   0  0  0  0  0  0  0  0  0  0  0  0
  -15.7489  -11.3469   14.8800 C   0  0  0  0  0  0  0  0  0  0  0  0
  -17.1849  -11.4901   14.2642 C   0  0  0  0  0  0  0  0  0  0  0  0
  -17.6921  -12.7634   14.5829 O   0  0  0  0  0  0  0  0  0  0  0  0
  -18.9430  -12.9337   13.9259 C   0  0  0  0  0  0  0  0  0  0  0  0
  -20.3136   -9.5295   15.5678 H   0  0  0  0  0  0  0  0  0  0  0  0
  -21.4097  -12.6435   17.8191 C   0  0  0  0  0  0  0  0  0  0  0  0
  -21.3307  -12.4566   16.3079 C   0  0  0  0  0  0  0  0  0  0  0  0
  -22.3120  -12.6643   15.6131 O   0  0  0  0  0  0  0  0  0  0  0  0
  -20.1404  -12.1492   15.8461 N   0  0  0  0  0  0  0  0  0  0  0  0
  -19.3760  -12.0621   16.4604 H   0  0  0  0  0  0  0  0  0  0  0  0
  -16.3085   -8.7633   16.4677 C   0  0  0  0  0  0  0  0  0  0  0  0
  -15.2789   -9.0065   17.1572 O   0  0  0  0  0  0  0  0  0  0  0  0
  -17.4445   -8.5169   16.8977 O   0  0  0  0  0  0  0  0  0  0  0  0
  -18.1456   -8.3488   16.2992 H   0  0  0  0  0  0  0  0  0  0  0  0
  -19.3949  -14.2131   14.1282 O   0  0  0  0  0  0  0  0  0  0  0  0
  -20.4376  -14.6439   13.2722 C   0  0  0  0  0  0  0  0  0  0  0  0
  7  6  1  0  0  0
 20 19  2  0  0  0
  8  6  1  0  0  0
  8  9  1  0  0  0
  6 19  1  0  0  0
  6  5  1  0  0  0
 19 21  1  0  0  0
  9 10  1  0  0  0
  5  4  1  0  0  0
 10  4  1  0  0  0
 10 11  1  0  0  0
  4  2  1  0  0  0
 11 12  1  0  0  0
  2  3  1  0  0  0
  2  1  1  0  0  0
 12  1  1  0  0  0
 12 23  1  0  0  0
  1 17  1  0  0  0
 17 15  1  0  0  0
 23 24  1  0  0  0
 15 14  1  0  0  0
 15 16  2  0  0  0
 17 18  1  0  0  0
  3 13  1  0  0  0
 21 22  1  0  0  0
M  END
> <minimizedAffinity>
-8.82142

$$$$
