1MOQ_GLP_A_609


 23 23  0  0  0  0  0  0  0  0999 V2000
   27.9876   16.1075   -3.5384 C   0  0  0  0  0  0  0  0  0  0  0  0
   28.4032   15.7808   -2.1185 C   0  0  0  0  0  0  0  0  0  0  0  0
   28.3166   17.0255   -1.2513 C   0  0  0  0  0  0  0  0  0  0  0  0
   29.1532   18.1532   -1.8176 C   0  0  0  0  0  0  0  0  0  0  0  0
   28.7163   18.4139   -3.2745 C   0  0  0  0  0  0  0  0  0  0  0  0
   26.6291   16.4728   -3.5468 O   0  0  0  0  0  0  0  0  0  0  0  0
   27.5731   14.7294   -1.5991 N   0  0  0  0  0  0  0  0  0  0  0  0
   28.8364   16.7075    0.0559 O   0  0  0  0  0  0  0  0  0  0  0  0
   29.0054   19.3714   -1.1177 O   0  0  0  0  0  0  0  0  0  0  0  0
   28.6954   17.2085   -4.0130 O   0  0  0  0  0  0  0  0  0  0  0  0
   26.5008   17.2537   -2.9858 H   0  0  0  0  0  0  0  0  0  0  0  0
   26.5998   15.0344   -1.5967 H   0  0  0  0  0  0  0  0  0  0  0  0
   27.8621   14.5072   -0.6465 H   0  0  0  0  0  0  0  0  0  0  0  0
   29.7629   16.4311   -0.0230 H   0  0  0  0  0  0  0  0  0  0  0  0
   28.0847   19.6702   -1.1796 H   0  0  0  0  0  0  0  0  0  0  0  0
   29.7572   19.3324   -3.9384 C   0  0  0  0  0  0  0  0  0  0  0  0
   31.0795   18.8855   -3.5482 O   0  0  0  0  0  0  0  0  0  0  0  0
   32.2030   19.9302   -3.0222 P   0  0  0  0  0  0  0  0  0  0  0  0
   33.5198   19.4561   -3.5103 O   0  0  0  0  0  0  0  0  0  0  0  0
   32.0202   19.9567   -1.5671 O   0  0  0  0  0  0  0  0  0  0  0  0
   31.9680   21.2734   -3.6836 O   0  0  0  0  0  0  0  0  0  0  0  0
   32.1839   19.0720   -1.2045 H   0  0  0  0  0  0  0  0  0  0  0  0
   32.1035   21.1907   -4.6405 H   0  0  0  0  0  0  0  0  0  0  0  0
  1  2  1  0  0  0
  1  6  1  0  0  0
  1 10  1  0  0  0
  2  3  1  0  0  0
  2  7  1  0  0  0
  3  4  1  0  0  0
  3  8  1  0  0  0
  4  5  1  0  0  0
  4  9  1  0  0  0
  5 16  1  0  0  0
  5 10  1  0  0  0
 16 17  1  0  0  0
 17 18  1  0  0  0
 18 19  2  0  0  0
 18 20  1  0  0  0
 18 21  1  0  0  0
  6 11  1  0  0  0
  7 12  1  0  0  0
  7 13  1  0  0  0
  8 14  1  0  0  0
  9 15  1  0  0  0
 20 22  1  0  0  0
 21 23  1  0  0  0
M  END
> <minimizedAffinity>
-9.14332

$$$$
1MOQ_GLP_A_609


 23 23  0  0  0  0  0  0  0  0999 V2000
   29.4297   16.7130   -0.4984 C   0  0  0  0  0  0  0  0  0  0  0  0
   27.9207   16.5997   -0.5731 C   0  0  0  0  0  0  0  0  0  0  0  0
   27.5046   16.0817   -1.9396 C   0  0  0  0  0  0  0  0  0  0  0  0
   28.0403   16.9600   -3.0504 C   0  0  0  0  0  0  0  0  0  0  0  0
   29.5719   17.0735   -2.9005 C   0  0  0  0  0  0  0  0  0  0  0  0
   29.9922   15.4272   -0.5959 O   0  0  0  0  0  0  0  0  0  0  0  0
   27.4458   15.7376    0.4737 N   0  0  0  0  0  0  0  0  0  0  0  0
   26.0646   16.1058   -2.0173 O   0  0  0  0  0  0  0  0  0  0  0  0
   27.7884   16.4502   -4.3436 O   0  0  0  0  0  0  0  0  0  0  0  0
   29.9187   17.4407   -1.5800 O   0  0  0  0  0  0  0  0  0  0  0  0
   29.7406   15.0276   -1.4432 H   0  0  0  0  0  0  0  0  0  0  0  0
   27.8529   14.8093    0.3606 H   0  0  0  0  0  0  0  0  0  0  0  0
   26.4291   15.6714    0.4246 H   0  0  0  0  0  0  0  0  0  0  0  0
   25.7500   17.0166   -1.9061 H   0  0  0  0  0  0  0  0  0  0  0  0
   28.2342   15.5948   -4.4464 H   0  0  0  0  0  0  0  0  0  0  0  0
   30.0704   18.1963   -3.8272 C   0  0  0  0  0  0  0  0  0  0  0  0
   31.4999   18.3451   -3.6408 O   0  0  0  0  0  0  0  0  0  0  0  0
   32.1420   19.7363   -3.1095 P   0  0  0  0  0  0  0  0  0  0  0  0
   33.5542   19.7786   -3.5577 O   0  0  0  0  0  0  0  0  0  0  0  0
   31.9208   19.7072   -1.6598 O   0  0  0  0  0  0  0  0  0  0  0  0
   31.4462   20.8908   -3.8022 O   0  0  0  0  0  0  0  0  0  0  0  0
   32.3894   18.9494   -1.2764 H   0  0  0  0  0  0  0  0  0  0  0  0
   31.6300   20.8550   -4.7540 H   0  0  0  0  0  0  0  0  0  0  0  0
  1  2  1  0  0  0
  1  6  1  0  0  0
  1 10  1  0  0  0
  2  3  1  0  0  0
  2  7  1  0  0  0
  3  4  1  0  0  0
  3  8  1  0  0  0
  4  5  1  0  0  0
  4  9  1  0  0  0
  5 16  1  0  0  0
  5 10  1  0  0  0
 16 17  1  0  0  0
 17 18  1  0  0  0
 18 19  2  0  0  0
 18 20  1  0  0  0
 18 21  1  0  0  0
  6 11  1  0  0  0
  7 12  1  0  0  0
  7 13  1  0  0  0
  8 14  1  0  0  0
  9 15  1  0  0  0
 20 22  1  0  0  0
 21 23  1  0  0  0
M  END
> <minimizedAffinity>
-9.06091

$$$$
1MOQ_GLP_A_609


 23 23  0  0  0  0  0  0  0  0999 V2000
   27.6670   17.8448   -2.2917 C   0  0  0  0  0  0  0  0  0  0  0  0
   27.9812   16.6019   -3.0991 C   0  0  0  0  0  0  0  0  0  0  0  0
   28.7758   15.6198   -2.2548 C   0  0  0  0  0  0  0  0  0  0  0  0
   30.0409   16.2523   -1.7147 C   0  0  0  0  0  0  0  0  0  0  0  0
   29.6654   17.5326   -0.9392 C   0  0  0  0  0  0  0  0  0  0  0  0
   26.8167   17.4975   -1.2261 O   0  0  0  0  0  0  0  0  0  0  0  0
   26.7611   16.0086   -3.5722 N   0  0  0  0  0  0  0  0  0  0  0  0
   29.1628   14.5094   -3.0900 O   0  0  0  0  0  0  0  0  0  0  0  0
   30.7498   15.4203   -0.8198 O   0  0  0  0  0  0  0  0  0  0  0  0
   28.8264   18.3611   -1.7194 O   0  0  0  0  0  0  0  0  0  0  0  0
   27.2592   16.8476   -0.6580 H   0  0  0  0  0  0  0  0  0  0  0  0
   26.1791   15.7473   -2.7763 H   0  0  0  0  0  0  0  0  0  0  0  0
   26.9782   15.1773   -4.1221 H   0  0  0  0  0  0  0  0  0  0  0  0
   29.7152   14.8308   -3.8197 H   0  0  0  0  0  0  0  0  0  0  0  0
   30.1971   15.2342   -0.0447 H   0  0  0  0  0  0  0  0  0  0  0  0
   30.9525   18.3283   -0.6598 C   0  0  0  0  0  0  0  0  0  0  0  0
   31.8570   18.1460   -1.7775 O   0  0  0  0  0  0  0  0  0  0  0  0
   31.9965   19.2658   -2.9423 P   0  0  0  0  0  0  0  0  0  0  0  0
   33.4409   19.5401   -3.1300 O   0  0  0  0  0  0  0  0  0  0  0  0
   31.1784   20.3867   -2.4672 O   0  0  0  0  0  0  0  0  0  0  0  0
   31.5075   18.6741   -4.2490 O   0  0  0  0  0  0  0  0  0  0  0  0
   31.5407   20.7201   -1.6315 H   0  0  0  0  0  0  0  0  0  0  0  0
   32.0870   17.9409   -4.5088 H   0  0  0  0  0  0  0  0  0  0  0  0
  1  2  1  0  0  0
  1  6  1  0  0  0
  1 10  1  0  0  0
  2  3  1  0  0  0
  2  7  1  0  0  0
  3  4  1  0  0  0
  3  8  1  0  0  0
  4  5  1  0  0  0
  4  9  1  0  0  0
  5 16  1  0  0  0
  5 10  1  0  0  0
 16 17  1  0  0  0
 17 18  1  0  0  0
 18 19  2  0  0  0
 18 20  1  0  0  0
 18 21  1  0  0  0
  6 11  1  0  0  0
  7 12  1  0  0  0
  7 13  1  0  0  0
  8 14  1  0  0  0
  9 15  1  0  0  0
 20 22  1  0  0  0
 21 23  1  0  0  0
M  END
> <minimizedAffinity>
-8.93049

$$$$
1MOQ_GLP_A_609


 23 23  0  0  0  0  0  0  0  0999 V2000
   30.0554   18.9127   -0.8288 C   0  0  0  0  0  0  0  0  0  0  0  0
   31.1273   18.5733   -1.8443 C   0  0  0  0  0  0  0  0  0  0  0  0
   30.4896   18.2391   -3.1824 C   0  0  0  0  0  0  0  0  0  0  0  0
   29.4875   17.1118   -3.0511 C   0  0  0  0  0  0  0  0  0  0  0  0
   28.4471   17.4932   -1.9771 C   0  0  0  0  0  0  0  0  0  0  0  0
   29.3974   20.0892   -1.2314 O   0  0  0  0  0  0  0  0  0  0  0  0
   32.0445   19.6723   -1.9683 N   0  0  0  0  0  0  0  0  0  0  0  0
   31.5261   17.8016   -4.0849 O   0  0  0  0  0  0  0  0  0  0  0  0
   28.7746   16.8494   -4.2421 O   0  0  0  0  0  0  0  0  0  0  0  0
   29.0872   17.9130   -0.7884 O   0  0  0  0  0  0  0  0  0  0  0  0
   28.9866   19.9492   -2.0989 H   0  0  0  0  0  0  0  0  0  0  0  0
   31.5411   20.5014   -2.2838 H   0  0  0  0  0  0  0  0  0  0  0  0
   32.7688   19.4358   -2.6465 H   0  0  0  0  0  0  0  0  0  0  0  0
   31.9563   17.0106   -3.7242 H   0  0  0  0  0  0  0  0  0  0  0  0
   28.2585   17.6326   -4.4892 H   0  0  0  0  0  0  0  0  0  0  0  0
   27.6245   16.2402   -1.6288 C   0  0  0  0  0  0  0  0  0  0  0  0
   26.5518   16.1118   -2.5948 O   0  0  0  0  0  0  0  0  0  0  0  0
   26.2850   14.7182   -3.3802 P   0  0  0  0  0  0  0  0  0  0  0  0
   26.4174   14.9887   -4.8315 O   0  0  0  0  0  0  0  0  0  0  0  0
   24.9610   14.2891   -2.9173 O   0  0  0  0  0  0  0  0  0  0  0  0
   27.3908   13.7422   -3.0317 O   0  0  0  0  0  0  0  0  0  0  0  0
   24.2996   14.9523   -3.1695 H   0  0  0  0  0  0  0  0  0  0  0  0
   28.2372   14.0809   -3.3631 H   0  0  0  0  0  0  0  0  0  0  0  0
  1  2  1  0  0  0
  1  6  1  0  0  0
  1 10  1  0  0  0
  2  3  1  0  0  0
  2  7  1  0  0  0
  3  4  1  0  0  0
  3  8  1  0  0  0
  4  5  1  0  0  0
  4  9  1  0  0  0
  5 16  1  0  0  0
  5 10  1  0  0  0
 16 17  1  0  0  0
 17 18  1  0  0  0
 18 19  2  0  0  0
 18 20  1  0  0  0
 18 21  1  0  0  0
  6 11  1  0  0  0
  7 12  1  0  0  0
  7 13  1  0  0  0
  8 14  1  0  0  0
  9 15  1  0  0  0
 20 22  1  0  0  0
 21 23  1  0  0  0
M  END
> <minimizedAffinity>
-8.90501

$$$$
1MOQ_GLP_A_609


 23 23  0  0  0  0  0  0  0  0999 V2000
   28.2672   16.1153   -0.6892 C   0  0  0  0  0  0  0  0  0  0  0  0
   27.6930   15.6452   -2.0101 C   0  0  0  0  0  0  0  0  0  0  0  0
   28.7136   15.8376   -3.1193 C   0  0  0  0  0  0  0  0  0  0  0  0
   29.1707   17.2784   -3.2062 C   0  0  0  0  0  0  0  0  0  0  0  0
   29.7053   17.7151   -1.8260 C   0  0  0  0  0  0  0  0  0  0  0  0
   29.3537   15.2920   -0.3417 O   0  0  0  0  0  0  0  0  0  0  0  0
   27.2964   14.2682   -1.9050 N   0  0  0  0  0  0  0  0  0  0  0  0
   28.0913   15.4984   -4.3754 O   0  0  0  0  0  0  0  0  0  0  0  0
   30.2131   17.4840   -4.1371 O   0  0  0  0  0  0  0  0  0  0  0  0
   28.7730   17.4069   -0.8089 O   0  0  0  0  0  0  0  0  0  0  0  0
   30.0361   15.3502   -1.0286 H   0  0  0  0  0  0  0  0  0  0  0  0
   28.1096   13.6967   -1.6760 H   0  0  0  0  0  0  0  0  0  0  0  0
   26.9028   13.9590   -2.7937 H   0  0  0  0  0  0  0  0  0  0  0  0
   27.3322   16.0826   -4.5284 H   0  0  0  0  0  0  0  0  0  0  0  0
   30.9938   16.9764   -3.8656 H   0  0  0  0  0  0  0  0  0  0  0  0
   29.8783   19.2441   -1.8320 C   0  0  0  0  0  0  0  0  0  0  0  0
   31.2919   19.5461   -1.9365 O   0  0  0  0  0  0  0  0  0  0  0  0
   31.8888   20.3677   -3.2009 P   0  0  0  0  0  0  0  0  0  0  0  0
   30.9301   20.2241   -4.3221 O   0  0  0  0  0  0  0  0  0  0  0  0
   33.2227   19.7941   -3.4087 O   0  0  0  0  0  0  0  0  0  0  0  0
   31.9144   21.8432   -2.8558 O   0  0  0  0  0  0  0  0  0  0  0  0
   33.1395   18.8522   -3.6253 H   0  0  0  0  0  0  0  0  0  0  0  0
   31.0068   22.1619   -2.7312 H   0  0  0  0  0  0  0  0  0  0  0  0
  1  2  1  0  0  0
  1  6  1  0  0  0
  1 10  1  0  0  0
  2  3  1  0  0  0
  2  7  1  0  0  0
  3  4  1  0  0  0
  3  8  1  0  0  0
  4  5  1  0  0  0
  4  9  1  0  0  0
  5 16  1  0  0  0
  5 10  1  0  0  0
 16 17  1  0  0  0
 17 18  1  0  0  0
 18 19  2  0  0  0
 18 20  1  0  0  0
 18 21  1  0  0  0
  6 11  1  0  0  0
  7 12  1  0  0  0
  7 13  1  0  0  0
  8 14  1  0  0  0
  9 15  1  0  0  0
 20 22  1  0  0  0
 21 23  1  0  0  0
M  END
> <minimizedAffinity>
-8.84287

$$$$
1MOQ_GLP_A_609


 23 23  0  0  0  0  0  0  0  0999 V2000
   31.1442   20.0861   -2.9021 C   0  0  0  0  0  0  0  0  0  0  0  0
   32.4269   19.3040   -2.7064 C   0  0  0  0  0  0  0  0  0  0  0  0
   32.1613   17.8175   -2.8757 C   0  0  0  0  0  0  0  0  0  0  0  0
   31.0812   17.3376   -1.9293 C   0  0  0  0  0  0  0  0  0  0  0  0
   29.8156   18.1944   -2.1430 C   0  0  0  0  0  0  0  0  0  0  0  0
   30.7124   19.9346   -4.2324 O   0  0  0  0  0  0  0  0  0  0  0  0
   33.4216   19.7612   -3.6370 N   0  0  0  0  0  0  0  0  0  0  0  0
   33.3715   17.0992   -2.5602 O   0  0  0  0  0  0  0  0  0  0  0  0
   30.7082   15.9908   -2.1359 O   0  0  0  0  0  0  0  0  0  0  0  0
   30.1312   19.5717   -2.0973 O   0  0  0  0  0  0  0  0  0  0  0  0
   30.5484   18.9960   -4.4142 H   0  0  0  0  0  0  0  0  0  0  0  0
   33.0880   19.6157   -4.5899 H   0  0  0  0  0  0  0  0  0  0  0  0
   34.2856   19.2378   -3.4957 H   0  0  0  0  0  0  0  0  0  0  0  0
   33.6252   17.2807   -1.6418 H   0  0  0  0  0  0  0  0  0  0  0  0
   30.3401   15.8904   -3.0277 H   0  0  0  0  0  0  0  0  0  0  0  0
   28.8382   17.9163   -0.9875 C   0  0  0  0  0  0  0  0  0  0  0  0
   27.5388   17.6059   -1.5495 O   0  0  0  0  0  0  0  0  0  0  0  0
   27.1825   16.1155   -2.0804 P   0  0  0  0  0  0  0  0  0  0  0  0
   27.8125   15.9512   -3.4120 O   0  0  0  0  0  0  0  0  0  0  0  0
   25.7174   16.0581   -2.0430 O   0  0  0  0  0  0  0  0  0  0  0  0
   27.8488   15.1017   -1.1720 O   0  0  0  0  0  0  0  0  0  0  0  0
   25.3521   16.7277   -2.6423 H   0  0  0  0  0  0  0  0  0  0  0  0
   28.8123   15.1896   -1.2412 H   0  0  0  0  0  0  0  0  0  0  0  0
  1  2  1  0  0  0
  1  6  1  0  0  0
  1 10  1  0  0  0
  2  3  1  0  0  0
  2  7  1  0  0  0
  3  4  1  0  0  0
  3  8  1  0  0  0
  4  5  1  0  0  0
  4  9  1  0  0  0
  5 16  1  0  0  0
  5 10  1  0  0  0
 16 17  1  0  0  0
 17 18  1  0  0  0
 18 19  2  0  0  0
 18 20  1  0  0  0
 18 21  1  0  0  0
  6 11  1  0  0  0
  7 12  1  0  0  0
  7 13  1  0  0  0
  8 14  1  0  0  0
  9 15  1  0  0  0
 20 22  1  0  0  0
 21 23  1  0  0  0
M  END
> <minimizedAffinity>
-8.49329

$$$$
1MOQ_GLP_A_609


 23 23  0  0  0  0  0  0  0  0999 V2000
   31.3995   18.3417   -3.7708 C   0  0  0  0  0  0  0  0  0  0  0  0
   30.8704   19.4905   -2.9367 C   0  0  0  0  0  0  0  0  0  0  0  0
   30.0010   18.9585   -1.8098 C   0  0  0  0  0  0  0  0  0  0  0  0
   28.8691   18.1046   -2.3407 C   0  0  0  0  0  0  0  0  0  0  0  0
   29.4620   16.9791   -3.2143 C   0  0  0  0  0  0  0  0  0  0  0  0
   32.2567   17.5560   -2.9790 O   0  0  0  0  0  0  0  0  0  0  0  0
   31.9672   20.2637   -2.4232 N   0  0  0  0  0  0  0  0  0  0  0  0
   29.4164   20.0799   -1.1164 O   0  0  0  0  0  0  0  0  0  0  0  0
   28.1081   17.4826   -1.3260 O   0  0  0  0  0  0  0  0  0  0  0  0
   30.3580   17.5089   -4.1710 O   0  0  0  0  0  0  0  0  0  0  0  0
   31.7644   17.2038   -2.2211 H   0  0  0  0  0  0  0  0  0  0  0  0
   32.5547   19.6719   -1.8358 H   0  0  0  0  0  0  0  0  0  0  0  0
   31.6059   21.0405   -1.8697 H   0  0  0  0  0  0  0  0  0  0  0  0
   28.8703   20.5923   -1.7330 H   0  0  0  0  0  0  0  0  0  0  0  0
   28.6757   16.8812   -0.8189 H   0  0  0  0  0  0  0  0  0  0  0  0
   28.3149   16.3100   -3.9916 C   0  0  0  0  0  0  0  0  0  0  0  0
   27.9198   15.1086   -3.2838 O   0  0  0  0  0  0  0  0  0  0  0  0
   26.3597   14.6931   -3.1306 P   0  0  0  0  0  0  0  0  0  0  0  0
   25.8361   14.4082   -4.4877 O   0  0  0  0  0  0  0  0  0  0  0  0
   25.7510   15.8248   -2.4235 O   0  0  0  0  0  0  0  0  0  0  0  0
   26.2753   13.3880   -2.3648 O   0  0  0  0  0  0  0  0  0  0  0  0
   25.8368   16.6267   -2.9624 H   0  0  0  0  0  0  0  0  0  0  0  0
   26.6930   12.6819   -2.8823 H   0  0  0  0  0  0  0  0  0  0  0  0
  1  2  1  0  0  0
  1  6  1  0  0  0
  1 10  1  0  0  0
  2  3  1  0  0  0
  2  7  1  0  0  0
  3  4  1  0  0  0
  3  8  1  0  0  0
  4  5  1  0  0  0
  4  9  1  0  0  0
  5 16  1  0  0  0
  5 10  1  0  0  0
 16 17  1  0  0  0
 17 18  1  0  0  0
 18 19  2  0  0  0
 18 20  1  0  0  0
 18 21  1  0  0  0
  6 11  1  0  0  0
  7 12  1  0  0  0
  7 13  1  0  0  0
  8 14  1  0  0  0
  9 15  1  0  0  0
 20 22  1  0  0  0
 21 23  1  0  0  0
M  END
> <minimizedAffinity>
-8.46873

$$$$
1MOQ_GLP_A_609


 23 23  0  0  0  0  0  0  0  0999 V2000
   31.7541   17.6719   -3.4963 C   0  0  0  0  0  0  0  0  0  0  0  0
   31.9990   19.1662   -3.5477 C   0  0  0  0  0  0  0  0  0  0  0  0
   31.3319   19.8441   -2.3627 C   0  0  0  0  0  0  0  0  0  0  0  0
   29.8502   19.5367   -2.3122 C   0  0  0  0  0  0  0  0  0  0  0  0
   29.6596   18.0053   -2.3038 C   0  0  0  0  0  0  0  0  0  0  0  0
   32.3889   17.1413   -2.3585 O   0  0  0  0  0  0  0  0  0  0  0  0
   33.4119   19.4266   -3.5647 N   0  0  0  0  0  0  0  0  0  0  0  0
   31.4788   21.2712   -2.5117 O   0  0  0  0  0  0  0  0  0  0  0  0
   29.2092   20.0391   -1.1579 O   0  0  0  0  0  0  0  0  0  0  0  0
   30.3955   17.4047   -3.3510 O   0  0  0  0  0  0  0  0  0  0  0  0
   32.0227   17.5554   -1.5614 H   0  0  0  0  0  0  0  0  0  0  0  0
   33.8372   19.0510   -2.7171 H   0  0  0  0  0  0  0  0  0  0  0  0
   33.5716   20.4331   -3.6080 H   0  0  0  0  0  0  0  0  0  0  0  0
   31.0487   21.5565   -3.3330 H   0  0  0  0  0  0  0  0  0  0  0  0
   29.5911   19.6234   -0.3691 H   0  0  0  0  0  0  0  0  0  0  0  0
   28.1740   17.6978   -2.5615 C   0  0  0  0  0  0  0  0  0  0  0  0
   27.8306   16.4744   -1.8646 O   0  0  0  0  0  0  0  0  0  0  0  0
   27.7002   15.0623   -2.6515 P   0  0  0  0  0  0  0  0  0  0  0  0
   26.8566   15.2919   -3.8483 O   0  0  0  0  0  0  0  0  0  0  0  0
   27.1658   14.1360   -1.6476 O   0  0  0  0  0  0  0  0  0  0  0  0
   29.0675   14.6651   -3.1707 O   0  0  0  0  0  0  0  0  0  0  0  0
   26.2932   14.4434   -1.3561 H   0  0  0  0  0  0  0  0  0  0  0  0
   29.3648   15.3136   -3.8278 H   0  0  0  0  0  0  0  0  0  0  0  0
  1  2  1  0  0  0
  1  6  1  0  0  0
  1 10  1  0  0  0
  2  3  1  0  0  0
  2  7  1  0  0  0
  3  4  1  0  0  0
  3  8  1  0  0  0
  4  5  1  0  0  0
  4  9  1  0  0  0
  5 16  1  0  0  0
  5 10  1  0  0  0
 16 17  1  0  0  0
 17 18  1  0  0  0
 18 19  2  0  0  0
 18 20  1  0  0  0
 18 21  1  0  0  0
  6 11  1  0  0  0
  7 12  1  0  0  0
  7 13  1  0  0  0
  8 14  1  0  0  0
  9 15  1  0  0  0
 20 22  1  0  0  0
 21 23  1  0  0  0
M  END
> <minimizedAffinity>
-8.33247

$$$$
1MOQ_GLP_A_609


 23 23  0  0  0  0  0  0  0  0999 V2000
   32.0001   18.2624   -1.7749 C   0  0  0  0  0  0  0  0  0  0  0  0
   31.9590   18.7189   -3.2190 C   0  0  0  0  0  0  0  0  0  0  0  0
   30.5881   19.2865   -3.5467 C   0  0  0  0  0  0  0  0  0  0  0  0
   29.4914   18.2823   -3.2616 C   0  0  0  0  0  0  0  0  0  0  0  0
   29.6072   17.8223   -1.7931 C   0  0  0  0  0  0  0  0  0  0  0  0
   31.8504   19.3812   -0.9352 O   0  0  0  0  0  0  0  0  0  0  0  0
   32.9907   19.6916   -3.4507 N   0  0  0  0  0  0  0  0  0  0  0  0
   30.5464   19.5933   -4.9554 O   0  0  0  0  0  0  0  0  0  0  0  0
   28.1901   18.8059   -3.4291 O   0  0  0  0  0  0  0  0  0  0  0  0
   30.9293   17.4162   -1.4998 O   0  0  0  0  0  0  0  0  0  0  0  0
   30.9979   19.8079   -1.1141 H   0  0  0  0  0  0  0  0  0  0  0  0
   32.8398   20.4981   -2.8448 H   0  0  0  0  0  0  0  0  0  0  0  0
   32.9645   19.9894   -4.4259 H   0  0  0  0  0  0  0  0  0  0  0  0
   30.6925   18.7825   -5.4673 H   0  0  0  0  0  0  0  0  0  0  0  0
   28.0507   19.5327   -2.8020 H   0  0  0  0  0  0  0  0  0  0  0  0
   28.7027   16.5932   -1.5948 C   0  0  0  0  0  0  0  0  0  0  0  0
   28.5406   15.9310   -2.8737 O   0  0  0  0  0  0  0  0  0  0  0  0
   27.0758   15.5060   -3.4250 P   0  0  0  0  0  0  0  0  0  0  0  0
   26.7312   14.1975   -2.8200 O   0  0  0  0  0  0  0  0  0  0  0  0
   27.2169   15.5301   -4.8847 O   0  0  0  0  0  0  0  0  0  0  0  0
   26.0522   16.4937   -2.9020 O   0  0  0  0  0  0  0  0  0  0  0  0
   27.8831   14.8793   -5.1560 H   0  0  0  0  0  0  0  0  0  0  0  0
   26.0056   16.4297   -1.9353 H   0  0  0  0  0  0  0  0  0  0  0  0
  1  2  1  0  0  0
  1  6  1  0  0  0
  1 10  1  0  0  0
  2  3  1  0  0  0
  2  7  1  0  0  0
  3  4  1  0  0  0
  3  8  1  0  0  0
  4  5  1  0  0  0
  4  9  1  0  0  0
  5 16  1  0  0  0
  5 10  1  0  0  0
 16 17  1  0  0  0
 17 18  1  0  0  0
 18 19  2  0  0  0
 18 20  1  0  0  0
 18 21  1  0  0  0
  6 11  1  0  0  0
  7 12  1  0  0  0
  7 13  1  0  0  0
  8 14  1  0  0  0
  9 15  1  0  0  0
 20 22  1  0  0  0
 21 23  1  0  0  0
M  END
> <minimizedAffinity>
-8.23170

$$$$
1MOQ_GLP_A_609


 23 23  0  0  0  0  0  0  0  0999 V2000
   31.1434   17.2947   -1.5253 C   0  0  0  0  0  0  0  0  0  0  0  0
   30.0947   16.2389   -1.2406 C   0  0  0  0  0  0  0  0  0  0  0  0
   29.4526   15.7796   -2.5389 C   0  0  0  0  0  0  0  0  0  0  0  0
   28.8595   16.9435   -3.3043 C   0  0  0  0  0  0  0  0  0  0  0  0
   29.9585   18.0034   -3.5287 C   0  0  0  0  0  0  0  0  0  0  0  0
   32.1862   16.7167   -2.2719 O   0  0  0  0  0  0  0  0  0  0  0  0
   30.6933   15.1359   -0.5408 N   0  0  0  0  0  0  0  0  0  0  0  0
   28.3784   14.8715   -2.2200 O   0  0  0  0  0  0  0  0  0  0  0  0
   28.3634   16.5867   -4.5779 O   0  0  0  0  0  0  0  0  0  0  0  0
   30.6107   18.3118   -2.3129 O   0  0  0  0  0  0  0  0  0  0  0  0
   31.8345   16.3777   -3.1099 H   0  0  0  0  0  0  0  0  0  0  0  0
   31.4274   14.7254   -1.1178 H   0  0  0  0  0  0  0  0  0  0  0  0
   29.9819   14.4319   -0.3440 H   0  0  0  0  0  0  0  0  0  0  0  0
   27.7186   15.3294   -1.6761 H   0  0  0  0  0  0  0  0  0  0  0  0
   29.0908   16.2543   -5.1268 H   0  0  0  0  0  0  0  0  0  0  0  0
   29.2921   19.2987   -4.0250 C   0  0  0  0  0  0  0  0  0  0  0  0
   30.3133   20.1470   -4.6062 O   0  0  0  0  0  0  0  0  0  0  0  0
   31.1440   21.2081   -3.7039 P   0  0  0  0  0  0  0  0  0  0  0  0
   30.9924   22.5436   -4.3286 O   0  0  0  0  0  0  0  0  0  0  0  0
   32.5042   20.6610   -3.6614 O   0  0  0  0  0  0  0  0  0  0  0  0
   30.4906   21.3053   -2.3399 O   0  0  0  0  0  0  0  0  0  0  0  0
   32.8662   20.6243   -4.5606 H   0  0  0  0  0  0  0  0  0  0  0  0
   29.5978   21.6724   -2.4344 H   0  0  0  0  0  0  0  0  0  0  0  0
  1  2  1  0  0  0
  1  6  1  0  0  0
  1 10  1  0  0  0
  2  3  1  0  0  0
  2  7  1  0  0  0
  3  4  1  0  0  0
  3  8  1  0  0  0
  4  5  1  0  0  0
  4  9  1  0  0  0
  5 16  1  0  0  0
  5 10  1  0  0  0
 16 17  1  0  0  0
 17 18  1  0  0  0
 18 19  2  0  0  0
 18 20  1  0  0  0
 18 21  1  0  0  0
  6 11  1  0  0  0
  7 12  1  0  0  0
  7 13  1  0  0  0
  8 14  1  0  0  0
  9 15  1  0  0  0
 20 22  1  0  0  0
 21 23  1  0  0  0
M  END
> <minimizedAffinity>
-8.16058

$$$$
