1C5O_BAM_H_410


 13 13  0  0  0  0  0  0  0  0999 V2000
   11.4355   -8.9465   24.9137 C   0  0  0  0  0  0  0  0  0  0  0  0
   10.2577   -8.6575   25.3778 N   0  0  0  0  0  0  0  0  0  0  0  0
   12.4663   -8.1677   25.1699 N   0  0  0  0  0  0  0  0  0  0  0  0
    9.4931   -9.2456   25.1811 H   0  0  0  0  0  0  0  0  0  0  0  0
   10.1293   -7.8502   25.9265 H   0  0  0  0  0  0  0  0  0  0  0  0
   13.3555   -8.3950   24.8137 H   0  0  0  0  0  0  0  0  0  0  0  0
   12.3476   -7.3583   25.7177 H   0  0  0  0  0  0  0  0  0  0  0  0
   11.5822  -10.1098   24.1406 C   0  0  0  0  0  0  0  0  0  0  0  0
   10.9213  -11.2950   24.4609 C   0  0  0  0  0  0  0  0  0  0  0  0
   11.0871  -12.4388   23.6933 C   0  0  0  0  0  0  0  0  0  0  0  0
   11.9161  -12.4320   22.5840 C   0  0  0  0  0  0  0  0  0  0  0  0
   12.5771  -11.2901   22.2411 C   0  0  0  0  0  0  0  0  0  0  0  0
   12.4094  -10.1465   23.0114 C   0  0  0  0  0  0  0  0  0  0  0  0
  8  9  2  0  0  0
  8 13  1  0  0  0
  8  1  1  0  0  0
  9 10  1  0  0  0
 10 11  2  0  0  0
 11 12  1  0  0  0
 12 13  2  0  0  0
  1  2  1  0  0  0
  1  3  2  0  0  0
  2  4  1  0  0  0
  2  5  1  0  0  0
  3  6  1  0  0  0
  3  7  1  0  0  0
M  CHG 1   3   1
M  END
> <minimizedAffinity>
-5.44816

$$$$
1C5O_BAM_H_410


 13 13  0  0  0  0  0  0  0  0999 V2000
   11.0405  -11.4474   24.4040 C   0  0  0  0  0  0  0  0  0  0  0  0
   10.6778  -12.4972   25.0768 N   0  0  0  0  0  0  0  0  0  0  0  0
   10.7421  -10.2392   24.8351 N   0  0  0  0  0  0  0  0  0  0  0  0
   10.9055  -13.3963   24.7467 H   0  0  0  0  0  0  0  0  0  0  0  0
   10.1752  -12.3940   25.9170 H   0  0  0  0  0  0  0  0  0  0  0  0
   11.0213   -9.4492   24.3183 H   0  0  0  0  0  0  0  0  0  0  0  0
   10.2398  -10.1261   25.6743 H   0  0  0  0  0  0  0  0  0  0  0  0
   11.7622  -11.6330   23.2135 C   0  0  0  0  0  0  0  0  0  0  0  0
   12.5236  -10.6115   22.6472 C   0  0  0  0  0  0  0  0  0  0  0  0
   13.2207  -10.8081   21.4637 C   0  0  0  0  0  0  0  0  0  0  0  0
   13.1784  -12.0297   20.8127 C   0  0  0  0  0  0  0  0  0  0  0  0
   12.4445  -13.0510   21.3387 C   0  0  0  0  0  0  0  0  0  0  0  0
   11.7476  -12.8513   22.5235 C   0  0  0  0  0  0  0  0  0  0  0  0
  8  9  2  0  0  0
  8 13  1  0  0  0
  8  1  1  0  0  0
  9 10  1  0  0  0
 10 11  2  0  0  0
 11 12  1  0  0  0
 12 13  2  0  0  0
  1  2  1  0  0  0
  1  3  2  0  0  0
  2  4  1  0  0  0
  2  5  1  0  0  0
  3  6  1  0  0  0
  3  7  1  0  0  0
M  CHG 1   3   1
M  END
> <minimizedAffinity>
-5.33477

$$$$
1C5O_BAM_H_410


 13 13  0  0  0  0  0  0  0  0999 V2000
   11.0337  -11.4509   24.4028 C   0  0  0  0  0  0  0  0  0  0  0  0
   10.6821  -12.4993   25.0837 N   0  0  0  0  0  0  0  0  0  0  0  0
   10.7297  -10.2423   24.8289 N   0  0  0  0  0  0  0  0  0  0  0  0
   10.9138  -13.3987   24.7572 H   0  0  0  0  0  0  0  0  0  0  0  0
   10.1839  -12.3947   25.9263 H   0  0  0  0  0  0  0  0  0  0  0  0
   11.0005   -9.4534   24.3059 H   0  0  0  0  0  0  0  0  0  0  0  0
   10.2318  -10.1278   25.6704 H   0  0  0  0  0  0  0  0  0  0  0  0
   11.7493  -11.6384   23.2089 C   0  0  0  0  0  0  0  0  0  0  0  0
   11.7263  -12.8499   22.5193 C   0  0  0  0  0  0  0  0  0  0  0  0
   12.4492  -13.0222   21.3475 C   0  0  0  0  0  0  0  0  0  0  0  0
   13.2144  -11.9901   20.8306 C   0  0  0  0  0  0  0  0  0  0  0  0
   13.2591  -10.7916   21.4785 C   0  0  0  0  0  0  0  0  0  0  0  0
   12.5346  -10.6220   22.6514 C   0  0  0  0  0  0  0  0  0  0  0  0
  8  9  2  0  0  0
  8 13  1  0  0  0
  8  1  1  0  0  0
  9 10  1  0  0  0
 10 11  2  0  0  0
 11 12  1  0  0  0
 12 13  2  0  0  0
  1  2  1  0  0  0
  1  3  2  0  0  0
  2  4  1  0  0  0
  2  5  1  0  0  0
  3  6  1  0  0  0
  3  7  1  0  0  0
M  CHG 1   3   1
M  END
> <minimizedAffinity>
-5.32161

$$$$
1C5O_BAM_H_410


 13 13  0  0  0  0  0  0  0  0999 V2000
   10.9830  -11.6625   23.7042 C   0  0  0  0  0  0  0  0  0  0  0  0
   10.7596  -10.4546   24.1255 N   0  0  0  0  0  0  0  0  0  0  0  0
   10.1385  -12.6350   23.9792 N   0  0  0  0  0  0  0  0  0  0  0  0
   11.3966   -9.7341   23.9150 H   0  0  0  0  0  0  0  0  0  0  0  0
    9.9532  -10.2594   24.6555 H   0  0  0  0  0  0  0  0  0  0  0  0
   10.3162  -13.5476   23.6554 H   0  0  0  0  0  0  0  0  0  0  0  0
    9.3294  -12.4493   24.5085 H   0  0  0  0  0  0  0  0  0  0  0  0
   12.1401  -11.9022   22.9450 C   0  0  0  0  0  0  0  0  0  0  0  0
   12.6082  -13.1932   22.7041 C   0  0  0  0  0  0  0  0  0  0  0  0
   13.7602  -13.4117   21.9622 C   0  0  0  0  0  0  0  0  0  0  0  0
   14.4767  -12.3482   21.4390 C   0  0  0  0  0  0  0  0  0  0  0  0
   14.0471  -11.0725   21.6543 C   0  0  0  0  0  0  0  0  0  0  0  0
   12.8936  -10.8567   22.3975 C   0  0  0  0  0  0  0  0  0  0  0  0
  8  9  2  0  0  0
  8 13  1  0  0  0
  8  1  1  0  0  0
  9 10  1  0  0  0
 10 11  2  0  0  0
 11 12  1  0  0  0
 12 13  2  0  0  0
  1  2  1  0  0  0
  1  3  2  0  0  0
  2  4  1  0  0  0
  2  5  1  0  0  0
  3  6  1  0  0  0
  3  7  1  0  0  0
M  CHG 1   3   1
M  END
> <minimizedAffinity>
-5.08892

$$$$
1C5O_BAM_H_410


 13 13  0  0  0  0  0  0  0  0999 V2000
   13.3394  -10.8826   21.3358 C   0  0  0  0  0  0  0  0  0  0  0  0
   12.9929  -11.5205   20.2590 N   0  0  0  0  0  0  0  0  0  0  0  0
   14.4117  -10.1181   21.3459 N   0  0  0  0  0  0  0  0  0  0  0  0
   12.1897  -12.0897   20.2610 H   0  0  0  0  0  0  0  0  0  0  0  0
   13.5335  -11.4348   19.4407 H   0  0  0  0  0  0  0  0  0  0  0  0
   14.6665   -9.6384   22.1670 H   0  0  0  0  0  0  0  0  0  0  0  0
   14.9585  -10.0263   20.5324 H   0  0  0  0  0  0  0  0  0  0  0  0
   12.5403  -11.0234   22.4822 C   0  0  0  0  0  0  0  0  0  0  0  0
   12.0481  -12.2628   22.8890 C   0  0  0  0  0  0  0  0  0  0  0  0
   11.2496  -12.3824   24.0174 C   0  0  0  0  0  0  0  0  0  0  0  0
   10.9208  -11.2687   24.7722 C   0  0  0  0  0  0  0  0  0  0  0  0
   11.3856  -10.0412   24.4039 C   0  0  0  0  0  0  0  0  0  0  0  0
   12.1846   -9.9245   23.2738 C   0  0  0  0  0  0  0  0  0  0  0  0
  8  9  2  0  0  0
  8 13  1  0  0  0
  8  1  1  0  0  0
  9 10  1  0  0  0
 10 11  2  0  0  0
 11 12  1  0  0  0
 12 13  2  0  0  0
  1  2  1  0  0  0
  1  3  2  0  0  0
  2  4  1  0  0  0
  2  5  1  0  0  0
  3  6  1  0  0  0
  3  7  1  0  0  0
M  CHG 1   3   1
M  END
> <minimizedAffinity>
-4.93271

$$$$
1C5O_BAM_H_410


 13 13  0  0  0  0  0  0  0  0999 V2000
   12.5168  -13.9410   22.0221 C   0  0  0  0  0  0  0  0  0  0  0  0
   12.6790  -14.9437   22.8312 N   0  0  0  0  0  0  0  0  0  0  0  0
   12.5710  -14.1169   20.7180 N   0  0  0  0  0  0  0  0  0  0  0  0
   12.6368  -14.8026   23.8046 H   0  0  0  0  0  0  0  0  0  0  0  0
   12.8442  -15.8450   22.4712 H   0  0  0  0  0  0  0  0  0  0  0  0
   12.4468  -13.3506   20.1124 H   0  0  0  0  0  0  0  0  0  0  0  0
   12.7356  -15.0145   20.3487 H   0  0  0  0  0  0  0  0  0  0  0  0
   12.2762  -12.6711   22.5716 C   0  0  0  0  0  0  0  0  0  0  0  0
   12.9827  -11.5432   22.1560 C   0  0  0  0  0  0  0  0  0  0  0  0
   12.7411  -10.2979   22.7182 C   0  0  0  0  0  0  0  0  0  0  0  0
   11.7871  -10.1429   23.7100 C   0  0  0  0  0  0  0  0  0  0  0  0
   11.0770  -11.2243   24.1398 C   0  0  0  0  0  0  0  0  0  0  0  0
   11.3210  -12.4697   23.5754 C   0  0  0  0  0  0  0  0  0  0  0  0
  8  9  2  0  0  0
  8 13  1  0  0  0
  8  1  1  0  0  0
  9 10  1  0  0  0
 10 11  2  0  0  0
 11 12  1  0  0  0
 12 13  2  0  0  0
  1  2  1  0  0  0
  1  3  2  0  0  0
  2  4  1  0  0  0
  2  5  1  0  0  0
  3  6  1  0  0  0
  3  7  1  0  0  0
M  CHG 1   3   1
M  END
> <minimizedAffinity>
-4.62734

$$$$
1C5O_BAM_H_410


 13 13  0  0  0  0  0  0  0  0999 V2000
   14.7871  -12.1929   21.1100 C   0  0  0  0  0  0  0  0  0  0  0  0
   14.9830  -13.3879   20.6410 N   0  0  0  0  0  0  0  0  0  0  0  0
   15.6342  -11.2207   20.8419 N   0  0  0  0  0  0  0  0  0  0  0  0
   14.3443  -14.1083   20.8468 H   0  0  0  0  0  0  0  0  0  0  0  0
   15.7702  -13.5734   20.0796 H   0  0  0  0  0  0  0  0  0  0  0  0
   15.4774  -10.3179   21.2019 H   0  0  0  0  0  0  0  0  0  0  0  0
   16.4243  -11.3968   20.2814 H   0  0  0  0  0  0  0  0  0  0  0  0
   13.6497  -11.9637   21.9014 C   0  0  0  0  0  0  0  0  0  0  0  0
   13.1807  -10.6767   22.1612 C   0  0  0  0  0  0  0  0  0  0  0  0
   12.0625  -10.4674   22.9555 C   0  0  0  0  0  0  0  0  0  0  0  0
   11.3802  -11.5365   23.5119 C   0  0  0  0  0  0  0  0  0  0  0  0
   11.8106  -12.8086   23.2779 C   0  0  0  0  0  0  0  0  0  0  0  0
   12.9304  -13.0152   22.4825 C   0  0  0  0  0  0  0  0  0  0  0  0
  8  9  2  0  0  0
  8 13  1  0  0  0
  8  1  1  0  0  0
  9 10  1  0  0  0
 10 11  2  0  0  0
 11 12  1  0  0  0
 12 13  2  0  0  0
  1  2  1  0  0  0
  1  3  2  0  0  0
  2  4  1  0  0  0
  2  5  1  0  0  0
  3  6  1  0  0  0
  3  7  1  0  0  0
M  CHG 1   3   1
M  END
> <minimizedAffinity>
-4.62412

$$$$
1C5O_BAM_H_410


 13 13  0  0  0  0  0  0  0  0999 V2000
   12.5750  -14.1507   21.8821 C   0  0  0  0  0  0  0  0  0  0  0  0
   12.7701  -15.1207   22.7231 N   0  0  0  0  0  0  0  0  0  0  0  0
   12.5519  -14.3824   20.5858 N   0  0  0  0  0  0  0  0  0  0  0  0
   12.7857  -14.9379   23.6904 H   0  0  0  0  0  0  0  0  0  0  0  0
   12.9025  -16.0389   22.3935 H   0  0  0  0  0  0  0  0  0  0  0  0
   12.4033  -13.6406   19.9557 H   0  0  0  0  0  0  0  0  0  0  0  0
   12.6833  -15.2973   20.2468 H   0  0  0  0  0  0  0  0  0  0  0  0
   12.3831  -12.8551   22.3890 C   0  0  0  0  0  0  0  0  0  0  0  0
   11.3751  -12.5657   23.3078 C   0  0  0  0  0  0  0  0  0  0  0  0
   11.1915  -11.2774   23.7892 C   0  0  0  0  0  0  0  0  0  0  0  0
   12.0092  -10.2420   23.3682 C   0  0  0  0  0  0  0  0  0  0  0  0
   13.0055  -10.4893   22.4713 C   0  0  0  0  0  0  0  0  0  0  0  0
   13.1869  -11.7799   21.9909 C   0  0  0  0  0  0  0  0  0  0  0  0
  8  9  2  0  0  0
  8 13  1  0  0  0
  8  1  1  0  0  0
  9 10  1  0  0  0
 10 11  2  0  0  0
 11 12  1  0  0  0
 12 13  2  0  0  0
  1  2  1  0  0  0
  1  3  2  0  0  0
  2  4  1  0  0  0
  2  5  1  0  0  0
  3  6  1  0  0  0
  3  7  1  0  0  0
M  CHG 1   3   1
M  END
> <minimizedAffinity>
-4.55888

$$$$
1C5O_BAM_H_410


 13 13  0  0  0  0  0  0  0  0999 V2000
   15.1037  -12.4476   21.0774 C   0  0  0  0  0  0  0  0  0  0  0  0
   15.7879  -11.4315   20.6463 N   0  0  0  0  0  0  0  0  0  0  0  0
   15.5351  -13.6767   20.8834 N   0  0  0  0  0  0  0  0  0  0  0  0
   15.4574  -10.5163   20.7960 H   0  0  0  0  0  0  0  0  0  0  0  0
   16.6371  -11.5764   20.1698 H   0  0  0  0  0  0  0  0  0  0  0  0
   15.0095  -14.4408   21.2139 H   0  0  0  0  0  0  0  0  0  0  0  0
   16.3832  -13.8315   20.4080 H   0  0  0  0  0  0  0  0  0  0  0  0
   13.9004  -12.2022   21.7589 C   0  0  0  0  0  0  0  0  0  0  0  0
   13.2042  -13.2181   22.4126 C   0  0  0  0  0  0  0  0  0  0  0  0
   12.0101  -12.9608   23.0708 C   0  0  0  0  0  0  0  0  0  0  0  0
   11.4779  -11.6825   23.0961 C   0  0  0  0  0  0  0  0  0  0  0  0
   12.1327  -10.6650   22.4681 C   0  0  0  0  0  0  0  0  0  0  0  0
   13.3277  -10.9255   21.8099 C   0  0  0  0  0  0  0  0  0  0  0  0
  8  9  2  0  0  0
  8 13  1  0  0  0
  8  1  1  0  0  0
  9 10  1  0  0  0
 10 11  2  0  0  0
 11 12  1  0  0  0
 12 13  2  0  0  0
  1  2  1  0  0  0
  1  3  2  0  0  0
  2  4  1  0  0  0
  2  5  1  0  0  0
  3  6  1  0  0  0
  3  7  1  0  0  0
M  CHG 1   3   1
M  END
> <minimizedAffinity>
-4.46962

$$$$
1C5O_BAM_H_410


 13 13  0  0  0  0  0  0  0  0999 V2000
   13.1677  -11.0251   21.3507 C   0  0  0  0  0  0  0  0  0  0  0  0
   11.9778  -10.5729   21.6072 N   0  0  0  0  0  0  0  0  0  0  0  0
   14.2142  -10.2273   21.4069 N   0  0  0  0  0  0  0  0  0  0  0  0
   11.2015  -11.1768   21.5626 H   0  0  0  0  0  0  0  0  0  0  0  0
   11.8518   -9.6262   21.8462 H   0  0  0  0  0  0  0  0  0  0  0  0
   15.1125  -10.5792   21.2108 H   0  0  0  0  0  0  0  0  0  0  0  0
   14.0980   -9.2791   21.6450 H   0  0  0  0  0  0  0  0  0  0  0  0
   13.3099  -12.3827   21.0199 C   0  0  0  0  0  0  0  0  0  0  0  0
   14.4059  -12.8538   20.2982 C   0  0  0  0  0  0  0  0  0  0  0  0
   14.5246  -14.1965   19.9692 C   0  0  0  0  0  0  0  0  0  0  0  0
   13.5537  -15.1068   20.3519 C   0  0  0  0  0  0  0  0  0  0  0  0
   12.4690  -14.6810   21.0594 C   0  0  0  0  0  0  0  0  0  0  0  0
   12.3527  -13.3363   21.3873 C   0  0  0  0  0  0  0  0  0  0  0  0
  8  9  2  0  0  0
  8 13  1  0  0  0
  8  1  1  0  0  0
  9 10  1  0  0  0
 10 11  2  0  0  0
 11 12  1  0  0  0
 12 13  2  0  0  0
  1  2  1  0  0  0
  1  3  2  0  0  0
  2  4  1  0  0  0
  2  5  1  0  0  0
  3  6  1  0  0  0
  3  7  1  0  0  0
M  CHG 1   3   1
M  END
> <minimizedAffinity>
-4.17920

$$$$
