4BNY_36I_B_1248


 21 24  0  0  0  0  0  0  0  0999 V2000
    7.5382   -3.2668   33.6573 N   0  0  0  0  0  0  0  0  0  0  0  0
    8.5077   -2.3091   33.6879 C   0  0  0  0  0  0  0  0  0  0  0  0
    8.2105   -1.1399   34.1932 N   0  0  0  0  0  0  0  0  0  0  0  0
    6.9591   -0.9197   34.6326 C   0  0  0  0  0  0  0  0  0  0  0  0
    5.9997   -1.8009   34.6107 C   0  0  0  0  0  0  0  0  0  0  0  0
    6.2578   -3.0237   34.1254 C   0  0  0  0  0  0  0  0  0  0  0  0
    5.1486   -3.8202   34.1682 C   0  0  0  0  0  0  0  0  0  0  0  0
    4.0282   -3.2550   34.6712 C   0  0  0  0  0  0  0  0  0  0  0  0
    4.3956   -1.6055   35.1552 S   0  0  0  0  0  0  0  0  0  0  0  0
    9.8409   -2.4618   33.2620 C   0  0  0  0  0  0  0  0  0  0  0  0
   10.8050   -1.4718   33.4865 C   0  0  0  0  0  0  0  0  0  0  0  0
   12.1493   -1.7069   33.1187 C   0  0  0  0  0  0  0  0  0  0  0  0
   10.2063   -3.6576   32.7421 C   0  0  0  0  0  0  0  0  0  0  0  0
   11.4910   -3.9079   32.3668 C   0  0  0  0  0  0  0  0  0  0  0  0
   12.4503   -2.9278   32.5088 C   0  0  0  0  0  0  0  0  0  0  0  0
    6.5948    1.4045   34.1919 C   0  0  0  0  0  0  0  0  0  0  0  0
    6.6378    0.2472   35.1027 N   0  0  0  0  0  0  0  0  0  0  0  0
    6.5576    0.3677   36.5336 C   0  0  0  0  0  0  0  0  0  0  0  0
    5.7641    2.4492   34.7253 C   0  0  0  0  0  0  0  0  0  0  0  0
    6.2582    2.6144   36.0245 O   0  0  0  0  0  0  0  0  0  0  0  0
    5.7319    1.5026   36.6887 C   0  0  0  0  0  0  0  0  0  0  0  0
  1  2  2  0  0  0
  1  6  1  0  0  0
  2  3  1  0  0  0
  2 10  1  0  0  0
  3  4  2  0  0  0
  4  5  1  0  0  0
  4 17  1  0  0  0
  5  6  2  0  0  0
  5  9  1  0  0  0
  6  7  1  0  0  0
  7  8  2  0  0  0
 10 11  2  0  0  0
 10 13  1  0  0  0
 11 12  1  0  0  0
 12 15  2  0  0  0
  8  9  1  0  0  0
 13 14  2  0  0  0
 14 15  1  0  0  0
 16 17  1  0  0  0
 16 19  1  0  0  0
 17 18  1  0  0  0
 18 21  1  0  0  0
 19 20  1  0  0  0
 20 21  1  0  0  0
M  END
> <minimizedAffinity>
-9.60448

$$$$
4BNY_36I_B_1248


 21 24  0  0  0  0  0  0  0  0999 V2000
    6.1345   -1.8439   34.5601 N   0  0  0  0  0  0  0  0  0  0  0  0
    7.0294   -0.8169   34.5105 C   0  0  0  0  0  0  0  0  0  0  0  0
    8.2106   -1.0461   33.9976 N   0  0  0  0  0  0  0  0  0  0  0  0
    8.5048   -2.2861   33.5694 C   0  0  0  0  0  0  0  0  0  0  0  0
    7.6855   -3.2983   33.6095 C   0  0  0  0  0  0  0  0  0  0  0  0
    6.4532   -3.1118   34.1033 C   0  0  0  0  0  0  0  0  0  0  0  0
    5.7273   -4.2690   34.0796 C   0  0  0  0  0  0  0  0  0  0  0  0
    6.3571   -5.3573   33.5832 C   0  0  0  0  0  0  0  0  0  0  0  0
    7.9762   -4.8930   33.0801 S   0  0  0  0  0  0  0  0  0  0  0  0
    6.7973    0.5088   34.9238 C   0  0  0  0  0  0  0  0  0  0  0  0
    7.7655    1.5087   34.7731 C   0  0  0  0  0  0  0  0  0  0  0  0
    7.4551    2.8427   35.1222 C   0  0  0  0  0  0  0  0  0  0  0  0
    5.5538    0.8293   35.3537 C   0  0  0  0  0  0  0  0  0  0  0  0
    5.2300    2.1031   35.7093 C   0  0  0  0  0  0  0  0  0  0  0  0
    6.1823    3.0977   35.6401 C   0  0  0  0  0  0  0  0  0  0  0  0
   10.8527   -2.4860   33.9895 C   0  0  0  0  0  0  0  0  0  0  0  0
    9.6854   -2.5391   33.0920 N   0  0  0  0  0  0  0  0  0  0  0  0
    9.7957   -2.6412   31.6616 C   0  0  0  0  0  0  0  0  0  0  0  0
   11.9446   -3.2566   33.4605 C   0  0  0  0  0  0  0  0  0  0  0  0
   12.0627   -2.7801   32.1497 O   0  0  0  0  0  0  0  0  0  0  0  0
   10.9814   -3.3929   31.5097 C   0  0  0  0  0  0  0  0  0  0  0  0
  1  2  2  0  0  0
  1  6  1  0  0  0
  2  3  1  0  0  0
  2 10  1  0  0  0
  3  4  2  0  0  0
  4  5  1  0  0  0
  4 17  1  0  0  0
  5  6  2  0  0  0
  5  9  1  0  0  0
  6  7  1  0  0  0
  7  8  2  0  0  0
 10 11  2  0  0  0
 10 13  1  0  0  0
 11 12  1  0  0  0
 12 15  2  0  0  0
  8  9  1  0  0  0
 13 14  2  0  0  0
 14 15  1  0  0  0
 16 17  1  0  0  0
 16 19  1  0  0  0
 17 18  1  0  0  0
 18 21  1  0  0  0
 19 20  1  0  0  0
 20 21  1  0  0  0
M  END
> <minimizedAffinity>
-9.50535

$$$$
4BNY_36I_B_1248


 21 24  0  0  0  0  0  0  0  0999 V2000
    9.0575   -0.1333   34.0669 N   0  0  0  0  0  0  0  0  0  0  0  0
    7.7588   -0.1649   34.4796 C   0  0  0  0  0  0  0  0  0  0  0  0
    7.0894   -1.2799   34.3403 N   0  0  0  0  0  0  0  0  0  0  0  0
    7.6958   -2.3363   33.7712 C   0  0  0  0  0  0  0  0  0  0  0  0
    8.9292   -2.3461   33.3516 C   0  0  0  0  0  0  0  0  0  0  0  0
    9.6676   -1.2361   33.4931 C   0  0  0  0  0  0  0  0  0  0  0  0
   10.9292   -1.4115   32.9988 C   0  0  0  0  0  0  0  0  0  0  0  0
   11.1991   -2.6269   32.4721 C   0  0  0  0  0  0  0  0  0  0  0  0
    9.7724   -3.6415   32.6312 S   0  0  0  0  0  0  0  0  0  0  0  0
    7.0560    0.8886   35.0946 C   0  0  0  0  0  0  0  0  0  0  0  0
    7.3995    2.2287   34.8801 C   0  0  0  0  0  0  0  0  0  0  0  0
    6.6105    3.2540   35.4496 C   0  0  0  0  0  0  0  0  0  0  0  0
    5.9432    0.5794   35.8017 C   0  0  0  0  0  0  0  0  0  0  0  0
    5.1715    1.5451   36.3725 C   0  0  0  0  0  0  0  0  0  0  0  0
    5.5231    2.8716   36.2398 C   0  0  0  0  0  0  0  0  0  0  0  0
    5.6600   -3.3772   33.0634 C   0  0  0  0  0  0  0  0  0  0  0  0
    7.0340   -3.4389   33.5917 N   0  0  0  0  0  0  0  0  0  0  0  0
    7.6173   -4.6378   34.1311 C   0  0  0  0  0  0  0  0  0  0  0  0
    5.2818   -4.6278   32.4645 C   0  0  0  0  0  0  0  0  0  0  0  0
    5.5952   -5.5625   33.4582 O   0  0  0  0  0  0  0  0  0  0  0  0
    6.9877   -5.6431   33.3651 C   0  0  0  0  0  0  0  0  0  0  0  0
  1  2  2  0  0  0
  1  6  1  0  0  0
  2  3  1  0  0  0
  2 10  1  0  0  0
  3  4  2  0  0  0
  4  5  1  0  0  0
  4 17  1  0  0  0
  5  6  2  0  0  0
  5  9  1  0  0  0
  6  7  1  0  0  0
  7  8  2  0  0  0
 10 11  2  0  0  0
 10 13  1  0  0  0
 11 12  1  0  0  0
 12 15  2  0  0  0
  8  9  1  0  0  0
 13 14  2  0  0  0
 14 15  1  0  0  0
 16 17  1  0  0  0
 16 19  1  0  0  0
 17 18  1  0  0  0
 18 21  1  0  0  0
 19 20  1  0  0  0
 20 21  1  0  0  0
M  END
> <minimizedAffinity>
-8.88186

$$$$
4BNY_36I_B_1248


 21 24  0  0  0  0  0  0  0  0999 V2000
    9.3109    0.1937   34.1578 N   0  0  0  0  0  0  0  0  0  0  0  0
    9.2636   -1.1038   33.7425 C   0  0  0  0  0  0  0  0  0  0  0  0
    8.1238   -1.7405   33.8220 N   0  0  0  0  0  0  0  0  0  0  0  0
    7.0569   -1.1037   34.3352 C   0  0  0  0  0  0  0  0  0  0  0  0
    7.0606    0.1296   34.7552 C   0  0  0  0  0  0  0  0  0  0  0  0
    8.1974    0.8356   34.6733 C   0  0  0  0  0  0  0  0  0  0  0  0
    8.0327    2.1019   35.1591 C   0  0  0  0  0  0  0  0  0  0  0  0
    6.7994    2.4071   35.6213 C   0  0  0  0  0  0  0  0  0  0  0  0
    5.7539    1.0102   35.4072 S   0  0  0  0  0  0  0  0  0  0  0  0
   10.3273   -1.8370   33.1832 C   0  0  0  0  0  0  0  0  0  0  0  0
   11.6569   -1.4155   33.3027 C   0  0  0  0  0  0  0  0  0  0  0  0
   12.6977   -2.2294   32.8005 C   0  0  0  0  0  0  0  0  0  0  0  0
   10.0457   -3.0427   32.6348 C   0  0  0  0  0  0  0  0  0  0  0  0
   11.0262   -3.8421   32.1312 C   0  0  0  0  0  0  0  0  0  0  0  0
   12.3393   -3.4236   32.1693 C   0  0  0  0  0  0  0  0  0  0  0  0
    4.8655   -1.1546   35.2967 C   0  0  0  0  0  0  0  0  0  0  0  0
    5.9277   -1.7333   34.4555 N   0  0  0  0  0  0  0  0  0  0  0  0
    5.8738   -3.0701   33.9278 C   0  0  0  0  0  0  0  0  0  0  0  0
    3.5765   -1.6716   34.9269 C   0  0  0  0  0  0  0  0  0  0  0  0
    3.7780   -3.0567   34.9299 O   0  0  0  0  0  0  0  0  0  0  0  0
    4.4868   -3.2587   33.7420 C   0  0  0  0  0  0  0  0  0  0  0  0
  1  2  2  0  0  0
  1  6  1  0  0  0
  2  3  1  0  0  0
  2 10  1  0  0  0
  3  4  2  0  0  0
  4  5  1  0  0  0
  4 17  1  0  0  0
  5  6  2  0  0  0
  5  9  1  0  0  0
  6  7  1  0  0  0
  7  8  2  0  0  0
 10 11  2  0  0  0
 10 13  1  0  0  0
 11 12  1  0  0  0
 12 15  2  0  0  0
  8  9  1  0  0  0
 13 14  2  0  0  0
 14 15  1  0  0  0
 16 17  1  0  0  0
 16 19  1  0  0  0
 17 18  1  0  0  0
 18 21  1  0  0  0
 19 20  1  0  0  0
 20 21  1  0  0  0
M  END
> <minimizedAffinity>
-8.57846

$$$$
4BNY_36I_B_1248


 21 24  0  0  0  0  0  0  0  0999 V2000
    9.1108   -0.1625   34.1741 N   0  0  0  0  0  0  0  0  0  0  0  0
    9.1467   -1.4509   33.7304 C   0  0  0  0  0  0  0  0  0  0  0  0
    8.0678   -2.1802   33.8516 N   0  0  0  0  0  0  0  0  0  0  0  0
    6.9811   -1.6432   34.4333 C   0  0  0  0  0  0  0  0  0  0  0  0
    6.9073   -0.4224   34.8823 C   0  0  0  0  0  0  0  0  0  0  0  0
    7.9775    0.3757   34.7605 C   0  0  0  0  0  0  0  0  0  0  0  0
    7.7368    1.6142   35.2845 C   0  0  0  0  0  0  0  0  0  0  0  0
    6.5087    1.8081   35.8155 C   0  0  0  0  0  0  0  0  0  0  0  0
    5.5696    0.3350   35.6205 S   0  0  0  0  0  0  0  0  0  0  0  0
   10.2355   -2.0832   33.1005 C   0  0  0  0  0  0  0  0  0  0  0  0
   11.5552   -1.6699   33.3182 C   0  0  0  0  0  0  0  0  0  0  0  0
   12.6207   -2.3907   32.7324 C   0  0  0  0  0  0  0  0  0  0  0  0
    9.9861   -3.1986   32.3741 C   0  0  0  0  0  0  0  0  0  0  0  0
   10.9911   -3.9053   31.7874 C   0  0  0  0  0  0  0  0  0  0  0  0
   12.2966   -3.4833   31.9236 C   0  0  0  0  0  0  0  0  0  0  0  0
    6.0444   -3.7372   35.1165 C   0  0  0  0  0  0  0  0  0  0  0  0
    5.9142   -2.3654   34.5950 N   0  0  0  0  0  0  0  0  0  0  0  0
    4.6921   -1.8451   34.0435 C   0  0  0  0  0  0  0  0  0  0  0  0
    4.8089   -4.1868   35.6972 C   0  0  0  0  0  0  0  0  0  0  0  0
    3.8710   -3.9188   34.6934 O   0  0  0  0  0  0  0  0  0  0  0  0
    3.7132   -2.5334   34.7931 C   0  0  0  0  0  0  0  0  0  0  0  0
  1  2  2  0  0  0
  1  6  1  0  0  0
  2  3  1  0  0  0
  2 10  1  0  0  0
  3  4  2  0  0  0
  4  5  1  0  0  0
  4 17  1  0  0  0
  5  6  2  0  0  0
  5  9  1  0  0  0
  6  7  1  0  0  0
  7  8  2  0  0  0
 10 11  2  0  0  0
 10 13  1  0  0  0
 11 12  1  0  0  0
 12 15  2  0  0  0
  8  9  1  0  0  0
 13 14  2  0  0  0
 14 15  1  0  0  0
 16 17  1  0  0  0
 16 19  1  0  0  0
 17 18  1  0  0  0
 18 21  1  0  0  0
 19 20  1  0  0  0
 20 21  1  0  0  0
M  END
> <minimizedAffinity>
-8.39126

$$$$
4BNY_36I_B_1248


 21 24  0  0  0  0  0  0  0  0999 V2000
    6.4902   -3.4849   34.0324 N   0  0  0  0  0  0  0  0  0  0  0  0
    6.5982   -2.1669   34.3631 C   0  0  0  0  0  0  0  0  0  0  0  0
    7.7532   -1.5766   34.1948 N   0  0  0  0  0  0  0  0  0  0  0  0
    8.7909   -2.2962   33.7334 C   0  0  0  0  0  0  0  0  0  0  0  0
    8.7354   -3.5589   33.4174 C   0  0  0  0  0  0  0  0  0  0  0  0
    7.5686   -4.2060   33.5477 C   0  0  0  0  0  0  0  0  0  0  0  0
    7.6834   -5.5174   33.1820 C   0  0  0  0  0  0  0  0  0  0  0  0
    8.9079   -5.9163   32.7710 C   0  0  0  0  0  0  0  0  0  0  0  0
    9.9971   -4.5374   32.8186 S   0  0  0  0  0  0  0  0  0  0  0  0
    5.5615   -1.3413   34.8382 C   0  0  0  0  0  0  0  0  0  0  0  0
    5.8105   -0.0557   35.3332 C   0  0  0  0  0  0  0  0  0  0  0  0
    4.7285    0.7687   35.7175 C   0  0  0  0  0  0  0  0  0  0  0  0
    4.2871   -1.7716   34.6809 C   0  0  0  0  0  0  0  0  0  0  0  0
    3.2258   -1.0046   35.0541 C   0  0  0  0  0  0  0  0  0  0  0  0
    3.4399    0.2381   35.6115 C   0  0  0  0  0  0  0  0  0  0  0  0
   11.1694   -2.5605   33.6946 C   0  0  0  0  0  0  0  0  0  0  0  0
    9.9534   -1.7345   33.5959 N   0  0  0  0  0  0  0  0  0  0  0  0
    9.9777   -0.2966   33.5732 C   0  0  0  0  0  0  0  0  0  0  0  0
   12.2785   -1.9250   33.0375 C   0  0  0  0  0  0  0  0  0  0  0  0
   12.2757   -0.6371   33.5856 O   0  0  0  0  0  0  0  0  0  0  0  0
   11.2033   -0.0322   32.9236 C   0  0  0  0  0  0  0  0  0  0  0  0
  1  2  2  0  0  0
  1  6  1  0  0  0
  2  3  1  0  0  0
  2 10  1  0  0  0
  3  4  2  0  0  0
  4  5  1  0  0  0
  4 17  1  0  0  0
  5  6  2  0  0  0
  5  9  1  0  0  0
  6  7  1  0  0  0
  7  8  2  0  0  0
 10 11  2  0  0  0
 10 13  1  0  0  0
 11 12  1  0  0  0
 12 15  2  0  0  0
  8  9  1  0  0  0
 13 14  2  0  0  0
 14 15  1  0  0  0
 16 17  1  0  0  0
 16 19  1  0  0  0
 17 18  1  0  0  0
 18 21  1  0  0  0
 19 20  1  0  0  0
 20 21  1  0  0  0
M  END
> <minimizedAffinity>
-8.18217

$$$$
4BNY_36I_B_1248


 21 24  0  0  0  0  0  0  0  0999 V2000
    7.3952   -0.5981   34.7234 N   0  0  0  0  0  0  0  0  0  0  0  0
    7.1897   -1.9008   34.3787 C   0  0  0  0  0  0  0  0  0  0  0  0
    8.1623   -2.5493   33.7920 N   0  0  0  0  0  0  0  0  0  0  0  0
    9.3095   -1.9008   33.5260 C   0  0  0  0  0  0  0  0  0  0  0  0
    9.5437   -0.6547   33.8259 C   0  0  0  0  0  0  0  0  0  0  0  0
    8.5888    0.0490   34.4507 C   0  0  0  0  0  0  0  0  0  0  0  0
    8.9906    1.3334   34.6857 C   0  0  0  0  0  0  0  0  0  0  0  0
   10.2327    1.6564   34.2606 C   0  0  0  0  0  0  0  0  0  0  0  0
   10.9687    0.2352   33.5337 S   0  0  0  0  0  0  0  0  0  0  0  0
    6.0277   -2.6544   34.6319 C   0  0  0  0  0  0  0  0  0  0  0  0
    6.0870   -4.0150   34.9559 C   0  0  0  0  0  0  0  0  0  0  0  0
    4.9008   -4.7086   35.2874 C   0  0  0  0  0  0  0  0  0  0  0  0
    4.8456   -1.9960   34.6864 C   0  0  0  0  0  0  0  0  0  0  0  0
    3.6853   -2.6405   34.9900 C   0  0  0  0  0  0  0  0  0  0  0  0
    3.6996   -3.9956   35.2442 C   0  0  0  0  0  0  0  0  0  0  0  0
   11.5412   -2.7611   33.6171 C   0  0  0  0  0  0  0  0  0  0  0  0
   10.2711   -2.5194   32.9107 N   0  0  0  0  0  0  0  0  0  0  0  0
   10.1021   -2.7338   31.4986 C   0  0  0  0  0  0  0  0  0  0  0  0
   12.2641   -3.8500   33.0191 C   0  0  0  0  0  0  0  0  0  0  0  0
   12.2863   -3.5080   31.6620 O   0  0  0  0  0  0  0  0  0  0  0  0
   10.9832   -3.8101   31.2557 C   0  0  0  0  0  0  0  0  0  0  0  0
  1  2  2  0  0  0
  1  6  1  0  0  0
  2  3  1  0  0  0
  2 10  1  0  0  0
  3  4  2  0  0  0
  4  5  1  0  0  0
  4 17  1  0  0  0
  5  6  2  0  0  0
  5  9  1  0  0  0
  6  7  1  0  0  0
  7  8  2  0  0  0
 10 11  2  0  0  0
 10 13  1  0  0  0
 11 12  1  0  0  0
 12 15  2  0  0  0
  8  9  1  0  0  0
 13 14  2  0  0  0
 14 15  1  0  0  0
 16 17  1  0  0  0
 16 19  1  0  0  0
 17 18  1  0  0  0
 18 21  1  0  0  0
 19 20  1  0  0  0
 20 21  1  0  0  0
M  END
> <minimizedAffinity>
-7.48459

$$$$
4BNY_36I_B_1248


 21 24  0  0  0  0  0  0  0  0999 V2000
    8.1386    0.3346   34.4224 N   0  0  0  0  0  0  0  0  0  0  0  0
    7.3986   -0.8077   34.3461 C   0  0  0  0  0  0  0  0  0  0  0  0
    7.9851   -1.9017   33.9339 N   0  0  0  0  0  0  0  0  0  0  0  0
    9.2797   -1.8506   33.5748 C   0  0  0  0  0  0  0  0  0  0  0  0
   10.0200   -0.7794   33.6198 C   0  0  0  0  0  0  0  0  0  0  0  0
    9.4744    0.3640   34.0583 C   0  0  0  0  0  0  0  0  0  0  0  0
   10.3793    1.3873   34.0368 C   0  0  0  0  0  0  0  0  0  0  0  0
   11.6179    1.0782   33.5917 C   0  0  0  0  0  0  0  0  0  0  0  0
   11.6647   -0.6334   33.1938 S   0  0  0  0  0  0  0  0  0  0  0  0
    6.0470   -0.9487   34.7138 C   0  0  0  0  0  0  0  0  0  0  0  0
    5.3387    0.0886   35.3321 C   0  0  0  0  0  0  0  0  0  0  0  0
    3.9604   -0.0687   35.6032 C   0  0  0  0  0  0  0  0  0  0  0  0
    5.4013   -2.0760   34.3315 C   0  0  0  0  0  0  0  0  0  0  0  0
    4.0774   -2.2605   34.5908 C   0  0  0  0  0  0  0  0  0  0  0  0
    3.3677   -1.2875   35.2621 C   0  0  0  0  0  0  0  0  0  0  0  0
    9.1837   -3.7491   32.1204 C   0  0  0  0  0  0  0  0  0  0  0  0
    9.8666   -2.9192   33.1283 N   0  0  0  0  0  0  0  0  0  0  0  0
   11.0586   -3.3371   33.8161 C   0  0  0  0  0  0  0  0  0  0  0  0
   10.1261   -4.5511   31.3894 C   0  0  0  0  0  0  0  0  0  0  0  0
   10.8677   -5.1705   32.4021 O   0  0  0  0  0  0  0  0  0  0  0  0
   11.6975   -4.1348   32.8417 C   0  0  0  0  0  0  0  0  0  0  0  0
  1  2  2  0  0  0
  1  6  1  0  0  0
  2  3  1  0  0  0
  2 10  1  0  0  0
  3  4  2  0  0  0
  4  5  1  0  0  0
  4 17  1  0  0  0
  5  6  2  0  0  0
  5  9  1  0  0  0
  6  7  1  0  0  0
  7  8  2  0  0  0
 10 11  2  0  0  0
 10 13  1  0  0  0
 11 12  1  0  0  0
 12 15  2  0  0  0
  8  9  1  0  0  0
 13 14  2  0  0  0
 14 15  1  0  0  0
 16 17  1  0  0  0
 16 19  1  0  0  0
 17 18  1  0  0  0
 18 21  1  0  0  0
 19 20  1  0  0  0
 20 21  1  0  0  0
M  END
> <minimizedAffinity>
-7.03793

$$$$
4BNY_36I_B_1248


 21 24  0  0  0  0  0  0  0  0999 V2000
    9.5405   -0.5776   34.0237 N   0  0  0  0  0  0  0  0  0  0  0  0
    8.8353   -1.7351   33.8790 C   0  0  0  0  0  0  0  0  0  0  0  0
    7.5603   -1.7265   34.1706 N   0  0  0  0  0  0  0  0  0  0  0  0
    7.0048   -0.5909   34.6279 C   0  0  0  0  0  0  0  0  0  0  0  0
    7.6433    0.5327   34.7932 C   0  0  0  0  0  0  0  0  0  0  0  0
    8.9471    0.5852   34.4857 C   0  0  0  0  0  0  0  0  0  0  0  0
    9.4643    1.8275   34.7218 C   0  0  0  0  0  0  0  0  0  0  0  0
    8.6028    2.7491   35.2078 C   0  0  0  0  0  0  0  0  0  0  0  0
    7.0130    2.0139   35.3561 S   0  0  0  0  0  0  0  0  0  0  0  0
    9.3362   -2.9590   33.3961 C   0  0  0  0  0  0  0  0  0  0  0  0
    8.5098   -4.0744   33.2153 C   0  0  0  0  0  0  0  0  0  0  0  0
    9.0402   -5.2543   32.6457 C   0  0  0  0  0  0  0  0  0  0  0  0
   10.6241   -2.9955   32.9791 C   0  0  0  0  0  0  0  0  0  0  0  0
   11.1656   -4.1219   32.4389 C   0  0  0  0  0  0  0  0  0  0  0  0
   10.3975   -5.2599   32.3131 C   0  0  0  0  0  0  0  0  0  0  0  0
    5.1872    0.6241   35.6021 C   0  0  0  0  0  0  0  0  0  0  0  0
    5.7489   -0.5756   34.9572 N   0  0  0  0  0  0  0  0  0  0  0  0
    5.0414   -1.8243   34.8646 C   0  0  0  0  0  0  0  0  0  0  0  0
    3.7609    0.6794   35.4337 C   0  0  0  0  0  0  0  0  0  0  0  0
    3.3427   -0.5879   35.8559 O   0  0  0  0  0  0  0  0  0  0  0  0
    3.6987   -1.3970   34.7729 C   0  0  0  0  0  0  0  0  0  0  0  0
  1  2  2  0  0  0
  1  6  1  0  0  0
  2  3  1  0  0  0
  2 10  1  0  0  0
  3  4  2  0  0  0
  4  5  1  0  0  0
  4 17  1  0  0  0
  5  6  2  0  0  0
  5  9  1  0  0  0
  6  7  1  0  0  0
  7  8  2  0  0  0
 10 11  2  0  0  0
 10 13  1  0  0  0
 11 12  1  0  0  0
 12 15  2  0  0  0
  8  9  1  0  0  0
 13 14  2  0  0  0
 14 15  1  0  0  0
 16 17  1  0  0  0
 16 19  1  0  0  0
 17 18  1  0  0  0
 18 21  1  0  0  0
 19 20  1  0  0  0
 20 21  1  0  0  0
M  END
> <minimizedAffinity>
-6.94159

$$$$
4BNY_36I_B_1248


 21 24  0  0  0  0  0  0  0  0999 V2000
    9.7488   -0.7930   33.8674 N   0  0  0  0  0  0  0  0  0  0  0  0
    9.0110   -1.9353   33.7734 C   0  0  0  0  0  0  0  0  0  0  0  0
    7.7384   -1.8792   34.0702 N   0  0  0  0  0  0  0  0  0  0  0  0
    7.2172   -0.7107   34.4831 C   0  0  0  0  0  0  0  0  0  0  0  0
    7.8875    0.4004   34.5993 C   0  0  0  0  0  0  0  0  0  0  0  0
    9.1905    0.4039   34.2840 C   0  0  0  0  0  0  0  0  0  0  0  0
    9.7433    1.6398   34.4667 C   0  0  0  0  0  0  0  0  0  0  0  0
    8.9105    2.6042   34.9183 C   0  0  0  0  0  0  0  0  0  0  0  0
    7.3017    1.9204   35.1039 S   0  0  0  0  0  0  0  0  0  0  0  0
    9.4750   -3.1914   33.3388 C   0  0  0  0  0  0  0  0  0  0  0  0
    8.6474   -4.3205   33.3290 C   0  0  0  0  0  0  0  0  0  0  0  0
    9.1316   -5.5394   32.8020 C   0  0  0  0  0  0  0  0  0  0  0  0
   10.7151   -3.2557   32.7985 C   0  0  0  0  0  0  0  0  0  0  0  0
   11.2128   -4.4190   32.2955 C   0  0  0  0  0  0  0  0  0  0  0  0
   10.4490   -5.5661   32.3361 C   0  0  0  0  0  0  0  0  0  0  0  0
    4.9833   -1.4800   34.0996 C   0  0  0  0  0  0  0  0  0  0  0  0
    5.9640   -0.6469   34.8171 N   0  0  0  0  0  0  0  0  0  0  0  0
    5.5903    0.4032   35.7261 C   0  0  0  0  0  0  0  0  0  0  0  0
    3.7978   -1.6748   34.8885 C   0  0  0  0  0  0  0  0  0  0  0  0
    3.4496   -0.3721   35.2640 O   0  0  0  0  0  0  0  0  0  0  0  0
    4.3824   -0.0899   36.2663 C   0  0  0  0  0  0  0  0  0  0  0  0
  1  2  2  0  0  0
  1  6  1  0  0  0
  2  3  1  0  0  0
  2 10  1  0  0  0
  3  4  2  0  0  0
  4  5  1  0  0  0
  4 17  1  0  0  0
  5  6  2  0  0  0
  5  9  1  0  0  0
  6  7  1  0  0  0
  7  8  2  0  0  0
 10 11  2  0  0  0
 10 13  1  0  0  0
 11 12  1  0  0  0
 12 15  2  0  0  0
  8  9  1  0  0  0
 13 14  2  0  0  0
 14 15  1  0  0  0
 16 17  1  0  0  0
 16 19  1  0  0  0
 17 18  1  0  0  0
 18 21  1  0  0  0
 19 20  1  0  0  0
 20 21  1  0  0  0
M  END
> <minimizedAffinity>
-6.79950

$$$$
