4M3P_HCS_A_703


 12 11  0  0  0  0  0  0  0  0999 V2000
   77.2643    6.4918  -37.8832 N   0  0  0  0  0  0  0  0  0  0  0  0
   78.4086    7.2367  -38.3996 C   0  0  0  0  0  0  0  0  0  0  0  0
   76.9506    5.8211  -38.5847 H   0  0  0  0  0  0  0  0  0  0  0  0
   76.5059    7.1393  -37.6687 H   0  0  0  0  0  0  0  0  0  0  0  0
   78.9158    8.3019  -37.3003 C   0  0  0  0  0  0  0  0  0  0  0  0
   78.0634    8.8593  -36.5956 O   0  0  0  0  0  0  0  0  0  0  0  0
   80.1594    8.5087  -37.2866 O   0  0  0  0  0  0  0  0  0  0  0  0
   77.1591    8.6309  -36.6853 H   0  0  0  0  0  0  0  0  0  0  0  0
   77.9810    7.9348  -39.7708 C   0  0  0  0  0  0  0  0  0  0  0  0
   78.2413    7.0048  -40.9592 C   0  0  0  0  0  0  0  0  0  0  0  0
   79.7819    6.0017  -40.6307 S   0  0  0  0  0  0  0  0  0  0  0  0
   80.8409    6.8386  -40.4644 H   0  0  0  0  0  0  0  0  0  0  0  0
  1  2  1  0  0  0
  2  9  1  0  0  0
  2  5  1  0  0  0
  9 10  1  0  0  0
 10 11  1  0  0  0
  5  6  1  0  0  0
  5  7  2  0  0  0
  1  3  1  0  0  0
  1  4  1  0  0  0
 11 12  1  0  0  0
  6  8  1  0  0  0
M  END
> <minimizedAffinity>
-4.52673

$$$$
4M3P_HCS_A_703


 12 11  0  0  0  0  0  0  0  0999 V2000
   78.1107    9.2185  -39.2986 N   0  0  0  0  0  0  0  0  0  0  0  0
   78.3676    7.8656  -38.8142 C   0  0  0  0  0  0  0  0  0  0  0  0
   77.4633    9.1805  -40.0859 H   0  0  0  0  0  0  0  0  0  0  0  0
   78.9875    9.6441  -39.5995 H   0  0  0  0  0  0  0  0  0  0  0  0
   79.3904    7.9100  -37.5684 C   0  0  0  0  0  0  0  0  0  0  0  0
   79.9942    8.9692  -37.3505 O   0  0  0  0  0  0  0  0  0  0  0  0
   79.5194    6.8244  -36.9404 O   0  0  0  0  0  0  0  0  0  0  0  0
   79.8232    9.7233  -37.8796 H   0  0  0  0  0  0  0  0  0  0  0  0
   78.9255    6.9908  -40.0283 C   0  0  0  0  0  0  0  0  0  0  0  0
   78.2945    5.5955  -40.0286 C   0  0  0  0  0  0  0  0  0  0  0  0
   79.6095    4.3245  -39.6508 S   0  0  0  0  0  0  0  0  0  0  0  0
   80.5844    4.3859  -40.5971 H   0  0  0  0  0  0  0  0  0  0  0  0
  1  2  1  0  0  0
  2  9  1  0  0  0
  2  5  1  0  0  0
  9 10  1  0  0  0
 10 11  1  0  0  0
  5  6  1  0  0  0
  5  7  2  0  0  0
  1  3  1  0  0  0
  1  4  1  0  0  0
 11 12  1  0  0  0
  6  8  1  0  0  0
M  END
> <minimizedAffinity>
-4.48516

$$$$
4M3P_HCS_A_703


 12 11  0  0  0  0  0  0  0  0999 V2000
   79.9480    8.3168  -37.5989 N   0  0  0  0  0  0  0  0  0  0  0  0
   79.0001    7.4127  -38.2431 C   0  0  0  0  0  0  0  0  0  0  0  0
   80.3932    7.8402  -36.8147 H   0  0  0  0  0  0  0  0  0  0  0  0
   79.4538    9.1418  -37.2592 H   0  0  0  0  0  0  0  0  0  0  0  0
   78.2878    8.1533  -39.4859 C   0  0  0  0  0  0  0  0  0  0  0  0
   78.0727    9.3693  -39.3912 O   0  0  0  0  0  0  0  0  0  0  0  0
   77.9670    7.4023  -40.4464 O   0  0  0  0  0  0  0  0  0  0  0  0
   78.3546    9.8370  -38.6298 H   0  0  0  0  0  0  0  0  0  0  0  0
   77.9494    6.9166  -37.1475 C   0  0  0  0  0  0  0  0  0  0  0  0
   77.5376    5.4646  -37.4067 C   0  0  0  0  0  0  0  0  0  0  0  0
   78.9751    4.5419  -38.1614 S   0  0  0  0  0  0  0  0  0  0  0  0
   79.3281    5.1334  -39.3340 H   0  0  0  0  0  0  0  0  0  0  0  0
  1  2  1  0  0  0
  2  9  1  0  0  0
  2  5  1  0  0  0
  9 10  1  0  0  0
 10 11  1  0  0  0
  5  6  1  0  0  0
  5  7  2  0  0  0
  1  3  1  0  0  0
  1  4  1  0  0  0
 11 12  1  0  0  0
  6  8  1  0  0  0
M  END
> <minimizedAffinity>
-4.47059

$$$$
4M3P_HCS_A_703


 12 11  0  0  0  0  0  0  0  0999 V2000
   80.8698    6.3268  -41.0750 N   0  0  0  0  0  0  0  0  0  0  0  0
   79.5878    5.8406  -40.5740 C   0  0  0  0  0  0  0  0  0  0  0  0
   81.0008    7.2970  -40.7886 H   0  0  0  0  0  0  0  0  0  0  0  0
   80.8812    6.2684  -42.0932 H   0  0  0  0  0  0  0  0  0  0  0  0
   79.3668    4.3066  -41.0194 C   0  0  0  0  0  0  0  0  0  0  0  0
   80.0881    3.8535  -41.9185 O   0  0  0  0  0  0  0  0  0  0  0  0
   78.4286    3.7058  -40.4292 O   0  0  0  0  0  0  0  0  0  0  0  0
   80.7616    4.3870  -42.2924 H   0  0  0  0  0  0  0  0  0  0  0  0
   78.4346    6.8033  -41.1158 C   0  0  0  0  0  0  0  0  0  0  0  0
   78.0291    7.8219  -40.0467 C   0  0  0  0  0  0  0  0  0  0  0  0
   78.0075    6.9866  -38.3766 S   0  0  0  0  0  0  0  0  0  0  0  0
   77.1140    5.9615  -38.3939 H   0  0  0  0  0  0  0  0  0  0  0  0
  1  2  1  0  0  0
  2  9  1  0  0  0
  2  5  1  0  0  0
  9 10  1  0  0  0
 10 11  1  0  0  0
  5  6  1  0  0  0
  5  7  2  0  0  0
  1  3  1  0  0  0
  1  4  1  0  0  0
 11 12  1  0  0  0
  6  8  1  0  0  0
M  END
> <minimizedAffinity>
-4.39229

$$$$
4M3P_HCS_A_703


 12 11  0  0  0  0  0  0  0  0999 V2000
   80.1250    6.7651  -40.2328 N   0  0  0  0  0  0  0  0  0  0  0  0
   78.8334    7.2048  -40.7516 C   0  0  0  0  0  0  0  0  0  0  0  0
   80.6542    6.3119  -40.9778 H   0  0  0  0  0  0  0  0  0  0  0  0
   79.9779    6.1043  -39.4698 H   0  0  0  0  0  0  0  0  0  0  0  0
   77.9849    7.9237  -39.5838 C   0  0  0  0  0  0  0  0  0  0  0  0
   78.1646    9.1349  -39.3975 O   0  0  0  0  0  0  0  0  0  0  0  0
   77.2300    7.1617  -38.9214 O   0  0  0  0  0  0  0  0  0  0  0  0
   78.7513    9.6121  -39.9507 H   0  0  0  0  0  0  0  0  0  0  0  0
   78.0757    5.9385  -41.3623 C   0  0  0  0  0  0  0  0  0  0  0  0
   78.9262    4.6734  -41.2172 C   0  0  0  0  0  0  0  0  0  0  0  0
   78.3047    3.6762  -39.7657 S   0  0  0  0  0  0  0  0  0  0  0  0
   78.3960    4.4212  -38.6316 H   0  0  0  0  0  0  0  0  0  0  0  0
  1  2  1  0  0  0
  2  9  1  0  0  0
  2  5  1  0  0  0
  9 10  1  0  0  0
 10 11  1  0  0  0
  5  6  1  0  0  0
  5  7  2  0  0  0
  1  3  1  0  0  0
  1  4  1  0  0  0
 11 12  1  0  0  0
  6  8  1  0  0  0
M  END
> <minimizedAffinity>
-4.37898

$$$$
4M3P_HCS_A_703


 12 11  0  0  0  0  0  0  0  0999 V2000
   77.0207    4.8603  -38.1291 N   0  0  0  0  0  0  0  0  0  0  0  0
   78.1292    5.3066  -38.9675 C   0  0  0  0  0  0  0  0  0  0  0  0
   77.0288    3.8421  -38.0684 H   0  0  0  0  0  0  0  0  0  0  0  0
   76.1390    5.1695  -38.5383 H   0  0  0  0  0  0  0  0  0  0  0  0
   78.1291    6.9157  -39.0727 C   0  0  0  0  0  0  0  0  0  0  0  0
   77.0688    7.5124  -38.8409 O   0  0  0  0  0  0  0  0  0  0  0  0
   79.2221    7.4305  -39.4326 O   0  0  0  0  0  0  0  0  0  0  0  0
   76.3087    7.0320  -38.5776 H   0  0  0  0  0  0  0  0  0  0  0  0
   77.9986    4.6037  -40.3955 C   0  0  0  0  0  0  0  0  0  0  0  0
   79.3571    4.0809  -40.8710 C   0  0  0  0  0  0  0  0  0  0  0  0
   80.4316    3.7187  -39.3872 S   0  0  0  0  0  0  0  0  0  0  0  0
   80.6071    4.8581  -38.6656 H   0  0  0  0  0  0  0  0  0  0  0  0
  1  2  1  0  0  0
  2  9  1  0  0  0
  2  5  1  0  0  0
  9 10  1  0  0  0
 10 11  1  0  0  0
  5  6  1  0  0  0
  5  7  2  0  0  0
  1  3  1  0  0  0
  1  4  1  0  0  0
 11 12  1  0  0  0
  6  8  1  0  0  0
M  END
> <minimizedAffinity>
-4.17506

$$$$
4M3P_HCS_A_703


 12 11  0  0  0  0  0  0  0  0999 V2000
   79.8735    3.9231  -41.7291 N   0  0  0  0  0  0  0  0  0  0  0  0
   79.0572    4.9084  -41.0265 C   0  0  0  0  0  0  0  0  0  0  0  0
   79.3138    3.0922  -41.9207 H   0  0  0  0  0  0  0  0  0  0  0  0
   80.6729    3.6682  -41.1491 H   0  0  0  0  0  0  0  0  0  0  0  0
   79.9297    6.2286  -40.7166 C   0  0  0  0  0  0  0  0  0  0  0  0
   81.1002    6.2588  -41.1204 O   0  0  0  0  0  0  0  0  0  0  0  0
   79.3422    7.1135  -40.0376 O   0  0  0  0  0  0  0  0  0  0  0  0
   81.4417    5.5441  -41.6210 H   0  0  0  0  0  0  0  0  0  0  0  0
   78.4816    4.2342  -39.6982 C   0  0  0  0  0  0  0  0  0  0  0  0
   79.6203    3.8044  -38.7688 C   0  0  0  0  0  0  0  0  0  0  0  0
   79.4884    4.7414  -37.1588 S   0  0  0  0  0  0  0  0  0  0  0  0
   79.5763    6.0765  -37.4027 H   0  0  0  0  0  0  0  0  0  0  0  0
  1  2  1  0  0  0
  2  9  1  0  0  0
  2  5  1  0  0  0
  9 10  1  0  0  0
 10 11  1  0  0  0
  5  6  1  0  0  0
  5  7  2  0  0  0
  1  3  1  0  0  0
  1  4  1  0  0  0
 11 12  1  0  0  0
  6  8  1  0  0  0
M  END
> <minimizedAffinity>
-4.14129

$$$$
4M3P_HCS_A_703


 12 11  0  0  0  0  0  0  0  0999 V2000
   80.4972    6.3667  -40.9140 N   0  0  0  0  0  0  0  0  0  0  0  0
   80.6092    4.9331  -40.6634 C   0  0  0  0  0  0  0  0  0  0  0  0
   79.6350    6.7183  -40.4974 H   0  0  0  0  0  0  0  0  0  0  0  0
   80.4825    6.5360  -41.9197 H   0  0  0  0  0  0  0  0  0  0  0  0
   81.9687    4.3628  -41.3167 C   0  0  0  0  0  0  0  0  0  0  0  0
   82.0053    4.2171  -42.5461 O   0  0  0  0  0  0  0  0  0  0  0  0
   82.8776    4.0684  -40.4941 O   0  0  0  0  0  0  0  0  0  0  0  0
   81.2707    4.4699  -43.0699 H   0  0  0  0  0  0  0  0  0  0  0  0
   79.3070    4.2144  -41.2448 C   0  0  0  0  0  0  0  0  0  0  0  0
   78.8013    3.1397  -40.2782 C   0  0  0  0  0  0  0  0  0  0  0  0
   79.4762    3.4799  -38.5705 S   0  0  0  0  0  0  0  0  0  0  0  0
   80.8356    3.4584  -38.6078 H   0  0  0  0  0  0  0  0  0  0  0  0
  1  2  1  0  0  0
  2  9  1  0  0  0
  2  5  1  0  0  0
  9 10  1  0  0  0
 10 11  1  0  0  0
  5  6  1  0  0  0
  5  7  2  0  0  0
  1  3  1  0  0  0
  1  4  1  0  0  0
 11 12  1  0  0  0
  6  8  1  0  0  0
M  END
> <minimizedAffinity>
-4.09872

$$$$
4M3P_HCS_A_703


 12 11  0  0  0  0  0  0  0  0999 V2000
   79.7852    6.9324  -39.3743 N   0  0  0  0  0  0  0  0  0  0  0  0
   79.3607    6.2177  -40.5742 C   0  0  0  0  0  0  0  0  0  0  0  0
   80.5256    6.4068  -38.9095 H   0  0  0  0  0  0  0  0  0  0  0  0
   78.9921    7.0349  -38.7412 H   0  0  0  0  0  0  0  0  0  0  0  0
   78.1896    7.0376  -41.3202 C   0  0  0  0  0  0  0  0  0  0  0  0
   77.7945    6.6176  -42.4163 O   0  0  0  0  0  0  0  0  0  0  0  0
   77.8030    8.0810  -40.7275 O   0  0  0  0  0  0  0  0  0  0  0  0
   78.1493    5.8259  -42.7702 H   0  0  0  0  0  0  0  0  0  0  0  0
   78.9001    4.7481  -40.1516 C   0  0  0  0  0  0  0  0  0  0  0  0
   77.8036    4.8074  -39.0843 C   0  0  0  0  0  0  0  0  0  0  0  0
   78.4510    4.0722  -37.4944 S   0  0  0  0  0  0  0  0  0  0  0  0
   78.8125    2.7786  -37.7073 H   0  0  0  0  0  0  0  0  0  0  0  0
  1  2  1  0  0  0
  2  9  1  0  0  0
  2  5  1  0  0  0
  9 10  1  0  0  0
 10 11  1  0  0  0
  5  6  1  0  0  0
  5  7  2  0  0  0
  1  3  1  0  0  0
  1  4  1  0  0  0
 11 12  1  0  0  0
  6  8  1  0  0  0
M  END
> <minimizedAffinity>
-3.92760

$$$$
4M3P_HCS_A_703


 12 11  0  0  0  0  0  0  0  0999 V2000
   79.7771    6.1590  -37.3035 N   0  0  0  0  0  0  0  0  0  0  0  0
   79.0500    6.7606  -38.4171 C   0  0  0  0  0  0  0  0  0  0  0  0
   79.9137    5.1645  -37.4843 H   0  0  0  0  0  0  0  0  0  0  0  0
   79.2412    6.2778  -36.4437 H   0  0  0  0  0  0  0  0  0  0  0  0
   78.8264    8.3342  -38.1449 C   0  0  0  0  0  0  0  0  0  0  0  0
   78.4363    9.0366  -39.0875 O   0  0  0  0  0  0  0  0  0  0  0  0
   79.1174    8.7249  -36.9822 O   0  0  0  0  0  0  0  0  0  0  0  0
   78.2459    8.6441  -39.9168 H   0  0  0  0  0  0  0  0  0  0  0  0
   77.6728    5.9744  -38.6060 C   0  0  0  0  0  0  0  0  0  0  0  0
   77.9096    4.6126  -39.2652 C   0  0  0  0  0  0  0  0  0  0  0  0
   78.7091    4.8665  -40.9337 S   0  0  0  0  0  0  0  0  0  0  0  0
   77.8915    5.6185  -41.7184 H   0  0  0  0  0  0  0  0  0  0  0  0
  1  2  1  0  0  0
  2  9  1  0  0  0
  2  5  1  0  0  0
  9 10  1  0  0  0
 10 11  1  0  0  0
  5  6  1  0  0  0
  5  7  2  0  0  0
  1  3  1  0  0  0
  1  4  1  0  0  0
 11 12  1  0  0  0
  6  8  1  0  0  0
M  END
> <minimizedAffinity>
-3.89001

$$$$
