1ELB_0Z4_A_256


 39 39  0  0  0  0  0  0  0  0999 V2000
   39.3658   21.1866   37.1173 C   0  0  0  0  0  0  0  0  0  0  0  0
   38.4366   21.7402   37.7103 O   0  0  0  0  0  0  0  0  0  0  0  0
   39.2398   20.4960   35.9628 N   0  0  0  0  0  0  0  0  0  0  0  0
   40.0642   20.2617   35.4783 H   0  0  0  0  0  0  0  0  0  0  0  0
   40.8076   21.2945   37.5946 C   0  0  0  0  0  0  0  0  0  0  0  0
   41.2637   23.7027   37.6304 C   0  0  0  0  0  0  0  0  0  0  0  0
   42.0666   23.5710   36.6833 O   0  0  0  0  0  0  0  0  0  0  0  0
   40.7722   22.5968   38.2370 N   0  0  0  0  0  0  0  0  0  0  0  0
   40.3807   22.6772   39.1367 H   0  0  0  0  0  0  0  0  0  0  0  0
   40.8633   25.1001   38.2560 C   0  0  0  0  0  0  0  0  0  0  0  0
   41.8126   25.9918   38.3481 F   0  0  0  0  0  0  0  0  0  0  0  0
   39.8632   25.7485   37.6828 F   0  0  0  0  0  0  0  0  0  0  0  0
   40.4835   24.9109   39.5002 F   0  0  0  0  0  0  0  0  0  0  0  0
   41.0984   20.1424   38.5450 C   0  0  0  0  0  0  0  0  0  0  0  0
   41.9973   19.0847   37.9420 C   0  0  0  0  0  0  0  0  0  0  0  0
   42.0776   17.8615   38.8366 C   0  0  0  0  0  0  0  0  0  0  0  0
   41.5947   16.6093   38.1111 C   0  0  0  0  0  0  0  0  0  0  0  0
   40.1414   16.5318   38.1681 N   0  0  0  0  0  0  0  0  0  0  0  0
   39.8411   16.4893   39.1420 H   0  0  0  0  0  0  0  0  0  0  0  0
   39.8261   15.6945   37.6783 H   0  0  0  0  0  0  0  0  0  0  0  0
   39.7392   17.3573   37.7240 H   0  0  0  0  0  0  0  0  0  0  0  0
   37.9857   20.0779   35.3897 C   0  0  0  0  0  0  0  0  0  0  0  0
   37.8935   18.7854   36.1977 C   0  0  0  0  0  0  0  0  0  0  0  0
   38.5893   17.7923   36.0019 O   0  0  0  0  0  0  0  0  0  0  0  0
   36.8380   18.9314   37.0205 N   0  0  0  0  0  0  0  0  0  0  0  0
   36.0925   19.5070   36.7341 H   0  0  0  0  0  0  0  0  0  0  0  0
   36.7600   18.3224   38.2192 C   0  0  0  0  0  0  0  0  0  0  0  0
   37.3505   18.7753   39.3944 C   0  0  0  0  0  0  0  0  0  0  0  0
   37.0220   18.1602   40.5973 C   0  0  0  0  0  0  0  0  0  0  0  0
   36.1238   17.0957   40.6235 C   0  0  0  0  0  0  0  0  0  0  0  0
   35.5708   16.6505   39.4552 C   0  0  0  0  0  0  0  0  0  0  0  0
   35.8888   17.2585   38.2707 C   0  0  0  0  0  0  0  0  0  0  0  0
   35.6767   16.4194   41.9232 C   0  0  0  0  0  0  0  0  0  0  0  0
   36.3529   17.0783   43.1263 C   0  0  0  0  0  0  0  0  0  0  0  0
   35.8909   14.9269   41.7496 C   0  0  0  0  0  0  0  0  0  0  0  0
   38.1593   19.9206   33.8380 C   0  0  0  0  0  0  0  0  0  0  0  0
   36.9689   20.1734   32.8650 C   0  0  0  0  0  0  0  0  0  0  0  0
   35.9597   21.1028   33.4411 C   0  0  0  0  0  0  0  0  0  0  0  0
   37.3489   21.0705   31.7518 C   0  0  0  0  0  0  0  0  0  0  0  0
  6 10  1  0  0  0
  6  7  2  0  0  0
 10 11  1  0  0  0
 10 12  1  0  0  0
 10 13  1  0  0  0
  8  5  1  0  0  0
  5  1  1  0  0  0
  5 14  1  0  0  0
  1  2  2  0  0  0
 14 15  1  0  0  0
 15 16  1  0  0  0
 16 17  1  0  0  0
 17 18  1  0  0  0
  3 22  1  0  0  0
 22 23  1  0  0  0
 22 36  1  0  0  0
 23 24  2  0  0  0
 36 37  1  0  0  0
 37 38  1  0  0  0
 37 39  1  0  0  0
 27 25  1  0  0  0
 27 28  2  0  0  0
 27 32  1  0  0  0
 28 29  1  0  0  0
 29 30  2  0  0  0
 30 31  1  0  0  0
 30 33  1  0  0  0
 31 32  2  0  0  0
 33 34  1  0  0  0
 33 35  1  0  0  0
  6  8  1  0  0  0
  1  3  1  0  0  0
 23 25  1  0  0  0
  8  9  1  0  0  0
 18 19  1  0  0  0
 18 20  1  0  0  0
 18 21  1  0  0  0
  3  4  1  0  0  0
 25 26  1  0  0  0
M  CHG 1  18   1
M  END
> <minimizedAffinity>
-7.04519

$$$$
1ELB_0Z4_A_256


 39 39  0  0  0  0  0  0  0  0999 V2000
   42.4109   20.0743   36.5396 C   0  0  0  0  0  0  0  0  0  0  0  0
   43.1127   19.3219   35.8593 O   0  0  0  0  0  0  0  0  0  0  0  0
   41.5234   19.6652   37.4728 N   0  0  0  0  0  0  0  0  0  0  0  0
   41.1605   20.3439   38.0867 H   0  0  0  0  0  0  0  0  0  0  0  0
   42.5324   21.5897   36.4545 C   0  0  0  0  0  0  0  0  0  0  0  0
   44.2204   22.5218   34.9411 C   0  0  0  0  0  0  0  0  0  0  0  0
   44.4860   23.4118   35.7756 O   0  0  0  0  0  0  0  0  0  0  0  0
   43.1424   21.7285   35.1436 N   0  0  0  0  0  0  0  0  0  0  0  0
   42.7620   21.2329   34.3828 H   0  0  0  0  0  0  0  0  0  0  0  0
   45.0051   22.3297   33.5803 C   0  0  0  0  0  0  0  0  0  0  0  0
   44.7871   23.2198   32.6503 F   0  0  0  0  0  0  0  0  0  0  0  0
   46.3234   22.2539   33.6547 F   0  0  0  0  0  0  0  0  0  0  0  0
   44.6251   21.1973   33.0316 F   0  0  0  0  0  0  0  0  0  0  0  0
   41.1430   22.2010   36.5595 C   0  0  0  0  0  0  0  0  0  0  0  0
   41.1654   23.6834   36.8630 C   0  0  0  0  0  0  0  0  0  0  0  0
   40.4868   23.9799   38.1877 C   0  0  0  0  0  0  0  0  0  0  0  0
   40.6436   25.4468   38.5766 C   0  0  0  0  0  0  0  0  0  0  0  0
   42.0111   25.8827   38.3289 N   0  0  0  0  0  0  0  0  0  0  0  0
   42.6537   25.3196   38.8862 H   0  0  0  0  0  0  0  0  0  0  0  0
   42.1072   26.8645   38.5879 H   0  0  0  0  0  0  0  0  0  0  0  0
   42.2302   25.7690   37.3392 H   0  0  0  0  0  0  0  0  0  0  0  0
   41.0700   18.3071   37.6339 C   0  0  0  0  0  0  0  0  0  0  0  0
   39.5843   18.6529   37.5661 C   0  0  0  0  0  0  0  0  0  0  0  0
   39.0463   19.2248   36.6215 O   0  0  0  0  0  0  0  0  0  0  0  0
   39.0700   18.3375   38.7695 N   0  0  0  0  0  0  0  0  0  0  0  0
   39.6550   18.3847   39.5599 H   0  0  0  0  0  0  0  0  0  0  0  0
   37.7880   17.9600   38.9368 C   0  0  0  0  0  0  0  0  0  0  0  0
   37.1869   16.8574   38.3386 C   0  0  0  0  0  0  0  0  0  0  0  0
   35.9186   16.4690   38.7558 C   0  0  0  0  0  0  0  0  0  0  0  0
   35.2534   17.1826   39.7502 C   0  0  0  0  0  0  0  0  0  0  0  0
   35.8517   18.2767   40.3106 C   0  0  0  0  0  0  0  0  0  0  0  0
   37.1024   18.6573   39.9050 C   0  0  0  0  0  0  0  0  0  0  0  0
   33.8829   16.7669   40.2939 C   0  0  0  0  0  0  0  0  0  0  0  0
   33.3550   15.5500   39.5328 C   0  0  0  0  0  0  0  0  0  0  0  0
   33.0064   18.0059   40.2972 C   0  0  0  0  0  0  0  0  0  0  0  0
   41.5959   17.7512   39.0040 C   0  0  0  0  0  0  0  0  0  0  0  0
   42.7698   16.7282   39.0606 C   0  0  0  0  0  0  0  0  0  0  0  0
   42.2952   15.3419   39.3201 C   0  0  0  0  0  0  0  0  0  0  0  0
   43.3059   16.4306   37.7145 C   0  0  0  0  0  0  0  0  0  0  0  0
  6 10  1  0  0  0
  6  7  2  0  0  0
 10 11  1  0  0  0
 10 12  1  0  0  0
 10 13  1  0  0  0
  8  5  1  0  0  0
  5  1  1  0  0  0
  5 14  1  0  0  0
  1  2  2  0  0  0
 14 15  1  0  0  0
 15 16  1  0  0  0
 16 17  1  0  0  0
 17 18  1  0  0  0
  3 22  1  0  0  0
 22 23  1  0  0  0
 22 36  1  0  0  0
 23 24  2  0  0  0
 36 37  1  0  0  0
 37 38  1  0  0  0
 37 39  1  0  0  0
 27 25  1  0  0  0
 27 28  2  0  0  0
 27 32  1  0  0  0
 28 29  1  0  0  0
 29 30  2  0  0  0
 30 31  1  0  0  0
 30 33  1  0  0  0
 31 32  2  0  0  0
 33 34  1  0  0  0
 33 35  1  0  0  0
  6  8  1  0  0  0
  1  3  1  0  0  0
 23 25  1  0  0  0
  8  9  1  0  0  0
 18 19  1  0  0  0
 18 20  1  0  0  0
 18 21  1  0  0  0
  3  4  1  0  0  0
 25 26  1  0  0  0
M  CHG 1  18   1
M  END
> <minimizedAffinity>
-7.00336

$$$$
1ELB_0Z4_A_256


 39 39  0  0  0  0  0  0  0  0999 V2000
   39.9176   21.3963   37.6398 C   0  0  0  0  0  0  0  0  0  0  0  0
   39.0689   22.0640   38.2358 O   0  0  0  0  0  0  0  0  0  0  0  0
   39.9491   20.0459   37.6037 N   0  0  0  0  0  0  0  0  0  0  0  0
   40.5477   19.6203   36.9482 H   0  0  0  0  0  0  0  0  0  0  0  0
   41.0038   22.0421   36.7903 C   0  0  0  0  0  0  0  0  0  0  0  0
   40.7507   24.3707   37.5130 C   0  0  0  0  0  0  0  0  0  0  0  0
   40.1414   24.6388   36.4567 O   0  0  0  0  0  0  0  0  0  0  0  0
   41.3601   23.1681   37.6358 N   0  0  0  0  0  0  0  0  0  0  0  0
   42.0629   23.0538   38.3157 H   0  0  0  0  0  0  0  0  0  0  0  0
   40.9605   25.4035   38.6936 C   0  0  0  0  0  0  0  0  0  0  0  0
   40.1262   26.4064   38.7468 F   0  0  0  0  0  0  0  0  0  0  0  0
   40.9608   24.9158   39.9230 F   0  0  0  0  0  0  0  0  0  0  0  0
   42.1354   25.9750   38.5491 F   0  0  0  0  0  0  0  0  0  0  0  0
   42.1298   21.0393   36.5865 C   0  0  0  0  0  0  0  0  0  0  0  0
   42.6693   21.0280   35.1726 C   0  0  0  0  0  0  0  0  0  0  0  0
   44.1869   21.0211   35.1672 C   0  0  0  0  0  0  0  0  0  0  0  0
   44.7506   22.3815   35.5658 C   0  0  0  0  0  0  0  0  0  0  0  0
   45.9239   22.6885   34.7592 N   0  0  0  0  0  0  0  0  0  0  0  0
   46.6368   21.9749   34.9107 H   0  0  0  0  0  0  0  0  0  0  0  0
   46.2928   23.6004   35.0288 H   0  0  0  0  0  0  0  0  0  0  0  0
   45.6636   22.7050   33.7731 H   0  0  0  0  0  0  0  0  0  0  0  0
   39.1696   19.1842   38.4557 C   0  0  0  0  0  0  0  0  0  0  0  0
   39.9092   17.9063   38.0663 C   0  0  0  0  0  0  0  0  0  0  0  0
   39.5293   17.1189   37.2034 O   0  0  0  0  0  0  0  0  0  0  0  0
   40.9269   17.7808   38.9385 N   0  0  0  0  0  0  0  0  0  0  0  0
   40.8214   18.1534   39.8437 H   0  0  0  0  0  0  0  0  0  0  0  0
   42.0835   17.1666   38.6239 C   0  0  0  0  0  0  0  0  0  0  0  0
   42.5398   15.9739   39.1756 C   0  0  0  0  0  0  0  0  0  0  0  0
   43.6489   15.3500   38.6152 C   0  0  0  0  0  0  0  0  0  0  0  0
   44.3023   15.9186   37.5242 C   0  0  0  0  0  0  0  0  0  0  0  0
   43.8521   17.1025   37.0100 C   0  0  0  0  0  0  0  0  0  0  0  0
   42.7571   17.7154   37.5569 C   0  0  0  0  0  0  0  0  0  0  0  0
   45.4896   15.2477   36.8265 C   0  0  0  0  0  0  0  0  0  0  0  0
   45.7401   15.8932   35.4629 C   0  0  0  0  0  0  0  0  0  0  0  0
   45.2315   13.7521   36.8393 C   0  0  0  0  0  0  0  0  0  0  0  0
   37.6612   19.2747   38.0325 C   0  0  0  0  0  0  0  0  0  0  0  0
   36.5390   18.6470   38.9125 C   0  0  0  0  0  0  0  0  0  0  0  0
   36.2394   17.2422   38.5236 C   0  0  0  0  0  0  0  0  0  0  0  0
   37.0278   18.3042   40.2659 C   0  0  0  0  0  0  0  0  0  0  0  0
  6 10  1  0  0  0
  6  7  2  0  0  0
 10 11  1  0  0  0
 10 12  1  0  0  0
 10 13  1  0  0  0
  8  5  1  0  0  0
  5  1  1  0  0  0
  5 14  1  0  0  0
  1  2  2  0  0  0
 14 15  1  0  0  0
 15 16  1  0  0  0
 16 17  1  0  0  0
 17 18  1  0  0  0
  3 22  1  0  0  0
 22 23  1  0  0  0
 22 36  1  0  0  0
 23 24  2  0  0  0
 36 37  1  0  0  0
 37 38  1  0  0  0
 37 39  1  0  0  0
 27 25  1  0  0  0
 27 28  2  0  0  0
 27 32  1  0  0  0
 28 29  1  0  0  0
 29 30  2  0  0  0
 30 31  1  0  0  0
 30 33  1  0  0  0
 31 32  2  0  0  0
 33 34  1  0  0  0
 33 35  1  0  0  0
  6  8  1  0  0  0
  1  3  1  0  0  0
 23 25  1  0  0  0
  8  9  1  0  0  0
 18 19  1  0  0  0
 18 20  1  0  0  0
 18 21  1  0  0  0
  3  4  1  0  0  0
 25 26  1  0  0  0
M  CHG 1  18   1
M  END
> <minimizedAffinity>
-6.99097

$$$$
1ELB_0Z4_A_256


 39 39  0  0  0  0  0  0  0  0999 V2000
   39.2262   21.4720   37.2262 C   0  0  0  0  0  0  0  0  0  0  0  0
   38.4315   22.2321   37.7850 O   0  0  0  0  0  0  0  0  0  0  0  0
   38.8747   20.4629   36.3992 N   0  0  0  0  0  0  0  0  0  0  0  0
   39.5851   20.0451   35.8606 H   0  0  0  0  0  0  0  0  0  0  0  0
   40.7338   21.6464   37.3487 C   0  0  0  0  0  0  0  0  0  0  0  0
   41.3348   23.9887   37.7503 C   0  0  0  0  0  0  0  0  0  0  0  0
   42.1069   23.9652   36.7694 O   0  0  0  0  0  0  0  0  0  0  0  0
   40.7913   22.8293   38.1897 N   0  0  0  0  0  0  0  0  0  0  0  0
   40.4256   22.7868   39.1027 H   0  0  0  0  0  0  0  0  0  0  0  0
   41.0334   25.2885   38.6014 C   0  0  0  0  0  0  0  0  0  0  0  0
   40.7750   25.1093   39.8686 F   0  0  0  0  0  0  0  0  0  0  0  0
   41.9528   26.2391   38.5887 F   0  0  0  0  0  0  0  0  0  0  0  0
   39.9444   25.8557   38.1322 F   0  0  0  0  0  0  0  0  0  0  0  0
   41.3223   20.3995   37.9919 C   0  0  0  0  0  0  0  0  0  0  0  0
   42.3282   19.6920   37.1099 C   0  0  0  0  0  0  0  0  0  0  0  0
   42.4159   20.3499   35.7452 C   0  0  0  0  0  0  0  0  0  0  0  0
   43.8527   20.7335   35.4042 C   0  0  0  0  0  0  0  0  0  0  0  0
   44.2368   21.9275   36.1447 N   0  0  0  0  0  0  0  0  0  0  0  0
   43.6175   22.6977   35.8927 H   0  0  0  0  0  0  0  0  0  0  0  0
   45.1990   22.1755   35.9143 H   0  0  0  0  0  0  0  0  0  0  0  0
   44.1630   21.7453   37.1455 H   0  0  0  0  0  0  0  0  0  0  0  0
   37.5350   19.9542   36.2490 C   0  0  0  0  0  0  0  0  0  0  0  0
   37.7654   18.7139   37.1094 C   0  0  0  0  0  0  0  0  0  0  0  0
   38.8087   18.0657   37.1291 O   0  0  0  0  0  0  0  0  0  0  0  0
   36.5826   18.4329   37.6876 N   0  0  0  0  0  0  0  0  0  0  0  0
   35.7555   18.6831   37.2159 H   0  0  0  0  0  0  0  0  0  0  0  0
   36.4842   17.8238   38.8847 C   0  0  0  0  0  0  0  0  0  0  0  0
   36.5027   18.4637   40.1197 C   0  0  0  0  0  0  0  0  0  0  0  0
   36.1898   17.7370   41.2630 C   0  0  0  0  0  0  0  0  0  0  0  0
   35.8751   16.3828   41.1744 C   0  0  0  0  0  0  0  0  0  0  0  0
   35.8838   15.7665   39.9542 C   0  0  0  0  0  0  0  0  0  0  0  0
   36.1863   16.4816   38.8269 C   0  0  0  0  0  0  0  0  0  0  0  0
   35.4625   15.5459   42.3893 C   0  0  0  0  0  0  0  0  0  0  0  0
   36.2084   14.2109   42.3943 C   0  0  0  0  0  0  0  0  0  0  0  0
   33.9461   15.4832   42.3975 C   0  0  0  0  0  0  0  0  0  0  0  0
   37.2502   19.7048   34.7261 C   0  0  0  0  0  0  0  0  0  0  0  0
   35.8150   19.8599   34.1395 C   0  0  0  0  0  0  0  0  0  0  0  0
   35.7656   20.8493   33.0291 C   0  0  0  0  0  0  0  0  0  0  0  0
   35.4363   18.7036   33.2983 C   0  0  0  0  0  0  0  0  0  0  0  0
  6 10  1  0  0  0
  6  7  2  0  0  0
 10 11  1  0  0  0
 10 12  1  0  0  0
 10 13  1  0  0  0
  8  5  1  0  0  0
  5  1  1  0  0  0
  5 14  1  0  0  0
  1  2  2  0  0  0
 14 15  1  0  0  0
 15 16  1  0  0  0
 16 17  1  0  0  0
 17 18  1  0  0  0
  3 22  1  0  0  0
 22 23  1  0  0  0
 22 36  1  0  0  0
 23 24  2  0  0  0
 36 37  1  0  0  0
 37 38  1  0  0  0
 37 39  1  0  0  0
 27 25  1  0  0  0
 27 28  2  0  0  0
 27 32  1  0  0  0
 28 29  1  0  0  0
 29 30  2  0  0  0
 30 31  1  0  0  0
 30 33  1  0  0  0
 31 32  2  0  0  0
 33 34  1  0  0  0
 33 35  1  0  0  0
  6  8  1  0  0  0
  1  3  1  0  0  0
 23 25  1  0  0  0
  8  9  1  0  0  0
 18 19  1  0  0  0
 18 20  1  0  0  0
 18 21  1  0  0  0
  3  4  1  0  0  0
 25 26  1  0  0  0
M  CHG 1  18   1
M  END
> <minimizedAffinity>
-6.89214

$$$$
1ELB_0Z4_A_256


 39 39  0  0  0  0  0  0  0  0999 V2000
   38.4049   19.2646   37.3154 C   0  0  0  0  0  0  0  0  0  0  0  0
   37.3860   19.6349   36.7270 O   0  0  0  0  0  0  0  0  0  0  0  0
   39.4512   20.0633   37.6208 N   0  0  0  0  0  0  0  0  0  0  0  0
   40.1207   19.7170   38.2541 H   0  0  0  0  0  0  0  0  0  0  0  0
   38.5612   17.8462   37.8466 C   0  0  0  0  0  0  0  0  0  0  0  0
   40.8286   17.0576   38.3425 C   0  0  0  0  0  0  0  0  0  0  0  0
   40.5459   15.9336   37.8781 O   0  0  0  0  0  0  0  0  0  0  0  0
   39.8390   17.9627   38.5273 N   0  0  0  0  0  0  0  0  0  0  0  0
   39.9893   18.7194   39.1389 H   0  0  0  0  0  0  0  0  0  0  0  0
   42.2730   17.4631   38.8464 C   0  0  0  0  0  0  0  0  0  0  0  0
   42.8339   16.6647   39.7139 F   0  0  0  0  0  0  0  0  0  0  0  0
   43.2015   17.6419   37.9217 F   0  0  0  0  0  0  0  0  0  0  0  0
   42.1907   18.6123   39.4792 F   0  0  0  0  0  0  0  0  0  0  0  0
   37.3929   17.5356   38.7704 C   0  0  0  0  0  0  0  0  0  0  0  0
   37.3803   18.3862   40.0221 C   0  0  0  0  0  0  0  0  0  0  0  0
   36.2970   17.9295   40.9819 C   0  0  0  0  0  0  0  0  0  0  0  0
   34.9247   17.9360   40.3152 C   0  0  0  0  0  0  0  0  0  0  0  0
   34.4859   19.3075   40.0959 N   0  0  0  0  0  0  0  0  0  0  0  0
   34.4238   19.7919   40.9914 H   0  0  0  0  0  0  0  0  0  0  0  0
   33.5700   19.3037   39.6471 H   0  0  0  0  0  0  0  0  0  0  0  0
   35.1567   19.7872   39.4957 H   0  0  0  0  0  0  0  0  0  0  0  0
   39.6574   21.3852   37.0862 C   0  0  0  0  0  0  0  0  0  0  0  0
   40.6004   20.9341   35.9731 C   0  0  0  0  0  0  0  0  0  0  0  0
   40.2554   20.7215   34.8135 O   0  0  0  0  0  0  0  0  0  0  0  0
   41.7882   20.6966   36.5606 N   0  0  0  0  0  0  0  0  0  0  0  0
   41.8000   20.4085   37.5019 H   0  0  0  0  0  0  0  0  0  0  0  0
   42.9610   20.8370   35.9136 C   0  0  0  0  0  0  0  0  0  0  0  0
   43.7568   19.7944   35.4502 C   0  0  0  0  0  0  0  0  0  0  0  0
   44.8373   20.0835   34.6242 C   0  0  0  0  0  0  0  0  0  0  0  0
   45.1269   21.4010   34.2761 C   0  0  0  0  0  0  0  0  0  0  0  0
   44.3462   22.4138   34.7594 C   0  0  0  0  0  0  0  0  0  0  0  0
   43.2789   22.1306   35.5684 C   0  0  0  0  0  0  0  0  0  0  0  0
   46.2646   21.7758   33.3214 C   0  0  0  0  0  0  0  0  0  0  0  0
   45.9088   23.0412   32.5398 C   0  0  0  0  0  0  0  0  0  0  0  0
   46.5941   20.5378   32.5074 C   0  0  0  0  0  0  0  0  0  0  0  0
   40.2794   22.2971   38.2017 C   0  0  0  0  0  0  0  0  0  0  0  0
   40.8806   23.6928   37.8582 C   0  0  0  0  0  0  0  0  0  0  0  0
   39.9963   24.4793   36.9560 C   0  0  0  0  0  0  0  0  0  0  0  0
   40.7733   24.6333   38.9950 C   0  0  0  0  0  0  0  0  0  0  0  0
  6 10  1  0  0  0
  6  7  2  0  0  0
 10 11  1  0  0  0
 10 12  1  0  0  0
 10 13  1  0  0  0
  8  5  1  0  0  0
  5  1  1  0  0  0
  5 14  1  0  0  0
  1  2  2  0  0  0
 14 15  1  0  0  0
 15 16  1  0  0  0
 16 17  1  0  0  0
 17 18  1  0  0  0
  3 22  1  0  0  0
 22 23  1  0  0  0
 22 36  1  0  0  0
 23 24  2  0  0  0
 36 37  1  0  0  0
 37 38  1  0  0  0
 37 39  1  0  0  0
 27 25  1  0  0  0
 27 28  2  0  0  0
 27 32  1  0  0  0
 28 29  1  0  0  0
 29 30  2  0  0  0
 30 31  1  0  0  0
 30 33  1  0  0  0
 31 32  2  0  0  0
 33 34  1  0  0  0
 33 35  1  0  0  0
  6  8  1  0  0  0
  1  3  1  0  0  0
 23 25  1  0  0  0
  8  9  1  0  0  0
 18 19  1  0  0  0
 18 20  1  0  0  0
 18 21  1  0  0  0
  3  4  1  0  0  0
 25 26  1  0  0  0
M  CHG 1  18   1
M  END
> <minimizedAffinity>
-6.58784

$$$$
1ELB_0Z4_A_256


 39 39  0  0  0  0  0  0  0  0999 V2000
   40.9579   18.9793   36.5140 C   0  0  0  0  0  0  0  0  0  0  0  0
   41.2218   19.0675   35.3123 O   0  0  0  0  0  0  0  0  0  0  0  0
   39.8587   18.3770   37.0188 N   0  0  0  0  0  0  0  0  0  0  0  0
   39.8414   18.1943   37.9860 H   0  0  0  0  0  0  0  0  0  0  0  0
   41.9103   19.4830   37.5898 C   0  0  0  0  0  0  0  0  0  0  0  0
   41.5499   21.9019   37.4214 C   0  0  0  0  0  0  0  0  0  0  0  0
   42.6460   22.0307   36.8374 O   0  0  0  0  0  0  0  0  0  0  0  0
   41.2366   20.7093   37.9801 N   0  0  0  0  0  0  0  0  0  0  0  0
   40.5339   20.6721   38.6687 H   0  0  0  0  0  0  0  0  0  0  0  0
   40.5337   23.0919   37.6570 C   0  0  0  0  0  0  0  0  0  0  0  0
   40.5756   24.0739   36.7975 F   0  0  0  0  0  0  0  0  0  0  0  0
   39.2509   22.7785   37.7299 F   0  0  0  0  0  0  0  0  0  0  0  0
   40.8148   23.6639   38.8068 F   0  0  0  0  0  0  0  0  0  0  0  0
   41.9953   18.4432   38.6973 C   0  0  0  0  0  0  0  0  0  0  0  0
   42.8396   17.2436   38.3251 C   0  0  0  0  0  0  0  0  0  0  0  0
   42.7186   16.1464   39.3665 C   0  0  0  0  0  0  0  0  0  0  0  0
   43.6373   14.9714   39.0454 C   0  0  0  0  0  0  0  0  0  0  0  0
   42.8996   13.9496   38.3151 N   0  0  0  0  0  0  0  0  0  0  0  0
   42.1220   13.6184   38.8859 H   0  0  0  0  0  0  0  0  0  0  0  0
   43.5209   13.1695   38.1010 H   0  0  0  0  0  0  0  0  0  0  0  0
   42.5396   14.3456   37.4468 H   0  0  0  0  0  0  0  0  0  0  0  0
   38.7102   17.9828   36.2432 C   0  0  0  0  0  0  0  0  0  0  0  0
   37.6856   18.5458   37.2255 C   0  0  0  0  0  0  0  0  0  0  0  0
   36.9263   19.4793   36.9789 O   0  0  0  0  0  0  0  0  0  0  0  0
   37.9021   17.9166   38.3957 N   0  0  0  0  0  0  0  0  0  0  0  0
   38.8125   17.6034   38.6018 H   0  0  0  0  0  0  0  0  0  0  0  0
   36.9248   17.6978   39.2962 C   0  0  0  0  0  0  0  0  0  0  0  0
   36.8094   18.3280   40.5309 C   0  0  0  0  0  0  0  0  0  0  0  0
   35.6451   18.1570   41.2716 C   0  0  0  0  0  0  0  0  0  0  0  0
   34.6135   17.3545   40.7896 C   0  0  0  0  0  0  0  0  0  0  0  0
   34.7547   16.7257   39.5839 C   0  0  0  0  0  0  0  0  0  0  0  0
   35.8980   16.8973   38.8509 C   0  0  0  0  0  0  0  0  0  0  0  0
   33.2845   17.1780   41.5306 C   0  0  0  0  0  0  0  0  0  0  0  0
   33.1352   15.7369   42.0204 C   0  0  0  0  0  0  0  0  0  0  0  0
   32.1903   17.7098   40.6232 C   0  0  0  0  0  0  0  0  0  0  0  0
   38.7236   16.4237   36.0650 C   0  0  0  0  0  0  0  0  0  0  0  0
   39.8267   15.5469   36.7299 C   0  0  0  0  0  0  0  0  0  0  0  0
   39.2770   14.6627   37.7931 C   0  0  0  0  0  0  0  0  0  0  0  0
   40.2537   14.4380   35.8488 C   0  0  0  0  0  0  0  0  0  0  0  0
  6 10  1  0  0  0
  6  7  2  0  0  0
 10 11  1  0  0  0
 10 12  1  0  0  0
 10 13  1  0  0  0
  8  5  1  0  0  0
  5  1  1  0  0  0
  5 14  1  0  0  0
  1  2  2  0  0  0
 14 15  1  0  0  0
 15 16  1  0  0  0
 16 17  1  0  0  0
 17 18  1  0  0  0
  3 22  1  0  0  0
 22 23  1  0  0  0
 22 36  1  0  0  0
 23 24  2  0  0  0
 36 37  1  0  0  0
 37 38  1  0  0  0
 37 39  1  0  0  0
 27 25  1  0  0  0
 27 28  2  0  0  0
 27 32  1  0  0  0
 28 29  1  0  0  0
 29 30  2  0  0  0
 30 31  1  0  0  0
 30 33  1  0  0  0
 31 32  2  0  0  0
 33 34  1  0  0  0
 33 35  1  0  0  0
  6  8  1  0  0  0
  1  3  1  0  0  0
 23 25  1  0  0  0
  8  9  1  0  0  0
 18 19  1  0  0  0
 18 20  1  0  0  0
 18 21  1  0  0  0
  3  4  1  0  0  0
 25 26  1  0  0  0
M  CHG 1  18   1
M  END
> <minimizedAffinity>
-6.43146

$$$$
1ELB_0Z4_A_256


 39 39  0  0  0  0  0  0  0  0999 V2000
   42.3388   19.5881   34.8423 C   0  0  0  0  0  0  0  0  0  0  0  0
   42.6785   19.0709   33.7753 O   0  0  0  0  0  0  0  0  0  0  0  0
   41.6623   18.9533   35.8248 N   0  0  0  0  0  0  0  0  0  0  0  0
   41.6113   19.3948   36.7032 H   0  0  0  0  0  0  0  0  0  0  0  0
   42.7275   21.0137   35.2095 C   0  0  0  0  0  0  0  0  0  0  0  0
   41.5087   22.4585   36.7703 C   0  0  0  0  0  0  0  0  0  0  0  0
   42.1529   23.4488   36.3662 O   0  0  0  0  0  0  0  0  0  0  0  0
   41.8876   21.2199   36.3764 N   0  0  0  0  0  0  0  0  0  0  0  0
   41.5860   20.4388   36.8943 H   0  0  0  0  0  0  0  0  0  0  0  0
   40.3295   22.5458   37.8221 C   0  0  0  0  0  0  0  0  0  0  0  0
   40.1493   21.5016   38.5848 F   0  0  0  0  0  0  0  0  0  0  0  0
   40.3538   23.5640   38.6658 F   0  0  0  0  0  0  0  0  0  0  0  0
   39.1933   22.6640   37.1716 F   0  0  0  0  0  0  0  0  0  0  0  0
   44.2195   21.0560   35.5045 C   0  0  0  0  0  0  0  0  0  0  0  0
   44.9397   22.1705   34.7766 C   0  0  0  0  0  0  0  0  0  0  0  0
   44.7940   22.0243   33.2731 C   0  0  0  0  0  0  0  0  0  0  0  0
   45.5057   23.1528   32.5332 C   0  0  0  0  0  0  0  0  0  0  0  0
   46.9149   22.8250   32.3652 N   0  0  0  0  0  0  0  0  0  0  0  0
   47.3470   22.7024   33.2810 H   0  0  0  0  0  0  0  0  0  0  0  0
   47.3830   23.5821   31.8670 H   0  0  0  0  0  0  0  0  0  0  0  0
   47.0015   21.9611   31.8299 H   0  0  0  0  0  0  0  0  0  0  0  0
   41.0101   17.6768   35.6791 C   0  0  0  0  0  0  0  0  0  0  0  0
   39.6524   18.1618   36.1820 C   0  0  0  0  0  0  0  0  0  0  0  0
   38.7987   18.6922   35.4757 O   0  0  0  0  0  0  0  0  0  0  0  0
   39.6734   18.0157   37.5200 N   0  0  0  0  0  0  0  0  0  0  0  0
   40.5371   18.0791   37.9882 H   0  0  0  0  0  0  0  0  0  0  0  0
   38.5616   17.7864   38.2447 C   0  0  0  0  0  0  0  0  0  0  0  0
   37.7947   16.6267   38.2008 C   0  0  0  0  0  0  0  0  0  0  0  0
   36.7920   16.4424   39.1464 C   0  0  0  0  0  0  0  0  0  0  0  0
   36.5498   17.4125   40.1164 C   0  0  0  0  0  0  0  0  0  0  0  0
   37.2995   18.5556   40.1296 C   0  0  0  0  0  0  0  0  0  0  0  0
   38.2907   18.7362   39.2029 C   0  0  0  0  0  0  0  0  0  0  0  0
   35.5021   17.2383   41.2202 C   0  0  0  0  0  0  0  0  0  0  0  0
   34.3665   18.2468   41.0404 C   0  0  0  0  0  0  0  0  0  0  0  0
   36.2386   17.2655   42.5470 C   0  0  0  0  0  0  0  0  0  0  0  0
   41.7491   16.6197   36.5731 C   0  0  0  0  0  0  0  0  0  0  0  0
   42.9472   17.0298   37.4809 C   0  0  0  0  0  0  0  0  0  0  0  0
   42.7376   16.6356   38.9004 C   0  0  0  0  0  0  0  0  0  0  0  0
   44.1194   16.1511   37.2754 C   0  0  0  0  0  0  0  0  0  0  0  0
  6 10  1  0  0  0
  6  7  2  0  0  0
 10 11  1  0  0  0
 10 12  1  0  0  0
 10 13  1  0  0  0
  8  5  1  0  0  0
  5  1  1  0  0  0
  5 14  1  0  0  0
  1  2  2  0  0  0
 14 15  1  0  0  0
 15 16  1  0  0  0
 16 17  1  0  0  0
 17 18  1  0  0  0
  3 22  1  0  0  0
 22 23  1  0  0  0
 22 36  1  0  0  0
 23 24  2  0  0  0
 36 37  1  0  0  0
 37 38  1  0  0  0
 37 39  1  0  0  0
 27 25  1  0  0  0
 27 28  2  0  0  0
 27 32  1  0  0  0
 28 29  1  0  0  0
 29 30  2  0  0  0
 30 31  1  0  0  0
 30 33  1  0  0  0
 31 32  2  0  0  0
 33 34  1  0  0  0
 33 35  1  0  0  0
  6  8  1  0  0  0
  1  3  1  0  0  0
 23 25  1  0  0  0
  8  9  1  0  0  0
 18 19  1  0  0  0
 18 20  1  0  0  0
 18 21  1  0  0  0
  3  4  1  0  0  0
 25 26  1  0  0  0
M  CHG 1  18   1
M  END
> <minimizedAffinity>
-6.37834

$$$$
1ELB_0Z4_A_256


 39 39  0  0  0  0  0  0  0  0999 V2000
   44.5093   22.3529   35.0275 C   0  0  0  0  0  0  0  0  0  0  0  0
   44.8319   23.3274   35.7114 O   0  0  0  0  0  0  0  0  0  0  0  0
   43.4355   21.5676   35.2643 N   0  0  0  0  0  0  0  0  0  0  0  0
   43.1619   20.9418   34.5552 H   0  0  0  0  0  0  0  0  0  0  0  0
   45.2622   21.9693   33.7609 C   0  0  0  0  0  0  0  0  0  0  0  0
   46.9180   20.1630   33.6938 C   0  0  0  0  0  0  0  0  0  0  0  0
   47.4610   20.6893   32.7004 O   0  0  0  0  0  0  0  0  0  0  0  0
   45.7289   20.6435   34.1272 N   0  0  0  0  0  0  0  0  0  0  0  0
   45.1659   20.0798   34.7056 H   0  0  0  0  0  0  0  0  0  0  0  0
   47.4788   18.8756   34.4237 C   0  0  0  0  0  0  0  0  0  0  0  0
   47.3174   17.7372   33.8052 F   0  0  0  0  0  0  0  0  0  0  0  0
   48.7588   18.8858   34.7566 F   0  0  0  0  0  0  0  0  0  0  0  0
   46.8294   18.7171   35.5556 F   0  0  0  0  0  0  0  0  0  0  0  0
   44.2921   21.9830   32.5889 C   0  0  0  0  0  0  0  0  0  0  0  0
   44.7695   22.8309   31.4298 C   0  0  0  0  0  0  0  0  0  0  0  0
   45.9178   23.7307   31.8479 C   0  0  0  0  0  0  0  0  0  0  0  0
   46.0357   24.9442   30.9308 C   0  0  0  0  0  0  0  0  0  0  0  0
   44.7207   25.5315   30.7131 N   0  0  0  0  0  0  0  0  0  0  0  0
   44.1085   24.8421   30.2767 H   0  0  0  0  0  0  0  0  0  0  0  0
   44.8080   26.3437   30.1023 H   0  0  0  0  0  0  0  0  0  0  0  0
   44.3248   25.8198   31.6078 H   0  0  0  0  0  0  0  0  0  0  0  0
   42.6622   21.5801   36.4799 C   0  0  0  0  0  0  0  0  0  0  0  0
   42.1454   20.1517   36.3247 C   0  0  0  0  0  0  0  0  0  0  0  0
   41.2348   19.8202   35.5698 O   0  0  0  0  0  0  0  0  0  0  0  0
   42.7808   19.4189   37.2583 N   0  0  0  0  0  0  0  0  0  0  0  0
   43.0658   19.8599   38.0910 H   0  0  0  0  0  0  0  0  0  0  0  0
   43.0426   18.1073   37.1000 C   0  0  0  0  0  0  0  0  0  0  0  0
   43.7499   17.5477   36.0410 C   0  0  0  0  0  0  0  0  0  0  0  0
   44.1201   16.2090   36.1070 C   0  0  0  0  0  0  0  0  0  0  0  0
   43.7756   15.4352   37.2129 C   0  0  0  0  0  0  0  0  0  0  0  0
   43.0611   15.9975   38.2338 C   0  0  0  0  0  0  0  0  0  0  0  0
   42.7005   17.3166   38.1731 C   0  0  0  0  0  0  0  0  0  0  0  0
   44.2080   13.9741   37.3701 C   0  0  0  0  0  0  0  0  0  0  0  0
   45.5502   13.7383   36.6761 C   0  0  0  0  0  0  0  0  0  0  0  0
   43.0436   13.1103   36.9209 C   0  0  0  0  0  0  0  0  0  0  0  0
   41.5910   22.7237   36.3932 C   0  0  0  0  0  0  0  0  0  0  0  0
   40.7032   23.0899   37.6201 C   0  0  0  0  0  0  0  0  0  0  0  0
   40.1520   24.4688   37.5235 C   0  0  0  0  0  0  0  0  0  0  0  0
   39.3851   22.4206   37.5652 C   0  0  0  0  0  0  0  0  0  0  0  0
  6 10  1  0  0  0
  6  7  2  0  0  0
 10 11  1  0  0  0
 10 12  1  0  0  0
 10 13  1  0  0  0
  8  5  1  0  0  0
  5  1  1  0  0  0
  5 14  1  0  0  0
  1  2  2  0  0  0
 14 15  1  0  0  0
 15 16  1  0  0  0
 16 17  1  0  0  0
 17 18  1  0  0  0
  3 22  1  0  0  0
 22 23  1  0  0  0
 22 36  1  0  0  0
 23 24  2  0  0  0
 36 37  1  0  0  0
 37 38  1  0  0  0
 37 39  1  0  0  0
 27 25  1  0  0  0
 27 28  2  0  0  0
 27 32  1  0  0  0
 28 29  1  0  0  0
 29 30  2  0  0  0
 30 31  1  0  0  0
 30 33  1  0  0  0
 31 32  2  0  0  0
 33 34  1  0  0  0
 33 35  1  0  0  0
  6  8  1  0  0  0
  1  3  1  0  0  0
 23 25  1  0  0  0
  8  9  1  0  0  0
 18 19  1  0  0  0
 18 20  1  0  0  0
 18 21  1  0  0  0
  3  4  1  0  0  0
 25 26  1  0  0  0
M  CHG 1  18   1
M  END
> <minimizedAffinity>
-6.34109

$$$$
1ELB_0Z4_A_256


 39 39  0  0  0  0  0  0  0  0999 V2000
   41.1661   18.9568   37.8137 C   0  0  0  0  0  0  0  0  0  0  0  0
   41.8092   19.2904   38.8120 O   0  0  0  0  0  0  0  0  0  0  0  0
   41.4702   17.9092   37.0163 N   0  0  0  0  0  0  0  0  0  0  0  0
   40.7905   17.6171   36.3667 H   0  0  0  0  0  0  0  0  0  0  0  0
   39.8785   19.6615   37.4090 C   0  0  0  0  0  0  0  0  0  0  0  0
   39.8256   22.1035   37.6160 C   0  0  0  0  0  0  0  0  0  0  0  0
   38.6591   22.0469   38.0577 O   0  0  0  0  0  0  0  0  0  0  0  0
   40.3916   20.9856   37.1036 N   0  0  0  0  0  0  0  0  0  0  0  0
   41.1711   21.0723   36.5085 H   0  0  0  0  0  0  0  0  0  0  0  0
   40.6607   23.4433   37.5069 C   0  0  0  0  0  0  0  0  0  0  0  0
   41.0965   23.9522   38.6275 F   0  0  0  0  0  0  0  0  0  0  0  0
   41.7260   23.4229   36.7234 F   0  0  0  0  0  0  0  0  0  0  0  0
   39.8862   24.3828   37.0114 F   0  0  0  0  0  0  0  0  0  0  0  0
   39.2774   18.9386   36.2127 C   0  0  0  0  0  0  0  0  0  0  0  0
   38.8808   19.8723   35.0896 C   0  0  0  0  0  0  0  0  0  0  0  0
   37.4108   19.7188   34.7451 C   0  0  0  0  0  0  0  0  0  0  0  0
   36.5284   19.9141   35.9742 C   0  0  0  0  0  0  0  0  0  0  0  0
   36.5127   21.3196   36.3558 N   0  0  0  0  0  0  0  0  0  0  0  0
   37.4615   21.6230   36.5752 H   0  0  0  0  0  0  0  0  0  0  0  0
   35.9183   21.4428   37.1756 H   0  0  0  0  0  0  0  0  0  0  0  0
   36.1473   21.8774   35.5840 H   0  0  0  0  0  0  0  0  0  0  0  0
   42.7177   17.1890   37.0484 C   0  0  0  0  0  0  0  0  0  0  0  0
   43.1804   17.6611   35.6719 C   0  0  0  0  0  0  0  0  0  0  0  0
   42.7102   17.2671   34.6077 O   0  0  0  0  0  0  0  0  0  0  0  0
   44.2538   18.4451   35.8851 N   0  0  0  0  0  0  0  0  0  0  0  0
   44.8174   18.2696   36.6731 H   0  0  0  0  0  0  0  0  0  0  0  0
   44.5885   19.4596   35.0650 C   0  0  0  0  0  0  0  0  0  0  0  0
   45.5494   19.4021   34.0609 C   0  0  0  0  0  0  0  0  0  0  0  0
   45.6503   20.4563   33.1598 C   0  0  0  0  0  0  0  0  0  0  0  0
   44.8092   21.5613   33.2694 C   0  0  0  0  0  0  0  0  0  0  0  0
   43.8859   21.6094   34.2763 C   0  0  0  0  0  0  0  0  0  0  0  0
   43.7815   20.5701   35.1610 C   0  0  0  0  0  0  0  0  0  0  0  0
   44.8316   22.7230   32.2711 C   0  0  0  0  0  0  0  0  0  0  0  0
   44.0517   22.3549   31.0081 C   0  0  0  0  0  0  0  0  0  0  0  0
   46.2824   23.1286   32.0864 C   0  0  0  0  0  0  0  0  0  0  0  0
   42.4195   15.6555   37.1969 C   0  0  0  0  0  0  0  0  0  0  0  0
   43.2589   14.7613   38.1579 C   0  0  0  0  0  0  0  0  0  0  0  0
   44.7222   14.9688   37.9840 C   0  0  0  0  0  0  0  0  0  0  0  0
   43.2225   15.2630   39.5490 C   0  0  0  0  0  0  0  0  0  0  0  0
  6 10  1  0  0  0
  6  7  2  0  0  0
 10 11  1  0  0  0
 10 12  1  0  0  0
 10 13  1  0  0  0
  8  5  1  0  0  0
  5  1  1  0  0  0
  5 14  1  0  0  0
  1  2  2  0  0  0
 14 15  1  0  0  0
 15 16  1  0  0  0
 16 17  1  0  0  0
 17 18  1  0  0  0
  3 22  1  0  0  0
 22 23  1  0  0  0
 22 36  1  0  0  0
 23 24  2  0  0  0
 36 37  1  0  0  0
 37 38  1  0  0  0
 37 39  1  0  0  0
 27 25  1  0  0  0
 27 28  2  0  0  0
 27 32  1  0  0  0
 28 29  1  0  0  0
 29 30  2  0  0  0
 30 31  1  0  0  0
 30 33  1  0  0  0
 31 32  2  0  0  0
 33 34  1  0  0  0
 33 35  1  0  0  0
  6  8  1  0  0  0
  1  3  1  0  0  0
 23 25  1  0  0  0
  8  9  1  0  0  0
 18 19  1  0  0  0
 18 20  1  0  0  0
 18 21  1  0  0  0
  3  4  1  0  0  0
 25 26  1  0  0  0
M  CHG 1  18   1
M  END
> <minimizedAffinity>
-6.08590

$$$$
1ELB_0Z4_A_256


 39 39  0  0  0  0  0  0  0  0999 V2000
   44.7477   22.0394   35.2354 C   0  0  0  0  0  0  0  0  0  0  0  0
   44.9382   23.1008   35.8341 O   0  0  0  0  0  0  0  0  0  0  0  0
   43.6941   21.2184   35.4396 N   0  0  0  0  0  0  0  0  0  0  0  0
   43.5378   20.5033   34.7812 H   0  0  0  0  0  0  0  0  0  0  0  0
   45.6633   21.5685   34.1136 C   0  0  0  0  0  0  0  0  0  0  0  0
   46.4037   22.8519   32.1607 C   0  0  0  0  0  0  0  0  0  0  0  0
   47.0505   21.8659   31.7503 O   0  0  0  0  0  0  0  0  0  0  0  0
   45.8700   22.8192   33.4044 N   0  0  0  0  0  0  0  0  0  0  0  0
   45.6155   23.6649   33.8394 H   0  0  0  0  0  0  0  0  0  0  0  0
   46.2605   24.2068   31.3556 C   0  0  0  0  0  0  0  0  0  0  0  0
   45.1105   24.8186   31.4427 F   0  0  0  0  0  0  0  0  0  0  0  0
   47.1510   25.1511   31.6093 F   0  0  0  0  0  0  0  0  0  0  0  0
   46.3870   23.9493   30.0727 F   0  0  0  0  0  0  0  0  0  0  0  0
   46.9292   20.9857   34.7241 C   0  0  0  0  0  0  0  0  0  0  0  0
   46.8521   19.4900   34.9417 C   0  0  0  0  0  0  0  0  0  0  0  0
   47.7910   18.7527   34.0047 C   0  0  0  0  0  0  0  0  0  0  0  0
   47.0215   18.0184   32.9109 C   0  0  0  0  0  0  0  0  0  0  0  0
   46.7930   18.9090   31.7813 N   0  0  0  0  0  0  0  0  0  0  0  0
   46.2483   19.7148   32.0884 H   0  0  0  0  0  0  0  0  0  0  0  0
   46.2816   18.4104   31.0532 H   0  0  0  0  0  0  0  0  0  0  0  0
   47.6893   19.2255   31.4112 H   0  0  0  0  0  0  0  0  0  0  0  0
   42.7830   21.3143   36.5516 C   0  0  0  0  0  0  0  0  0  0  0  0
   42.1865   19.9222   36.3565 C   0  0  0  0  0  0  0  0  0  0  0  0
   41.2203   19.6744   35.6396 O   0  0  0  0  0  0  0  0  0  0  0  0
   42.8340   19.1125   37.2152 N   0  0  0  0  0  0  0  0  0  0  0  0
   43.1862   19.4958   38.0508 H   0  0  0  0  0  0  0  0  0  0  0  0
   43.0198   17.7998   36.9782 C   0  0  0  0  0  0  0  0  0  0  0  0
   44.0300   17.2570   36.1911 C   0  0  0  0  0  0  0  0  0  0  0  0
   44.2259   15.8804   36.1961 C   0  0  0  0  0  0  0  0  0  0  0  0
   43.4125   15.0547   36.9689 C   0  0  0  0  0  0  0  0  0  0  0  0
   42.4107   15.6049   37.7189 C   0  0  0  0  0  0  0  0  0  0  0  0
   42.2199   16.9604   37.7194 C   0  0  0  0  0  0  0  0  0  0  0  0
   43.6192   13.5398   37.0630 C   0  0  0  0  0  0  0  0  0  0  0  0
   44.6351   13.0751   36.0186 C   0  0  0  0  0  0  0  0  0  0  0  0
   42.2459   12.8953   37.0168 C   0  0  0  0  0  0  0  0  0  0  0  0
   41.8157   22.5277   36.3174 C   0  0  0  0  0  0  0  0  0  0  0  0
   40.9299   23.0856   37.4714 C   0  0  0  0  0  0  0  0  0  0  0  0
   40.3794   24.4318   37.1569 C   0  0  0  0  0  0  0  0  0  0  0  0
   39.6114   22.4172   37.5257 C   0  0  0  0  0  0  0  0  0  0  0  0
  6 10  1  0  0  0
  6  7  2  0  0  0
 10 11  1  0  0  0
 10 12  1  0  0  0
 10 13  1  0  0  0
  8  5  1  0  0  0
  5  1  1  0  0  0
  5 14  1  0  0  0
  1  2  2  0  0  0
 14 15  1  0  0  0
 15 16  1  0  0  0
 16 17  1  0  0  0
 17 18  1  0  0  0
  3 22  1  0  0  0
 22 23  1  0  0  0
 22 36  1  0  0  0
 23 24  2  0  0  0
 36 37  1  0  0  0
 37 38  1  0  0  0
 37 39  1  0  0  0
 27 25  1  0  0  0
 27 28  2  0  0  0
 27 32  1  0  0  0
 28 29  1  0  0  0
 29 30  2  0  0  0
 30 31  1  0  0  0
 30 33  1  0  0  0
 31 32  2  0  0  0
 33 34  1  0  0  0
 33 35  1  0  0  0
  6  8  1  0  0  0
  1  3  1  0  0  0
 23 25  1  0  0  0
  8  9  1  0  0  0
 18 19  1  0  0  0
 18 20  1  0  0  0
 18 21  1  0  0  0
  3  4  1  0  0  0
 25 26  1  0  0  0
M  CHG 1  18   1
M  END
> <minimizedAffinity>
-5.99880

$$$$
