4HY1_19X_A_1401


 32 36  0  0  0  0  0  0  0  0999 V2000
    6.1851    0.3939   -6.5443 C   0  0  0  0  0  0  0  0  0  0  0  0
    6.9022   -0.7480   -6.5558 N   0  0  0  0  0  0  0  0  0  0  0  0
    6.6635   -1.7206   -5.6768 C   0  0  0  0  0  0  0  0  0  0  0  0
    5.1543    0.6405   -5.7259 N   0  0  0  0  0  0  0  0  0  0  0  0
    4.7413   -0.2478   -4.8070 C   0  0  0  0  0  0  0  0  0  0  0  0
    5.5236   -1.5115   -4.7558 C   0  0  0  0  0  0  0  0  0  0  0  0
    5.6350   -2.7606   -4.0257 C   0  0  0  0  0  0  0  0  0  0  0  0
    4.6893   -3.2018   -2.5685 Cl  0  0  0  0  0  0  0  0  0  0  0  0
    6.7355   -3.6157   -4.4756 C   0  0  0  0  0  0  0  0  0  0  0  0
    7.2874   -2.9034   -5.4603 N   0  0  0  0  0  0  0  0  0  0  0  0
    8.0686   -3.2069   -5.9769 H   0  0  0  0  0  0  0  0  0  0  0  0
    3.5586    0.0324   -4.1667 N   0  0  0  0  0  0  0  0  0  0  0  0
    2.3714    0.5659   -4.8676 C   0  0  0  0  0  0  0  0  0  0  0  0
    1.7662    1.5475   -3.8637 C   0  0  0  0  0  0  0  0  0  0  0  0
    2.2430    2.9425   -4.0640 N   0  0  0  0  0  0  0  0  0  0  0  0
    2.3023    1.0503   -2.5207 C   0  0  0  0  0  0  0  0  0  0  0  0
    3.5341    0.1762   -2.7240 C   0  0  0  0  0  0  0  0  0  0  0  0
    3.2600    2.9681   -3.9901 H   0  0  0  0  0  0  0  0  0  0  0  0
    1.8350    3.5469   -3.3508 H   0  0  0  0  0  0  0  0  0  0  0  0
    7.0636   -5.0132   -3.9632 C   0  0  0  0  0  0  0  0  0  0  0  0
    8.3219   -5.0186   -3.1183 C   0  0  0  0  0  0  0  0  0  0  0  0
    6.7315    1.6057   -7.6119 S   0  0  0  0  0  0  0  0  0  0  0  0
   12.2685    1.6574   -8.7130 O   0  0  0  0  0  0  0  0  0  0  0  0
   11.9345    2.4380   -7.7363 C   0  0  0  0  0  0  0  0  0  0  0  0
   10.5209    2.5224   -7.3435 C   0  0  0  0  0  0  0  0  0  0  0  0
    9.3613    1.9149   -7.7629 C   0  0  0  0  0  0  0  0  0  0  0  0
   12.7689    3.2289   -6.9993 N   0  0  0  0  0  0  0  0  0  0  0  0
   11.9563    3.9359   -5.9741 C   0  0  0  0  0  0  0  0  0  0  0  0
   10.5910    3.4765   -6.2339 C   0  0  0  0  0  0  0  0  0  0  0  0
    9.4255    3.8072   -5.5647 C   0  0  0  0  0  0  0  0  0  0  0  0
    8.2334    3.2155   -6.0278 C   0  0  0  0  0  0  0  0  0  0  0  0
    8.1945    2.2775   -7.0694 C   0  0  0  0  0  0  0  0  0  0  0  0
 23 24  2  0  0  0
 24 27  1  0  0  0
 24 25  1  0  0  0
 27 28  2  0  0  0
 25 26  2  0  0  0
 25 29  1  0  0  0
 26 32  1  0  0  0
 28 29  1  0  0  0
 29 30  2  0  0  0
 32 22  1  0  0  0
 32 31  2  0  0  0
 22  1  1  0  0  0
 30 31  1  0  0  0
  1  2  2  0  0  0
  1  4  1  0  0  0
  2  3  1  0  0  0
  4  5  2  0  0  0
  3 10  1  0  0  0
  3  6  2  0  0  0
 17 12  1  0  0  0
 17 16  1  0  0  0
  5  6  1  0  0  0
  5 12  1  0  0  0
 10  9  1  0  0  0
  6  7  1  0  0  0
 12 13  1  0  0  0
 16 14  1  0  0  0
  9  7  2  0  0  0
  9 20  1  0  0  0
  7  8  1  0  0  0
 13 14  1  0  0  0
 14 15  1  0  0  0
 21 20  1  0  0  0
 15 18  1  0  0  0
 15 19  1  0  0  0
 10 11  1  0  0  0
M  END
> <minimizedAffinity>
-8.58372

$$$$
4HY1_19X_A_1401


 32 36  0  0  0  0  0  0  0  0999 V2000
   10.0275    1.8922  -10.4974 C   0  0  0  0  0  0  0  0  0  0  0  0
   11.2211    2.3459  -10.0640 N   0  0  0  0  0  0  0  0  0  0  0  0
   11.3754    2.8012   -8.8212 C   0  0  0  0  0  0  0  0  0  0  0  0
    8.9276    1.7919   -9.7402 N   0  0  0  0  0  0  0  0  0  0  0  0
    8.9117    2.1594   -8.4484 C   0  0  0  0  0  0  0  0  0  0  0  0
   10.1967    2.7005   -7.9313 C   0  0  0  0  0  0  0  0  0  0  0  0
   10.8011    3.2795   -6.7458 C   0  0  0  0  0  0  0  0  0  0  0  0
    9.9357    3.6871   -5.2301 Cl  0  0  0  0  0  0  0  0  0  0  0  0
   12.1975    3.6818   -6.9270 C   0  0  0  0  0  0  0  0  0  0  0  0
   12.4423    3.3568   -8.1982 N   0  0  0  0  0  0  0  0  0  0  0  0
   13.3102    3.5057   -8.6385 H   0  0  0  0  0  0  0  0  0  0  0  0
    7.7914    1.8261   -7.7265 N   0  0  0  0  0  0  0  0  0  0  0  0
    7.1264    0.5104   -7.8355 C   0  0  0  0  0  0  0  0  0  0  0  0
    5.6383    0.8442   -7.7277 C   0  0  0  0  0  0  0  0  0  0  0  0
    4.9944    1.0375   -9.0549 N   0  0  0  0  0  0  0  0  0  0  0  0
    5.6325    2.1873   -6.9967 C   0  0  0  0  0  0  0  0  0  0  0  0
    6.9915    2.8675   -7.1114 C   0  0  0  0  0  0  0  0  0  0  0  0
    5.4723    1.7843   -9.5592 H   0  0  0  0  0  0  0  0  0  0  0  0
    4.0145    1.2885   -8.9241 H   0  0  0  0  0  0  0  0  0  0  0  0
   13.1231    4.2462   -5.8556 C   0  0  0  0  0  0  0  0  0  0  0  0
   14.1920    5.1394   -6.4530 C   0  0  0  0  0  0  0  0  0  0  0  0
    9.9532    1.5150  -12.1584 S   0  0  0  0  0  0  0  0  0  0  0  0
    6.2780    0.8314  -16.3890 O   0  0  0  0  0  0  0  0  0  0  0  0
    5.9594    0.1695  -15.3235 C   0  0  0  0  0  0  0  0  0  0  0  0
    6.8314    0.2563  -14.1439 C   0  0  0  0  0  0  0  0  0  0  0  0
    7.9859    0.9383  -13.8410 C   0  0  0  0  0  0  0  0  0  0  0  0
    4.8697   -0.6366  -15.1566 N   0  0  0  0  0  0  0  0  0  0  0  0
    4.8958   -1.1746  -13.7705 C   0  0  0  0  0  0  0  0  0  0  0  0
    6.1176   -0.6063  -13.1989 C   0  0  0  0  0  0  0  0  0  0  0  0
    6.6307   -0.7655  -11.9234 C   0  0  0  0  0  0  0  0  0  0  0  0
    7.8381   -0.0996  -11.6330 C   0  0  0  0  0  0  0  0  0  0  0  0
    8.4859    0.7496  -12.5417 C   0  0  0  0  0  0  0  0  0  0  0  0
 23 24  2  0  0  0
 24 27  1  0  0  0
 24 25  1  0  0  0
 27 28  2  0  0  0
 25 26  2  0  0  0
 25 29  1  0  0  0
 26 32  1  0  0  0
 28 29  1  0  0  0
 29 30  2  0  0  0
 32 22  1  0  0  0
 32 31  2  0  0  0
 22  1  1  0  0  0
 30 31  1  0  0  0
  1  2  2  0  0  0
  1  4  1  0  0  0
  2  3  1  0  0  0
  4  5  2  0  0  0
  3 10  1  0  0  0
  3  6  2  0  0  0
 17 12  1  0  0  0
 17 16  1  0  0  0
  5  6  1  0  0  0
  5 12  1  0  0  0
 10  9  1  0  0  0
  6  7  1  0  0  0
 12 13  1  0  0  0
 16 14  1  0  0  0
  9  7  2  0  0  0
  9 20  1  0  0  0
  7  8  1  0  0  0
 13 14  1  0  0  0
 14 15  1  0  0  0
 21 20  1  0  0  0
 15 18  1  0  0  0
 15 19  1  0  0  0
 10 11  1  0  0  0
M  END
> <minimizedAffinity>
-8.43102

$$$$
4HY1_19X_A_1401


 32 36  0  0  0  0  0  0  0  0999 V2000
    6.0525   -0.7108   -6.8643 C   0  0  0  0  0  0  0  0  0  0  0  0
    5.2851    0.3504   -6.5429 N   0  0  0  0  0  0  0  0  0  0  0  0
    4.6758    0.4274   -5.3604 C   0  0  0  0  0  0  0  0  0  0  0  0
    6.3289   -1.7308   -6.0419 N   0  0  0  0  0  0  0  0  0  0  0  0
    5.8394   -1.7962   -4.7928 C   0  0  0  0  0  0  0  0  0  0  0  0
    4.9571   -0.6649   -4.4016 C   0  0  0  0  0  0  0  0  0  0  0  0
    4.1278   -0.1829   -3.3126 C   0  0  0  0  0  0  0  0  0  0  0  0
    3.7770   -1.0754   -1.7984 Cl  0  0  0  0  0  0  0  0  0  0  0  0
    3.4278    1.0690   -3.6081 C   0  0  0  0  0  0  0  0  0  0  0  0
    3.8198    1.3468   -4.8534 N   0  0  0  0  0  0  0  0  0  0  0  0
    3.5175    2.1396   -5.3528 H   0  0  0  0  0  0  0  0  0  0  0  0
    6.3495   -2.7808   -3.9818 N   0  0  0  0  0  0  0  0  0  0  0  0
    6.9456   -2.5036   -2.6578 C   0  0  0  0  0  0  0  0  0  0  0  0
    8.1136   -3.4864   -2.5711 C   0  0  0  0  0  0  0  0  0  0  0  0
    9.3984   -2.8951   -3.0326 N   0  0  0  0  0  0  0  0  0  0  0  0
    7.7176   -4.5889   -3.5540 C   0  0  0  0  0  0  0  0  0  0  0  0
    6.6703   -4.0811   -4.5378 C   0  0  0  0  0  0  0  0  0  0  0  0
    9.2983   -2.5737   -3.9955 H   0  0  0  0  0  0  0  0  0  0  0  0
   10.1339   -3.6001   -2.9843 H   0  0  0  0  0  0  0  0  0  0  0  0
    2.5487    1.8626   -2.6486 C   0  0  0  0  0  0  0  0  0  0  0  0
    3.0893    3.2600   -2.4196 C   0  0  0  0  0  0  0  0  0  0  0  0
    6.6122   -0.7414   -8.4745 S   0  0  0  0  0  0  0  0  0  0  0  0
    9.9110    1.6091  -12.4072 O   0  0  0  0  0  0  0  0  0  0  0  0
   10.2760    1.8923  -11.1983 C   0  0  0  0  0  0  0  0  0  0  0  0
    9.5029    1.3457  -10.0744 C   0  0  0  0  0  0  0  0  0  0  0  0
    8.4118    0.5171   -9.9616 C   0  0  0  0  0  0  0  0  0  0  0  0
   11.3322    2.6731  -10.8245 N   0  0  0  0  0  0  0  0  0  0  0  0
   11.3851    2.7057   -9.3388 C   0  0  0  0  0  0  0  0  0  0  0  0
   10.2418    1.8876   -8.9312 C   0  0  0  0  0  0  0  0  0  0  0  0
    9.8209    1.5660   -7.6526 C   0  0  0  0  0  0  0  0  0  0  0  0
    8.6753    0.7528   -7.5430 C   0  0  0  0  0  0  0  0  0  0  0  0
    8.0042    0.2161   -8.6512 C   0  0  0  0  0  0  0  0  0  0  0  0
 23 24  2  0  0  0
 24 27  1  0  0  0
 24 25  1  0  0  0
 27 28  2  0  0  0
 25 26  2  0  0  0
 25 29  1  0  0  0
 26 32  1  0  0  0
 28 29  1  0  0  0
 29 30  2  0  0  0
 32 22  1  0  0  0
 32 31  2  0  0  0
 22  1  1  0  0  0
 30 31  1  0  0  0
  1  2  2  0  0  0
  1  4  1  0  0  0
  2  3  1  0  0  0
  4  5  2  0  0  0
  3 10  1  0  0  0
  3  6  2  0  0  0
 17 12  1  0  0  0
 17 16  1  0  0  0
  5  6  1  0  0  0
  5 12  1  0  0  0
 10  9  1  0  0  0
  6  7  1  0  0  0
 12 13  1  0  0  0
 16 14  1  0  0  0
  9  7  2  0  0  0
  9 20  1  0  0  0
  7  8  1  0  0  0
 13 14  1  0  0  0
 14 15  1  0  0  0
 21 20  1  0  0  0
 15 18  1  0  0  0
 15 19  1  0  0  0
 10 11  1  0  0  0
M  END
> <minimizedAffinity>
-8.37612

$$$$
4HY1_19X_A_1401


 32 36  0  0  0  0  0  0  0  0999 V2000
    5.9038   -0.7568   -6.7288 C   0  0  0  0  0  0  0  0  0  0  0  0
    6.5417   -1.8896   -6.3707 N   0  0  0  0  0  0  0  0  0  0  0  0
    6.5879   -2.2816   -5.0980 C   0  0  0  0  0  0  0  0  0  0  0  0
    5.2193    0.0321   -5.8908 N   0  0  0  0  0  0  0  0  0  0  0  0
    5.1175   -0.2350   -4.5784 C   0  0  0  0  0  0  0  0  0  0  0  0
    5.8345   -1.4570   -4.1265 C   0  0  0  0  0  0  0  0  0  0  0  0
    6.1514   -2.2246   -2.9365 C   0  0  0  0  0  0  0  0  0  0  0  0
    5.7441   -1.7538   -1.2557 Cl  0  0  0  0  0  0  0  0  0  0  0  0
    7.0093   -3.3844   -3.1885 C   0  0  0  0  0  0  0  0  0  0  0  0
    7.2143   -3.3269   -4.5062 N   0  0  0  0  0  0  0  0  0  0  0  0
    7.7649   -3.9781   -4.9982 H   0  0  0  0  0  0  0  0  0  0  0  0
    4.2306    0.5302   -3.8607 N   0  0  0  0  0  0  0  0  0  0  0  0
    2.7873    0.2221   -3.7761 C   0  0  0  0  0  0  0  0  0  0  0  0
    2.1197    1.5974   -3.7914 C   0  0  0  0  0  0  0  0  0  0  0  0
    1.7262    2.0308   -5.1592 N   0  0  0  0  0  0  0  0  0  0  0  0
    3.2265    2.5298   -3.2975 C   0  0  0  0  0  0  0  0  0  0  0  0
    4.5935    1.8773   -3.4650 C   0  0  0  0  0  0  0  0  0  0  0  0
    2.5501    2.0487   -5.7603 H   0  0  0  0  0  0  0  0  0  0  0  0
    1.3168    2.9640   -5.1156 H   0  0  0  0  0  0  0  0  0  0  0  0
    7.4519   -4.4225   -2.1640 C   0  0  0  0  0  0  0  0  0  0  0  0
    8.9140   -4.2607   -1.7988 C   0  0  0  0  0  0  0  0  0  0  0  0
    6.0898   -0.3036   -8.3618 S   0  0  0  0  0  0  0  0  0  0  0  0
    9.5055    1.5343  -12.4640 O   0  0  0  0  0  0  0  0  0  0  0  0
    9.9468    1.7964  -11.2760 C   0  0  0  0  0  0  0  0  0  0  0  0
    9.1543    1.3743  -10.1127 C   0  0  0  0  0  0  0  0  0  0  0  0
    7.9745    0.6898   -9.9414 C   0  0  0  0  0  0  0  0  0  0  0  0
   11.1041    2.4484  -10.9588 N   0  0  0  0  0  0  0  0  0  0  0  0
   11.2153    2.5065   -9.4770 C   0  0  0  0  0  0  0  0  0  0  0  0
    9.9958    1.8453   -9.0098 C   0  0  0  0  0  0  0  0  0  0  0  0
    9.5859    1.6062   -7.7096 C   0  0  0  0  0  0  0  0  0  0  0  0
    8.3538    0.9437   -7.5401 C   0  0  0  0  0  0  0  0  0  0  0  0
    7.5816    0.4702   -8.6105 C   0  0  0  0  0  0  0  0  0  0  0  0
 23 24  2  0  0  0
 24 27  1  0  0  0
 24 25  1  0  0  0
 27 28  2  0  0  0
 25 26  2  0  0  0
 25 29  1  0  0  0
 26 32  1  0  0  0
 28 29  1  0  0  0
 29 30  2  0  0  0
 32 22  1  0  0  0
 32 31  2  0  0  0
 22  1  1  0  0  0
 30 31  1  0  0  0
  1  2  2  0  0  0
  1  4  1  0  0  0
  2  3  1  0  0  0
  4  5  2  0  0  0
  3 10  1  0  0  0
  3  6  2  0  0  0
 17 12  1  0  0  0
 17 16  1  0  0  0
  5  6  1  0  0  0
  5 12  1  0  0  0
 10  9  1  0  0  0
  6  7  1  0  0  0
 12 13  1  0  0  0
 16 14  1  0  0  0
  9  7  2  0  0  0
  9 20  1  0  0  0
  7  8  1  0  0  0
 13 14  1  0  0  0
 14 15  1  0  0  0
 21 20  1  0  0  0
 15 18  1  0  0  0
 15 19  1  0  0  0
 10 11  1  0  0  0
M  END
> <minimizedAffinity>
-8.01954

$$$$
4HY1_19X_A_1401


 32 36  0  0  0  0  0  0  0  0999 V2000
    9.9579    1.9708  -10.2476 C   0  0  0  0  0  0  0  0  0  0  0  0
   11.1731    2.4394   -9.8982 N   0  0  0  0  0  0  0  0  0  0  0  0
   11.4037    2.9114   -8.6736 C   0  0  0  0  0  0  0  0  0  0  0  0
    8.9104    1.8712   -9.4195 N   0  0  0  0  0  0  0  0  0  0  0  0
    8.9751    2.2547   -8.1338 C   0  0  0  0  0  0  0  0  0  0  0  0
   10.2862    2.8124   -7.7078 C   0  0  0  0  0  0  0  0  0  0  0  0
   10.9611    3.4110   -6.5711 C   0  0  0  0  0  0  0  0  0  0  0  0
   10.1922    3.8307   -5.0074 Cl  0  0  0  0  0  0  0  0  0  0  0  0
   12.3393    3.8222   -6.8474 C   0  0  0  0  0  0  0  0  0  0  0  0
   12.5039    3.4832   -8.1279 N   0  0  0  0  0  0  0  0  0  0  0  0
   13.3401    3.6335   -8.6253 H   0  0  0  0  0  0  0  0  0  0  0  0
    7.9070    1.9215   -7.3367 N   0  0  0  0  0  0  0  0  0  0  0  0
    7.3803    0.5443   -7.2321 C   0  0  0  0  0  0  0  0  0  0  0  0
    5.8675    0.7397   -7.1282 C   0  0  0  0  0  0  0  0  0  0  0  0
    5.1861    0.6686   -8.4488 N   0  0  0  0  0  0  0  0  0  0  0  0
    5.7341    2.1689   -6.6010 C   0  0  0  0  0  0  0  0  0  0  0  0
    7.0133    2.9572   -6.8556 C   0  0  0  0  0  0  0  0  0  0  0  0
    5.5760    1.3765   -9.0711 H   0  0  0  0  0  0  0  0  0  0  0  0
    4.1876    0.8369   -8.3257 H   0  0  0  0  0  0  0  0  0  0  0  0
   13.3274    4.4073   -5.8452 C   0  0  0  0  0  0  0  0  0  0  0  0
   14.3691    5.2726   -6.5260 C   0  0  0  0  0  0  0  0  0  0  0  0
    9.7795    1.5722  -11.8957 S   0  0  0  0  0  0  0  0  0  0  0  0
    6.4882   -2.2125   -9.3039 O   0  0  0  0  0  0  0  0  0  0  0  0
    6.0771   -1.9066  -10.4924 C   0  0  0  0  0  0  0  0  0  0  0  0
    6.8413   -0.9301  -11.2809 C   0  0  0  0  0  0  0  0  0  0  0  0
    7.9961   -0.2125  -11.0779 C   0  0  0  0  0  0  0  0  0  0  0  0
    4.9717   -2.3971  -11.1268 N   0  0  0  0  0  0  0  0  0  0  0  0
    4.8999   -1.7834  -12.4795 C   0  0  0  0  0  0  0  0  0  0  0  0
    6.0586   -0.8898  -12.5187 C   0  0  0  0  0  0  0  0  0  0  0  0
    6.4869   -0.0744  -13.5518 C   0  0  0  0  0  0  0  0  0  0  0  0
    7.6463    0.6926  -13.3213 C   0  0  0  0  0  0  0  0  0  0  0  0
    8.4000    0.6117  -12.1416 C   0  0  0  0  0  0  0  0  0  0  0  0
 23 24  2  0  0  0
 24 27  1  0  0  0
 24 25  1  0  0  0
 27 28  2  0  0  0
 25 26  2  0  0  0
 25 29  1  0  0  0
 26 32  1  0  0  0
 28 29  1  0  0  0
 29 30  2  0  0  0
 32 22  1  0  0  0
 32 31  2  0  0  0
 22  1  1  0  0  0
 30 31  1  0  0  0
  1  2  2  0  0  0
  1  4  1  0  0  0
  2  3  1  0  0  0
  4  5  2  0  0  0
  3 10  1  0  0  0
  3  6  2  0  0  0
 17 12  1  0  0  0
 17 16  1  0  0  0
  5  6  1  0  0  0
  5 12  1  0  0  0
 10  9  1  0  0  0
  6  7  1  0  0  0
 12 13  1  0  0  0
 16 14  1  0  0  0
  9  7  2  0  0  0
  9 20  1  0  0  0
  7  8  1  0  0  0
 13 14  1  0  0  0
 14 15  1  0  0  0
 21 20  1  0  0  0
 15 18  1  0  0  0
 15 19  1  0  0  0
 10 11  1  0  0  0
M  END
> <minimizedAffinity>
-7.95189

$$$$
4HY1_19X_A_1401


 32 36  0  0  0  0  0  0  0  0999 V2000
    6.1544    0.0253   -6.6214 C   0  0  0  0  0  0  0  0  0  0  0  0
    5.3667    1.0352   -6.1995 N   0  0  0  0  0  0  0  0  0  0  0  0
    4.6737    0.9410   -5.0653 C   0  0  0  0  0  0  0  0  0  0  0  0
    6.3700   -1.1096   -5.9442 N   0  0  0  0  0  0  0  0  0  0  0  0
    5.7916   -1.3559   -4.7571 C   0  0  0  0  0  0  0  0  0  0  0  0
    4.8842   -0.2859   -4.2641 C   0  0  0  0  0  0  0  0  0  0  0  0
    3.9789    0.0370   -3.1769 C   0  0  0  0  0  0  0  0  0  0  0  0
    3.5190   -1.0683   -1.8430 Cl  0  0  0  0  0  0  0  0  0  0  0  0
    3.3030    1.3271   -3.3298 C   0  0  0  0  0  0  0  0  0  0  0  0
    3.7841    1.7840   -4.4881 N   0  0  0  0  0  0  0  0  0  0  0  0
    3.5192    2.6461   -4.8829 H   0  0  0  0  0  0  0  0  0  0  0  0
    6.2410   -2.4569   -4.0692 N   0  0  0  0  0  0  0  0  0  0  0  0
    6.7794   -2.3817   -2.6945 C   0  0  0  0  0  0  0  0  0  0  0  0
    7.9203   -3.3995   -2.6940 C   0  0  0  0  0  0  0  0  0  0  0  0
    9.2382   -2.7867   -3.0120 N   0  0  0  0  0  0  0  0  0  0  0  0
    7.5475   -4.3444   -3.8370 C   0  0  0  0  0  0  0  0  0  0  0  0
    6.5593   -3.6766   -4.7858 C   0  0  0  0  0  0  0  0  0  0  0  0
    9.1909   -2.3329   -3.9243 H   0  0  0  0  0  0  0  0  0  0  0  0
    9.9550   -3.5121   -3.0297 H   0  0  0  0  0  0  0  0  0  0  0  0
    2.3576    1.9781   -2.3270 C   0  0  0  0  0  0  0  0  0  0  0  0
    2.7867    3.3920   -1.9892 C   0  0  0  0  0  0  0  0  0  0  0  0
    6.8288    0.2299   -8.1738 S   0  0  0  0  0  0  0  0  0  0  0  0
    9.5325    4.1901   -5.1939 O   0  0  0  0  0  0  0  0  0  0  0  0
   10.2581    3.6724   -6.1322 C   0  0  0  0  0  0  0  0  0  0  0  0
    9.6780    2.6263   -6.9858 C   0  0  0  0  0  0  0  0  0  0  0  0
    8.4481    2.0185   -7.0724 C   0  0  0  0  0  0  0  0  0  0  0  0
   11.5515    3.9892   -6.4348 N   0  0  0  0  0  0  0  0  0  0  0  0
   11.9751    3.1611   -7.5950 C   0  0  0  0  0  0  0  0  0  0  0  0
   10.7982    2.3408   -7.8859 C   0  0  0  0  0  0  0  0  0  0  0  0
   10.6286    1.3945   -8.8816 C   0  0  0  0  0  0  0  0  0  0  0  0
    9.3805    0.7427   -8.9372 C   0  0  0  0  0  0  0  0  0  0  0  0
    8.3101    1.0571   -8.0875 C   0  0  0  0  0  0  0  0  0  0  0  0
 23 24  2  0  0  0
 24 27  1  0  0  0
 24 25  1  0  0  0
 27 28  2  0  0  0
 25 26  2  0  0  0
 25 29  1  0  0  0
 26 32  1  0  0  0
 28 29  1  0  0  0
 29 30  2  0  0  0
 32 22  1  0  0  0
 32 31  2  0  0  0
 22  1  1  0  0  0
 30 31  1  0  0  0
  1  2  2  0  0  0
  1  4  1  0  0  0
  2  3  1  0  0  0
  4  5  2  0  0  0
  3 10  1  0  0  0
  3  6  2  0  0  0
 17 12  1  0  0  0
 17 16  1  0  0  0
  5  6  1  0  0  0
  5 12  1  0  0  0
 10  9  1  0  0  0
  6  7  1  0  0  0
 12 13  1  0  0  0
 16 14  1  0  0  0
  9  7  2  0  0  0
  9 20  1  0  0  0
  7  8  1  0  0  0
 13 14  1  0  0  0
 14 15  1  0  0  0
 21 20  1  0  0  0
 15 18  1  0  0  0
 15 19  1  0  0  0
 10 11  1  0  0  0
M  END
> <minimizedAffinity>
-7.90455

$$$$
4HY1_19X_A_1401


 32 36  0  0  0  0  0  0  0  0999 V2000
    7.0518   -0.3141   -7.6072 C   0  0  0  0  0  0  0  0  0  0  0  0
    8.0556    0.3263   -6.9742 N   0  0  0  0  0  0  0  0  0  0  0  0
    8.9800    1.0020   -7.6557 C   0  0  0  0  0  0  0  0  0  0  0  0
    6.8435   -0.2892   -8.9297 N   0  0  0  0  0  0  0  0  0  0  0  0
    7.6486    0.3831   -9.7688 C   0  0  0  0  0  0  0  0  0  0  0  0
    8.7931    1.0785   -9.1222 C   0  0  0  0  0  0  0  0  0  0  0  0
    9.9703    1.8712   -9.4248 C   0  0  0  0  0  0  0  0  0  0  0  0
   10.5726    2.2536  -11.0690 Cl  0  0  0  0  0  0  0  0  0  0  0  0
   10.7690    2.2217   -8.2484 C   0  0  0  0  0  0  0  0  0  0  0  0
   10.0948    1.6537   -7.2462 N   0  0  0  0  0  0  0  0  0  0  0  0
   10.3788    1.7034   -6.3049 H   0  0  0  0  0  0  0  0  0  0  0  0
    7.2234    0.4998  -11.0699 N   0  0  0  0  0  0  0  0  0  0  0  0
    5.8155    0.3054  -11.4764 C   0  0  0  0  0  0  0  0  0  0  0  0
    5.9208   -0.3984  -12.8295 C   0  0  0  0  0  0  0  0  0  0  0  0
    5.8655   -1.8806  -12.7129 N   0  0  0  0  0  0  0  0  0  0  0  0
    7.3175   -0.0120  -13.3177 C   0  0  0  0  0  0  0  0  0  0  0  0
    8.1865    0.4462  -12.1526 C   0  0  0  0  0  0  0  0  0  0  0  0
    6.6191   -2.2022  -12.1055 H   0  0  0  0  0  0  0  0  0  0  0  0
    5.9720   -2.2986  -13.6372 H   0  0  0  0  0  0  0  0  0  0  0  0
   12.0120    3.1037   -8.2284 C   0  0  0  0  0  0  0  0  0  0  0  0
   12.2324    3.7297   -6.8657 C   0  0  0  0  0  0  0  0  0  0  0  0
    6.0606   -1.2769   -6.6086 S   0  0  0  0  0  0  0  0  0  0  0  0
    3.2876   -0.9098   -1.7045 O   0  0  0  0  0  0  0  0  0  0  0  0
    3.0242    0.0645   -2.5146 C   0  0  0  0  0  0  0  0  0  0  0  0
    3.6797    0.0944   -3.8295 C   0  0  0  0  0  0  0  0  0  0  0  0
    4.5577   -0.7294   -4.4930 C   0  0  0  0  0  0  0  0  0  0  0  0
    2.1807    1.1137   -2.2851 N   0  0  0  0  0  0  0  0  0  0  0  0
    2.1711    1.9775   -3.4955 C   0  0  0  0  0  0  0  0  0  0  0  0
    3.1091    1.3157   -4.4035 C   0  0  0  0  0  0  0  0  0  0  0  0
    3.4762    1.6837   -5.6863 C   0  0  0  0  0  0  0  0  0  0  0  0
    4.4106    0.8596   -6.3444 C   0  0  0  0  0  0  0  0  0  0  0  0
    4.9171   -0.3244   -5.7893 C   0  0  0  0  0  0  0  0  0  0  0  0
 23 24  2  0  0  0
 24 27  1  0  0  0
 24 25  1  0  0  0
 27 28  2  0  0  0
 25 26  2  0  0  0
 25 29  1  0  0  0
 26 32  1  0  0  0
 28 29  1  0  0  0
 29 30  2  0  0  0
 32 22  1  0  0  0
 32 31  2  0  0  0
 22  1  1  0  0  0
 30 31  1  0  0  0
  1  2  2  0  0  0
  1  4  1  0  0  0
  2  3  1  0  0  0
  4  5  2  0  0  0
  3 10  1  0  0  0
  3  6  2  0  0  0
 17 12  1  0  0  0
 17 16  1  0  0  0
  5  6  1  0  0  0
  5 12  1  0  0  0
 10  9  1  0  0  0
  6  7  1  0  0  0
 12 13  1  0  0  0
 16 14  1  0  0  0
  9  7  2  0  0  0
  9 20  1  0  0  0
  7  8  1  0  0  0
 13 14  1  0  0  0
 14 15  1  0  0  0
 21 20  1  0  0  0
 15 18  1  0  0  0
 15 19  1  0  0  0
 10 11  1  0  0  0
M  END
> <minimizedAffinity>
-7.67658

$$$$
4HY1_19X_A_1401


 32 36  0  0  0  0  0  0  0  0999 V2000
    9.2512    1.1322  -11.5766 C   0  0  0  0  0  0  0  0  0  0  0  0
    8.9445    1.3168  -12.8767 N   0  0  0  0  0  0  0  0  0  0  0  0
    7.9072    0.6942  -13.4352 C   0  0  0  0  0  0  0  0  0  0  0  0
    8.5396    0.3860  -10.7223 N   0  0  0  0  0  0  0  0  0  0  0  0
    7.4336   -0.2763  -11.0998 C   0  0  0  0  0  0  0  0  0  0  0  0
    7.0723   -0.1330  -12.5351 C   0  0  0  0  0  0  0  0  0  0  0  0
    6.1133   -0.5863  -13.5255 C   0  0  0  0  0  0  0  0  0  0  0  0
    4.8371   -1.8147  -13.2518 Cl  0  0  0  0  0  0  0  0  0  0  0  0
    6.3655   -0.0749  -14.8744 C   0  0  0  0  0  0  0  0  0  0  0  0
    7.4577    0.6752  -14.7130 N   0  0  0  0  0  0  0  0  0  0  0  0
    7.8925    1.1650  -15.4481 H   0  0  0  0  0  0  0  0  0  0  0  0
    6.6818   -0.8416  -10.0984 N   0  0  0  0  0  0  0  0  0  0  0  0
    6.2535   -0.0963   -8.8958 C   0  0  0  0  0  0  0  0  0  0  0  0
    6.3528   -1.1289   -7.7727 C   0  0  0  0  0  0  0  0  0  0  0  0
    7.6620   -1.0876   -7.0672 N   0  0  0  0  0  0  0  0  0  0  0  0
    6.2542   -2.4630   -8.5136 C   0  0  0  0  0  0  0  0  0  0  0  0
    6.5920   -2.2847   -9.9890 C   0  0  0  0  0  0  0  0  0  0  0  0
    8.4146   -1.2444   -7.7376 H   0  0  0  0  0  0  0  0  0  0  0  0
    7.6862   -1.8149   -6.3525 H   0  0  0  0  0  0  0  0  0  0  0  0
    5.4989   -0.3064  -16.1067 C   0  0  0  0  0  0  0  0  0  0  0  0
    4.2897    0.6075  -16.1206 C   0  0  0  0  0  0  0  0  0  0  0  0
   10.7068    1.8566  -11.0636 S   0  0  0  0  0  0  0  0  0  0  0  0
   13.7661    4.1811   -6.9271 O   0  0  0  0  0  0  0  0  0  0  0  0
   12.5551    3.8975   -6.5695 C   0  0  0  0  0  0  0  0  0  0  0  0
   11.6471    3.2874   -7.5507 C   0  0  0  0  0  0  0  0  0  0  0  0
   11.7667    2.8790   -8.8579 C   0  0  0  0  0  0  0  0  0  0  0  0
   11.9938    4.1093   -5.3427 N   0  0  0  0  0  0  0  0  0  0  0  0
   10.5924    3.6135   -5.3793 C   0  0  0  0  0  0  0  0  0  0  0  0
   10.4292    3.1309   -6.7516 C   0  0  0  0  0  0  0  0  0  0  0  0
    9.3178    2.5501   -7.3374 C   0  0  0  0  0  0  0  0  0  0  0  0
    9.4322    2.1743   -8.6906 C   0  0  0  0  0  0  0  0  0  0  0  0
   10.6192    2.3011   -9.4264 C   0  0  0  0  0  0  0  0  0  0  0  0
 23 24  2  0  0  0
 24 27  1  0  0  0
 24 25  1  0  0  0
 27 28  2  0  0  0
 25 26  2  0  0  0
 25 29  1  0  0  0
 26 32  1  0  0  0
 28 29  1  0  0  0
 29 30  2  0  0  0
 32 22  1  0  0  0
 32 31  2  0  0  0
 22  1  1  0  0  0
 30 31  1  0  0  0
  1  2  2  0  0  0
  1  4  1  0  0  0
  2  3  1  0  0  0
  4  5  2  0  0  0
  3 10  1  0  0  0
  3  6  2  0  0  0
 17 12  1  0  0  0
 17 16  1  0  0  0
  5  6  1  0  0  0
  5 12  1  0  0  0
 10  9  1  0  0  0
  6  7  1  0  0  0
 12 13  1  0  0  0
 16 14  1  0  0  0
  9  7  2  0  0  0
  9 20  1  0  0  0
  7  8  1  0  0  0
 13 14  1  0  0  0
 14 15  1  0  0  0
 21 20  1  0  0  0
 15 18  1  0  0  0
 15 19  1  0  0  0
 10 11  1  0  0  0
M  END
> <minimizedAffinity>
-7.50059

$$$$
4HY1_19X_A_1401


 32 36  0  0  0  0  0  0  0  0999 V2000
    7.5261   -0.9049   -9.1358 C   0  0  0  0  0  0  0  0  0  0  0  0
    8.7331   -0.3578   -9.3853 N   0  0  0  0  0  0  0  0  0  0  0  0
    9.1684    0.6954   -8.6948 C   0  0  0  0  0  0  0  0  0  0  0  0
    6.6938   -0.5089   -8.1644 N   0  0  0  0  0  0  0  0  0  0  0  0
    6.9900    0.5080   -7.3383 C   0  0  0  0  0  0  0  0  0  0  0  0
    8.2973    1.1686   -7.5954 C   0  0  0  0  0  0  0  0  0  0  0  0
    9.1328    2.2674   -7.1477 C   0  0  0  0  0  0  0  0  0  0  0  0
    8.6740    3.4899   -5.9199 Cl  0  0  0  0  0  0  0  0  0  0  0  0
   10.3714    2.4223   -7.9135 C   0  0  0  0  0  0  0  0  0  0  0  0
   10.2947    1.4389   -8.8128 N   0  0  0  0  0  0  0  0  0  0  0  0
   10.9864    1.2709   -9.4928 H   0  0  0  0  0  0  0  0  0  0  0  0
    6.1551    0.6916   -6.2629 N   0  0  0  0  0  0  0  0  0  0  0  0
    5.5941   -0.4296   -5.4796 C   0  0  0  0  0  0  0  0  0  0  0  0
    4.1782    0.0363   -5.1393 C   0  0  0  0  0  0  0  0  0  0  0  0
    3.1664   -0.4303   -6.1252 N   0  0  0  0  0  0  0  0  0  0  0  0
    4.2758    1.5589   -5.2430 C   0  0  0  0  0  0  0  0  0  0  0  0
    5.4855    1.9643   -6.0766 C   0  0  0  0  0  0  0  0  0  0  0  0
    3.4179   -0.0949   -7.0550 H   0  0  0  0  0  0  0  0  0  0  0  0
    2.2488   -0.0660   -5.8689 H   0  0  0  0  0  0  0  0  0  0  0  0
   11.4841    3.4277   -7.6412 C   0  0  0  0  0  0  0  0  0  0  0  0
   12.2131    3.1196   -6.3486 C   0  0  0  0  0  0  0  0  0  0  0  0
    7.0441   -2.1274  -10.2220 S   0  0  0  0  0  0  0  0  0  0  0  0
    8.0336    1.0922  -14.7528 O   0  0  0  0  0  0  0  0  0  0  0  0
    6.8182    0.6515  -14.6948 C   0  0  0  0  0  0  0  0  0  0  0  0
    6.4232   -0.2017  -13.5654 C   0  0  0  0  0  0  0  0  0  0  0  0
    7.0568   -0.6745  -12.4408 C   0  0  0  0  0  0  0  0  0  0  0  0
    5.8186    0.8883  -15.5946 N   0  0  0  0  0  0  0  0  0  0  0  0
    4.5890    0.2018  -15.1168 C   0  0  0  0  0  0  0  0  0  0  0  0
    5.0150   -0.4556  -13.8803 C   0  0  0  0  0  0  0  0  0  0  0  0
    4.2662   -1.2277  -13.0093 C   0  0  0  0  0  0  0  0  0  0  0  0
    4.9327   -1.7466  -11.8814 C   0  0  0  0  0  0  0  0  0  0  0  0
    6.2724   -1.4616  -11.5811 C   0  0  0  0  0  0  0  0  0  0  0  0
 23 24  2  0  0  0
 24 27  1  0  0  0
 24 25  1  0  0  0
 27 28  2  0  0  0
 25 26  2  0  0  0
 25 29  1  0  0  0
 26 32  1  0  0  0
 28 29  1  0  0  0
 29 30  2  0  0  0
 32 22  1  0  0  0
 32 31  2  0  0  0
 22  1  1  0  0  0
 30 31  1  0  0  0
  1  2  2  0  0  0
  1  4  1  0  0  0
  2  3  1  0  0  0
  4  5  2  0  0  0
  3 10  1  0  0  0
  3  6  2  0  0  0
 17 12  1  0  0  0
 17 16  1  0  0  0
  5  6  1  0  0  0
  5 12  1  0  0  0
 10  9  1  0  0  0
  6  7  1  0  0  0
 12 13  1  0  0  0
 16 14  1  0  0  0
  9  7  2  0  0  0
  9 20  1  0  0  0
  7  8  1  0  0  0
 13 14  1  0  0  0
 14 15  1  0  0  0
 21 20  1  0  0  0
 15 18  1  0  0  0
 15 19  1  0  0  0
 10 11  1  0  0  0
M  END
> <minimizedAffinity>
-7.18910

$$$$
4HY1_19X_A_1401


 32 36  0  0  0  0  0  0  0  0999 V2000
    7.3833   -0.5703   -6.6864 C   0  0  0  0  0  0  0  0  0  0  0  0
    6.4411    0.3932   -6.6373 N   0  0  0  0  0  0  0  0  0  0  0  0
    5.3636    0.2646   -5.8640 C   0  0  0  0  0  0  0  0  0  0  0  0
    7.3742   -1.6862   -5.9462 N   0  0  0  0  0  0  0  0  0  0  0  0
    6.3890   -1.9595   -5.0751 C   0  0  0  0  0  0  0  0  0  0  0  0
    5.3059   -0.9426   -5.0092 C   0  0  0  0  0  0  0  0  0  0  0  0
    4.0301   -0.6679   -4.3747 C   0  0  0  0  0  0  0  0  0  0  0  0
    3.1410   -1.7906   -3.2970 Cl  0  0  0  0  0  0  0  0  0  0  0  0
    3.4022    0.5786   -4.8182 C   0  0  0  0  0  0  0  0  0  0  0  0
    4.2756    1.0564   -5.7073 N   0  0  0  0  0  0  0  0  0  0  0  0
    4.1426    1.8987   -6.1993 H   0  0  0  0  0  0  0  0  0  0  0  0
    6.5885   -3.0274   -4.2342 N   0  0  0  0  0  0  0  0  0  0  0  0
    7.1550   -2.8868   -2.8761 C   0  0  0  0  0  0  0  0  0  0  0  0
    8.0341   -4.1276   -2.7178 C   0  0  0  0  0  0  0  0  0  0  0  0
    9.4508   -3.8816   -3.0996 N   0  0  0  0  0  0  0  0  0  0  0  0
    7.4351   -5.1120   -3.7230 C   0  0  0  0  0  0  0  0  0  0  0  0
    6.6076   -4.3750   -4.7693 C   0  0  0  0  0  0  0  0  0  0  0  0
    9.4914   -3.5603   -4.0668 H   0  0  0  0  0  0  0  0  0  0  0  0
    9.9833   -4.7466   -3.0061 H   0  0  0  0  0  0  0  0  0  0  0  0
    2.1055    1.1779   -4.2865 C   0  0  0  0  0  0  0  0  0  0  0  0
    1.9953    2.6538   -4.6137 C   0  0  0  0  0  0  0  0  0  0  0  0
    8.6026   -0.3351   -7.8546 S   0  0  0  0  0  0  0  0  0  0  0  0
    9.7219    1.3634  -13.1211 O   0  0  0  0  0  0  0  0  0  0  0  0
    8.6023    0.7225  -13.0180 C   0  0  0  0  0  0  0  0  0  0  0  0
    8.1872    0.2214  -11.7004 C   0  0  0  0  0  0  0  0  0  0  0  0
    8.7116    0.2841  -10.4312 C   0  0  0  0  0  0  0  0  0  0  0  0
    7.7262    0.4391  -14.0266 N   0  0  0  0  0  0  0  0  0  0  0  0
    6.5698   -0.2946  -13.4472 C   0  0  0  0  0  0  0  0  0  0  0  0
    6.9056   -0.4089  -12.0271 C   0  0  0  0  0  0  0  0  0  0  0  0
    6.1717   -0.9931  -11.0094 C   0  0  0  0  0  0  0  0  0  0  0  0
    6.7353   -0.9651   -9.7182 C   0  0  0  0  0  0  0  0  0  0  0  0
    7.9473   -0.3250   -9.4219 C   0  0  0  0  0  0  0  0  0  0  0  0
 23 24  2  0  0  0
 24 27  1  0  0  0
 24 25  1  0  0  0
 27 28  2  0  0  0
 25 26  2  0  0  0
 25 29  1  0  0  0
 26 32  1  0  0  0
 28 29  1  0  0  0
 29 30  2  0  0  0
 32 22  1  0  0  0
 32 31  2  0  0  0
 22  1  1  0  0  0
 30 31  1  0  0  0
  1  2  2  0  0  0
  1  4  1  0  0  0
  2  3  1  0  0  0
  4  5  2  0  0  0
  3 10  1  0  0  0
  3  6  2  0  0  0
 17 12  1  0  0  0
 17 16  1  0  0  0
  5  6  1  0  0  0
  5 12  1  0  0  0
 10  9  1  0  0  0
  6  7  1  0  0  0
 12 13  1  0  0  0
 16 14  1  0  0  0
  9  7  2  0  0  0
  9 20  1  0  0  0
  7  8  1  0  0  0
 13 14  1  0  0  0
 14 15  1  0  0  0
 21 20  1  0  0  0
 15 18  1  0  0  0
 15 19  1  0  0  0
 10 11  1  0  0  0
M  END
> <minimizedAffinity>
-6.97647

$$$$
