4Q4R_SQO_A_405


 26 29  0  0  0  0  0  0  0  0999 V2000
  106.5580   17.6932   24.4019 N   0  0  0  0  0  0  0  0  0  0  0  0
  105.0839   17.2773   22.5977 N   0  0  0  0  0  0  0  0  0  0  0  0
  106.1296   17.5600   21.7214 C   0  0  0  0  0  0  0  0  0  0  0  0
  107.4157   17.8927   22.1796 C   0  0  0  0  0  0  0  0  0  0  0  0
  107.6507   17.9791   23.6231 C   0  0  0  0  0  0  0  0  0  0  0  0
  108.4249   18.1816   21.2669 C   0  0  0  0  0  0  0  0  0  0  0  0
  108.1518   18.1852   19.9156 C   0  0  0  0  0  0  0  0  0  0  0  0
  105.8602   17.5568   20.3454 C   0  0  0  0  0  0  0  0  0  0  0  0
  108.8994   18.5011   18.7984 N   0  0  0  0  0  0  0  0  0  0  0  0
  108.0659   18.4131   17.7389 C   0  0  0  0  0  0  0  0  0  0  0  0
  105.3310   17.3523   23.9038 C   0  0  0  0  0  0  0  0  0  0  0  0
  106.8735   17.8908   19.4425 C   0  0  0  0  0  0  0  0  0  0  0  0
  106.8358   18.0477   18.0572 N   0  0  0  0  0  0  0  0  0  0  0  0
  108.7175   18.3214   24.1230 O   0  0  0  0  0  0  0  0  0  0  0  0
  106.6639   17.7361   25.3798 H   0  0  0  0  0  0  0  0  0  0  0  0
  109.8534   18.7433   18.7779 H   0  0  0  0  0  0  0  0  0  0  0  0
  108.5036   18.6872   16.5048 N   0  0  0  0  0  0  0  0  0  0  0  0
  109.3596   18.3018   16.2079 H   0  0  0  0  0  0  0  0  0  0  0  0
  107.7596   19.5344   15.5864 C   0  0  0  0  0  0  0  0  0  0  0  0
  107.1801   18.7482   14.4422 C   0  0  0  0  0  0  0  0  0  0  0  0
  105.9961   17.9919   14.8610 N   0  0  0  0  0  0  0  0  0  0  0  0
  105.5623   17.0533   13.8261 C   0  0  0  0  0  0  0  0  0  0  0  0
  104.3574   16.2845   14.2999 C   0  0  0  0  0  0  0  0  0  0  0  0
  103.2793   17.1538   14.6288 O   0  0  0  0  0  0  0  0  0  0  0  0
  103.6883   18.0754   15.6366 C   0  0  0  0  0  0  0  0  0  0  0  0
  104.8825   18.8835   15.1963 C   0  0  0  0  0  0  0  0  0  0  0  0
  1  5  1  0  0  0
  1 11  1  0  0  0
  2  3  1  0  0  0
  2 11  2  0  0  0
  3  4  2  0  0  0
  3  8  1  0  0  0
  4  5  1  0  0  0
  4  6  1  0  0  0
  5 14  2  0  0  0
  6  7  2  0  0  0
  7  9  1  0  0  0
  7 12  1  0  0  0
  8 12  2  0  0  0
  9 10  1  0  0  0
 10 13  2  0  0  0
 10 17  1  0  0  0
 12 13  1  0  0  0
 17 19  1  0  0  0
 19 20  1  0  0  0
 20 21  1  0  0  0
 21 22  1  0  0  0
 21 26  1  0  0  0
 22 23  1  0  0  0
 23 24  1  0  0  0
 24 25  1  0  0  0
 25 26  1  0  0  0
  1 15  1  0  0  0
  9 16  1  0  0  0
 17 18  1  0  0  0
M  END
> <minimizedAffinity>
-9.00236

$$$$
4Q4R_SQO_A_405


 26 29  0  0  0  0  0  0  0  0999 V2000
  106.5773   17.7419   24.3258 N   0  0  0  0  0  0  0  0  0  0  0  0
  105.0881   17.3127   22.5372 N   0  0  0  0  0  0  0  0  0  0  0  0
  106.1302   17.5751   21.6503 C   0  0  0  0  0  0  0  0  0  0  0  0
  107.4218   17.9041   22.0955 C   0  0  0  0  0  0  0  0  0  0  0  0
  107.6669   18.0085   23.5361 C   0  0  0  0  0  0  0  0  0  0  0  0
  108.4271   18.1725   21.1723 C   0  0  0  0  0  0  0  0  0  0  0  0
  108.1452   18.1597   19.8229 C   0  0  0  0  0  0  0  0  0  0  0  0
  105.8516   17.5551   20.2762 C   0  0  0  0  0  0  0  0  0  0  0  0
  108.8877   18.4544   18.6966 N   0  0  0  0  0  0  0  0  0  0  0  0
  108.0466   18.3582   17.6439 C   0  0  0  0  0  0  0  0  0  0  0  0
  105.3444   17.4037   23.8405 C   0  0  0  0  0  0  0  0  0  0  0  0
  106.8615   17.8688   19.3622 C   0  0  0  0  0  0  0  0  0  0  0  0
  106.8159   18.0068   17.9752 N   0  0  0  0  0  0  0  0  0  0  0  0
  108.7396   18.3494   24.0242 O   0  0  0  0  0  0  0  0  0  0  0  0
  106.6899   17.7974   25.3023 H   0  0  0  0  0  0  0  0  0  0  0  0
  109.8435   18.6888   18.6666 H   0  0  0  0  0  0  0  0  0  0  0  0
  108.4783   18.6119   16.4033 N   0  0  0  0  0  0  0  0  0  0  0  0
  109.3266   18.2115   16.1044 H   0  0  0  0  0  0  0  0  0  0  0  0
  107.7386   19.4583   15.4807 C   0  0  0  0  0  0  0  0  0  0  0  0
  106.9450   18.6499   14.4909 C   0  0  0  0  0  0  0  0  0  0  0  0
  107.1846   19.1044   13.1178 N   0  0  0  0  0  0  0  0  0  0  0  0
  106.6070   20.4271   12.8795 C   0  0  0  0  0  0  0  0  0  0  0  0
  106.8890   20.8657   11.4668 C   0  0  0  0  0  0  0  0  0  0  0  0
  106.3619   19.9441   10.5187 O   0  0  0  0  0  0  0  0  0  0  0  0
  106.9160   18.6493   10.7398 C   0  0  0  0  0  0  0  0  0  0  0  0
  106.6394   18.1600   12.1388 C   0  0  0  0  0  0  0  0  0  0  0  0
  1  5  1  0  0  0
  1 11  1  0  0  0
  2  3  1  0  0  0
  2 11  2  0  0  0
  3  4  2  0  0  0
  3  8  1  0  0  0
  4  5  1  0  0  0
  4  6  1  0  0  0
  5 14  2  0  0  0
  6  7  2  0  0  0
  7  9  1  0  0  0
  7 12  1  0  0  0
  8 12  2  0  0  0
  9 10  1  0  0  0
 10 13  2  0  0  0
 10 17  1  0  0  0
 12 13  1  0  0  0
 17 19  1  0  0  0
 19 20  1  0  0  0
 20 21  1  0  0  0
 21 22  1  0  0  0
 21 26  1  0  0  0
 22 23  1  0  0  0
 23 24  1  0  0  0
 24 25  1  0  0  0
 25 26  1  0  0  0
  1 15  1  0  0  0
  9 16  1  0  0  0
 17 18  1  0  0  0
M  END
> <minimizedAffinity>
-8.84565

$$$$
4Q4R_SQO_A_405


 26 29  0  0  0  0  0  0  0  0999 V2000
  106.8389   17.8335   24.3961 N   0  0  0  0  0  0  0  0  0  0  0  0
  108.0983   18.0982   22.4099 N   0  0  0  0  0  0  0  0  0  0  0  0
  106.9623   17.7492   21.6824 C   0  0  0  0  0  0  0  0  0  0  0  0
  105.7379   17.4586   22.3077 C   0  0  0  0  0  0  0  0  0  0  0  0
  105.6673   17.4894   23.7707 C   0  0  0  0  0  0  0  0  0  0  0  0
  104.6343   17.1004   21.5405 C   0  0  0  0  0  0  0  0  0  0  0  0
  104.7537   16.9872   20.1718 C   0  0  0  0  0  0  0  0  0  0  0  0
  107.0754   17.6408   20.2890 C   0  0  0  0  0  0  0  0  0  0  0  0
  103.8871   16.5847   19.1748 N   0  0  0  0  0  0  0  0  0  0  0  0
  104.5956   16.5846   18.0246 C   0  0  0  0  0  0  0  0  0  0  0  0
  108.0000   18.1293   23.7373 C   0  0  0  0  0  0  0  0  0  0  0  0
  105.9690   17.2384   19.5356 C   0  0  0  0  0  0  0  0  0  0  0  0
  105.8515   16.9705   18.1721 N   0  0  0  0  0  0  0  0  0  0  0  0
  104.6655   17.1917   24.4133 O   0  0  0  0  0  0  0  0  0  0  0  0
  106.8439   17.8697   25.3799 H   0  0  0  0  0  0  0  0  0  0  0  0
  102.9383   16.3448   19.2814 H   0  0  0  0  0  0  0  0  0  0  0  0
  104.0235   16.2135   16.8736 N   0  0  0  0  0  0  0  0  0  0  0  0
  103.6804   15.2946   16.7884 H   0  0  0  0  0  0  0  0  0  0  0  0
  103.8906   17.1196   15.7440 C   0  0  0  0  0  0  0  0  0  0  0  0
  104.7117   16.6716   14.5657 C   0  0  0  0  0  0  0  0  0  0  0  0
  105.4654   17.7877   13.9863 N   0  0  0  0  0  0  0  0  0  0  0  0
  106.1828   17.3834   12.7772 C   0  0  0  0  0  0  0  0  0  0  0  0
  106.9286   18.5588   12.2031 C   0  0  0  0  0  0  0  0  0  0  0  0
  107.8533   19.0992   13.1406 O   0  0  0  0  0  0  0  0  0  0  0  0
  107.1674   19.4971   14.3255 C   0  0  0  0  0  0  0  0  0  0  0  0
  106.4216   18.3439   14.9474 C   0  0  0  0  0  0  0  0  0  0  0  0
  1  5  1  0  0  0
  1 11  1  0  0  0
  2  3  1  0  0  0
  2 11  2  0  0  0
  3  4  2  0  0  0
  3  8  1  0  0  0
  4  5  1  0  0  0
  4  6  1  0  0  0
  5 14  2  0  0  0
  6  7  2  0  0  0
  7  9  1  0  0  0
  7 12  1  0  0  0
  8 12  2  0  0  0
  9 10  1  0  0  0
 10 13  2  0  0  0
 10 17  1  0  0  0
 12 13  1  0  0  0
 17 19  1  0  0  0
 19 20  1  0  0  0
 20 21  1  0  0  0
 21 22  1  0  0  0
 21 26  1  0  0  0
 22 23  1  0  0  0
 23 24  1  0  0  0
 24 25  1  0  0  0
 25 26  1  0  0  0
  1 15  1  0  0  0
  9 16  1  0  0  0
 17 18  1  0  0  0
M  END
> <minimizedAffinity>
-8.09347

$$$$
4Q4R_SQO_A_405


 26 29  0  0  0  0  0  0  0  0999 V2000
  105.3636   17.6401   24.4723 N   0  0  0  0  0  0  0  0  0  0  0  0
  106.5737   17.7749   22.4429 N   0  0  0  0  0  0  0  0  0  0  0  0
  105.4338   17.3361   21.7725 C   0  0  0  0  0  0  0  0  0  0  0  0
  104.2315   17.0644   22.4473 C   0  0  0  0  0  0  0  0  0  0  0  0
  104.1900   17.2136   23.9041 C   0  0  0  0  0  0  0  0  0  0  0  0
  103.1232   16.6140   21.7374 C   0  0  0  0  0  0  0  0  0  0  0  0
  103.2178   16.3918   20.3801 C   0  0  0  0  0  0  0  0  0  0  0  0
  105.5213   17.1165   20.3904 C   0  0  0  0  0  0  0  0  0  0  0  0
  102.3431   15.8850   19.4394 N   0  0  0  0  0  0  0  0  0  0  0  0
  103.0275   15.8096   18.2772 C   0  0  0  0  0  0  0  0  0  0  0  0
  106.5019   17.9125   23.7651 C   0  0  0  0  0  0  0  0  0  0  0  0
  104.4119   16.6232   19.6979 C   0  0  0  0  0  0  0  0  0  0  0  0
  104.2743   16.2408   18.3639 N   0  0  0  0  0  0  0  0  0  0  0  0
  103.2108   16.9425   24.5916 O   0  0  0  0  0  0  0  0  0  0  0  0
  105.3878   17.7574   25.4495 H   0  0  0  0  0  0  0  0  0  0  0  0
  101.4041   15.6286   19.5869 H   0  0  0  0  0  0  0  0  0  0  0  0
  102.4430   15.3294   17.1738 N   0  0  0  0  0  0  0  0  0  0  0  0
  102.2933   14.3591   17.0995 H   0  0  0  0  0  0  0  0  0  0  0  0
  102.0210   16.1901   16.0803 C   0  0  0  0  0  0  0  0  0  0  0  0
  103.1205   16.4003   15.0752 C   0  0  0  0  0  0  0  0  0  0  0  0
  103.3130   17.8246   14.7861 N   0  0  0  0  0  0  0  0  0  0  0  0
  104.4877   18.3602   15.4740 C   0  0  0  0  0  0  0  0  0  0  0  0
  104.6615   19.8178   15.1384 C   0  0  0  0  0  0  0  0  0  0  0  0
  103.5149   20.5781   15.5035 O   0  0  0  0  0  0  0  0  0  0  0  0
  102.3612   20.0664   14.8405 C   0  0  0  0  0  0  0  0  0  0  0  0
  102.1360   18.6113   15.1647 C   0  0  0  0  0  0  0  0  0  0  0  0
  1  5  1  0  0  0
  1 11  1  0  0  0
  2  3  1  0  0  0
  2 11  2  0  0  0
  3  4  2  0  0  0
  3  8  1  0  0  0
  4  5  1  0  0  0
  4  6  1  0  0  0
  5 14  2  0  0  0
  6  7  2  0  0  0
  7  9  1  0  0  0
  7 12  1  0  0  0
  8 12  2  0  0  0
  9 10  1  0  0  0
 10 13  2  0  0  0
 10 17  1  0  0  0
 12 13  1  0  0  0
 17 19  1  0  0  0
 19 20  1  0  0  0
 20 21  1  0  0  0
 21 22  1  0  0  0
 21 26  1  0  0  0
 22 23  1  0  0  0
 23 24  1  0  0  0
 24 25  1  0  0  0
 25 26  1  0  0  0
  1 15  1  0  0  0
  9 16  1  0  0  0
 17 18  1  0  0  0
M  END
> <minimizedAffinity>
-7.91603

$$$$
4Q4R_SQO_A_405


 26 29  0  0  0  0  0  0  0  0999 V2000
  107.6205   18.3103   22.1523 N   0  0  0  0  0  0  0  0  0  0  0  0
  105.4267   17.5975   22.6816 N   0  0  0  0  0  0  0  0  0  0  0  0
  105.2636   17.2205   21.3501 C   0  0  0  0  0  0  0  0  0  0  0  0
  106.2926   17.3648   20.4040 C   0  0  0  0  0  0  0  0  0  0  0  0
  107.5612   17.9634   20.8263 C   0  0  0  0  0  0  0  0  0  0  0  0
  106.0783   16.9880   19.0823 C   0  0  0  0  0  0  0  0  0  0  0  0
  104.8435   16.5155   18.6917 C   0  0  0  0  0  0  0  0  0  0  0  0
  104.0125   16.7311   20.9487 C   0  0  0  0  0  0  0  0  0  0  0  0
  104.3121   16.1475   17.4714 N   0  0  0  0  0  0  0  0  0  0  0  0
  103.0108   15.8576   17.6889 C   0  0  0  0  0  0  0  0  0  0  0  0
  106.5949   18.1274   23.0380 C   0  0  0  0  0  0  0  0  0  0  0  0
  103.7994   16.3968   19.6083 C   0  0  0  0  0  0  0  0  0  0  0  0
  102.6403   15.9841   18.9517 N   0  0  0  0  0  0  0  0  0  0  0  0
  108.4971   18.1898   20.0660 O   0  0  0  0  0  0  0  0  0  0  0  0
  108.4529   18.7160   22.4868 H   0  0  0  0  0  0  0  0  0  0  0  0
  104.7886   16.1048   16.6109 H   0  0  0  0  0  0  0  0  0  0  0  0
  102.2187   15.4858   16.6770 N   0  0  0  0  0  0  0  0  0  0  0  0
  101.7363   14.6300   16.7411 H   0  0  0  0  0  0  0  0  0  0  0  0
  102.0451   16.3013   15.4855 C   0  0  0  0  0  0  0  0  0  0  0  0
  101.2606   17.5527   15.7716 C   0  0  0  0  0  0  0  0  0  0  0  0
  101.9203   18.7353   15.2097 N   0  0  0  0  0  0  0  0  0  0  0  0
  103.1711   18.3857   14.5364 C   0  0  0  0  0  0  0  0  0  0  0  0
  103.8082   19.6216   13.9584 C   0  0  0  0  0  0  0  0  0  0  0  0
  104.0710   20.5931   14.9650 O   0  0  0  0  0  0  0  0  0  0  0  0
  102.8599   20.9430   15.6307 C   0  0  0  0  0  0  0  0  0  0  0  0
  102.1964   19.7361   16.2439 C   0  0  0  0  0  0  0  0  0  0  0  0
  1  5  1  0  0  0
  1 11  1  0  0  0
  2  3  1  0  0  0
  2 11  2  0  0  0
  3  4  2  0  0  0
  3  8  1  0  0  0
  4  5  1  0  0  0
  4  6  1  0  0  0
  5 14  2  0  0  0
  6  7  2  0  0  0
  7  9  1  0  0  0
  7 12  1  0  0  0
  8 12  2  0  0  0
  9 10  1  0  0  0
 10 13  2  0  0  0
 10 17  1  0  0  0
 12 13  1  0  0  0
 17 19  1  0  0  0
 19 20  1  0  0  0
 20 21  1  0  0  0
 21 22  1  0  0  0
 21 26  1  0  0  0
 22 23  1  0  0  0
 23 24  1  0  0  0
 24 25  1  0  0  0
 25 26  1  0  0  0
  1 15  1  0  0  0
  9 16  1  0  0  0
 17 18  1  0  0  0
M  END
> <minimizedAffinity>
-7.78819

$$$$
4Q4R_SQO_A_405


 26 29  0  0  0  0  0  0  0  0999 V2000
  108.4388   18.1940   22.9726 N   0  0  0  0  0  0  0  0  0  0  0  0
  106.3005   17.6162   23.8063 N   0  0  0  0  0  0  0  0  0  0  0  0
  105.8704   17.4463   22.4919 C   0  0  0  0  0  0  0  0  0  0  0  0
  106.7324   17.6281   21.3971 C   0  0  0  0  0  0  0  0  0  0  0  0
  108.1146   18.0437   21.6480 C   0  0  0  0  0  0  0  0  0  0  0  0
  106.2540   17.4617   20.1016 C   0  0  0  0  0  0  0  0  0  0  0  0
  104.9248   17.1629   19.8907 C   0  0  0  0  0  0  0  0  0  0  0  0
  104.5215   17.1339   22.2714 C   0  0  0  0  0  0  0  0  0  0  0  0
  104.1543   17.0198   18.7537 N   0  0  0  0  0  0  0  0  0  0  0  0
  102.8847   16.8216   19.1704 C   0  0  0  0  0  0  0  0  0  0  0  0
  107.5653   17.9825   24.0031 C   0  0  0  0  0  0  0  0  0  0  0  0
  104.0458   17.0120   20.9627 C   0  0  0  0  0  0  0  0  0  0  0  0
  102.7522   16.8025   20.4857 N   0  0  0  0  0  0  0  0  0  0  0  0
  108.9266   18.2887   20.7615 O   0  0  0  0  0  0  0  0  0  0  0  0
  109.3569   18.4714   23.1948 H   0  0  0  0  0  0  0  0  0  0  0  0
  104.4688   17.0552   17.8215 H   0  0  0  0  0  0  0  0  0  0  0  0
  101.8941   16.6691   18.2842 N   0  0  0  0  0  0  0  0  0  0  0  0
  101.3421   15.8549   18.3244 H   0  0  0  0  0  0  0  0  0  0  0  0
  101.6041   17.6637   17.2638 C   0  0  0  0  0  0  0  0  0  0  0  0
  101.9447   17.1685   15.8847 C   0  0  0  0  0  0  0  0  0  0  0  0
  103.3908   17.2064   15.6469 N   0  0  0  0  0  0  0  0  0  0  0  0
  103.8774   18.5784   15.5020 C   0  0  0  0  0  0  0  0  0  0  0  0
  105.3663   18.5762   15.2775 C   0  0  0  0  0  0  0  0  0  0  0  0
  105.7189   17.8269   14.1198 O   0  0  0  0  0  0  0  0  0  0  0  0
  105.2499   16.4866   14.2469 C   0  0  0  0  0  0  0  0  0  0  0  0
  103.7572   16.4394   14.4531 C   0  0  0  0  0  0  0  0  0  0  0  0
  1  5  1  0  0  0
  1 11  1  0  0  0
  2  3  1  0  0  0
  2 11  2  0  0  0
  3  4  2  0  0  0
  3  8  1  0  0  0
  4  5  1  0  0  0
  4  6  1  0  0  0
  5 14  2  0  0  0
  6  7  2  0  0  0
  7  9  1  0  0  0
  7 12  1  0  0  0
  8 12  2  0  0  0
  9 10  1  0  0  0
 10 13  2  0  0  0
 10 17  1  0  0  0
 12 13  1  0  0  0
 17 19  1  0  0  0
 19 20  1  0  0  0
 20 21  1  0  0  0
 21 22  1  0  0  0
 21 26  1  0  0  0
 22 23  1  0  0  0
 23 24  1  0  0  0
 24 25  1  0  0  0
 25 26  1  0  0  0
  1 15  1  0  0  0
  9 16  1  0  0  0
 17 18  1  0  0  0
M  END
> <minimizedAffinity>
-7.74870

$$$$
4Q4R_SQO_A_405


 26 29  0  0  0  0  0  0  0  0999 V2000
  107.3037   18.1455   22.6610 N   0  0  0  0  0  0  0  0  0  0  0  0
  105.0464   17.5099   22.9794 N   0  0  0  0  0  0  0  0  0  0  0  0
  104.9847   17.1749   21.6283 C   0  0  0  0  0  0  0  0  0  0  0  0
  106.0965   17.3015   20.7783 C   0  0  0  0  0  0  0  0  0  0  0  0
  107.3461   17.8362   21.3250 C   0  0  0  0  0  0  0  0  0  0  0  0
  105.9831   16.9686   19.4325 C   0  0  0  0  0  0  0  0  0  0  0  0
  104.7694   16.5576   18.9240 C   0  0  0  0  0  0  0  0  0  0  0  0
  103.7550   16.7480   21.1071 C   0  0  0  0  0  0  0  0  0  0  0  0
  104.3318   16.2438   17.6524 N   0  0  0  0  0  0  0  0  0  0  0  0
  103.0063   16.0020   17.7492 C   0  0  0  0  0  0  0  0  0  0  0  0
  106.1989   17.9818   23.4499 C   0  0  0  0  0  0  0  0  0  0  0  0
  103.6460   16.4580   19.7441 C   0  0  0  0  0  0  0  0  0  0  0  0
  102.5331   16.1105   18.9789 N   0  0  0  0  0  0  0  0  0  0  0  0
  108.3523   18.0438   20.6545 O   0  0  0  0  0  0  0  0  0  0  0  0
  108.1190   18.5077   23.0773 H   0  0  0  0  0  0  0  0  0  0  0  0
  104.8790   16.2041   16.8349 H   0  0  0  0  0  0  0  0  0  0  0  0
  102.2910   15.6897   16.6627 N   0  0  0  0  0  0  0  0  0  0  0  0
  101.4325   15.2216   16.7776 H   0  0  0  0  0  0  0  0  0  0  0  0
  102.7368   16.0173   15.3178 C   0  0  0  0  0  0  0  0  0  0  0  0
  102.6905   17.4981   15.0565 C   0  0  0  0  0  0  0  0  0  0  0  0
  103.9035   17.9567   14.3726 N   0  0  0  0  0  0  0  0  0  0  0  0
  104.7707   16.8374   14.0050 C   0  0  0  0  0  0  0  0  0  0  0  0
  105.9946   17.3466   13.2906 C   0  0  0  0  0  0  0  0  0  0  0  0
  106.7260   18.2639   14.0966 O   0  0  0  0  0  0  0  0  0  0  0  0
  105.8922   19.3606   14.4633 C   0  0  0  0  0  0  0  0  0  0  0  0
  104.6615   18.8981   15.2012 C   0  0  0  0  0  0  0  0  0  0  0  0
  1  5  1  0  0  0
  1 11  1  0  0  0
  2  3  1  0  0  0
  2 11  2  0  0  0
  3  4  2  0  0  0
  3  8  1  0  0  0
  4  5  1  0  0  0
  4  6  1  0  0  0
  5 14  2  0  0  0
  6  7  2  0  0  0
  7  9  1  0  0  0
  7 12  1  0  0  0
  8 12  2  0  0  0
  9 10  1  0  0  0
 10 13  2  0  0  0
 10 17  1  0  0  0
 12 13  1  0  0  0
 17 19  1  0  0  0
 19 20  1  0  0  0
 20 21  1  0  0  0
 21 22  1  0  0  0
 21 26  1  0  0  0
 22 23  1  0  0  0
 23 24  1  0  0  0
 24 25  1  0  0  0
 25 26  1  0  0  0
  1 15  1  0  0  0
  9 16  1  0  0  0
 17 18  1  0  0  0
M  END
> <minimizedAffinity>
-7.73005

$$$$
4Q4R_SQO_A_405


 26 29  0  0  0  0  0  0  0  0999 V2000
  108.3439   17.8414   22.5629 N   0  0  0  0  0  0  0  0  0  0  0  0
  106.2307   17.2893   21.6513 N   0  0  0  0  0  0  0  0  0  0  0  0
  106.7197   17.6359   20.3934 C   0  0  0  0  0  0  0  0  0  0  0  0
  108.0424   18.0706   20.2027 C   0  0  0  0  0  0  0  0  0  0  0  0
  108.9196   18.1962   21.3692 C   0  0  0  0  0  0  0  0  0  0  0  0
  108.4816   18.4202   18.9299 C   0  0  0  0  0  0  0  0  0  0  0  0
  107.6074   18.3829   17.8646 C   0  0  0  0  0  0  0  0  0  0  0  0
  105.8376   17.5918   19.3045 C   0  0  0  0  0  0  0  0  0  0  0  0
  107.7186   18.7369   16.5345 N   0  0  0  0  0  0  0  0  0  0  0  0
  106.4946   18.5708   15.9875 C   0  0  0  0  0  0  0  0  0  0  0  0
  107.0552   17.4024   22.6905 C   0  0  0  0  0  0  0  0  0  0  0  0
  106.2818   17.9868   18.0394 C   0  0  0  0  0  0  0  0  0  0  0  0
  105.5878   18.1194   16.8371 N   0  0  0  0  0  0  0  0  0  0  0  0
  110.0681   18.6248   21.3182 O   0  0  0  0  0  0  0  0  0  0  0  0
  108.8924   17.9069   23.3778 H   0  0  0  0  0  0  0  0  0  0  0  0
  108.5311   19.0492   16.0746 H   0  0  0  0  0  0  0  0  0  0  0  0
  106.2813   18.8580   14.6984 N   0  0  0  0  0  0  0  0  0  0  0  0
  106.9190   19.4443   14.2306 H   0  0  0  0  0  0  0  0  0  0  0  0
  105.1404   18.3348   13.9639 C   0  0  0  0  0  0  0  0  0  0  0  0
  103.8847   19.1123   14.2496 C   0  0  0  0  0  0  0  0  0  0  0  0
  102.8235   18.2407   14.7630 N   0  0  0  0  0  0  0  0  0  0  0  0
  102.3280   18.7014   16.0600 C   0  0  0  0  0  0  0  0  0  0  0  0
  101.2294   17.7926   16.5444 C   0  0  0  0  0  0  0  0  0  0  0  0
  101.6788   16.4472   16.6631 O   0  0  0  0  0  0  0  0  0  0  0  0
  102.1658   15.9848   15.4055 C   0  0  0  0  0  0  0  0  0  0  0  0
  103.2839   16.8553   14.8906 C   0  0  0  0  0  0  0  0  0  0  0  0
  1  5  1  0  0  0
  1 11  1  0  0  0
  2  3  1  0  0  0
  2 11  2  0  0  0
  3  4  2  0  0  0
  3  8  1  0  0  0
  4  5  1  0  0  0
  4  6  1  0  0  0
  5 14  2  0  0  0
  6  7  2  0  0  0
  7  9  1  0  0  0
  7 12  1  0  0  0
  8 12  2  0  0  0
  9 10  1  0  0  0
 10 13  2  0  0  0
 10 17  1  0  0  0
 12 13  1  0  0  0
 17 19  1  0  0  0
 19 20  1  0  0  0
 20 21  1  0  0  0
 21 22  1  0  0  0
 21 26  1  0  0  0
 22 23  1  0  0  0
 23 24  1  0  0  0
 24 25  1  0  0  0
 25 26  1  0  0  0
  1 15  1  0  0  0
  9 16  1  0  0  0
 17 18  1  0  0  0
M  END
> <minimizedAffinity>
-7.37969

$$$$
4Q4R_SQO_A_405


 26 29  0  0  0  0  0  0  0  0999 V2000
  104.9913   17.0814   21.3948 N   0  0  0  0  0  0  0  0  0  0  0  0
  103.9724   17.0516   19.2589 N   0  0  0  0  0  0  0  0  0  0  0  0
  105.1900   17.4472   18.7090 C   0  0  0  0  0  0  0  0  0  0  0  0
  106.3351   17.6437   19.4995 C   0  0  0  0  0  0  0  0  0  0  0  0
  106.2322   17.4609   20.9494 C   0  0  0  0  0  0  0  0  0  0  0  0
  107.5254   18.0534   18.9077 C   0  0  0  0  0  0  0  0  0  0  0  0
  107.5697   18.3096   17.5538 C   0  0  0  0  0  0  0  0  0  0  0  0
  105.2435   17.7010   17.3311 C   0  0  0  0  0  0  0  0  0  0  0  0
  108.5522   18.7924   16.7121 N   0  0  0  0  0  0  0  0  0  0  0  0
  107.9844   18.9272   15.4938 C   0  0  0  0  0  0  0  0  0  0  0  0
  103.9129   16.8818   20.5780 C   0  0  0  0  0  0  0  0  0  0  0  0
  106.4354   18.1532   16.7579 C   0  0  0  0  0  0  0  0  0  0  0  0
  106.7159   18.5571   15.4529 N   0  0  0  0  0  0  0  0  0  0  0  0
  107.1543   17.6677   21.7318 O   0  0  0  0  0  0  0  0  0  0  0  0
  104.8698   16.9443   22.3621 H   0  0  0  0  0  0  0  0  0  0  0  0
  109.4843   18.9981   16.9529 H   0  0  0  0  0  0  0  0  0  0  0  0
  108.6924   19.4014   14.4624 N   0  0  0  0  0  0  0  0  0  0  0  0
  109.6609   19.5384   14.5742 H   0  0  0  0  0  0  0  0  0  0  0  0
  108.0816   19.7219   13.1822 C   0  0  0  0  0  0  0  0  0  0  0  0
  107.9866   18.5156   12.2883 C   0  0  0  0  0  0  0  0  0  0  0  0
  108.9569   18.5873   11.1916 N   0  0  0  0  0  0  0  0  0  0  0  0
  108.3667   18.1650    9.9214 C   0  0  0  0  0  0  0  0  0  0  0  0
  109.3870   18.2696    8.8190 C   0  0  0  0  0  0  0  0  0  0  0  0
  110.5349   17.4735    9.0924 O   0  0  0  0  0  0  0  0  0  0  0  0
  111.1205   17.8738   10.3291 C   0  0  0  0  0  0  0  0  0  0  0  0
  110.1383   17.7654   11.4677 C   0  0  0  0  0  0  0  0  0  0  0  0
  1  5  1  0  0  0
  1 11  1  0  0  0
  2  3  1  0  0  0
  2 11  2  0  0  0
  3  4  2  0  0  0
  3  8  1  0  0  0
  4  5  1  0  0  0
  4  6  1  0  0  0
  5 14  2  0  0  0
  6  7  2  0  0  0
  7  9  1  0  0  0
  7 12  1  0  0  0
  8 12  2  0  0  0
  9 10  1  0  0  0
 10 13  2  0  0  0
 10 17  1  0  0  0
 12 13  1  0  0  0
 17 19  1  0  0  0
 19 20  1  0  0  0
 20 21  1  0  0  0
 21 22  1  0  0  0
 21 26  1  0  0  0
 22 23  1  0  0  0
 23 24  1  0  0  0
 24 25  1  0  0  0
 25 26  1  0  0  0
  1 15  1  0  0  0
  9 16  1  0  0  0
 17 18  1  0  0  0
M  END
> <minimizedAffinity>
-7.04741

$$$$
4Q4R_SQO_A_405


 26 29  0  0  0  0  0  0  0  0999 V2000
  106.5199   17.3178   21.5733 N   0  0  0  0  0  0  0  0  0  0  0  0
  108.4293   18.2432   20.5252 N   0  0  0  0  0  0  0  0  0  0  0  0
  107.7235   18.2548   19.3239 C   0  0  0  0  0  0  0  0  0  0  0  0
  106.3913   17.8158   19.2389 C   0  0  0  0  0  0  0  0  0  0  0  0
  105.7403   17.2973   20.4446 C   0  0  0  0  0  0  0  0  0  0  0  0
  105.7317   17.8320   18.0143 C   0  0  0  0  0  0  0  0  0  0  0  0
  106.3985   18.2362   16.8774 C   0  0  0  0  0  0  0  0  0  0  0  0
  108.3938   18.6731   18.1656 C   0  0  0  0  0  0  0  0  0  0  0  0
  106.0513   18.2853   15.5418 N   0  0  0  0  0  0  0  0  0  0  0  0
  107.1549   18.6805   14.8705 C   0  0  0  0  0  0  0  0  0  0  0  0
  107.8072   17.7776   21.6062 C   0  0  0  0  0  0  0  0  0  0  0  0
  107.7310   18.6433   16.9353 C   0  0  0  0  0  0  0  0  0  0  0  0
  108.1972   18.9151   15.6494 N   0  0  0  0  0  0  0  0  0  0  0  0
  104.6047   16.8334   20.4628 O   0  0  0  0  0  0  0  0  0  0  0  0
  106.1282   16.9807   22.4113 H   0  0  0  0  0  0  0  0  0  0  0  0
  105.1712   18.0738   15.1545 H   0  0  0  0  0  0  0  0  0  0  0  0
  107.1337   18.8009   13.5383 N   0  0  0  0  0  0  0  0  0  0  0  0
  106.4905   18.2625   13.0229 H   0  0  0  0  0  0  0  0  0  0  0  0
  108.0273   19.6992   12.8247 C   0  0  0  0  0  0  0  0  0  0  0  0
  108.8484   18.9725   11.7946 C   0  0  0  0  0  0  0  0  0  0  0  0
  110.1894   18.6660   12.3016 N   0  0  0  0  0  0  0  0  0  0  0  0
  111.1122   19.7819   12.0937 C   0  0  0  0  0  0  0  0  0  0  0  0
  112.4711   19.4359   12.6425 C   0  0  0  0  0  0  0  0  0  0  0  0
  113.0005   18.2665   12.0276 O   0  0  0  0  0  0  0  0  0  0  0  0
  112.1103   17.1700   12.2217 C   0  0  0  0  0  0  0  0  0  0  0  0
  110.7395   17.4648   11.6676 C   0  0  0  0  0  0  0  0  0  0  0  0
  1  5  1  0  0  0
  1 11  1  0  0  0
  2  3  1  0  0  0
  2 11  2  0  0  0
  3  4  2  0  0  0
  3  8  1  0  0  0
  4  5  1  0  0  0
  4  6  1  0  0  0
  5 14  2  0  0  0
  6  7  2  0  0  0
  7  9  1  0  0  0
  7 12  1  0  0  0
  8 12  2  0  0  0
  9 10  1  0  0  0
 10 13  2  0  0  0
 10 17  1  0  0  0
 12 13  1  0  0  0
 17 19  1  0  0  0
 19 20  1  0  0  0
 20 21  1  0  0  0
 21 22  1  0  0  0
 21 26  1  0  0  0
 22 23  1  0  0  0
 23 24  1  0  0  0
 24 25  1  0  0  0
 25 26  1  0  0  0
  1 15  1  0  0  0
  9 16  1  0  0  0
 17 18  1  0  0  0
M  END
> <minimizedAffinity>
-6.96812

$$$$
