2V2Q_NVG_A_1274


 36 39  0  0  0  0  0  0  0  0999 V2000
   15.4319   -7.3026   26.4760 C   0  0  0  0  0  0  0  0  0  0  0  0
   15.6152   -6.7870   25.1054 O   0  0  0  0  0  0  0  0  0  0  0  0
   16.8440   -7.3223   27.1065 C   0  0  0  0  0  0  0  0  0  0  0  0
   16.9725   -6.2427   28.0483 O   0  0  0  0  0  0  0  0  0  0  0  0
   17.8096   -7.1181   25.9405 C   0  0  0  0  0  0  0  0  0  0  0  0
   18.3714   -5.8166   26.0702 O   0  0  0  0  0  0  0  0  0  0  0  0
   16.9242   -7.2428   24.6717 C   0  0  0  0  0  0  0  0  0  0  0  0
   16.8008   -5.4000   27.5995 H   0  0  0  0  0  0  0  0  0  0  0  0
   17.6591   -5.1592   26.1063 H   0  0  0  0  0  0  0  0  0  0  0  0
   12.6472   -7.8097   26.0028 O   0  0  0  0  0  0  0  0  0  0  0  0
   13.3496   -8.7876   26.2742 C   0  0  0  0  0  0  0  0  0  0  0  0
   12.7774  -10.0112   26.3276 N   0  0  0  0  0  0  0  0  0  0  0  0
   13.4901  -11.1174   26.6083 C   0  0  0  0  0  0  0  0  0  0  0  0
   12.8954  -12.3051   26.6506 N   0  0  0  0  0  0  0  0  0  0  0  0
   14.8600  -11.0396   26.8631 C   0  0  0  0  0  0  0  0  0  0  0  0
   15.4956   -9.8053   26.8229 C   0  0  0  0  0  0  0  0  0  0  0  0
   14.7456   -8.6478   26.5296 N   0  0  0  0  0  0  0  0  0  0  0  0
   11.9297  -12.3787   26.4736 H   0  0  0  0  0  0  0  0  0  0  0  0
   13.4205  -13.1114   26.8591 H   0  0  0  0  0  0  0  0  0  0  0  0
   17.3127   -6.4898   23.3553 C   0  0  0  0  0  0  0  0  0  0  0  0
   16.1210   -6.1287   22.5657 N   0  0  0  0  0  0  0  0  0  0  0  0
   16.1759   -5.7263   21.2933 C   0  0  0  0  0  0  0  0  0  0  0  0
   17.2165   -5.6131   20.6456 O   0  0  0  0  0  0  0  0  0  0  0  0
   15.2388   -6.1873   22.9989 H   0  0  0  0  0  0  0  0  0  0  0  0
   14.8203   -5.3932   20.6467 C   0  0  0  0  0  0  0  0  0  0  0  0
   13.8207   -6.5590   20.7022 C   0  0  0  0  0  0  0  0  0  0  0  0
   13.8578   -7.3949   19.4202 C   0  0  0  0  0  0  0  0  0  0  0  0
   13.0889   -7.2035   18.3482 N   0  0  0  0  0  0  0  0  0  0  0  0
   13.4029   -8.1156   17.4373 C   0  0  0  0  0  0  0  0  0  0  0  0
   12.9188   -8.3739   16.1560 C   0  0  0  0  0  0  0  0  0  0  0  0
   13.4579   -9.4265   15.4174 C   0  0  0  0  0  0  0  0  0  0  0  0
   14.4749  -10.2142   15.9599 C   0  0  0  0  0  0  0  0  0  0  0  0
   14.9551   -9.9546   17.2433 C   0  0  0  0  0  0  0  0  0  0  0  0
   14.4141   -8.9019   17.9790 C   0  0  0  0  0  0  0  0  0  0  0  0
   14.6680   -8.4292   19.1950 N   0  0  0  0  0  0  0  0  0  0  0  0
   12.4038   -6.5035   18.2491 H   0  0  0  0  0  0  0  0  0  0  0  0
 10 11  2  0  0  0
 11 12  1  0  0  0
 11 17  1  0  0  0
 12 13  2  0  0  0
 13 14  1  0  0  0
 13 15  1  0  0  0
 15 16  2  0  0  0
 16 17  1  0  0  0
 17  1  1  0  0  0
  1  2  1  0  0  0
  1  3  1  0  0  0
  2  7  1  0  0  0
  3  4  1  0  0  0
  3  5  1  0  0  0
  5  6  1  0  0  0
  5  7  1  0  0  0
  7 20  1  0  0  0
 20 21  1  0  0  0
 21 22  1  0  0  0
 22 23  2  0  0  0
 22 25  1  0  0  0
 25 26  1  0  0  0
 26 27  1  0  0  0
 27 28  1  0  0  0
 27 35  2  0  0  0
 28 29  1  0  0  0
 29 30  1  0  0  0
 29 34  2  0  0  0
 30 31  2  0  0  0
 31 32  1  0  0  0
 32 33  2  0  0  0
 33 34  1  0  0  0
 34 35  1  0  0  0
 14 18  1  0  0  0
 14 19  1  0  0  0
  4  8  1  0  0  0
  6  9  1  0  0  0
 21 24  1  0  0  0
 28 36  1  0  0  0
M  END
> <minimizedAffinity>
-10.16998

$$$$
2V2Q_NVG_A_1274


 36 39  0  0  0  0  0  0  0  0999 V2000
   16.1710   -7.9691   27.4244 C   0  0  0  0  0  0  0  0  0  0  0  0
   14.6999   -7.8853   27.5085 O   0  0  0  0  0  0  0  0  0  0  0  0
   16.5716   -7.0790   26.2247 C   0  0  0  0  0  0  0  0  0  0  0  0
   17.1517   -5.8518   26.7005 O   0  0  0  0  0  0  0  0  0  0  0  0
   15.2673   -6.7892   25.4838 C   0  0  0  0  0  0  0  0  0  0  0  0
   14.9520   -5.4164   25.6891 O   0  0  0  0  0  0  0  0  0  0  0  0
   14.2235   -7.7284   26.1455 C   0  0  0  0  0  0  0  0  0  0  0  0
   16.5186   -5.3974   27.2780 H   0  0  0  0  0  0  0  0  0  0  0  0
   14.9088   -5.2334   26.6407 H   0  0  0  0  0  0  0  0  0  0  0  0
   18.3241   -9.1199   28.9328 O   0  0  0  0  0  0  0  0  0  0  0  0
   17.7700   -9.8545   28.1102 C   0  0  0  0  0  0  0  0  0  0  0  0
   18.1996  -11.1291   27.9755 N   0  0  0  0  0  0  0  0  0  0  0  0
   17.6312  -11.9824   27.1041 C   0  0  0  0  0  0  0  0  0  0  0  0
   18.0778  -13.2296   26.9990 N   0  0  0  0  0  0  0  0  0  0  0  0
   16.5694  -11.5757   26.2948 C   0  0  0  0  0  0  0  0  0  0  0  0
   16.0919  -10.2751   26.3929 C   0  0  0  0  0  0  0  0  0  0  0  0
   16.6906   -9.3832   27.3062 N   0  0  0  0  0  0  0  0  0  0  0  0
   18.8259  -13.5337   27.5620 H   0  0  0  0  0  0  0  0  0  0  0  0
   17.6604  -13.8495   26.3581 H   0  0  0  0  0  0  0  0  0  0  0  0
   12.7092   -7.3329   26.1803 C   0  0  0  0  0  0  0  0  0  0  0  0
   12.0514   -7.5926   24.8864 N   0  0  0  0  0  0  0  0  0  0  0  0
   11.5194   -8.7721   24.5553 C   0  0  0  0  0  0  0  0  0  0  0  0
   11.5193   -9.7628   25.2858 O   0  0  0  0  0  0  0  0  0  0  0  0
   12.0019   -6.8583   24.2324 H   0  0  0  0  0  0  0  0  0  0  0  0
   10.8814   -8.8400   23.1571 C   0  0  0  0  0  0  0  0  0  0  0  0
   10.6279   -7.4557   22.5399 C   0  0  0  0  0  0  0  0  0  0  0  0
   11.6477   -7.1313   21.4452 C   0  0  0  0  0  0  0  0  0  0  0  0
   11.3557   -6.8176   20.1829 N   0  0  0  0  0  0  0  0  0  0  0  0
   12.4903   -6.6012   19.5302 C   0  0  0  0  0  0  0  0  0  0  0  0
   12.7661   -6.2509   18.2095 C   0  0  0  0  0  0  0  0  0  0  0  0
   14.0903   -6.0885   17.8042 C   0  0  0  0  0  0  0  0  0  0  0  0
   15.1302   -6.2761   18.7167 C   0  0  0  0  0  0  0  0  0  0  0  0
   14.8507   -6.6290   20.0367 C   0  0  0  0  0  0  0  0  0  0  0  0
   13.5261   -6.7907   20.4387 C   0  0  0  0  0  0  0  0  0  0  0  0
   12.9713   -7.1129   21.6027 N   0  0  0  0  0  0  0  0  0  0  0  0
   10.4508   -6.7567   19.7997 H   0  0  0  0  0  0  0  0  0  0  0  0
 10 11  2  0  0  0
 11 12  1  0  0  0
 11 17  1  0  0  0
 12 13  2  0  0  0
 13 14  1  0  0  0
 13 15  1  0  0  0
 15 16  2  0  0  0
 16 17  1  0  0  0
 17  1  1  0  0  0
  1  2  1  0  0  0
  1  3  1  0  0  0
  2  7  1  0  0  0
  3  4  1  0  0  0
  3  5  1  0  0  0
  5  6  1  0  0  0
  5  7  1  0  0  0
  7 20  1  0  0  0
 20 21  1  0  0  0
 21 22  1  0  0  0
 22 23  2  0  0  0
 22 25  1  0  0  0
 25 26  1  0  0  0
 26 27  1  0  0  0
 27 28  1  0  0  0
 27 35  2  0  0  0
 28 29  1  0  0  0
 29 30  1  0  0  0
 29 34  2  0  0  0
 30 31  2  0  0  0
 31 32  1  0  0  0
 32 33  2  0  0  0
 33 34  1  0  0  0
 34 35  1  0  0  0
 14 18  1  0  0  0
 14 19  1  0  0  0
  4  8  1  0  0  0
  6  9  1  0  0  0
 21 24  1  0  0  0
 28 36  1  0  0  0
M  END
> <minimizedAffinity>
-10.12464

$$$$
2V2Q_NVG_A_1274


 36 39  0  0  0  0  0  0  0  0999 V2000
   15.6179   -7.0027   25.7616 C   0  0  0  0  0  0  0  0  0  0  0  0
   15.3953   -6.4696   24.4035 O   0  0  0  0  0  0  0  0  0  0  0  0
   17.1519   -7.1275   25.9144 C   0  0  0  0  0  0  0  0  0  0  0  0
   17.6436   -6.0796   26.7683 O   0  0  0  0  0  0  0  0  0  0  0  0
   17.7130   -6.9601   24.5034 C   0  0  0  0  0  0  0  0  0  0  0  0
   18.3745   -5.7009   24.4502 O   0  0  0  0  0  0  0  0  0  0  0  0
   16.4669   -6.9993   23.5786 C   0  0  0  0  0  0  0  0  0  0  0  0
   17.3974   -5.2179   26.3972 H   0  0  0  0  0  0  0  0  0  0  0  0
   17.7564   -4.9998   24.7096 H   0  0  0  0  0  0  0  0  0  0  0  0
   12.8329   -7.5201   25.3017 O   0  0  0  0  0  0  0  0  0  0  0  0
   13.5007   -8.4516   25.7597 C   0  0  0  0  0  0  0  0  0  0  0  0
   12.8934   -9.6335   26.0080 N   0  0  0  0  0  0  0  0  0  0  0  0
   13.5677  -10.6899   26.4978 C   0  0  0  0  0  0  0  0  0  0  0  0
   12.9393  -11.8379   26.7284 N   0  0  0  0  0  0  0  0  0  0  0  0
   14.9324  -10.6005   26.7755 C   0  0  0  0  0  0  0  0  0  0  0  0
   15.6031   -9.4071   26.5402 C   0  0  0  0  0  0  0  0  0  0  0  0
   14.8933   -8.3017   26.0280 N   0  0  0  0  0  0  0  0  0  0  0  0
   11.9767  -11.9190   26.5384 H   0  0  0  0  0  0  0  0  0  0  0  0
   13.4363  -12.6073   27.0893 H   0  0  0  0  0  0  0  0  0  0  0  0
   16.4718   -6.2438   22.2075 C   0  0  0  0  0  0  0  0  0  0  0  0
   15.7784   -7.0165   21.1605 N   0  0  0  0  0  0  0  0  0  0  0  0
   15.7158   -6.6326   19.8827 C   0  0  0  0  0  0  0  0  0  0  0  0
   16.2244   -5.6019   19.4422 O   0  0  0  0  0  0  0  0  0  0  0  0
   15.3388   -7.8594   21.4166 H   0  0  0  0  0  0  0  0  0  0  0  0
   14.9427   -7.5772   18.9463 C   0  0  0  0  0  0  0  0  0  0  0  0
   13.6622   -6.9483   18.3752 C   0  0  0  0  0  0  0  0  0  0  0  0
   12.6090   -6.7267   19.4638 C   0  0  0  0  0  0  0  0  0  0  0  0
   11.6759   -5.7746   19.4565 N   0  0  0  0  0  0  0  0  0  0  0  0
   10.9459   -5.8929   20.5580 C   0  0  0  0  0  0  0  0  0  0  0  0
    9.8598   -5.1718   21.0511 C   0  0  0  0  0  0  0  0  0  0  0  0
    9.2857   -5.5403   22.2671 C   0  0  0  0  0  0  0  0  0  0  0  0
    9.7973   -6.6241   22.9834 C   0  0  0  0  0  0  0  0  0  0  0  0
   10.8858   -7.3418   22.4883 C   0  0  0  0  0  0  0  0  0  0  0  0
   11.4574   -6.9708   21.2726 C   0  0  0  0  0  0  0  0  0  0  0  0
   12.4750   -7.4582   20.5701 N   0  0  0  0  0  0  0  0  0  0  0  0
   11.5497   -5.0981   18.7525 H   0  0  0  0  0  0  0  0  0  0  0  0
 10 11  2  0  0  0
 11 12  1  0  0  0
 11 17  1  0  0  0
 12 13  2  0  0  0
 13 14  1  0  0  0
 13 15  1  0  0  0
 15 16  2  0  0  0
 16 17  1  0  0  0
 17  1  1  0  0  0
  1  2  1  0  0  0
  1  3  1  0  0  0
  2  7  1  0  0  0
  3  4  1  0  0  0
  3  5  1  0  0  0
  5  6  1  0  0  0
  5  7  1  0  0  0
  7 20  1  0  0  0
 20 21  1  0  0  0
 21 22  1  0  0  0
 22 23  2  0  0  0
 22 25  1  0  0  0
 25 26  1  0  0  0
 26 27  1  0  0  0
 27 28  1  0  0  0
 27 35  2  0  0  0
 28 29  1  0  0  0
 29 30  1  0  0  0
 29 34  2  0  0  0
 30 31  2  0  0  0
 31 32  1  0  0  0
 32 33  2  0  0  0
 33 34  1  0  0  0
 34 35  1  0  0  0
 14 18  1  0  0  0
 14 19  1  0  0  0
  4  8  1  0  0  0
  6  9  1  0  0  0
 21 24  1  0  0  0
 28 36  1  0  0  0
M  END
> <minimizedAffinity>
-9.76155

$$$$
2V2Q_NVG_A_1274


 36 39  0  0  0  0  0  0  0  0999 V2000
   16.0034   -9.1001   25.5310 C   0  0  0  0  0  0  0  0  0  0  0  0
   14.5689   -8.8165   25.3316 O   0  0  0  0  0  0  0  0  0  0  0  0
   16.2882   -8.7844   27.0181 C   0  0  0  0  0  0  0  0  0  0  0  0
   16.4386  -10.0096   27.7565 O   0  0  0  0  0  0  0  0  0  0  0  0
   15.0592   -8.0228   27.5115 C   0  0  0  0  0  0  0  0  0  0  0  0
   14.3506   -8.8795   28.4003 O   0  0  0  0  0  0  0  0  0  0  0  0
   14.2436   -7.7195   26.2261 C   0  0  0  0  0  0  0  0  0  0  0  0
   15.6363  -10.5461   27.6595 H   0  0  0  0  0  0  0  0  0  0  0  0
   14.1384   -9.7108   27.9477 H   0  0  0  0  0  0  0  0  0  0  0  0
   15.4223   -8.4183   22.8047 O   0  0  0  0  0  0  0  0  0  0  0  0
   16.5163   -8.0543   23.2452 C   0  0  0  0  0  0  0  0  0  0  0  0
   17.3540   -7.3690   22.4352 N   0  0  0  0  0  0  0  0  0  0  0  0
   18.5557   -6.9361   22.8582 C   0  0  0  0  0  0  0  0  0  0  0  0
   19.3535   -6.2632   22.0355 N   0  0  0  0  0  0  0  0  0  0  0  0
   18.9877   -7.1870   24.1613 C   0  0  0  0  0  0  0  0  0  0  0  0
   18.1653   -7.8893   25.0329 C   0  0  0  0  0  0  0  0  0  0  0  0
   16.9071   -8.3426   24.5860 N   0  0  0  0  0  0  0  0  0  0  0  0
   19.0650   -6.0772   21.1128 H   0  0  0  0  0  0  0  0  0  0  0  0
   20.2330   -5.9508   22.3487 H   0  0  0  0  0  0  0  0  0  0  0  0
   12.6873   -7.5635   26.2918 C   0  0  0  0  0  0  0  0  0  0  0  0
   12.0722   -7.7009   24.9588 N   0  0  0  0  0  0  0  0  0  0  0  0
   11.4540   -8.8102   24.5447 C   0  0  0  0  0  0  0  0  0  0  0  0
   11.3308   -9.8301   25.2227 O   0  0  0  0  0  0  0  0  0  0  0  0
   12.1196   -6.9351   24.3418 H   0  0  0  0  0  0  0  0  0  0  0  0
   10.8806   -8.7536   23.1183 C   0  0  0  0  0  0  0  0  0  0  0  0
   10.7256   -7.3208   22.5849 C   0  0  0  0  0  0  0  0  0  0  0  0
   11.6890   -7.0426   21.4282 C   0  0  0  0  0  0  0  0  0  0  0  0
   13.0190   -7.1028   21.4963 N   0  0  0  0  0  0  0  0  0  0  0  0
   13.5151   -6.8015   20.3033 C   0  0  0  0  0  0  0  0  0  0  0  0
   14.8195   -6.7118   19.8200 C   0  0  0  0  0  0  0  0  0  0  0  0
   15.0356   -6.3664   18.4865 C   0  0  0  0  0  0  0  0  0  0  0  0
   13.9516   -6.1127   17.6441 C   0  0  0  0  0  0  0  0  0  0  0  0
   12.6479   -6.2008   18.1316 C   0  0  0  0  0  0  0  0  0  0  0  0
   12.4352   -6.5462   19.4650 C   0  0  0  0  0  0  0  0  0  0  0  0
   11.3320   -6.7055   20.1889 N   0  0  0  0  0  0  0  0  0  0  0  0
   13.5444   -7.3320   22.2967 H   0  0  0  0  0  0  0  0  0  0  0  0
 10 11  2  0  0  0
 11 12  1  0  0  0
 11 17  1  0  0  0
 12 13  2  0  0  0
 13 14  1  0  0  0
 13 15  1  0  0  0
 15 16  2  0  0  0
 16 17  1  0  0  0
 17  1  1  0  0  0
  1  2  1  0  0  0
  1  3  1  0  0  0
  2  7  1  0  0  0
  3  4  1  0  0  0
  3  5  1  0  0  0
  5  6  1  0  0  0
  5  7  1  0  0  0
  7 20  1  0  0  0
 20 21  1  0  0  0
 21 22  1  0  0  0
 22 23  2  0  0  0
 22 25  1  0  0  0
 25 26  1  0  0  0
 26 27  1  0  0  0
 27 28  1  0  0  0
 27 35  2  0  0  0
 28 29  1  0  0  0
 29 30  1  0  0  0
 29 34  2  0  0  0
 30 31  2  0  0  0
 31 32  1  0  0  0
 32 33  2  0  0  0
 33 34  1  0  0  0
 34 35  1  0  0  0
 14 18  1  0  0  0
 14 19  1  0  0  0
  4  8  1  0  0  0
  6  9  1  0  0  0
 21 24  1  0  0  0
 28 36  1  0  0  0
M  END
> <minimizedAffinity>
-9.76117

$$$$
2V2Q_NVG_A_1274


 36 39  0  0  0  0  0  0  0  0999 V2000
   13.3888   -6.7108   18.0521 C   0  0  0  0  0  0  0  0  0  0  0  0
   14.5147   -6.4591   18.9725 O   0  0  0  0  0  0  0  0  0  0  0  0
   12.1257   -6.7640   18.9429 C   0  0  0  0  0  0  0  0  0  0  0  0
   11.3607   -5.5572   18.7767 O   0  0  0  0  0  0  0  0  0  0  0  0
   12.6461   -6.8611   20.3759 C   0  0  0  0  0  0  0  0  0  0  0  0
   12.3739   -5.6199   21.0174 O   0  0  0  0  0  0  0  0  0  0  0  0
   14.1703   -7.1121   20.2233 C   0  0  0  0  0  0  0  0  0  0  0  0
   11.9133   -4.7911   18.9975 H   0  0  0  0  0  0  0  0  0  0  0  0
   12.7715   -4.8977   20.5063 H   0  0  0  0  0  0  0  0  0  0  0  0
   11.8885   -7.3914   15.7023 O   0  0  0  0  0  0  0  0  0  0  0  0
   12.7619   -8.1902   16.0520 C   0  0  0  0  0  0  0  0  0  0  0  0
   12.9563   -9.3106   15.3210 N   0  0  0  0  0  0  0  0  0  0  0  0
   13.8985  -10.2154   15.6439 C   0  0  0  0  0  0  0  0  0  0  0  0
   14.0637  -11.3052   14.9015 N   0  0  0  0  0  0  0  0  0  0  0  0
   14.7142  -10.0302   16.7610 C   0  0  0  0  0  0  0  0  0  0  0  0
   14.5532   -8.8964   17.5470 C   0  0  0  0  0  0  0  0  0  0  0  0
   13.5641   -7.9508   17.2065 N   0  0  0  0  0  0  0  0  0  0  0  0
   13.4972  -11.4521   14.1099 H   0  0  0  0  0  0  0  0  0  0  0  0
   14.7526  -11.9656   15.1432 H   0  0  0  0  0  0  0  0  0  0  0  0
   15.1678   -6.6391   21.3333 C   0  0  0  0  0  0  0  0  0  0  0  0
   15.1045   -7.5064   22.5241 N   0  0  0  0  0  0  0  0  0  0  0  0
   15.3917   -7.0837   23.7581 C   0  0  0  0  0  0  0  0  0  0  0  0
   15.7376   -5.9354   24.0353 O   0  0  0  0  0  0  0  0  0  0  0  0
   14.8366   -8.4460   22.4032 H   0  0  0  0  0  0  0  0  0  0  0  0
   15.2679   -8.1446   24.8653 C   0  0  0  0  0  0  0  0  0  0  0  0
   13.9821   -8.0057   25.6953 C   0  0  0  0  0  0  0  0  0  0  0  0
   12.7393   -7.9447   24.8035 C   0  0  0  0  0  0  0  0  0  0  0  0
   12.3215   -8.9144   23.9897 N   0  0  0  0  0  0  0  0  0  0  0  0
   11.2154   -8.5055   23.3818 C   0  0  0  0  0  0  0  0  0  0  0  0
   10.3775   -9.1073   22.4443 C   0  0  0  0  0  0  0  0  0  0  0  0
    9.2604   -8.4157   21.9777 C   0  0  0  0  0  0  0  0  0  0  0  0
    8.9856   -7.1300   22.4476 C   0  0  0  0  0  0  0  0  0  0  0  0
    9.8276   -6.5299   23.3837 C   0  0  0  0  0  0  0  0  0  0  0  0
   10.9435   -7.2238   23.8480 C   0  0  0  0  0  0  0  0  0  0  0  0
   11.8980   -6.9141   24.7194 N   0  0  0  0  0  0  0  0  0  0  0  0
   12.7597   -9.7866   23.8615 H   0  0  0  0  0  0  0  0  0  0  0  0
 10 11  2  0  0  0
 11 12  1  0  0  0
 11 17  1  0  0  0
 12 13  2  0  0  0
 13 14  1  0  0  0
 13 15  1  0  0  0
 15 16  2  0  0  0
 16 17  1  0  0  0
 17  1  1  0  0  0
  1  2  1  0  0  0
  1  3  1  0  0  0
  2  7  1  0  0  0
  3  4  1  0  0  0
  3  5  1  0  0  0
  5  6  1  0  0  0
  5  7  1  0  0  0
  7 20  1  0  0  0
 20 21  1  0  0  0
 21 22  1  0  0  0
 22 23  2  0  0  0
 22 25  1  0  0  0
 25 26  1  0  0  0
 26 27  1  0  0  0
 27 28  1  0  0  0
 27 35  2  0  0  0
 28 29  1  0  0  0
 29 30  1  0  0  0
 29 34  2  0  0  0
 30 31  2  0  0  0
 31 32  1  0  0  0
 32 33  2  0  0  0
 33 34  1  0  0  0
 34 35  1  0  0  0
 14 18  1  0  0  0
 14 19  1  0  0  0
  4  8  1  0  0  0
  6  9  1  0  0  0
 21 24  1  0  0  0
 28 36  1  0  0  0
M  END
> <minimizedAffinity>
-9.69809

$$$$
2V2Q_NVG_A_1274


 36 39  0  0  0  0  0  0  0  0999 V2000
   16.7633   -8.9824   27.1085 C   0  0  0  0  0  0  0  0  0  0  0  0
   16.8574   -8.4450   25.7372 O   0  0  0  0  0  0  0  0  0  0  0  0
   17.4832   -7.9526   28.0104 C   0  0  0  0  0  0  0  0  0  0  0  0
   16.5136   -7.1975   28.7579 O   0  0  0  0  0  0  0  0  0  0  0  0
   18.2369   -7.0331   27.0511 C   0  0  0  0  0  0  0  0  0  0  0  0
   17.5856   -5.7675   27.0676 O   0  0  0  0  0  0  0  0  0  0  0  0
   18.1183   -7.7275   25.6679 C   0  0  0  0  0  0  0  0  0  0  0  0
   15.9023   -6.7598   28.1451 H   0  0  0  0  0  0  0  0  0  0  0  0
   16.6492   -5.8828   26.8422 H   0  0  0  0  0  0  0  0  0  0  0  0
   15.7150  -11.3627   25.8955 O   0  0  0  0  0  0  0  0  0  0  0  0
   16.7203  -11.4965   26.5990 C   0  0  0  0  0  0  0  0  0  0  0  0
   17.2561  -12.7285   26.7490 N   0  0  0  0  0  0  0  0  0  0  0  0
   18.3565  -12.9390   27.4943 C   0  0  0  0  0  0  0  0  0  0  0  0
   18.8578  -14.1634   27.6186 N   0  0  0  0  0  0  0  0  0  0  0  0
   18.9879  -11.8818   28.1512 C   0  0  0  0  0  0  0  0  0  0  0  0
   18.4755  -10.5963   28.0311 C   0  0  0  0  0  0  0  0  0  0  0  0
   17.3216  -10.3794   27.2504 N   0  0  0  0  0  0  0  0  0  0  0  0
   18.4254  -14.9210   27.1622 H   0  0  0  0  0  0  0  0  0  0  0  0
   19.6616  -14.3129   28.1671 H   0  0  0  0  0  0  0  0  0  0  0  0
   18.1489   -6.8826   24.3503 C   0  0  0  0  0  0  0  0  0  0  0  0
   17.1212   -7.3331   23.3937 N   0  0  0  0  0  0  0  0  0  0  0  0
   16.0559   -6.6000   23.0590 C   0  0  0  0  0  0  0  0  0  0  0  0
   15.8165   -5.4790   23.5075 O   0  0  0  0  0  0  0  0  0  0  0  0
   17.2256   -8.2204   22.9801 H   0  0  0  0  0  0  0  0  0  0  0  0
   15.0986   -7.2502   22.0454 C   0  0  0  0  0  0  0  0  0  0  0  0
   14.6662   -6.2946   20.9224 C   0  0  0  0  0  0  0  0  0  0  0  0
   14.3536   -7.0504   19.6283 C   0  0  0  0  0  0  0  0  0  0  0  0
   14.9232   -8.1917   19.2409 N   0  0  0  0  0  0  0  0  0  0  0  0
   14.4022   -8.5464   18.0735 C   0  0  0  0  0  0  0  0  0  0  0  0
   14.6310   -9.6323   17.2300 C   0  0  0  0  0  0  0  0  0  0  0  0
   13.9132   -9.7405   16.0396 C   0  0  0  0  0  0  0  0  0  0  0  0
   12.9730   -8.7668   15.6975 C   0  0  0  0  0  0  0  0  0  0  0  0
   12.7484   -7.6802   16.5425 C   0  0  0  0  0  0  0  0  0  0  0  0
   13.4676   -7.5749   17.7317 C   0  0  0  0  0  0  0  0  0  0  0  0
   13.4639   -6.6747   18.7095 N   0  0  0  0  0  0  0  0  0  0  0  0
   15.6138   -8.6875   19.7372 H   0  0  0  0  0  0  0  0  0  0  0  0
 10 11  2  0  0  0
 11 12  1  0  0  0
 11 17  1  0  0  0
 12 13  2  0  0  0
 13 14  1  0  0  0
 13 15  1  0  0  0
 15 16  2  0  0  0
 16 17  1  0  0  0
 17  1  1  0  0  0
  1  2  1  0  0  0
  1  3  1  0  0  0
  2  7  1  0  0  0
  3  4  1  0  0  0
  3  5  1  0  0  0
  5  6  1  0  0  0
  5  7  1  0  0  0
  7 20  1  0  0  0
 20 21  1  0  0  0
 21 22  1  0  0  0
 22 23  2  0  0  0
 22 25  1  0  0  0
 25 26  1  0  0  0
 26 27  1  0  0  0
 27 28  1  0  0  0
 27 35  2  0  0  0
 28 29  1  0  0  0
 29 30  1  0  0  0
 29 34  2  0  0  0
 30 31  2  0  0  0
 31 32  1  0  0  0
 32 33  2  0  0  0
 33 34  1  0  0  0
 34 35  1  0  0  0
 14 18  1  0  0  0
 14 19  1  0  0  0
  4  8  1  0  0  0
  6  9  1  0  0  0
 21 24  1  0  0  0
 28 36  1  0  0  0
M  END
> <minimizedAffinity>
-9.68515

$$$$
2V2Q_NVG_A_1274


 36 39  0  0  0  0  0  0  0  0999 V2000
   15.5265  -10.3226   27.0753 C   0  0  0  0  0  0  0  0  0  0  0  0
   14.7914   -9.8694   25.8785 O   0  0  0  0  0  0  0  0  0  0  0  0
   15.4237   -9.1620   28.0924 C   0  0  0  0  0  0  0  0  0  0  0  0
   14.4889   -9.5049   29.1304 O   0  0  0  0  0  0  0  0  0  0  0  0
   14.9037   -7.9690   27.2923 C   0  0  0  0  0  0  0  0  0  0  0  0
   13.5656   -7.7216   27.7097 O   0  0  0  0  0  0  0  0  0  0  0  0
   14.9726   -8.4299   25.8116 C   0  0  0  0  0  0  0  0  0  0  0  0
   13.6252   -9.7023   28.7355 H   0  0  0  0  0  0  0  0  0  0  0  0
   13.0373   -8.5271   27.5963 H   0  0  0  0  0  0  0  0  0  0  0  0
   16.3905  -12.2273   25.1103 O   0  0  0  0  0  0  0  0  0  0  0  0
   17.2729  -11.6892   25.7850 C   0  0  0  0  0  0  0  0  0  0  0  0
   18.5640  -12.0202   25.5597 N   0  0  0  0  0  0  0  0  0  0  0  0
   19.5723  -11.4623   26.2544 C   0  0  0  0  0  0  0  0  0  0  0  0
   20.8306  -11.8097   26.0054 N   0  0  0  0  0  0  0  0  0  0  0  0
   19.3180  -10.5154   27.2475 C   0  0  0  0  0  0  0  0  0  0  0  0
   18.0080  -10.1422   27.5196 C   0  0  0  0  0  0  0  0  0  0  0  0
   16.9536  -10.7297   26.7906 N   0  0  0  0  0  0  0  0  0  0  0  0
   21.0286  -12.4762   25.3083 H   0  0  0  0  0  0  0  0  0  0  0  0
   21.5649  -11.4007   26.5181 H   0  0  0  0  0  0  0  0  0  0  0  0
   13.9823   -7.8431   24.7507 C   0  0  0  0  0  0  0  0  0  0  0  0
   14.5772   -7.8327   23.4015 N   0  0  0  0  0  0  0  0  0  0  0  0
   15.3738   -6.8573   22.9565 C   0  0  0  0  0  0  0  0  0  0  0  0
   15.6961   -5.8694   23.6161 O   0  0  0  0  0  0  0  0  0  0  0  0
   14.3768   -8.5837   22.7973 H   0  0  0  0  0  0  0  0  0  0  0  0
   15.8904   -7.0311   21.5179 C   0  0  0  0  0  0  0  0  0  0  0  0
   15.3245   -5.9881   20.5416 C   0  0  0  0  0  0  0  0  0  0  0  0
   14.6829   -6.6498   19.3193 C   0  0  0  0  0  0  0  0  0  0  0  0
   15.0022   -7.8482   18.8303 N   0  0  0  0  0  0  0  0  0  0  0  0
   14.2388   -8.0874   17.7719 C   0  0  0  0  0  0  0  0  0  0  0  0
   14.1548   -9.1677   16.8950 C   0  0  0  0  0  0  0  0  0  0  0  0
   13.2320   -9.1341   15.8503 C   0  0  0  0  0  0  0  0  0  0  0  0
   12.3998   -8.0252   15.6862 C   0  0  0  0  0  0  0  0  0  0  0  0
   12.4883   -6.9449   16.5639 C   0  0  0  0  0  0  0  0  0  0  0  0
   13.4118   -6.9816   17.6070 C   0  0  0  0  0  0  0  0  0  0  0  0
   13.7113   -6.1215   18.5751 N   0  0  0  0  0  0  0  0  0  0  0  0
   15.6886   -8.4535   19.1934 H   0  0  0  0  0  0  0  0  0  0  0  0
 10 11  2  0  0  0
 11 12  1  0  0  0
 11 17  1  0  0  0
 12 13  2  0  0  0
 13 14  1  0  0  0
 13 15  1  0  0  0
 15 16  2  0  0  0
 16 17  1  0  0  0
 17  1  1  0  0  0
  1  2  1  0  0  0
  1  3  1  0  0  0
  2  7  1  0  0  0
  3  4  1  0  0  0
  3  5  1  0  0  0
  5  6  1  0  0  0
  5  7  1  0  0  0
  7 20  1  0  0  0
 20 21  1  0  0  0
 21 22  1  0  0  0
 22 23  2  0  0  0
 22 25  1  0  0  0
 25 26  1  0  0  0
 26 27  1  0  0  0
 27 28  1  0  0  0
 27 35  2  0  0  0
 28 29  1  0  0  0
 29 30  1  0  0  0
 29 34  2  0  0  0
 30 31  2  0  0  0
 31 32  1  0  0  0
 32 33  2  0  0  0
 33 34  1  0  0  0
 34 35  1  0  0  0
 14 18  1  0  0  0
 14 19  1  0  0  0
  4  8  1  0  0  0
  6  9  1  0  0  0
 21 24  1  0  0  0
 28 36  1  0  0  0
M  END
> <minimizedAffinity>
-9.67607

$$$$
2V2Q_NVG_A_1274


 36 39  0  0  0  0  0  0  0  0999 V2000
   13.4491   -6.3732   20.4901 C   0  0  0  0  0  0  0  0  0  0  0  0
   12.9367   -6.9578   21.7446 O   0  0  0  0  0  0  0  0  0  0  0  0
   12.2273   -5.7162   19.8064 C   0  0  0  0  0  0  0  0  0  0  0  0
   12.3054   -4.2860   19.9385 O   0  0  0  0  0  0  0  0  0  0  0  0
   11.0092   -6.2462   20.5610 C   0  0  0  0  0  0  0  0  0  0  0  0
   10.4699   -5.1683   21.3182 O   0  0  0  0  0  0  0  0  0  0  0  0
   11.5710   -7.3702   21.4722 C   0  0  0  0  0  0  0  0  0  0  0  0
   12.3501   -4.0500   20.8782 H   0  0  0  0  0  0  0  0  0  0  0  0
   11.1580   -4.8032   21.8962 H   0  0  0  0  0  0  0  0  0  0  0  0
   15.9048   -7.7368   21.0786 O   0  0  0  0  0  0  0  0  0  0  0  0
   15.3746   -7.9945   19.9942 C   0  0  0  0  0  0  0  0  0  0  0  0
   15.9684   -8.8862   19.1698 N   0  0  0  0  0  0  0  0  0  0  0  0
   15.4360   -9.2172   17.9791 C   0  0  0  0  0  0  0  0  0  0  0  0
   16.0458  -10.0994   17.1942 N   0  0  0  0  0  0  0  0  0  0  0  0
   14.2413   -8.6410   17.5453 C   0  0  0  0  0  0  0  0  0  0  0  0
   13.5925   -7.7170   18.3544 C   0  0  0  0  0  0  0  0  0  0  0  0
   14.1536   -7.3714   19.6009 N   0  0  0  0  0  0  0  0  0  0  0  0
   16.8894  -10.5158   17.4842 H   0  0  0  0  0  0  0  0  0  0  0  0
   15.6538  -10.3365   16.3228 H   0  0  0  0  0  0  0  0  0  0  0  0
   10.8676   -7.7202   22.8264 C   0  0  0  0  0  0  0  0  0  0  0  0
   11.8104   -7.6586   23.9585 N   0  0  0  0  0  0  0  0  0  0  0  0
   12.0041   -8.6692   24.8101 C   0  0  0  0  0  0  0  0  0  0  0  0
   11.4232   -9.7523   24.7452 O   0  0  0  0  0  0  0  0  0  0  0  0
   12.3238   -6.8295   24.0936 H   0  0  0  0  0  0  0  0  0  0  0  0
   13.0292   -8.4050   25.9264 C   0  0  0  0  0  0  0  0  0  0  0  0
   13.8419   -7.1190   25.7096 C   0  0  0  0  0  0  0  0  0  0  0  0
   15.2236   -7.4177   25.1218 C   0  0  0  0  0  0  0  0  0  0  0  0
   15.6829   -8.6266   24.7984 N   0  0  0  0  0  0  0  0  0  0  0  0
   16.9131   -8.4947   24.3195 C   0  0  0  0  0  0  0  0  0  0  0  0
   17.8430   -9.4170   23.8426 C   0  0  0  0  0  0  0  0  0  0  0  0
   19.0850   -8.9703   23.3932 C   0  0  0  0  0  0  0  0  0  0  0  0
   19.3921   -7.6087   23.4218 C   0  0  0  0  0  0  0  0  0  0  0  0
   18.4603   -6.6888   23.9020 C   0  0  0  0  0  0  0  0  0  0  0  0
   17.2198   -7.1385   24.3506 C   0  0  0  0  0  0  0  0  0  0  0  0
   16.1595   -6.5092   24.8468 N   0  0  0  0  0  0  0  0  0  0  0  0
   15.1921   -9.4743   24.8981 H   0  0  0  0  0  0  0  0  0  0  0  0
 10 11  2  0  0  0
 11 12  1  0  0  0
 11 17  1  0  0  0
 12 13  2  0  0  0
 13 14  1  0  0  0
 13 15  1  0  0  0
 15 16  2  0  0  0
 16 17  1  0  0  0
 17  1  1  0  0  0
  1  2  1  0  0  0
  1  3  1  0  0  0
  2  7  1  0  0  0
  3  4  1  0  0  0
  3  5  1  0  0  0
  5  6  1  0  0  0
  5  7  1  0  0  0
  7 20  1  0  0  0
 20 21  1  0  0  0
 21 22  1  0  0  0
 22 23  2  0  0  0
 22 25  1  0  0  0
 25 26  1  0  0  0
 26 27  1  0  0  0
 27 28  1  0  0  0
 27 35  2  0  0  0
 28 29  1  0  0  0
 29 30  1  0  0  0
 29 34  2  0  0  0
 30 31  2  0  0  0
 31 32  1  0  0  0
 32 33  2  0  0  0
 33 34  1  0  0  0
 34 35  1  0  0  0
 14 18  1  0  0  0
 14 19  1  0  0  0
  4  8  1  0  0  0
  6  9  1  0  0  0
 21 24  1  0  0  0
 28 36  1  0  0  0
M  END
> <minimizedAffinity>
-9.42742

$$$$
2V2Q_NVG_A_1274


 36 39  0  0  0  0  0  0  0  0999 V2000
   13.3076   -6.3057   20.5070 C   0  0  0  0  0  0  0  0  0  0  0  0
   12.7521   -6.8988   21.7389 O   0  0  0  0  0  0  0  0  0  0  0  0
   12.1075   -5.6567   19.7786 C   0  0  0  0  0  0  0  0  0  0  0  0
   12.1682   -4.2263   19.9179 O   0  0  0  0  0  0  0  0  0  0  0  0
   10.8658   -6.1995   20.4838 C   0  0  0  0  0  0  0  0  0  0  0  0
   10.2884   -5.1288   21.2229 O   0  0  0  0  0  0  0  0  0  0  0  0
   11.4015   -7.3218   21.4127 C   0  0  0  0  0  0  0  0  0  0  0  0
   12.1745   -3.9932   20.8594 H   0  0  0  0  0  0  0  0  0  0  0  0
   10.9505   -4.7598   21.8282 H   0  0  0  0  0  0  0  0  0  0  0  0
   15.7589   -7.6380   21.1791 O   0  0  0  0  0  0  0  0  0  0  0  0
   15.2691   -7.9025   20.0775 C   0  0  0  0  0  0  0  0  0  0  0  0
   15.9018   -8.7866   19.2741 N   0  0  0  0  0  0  0  0  0  0  0  0
   15.4145   -9.1244   18.0662 C   0  0  0  0  0  0  0  0  0  0  0  0
   16.0616   -9.9988   17.3028 N   0  0  0  0  0  0  0  0  0  0  0  0
   14.2279   -8.5633   17.5918 C   0  0  0  0  0  0  0  0  0  0  0  0
   13.5403   -7.6476   18.3779 C   0  0  0  0  0  0  0  0  0  0  0  0
   14.0545   -7.2949   19.6427 N   0  0  0  0  0  0  0  0  0  0  0  0
   16.9001  -10.4045   17.6215 H   0  0  0  0  0  0  0  0  0  0  0  0
   15.7025  -10.2408   16.4187 H   0  0  0  0  0  0  0  0  0  0  0  0
   10.6493   -7.6823   22.7375 C   0  0  0  0  0  0  0  0  0  0  0  0
   11.4979   -7.4545   23.9216 N   0  0  0  0  0  0  0  0  0  0  0  0
   11.8743   -8.4280   24.7551 C   0  0  0  0  0  0  0  0  0  0  0  0
   11.5576   -9.6107   24.6287 O   0  0  0  0  0  0  0  0  0  0  0  0
   11.8031   -6.5371   24.1076 H   0  0  0  0  0  0  0  0  0  0  0  0
   12.7578   -7.9838   25.9336 C   0  0  0  0  0  0  0  0  0  0  0  0
   14.1740   -7.5689   25.5052 C   0  0  0  0  0  0  0  0  0  0  0  0
   15.2332   -8.5267   26.0570 C   0  0  0  0  0  0  0  0  0  0  0  0
   16.1907   -8.2048   26.9269 N   0  0  0  0  0  0  0  0  0  0  0  0
   16.9162   -9.2879   27.1733 C   0  0  0  0  0  0  0  0  0  0  0  0
   18.0232   -9.5155   27.9892 C   0  0  0  0  0  0  0  0  0  0  0  0
   18.5841  -10.7908   28.0458 C   0  0  0  0  0  0  0  0  0  0  0  0
   18.0388  -11.8301   27.2898 C   0  0  0  0  0  0  0  0  0  0  0  0
   16.9328  -11.5982   26.4725 C   0  0  0  0  0  0  0  0  0  0  0  0
   16.3746  -10.3224   26.4179 C   0  0  0  0  0  0  0  0  0  0  0  0
   15.3431   -9.8187   25.7479 N   0  0  0  0  0  0  0  0  0  0  0  0
   16.3351   -7.3139   27.3201 H   0  0  0  0  0  0  0  0  0  0  0  0
 10 11  2  0  0  0
 11 12  1  0  0  0
 11 17  1  0  0  0
 12 13  2  0  0  0
 13 14  1  0  0  0
 13 15  1  0  0  0
 15 16  2  0  0  0
 16 17  1  0  0  0
 17  1  1  0  0  0
  1  2  1  0  0  0
  1  3  1  0  0  0
  2  7  1  0  0  0
  3  4  1  0  0  0
  3  5  1  0  0  0
  5  6  1  0  0  0
  5  7  1  0  0  0
  7 20  1  0  0  0
 20 21  1  0  0  0
 21 22  1  0  0  0
 22 23  2  0  0  0
 22 25  1  0  0  0
 25 26  1  0  0  0
 26 27  1  0  0  0
 27 28  1  0  0  0
 27 35  2  0  0  0
 28 29  1  0  0  0
 29 30  1  0  0  0
 29 34  2  0  0  0
 30 31  2  0  0  0
 31 32  1  0  0  0
 32 33  2  0  0  0
 33 34  1  0  0  0
 34 35  1  0  0  0
 14 18  1  0  0  0
 14 19  1  0  0  0
  4  8  1  0  0  0
  6  9  1  0  0  0
 21 24  1  0  0  0
 28 36  1  0  0  0
M  END
> <minimizedAffinity>
-9.36929

$$$$
2V2Q_NVG_A_1274


 36 39  0  0  0  0  0  0  0  0999 V2000
   16.3346   -7.0138   20.4092 C   0  0  0  0  0  0  0  0  0  0  0  0
   16.8851   -7.8319   21.5073 O   0  0  0  0  0  0  0  0  0  0  0  0
   15.2974   -6.0746   21.0683 C   0  0  0  0  0  0  0  0  0  0  0  0
   15.8294   -4.7406   21.1484 O   0  0  0  0  0  0  0  0  0  0  0  0
   15.0787   -6.6365   22.4720 C   0  0  0  0  0  0  0  0  0  0  0  0
   15.6690   -5.7284   23.3956 O   0  0  0  0  0  0  0  0  0  0  0  0
   15.8058   -8.0079   22.4631 C   0  0  0  0  0  0  0  0  0  0  0  0
   16.6595   -4.7531   21.6500 H   0  0  0  0  0  0  0  0  0  0  0  0
   16.6031   -5.5983   23.1689 H   0  0  0  0  0  0  0  0  0  0  0  0
   17.6121   -9.2014   19.0609 O   0  0  0  0  0  0  0  0  0  0  0  0
   16.4768   -8.9031   18.6794 C   0  0  0  0  0  0  0  0  0  0  0  0
   15.9158   -9.6117   17.6742 N   0  0  0  0  0  0  0  0  0  0  0  0
   14.6782   -9.3426   17.2195 C   0  0  0  0  0  0  0  0  0  0  0  0
   14.1565  -10.0609   16.2306 N   0  0  0  0  0  0  0  0  0  0  0  0
   13.9233   -8.3070   17.7719 C   0  0  0  0  0  0  0  0  0  0  0  0
   14.4550   -7.5471   18.8059 C   0  0  0  0  0  0  0  0  0  0  0  0
   15.7526   -7.8309   19.2791 N   0  0  0  0  0  0  0  0  0  0  0  0
   14.6749  -10.7953   15.8291 H   0  0  0  0  0  0  0  0  0  0  0  0
   13.2517   -9.8587   15.8996 H   0  0  0  0  0  0  0  0  0  0  0  0
   16.3928   -8.6038   23.7864 C   0  0  0  0  0  0  0  0  0  0  0  0
   15.3753   -8.6634   24.8520 N   0  0  0  0  0  0  0  0  0  0  0  0
   15.3053   -7.7811   25.8523 C   0  0  0  0  0  0  0  0  0  0  0  0
   16.0743   -6.8306   25.9942 O   0  0  0  0  0  0  0  0  0  0  0  0
   14.7132   -9.3914   24.8247 H   0  0  0  0  0  0  0  0  0  0  0  0
   14.1718   -8.0192   26.8649 C   0  0  0  0  0  0  0  0  0  0  0  0
   13.2024   -9.1321   26.4374 C   0  0  0  0  0  0  0  0  0  0  0  0
   12.2679   -8.6663   25.3178 C   0  0  0  0  0  0  0  0  0  0  0  0
   11.8071   -9.4287   24.3260 N   0  0  0  0  0  0  0  0  0  0  0  0
   11.0275   -8.6852   23.5517 C   0  0  0  0  0  0  0  0  0  0  0  0
   10.3028   -8.9677   22.3949 C   0  0  0  0  0  0  0  0  0  0  0  0
    9.5561   -7.9583   21.7887 C   0  0  0  0  0  0  0  0  0  0  0  0
    9.5362   -6.6751   22.3384 C   0  0  0  0  0  0  0  0  0  0  0  0
   10.2645   -6.3953   23.4945 C   0  0  0  0  0  0  0  0  0  0  0  0
   11.0101   -7.4064   24.0980 C   0  0  0  0  0  0  0  0  0  0  0  0
   11.7803   -7.4333   25.1808 N   0  0  0  0  0  0  0  0  0  0  0  0
   12.0110  -10.3824   24.1910 H   0  0  0  0  0  0  0  0  0  0  0  0
 10 11  2  0  0  0
 11 12  1  0  0  0
 11 17  1  0  0  0
 12 13  2  0  0  0
 13 14  1  0  0  0
 13 15  1  0  0  0
 15 16  2  0  0  0
 16 17  1  0  0  0
 17  1  1  0  0  0
  1  2  1  0  0  0
  1  3  1  0  0  0
  2  7  1  0  0  0
  3  4  1  0  0  0
  3  5  1  0  0  0
  5  6  1  0  0  0
  5  7  1  0  0  0
  7 20  1  0  0  0
 20 21  1  0  0  0
 21 22  1  0  0  0
 22 23  2  0  0  0
 22 25  1  0  0  0
 25 26  1  0  0  0
 26 27  1  0  0  0
 27 28  1  0  0  0
 27 35  2  0  0  0
 28 29  1  0  0  0
 29 30  1  0  0  0
 29 34  2  0  0  0
 30 31  2  0  0  0
 31 32  1  0  0  0
 32 33  2  0  0  0
 33 34  1  0  0  0
 34 35  1  0  0  0
 14 18  1  0  0  0
 14 19  1  0  0  0
  4  8  1  0  0  0
  6  9  1  0  0  0
 21 24  1  0  0  0
 28 36  1  0  0  0
M  END
> <minimizedAffinity>
-9.33259

$$$$
