4U71_Q03_A_404


 16 16  0  0  0  0  0  0  0  0999 V2000
    0.0755   -3.9271   13.9718 C   0  0  0  0  0  0  0  0  0  0  0  0
   -0.9923   -3.1973   14.6155 N   0  0  0  0  0  0  0  0  0  0  0  0
   -1.6650   -2.8892   13.9133 H   0  0  0  0  0  0  0  0  0  0  0  0
   -0.6069   -2.3847   15.0967 H   0  0  0  0  0  0  0  0  0  0  0  0
    1.4128   -1.6255   13.5488 O   0  0  0  0  0  0  0  0  0  0  0  0
    0.9241   -2.8073   12.7989 P   0  0  0  0  0  0  0  0  0  0  0  0
   -0.2946   -2.3649   11.8160 O   0  0  0  0  0  0  0  0  0  0  0  0
    2.0130   -3.5790   11.9385 O   0  0  0  0  0  0  0  0  0  0  0  0
    1.8658   -1.0211   12.9402 H   0  0  0  0  0  0  0  0  0  0  0  0
    0.0410   -1.7576   11.1381 H   0  0  0  0  0  0  0  0  0  0  0  0
   -0.2756   -5.3117   13.3759 C   0  0  0  0  0  0  0  0  0  0  0  0
   -1.7597   -5.4771   13.1368 C   0  0  0  0  0  0  0  0  0  0  0  0
   -2.0400   -6.7742   12.4380 C   0  0  0  0  0  0  0  0  0  0  0  0
   -1.1422   -7.9265   12.7931 C   0  0  0  0  0  0  0  0  0  0  0  0
    0.2807   -7.6379   13.0557 C   0  0  0  0  0  0  0  0  0  0  0  0
    0.3036   -6.4707   14.0051 C   0  0  0  0  0  0  0  0  0  0  0  0
  8  6  2  0  0  0
 13 12  1  0  0  0
 13 14  1  0  0  0
 12 11  1  0  0  0
 14 15  1  0  0  0
  5  6  1  0  0  0
  6  7  1  0  0  0
  6  1  1  0  0  0
 11  1  1  0  0  0
 11 16  1  0  0  0
 15 16  1  0  0  0
  1  2  1  0  0  0
  5  9  1  0  0  0
  7 10  1  0  0  0
  2  3  1  0  0  0
  2  4  1  0  0  0
M  END
> <minimizedAffinity>
-8.18979

$$$$
4U71_Q03_A_404


 16 16  0  0  0  0  0  0  0  0999 V2000
    0.3383   -4.6408   12.2986 C   0  0  0  0  0  0  0  0  0  0  0  0
    1.6680   -4.6797   11.7350 N   0  0  0  0  0  0  0  0  0  0  0  0
    2.3379   -4.9324   12.4615 H   0  0  0  0  0  0  0  0  0  0  0  0
    1.9047   -3.7617   11.3586 H   0  0  0  0  0  0  0  0  0  0  0  0
    0.7039   -2.0668   13.0095 O   0  0  0  0  0  0  0  0  0  0  0  0
    0.2953   -3.3609   13.6061 P   0  0  0  0  0  0  0  0  0  0  0  0
    1.4522   -3.8825   14.6243 O   0  0  0  0  0  0  0  0  0  0  0  0
   -1.0932   -3.3593   14.3766 O   0  0  0  0  0  0  0  0  0  0  0  0
    0.6863   -1.3767   13.6910 H   0  0  0  0  0  0  0  0  0  0  0  0
    1.5231   -3.2708   15.3738 H   0  0  0  0  0  0  0  0  0  0  0  0
   -0.2887   -5.9914   12.7208 C   0  0  0  0  0  0  0  0  0  0  0  0
    0.7545   -7.0149   13.1099 C   0  0  0  0  0  0  0  0  0  0  0  0
    0.1024   -8.2581   13.6376 C   0  0  0  0  0  0  0  0  0  0  0  0
   -1.2104   -8.6361   13.0102 C   0  0  0  0  0  0  0  0  0  0  0  0
   -2.1296   -7.5486   12.6238 C   0  0  0  0  0  0  0  0  0  0  0  0
   -1.3010   -6.5500   11.8619 C   0  0  0  0  0  0  0  0  0  0  0  0
  8  6  2  0  0  0
 13 12  1  0  0  0
 13 14  1  0  0  0
 12 11  1  0  0  0
 14 15  1  0  0  0
  5  6  1  0  0  0
  6  7  1  0  0  0
  6  1  1  0  0  0
 11  1  1  0  0  0
 11 16  1  0  0  0
 15 16  1  0  0  0
  1  2  1  0  0  0
  5  9  1  0  0  0
  7 10  1  0  0  0
  2  3  1  0  0  0
  2  4  1  0  0  0
M  END
> <minimizedAffinity>
-7.54207

$$$$
4U71_Q03_A_404


 16 16  0  0  0  0  0  0  0  0999 V2000
    0.2641   -4.5817   12.1465 C   0  0  0  0  0  0  0  0  0  0  0  0
    1.6561   -4.1950   12.1453 N   0  0  0  0  0  0  0  0  0  0  0  0
    2.0127   -4.2053   13.1009 H   0  0  0  0  0  0  0  0  0  0  0  0
    1.7477   -3.2557   11.7584 H   0  0  0  0  0  0  0  0  0  0  0  0
   -1.8689   -2.9476   12.3577 O   0  0  0  0  0  0  0  0  0  0  0  0
   -0.6791   -3.3656   13.1370 P   0  0  0  0  0  0  0  0  0  0  0  0
    0.3713   -2.1272   13.2368 O   0  0  0  0  0  0  0  0  0  0  0  0
   -0.9670   -3.9038   14.6030 O   0  0  0  0  0  0  0  0  0  0  0  0
   -2.3804   -2.3019   12.8699 H   0  0  0  0  0  0  0  0  0  0  0  0
   -0.0261   -1.4068   13.7507 H   0  0  0  0  0  0  0  0  0  0  0  0
   -0.0581   -6.0562   12.4894 C   0  0  0  0  0  0  0  0  0  0  0  0
   -1.5283   -6.3759   12.3358 C   0  0  0  0  0  0  0  0  0  0  0  0
   -1.7744   -7.8402   12.5469 C   0  0  0  0  0  0  0  0  0  0  0  0
   -0.8980   -8.5207   13.5612 C   0  0  0  0  0  0  0  0  0  0  0  0
    0.5100   -8.0903   13.6568 C   0  0  0  0  0  0  0  0  0  0  0  0
    0.4861   -6.5868   13.7129 C   0  0  0  0  0  0  0  0  0  0  0  0
  8  6  2  0  0  0
 13 12  1  0  0  0
 13 14  1  0  0  0
 12 11  1  0  0  0
 14 15  1  0  0  0
  5  6  1  0  0  0
  6  7  1  0  0  0
  6  1  1  0  0  0
 11  1  1  0  0  0
 11 16  1  0  0  0
 15 16  1  0  0  0
  1  2  1  0  0  0
  5  9  1  0  0  0
  7 10  1  0  0  0
  2  3  1  0  0  0
  2  4  1  0  0  0
M  END
> <minimizedAffinity>
-7.26719

$$$$
4U71_Q03_A_404


 16 16  0  0  0  0  0  0  0  0999 V2000
    1.4261   -2.6577   12.3848 C   0  0  0  0  0  0  0  0  0  0  0  0
    1.4267   -1.7506   13.5092 N   0  0  0  0  0  0  0  0  0  0  0  0
    1.8985   -2.1894   14.2999 H   0  0  0  0  0  0  0  0  0  0  0  0
    0.4653   -1.5286   13.7675 H   0  0  0  0  0  0  0  0  0  0  0  0
    1.1000   -5.3219   12.1389 O   0  0  0  0  0  0  0  0  0  0  0  0
    0.5038   -4.1676   12.8530 P   0  0  0  0  0  0  0  0  0  0  0  0
   -0.9754   -3.8575   12.2507 O   0  0  0  0  0  0  0  0  0  0  0  0
    0.3870   -4.3155   14.4297 O   0  0  0  0  0  0  0  0  0  0  0  0
    0.6215   -6.1315   12.3767 H   0  0  0  0  0  0  0  0  0  0  0  0
   -1.5651   -4.6037   12.4415 H   0  0  0  0  0  0  0  0  0  0  0  0
    2.7877   -2.9391   11.7047 C   0  0  0  0  0  0  0  0  0  0  0  0
    3.9598   -2.5534   12.5792 C   0  0  0  0  0  0  0  0  0  0  0  0
    5.2526   -2.9646   11.9399 C   0  0  0  0  0  0  0  0  0  0  0  0
    5.3025   -2.8939   10.4390 C   0  0  0  0  0  0  0  0  0  0  0  0
    4.0806   -3.2449    9.6903 C   0  0  0  0  0  0  0  0  0  0  0  0
    2.9556   -2.4910   10.3462 C   0  0  0  0  0  0  0  0  0  0  0  0
  8  6  2  0  0  0
 13 12  1  0  0  0
 13 14  1  0  0  0
 12 11  1  0  0  0
 14 15  1  0  0  0
  5  6  1  0  0  0
  6  7  1  0  0  0
  6  1  1  0  0  0
 11  1  1  0  0  0
 11 16  1  0  0  0
 15 16  1  0  0  0
  1  2  1  0  0  0
  5  9  1  0  0  0
  7 10  1  0  0  0
  2  3  1  0  0  0
  2  4  1  0  0  0
M  END
> <minimizedAffinity>
-5.79135

$$$$
4U71_Q03_A_404


 16 16  0  0  0  0  0  0  0  0999 V2000
    3.3267   -2.6512   11.3430 C   0  0  0  0  0  0  0  0  0  0  0  0
    4.4303   -2.7048   12.2738 N   0  0  0  0  0  0  0  0  0  0  0  0
    4.5310   -3.6563   12.6273 H   0  0  0  0  0  0  0  0  0  0  0  0
    4.2500   -2.0703   13.0518 H   0  0  0  0  0  0  0  0  0  0  0  0
    0.7380   -2.1299   11.8831 O   0  0  0  0  0  0  0  0  0  0  0  0
    1.7928   -3.1127   12.2284 P   0  0  0  0  0  0  0  0  0  0  0  0
    2.2317   -2.9193   13.7831 O   0  0  0  0  0  0  0  0  0  0  0  0
    1.4197   -4.6383   11.9944 O   0  0  0  0  0  0  0  0  0  0  0  0
   -0.0829   -2.3609   12.3452 H   0  0  0  0  0  0  0  0  0  0  0  0
    1.4836   -3.1395   14.3600 H   0  0  0  0  0  0  0  0  0  0  0  0
    3.5114   -3.3751    9.9874 C   0  0  0  0  0  0  0  0  0  0  0  0
    4.5143   -4.5041   10.0685 C   0  0  0  0  0  0  0  0  0  0  0  0
    4.5630   -5.2602    8.7742 C   0  0  0  0  0  0  0  0  0  0  0  0
    4.3517   -4.4511    7.5249 C   0  0  0  0  0  0  0  0  0  0  0  0
    3.3835   -3.3391    7.5780 C   0  0  0  0  0  0  0  0  0  0  0  0
    3.7121   -2.5557    8.8200 C   0  0  0  0  0  0  0  0  0  0  0  0
  8  6  2  0  0  0
 13 12  1  0  0  0
 13 14  1  0  0  0
 12 11  1  0  0  0
 14 15  1  0  0  0
  5  6  1  0  0  0
  6  7  1  0  0  0
  6  1  1  0  0  0
 11  1  1  0  0  0
 11 16  1  0  0  0
 15 16  1  0  0  0
  1  2  1  0  0  0
  5  9  1  0  0  0
  7 10  1  0  0  0
  2  3  1  0  0  0
  2  4  1  0  0  0
M  END
> <minimizedAffinity>
-5.24240

$$$$
