4PF5_M3N_A_303


 23 24  0  0  0  0  0  0  0  0999 V2000
  -15.3976  -11.8669  -32.8763 C   0  0  0  0  0  0  0  0  0  0  0  0
  -14.3149  -12.5471  -32.0653 C   0  0  0  0  0  0  0  0  0  0  0  0
  -14.8996  -13.1097  -30.9067 O   0  0  0  0  0  0  0  0  0  0  0  0
  -13.6216  -13.6208  -32.8535 C   0  0  0  0  0  0  0  0  0  0  0  0
  -12.7645  -14.3360  -32.0045 O   0  0  0  0  0  0  0  0  0  0  0  0
  -14.6009  -14.5560  -33.5341 C   0  0  0  0  0  0  0  0  0  0  0  0
  -13.8845  -15.4093  -34.4151 O   0  0  0  0  0  0  0  0  0  0  0  0
  -15.5904  -13.7777  -34.3767 C   0  0  0  0  0  0  0  0  0  0  0  0
  -16.2053  -12.7677  -33.6489 O   0  0  0  0  0  0  0  0  0  0  0  0
  -15.5619  -13.7692  -31.1665 H   0  0  0  0  0  0  0  0  0  0  0  0
  -13.2836  -14.7592  -31.3029 H   0  0  0  0  0  0  0  0  0  0  0  0
  -13.4301  -14.8746  -35.0848 H   0  0  0  0  0  0  0  0  0  0  0  0
  -15.1084   -8.8824  -34.9271 C   0  0  0  0  0  0  0  0  0  0  0  0
  -15.8401   -9.9616  -34.4463 C   0  0  0  0  0  0  0  0  0  0  0  0
  -15.0401  -10.6982  -33.6385 N   0  0  0  0  0  0  0  0  0  0  0  0
  -13.8439  -10.0539  -33.5822 N   0  0  0  0  0  0  0  0  0  0  0  0
  -13.8918   -8.9447  -34.3906 N   0  0  0  0  0  0  0  0  0  0  0  0
  -15.6226   -7.7969  -35.8830 C   0  0  0  0  0  0  0  0  0  0  0  0
  -14.4992   -6.9570  -36.1155 O   0  0  0  0  0  0  0  0  0  0  0  0
  -13.7727   -7.4834  -36.4844 H   0  0  0  0  0  0  0  0  0  0  0  0
  -16.7062  -14.7558  -34.8308 C   0  0  0  0  0  0  0  0  0  0  0  0
  -16.2009  -15.5285  -35.9470 O   0  0  0  0  0  0  0  0  0  0  0  0
  -15.4098  -16.0169  -35.6703 H   0  0  0  0  0  0  0  0  0  0  0  0
 21 22  1  0  0  0
 21  8  1  0  0  0
  7  6  1  0  0  0
  8  6  1  0  0  0
  8  9  1  0  0  0
  6  4  1  0  0  0
  9  1  1  0  0  0
 19 18  1  0  0  0
  4  5  1  0  0  0
  4  2  1  0  0  0
 14 15  1  0  0  0
 14 13  2  0  0  0
 18 13  1  0  0  0
  1  2  1  0  0  0
  1 15  1  0  0  0
  2  3  1  0  0  0
 15 16  1  0  0  0
 13 17  1  0  0  0
 16 17  2  0  0  0
  3 10  1  0  0  0
  5 11  1  0  0  0
  7 12  1  0  0  0
 22 23  1  0  0  0
 19 20  1  0  0  0
M  END
> <minimizedAffinity>
-7.00609

$$$$
4PF5_M3N_A_303


 23 24  0  0  0  0  0  0  0  0999 V2000
  -14.0907  -15.0436  -31.0006 C   0  0  0  0  0  0  0  0  0  0  0  0
  -12.7259  -15.4757  -30.5072 C   0  0  0  0  0  0  0  0  0  0  0  0
  -12.4324  -14.7785  -29.3120 O   0  0  0  0  0  0  0  0  0  0  0  0
  -12.6683  -16.9550  -30.2561 C   0  0  0  0  0  0  0  0  0  0  0  0
  -11.4532  -17.2699  -29.6305 O   0  0  0  0  0  0  0  0  0  0  0  0
  -13.8382  -17.4421  -29.4250 C   0  0  0  0  0  0  0  0  0  0  0  0
  -13.8259  -18.8623  -29.4024 O   0  0  0  0  0  0  0  0  0  0  0  0
  -15.1529  -17.0193  -30.0477 C   0  0  0  0  0  0  0  0  0  0  0  0
  -15.1870  -15.6551  -30.3043 O   0  0  0  0  0  0  0  0  0  0  0  0
  -13.0959  -14.9968  -28.6390 H   0  0  0  0  0  0  0  0  0  0  0  0
  -11.4013  -16.8130  -28.7764 H   0  0  0  0  0  0  0  0  0  0  0  0
  -13.9098  -19.2008  -30.3075 H   0  0  0  0  0  0  0  0  0  0  0  0
  -15.2723  -15.0752  -34.4357 C   0  0  0  0  0  0  0  0  0  0  0  0
  -15.4757  -15.2873  -33.0775 C   0  0  0  0  0  0  0  0  0  0  0  0
  -14.3207  -15.0193  -32.4223 N   0  0  0  0  0  0  0  0  0  0  0  0
  -13.4296  -14.5989  -33.3596 N   0  0  0  0  0  0  0  0  0  0  0  0
  -14.0211  -14.6509  -34.5980 N   0  0  0  0  0  0  0  0  0  0  0  0
  -16.3148  -15.2681  -35.5458 C   0  0  0  0  0  0  0  0  0  0  0  0
  -16.7839  -16.5994  -35.3749 O   0  0  0  0  0  0  0  0  0  0  0  0
  -17.1479  -16.7018  -34.4817 H   0  0  0  0  0  0  0  0  0  0  0  0
  -16.2840  -17.3194  -29.0288 C   0  0  0  0  0  0  0  0  0  0  0  0
  -16.7930  -18.6483  -29.2994 O   0  0  0  0  0  0  0  0  0  0  0  0
  -16.0743  -19.2938  -29.2124 H   0  0  0  0  0  0  0  0  0  0  0  0
 21 22  1  0  0  0
 21  8  1  0  0  0
  7  6  1  0  0  0
  8  6  1  0  0  0
  8  9  1  0  0  0
  6  4  1  0  0  0
  9  1  1  0  0  0
 19 18  1  0  0  0
  4  5  1  0  0  0
  4  2  1  0  0  0
 14 15  1  0  0  0
 14 13  2  0  0  0
 18 13  1  0  0  0
  1  2  1  0  0  0
  1 15  1  0  0  0
  2  3  1  0  0  0
 15 16  1  0  0  0
 13 17  1  0  0  0
 16 17  2  0  0  0
  3 10  1  0  0  0
  5 11  1  0  0  0
  7 12  1  0  0  0
 22 23  1  0  0  0
 19 20  1  0  0  0
M  END
> <minimizedAffinity>
-6.72082

$$$$
4PF5_M3N_A_303


 23 24  0  0  0  0  0  0  0  0999 V2000
  -14.1220  -14.1817  -31.3538 C   0  0  0  0  0  0  0  0  0  0  0  0
  -12.7416  -13.6320  -31.0620 C   0  0  0  0  0  0  0  0  0  0  0  0
  -12.8010  -12.8564  -29.8806 O   0  0  0  0  0  0  0  0  0  0  0  0
  -11.7301  -14.7292  -30.8955 C   0  0  0  0  0  0  0  0  0  0  0  0
  -10.5208  -14.1778  -30.4478 O   0  0  0  0  0  0  0  0  0  0  0  0
  -12.2071  -15.8105  -29.9470 C   0  0  0  0  0  0  0  0  0  0  0  0
  -11.2975  -16.9003  -29.9980 O   0  0  0  0  0  0  0  0  0  0  0  0
  -13.5603  -16.3413  -30.3738 C   0  0  0  0  0  0  0  0  0  0  0  0
  -14.4818  -15.3185  -30.5545 O   0  0  0  0  0  0  0  0  0  0  0  0
  -13.0818  -13.4164  -29.1400 H   0  0  0  0  0  0  0  0  0  0  0  0
  -10.6577  -13.7554  -29.5854 H   0  0  0  0  0  0  0  0  0  0  0  0
  -11.2665  -17.2535  -30.9009 H   0  0  0  0  0  0  0  0  0  0  0  0
  -15.6279  -14.8332  -34.5950 C   0  0  0  0  0  0  0  0  0  0  0  0
  -15.6441  -14.9147  -33.2077 C   0  0  0  0  0  0  0  0  0  0  0  0
  -14.4996  -14.3686  -32.7312 N   0  0  0  0  0  0  0  0  0  0  0  0
  -13.8081  -13.9109  -33.8090 N   0  0  0  0  0  0  0  0  0  0  0  0
  -14.5048  -14.2149  -34.9528 N   0  0  0  0  0  0  0  0  0  0  0  0
  -16.7245  -15.3401  -35.5420 C   0  0  0  0  0  0  0  0  0  0  0  0
  -16.7511  -16.7480  -35.3450 O   0  0  0  0  0  0  0  0  0  0  0  0
  -16.9286  -16.9404  -34.4110 H   0  0  0  0  0  0  0  0  0  0  0  0
  -14.1011  -17.2455  -29.2347 C   0  0  0  0  0  0  0  0  0  0  0  0
  -13.7725  -18.6193  -29.5557 O   0  0  0  0  0  0  0  0  0  0  0  0
  -12.8103  -18.7110  -29.6375 H   0  0  0  0  0  0  0  0  0  0  0  0
 21 22  1  0  0  0
 21  8  1  0  0  0
  7  6  1  0  0  0
  8  6  1  0  0  0
  8  9  1  0  0  0
  6  4  1  0  0  0
  9  1  1  0  0  0
 19 18  1  0  0  0
  4  5  1  0  0  0
  4  2  1  0  0  0
 14 15  1  0  0  0
 14 13  2  0  0  0
 18 13  1  0  0  0
  1  2  1  0  0  0
  1 15  1  0  0  0
  2  3  1  0  0  0
 15 16  1  0  0  0
 13 17  1  0  0  0
 16 17  2  0  0  0
  3 10  1  0  0  0
  5 11  1  0  0  0
  7 12  1  0  0  0
 22 23  1  0  0  0
 19 20  1  0  0  0
M  END
> <minimizedAffinity>
-6.64326

$$$$
4PF5_M3N_A_303


 23 24  0  0  0  0  0  0  0  0999 V2000
  -14.8257  -15.9686  -31.9691 C   0  0  0  0  0  0  0  0  0  0  0  0
  -14.4471  -15.8343  -33.4290 C   0  0  0  0  0  0  0  0  0  0  0  0
  -15.5938  -16.0775  -34.2207 O   0  0  0  0  0  0  0  0  0  0  0  0
  -13.8998  -14.4706  -33.7383 C   0  0  0  0  0  0  0  0  0  0  0  0
  -13.7411  -14.3408  -35.1256 O   0  0  0  0  0  0  0  0  0  0  0  0
  -14.7799  -13.3624  -33.1959 C   0  0  0  0  0  0  0  0  0  0  0  0
  -14.1025  -12.1230  -33.3457 O   0  0  0  0  0  0  0  0  0  0  0  0
  -15.0334  -13.5537  -31.7146 C   0  0  0  0  0  0  0  0  0  0  0  0
  -15.5110  -14.8267  -31.4332 O   0  0  0  0  0  0  0  0  0  0  0  0
  -16.2774  -15.4225  -34.0095 H   0  0  0  0  0  0  0  0  0  0  0  0
  -14.6042  -14.4289  -35.5595 H   0  0  0  0  0  0  0  0  0  0  0  0
  -13.2703  -12.1471  -32.8480 H   0  0  0  0  0  0  0  0  0  0  0  0
  -12.0173  -16.6629  -29.7717 C   0  0  0  0  0  0  0  0  0  0  0  0
  -12.6302  -15.8997  -30.7582 C   0  0  0  0  0  0  0  0  0  0  0  0
  -13.8283  -16.4590  -31.0528 N   0  0  0  0  0  0  0  0  0  0  0  0
  -13.9748  -17.5261  -30.2228 N   0  0  0  0  0  0  0  0  0  0  0  0
  -12.8478  -17.6515  -29.4480 N   0  0  0  0  0  0  0  0  0  0  0  0
  -10.6409  -16.3947  -29.1473 C   0  0  0  0  0  0  0  0  0  0  0  0
   -9.9134  -17.6007  -29.3422 O   0  0  0  0  0  0  0  0  0  0  0  0
   -9.8742  -17.8051  -30.2896 H   0  0  0  0  0  0  0  0  0  0  0  0
  -16.1342  -12.5487  -31.2835 C   0  0  0  0  0  0  0  0  0  0  0  0
  -16.9332  -12.2286  -32.4486 O   0  0  0  0  0  0  0  0  0  0  0  0
  -17.3303  -13.0402  -32.8012 H   0  0  0  0  0  0  0  0  0  0  0  0
 21 22  1  0  0  0
 21  8  1  0  0  0
  7  6  1  0  0  0
  8  6  1  0  0  0
  8  9  1  0  0  0
  6  4  1  0  0  0
  9  1  1  0  0  0
 19 18  1  0  0  0
  4  5  1  0  0  0
  4  2  1  0  0  0
 14 15  1  0  0  0
 14 13  2  0  0  0
 18 13  1  0  0  0
  1  2  1  0  0  0
  1 15  1  0  0  0
  2  3  1  0  0  0
 15 16  1  0  0  0
 13 17  1  0  0  0
 16 17  2  0  0  0
  3 10  1  0  0  0
  5 11  1  0  0  0
  7 12  1  0  0  0
 22 23  1  0  0  0
 19 20  1  0  0  0
M  END
> <minimizedAffinity>
-6.45765

$$$$
4PF5_M3N_A_303


 23 24  0  0  0  0  0  0  0  0999 V2000
  -16.2382  -12.7043  -33.0877 C   0  0  0  0  0  0  0  0  0  0  0  0
  -15.6064  -13.5151  -31.9759 C   0  0  0  0  0  0  0  0  0  0  0  0
  -16.6316  -14.1510  -31.2373 O   0  0  0  0  0  0  0  0  0  0  0  0
  -14.6555  -14.5465  -32.5113 C   0  0  0  0  0  0  0  0  0  0  0  0
  -14.2446  -15.3834  -31.4636 O   0  0  0  0  0  0  0  0  0  0  0  0
  -15.2644  -15.3595  -33.6361 C   0  0  0  0  0  0  0  0  0  0  0  0
  -14.2511  -16.1643  -34.2218 O   0  0  0  0  0  0  0  0  0  0  0  0
  -15.7974  -14.4532  -34.7268 C   0  0  0  0  0  0  0  0  0  0  0  0
  -16.6524  -13.4837  -34.2198 O   0  0  0  0  0  0  0  0  0  0  0  0
  -17.1284  -14.7463  -31.8201 H   0  0  0  0  0  0  0  0  0  0  0  0
  -15.0158  -15.8416  -31.0944 H   0  0  0  0  0  0  0  0  0  0  0  0
  -13.5510  -15.5948  -34.5774 H   0  0  0  0  0  0  0  0  0  0  0  0
  -15.1354   -9.4897  -34.3712 C   0  0  0  0  0  0  0  0  0  0  0  0
  -16.0764  -10.5092  -34.2903 C   0  0  0  0  0  0  0  0  0  0  0  0
  -15.5806  -11.4906  -33.4991 N   0  0  0  0  0  0  0  0  0  0  0  0
  -14.3688  -11.0599  -33.0570 N   0  0  0  0  0  0  0  0  0  0  0  0
  -14.0977   -9.8331  -33.6115 N   0  0  0  0  0  0  0  0  0  0  0  0
  -15.2813   -8.1877  -35.1711 C   0  0  0  0  0  0  0  0  0  0  0  0
  -15.5739   -8.6082  -36.4975 O   0  0  0  0  0  0  0  0  0  0  0  0
  -16.3775   -9.1514  -36.4946 H   0  0  0  0  0  0  0  0  0  0  0  0
  -16.6261  -15.3224  -35.7093 C   0  0  0  0  0  0  0  0  0  0  0  0
  -16.7469  -16.6505  -35.1438 O   0  0  0  0  0  0  0  0  0  0  0  0
  -17.1868  -16.5958  -34.2811 H   0  0  0  0  0  0  0  0  0  0  0  0
 21 22  1  0  0  0
 21  8  1  0  0  0
  7  6  1  0  0  0
  8  6  1  0  0  0
  8  9  1  0  0  0
  6  4  1  0  0  0
  9  1  1  0  0  0
 19 18  1  0  0  0
  4  5  1  0  0  0
  4  2  1  0  0  0
 14 15  1  0  0  0
 14 13  2  0  0  0
 18 13  1  0  0  0
  1  2  1  0  0  0
  1 15  1  0  0  0
  2  3  1  0  0  0
 15 16  1  0  0  0
 13 17  1  0  0  0
 16 17  2  0  0  0
  3 10  1  0  0  0
  5 11  1  0  0  0
  7 12  1  0  0  0
 22 23  1  0  0  0
 19 20  1  0  0  0
M  END
> <minimizedAffinity>
-6.39612

$$$$
4PF5_M3N_A_303


 23 24  0  0  0  0  0  0  0  0999 V2000
  -16.9579  -13.6899  -32.3834 C   0  0  0  0  0  0  0  0  0  0  0  0
  -15.8501  -14.3832  -31.6186 C   0  0  0  0  0  0  0  0  0  0  0  0
  -16.3552  -15.5893  -31.0791 O   0  0  0  0  0  0  0  0  0  0  0  0
  -14.6687  -14.6787  -32.4972 C   0  0  0  0  0  0  0  0  0  0  0  0
  -13.7577  -15.4784  -31.7919 O   0  0  0  0  0  0  0  0  0  0  0  0
  -15.0722  -15.3478  -33.7957 C   0  0  0  0  0  0  0  0  0  0  0  0
  -13.9405  -15.4092  -34.6518 O   0  0  0  0  0  0  0  0  0  0  0  0
  -16.1288  -14.5339  -34.5141 C   0  0  0  0  0  0  0  0  0  0  0  0
  -17.2041  -14.2393  -33.6865 O   0  0  0  0  0  0  0  0  0  0  0  0
  -16.6517  -16.1668  -31.7999 H   0  0  0  0  0  0  0  0  0  0  0  0
  -14.1805  -16.3190  -31.5559 H   0  0  0  0  0  0  0  0  0  0  0  0
  -13.6253  -14.5105  -34.8361 H   0  0  0  0  0  0  0  0  0  0  0  0
  -17.4567  -10.1214  -32.8464 C   0  0  0  0  0  0  0  0  0  0  0  0
  -17.7164  -11.4413  -33.1954 C   0  0  0  0  0  0  0  0  0  0  0  0
  -16.9629  -12.2498  -32.4121 N   0  0  0  0  0  0  0  0  0  0  0  0
  -16.2836  -11.4403  -31.5562 N   0  0  0  0  0  0  0  0  0  0  0  0
  -16.5837  -10.1309  -31.8416 N   0  0  0  0  0  0  0  0  0  0  0  0
  -18.0875   -8.8772  -33.4870 C   0  0  0  0  0  0  0  0  0  0  0  0
  -18.0552   -9.1337  -34.8852 O   0  0  0  0  0  0  0  0  0  0  0  0
  -18.5390   -9.9528  -35.0749 H   0  0  0  0  0  0  0  0  0  0  0  0
  -16.6775  -15.3895  -35.6865 C   0  0  0  0  0  0  0  0  0  0  0  0
  -16.6496  -16.7799  -35.2810 O   0  0  0  0  0  0  0  0  0  0  0  0
  -17.1956  -16.8964  -34.4878 H   0  0  0  0  0  0  0  0  0  0  0  0
 21 22  1  0  0  0
 21  8  1  0  0  0
  7  6  1  0  0  0
  8  6  1  0  0  0
  8  9  1  0  0  0
  6  4  1  0  0  0
  9  1  1  0  0  0
 19 18  1  0  0  0
  4  5  1  0  0  0
  4  2  1  0  0  0
 14 15  1  0  0  0
 14 13  2  0  0  0
 18 13  1  0  0  0
  1  2  1  0  0  0
  1 15  1  0  0  0
  2  3  1  0  0  0
 15 16  1  0  0  0
 13 17  1  0  0  0
 16 17  2  0  0  0
  3 10  1  0  0  0
  5 11  1  0  0  0
  7 12  1  0  0  0
 22 23  1  0  0  0
 19 20  1  0  0  0
M  END
> <minimizedAffinity>
-5.93537

$$$$
4PF5_M3N_A_303


 23 24  0  0  0  0  0  0  0  0999 V2000
  -16.3489  -14.6392  -31.9762 C   0  0  0  0  0  0  0  0  0  0  0  0
  -14.9019  -14.9711  -31.6785 C   0  0  0  0  0  0  0  0  0  0  0  0
  -14.7932  -16.3615  -31.4422 O   0  0  0  0  0  0  0  0  0  0  0  0
  -13.9972  -14.5791  -32.8110 C   0  0  0  0  0  0  0  0  0  0  0  0
  -12.7080  -15.0727  -32.5639 O   0  0  0  0  0  0  0  0  0  0  0  0
  -14.5088  -15.0699  -34.1505 C   0  0  0  0  0  0  0  0  0  0  0  0
  -13.7209  -14.4936  -35.1823 O   0  0  0  0  0  0  0  0  0  0  0  0
  -15.9371  -14.6194  -34.3783 C   0  0  0  0  0  0  0  0  0  0  0  0
  -16.7611  -14.9592  -33.3135 O   0  0  0  0  0  0  0  0  0  0  0  0
  -15.0728  -16.8469  -32.2341 H   0  0  0  0  0  0  0  0  0  0  0  0
  -12.7360  -16.0411  -32.5168 H   0  0  0  0  0  0  0  0  0  0  0  0
  -13.7939  -13.5271  -35.1433 H   0  0  0  0  0  0  0  0  0  0  0  0
  -17.0514  -11.3282  -30.6567 C   0  0  0  0  0  0  0  0  0  0  0  0
  -16.2713  -12.4773  -30.7070 C   0  0  0  0  0  0  0  0  0  0  0  0
  -16.8462  -13.3503  -31.5686 N   0  0  0  0  0  0  0  0  0  0  0  0
  -17.9411  -12.7278  -32.0815 N   0  0  0  0  0  0  0  0  0  0  0  0
  -18.0666  -11.4888  -31.5026 N   0  0  0  0  0  0  0  0  0  0  0  0
  -16.7737  -10.0852  -29.7999 C   0  0  0  0  0  0  0  0  0  0  0  0
  -15.3590   -9.9440  -29.8142 O   0  0  0  0  0  0  0  0  0  0  0  0
  -15.0519   -9.8577  -30.7302 H   0  0  0  0  0  0  0  0  0  0  0  0
  -16.4796  -15.3609  -35.6287 C   0  0  0  0  0  0  0  0  0  0  0  0
  -16.7179  -16.7426  -35.2648 O   0  0  0  0  0  0  0  0  0  0  0  0
  -17.3608  -16.7797  -34.5395 H   0  0  0  0  0  0  0  0  0  0  0  0
 21 22  1  0  0  0
 21  8  1  0  0  0
  7  6  1  0  0  0
  8  6  1  0  0  0
  8  9  1  0  0  0
  6  4  1  0  0  0
  9  1  1  0  0  0
 19 18  1  0  0  0
  4  5  1  0  0  0
  4  2  1  0  0  0
 14 15  1  0  0  0
 14 13  2  0  0  0
 18 13  1  0  0  0
  1  2  1  0  0  0
  1 15  1  0  0  0
  2  3  1  0  0  0
 15 16  1  0  0  0
 13 17  1  0  0  0
 16 17  2  0  0  0
  3 10  1  0  0  0
  5 11  1  0  0  0
  7 12  1  0  0  0
 22 23  1  0  0  0
 19 20  1  0  0  0
M  END
> <minimizedAffinity>
-5.88121

$$$$
4PF5_M3N_A_303


 23 24  0  0  0  0  0  0  0  0999 V2000
  -13.6842  -17.6016  -30.4148 C   0  0  0  0  0  0  0  0  0  0  0  0
  -14.4010  -18.1489  -29.1985 C   0  0  0  0  0  0  0  0  0  0  0  0
  -13.9718  -19.4784  -28.9773 O   0  0  0  0  0  0  0  0  0  0  0  0
  -14.1314  -17.3210  -27.9751 C   0  0  0  0  0  0  0  0  0  0  0  0
  -14.6627  -17.9711  -26.8517 O   0  0  0  0  0  0  0  0  0  0  0  0
  -12.6536  -17.0454  -27.7828 C   0  0  0  0  0  0  0  0  0  0  0  0
  -12.4954  -16.0985  -26.7360 O   0  0  0  0  0  0  0  0  0  0  0  0
  -12.0544  -16.4313  -29.0314 C   0  0  0  0  0  0  0  0  0  0  0  0
  -12.3334  -17.1867  -30.1625 O   0  0  0  0  0  0  0  0  0  0  0  0
  -13.0161  -19.4864  -28.8117 H   0  0  0  0  0  0  0  0  0  0  0  0
  -14.2281  -18.8311  -26.7402 H   0  0  0  0  0  0  0  0  0  0  0  0
  -12.9491  -15.2748  -26.9738 H   0  0  0  0  0  0  0  0  0  0  0  0
  -14.9342  -15.2262  -32.8628 C   0  0  0  0  0  0  0  0  0  0  0  0
  -13.9082  -15.9973  -32.3298 C   0  0  0  0  0  0  0  0  0  0  0  0
  -14.3804  -16.6473  -31.2392 N   0  0  0  0  0  0  0  0  0  0  0  0
  -15.6957  -16.3199  -31.1295 N   0  0  0  0  0  0  0  0  0  0  0  0
  -16.0231  -15.4329  -32.1256 N   0  0  0  0  0  0  0  0  0  0  0  0
  -14.8350  -14.3212  -34.0987 C   0  0  0  0  0  0  0  0  0  0  0  0
  -15.2697  -15.1357  -35.1800 O   0  0  0  0  0  0  0  0  0  0  0  0
  -16.1696  -15.4524  -35.0049 H   0  0  0  0  0  0  0  0  0  0  0  0
  -10.5119  -16.4144  -28.8639 C   0  0  0  0  0  0  0  0  0  0  0  0
  -10.0032  -17.7160  -29.2451 O   0  0  0  0  0  0  0  0  0  0  0  0
  -10.2453  -17.9007  -30.1661 H   0  0  0  0  0  0  0  0  0  0  0  0
 21 22  1  0  0  0
 21  8  1  0  0  0
  7  6  1  0  0  0
  8  6  1  0  0  0
  8  9  1  0  0  0
  6  4  1  0  0  0
  9  1  1  0  0  0
 19 18  1  0  0  0
  4  5  1  0  0  0
  4  2  1  0  0  0
 14 15  1  0  0  0
 14 13  2  0  0  0
 18 13  1  0  0  0
  1  2  1  0  0  0
  1 15  1  0  0  0
  2  3  1  0  0  0
 15 16  1  0  0  0
 13 17  1  0  0  0
 16 17  2  0  0  0
  3 10  1  0  0  0
  5 11  1  0  0  0
  7 12  1  0  0  0
 22 23  1  0  0  0
 19 20  1  0  0  0
M  END
> <minimizedAffinity>
-5.85490

$$$$
4PF5_M3N_A_303


 23 24  0  0  0  0  0  0  0  0999 V2000
  -13.6824  -14.7389  -31.8566 C   0  0  0  0  0  0  0  0  0  0  0  0
  -13.0851  -16.1164  -31.6605 C   0  0  0  0  0  0  0  0  0  0  0  0
  -11.7633  -15.9747  -31.1772 O   0  0  0  0  0  0  0  0  0  0  0  0
  -13.8899  -16.9392  -30.6962 C   0  0  0  0  0  0  0  0  0  0  0  0
  -13.1974  -18.1251  -30.4116 O   0  0  0  0  0  0  0  0  0  0  0  0
  -14.2028  -16.1846  -29.4198 C   0  0  0  0  0  0  0  0  0  0  0  0
  -15.1278  -16.9424  -28.6532 O   0  0  0  0  0  0  0  0  0  0  0  0
  -14.8643  -14.8572  -29.7286 C   0  0  0  0  0  0  0  0  0  0  0  0
  -14.1294  -14.1151  -30.6435 O   0  0  0  0  0  0  0  0  0  0  0  0
  -11.7786  -15.5121  -30.3248 H   0  0  0  0  0  0  0  0  0  0  0  0
  -12.3477  -17.9114  -29.9954 H   0  0  0  0  0  0  0  0  0  0  0  0
  -15.9438  -17.0676  -29.1625 H   0  0  0  0  0  0  0  0  0  0  0  0
  -16.0536  -14.9085  -34.6037 C   0  0  0  0  0  0  0  0  0  0  0  0
  -15.0908  -15.4936  -33.7900 C   0  0  0  0  0  0  0  0  0  0  0  0
  -14.6364  -14.5593  -32.9208 N   0  0  0  0  0  0  0  0  0  0  0  0
  -15.3459  -13.4246  -33.1623 N   0  0  0  0  0  0  0  0  0  0  0  0
  -16.2057  -13.6460  -34.2101 N   0  0  0  0  0  0  0  0  0  0  0  0
  -16.8240  -15.6042  -35.7345 C   0  0  0  0  0  0  0  0  0  0  0  0
  -16.7415  -16.9906  -35.4296 O   0  0  0  0  0  0  0  0  0  0  0  0
  -17.1182  -17.1512  -34.5503 H   0  0  0  0  0  0  0  0  0  0  0  0
  -14.9212  -14.0333  -28.4149 C   0  0  0  0  0  0  0  0  0  0  0  0
  -16.1516  -14.3666  -27.7271 O   0  0  0  0  0  0  0  0  0  0  0  0
  -16.1676  -15.3174  -27.5355 H   0  0  0  0  0  0  0  0  0  0  0  0
 21 22  1  0  0  0
 21  8  1  0  0  0
  7  6  1  0  0  0
  8  6  1  0  0  0
  8  9  1  0  0  0
  6  4  1  0  0  0
  9  1  1  0  0  0
 19 18  1  0  0  0
  4  5  1  0  0  0
  4  2  1  0  0  0
 14 15  1  0  0  0
 14 13  2  0  0  0
 18 13  1  0  0  0
  1  2  1  0  0  0
  1 15  1  0  0  0
  2  3  1  0  0  0
 15 16  1  0  0  0
 13 17  1  0  0  0
 16 17  2  0  0  0
  3 10  1  0  0  0
  5 11  1  0  0  0
  7 12  1  0  0  0
 22 23  1  0  0  0
 19 20  1  0  0  0
M  END
> <minimizedAffinity>
-5.75695

$$$$
4PF5_M3N_A_303


 23 24  0  0  0  0  0  0  0  0999 V2000
  -13.3273  -16.6486  -31.4754 C   0  0  0  0  0  0  0  0  0  0  0  0
  -12.4145  -15.5725  -30.9263 C   0  0  0  0  0  0  0  0  0  0  0  0
  -11.1993  -15.5937  -31.6500 O   0  0  0  0  0  0  0  0  0  0  0  0
  -13.0381  -14.2102  -31.0262 C   0  0  0  0  0  0  0  0  0  0  0  0
  -12.0864  -13.2404  -30.6791 O   0  0  0  0  0  0  0  0  0  0  0  0
  -13.6002  -13.9362  -32.4067 C   0  0  0  0  0  0  0  0  0  0  0  0
  -14.3455  -12.7276  -32.3676 O   0  0  0  0  0  0  0  0  0  0  0  0
  -14.5563  -15.0341  -32.8255 C   0  0  0  0  0  0  0  0  0  0  0  0
  -13.9825  -16.2925  -32.7020 O   0  0  0  0  0  0  0  0  0  0  0  0
  -11.3771  -15.4107  -32.5859 H   0  0  0  0  0  0  0  0  0  0  0  0
  -11.3418  -13.2815  -31.2994 H   0  0  0  0  0  0  0  0  0  0  0  0
  -15.0746  -12.8178  -31.7343 H   0  0  0  0  0  0  0  0  0  0  0  0
  -16.0233  -17.8335  -29.3482 C   0  0  0  0  0  0  0  0  0  0  0  0
  -15.4635  -16.8711  -30.1799 C   0  0  0  0  0  0  0  0  0  0  0  0
  -14.2360  -17.2960  -30.5645 N   0  0  0  0  0  0  0  0  0  0  0  0
  -14.0610  -18.5283  -30.0167 N   0  0  0  0  0  0  0  0  0  0  0  0
  -15.1613  -18.8437  -29.2578 N   0  0  0  0  0  0  0  0  0  0  0  0
  -17.4022  -17.7562  -28.6782 C   0  0  0  0  0  0  0  0  0  0  0  0
  -17.5597  -19.0105  -28.0274 O   0  0  0  0  0  0  0  0  0  0  0  0
  -16.8323  -19.1424  -27.3993 H   0  0  0  0  0  0  0  0  0  0  0  0
  -14.8903  -14.8312  -34.3272 C   0  0  0  0  0  0  0  0  0  0  0  0
  -13.6787  -14.4205  -35.0066 O   0  0  0  0  0  0  0  0  0  0  0  0
  -12.9989  -15.1037  -34.8967 H   0  0  0  0  0  0  0  0  0  0  0  0
 21 22  1  0  0  0
 21  8  1  0  0  0
  7  6  1  0  0  0
  8  6  1  0  0  0
  8  9  1  0  0  0
  6  4  1  0  0  0
  9  1  1  0  0  0
 19 18  1  0  0  0
  4  5  1  0  0  0
  4  2  1  0  0  0
 14 15  1  0  0  0
 14 13  2  0  0  0
 18 13  1  0  0  0
  1  2  1  0  0  0
  1 15  1  0  0  0
  2  3  1  0  0  0
 15 16  1  0  0  0
 13 17  1  0  0  0
 16 17  2  0  0  0
  3 10  1  0  0  0
  5 11  1  0  0  0
  7 12  1  0  0  0
 22 23  1  0  0  0
 19 20  1  0  0  0
M  END
> <minimizedAffinity>
-5.71211

$$$$
