5MME_8Q6_A_1201


 28 29  0  0  0  0  0  0  0  0999 V2000
   10.7409  -15.5796    5.0275 C   0  0  0  0  0  0  0  0  0  0  0  0
   11.0382  -13.1904    4.8334 C   0  0  0  0  0  0  0  0  0  0  0  0
   10.2665  -14.4889    2.9445 C   0  0  0  0  0  0  0  0  0  0  0  0
   11.0864  -14.3462    5.6096 C   0  0  0  0  0  0  0  0  0  0  0  0
   10.3246  -15.6626    3.6950 C   0  0  0  0  0  0  0  0  0  0  0  0
   10.6317  -13.2587    3.4989 C   0  0  0  0  0  0  0  0  0  0  0  0
    9.9672  -16.8980    3.1190 C   0  0  0  0  0  0  0  0  0  0  0  0
   10.2653  -17.1919    1.9579 O   0  0  0  0  0  0  0  0  0  0  0  0
    7.8661  -17.7292    3.6238 C   0  0  0  0  0  0  0  0  0  0  0  0
    9.2654  -17.7147    3.9517 O   0  0  0  0  0  0  0  0  0  0  0  0
   10.5559  -12.1001    2.7240 C   0  0  0  0  0  0  0  0  0  0  0  0
   10.6419  -10.9616    3.2101 O   0  0  0  0  0  0  0  0  0  0  0  0
   11.1012  -11.4845    0.5623 C   0  0  0  0  0  0  0  0  0  0  0  0
   10.3429  -12.3469    1.4002 O   0  0  0  0  0  0  0  0  0  0  0  0
   11.4662  -14.3584    6.9064 N   0  0  0  0  0  0  0  0  0  0  0  0
   12.3786  -14.6738    7.0996 H   0  0  0  0  0  0  0  0  0  0  0  0
    9.1911  -13.2918   10.2138 C   0  0  0  0  0  0  0  0  0  0  0  0
   10.5467  -12.9839   10.1785 C   0  0  0  0  0  0  0  0  0  0  0  0
    9.3430  -14.2931    8.0378 C   0  0  0  0  0  0  0  0  0  0  0  0
    8.5666  -13.9481    9.1537 C   0  0  0  0  0  0  0  0  0  0  0  0
   10.7050  -13.9746    7.9776 C   0  0  0  0  0  0  0  0  0  0  0  0
   11.3046  -13.3346    9.0701 C   0  0  0  0  0  0  0  0  0  0  0  0
    6.3305  -13.4571   10.2352 C   0  0  0  0  0  0  0  0  0  0  0  0
    7.1846  -14.2295    9.2194 C   0  0  0  0  0  0  0  0  0  0  0  0
    6.6645  -15.0882    8.5011 O   0  0  0  0  0  0  0  0  0  0  0  0
   12.6337  -13.0626    8.9732 O   0  0  0  0  0  0  0  0  0  0  0  0
   14.9041  -13.4261    9.6553 C   0  0  0  0  0  0  0  0  0  0  0  0
   13.4482  -13.3528   10.1265 C   0  0  0  0  0  0  0  0  0  0  0  0
 25 24  2  0  0  0
 24 23  1  0  0  0
 24 20  1  0  0  0
 17 20  2  0  0  0
 17 18  1  0  0  0
 20 19  1  0  0  0
 18 22  2  0  0  0
 19 21  2  0  0  0
 22 21  1  0  0  0
 22 26  1  0  0  0
 21 15  1  0  0  0
 28 26  1  0  0  0
 28 27  1  0  0  0
 15  4  1  0  0  0
 12 11  2  0  0  0
  2  4  2  0  0  0
  2  6  1  0  0  0
  4  1  1  0  0  0
 11  6  1  0  0  0
 11 14  1  0  0  0
  6  3  2  0  0  0
  1  5  2  0  0  0
 13 14  1  0  0  0
  3  5  1  0  0  0
  5  7  1  0  0  0
  7  8  2  0  0  0
  7 10  1  0  0  0
 10  9  1  0  0  0
 15 16  1  0  0  0
M  END
> <minimizedAffinity>
-7.29101

$$$$
5MME_8Q6_A_1201


 28 29  0  0  0  0  0  0  0  0999 V2000
   11.0619  -13.2932    4.8288 C   0  0  0  0  0  0  0  0  0  0  0  0
   10.6871  -15.6677    5.0651 C   0  0  0  0  0  0  0  0  0  0  0  0
   10.2743  -14.5639    2.9530 C   0  0  0  0  0  0  0  0  0  0  0  0
   11.0931  -14.4562    5.6201 C   0  0  0  0  0  0  0  0  0  0  0  0
   10.6579  -13.3359    3.4907 C   0  0  0  0  0  0  0  0  0  0  0  0
   10.2737  -15.7245    3.7322 C   0  0  0  0  0  0  0  0  0  0  0  0
   10.6401  -12.1713    2.6975 C   0  0  0  0  0  0  0  0  0  0  0  0
   10.7783  -11.0445    3.1823 O   0  0  0  0  0  0  0  0  0  0  0  0
   11.1249  -11.4350    0.5567 C   0  0  0  0  0  0  0  0  0  0  0  0
   10.4490  -12.4078    1.3707 O   0  0  0  0  0  0  0  0  0  0  0  0
    9.8912  -16.9405    3.1631 C   0  0  0  0  0  0  0  0  0  0  0  0
   10.2341  -17.2834    2.0209 O   0  0  0  0  0  0  0  0  0  0  0  0
    7.7242  -17.6513    3.5480 C   0  0  0  0  0  0  0  0  0  0  0  0
    9.0816  -17.6846    3.9690 O   0  0  0  0  0  0  0  0  0  0  0  0
   11.5081  -14.3237    6.8993 N   0  0  0  0  0  0  0  0  0  0  0  0
   12.4585  -14.5066    7.0797 H   0  0  0  0  0  0  0  0  0  0  0  0
    9.1970  -13.3171   10.2005 C   0  0  0  0  0  0  0  0  0  0  0  0
   10.5490  -12.9931   10.1782 C   0  0  0  0  0  0  0  0  0  0  0  0
    9.3763  -14.2946    8.0158 C   0  0  0  0  0  0  0  0  0  0  0  0
    8.5878  -13.9699    9.1294 C   0  0  0  0  0  0  0  0  0  0  0  0
   10.7348  -13.9596    7.9687 C   0  0  0  0  0  0  0  0  0  0  0  0
   11.3190  -13.3237    9.0719 C   0  0  0  0  0  0  0  0  0  0  0  0
    6.3488  -13.5570   10.2369 C   0  0  0  0  0  0  0  0  0  0  0  0
    7.2088  -14.2681    9.1822 C   0  0  0  0  0  0  0  0  0  0  0  0
    6.6961  -15.0943    8.4217 O   0  0  0  0  0  0  0  0  0  0  0  0
   12.6454  -13.0352    8.9874 O   0  0  0  0  0  0  0  0  0  0  0  0
   14.9305  -13.3910    9.6233 C   0  0  0  0  0  0  0  0  0  0  0  0
   13.4746  -13.4304   10.0984 C   0  0  0  0  0  0  0  0  0  0  0  0
 25 24  2  0  0  0
 24 23  1  0  0  0
 24 20  1  0  0  0
 17 20  2  0  0  0
 17 18  1  0  0  0
 20 19  1  0  0  0
 18 22  2  0  0  0
 19 21  2  0  0  0
 22 21  1  0  0  0
 22 26  1  0  0  0
 21 15  1  0  0  0
 28 26  1  0  0  0
 28 27  1  0  0  0
 15  4  1  0  0  0
 12 11  2  0  0  0
  2  4  2  0  0  0
  2  6  1  0  0  0
  4  1  1  0  0  0
 11  6  1  0  0  0
 11 14  1  0  0  0
  6  3  2  0  0  0
  1  5  2  0  0  0
 13 14  1  0  0  0
  3  5  1  0  0  0
  5  7  1  0  0  0
  7  8  2  0  0  0
  7 10  1  0  0  0
 10  9  1  0  0  0
 15 16  1  0  0  0
M  END
> <minimizedAffinity>
-7.27723

$$$$
5MME_8Q6_A_1201


 28 29  0  0  0  0  0  0  0  0999 V2000
    8.1682  -17.5807    3.8160 C   0  0  0  0  0  0  0  0  0  0  0  0
    9.4830  -18.1460    1.8702 C   0  0  0  0  0  0  0  0  0  0  0  0
    7.1208  -18.6596    1.9473 C   0  0  0  0  0  0  0  0  0  0  0  0
    9.4022  -17.5790    3.1401 C   0  0  0  0  0  0  0  0  0  0  0  0
    7.0181  -18.1151    3.2268 C   0  0  0  0  0  0  0  0  0  0  0  0
    8.3444  -18.6904    1.2720 C   0  0  0  0  0  0  0  0  0  0  0  0
    5.7812  -18.1035    3.9017 C   0  0  0  0  0  0  0  0  0  0  0  0
    5.1041  -17.0776    4.0143 O   0  0  0  0  0  0  0  0  0  0  0  0
    4.0039  -19.5322    4.3023 C   0  0  0  0  0  0  0  0  0  0  0  0
    5.4195  -19.3111    4.4155 O   0  0  0  0  0  0  0  0  0  0  0  0
    8.4137  -19.2358   -0.0112 C   0  0  0  0  0  0  0  0  0  0  0  0
    7.6677  -18.8743   -0.9345 O   0  0  0  0  0  0  0  0  0  0  0  0
    9.4820  -20.6770   -1.4710 C   0  0  0  0  0  0  0  0  0  0  0  0
    9.3492  -20.2203   -0.1313 O   0  0  0  0  0  0  0  0  0  0  0  0
   10.4584  -17.0312    3.7809 N   0  0  0  0  0  0  0  0  0  0  0  0
   11.1412  -17.6521    4.1238 H   0  0  0  0  0  0  0  0  0  0  0  0
   10.9885  -12.9703    4.4740 C   0  0  0  0  0  0  0  0  0  0  0  0
   11.0503  -13.8668    5.5351 C   0  0  0  0  0  0  0  0  0  0  0  0
   10.5933  -14.7782    2.9456 C   0  0  0  0  0  0  0  0  0  0  0  0
   10.7596  -13.4035    3.1684 C   0  0  0  0  0  0  0  0  0  0  0  0
   10.6708  -15.6966    3.9994 C   0  0  0  0  0  0  0  0  0  0  0  0
   10.8799  -15.2242    5.3017 C   0  0  0  0  0  0  0  0  0  0  0  0
   10.5183  -10.9832    2.4653 C   0  0  0  0  0  0  0  0  0  0  0  0
   10.7194  -12.4646    2.1148 C   0  0  0  0  0  0  0  0  0  0  0  0
   10.8190  -12.8121    0.9344 O   0  0  0  0  0  0  0  0  0  0  0  0
   10.9289  -16.1522    6.2947 O   0  0  0  0  0  0  0  0  0  0  0  0
    8.7131  -16.1759    7.2124 C   0  0  0  0  0  0  0  0  0  0  0  0
   10.1863  -15.8662    7.4967 C   0  0  0  0  0  0  0  0  0  0  0  0
 25 24  2  0  0  0
 24 23  1  0  0  0
 24 20  1  0  0  0
 17 20  2  0  0  0
 17 18  1  0  0  0
 20 19  1  0  0  0
 18 22  2  0  0  0
 19 21  2  0  0  0
 22 21  1  0  0  0
 22 26  1  0  0  0
 21 15  1  0  0  0
 28 26  1  0  0  0
 28 27  1  0  0  0
 15  4  1  0  0  0
 12 11  2  0  0  0
  2  4  2  0  0  0
  2  6  1  0  0  0
  4  1  1  0  0  0
 11  6  1  0  0  0
 11 14  1  0  0  0
  6  3  2  0  0  0
  1  5  2  0  0  0
 13 14  1  0  0  0
  3  5  1  0  0  0
  5  7  1  0  0  0
  7  8  2  0  0  0
  7 10  1  0  0  0
 10  9  1  0  0  0
 15 16  1  0  0  0
M  END
> <minimizedAffinity>
-6.96875

$$$$
5MME_8Q6_A_1201


 28 29  0  0  0  0  0  0  0  0999 V2000
   11.1437  -13.5849    8.4953 C   0  0  0  0  0  0  0  0  0  0  0  0
    9.3170  -14.6203    7.3013 C   0  0  0  0  0  0  0  0  0  0  0  0
    9.0098  -13.8240    9.5643 C   0  0  0  0  0  0  0  0  0  0  0  0
   10.6397  -14.1837    7.3261 C   0  0  0  0  0  0  0  0  0  0  0  0
   10.3355  -13.3956    9.6207 C   0  0  0  0  0  0  0  0  0  0  0  0
    8.4999  -14.4449    8.4203 C   0  0  0  0  0  0  0  0  0  0  0  0
   10.8402  -12.7840   10.7856 C   0  0  0  0  0  0  0  0  0  0  0  0
   10.1549  -12.6420   11.8024 O   0  0  0  0  0  0  0  0  0  0  0  0
   12.7883  -12.3361   11.9538 C   0  0  0  0  0  0  0  0  0  0  0  0
   12.1307  -12.3649   10.6761 O   0  0  0  0  0  0  0  0  0  0  0  0
    7.1662  -14.8562    8.3918 C   0  0  0  0  0  0  0  0  0  0  0  0
    6.2430  -14.1705    8.8579 O   0  0  0  0  0  0  0  0  0  0  0  0
    7.0437  -17.1277    8.8099 C   0  0  0  0  0  0  0  0  0  0  0  0
    6.9919  -16.0903    7.8392 O   0  0  0  0  0  0  0  0  0  0  0  0
   11.4885  -14.3160    6.2829 N   0  0  0  0  0  0  0  0  0  0  0  0
   12.4446  -14.4120    6.4971 H   0  0  0  0  0  0  0  0  0  0  0  0
   10.5677  -14.3750    2.2331 C   0  0  0  0  0  0  0  0  0  0  0  0
   10.6761  -15.5704    2.9351 C   0  0  0  0  0  0  0  0  0  0  0  0
   11.0526  -13.1364    4.2309 C   0  0  0  0  0  0  0  0  0  0  0  0
   10.7530  -13.1436    2.8608 C   0  0  0  0  0  0  0  0  0  0  0  0
   11.1474  -14.3295    4.9572 C   0  0  0  0  0  0  0  0  0  0  0  0
   10.9771  -15.5495    4.2897 C   0  0  0  0  0  0  0  0  0  0  0  0
   10.7670  -10.6118    2.8554 C   0  0  0  0  0  0  0  0  0  0  0  0
   10.6191  -11.9505    2.1180 C   0  0  0  0  0  0  0  0  0  0  0  0
   10.3668  -11.9657    0.9096 O   0  0  0  0  0  0  0  0  0  0  0  0
   11.0971  -16.6821    5.0331 O   0  0  0  0  0  0  0  0  0  0  0  0
    9.0018  -17.7796    5.4301 C   0  0  0  0  0  0  0  0  0  0  0  0
   10.3072  -17.8183    4.6293 C   0  0  0  0  0  0  0  0  0  0  0  0
 25 24  2  0  0  0
 24 23  1  0  0  0
 24 20  1  0  0  0
 17 20  2  0  0  0
 17 18  1  0  0  0
 20 19  1  0  0  0
 18 22  2  0  0  0
 19 21  2  0  0  0
 22 21  1  0  0  0
 22 26  1  0  0  0
 21 15  1  0  0  0
 28 26  1  0  0  0
 28 27  1  0  0  0
 15  4  1  0  0  0
 12 11  2  0  0  0
  2  4  2  0  0  0
  2  6  1  0  0  0
  4  1  1  0  0  0
 11  6  1  0  0  0
 11 14  1  0  0  0
  6  3  2  0  0  0
  1  5  2  0  0  0
 13 14  1  0  0  0
  3  5  1  0  0  0
  5  7  1  0  0  0
  7  8  2  0  0  0
  7 10  1  0  0  0
 10  9  1  0  0  0
 15 16  1  0  0  0
M  END
> <minimizedAffinity>
-6.96133

$$$$
5MME_8Q6_A_1201


 28 29  0  0  0  0  0  0  0  0999 V2000
   10.7210  -14.9261    3.2099 C   0  0  0  0  0  0  0  0  0  0  0  0
   11.0854  -15.3069    5.5672 C   0  0  0  0  0  0  0  0  0  0  0  0
   11.1809  -13.0685    4.6561 C   0  0  0  0  0  0  0  0  0  0  0  0
   10.7935  -15.8107    4.3016 C   0  0  0  0  0  0  0  0  0  0  0  0
   10.9088  -13.5503    3.3763 C   0  0  0  0  0  0  0  0  0  0  0  0
   11.2830  -13.9361    5.7475 C   0  0  0  0  0  0  0  0  0  0  0  0
   10.8228  -12.6658    2.2827 C   0  0  0  0  0  0  0  0  0  0  0  0
   10.7441  -13.0672    1.1181 O   0  0  0  0  0  0  0  0  0  0  0  0
   11.0408  -10.5023    1.4877 C   0  0  0  0  0  0  0  0  0  0  0  0
   10.8448  -11.3502    2.6315 O   0  0  0  0  0  0  0  0  0  0  0  0
   11.5493  -13.4225    7.0179 C   0  0  0  0  0  0  0  0  0  0  0  0
   12.5378  -12.7129    7.2605 O   0  0  0  0  0  0  0  0  0  0  0  0
   11.1183  -13.6053    9.2829 C   0  0  0  0  0  0  0  0  0  0  0  0
   10.6415  -13.8083    7.9591 O   0  0  0  0  0  0  0  0  0  0  0  0
   10.5873  -17.1224    4.0503 N   0  0  0  0  0  0  0  0  0  0  0  0
   11.2841  -17.7482    4.3537 H   0  0  0  0  0  0  0  0  0  0  0  0
    7.3237  -18.8742    2.1708 C   0  0  0  0  0  0  0  0  0  0  0  0
    7.2090  -18.4288    3.4830 C   0  0  0  0  0  0  0  0  0  0  0  0
    9.6064  -18.1360    2.1002 C   0  0  0  0  0  0  0  0  0  0  0  0
    8.5149  -18.7391    1.4584 C   0  0  0  0  0  0  0  0  0  0  0  0
    9.5031  -17.6652    3.4147 C   0  0  0  0  0  0  0  0  0  0  0  0
    8.2979  -17.8374    4.1080 C   0  0  0  0  0  0  0  0  0  0  0  0
    7.5274  -18.6961   -0.8726 C   0  0  0  0  0  0  0  0  0  0  0  0
    8.5880  -19.1893    0.1223 C   0  0  0  0  0  0  0  0  0  0  0  0
    9.4630  -19.9776   -0.2478 O   0  0  0  0  0  0  0  0  0  0  0  0
    8.2514  -17.3810    5.3883 O   0  0  0  0  0  0  0  0  0  0  0  0
    6.9858  -16.7878    7.3374 C   0  0  0  0  0  0  0  0  0  0  0  0
    7.1283  -17.7948    6.1916 C   0  0  0  0  0  0  0  0  0  0  0  0
 25 24  2  0  0  0
 24 23  1  0  0  0
 24 20  1  0  0  0
 17 20  2  0  0  0
 17 18  1  0  0  0
 20 19  1  0  0  0
 18 22  2  0  0  0
 19 21  2  0  0  0
 22 21  1  0  0  0
 22 26  1  0  0  0
 21 15  1  0  0  0
 28 26  1  0  0  0
 28 27  1  0  0  0
 15  4  1  0  0  0
 12 11  2  0  0  0
  2  4  2  0  0  0
  2  6  1  0  0  0
  4  1  1  0  0  0
 11  6  1  0  0  0
 11 14  1  0  0  0
  6  3  2  0  0  0
  1  5  2  0  0  0
 13 14  1  0  0  0
  3  5  1  0  0  0
  5  7  1  0  0  0
  7  8  2  0  0  0
  7 10  1  0  0  0
 10  9  1  0  0  0
 15 16  1  0  0  0
M  END
> <minimizedAffinity>
-6.70633

$$$$
5MME_8Q6_A_1201


 28 29  0  0  0  0  0  0  0  0999 V2000
   10.9123  -15.5402    5.3224 C   0  0  0  0  0  0  0  0  0  0  0  0
   10.6258  -15.0484    2.9749 C   0  0  0  0  0  0  0  0  0  0  0  0
   11.0160  -13.2671    4.5637 C   0  0  0  0  0  0  0  0  0  0  0  0
   10.7006  -15.9842    4.0042 C   0  0  0  0  0  0  0  0  0  0  0  0
   11.0760  -14.1823    5.6139 C   0  0  0  0  0  0  0  0  0  0  0  0
   10.7798  -13.6882    3.2518 C   0  0  0  0  0  0  0  0  0  0  0  0
   11.3006  -13.7424    6.9336 C   0  0  0  0  0  0  0  0  0  0  0  0
   12.2320  -12.9863    7.2243 O   0  0  0  0  0  0  0  0  0  0  0  0
   10.5825  -13.6271    9.1316 C   0  0  0  0  0  0  0  0  0  0  0  0
   10.4111  -14.2330    7.8397 O   0  0  0  0  0  0  0  0  0  0  0  0
   10.7325  -12.7483    2.2207 C   0  0  0  0  0  0  0  0  0  0  0  0
   10.8221  -13.0616    1.0234 O   0  0  0  0  0  0  0  0  0  0  0  0
   10.9878  -10.5163    1.6712 C   0  0  0  0  0  0  0  0  0  0  0  0
   10.6165  -11.4641    2.6635 O   0  0  0  0  0  0  0  0  0  0  0  0
   10.5645  -17.3152    3.8136 N   0  0  0  0  0  0  0  0  0  0  0  0
   11.3140  -17.8846    4.1021 H   0  0  0  0  0  0  0  0  0  0  0  0
    7.3369  -19.3401    2.1598 C   0  0  0  0  0  0  0  0  0  0  0  0
    7.3518  -19.0571    3.5212 C   0  0  0  0  0  0  0  0  0  0  0  0
    9.4623  -18.2575    1.8928 C   0  0  0  0  0  0  0  0  0  0  0  0
    8.3834  -18.9504    1.3246 C   0  0  0  0  0  0  0  0  0  0  0  0
    9.4853  -17.9482    3.2580 C   0  0  0  0  0  0  0  0  0  0  0  0
    8.4274  -18.3745    4.0717 C   0  0  0  0  0  0  0  0  0  0  0  0
    7.0435  -18.8852   -0.8227 C   0  0  0  0  0  0  0  0  0  0  0  0
    8.3250  -19.2418   -0.0556 C   0  0  0  0  0  0  0  0  0  0  0  0
    9.2632  -19.7901   -0.6413 O   0  0  0  0  0  0  0  0  0  0  0  0
    8.5031  -18.0670    5.3943 O   0  0  0  0  0  0  0  0  0  0  0  0
    7.1705  -16.8833    6.9991 C   0  0  0  0  0  0  0  0  0  0  0  0
    7.2852  -18.1598    6.1599 C   0  0  0  0  0  0  0  0  0  0  0  0
 25 24  2  0  0  0
 24 23  1  0  0  0
 24 20  1  0  0  0
 17 20  2  0  0  0
 17 18  1  0  0  0
 20 19  1  0  0  0
 18 22  2  0  0  0
 19 21  2  0  0  0
 22 21  1  0  0  0
 22 26  1  0  0  0
 21 15  1  0  0  0
 28 26  1  0  0  0
 28 27  1  0  0  0
 15  4  1  0  0  0
 12 11  2  0  0  0
  2  4  2  0  0  0
  2  6  1  0  0  0
  4  1  1  0  0  0
 11  6  1  0  0  0
 11 14  1  0  0  0
  6  3  2  0  0  0
  1  5  2  0  0  0
 13 14  1  0  0  0
  3  5  1  0  0  0
  5  7  1  0  0  0
  7  8  2  0  0  0
  7 10  1  0  0  0
 10  9  1  0  0  0
 15 16  1  0  0  0
M  END
> <minimizedAffinity>
-6.65868

$$$$
5MME_8Q6_A_1201


 28 29  0  0  0  0  0  0  0  0999 V2000
   11.2798  -13.1212    4.4202 C   0  0  0  0  0  0  0  0  0  0  0  0
   11.1065  -14.9882    5.9429 C   0  0  0  0  0  0  0  0  0  0  0  0
   10.6573  -15.2817    3.5846 C   0  0  0  0  0  0  0  0  0  0  0  0
   11.3903  -13.6422    5.7224 C   0  0  0  0  0  0  0  0  0  0  0  0
   10.9178  -13.9337    3.3411 C   0  0  0  0  0  0  0  0  0  0  0  0
   10.7363  -15.8103    4.8762 C   0  0  0  0  0  0  0  0  0  0  0  0
   10.8205  -13.4110    2.0361 C   0  0  0  0  0  0  0  0  0  0  0  0
   11.0613  -14.0931    1.0359 O   0  0  0  0  0  0  0  0  0  0  0  0
   11.1629  -11.3863    0.9668 C   0  0  0  0  0  0  0  0  0  0  0  0
   10.4511  -12.1017    1.9901 O   0  0  0  0  0  0  0  0  0  0  0  0
   10.4767  -17.1656    5.0869 C   0  0  0  0  0  0  0  0  0  0  0  0
   10.3725  -17.9807    4.1571 O   0  0  0  0  0  0  0  0  0  0  0  0
   11.0032  -18.6813    6.7527 C   0  0  0  0  0  0  0  0  0  0  0  0
   10.3148  -17.4880    6.4016 O   0  0  0  0  0  0  0  0  0  0  0  0
   11.7570  -12.7870    6.7024 N   0  0  0  0  0  0  0  0  0  0  0  0
   11.5785  -11.8312    6.5482 H   0  0  0  0  0  0  0  0  0  0  0  0
   13.5509  -13.6888   10.3385 C   0  0  0  0  0  0  0  0  0  0  0  0
   12.1644  -13.6856   10.2334 C   0  0  0  0  0  0  0  0  0  0  0  0
   13.7466  -13.1110    8.0172 C   0  0  0  0  0  0  0  0  0  0  0  0
   14.3640  -13.4030    9.2421 C   0  0  0  0  0  0  0  0  0  0  0  0
   12.3525  -13.1212    7.8889 C   0  0  0  0  0  0  0  0  0  0  0  0
   11.5659  -13.3909    9.0164 C   0  0  0  0  0  0  0  0  0  0  0  0
   16.6293  -13.4659    8.1130 C   0  0  0  0  0  0  0  0  0  0  0  0
   15.7684  -13.4316    9.3841 C   0  0  0  0  0  0  0  0  0  0  0  0
   16.3060  -13.4520   10.4951 O   0  0  0  0  0  0  0  0  0  0  0  0
   10.2166  -13.3711    8.8471 O   0  0  0  0  0  0  0  0  0  0  0  0
    8.1893  -13.3291   10.1280 C   0  0  0  0  0  0  0  0  0  0  0  0
    9.4288  -14.1537    9.7662 C   0  0  0  0  0  0  0  0  0  0  0  0
 25 24  2  0  0  0
 24 23  1  0  0  0
 24 20  1  0  0  0
 17 20  2  0  0  0
 17 18  1  0  0  0
 20 19  1  0  0  0
 18 22  2  0  0  0
 19 21  2  0  0  0
 22 21  1  0  0  0
 22 26  1  0  0  0
 21 15  1  0  0  0
 28 26  1  0  0  0
 28 27  1  0  0  0
 15  4  1  0  0  0
 12 11  2  0  0  0
  2  4  2  0  0  0
  2  6  1  0  0  0
  4  1  1  0  0  0
 11  6  1  0  0  0
 11 14  1  0  0  0
  6  3  2  0  0  0
  1  5  2  0  0  0
 13 14  1  0  0  0
  3  5  1  0  0  0
  5  7  1  0  0  0
  7  8  2  0  0  0
  7 10  1  0  0  0
 10  9  1  0  0  0
 15 16  1  0  0  0
M  END
> <minimizedAffinity>
-6.61679

$$$$
5MME_8Q6_A_1201


 28 29  0  0  0  0  0  0  0  0999 V2000
   10.3164  -16.2060    4.9514 C   0  0  0  0  0  0  0  0  0  0  0  0
   10.8279  -13.8453    4.9674 C   0  0  0  0  0  0  0  0  0  0  0  0
   10.2598  -14.9644    2.8999 C   0  0  0  0  0  0  0  0  0  0  0  0
   10.6632  -15.0419    5.6615 C   0  0  0  0  0  0  0  0  0  0  0  0
   10.1075  -16.1782    3.5689 C   0  0  0  0  0  0  0  0  0  0  0  0
   10.6301  -13.8038    3.5854 C   0  0  0  0  0  0  0  0  0  0  0  0
    9.7478  -17.3435    2.8629 C   0  0  0  0  0  0  0  0  0  0  0  0
   10.1886  -17.5915    1.7369 O   0  0  0  0  0  0  0  0  0  0  0  0
    9.0830  -19.5336    3.2115 C   0  0  0  0  0  0  0  0  0  0  0  0
    8.8750  -18.1476    3.5297 O   0  0  0  0  0  0  0  0  0  0  0  0
   10.7676  -12.6019    2.8886 C   0  0  0  0  0  0  0  0  0  0  0  0
   10.4913  -11.5010    3.3899 O   0  0  0  0  0  0  0  0  0  0  0  0
   11.0734  -11.5748    0.8391 C   0  0  0  0  0  0  0  0  0  0  0  0
   11.1958  -12.7663    1.6048 O   0  0  0  0  0  0  0  0  0  0  0  0
   10.8343  -15.1592    6.9969 N   0  0  0  0  0  0  0  0  0  0  0  0
   11.7420  -15.0026    7.3443 H   0  0  0  0  0  0  0  0  0  0  0  0
    7.8459  -16.1815    9.6945 C   0  0  0  0  0  0  0  0  0  0  0  0
    8.9167  -17.0444    9.4889 C   0  0  0  0  0  0  0  0  0  0  0  0
    8.7728  -14.6263    8.1187 C   0  0  0  0  0  0  0  0  0  0  0  0
    7.7519  -14.9653    9.0187 C   0  0  0  0  0  0  0  0  0  0  0  0
    9.8674  -15.4746    7.9132 C   0  0  0  0  0  0  0  0  0  0  0  0
    9.9183  -16.6989    8.5925 C   0  0  0  0  0  0  0  0  0  0  0  0
    6.6185  -13.3396   10.5944 C   0  0  0  0  0  0  0  0  0  0  0  0
    6.6574  -14.1084    9.2658 C   0  0  0  0  0  0  0  0  0  0  0  0
    5.7352  -13.9864    8.4542 O   0  0  0  0  0  0  0  0  0  0  0  0
   10.9913  -17.4975    8.3463 O   0  0  0  0  0  0  0  0  0  0  0  0
   10.4796  -19.3147    6.8669 C   0  0  0  0  0  0  0  0  0  0  0  0
   10.7581  -18.9198    8.3207 C   0  0  0  0  0  0  0  0  0  0  0  0
 25 24  2  0  0  0
 24 23  1  0  0  0
 24 20  1  0  0  0
 17 20  2  0  0  0
 17 18  1  0  0  0
 20 19  1  0  0  0
 18 22  2  0  0  0
 19 21  2  0  0  0
 22 21  1  0  0  0
 22 26  1  0  0  0
 21 15  1  0  0  0
 28 26  1  0  0  0
 28 27  1  0  0  0
 15  4  1  0  0  0
 12 11  2  0  0  0
  2  4  2  0  0  0
  2  6  1  0  0  0
  4  1  1  0  0  0
 11  6  1  0  0  0
 11 14  1  0  0  0
  6  3  2  0  0  0
  1  5  2  0  0  0
 13 14  1  0  0  0
  3  5  1  0  0  0
  5  7  1  0  0  0
  7  8  2  0  0  0
  7 10  1  0  0  0
 10  9  1  0  0  0
 15 16  1  0  0  0
M  END
> <minimizedAffinity>
-5.92537

$$$$
5MME_8Q6_A_1201


 28 29  0  0  0  0  0  0  0  0999 V2000
   10.7658  -14.1816    4.9998 C   0  0  0  0  0  0  0  0  0  0  0  0
   10.0832  -16.4986    5.0096 C   0  0  0  0  0  0  0  0  0  0  0  0
   10.1100  -15.2355    2.9473 C   0  0  0  0  0  0  0  0  0  0  0  0
   10.5459  -15.3813    5.7012 C   0  0  0  0  0  0  0  0  0  0  0  0
   10.5551  -14.0980    3.6198 C   0  0  0  0  0  0  0  0  0  0  0  0
    9.8609  -16.4281    3.6326 C   0  0  0  0  0  0  0  0  0  0  0  0
   10.7885  -12.8983    2.9186 C   0  0  0  0  0  0  0  0  0  0  0  0
   11.0333  -11.8361    3.4977 O   0  0  0  0  0  0  0  0  0  0  0  0
   11.0658  -11.8012    0.8987 C   0  0  0  0  0  0  0  0  0  0  0  0
   10.7088  -13.0233    1.5654 O   0  0  0  0  0  0  0  0  0  0  0  0
    9.4228  -17.5520    2.9300 C   0  0  0  0  0  0  0  0  0  0  0  0
    9.8801  -17.8698    1.8212 O   0  0  0  0  0  0  0  0  0  0  0  0
    7.1348  -17.8040    3.1558 C   0  0  0  0  0  0  0  0  0  0  0  0
    8.4269  -18.2332    3.5648 O   0  0  0  0  0  0  0  0  0  0  0  0
   10.7864  -15.3740    7.0310 N   0  0  0  0  0  0  0  0  0  0  0  0
   11.7180  -15.2277    7.3136 H   0  0  0  0  0  0  0  0  0  0  0  0
    7.9215  -15.9909    9.9745 C   0  0  0  0  0  0  0  0  0  0  0  0
    9.0286  -16.8291    9.9005 C   0  0  0  0  0  0  0  0  0  0  0  0
    8.7297  -14.7275    8.1008 C   0  0  0  0  0  0  0  0  0  0  0  0
    7.7500  -14.9323    9.0832 C   0  0  0  0  0  0  0  0  0  0  0  0
    9.8598  -15.5502    8.0232 C   0  0  0  0  0  0  0  0  0  0  0  0
    9.9888  -16.6181    8.9209 C   0  0  0  0  0  0  0  0  0  0  0  0
    6.4552  -13.2674   10.4840 C   0  0  0  0  0  0  0  0  0  0  0  0
    6.6207  -14.0931    9.2000 C   0  0  0  0  0  0  0  0  0  0  0  0
    5.7666  -14.0304    8.3108 O   0  0  0  0  0  0  0  0  0  0  0  0
   11.0937  -17.4009    8.7947 O   0  0  0  0  0  0  0  0  0  0  0  0
   10.6687  -19.3060    7.4011 C   0  0  0  0  0  0  0  0  0  0  0  0
   10.8950  -18.8279    8.8388 C   0  0  0  0  0  0  0  0  0  0  0  0
 25 24  2  0  0  0
 24 23  1  0  0  0
 24 20  1  0  0  0
 17 20  2  0  0  0
 17 18  1  0  0  0
 20 19  1  0  0  0
 18 22  2  0  0  0
 19 21  2  0  0  0
 22 21  1  0  0  0
 22 26  1  0  0  0
 21 15  1  0  0  0
 28 26  1  0  0  0
 28 27  1  0  0  0
 15  4  1  0  0  0
 12 11  2  0  0  0
  2  4  2  0  0  0
  2  6  1  0  0  0
  4  1  1  0  0  0
 11  6  1  0  0  0
 11 14  1  0  0  0
  6  3  2  0  0  0
  1  5  2  0  0  0
 13 14  1  0  0  0
  3  5  1  0  0  0
  5  7  1  0  0  0
  7  8  2  0  0  0
  7 10  1  0  0  0
 10  9  1  0  0  0
 15 16  1  0  0  0
M  END
> <minimizedAffinity>
-5.91292

$$$$
5MME_8Q6_A_1201


 28 29  0  0  0  0  0  0  0  0999 V2000
   11.5636  -13.7471    8.2982 C   0  0  0  0  0  0  0  0  0  0  0  0
    9.3945  -14.3482    7.4218 C   0  0  0  0  0  0  0  0  0  0  0  0
    9.8078  -14.3805    9.8046 C   0  0  0  0  0  0  0  0  0  0  0  0
   10.7014  -13.9198    7.1999 C   0  0  0  0  0  0  0  0  0  0  0  0
   11.1258  -13.9706    9.6074 C   0  0  0  0  0  0  0  0  0  0  0  0
    8.9453  -14.5827    8.7233 C   0  0  0  0  0  0  0  0  0  0  0  0
   11.9886  -13.7843   10.7059 C   0  0  0  0  0  0  0  0  0  0  0  0
   12.2080  -14.6788   11.5277 O   0  0  0  0  0  0  0  0  0  0  0  0
   12.9219  -12.2044   12.1177 C   0  0  0  0  0  0  0  0  0  0  0  0
   12.5375  -12.5405   10.7742 O   0  0  0  0  0  0  0  0  0  0  0  0
    7.6289  -14.9863    8.9536 C   0  0  0  0  0  0  0  0  0  0  0  0
    6.6719  -14.1968    8.9310 O   0  0  0  0  0  0  0  0  0  0  0  0
    6.7053  -16.5503   10.3855 C   0  0  0  0  0  0  0  0  0  0  0  0
    7.5117  -16.3144    9.2387 O   0  0  0  0  0  0  0  0  0  0  0  0
   11.2060  -13.6701    5.9714 N   0  0  0  0  0  0  0  0  0  0  0  0
   11.8006  -12.8902    5.8850 H   0  0  0  0  0  0  0  0  0  0  0  0
   10.3750  -15.8520    2.5361 C   0  0  0  0  0  0  0  0  0  0  0  0
   10.5127  -14.4703    2.4614 C   0  0  0  0  0  0  0  0  0  0  0  0
   10.8101  -15.7862    4.8955 C   0  0  0  0  0  0  0  0  0  0  0  0
   10.5186  -16.5328    3.7446 C   0  0  0  0  0  0  0  0  0  0  0  0
   10.9703  -14.3967    4.8353 C   0  0  0  0  0  0  0  0  0  0  0  0
   10.7971  -13.7428    3.6084 C   0  0  0  0  0  0  0  0  0  0  0  0
   11.1823  -18.7203    4.8331 C   0  0  0  0  0  0  0  0  0  0  0  0
   10.3871  -17.9381    3.7778 C   0  0  0  0  0  0  0  0  0  0  0  0
    9.6726  -18.5403    2.9711 O   0  0  0  0  0  0  0  0  0  0  0  0
   10.9442  -12.3907    3.6032 O   0  0  0  0  0  0  0  0  0  0  0  0
   11.0998  -10.2400    2.5531 C   0  0  0  0  0  0  0  0  0  0  0  0
   10.7294  -11.7126    2.3495 C   0  0  0  0  0  0  0  0  0  0  0  0
 25 24  2  0  0  0
 24 23  1  0  0  0
 24 20  1  0  0  0
 17 20  2  0  0  0
 17 18  1  0  0  0
 20 19  1  0  0  0
 18 22  2  0  0  0
 19 21  2  0  0  0
 22 21  1  0  0  0
 22 26  1  0  0  0
 21 15  1  0  0  0
 28 26  1  0  0  0
 28 27  1  0  0  0
 15  4  1  0  0  0
 12 11  2  0  0  0
  2  4  2  0  0  0
  2  6  1  0  0  0
  4  1  1  0  0  0
 11  6  1  0  0  0
 11 14  1  0  0  0
  6  3  2  0  0  0
  1  5  2  0  0  0
 13 14  1  0  0  0
  3  5  1  0  0  0
  5  7  1  0  0  0
  7  8  2  0  0  0
  7 10  1  0  0  0
 10  9  1  0  0  0
 15 16  1  0  0  0
M  END
> <minimizedAffinity>
-5.85524

$$$$
