4HWP_X16_A_702


 35 37  0  0  0  0  0  0  0  0999 V2000
  -14.3983  -37.3935   17.8070 C   0  0  0  0  0  0  0  0  0  0  0  0
  -14.4033  -37.1009   19.1724 C   0  0  0  0  0  0  0  0  0  0  0  0
  -15.5813  -36.9870   19.9180 C   0  0  0  0  0  0  0  0  0  0  0  0
  -16.7864  -37.1759   19.2666 C   0  0  0  0  0  0  0  0  0  0  0  0
  -16.8194  -37.5387   17.9295 C   0  0  0  0  0  0  0  0  0  0  0  0
  -15.6326  -37.6071   17.2069 C   0  0  0  0  0  0  0  0  0  0  0  0
  -18.1426  -37.6908   17.2377 C   0  0  0  0  0  0  0  0  0  0  0  0
  -18.2050  -38.1107   15.9206 C   0  0  0  0  0  0  0  0  0  0  0  0
  -19.4067  -38.3310   15.2685 C   0  0  0  0  0  0  0  0  0  0  0  0
  -20.5835  -38.1293   15.9683 C   0  0  0  0  0  0  0  0  0  0  0  0
  -20.5501  -37.6803   17.3626 C   0  0  0  0  0  0  0  0  0  0  0  0
  -19.3121  -37.4916   17.9508 C   0  0  0  0  0  0  0  0  0  0  0  0
  -21.7236  -37.5046   18.0124 N   0  0  0  0  0  0  0  0  0  0  0  0
  -22.9099  -37.7181   17.4182 C   0  0  0  0  0  0  0  0  0  0  0  0
  -23.0092  -38.1351   16.1435 N   0  0  0  0  0  0  0  0  0  0  0  0
  -21.9378  -38.3472   15.3865 C   0  0  0  0  0  0  0  0  0  0  0  0
  -22.0448  -38.7602   14.1569 N   0  0  0  0  0  0  0  0  0  0  0  0
  -24.1505  -37.4742   18.2237 C   0  0  0  0  0  0  0  0  0  0  0  0
  -21.2361  -38.9102   13.6159 H   0  0  0  0  0  0  0  0  0  0  0  0
  -22.9344  -38.9226   13.7678 H   0  0  0  0  0  0  0  0  0  0  0  0
  -13.0198  -37.5364   16.9587 S   0  0  0  0  0  0  0  0  0  0  0  0
  -12.4976  -38.7727   17.2603 O   0  0  0  0  0  0  0  0  0  0  0  0
  -13.2361  -37.3368   15.6311 O   0  0  0  0  0  0  0  0  0  0  0  0
  -12.0169  -35.2141   17.1932 C   0  0  0  0  0  0  0  0  0  0  0  0
  -11.9280  -36.5023   17.4849 N   0  0  0  0  0  0  0  0  0  0  0  0
  -12.9097  -34.7630   16.5285 O   0  0  0  0  0  0  0  0  0  0  0  0
  -11.1775  -36.8255   18.0340 H   0  0  0  0  0  0  0  0  0  0  0  0
  -10.9312  -34.2996   17.6959 C   0  0  0  0  0  0  0  0  0  0  0  0
  -11.2610  -32.9972   17.2010 N   0  0  0  0  0  0  0  0  0  0  0  0
  -12.1946  -32.7386   17.5203 H   0  0  0  0  0  0  0  0  0  0  0  0
  -11.2407  -33.0057   16.1812 H   0  0  0  0  0  0  0  0  0  0  0  0
  -12.4002  -34.2036   19.7779 C   0  0  0  0  0  0  0  0  0  0  0  0
  -10.9757  -34.3005   19.2263 C   0  0  0  0  0  0  0  0  0  0  0  0
  -10.3817  -35.4301   19.8359 O   0  0  0  0  0  0  0  0  0  0  0  0
  -10.8948  -36.2234   19.6160 H   0  0  0  0  0  0  0  0  0  0  0  0
 33 32  1  0  0  0
 28 33  1  0  0  0
 33 34  1  0  0  0
 29 28  1  0  0  0
 24 28  1  0  0  0
 26 24  2  0  0  0
 24 25  1  0  0  0
 21 25  1  0  0  0
 23 21  2  0  0  0
 21 22  2  0  0  0
 21  1  1  0  0  0
  6  1  2  0  0  0
  1  2  1  0  0  0
  2  3  2  0  0  0
  4  3  1  0  0  0
  5  4  2  0  0  0
  6  5  1  0  0  0
  7  5  1  0  0  0
 12  7  2  0  0  0
  7  8  1  0  0  0
  9  8  2  0  0  0
 10  9  1  0  0  0
 11 10  1  0  0  0
 16 10  2  0  0  0
 13 11  2  0  0  0
 11 12  1  0  0  0
 14 13  1  0  0  0
 18 14  1  0  0  0
 14 15  2  0  0  0
 15 16  1  0  0  0
 16 17  1  0  0  0
 25 27  1  0  0  0
 34 35  1  0  0  0
 29 30  1  0  0  0
 29 31  1  0  0  0
 17 19  1  0  0  0
 17 20  1  0  0  0
M  END
> <minimizedAffinity>
-12.77701

$$$$
4HWP_X16_A_702


 35 37  0  0  0  0  0  0  0  0999 V2000
  -14.4612  -37.3396   17.9346 C   0  0  0  0  0  0  0  0  0  0  0  0
  -14.3709  -36.9186   19.2630 C   0  0  0  0  0  0  0  0  0  0  0  0
  -15.4917  -36.7592   20.0846 C   0  0  0  0  0  0  0  0  0  0  0  0
  -16.7369  -37.0345   19.5499 C   0  0  0  0  0  0  0  0  0  0  0  0
  -16.8609  -37.5234   18.2590 C   0  0  0  0  0  0  0  0  0  0  0  0
  -15.7309  -37.6352   17.4554 C   0  0  0  0  0  0  0  0  0  0  0  0
  -18.2280  -37.7684   17.6900 C   0  0  0  0  0  0  0  0  0  0  0  0
  -19.3471  -37.7290   18.5030 C   0  0  0  0  0  0  0  0  0  0  0  0
  -20.6308  -37.8797   18.0057 C   0  0  0  0  0  0  0  0  0  0  0  0
  -20.7928  -38.0682   16.6443 C   0  0  0  0  0  0  0  0  0  0  0  0
  -19.6269  -38.1192   15.7583 C   0  0  0  0  0  0  0  0  0  0  0  0
  -18.3765  -37.9499   16.3259 C   0  0  0  0  0  0  0  0  0  0  0  0
  -19.8309  -38.2959   14.4326 N   0  0  0  0  0  0  0  0  0  0  0  0
  -21.0611  -38.4353   13.9099 C   0  0  0  0  0  0  0  0  0  0  0  0
  -22.1716  -38.3932   14.6674 N   0  0  0  0  0  0  0  0  0  0  0  0
  -22.1195  -38.2263   15.9847 C   0  0  0  0  0  0  0  0  0  0  0  0
  -23.2008  -38.1771   16.7073 N   0  0  0  0  0  0  0  0  0  0  0  0
  -21.1734  -38.6458   12.4299 C   0  0  0  0  0  0  0  0  0  0  0  0
  -23.1364  -38.0527   17.6818 H   0  0  0  0  0  0  0  0  0  0  0  0
  -24.0832  -38.2644   16.2795 H   0  0  0  0  0  0  0  0  0  0  0  0
  -13.1475  -37.5334   16.9983 S   0  0  0  0  0  0  0  0  0  0  0  0
  -12.6355  -38.7765   17.2896 O   0  0  0  0  0  0  0  0  0  0  0  0
  -13.4489  -37.3541   15.6845 O   0  0  0  0  0  0  0  0  0  0  0  0
  -12.0865  -35.2292   17.1346 C   0  0  0  0  0  0  0  0  0  0  0  0
  -11.9981  -36.5172   17.4275 N   0  0  0  0  0  0  0  0  0  0  0  0
  -13.0214  -34.7652   16.5406 O   0  0  0  0  0  0  0  0  0  0  0  0
  -11.2119  -36.8513   17.9169 H   0  0  0  0  0  0  0  0  0  0  0  0
  -10.9472  -34.3326   17.5419 C   0  0  0  0  0  0  0  0  0  0  0  0
  -11.2581  -33.0422   17.0049 N   0  0  0  0  0  0  0  0  0  0  0  0
  -12.1655  -32.7370   17.3571 H   0  0  0  0  0  0  0  0  0  0  0  0
  -11.2892  -33.0960   15.9868 H   0  0  0  0  0  0  0  0  0  0  0  0
  -12.3009  -34.0504   19.6843 C   0  0  0  0  0  0  0  0  0  0  0  0
  -10.9149  -34.2649   19.0711 C   0  0  0  0  0  0  0  0  0  0  0  0
  -10.3647  -35.4041   19.7033 O   0  0  0  0  0  0  0  0  0  0  0  0
  -10.9378  -36.1704   19.5447 H   0  0  0  0  0  0  0  0  0  0  0  0
 33 32  1  0  0  0
 28 33  1  0  0  0
 33 34  1  0  0  0
 29 28  1  0  0  0
 24 28  1  0  0  0
 26 24  2  0  0  0
 24 25  1  0  0  0
 21 25  1  0  0  0
 23 21  2  0  0  0
 21 22  2  0  0  0
 21  1  1  0  0  0
  6  1  2  0  0  0
  1  2  1  0  0  0
  2  3  2  0  0  0
  4  3  1  0  0  0
  5  4  2  0  0  0
  6  5  1  0  0  0
  7  5  1  0  0  0
 12  7  2  0  0  0
  7  8  1  0  0  0
  9  8  2  0  0  0
 10  9  1  0  0  0
 11 10  1  0  0  0
 16 10  2  0  0  0
 13 11  2  0  0  0
 11 12  1  0  0  0
 14 13  1  0  0  0
 18 14  1  0  0  0
 14 15  2  0  0  0
 15 16  1  0  0  0
 16 17  1  0  0  0
 25 27  1  0  0  0
 34 35  1  0  0  0
 29 30  1  0  0  0
 29 31  1  0  0  0
 17 19  1  0  0  0
 17 20  1  0  0  0
M  END
> <minimizedAffinity>
-12.43653

$$$$
4HWP_X16_A_702


 35 37  0  0  0  0  0  0  0  0999 V2000
  -20.9589  -38.4620   14.2833 C   0  0  0  0  0  0  0  0  0  0  0  0
  -22.1938  -38.4441   14.9349 C   0  0  0  0  0  0  0  0  0  0  0  0
  -22.3236  -38.1922   16.3047 C   0  0  0  0  0  0  0  0  0  0  0  0
  -21.1746  -37.9499   17.0350 C   0  0  0  0  0  0  0  0  0  0  0  0
  -19.9387  -37.8878   16.4110 C   0  0  0  0  0  0  0  0  0  0  0  0
  -19.8387  -38.1799   15.0546 C   0  0  0  0  0  0  0  0  0  0  0  0
  -18.7044  -37.6699   17.2366 C   0  0  0  0  0  0  0  0  0  0  0  0
  -18.7659  -37.7040   18.6186 C   0  0  0  0  0  0  0  0  0  0  0  0
  -17.6396  -37.5779   19.4146 C   0  0  0  0  0  0  0  0  0  0  0  0
  -16.4107  -37.4202   18.7980 C   0  0  0  0  0  0  0  0  0  0  0  0
  -16.3138  -37.3754   17.3367 C   0  0  0  0  0  0  0  0  0  0  0  0
  -17.4808  -37.5191   16.6074 C   0  0  0  0  0  0  0  0  0  0  0  0
  -15.0918  -37.2292   16.7751 N   0  0  0  0  0  0  0  0  0  0  0  0
  -13.9740  -37.1144   17.5123 C   0  0  0  0  0  0  0  0  0  0  0  0
  -13.9942  -37.1524   18.8566 N   0  0  0  0  0  0  0  0  0  0  0  0
  -15.1252  -37.2906   19.5403 C   0  0  0  0  0  0  0  0  0  0  0  0
  -15.1324  -37.3360   20.8410 N   0  0  0  0  0  0  0  0  0  0  0  0
  -12.6732  -36.9367   16.7889 C   0  0  0  0  0  0  0  0  0  0  0  0
  -15.9834  -37.4390   21.3252 H   0  0  0  0  0  0  0  0  0  0  0  0
  -14.2869  -37.2675   21.3406 H   0  0  0  0  0  0  0  0  0  0  0  0
  -20.8273  -38.7423   12.6882 S   0  0  0  0  0  0  0  0  0  0  0  0
  -21.5294  -39.8970   12.4315 O   0  0  0  0  0  0  0  0  0  0  0  0
  -21.2442  -37.6696   11.9641 O   0  0  0  0  0  0  0  0  0  0  0  0
  -18.9411  -39.1542   11.0369 C   0  0  0  0  0  0  0  0  0  0  0  0
  -19.3222  -39.0959   12.3034 N   0  0  0  0  0  0  0  0  0  0  0  0
  -19.6956  -38.9469   10.1258 O   0  0  0  0  0  0  0  0  0  0  0  0
  -18.6672  -39.2733   13.0166 H   0  0  0  0  0  0  0  0  0  0  0  0
  -17.5114  -39.5271   10.7461 C   0  0  0  0  0  0  0  0  0  0  0  0
  -16.8120  -39.3791   11.9867 N   0  0  0  0  0  0  0  0  0  0  0  0
  -17.2516  -39.9646   12.6968 H   0  0  0  0  0  0  0  0  0  0  0  0
  -16.8460  -38.4033   12.2819 H   0  0  0  0  0  0  0  0  0  0  0  0
  -16.2655  -41.7497   10.8467 C   0  0  0  0  0  0  0  0  0  0  0  0
  -17.4799  -40.9924   10.3036 C   0  0  0  0  0  0  0  0  0  0  0  0
  -18.6211  -41.7455   10.6651 O   0  0  0  0  0  0  0  0  0  0  0  0
  -18.6637  -41.8245   11.6310 H   0  0  0  0  0  0  0  0  0  0  0  0
 33 32  1  0  0  0
 28 33  1  0  0  0
 33 34  1  0  0  0
 29 28  1  0  0  0
 24 28  1  0  0  0
 26 24  2  0  0  0
 24 25  1  0  0  0
 21 25  1  0  0  0
 23 21  2  0  0  0
 21 22  2  0  0  0
 21  1  1  0  0  0
  6  1  2  0  0  0
  1  2  1  0  0  0
  2  3  2  0  0  0
  4  3  1  0  0  0
  5  4  2  0  0  0
  6  5  1  0  0  0
  7  5  1  0  0  0
 12  7  2  0  0  0
  7  8  1  0  0  0
  9  8  2  0  0  0
 10  9  1  0  0  0
 11 10  1  0  0  0
 16 10  2  0  0  0
 13 11  2  0  0  0
 11 12  1  0  0  0
 14 13  1  0  0  0
 18 14  1  0  0  0
 14 15  2  0  0  0
 15 16  1  0  0  0
 16 17  1  0  0  0
 25 27  1  0  0  0
 34 35  1  0  0  0
 29 30  1  0  0  0
 29 31  1  0  0  0
 17 19  1  0  0  0
 17 20  1  0  0  0
M  END
> <minimizedAffinity>
-11.17142

$$$$
4HWP_X16_A_702


 35 37  0  0  0  0  0  0  0  0999 V2000
  -19.5850  -37.8157   17.4681 C   0  0  0  0  0  0  0  0  0  0  0  0
  -20.9318  -37.6874   17.8141 C   0  0  0  0  0  0  0  0  0  0  0  0
  -21.9688  -37.8292   16.8860 C   0  0  0  0  0  0  0  0  0  0  0  0
  -21.6357  -38.1102   15.5736 C   0  0  0  0  0  0  0  0  0  0  0  0
  -20.3152  -38.3161   15.2067 C   0  0  0  0  0  0  0  0  0  0  0  0
  -19.3048  -38.1310   16.1448 C   0  0  0  0  0  0  0  0  0  0  0  0
  -19.9801  -38.5729   13.7664 C   0  0  0  0  0  0  0  0  0  0  0  0
  -20.8632  -38.2153   12.7628 C   0  0  0  0  0  0  0  0  0  0  0  0
  -20.5623  -38.3704   11.4200 C   0  0  0  0  0  0  0  0  0  0  0  0
  -19.3287  -38.8957   11.0769 C   0  0  0  0  0  0  0  0  0  0  0  0
  -18.3741  -39.2882   12.1169 C   0  0  0  0  0  0  0  0  0  0  0  0
  -18.7406  -39.0934   13.4367 C   0  0  0  0  0  0  0  0  0  0  0  0
  -17.1759  -39.7886   11.7375 N   0  0  0  0  0  0  0  0  0  0  0  0
  -16.8420  -39.9448   10.4451 C   0  0  0  0  0  0  0  0  0  0  0  0
  -17.6704  -39.5999    9.4433 N   0  0  0  0  0  0  0  0  0  0  0  0
  -18.8791  -39.0968    9.6707 C   0  0  0  0  0  0  0  0  0  0  0  0
  -19.6692  -38.7571    8.6938 N   0  0  0  0  0  0  0  0  0  0  0  0
  -15.4959  -40.5270   10.1350 C   0  0  0  0  0  0  0  0  0  0  0  0
  -20.5604  -38.3864    8.8877 H   0  0  0  0  0  0  0  0  0  0  0  0
  -19.3756  -38.8708    7.7610 H   0  0  0  0  0  0  0  0  0  0  0  0
  -18.3934  -37.6620   18.5619 S   0  0  0  0  0  0  0  0  0  0  0  0
  -18.5581  -36.4315   19.1543 O   0  0  0  0  0  0  0  0  0  0  0  0
  -18.3929  -38.7016   19.4384 O   0  0  0  0  0  0  0  0  0  0  0  0
  -15.8531  -37.6772   18.5305 C   0  0  0  0  0  0  0  0  0  0  0  0
  -16.9768  -37.5708   17.8386 N   0  0  0  0  0  0  0  0  0  0  0  0
  -15.8409  -37.8458   19.7195 O   0  0  0  0  0  0  0  0  0  0  0  0
  -16.9364  -37.4335   16.8646 H   0  0  0  0  0  0  0  0  0  0  0  0
  -14.5505  -37.5478   17.7861 C   0  0  0  0  0  0  0  0  0  0  0  0
  -14.8522  -36.7985   16.6038 N   0  0  0  0  0  0  0  0  0  0  0  0
  -15.2654  -35.9032   16.8649 H   0  0  0  0  0  0  0  0  0  0  0  0
  -15.5116  -37.3224   16.0283 H   0  0  0  0  0  0  0  0  0  0  0  0
  -12.4639  -36.0838   17.8569 C   0  0  0  0  0  0  0  0  0  0  0  0
  -13.5738  -36.7612   18.6645 C   0  0  0  0  0  0  0  0  0  0  0  0
  -14.1697  -35.7533   19.4577 O   0  0  0  0  0  0  0  0  0  0  0  0
  -14.5309  -35.0606   18.8827 H   0  0  0  0  0  0  0  0  0  0  0  0
 33 32  1  0  0  0
 28 33  1  0  0  0
 33 34  1  0  0  0
 29 28  1  0  0  0
 24 28  1  0  0  0
 26 24  2  0  0  0
 24 25  1  0  0  0
 21 25  1  0  0  0
 23 21  2  0  0  0
 21 22  2  0  0  0
 21  1  1  0  0  0
  6  1  2  0  0  0
  1  2  1  0  0  0
  2  3  2  0  0  0
  4  3  1  0  0  0
  5  4  2  0  0  0
  6  5  1  0  0  0
  7  5  1  0  0  0
 12  7  2  0  0  0
  7  8  1  0  0  0
  9  8  2  0  0  0
 10  9  1  0  0  0
 11 10  1  0  0  0
 16 10  2  0  0  0
 13 11  2  0  0  0
 11 12  1  0  0  0
 14 13  1  0  0  0
 18 14  1  0  0  0
 14 15  2  0  0  0
 15 16  1  0  0  0
 16 17  1  0  0  0
 25 27  1  0  0  0
 34 35  1  0  0  0
 29 30  1  0  0  0
 29 31  1  0  0  0
 17 19  1  0  0  0
 17 20  1  0  0  0
M  END
> <minimizedAffinity>
-10.99206

$$$$
4HWP_X16_A_702


 35 37  0  0  0  0  0  0  0  0999 V2000
  -14.3114  -36.9464   18.2529 C   0  0  0  0  0  0  0  0  0  0  0  0
  -14.3836  -36.9728   19.6472 C   0  0  0  0  0  0  0  0  0  0  0  0
  -15.5792  -37.1920   20.3395 C   0  0  0  0  0  0  0  0  0  0  0  0
  -16.7322  -37.3919   19.6027 C   0  0  0  0  0  0  0  0  0  0  0  0
  -16.6880  -37.4448   18.2186 C   0  0  0  0  0  0  0  0  0  0  0  0
  -15.4907  -37.1857   17.5593 C   0  0  0  0  0  0  0  0  0  0  0  0
  -17.9624  -37.6163   17.4446 C   0  0  0  0  0  0  0  0  0  0  0  0
  -17.9344  -38.0198   16.1213 C   0  0  0  0  0  0  0  0  0  0  0  0
  -19.0885  -38.2574   15.3936 C   0  0  0  0  0  0  0  0  0  0  0  0
  -20.3103  -38.0906   16.0219 C   0  0  0  0  0  0  0  0  0  0  0  0
  -20.3727  -37.6596   17.4208 C   0  0  0  0  0  0  0  0  0  0  0  0
  -19.1777  -37.4519   18.0866 C   0  0  0  0  0  0  0  0  0  0  0  0
  -21.5875  -37.5179   17.9990 N   0  0  0  0  0  0  0  0  0  0  0  0
  -22.7300  -37.7490   17.3302 C   0  0  0  0  0  0  0  0  0  0  0  0
  -22.7414  -38.1511   16.0469 N   0  0  0  0  0  0  0  0  0  0  0  0
  -21.6211  -38.3299   15.3550 C   0  0  0  0  0  0  0  0  0  0  0  0
  -21.6430  -38.7287   14.1163 N   0  0  0  0  0  0  0  0  0  0  0  0
  -24.0229  -37.5428   18.0604 C   0  0  0  0  0  0  0  0  0  0  0  0
  -20.7994  -38.8539   13.6245 H   0  0  0  0  0  0  0  0  0  0  0  0
  -22.5032  -38.9051   13.6711 H   0  0  0  0  0  0  0  0  0  0  0  0
  -12.9114  -36.7047   17.4645 S   0  0  0  0  0  0  0  0  0  0  0  0
  -13.1504  -35.7264   16.5274 O   0  0  0  0  0  0  0  0  0  0  0  0
  -11.9047  -36.4074   18.3290 O   0  0  0  0  0  0  0  0  0  0  0  0
  -12.6661  -38.0006   15.2932 C   0  0  0  0  0  0  0  0  0  0  0  0
  -12.5204  -37.9905   16.6090 N   0  0  0  0  0  0  0  0  0  0  0  0
  -13.0928  -37.0577   14.6840 O   0  0  0  0  0  0  0  0  0  0  0  0
  -12.1658  -38.7879   17.0647 H   0  0  0  0  0  0  0  0  0  0  0  0
  -12.3080  -39.2619   14.5527 C   0  0  0  0  0  0  0  0  0  0  0  0
  -13.3312  -39.4366   13.5665 N   0  0  0  0  0  0  0  0  0  0  0  0
  -13.3737  -38.6099   12.9705 H   0  0  0  0  0  0  0  0  0  0  0  0
  -14.2305  -39.5686   14.0294 H   0  0  0  0  0  0  0  0  0  0  0  0
  -11.0565  -39.0707   12.3392 C   0  0  0  0  0  0  0  0  0  0  0  0
  -10.9564  -39.0463   13.8664 C   0  0  0  0  0  0  0  0  0  0  0  0
  -10.3031  -37.8398   14.2098 O   0  0  0  0  0  0  0  0  0  0  0  0
  -10.8208  -37.0874   13.8829 H   0  0  0  0  0  0  0  0  0  0  0  0
 33 32  1  0  0  0
 28 33  1  0  0  0
 33 34  1  0  0  0
 29 28  1  0  0  0
 24 28  1  0  0  0
 26 24  2  0  0  0
 24 25  1  0  0  0
 21 25  1  0  0  0
 23 21  2  0  0  0
 21 22  2  0  0  0
 21  1  1  0  0  0
  6  1  2  0  0  0
  1  2  1  0  0  0
  2  3  2  0  0  0
  4  3  1  0  0  0
  5  4  2  0  0  0
  6  5  1  0  0  0
  7  5  1  0  0  0
 12  7  2  0  0  0
  7  8  1  0  0  0
  9  8  2  0  0  0
 10  9  1  0  0  0
 11 10  1  0  0  0
 16 10  2  0  0  0
 13 11  2  0  0  0
 11 12  1  0  0  0
 14 13  1  0  0  0
 18 14  1  0  0  0
 14 15  2  0  0  0
 15 16  1  0  0  0
 16 17  1  0  0  0
 25 27  1  0  0  0
 34 35  1  0  0  0
 29 30  1  0  0  0
 29 31  1  0  0  0
 17 19  1  0  0  0
 17 20  1  0  0  0
M  END
> <minimizedAffinity>
-10.25602

$$$$
4HWP_X16_A_702


 35 37  0  0  0  0  0  0  0  0999 V2000
  -13.8841  -37.6081   16.9367 C   0  0  0  0  0  0  0  0  0  0  0  0
  -13.5489  -37.1600   18.2161 C   0  0  0  0  0  0  0  0  0  0  0  0
  -14.5035  -36.9321   19.2128 C   0  0  0  0  0  0  0  0  0  0  0  0
  -15.8322  -37.1652   18.9089 C   0  0  0  0  0  0  0  0  0  0  0  0
  -16.1968  -37.6788   17.6744 C   0  0  0  0  0  0  0  0  0  0  0  0
  -15.2281  -37.8591   16.6923 C   0  0  0  0  0  0  0  0  0  0  0  0
  -17.6502  -37.8772   17.3568 C   0  0  0  0  0  0  0  0  0  0  0  0
  -18.6226  -37.5950   18.3001 C   0  0  0  0  0  0  0  0  0  0  0  0
  -19.9758  -37.6973   18.0239 C   0  0  0  0  0  0  0  0  0  0  0  0
  -20.3619  -38.0889   16.7539 C   0  0  0  0  0  0  0  0  0  0  0  0
  -19.3558  -38.3991   15.7350 C   0  0  0  0  0  0  0  0  0  0  0  0
  -18.0231  -38.2636   16.0810 C   0  0  0  0  0  0  0  0  0  0  0  0
  -19.7769  -38.7691   14.5037 N   0  0  0  0  0  0  0  0  0  0  0  0
  -21.0806  -38.8697   14.1932 C   0  0  0  0  0  0  0  0  0  0  0  0
  -22.0528  -38.5947   15.0808 N   0  0  0  0  0  0  0  0  0  0  0  0
  -21.7834  -38.2207   16.3271 C   0  0  0  0  0  0  0  0  0  0  0  0
  -22.7319  -37.9475   17.1753 N   0  0  0  0  0  0  0  0  0  0  0  0
  -21.4379  -39.3072   12.8046 C   0  0  0  0  0  0  0  0  0  0  0  0
  -22.5071  -37.6724   18.0934 H   0  0  0  0  0  0  0  0  0  0  0  0
  -23.6743  -38.0158   16.8988 H   0  0  0  0  0  0  0  0  0  0  0  0
  -12.7609  -37.8816   15.7949 S   0  0  0  0  0  0  0  0  0  0  0  0
  -12.8786  -36.8659   14.8748 O   0  0  0  0  0  0  0  0  0  0  0  0
  -11.5205  -37.9913   16.3411 O   0  0  0  0  0  0  0  0  0  0  0  0
  -13.0462  -39.2184   13.6535 C   0  0  0  0  0  0  0  0  0  0  0  0
  -13.1043  -39.2044   14.9760 N   0  0  0  0  0  0  0  0  0  0  0  0
  -12.7366  -38.2523   13.0109 O   0  0  0  0  0  0  0  0  0  0  0  0
  -13.3631  -40.0219   15.4597 H   0  0  0  0  0  0  0  0  0  0  0  0
  -13.4166  -40.4939   12.9439 C   0  0  0  0  0  0  0  0  0  0  0  0
  -13.9480  -40.0924   11.6764 N   0  0  0  0  0  0  0  0  0  0  0  0
  -13.2550  -39.5334   11.1789 H   0  0  0  0  0  0  0  0  0  0  0  0
  -14.7916  -39.5377   11.8218 H   0  0  0  0  0  0  0  0  0  0  0  0
  -11.7910  -41.5020   11.2577 C   0  0  0  0  0  0  0  0  0  0  0  0
  -12.1402  -41.3135   12.7360 C   0  0  0  0  0  0  0  0  0  0  0  0
  -10.9870  -40.7830   13.3597 O   0  0  0  0  0  0  0  0  0  0  0  0
  -10.7561  -39.9366   12.9460 H   0  0  0  0  0  0  0  0  0  0  0  0
 33 32  1  0  0  0
 28 33  1  0  0  0
 33 34  1  0  0  0
 29 28  1  0  0  0
 24 28  1  0  0  0
 26 24  2  0  0  0
 24 25  1  0  0  0
 21 25  1  0  0  0
 23 21  2  0  0  0
 21 22  2  0  0  0
 21  1  1  0  0  0
  6  1  2  0  0  0
  1  2  1  0  0  0
  2  3  2  0  0  0
  4  3  1  0  0  0
  5  4  2  0  0  0
  6  5  1  0  0  0
  7  5  1  0  0  0
 12  7  2  0  0  0
  7  8  1  0  0  0
  9  8  2  0  0  0
 10  9  1  0  0  0
 11 10  1  0  0  0
 16 10  2  0  0  0
 13 11  2  0  0  0
 11 12  1  0  0  0
 14 13  1  0  0  0
 18 14  1  0  0  0
 14 15  2  0  0  0
 15 16  1  0  0  0
 16 17  1  0  0  0
 25 27  1  0  0  0
 34 35  1  0  0  0
 29 30  1  0  0  0
 29 31  1  0  0  0
 17 19  1  0  0  0
 17 20  1  0  0  0
M  END
> <minimizedAffinity>
-9.94938

$$$$
