1YEI_PGG_L_551


 26 26  0  0  0  0  0  0  0  0999 V2000
   14.1455   37.6278   62.4879 P   0  0  0  0  0  0  0  0  0  0  0  0
   14.6469   38.9208   62.1442 O   0  0  0  0  0  0  0  0  0  0  0  0
   13.5991   37.4587   63.8243 O   0  0  0  0  0  0  0  0  0  0  0  0
   13.9604   39.5870   62.3047 H   0  0  0  0  0  0  0  0  0  0  0  0
   12.9554   37.2800   61.4245 O   0  0  0  0  0  0  0  0  0  0  0  0
   11.6489   37.6396   61.7290 C   0  0  0  0  0  0  0  0  0  0  0  0
   11.2164   38.8979   61.3066 C   0  0  0  0  0  0  0  0  0  0  0  0
    9.9194   39.3022   61.6414 C   0  0  0  0  0  0  0  0  0  0  0  0
    9.1092   38.4435   62.3819 C   0  0  0  0  0  0  0  0  0  0  0  0
    9.5796   37.1672   62.7883 C   0  0  0  0  0  0  0  0  0  0  0  0
   10.8707   36.7459   62.4608 C   0  0  0  0  0  0  0  0  0  0  0  0
    7.7536   38.8864   62.7928 N   0  0  0  0  0  0  0  0  0  0  0  0
    7.1986   38.4725   63.8393 O   0  0  0  0  0  0  0  0  0  0  0  0
    7.1616   39.6653   62.0647 O   0  0  0  0  0  0  0  0  0  0  0  0
   15.3569   36.4088   62.2103 C   0  0  0  0  0  0  0  0  0  0  0  0
   16.6643   36.8977   61.6280 C   0  0  0  0  0  0  0  0  0  0  0  0
   16.5495   36.7239   60.1212 C   0  0  0  0  0  0  0  0  0  0  0  0
   16.8874   37.9581   59.3119 C   0  0  0  0  0  0  0  0  0  0  0  0
   16.0252   38.9935   59.3846 N   0  0  0  0  0  0  0  0  0  0  0  0
   17.9399   37.9657   58.6204 O   0  0  0  0  0  0  0  0  0  0  0  0
   15.2255   38.8942   59.9502 H   0  0  0  0  0  0  0  0  0  0  0  0
   16.1968   40.1445   58.7323 C   0  0  0  0  0  0  0  0  0  0  0  0
   15.5370   41.3551   59.4416 C   0  0  0  0  0  0  0  0  0  0  0  0
   14.8227   41.1338   60.4438 O   0  0  0  0  0  0  0  0  0  0  0  0
   15.3830   42.4289   58.8154 O   0  0  0  0  0  0  0  0  0  0  0  0
   14.9240   40.3358   60.9243 H   0  0  0  0  0  0  0  0  0  0  0  0
  6  7  2  0  0  0
  6 11  1  0  0  0
  6  5  1  0  0  0
  7  8  1  0  0  0
  8  9  2  0  0  0
  9 10  1  0  0  0
  9 12  1  0  0  0
 10 11  2  0  0  0
  1  5  1  0  0  0
  1  2  1  0  0  0
  1  3  2  0  0  0
  1 15  1  0  0  0
 15 16  1  0  0  0
 16 17  1  0  0  0
 17 18  1  0  0  0
 18 19  1  0  0  0
 18 20  2  0  0  0
 19 22  1  0  0  0
 22 23  1  0  0  0
 23 24  1  0  0  0
 23 25  2  0  0  0
 12 13  2  0  0  0
 12 14  1  0  0  0
  2  4  1  0  0  0
 19 21  1  0  0  0
 24 26  1  0  0  0
M  CHG 1  12   1
M  CHG 1  14  -1
M  END
> <minimizedAffinity>
-9.53716

$$$$
1YEI_PGG_L_551


 26 26  0  0  0  0  0  0  0  0999 V2000
   14.1700   37.6231   62.5278 P   0  0  0  0  0  0  0  0  0  0  0  0
   14.6811   38.9174   62.2039 O   0  0  0  0  0  0  0  0  0  0  0  0
   13.6009   37.4441   63.8534 O   0  0  0  0  0  0  0  0  0  0  0  0
   13.9941   39.5844   62.3589 H   0  0  0  0  0  0  0  0  0  0  0  0
   12.9965   37.2886   61.4418 O   0  0  0  0  0  0  0  0  0  0  0  0
   11.6876   37.6574   61.7242 C   0  0  0  0  0  0  0  0  0  0  0  0
   11.2764   38.9255   61.3099 C   0  0  0  0  0  0  0  0  0  0  0  0
    9.9768   39.3386   61.6232 C   0  0  0  0  0  0  0  0  0  0  0  0
    9.1429   38.4784   62.3353 C   0  0  0  0  0  0  0  0  0  0  0  0
    9.5921   37.1921   62.7341 C   0  0  0  0  0  0  0  0  0  0  0  0
   10.8856   36.7621   62.4277 C   0  0  0  0  0  0  0  0  0  0  0  0
    7.7835   38.9296   62.7240 N   0  0  0  0  0  0  0  0  0  0  0  0
    7.2096   38.5202   63.7621 O   0  0  0  0  0  0  0  0  0  0  0  0
    7.2077   39.7109   61.9856 O   0  0  0  0  0  0  0  0  0  0  0  0
   15.3819   36.4025   62.2596 C   0  0  0  0  0  0  0  0  0  0  0  0
   16.6436   36.8660   61.5665 C   0  0  0  0  0  0  0  0  0  0  0  0
   16.2967   36.9890   60.0905 C   0  0  0  0  0  0  0  0  0  0  0  0
   17.1856   36.1907   59.1605 C   0  0  0  0  0  0  0  0  0  0  0  0
   16.5852   35.5626   58.1281 N   0  0  0  0  0  0  0  0  0  0  0  0
   18.4242   36.1497   59.3852 O   0  0  0  0  0  0  0  0  0  0  0  0
   15.6090   35.6497   58.0348 H   0  0  0  0  0  0  0  0  0  0  0  0
   17.2417   34.8302   57.2268 C   0  0  0  0  0  0  0  0  0  0  0  0
   16.3307   33.8304   56.4688 C   0  0  0  0  0  0  0  0  0  0  0  0
   15.4212   33.2592   57.1093 O   0  0  0  0  0  0  0  0  0  0  0  0
   16.7351   33.3129   55.4023 O   0  0  0  0  0  0  0  0  0  0  0  0
   15.1062   33.6319   57.9092 H   0  0  0  0  0  0  0  0  0  0  0  0
  6  7  2  0  0  0
  6 11  1  0  0  0
  6  5  1  0  0  0
  7  8  1  0  0  0
  8  9  2  0  0  0
  9 10  1  0  0  0
  9 12  1  0  0  0
 10 11  2  0  0  0
  1  5  1  0  0  0
  1  2  1  0  0  0
  1  3  2  0  0  0
  1 15  1  0  0  0
 15 16  1  0  0  0
 16 17  1  0  0  0
 17 18  1  0  0  0
 18 19  1  0  0  0
 18 20  2  0  0  0
 19 22  1  0  0  0
 22 23  1  0  0  0
 23 24  1  0  0  0
 23 25  2  0  0  0
 12 13  2  0  0  0
 12 14  1  0  0  0
  2  4  1  0  0  0
 19 21  1  0  0  0
 24 26  1  0  0  0
M  CHG 1  12   1
M  CHG 1  14  -1
M  END
> <minimizedAffinity>
-8.95374

$$$$
1YEI_PGG_L_551


 26 26  0  0  0  0  0  0  0  0999 V2000
   14.0751   37.6208   62.5263 P   0  0  0  0  0  0  0  0  0  0  0  0
   14.5515   38.9052   62.1202 O   0  0  0  0  0  0  0  0  0  0  0  0
   13.5447   37.5027   63.8745 O   0  0  0  0  0  0  0  0  0  0  0  0
   13.8555   39.5666   62.2581 H   0  0  0  0  0  0  0  0  0  0  0  0
   12.8806   37.2066   61.4919 O   0  0  0  0  0  0  0  0  0  0  0  0
   11.5797   37.6106   61.7633 C   0  0  0  0  0  0  0  0  0  0  0  0
   11.2068   38.8898   61.3471 C   0  0  0  0  0  0  0  0  0  0  0  0
    9.9161   39.3376   61.6495 C   0  0  0  0  0  0  0  0  0  0  0  0
    9.0530   38.4996   62.3532 C   0  0  0  0  0  0  0  0  0  0  0  0
    9.4636   37.2012   62.7542 C   0  0  0  0  0  0  0  0  0  0  0  0
   10.7476   36.7365   62.4585 C   0  0  0  0  0  0  0  0  0  0  0  0
    7.7030   38.9871   62.7305 N   0  0  0  0  0  0  0  0  0  0  0  0
    7.1367   38.6432   63.7963 O   0  0  0  0  0  0  0  0  0  0  0  0
    7.1270   39.7320   61.9556 O   0  0  0  0  0  0  0  0  0  0  0  0
   15.3039   36.4105   62.2905 C   0  0  0  0  0  0  0  0  0  0  0  0
   16.7018   36.9293   62.0379 C   0  0  0  0  0  0  0  0  0  0  0  0
   17.1094   36.4032   60.6700 C   0  0  0  0  0  0  0  0  0  0  0  0
   16.9600   37.3965   59.5372 C   0  0  0  0  0  0  0  0  0  0  0  0
   17.8570   37.3193   58.5320 N   0  0  0  0  0  0  0  0  0  0  0  0
   16.0213   38.2351   59.5800 O   0  0  0  0  0  0  0  0  0  0  0  0
   18.5593   36.6316   58.5871 H   0  0  0  0  0  0  0  0  0  0  0  0
   17.8444   38.1236   57.4678 C   0  0  0  0  0  0  0  0  0  0  0  0
   18.3995   39.5407   57.7642 C   0  0  0  0  0  0  0  0  0  0  0  0
   17.5822   40.4547   58.0096 O   0  0  0  0  0  0  0  0  0  0  0  0
   19.5495   39.8475   57.3739 O   0  0  0  0  0  0  0  0  0  0  0  0
   16.7175   40.2438   58.3025 H   0  0  0  0  0  0  0  0  0  0  0  0
  6  7  2  0  0  0
  6 11  1  0  0  0
  6  5  1  0  0  0
  7  8  1  0  0  0
  8  9  2  0  0  0
  9 10  1  0  0  0
  9 12  1  0  0  0
 10 11  2  0  0  0
  1  5  1  0  0  0
  1  2  1  0  0  0
  1  3  2  0  0  0
  1 15  1  0  0  0
 15 16  1  0  0  0
 16 17  1  0  0  0
 17 18  1  0  0  0
 18 19  1  0  0  0
 18 20  2  0  0  0
 19 22  1  0  0  0
 22 23  1  0  0  0
 23 24  1  0  0  0
 23 25  2  0  0  0
 12 13  2  0  0  0
 12 14  1  0  0  0
  2  4  1  0  0  0
 19 21  1  0  0  0
 24 26  1  0  0  0
M  CHG 1  12   1
M  CHG 1  14  -1
M  END
> <minimizedAffinity>
-8.93615

$$$$
1YEI_PGG_L_551


 26 26  0  0  0  0  0  0  0  0999 V2000
   14.1404   37.6355   62.5400 P   0  0  0  0  0  0  0  0  0  0  0  0
   14.6398   38.9193   62.1604 O   0  0  0  0  0  0  0  0  0  0  0  0
   13.6395   37.4902   63.8969 O   0  0  0  0  0  0  0  0  0  0  0  0
   13.9646   39.5934   62.3348 H   0  0  0  0  0  0  0  0  0  0  0  0
   12.9112   37.2827   61.5237 O   0  0  0  0  0  0  0  0  0  0  0  0
   11.6318   37.7296   61.8277 C   0  0  0  0  0  0  0  0  0  0  0  0
   10.8186   36.8795   62.5792 C   0  0  0  0  0  0  0  0  0  0  0  0
    9.5097   37.2870   62.8592 C   0  0  0  0  0  0  0  0  0  0  0  0
    9.0634   38.5174   62.3803 C   0  0  0  0  0  0  0  0  0  0  0  0
    9.9208   39.3602   61.6254 C   0  0  0  0  0  0  0  0  0  0  0  0
   11.2314   38.9707   61.3385 C   0  0  0  0  0  0  0  0  0  0  0  0
    7.6590   38.9325   62.6212 N   0  0  0  0  0  0  0  0  0  0  0  0
    7.0479   38.6562   63.6817 O   0  0  0  0  0  0  0  0  0  0  0  0
    7.0847   39.5458   61.7373 O   0  0  0  0  0  0  0  0  0  0  0  0
   15.3316   36.4025   62.2384 C   0  0  0  0  0  0  0  0  0  0  0  0
   16.6193   36.8709   61.5983 C   0  0  0  0  0  0  0  0  0  0  0  0
   16.3691   36.8802   60.0979 C   0  0  0  0  0  0  0  0  0  0  0  0
   17.4298   36.1828   59.2728 C   0  0  0  0  0  0  0  0  0  0  0  0
   18.6385   36.0107   59.8476 N   0  0  0  0  0  0  0  0  0  0  0  0
   17.1431   35.7987   58.1082 O   0  0  0  0  0  0  0  0  0  0  0  0
   18.7705   36.3480   60.7631 H   0  0  0  0  0  0  0  0  0  0  0  0
   19.6643   35.4088   59.2435 C   0  0  0  0  0  0  0  0  0  0  0  0
   20.5547   36.3839   58.4308 C   0  0  0  0  0  0  0  0  0  0  0  0
   19.9925   37.1925   57.6602 O   0  0  0  0  0  0  0  0  0  0  0  0
   21.7602   36.1041   58.2378 O   0  0  0  0  0  0  0  0  0  0  0  0
   19.0912   37.4135   57.7894 H   0  0  0  0  0  0  0  0  0  0  0  0
  6  7  2  0  0  0
  6 11  1  0  0  0
  6  5  1  0  0  0
  7  8  1  0  0  0
  8  9  2  0  0  0
  9 10  1  0  0  0
  9 12  1  0  0  0
 10 11  2  0  0  0
  1  5  1  0  0  0
  1  2  1  0  0  0
  1  3  2  0  0  0
  1 15  1  0  0  0
 15 16  1  0  0  0
 16 17  1  0  0  0
 17 18  1  0  0  0
 18 19  1  0  0  0
 18 20  2  0  0  0
 19 22  1  0  0  0
 22 23  1  0  0  0
 23 24  1  0  0  0
 23 25  2  0  0  0
 12 13  2  0  0  0
 12 14  1  0  0  0
  2  4  1  0  0  0
 19 21  1  0  0  0
 24 26  1  0  0  0
M  CHG 1  12   1
M  CHG 1  14  -1
M  END
> <minimizedAffinity>
-8.19553

$$$$
1YEI_PGG_L_551


 26 26  0  0  0  0  0  0  0  0999 V2000
   17.7221   36.2784   58.2196 P   0  0  0  0  0  0  0  0  0  0  0  0
   16.4421   35.6440   58.1938 O   0  0  0  0  0  0  0  0  0  0  0  0
   18.2152   36.8345   56.9704 O   0  0  0  0  0  0  0  0  0  0  0  0
   15.7856   36.2554   57.8250 H   0  0  0  0  0  0  0  0  0  0  0  0
   17.6256   37.5028   59.2965 O   0  0  0  0  0  0  0  0  0  0  0  0
   16.5929   37.5077   60.2253 C   0  0  0  0  0  0  0  0  0  0  0  0
   16.6569   36.5710   61.2584 C   0  0  0  0  0  0  0  0  0  0  0  0
   15.6053   36.5250   62.1804 C   0  0  0  0  0  0  0  0  0  0  0  0
   14.5359   37.4069   62.0367 C   0  0  0  0  0  0  0  0  0  0  0  0
   14.5077   38.3521   60.9778 C   0  0  0  0  0  0  0  0  0  0  0  0
   15.5501   38.4141   60.0497 C   0  0  0  0  0  0  0  0  0  0  0  0
   13.3879   37.3266   62.9739 N   0  0  0  0  0  0  0  0  0  0  0  0
   13.5252   37.4308   64.2169 O   0  0  0  0  0  0  0  0  0  0  0  0
   12.2796   37.1305   62.5046 O   0  0  0  0  0  0  0  0  0  0  0  0
   18.9236   35.2043   58.8776 C   0  0  0  0  0  0  0  0  0  0  0  0
   19.9314   35.8344   59.8128 C   0  0  0  0  0  0  0  0  0  0  0  0
   21.1102   36.2532   58.9472 C   0  0  0  0  0  0  0  0  0  0  0  0
   21.2667   37.7483   58.7676 C   0  0  0  0  0  0  0  0  0  0  0  0
   20.8230   38.2760   57.6076 N   0  0  0  0  0  0  0  0  0  0  0  0
   21.7925   38.4228   59.6921 O   0  0  0  0  0  0  0  0  0  0  0  0
   20.4284   37.6684   56.9410 H   0  0  0  0  0  0  0  0  0  0  0  0
   20.8897   39.5757   57.3144 C   0  0  0  0  0  0  0  0  0  0  0  0
   19.5493   40.1558   56.7937 C   0  0  0  0  0  0  0  0  0  0  0  0
   18.4937   39.8062   57.3657 O   0  0  0  0  0  0  0  0  0  0  0  0
   19.4834   40.6065   55.6269 O   0  0  0  0  0  0  0  0  0  0  0  0
   18.5241   39.4668   58.2385 H   0  0  0  0  0  0  0  0  0  0  0  0
  6  7  2  0  0  0
  6 11  1  0  0  0
  6  5  1  0  0  0
  7  8  1  0  0  0
  8  9  2  0  0  0
  9 10  1  0  0  0
  9 12  1  0  0  0
 10 11  2  0  0  0
  1  5  1  0  0  0
  1  2  1  0  0  0
  1  3  2  0  0  0
  1 15  1  0  0  0
 15 16  1  0  0  0
 16 17  1  0  0  0
 17 18  1  0  0  0
 18 19  1  0  0  0
 18 20  2  0  0  0
 19 22  1  0  0  0
 22 23  1  0  0  0
 23 24  1  0  0  0
 23 25  2  0  0  0
 12 13  2  0  0  0
 12 14  1  0  0  0
  2  4  1  0  0  0
 19 21  1  0  0  0
 24 26  1  0  0  0
M  CHG 1  12   1
M  CHG 1  14  -1
M  END
> <minimizedAffinity>
-7.51191

$$$$
1YEI_PGG_L_551


 26 26  0  0  0  0  0  0  0  0999 V2000
   17.7703   35.9146   59.8637 P   0  0  0  0  0  0  0  0  0  0  0  0
   17.5645   34.5167   59.6511 O   0  0  0  0  0  0  0  0  0  0  0  0
   19.1447   36.3802   59.9489 O   0  0  0  0  0  0  0  0  0  0  0  0
   18.0563   34.2335   58.8644 H   0  0  0  0  0  0  0  0  0  0  0  0
   17.0651   36.6956   58.6142 O   0  0  0  0  0  0  0  0  0  0  0  0
   17.7164   37.7788   58.0386 C   0  0  0  0  0  0  0  0  0  0  0  0
   18.5510   37.5192   56.9501 C   0  0  0  0  0  0  0  0  0  0  0  0
   19.2543   38.5870   56.3818 C   0  0  0  0  0  0  0  0  0  0  0  0
   19.1020   39.8641   56.9185 C   0  0  0  0  0  0  0  0  0  0  0  0
   18.2382   40.0929   58.0217 C   0  0  0  0  0  0  0  0  0  0  0  0
   17.5262   39.0392   58.6000 C   0  0  0  0  0  0  0  0  0  0  0  0
   19.8884   40.9926   56.3611 N   0  0  0  0  0  0  0  0  0  0  0  0
   21.1409   41.0365   56.4250 O   0  0  0  0  0  0  0  0  0  0  0  0
   19.2789   41.9136   55.8441 O   0  0  0  0  0  0  0  0  0  0  0  0
   16.8988   36.4537   61.2709 C   0  0  0  0  0  0  0  0  0  0  0  0
   15.4785   36.9148   61.0314 C   0  0  0  0  0  0  0  0  0  0  0  0
   15.1064   37.7817   62.2247 C   0  0  0  0  0  0  0  0  0  0  0  0
   13.7024   37.5702   62.7502 C   0  0  0  0  0  0  0  0  0  0  0  0
   12.7092   37.5119   61.8387 N   0  0  0  0  0  0  0  0  0  0  0  0
   13.5255   37.4578   63.9921 O   0  0  0  0  0  0  0  0  0  0  0  0
   12.9438   37.6137   60.8879 H   0  0  0  0  0  0  0  0  0  0  0  0
   11.4269   37.3240   62.1549 C   0  0  0  0  0  0  0  0  0  0  0  0
   10.5143   38.5079   61.7429 C   0  0  0  0  0  0  0  0  0  0  0  0
   11.0535   39.5280   61.2610 O   0  0  0  0  0  0  0  0  0  0  0  0
    9.3700   38.6083   62.2422 O   0  0  0  0  0  0  0  0  0  0  0  0
   11.9092   39.4716   60.8833 H   0  0  0  0  0  0  0  0  0  0  0  0
  6  7  2  0  0  0
  6 11  1  0  0  0
  6  5  1  0  0  0
  7  8  1  0  0  0
  8  9  2  0  0  0
  9 10  1  0  0  0
  9 12  1  0  0  0
 10 11  2  0  0  0
  1  5  1  0  0  0
  1  2  1  0  0  0
  1  3  2  0  0  0
  1 15  1  0  0  0
 15 16  1  0  0  0
 16 17  1  0  0  0
 17 18  1  0  0  0
 18 19  1  0  0  0
 18 20  2  0  0  0
 19 22  1  0  0  0
 22 23  1  0  0  0
 23 24  1  0  0  0
 23 25  2  0  0  0
 12 13  2  0  0  0
 12 14  1  0  0  0
  2  4  1  0  0  0
 19 21  1  0  0  0
 24 26  1  0  0  0
M  CHG 1  12   1
M  CHG 1  14  -1
M  END
> <minimizedAffinity>
-7.14995

$$$$
1YEI_PGG_L_551


 26 26  0  0  0  0  0  0  0  0999 V2000
   17.8792   36.3680   57.7883 P   0  0  0  0  0  0  0  0  0  0  0  0
   19.0383   35.5792   57.5131 O   0  0  0  0  0  0  0  0  0  0  0  0
   16.6041   35.6742   57.8652 O   0  0  0  0  0  0  0  0  0  0  0  0
   19.0968   34.8553   58.1561 H   0  0  0  0  0  0  0  0  0  0  0  0
   18.1288   37.0953   59.2295 O   0  0  0  0  0  0  0  0  0  0  0  0
   17.0510   37.2955   60.0825 C   0  0  0  0  0  0  0  0  0  0  0  0
   16.9333   36.4375   61.1773 C   0  0  0  0  0  0  0  0  0  0  0  0
   15.8309   36.5891   62.0255 C   0  0  0  0  0  0  0  0  0  0  0  0
   14.8925   37.5820   61.7502 C   0  0  0  0  0  0  0  0  0  0  0  0
   15.0483   38.4423   60.6316 C   0  0  0  0  0  0  0  0  0  0  0  0
   16.1441   38.3070   59.7756 C   0  0  0  0  0  0  0  0  0  0  0  0
   13.6893   37.7127   62.6092 N   0  0  0  0  0  0  0  0  0  0  0  0
   13.6971   37.4150   63.8282 O   0  0  0  0  0  0  0  0  0  0  0  0
   12.6573   38.1050   62.0914 O   0  0  0  0  0  0  0  0  0  0  0  0
   17.7464   37.6776   56.6491 C   0  0  0  0  0  0  0  0  0  0  0  0
   19.0168   38.0462   55.9159 C   0  0  0  0  0  0  0  0  0  0  0  0
   19.5917   39.2527   56.6425 C   0  0  0  0  0  0  0  0  0  0  0  0
   20.8603   38.9793   57.4223 C   0  0  0  0  0  0  0  0  0  0  0  0
   20.7249   38.7074   58.7371 N   0  0  0  0  0  0  0  0  0  0  0  0
   21.9664   39.0146   56.8211 O   0  0  0  0  0  0  0  0  0  0  0  0
   19.8182   38.7053   59.1207 H   0  0  0  0  0  0  0  0  0  0  0  0
   21.7521   38.4414   59.5456 C   0  0  0  0  0  0  0  0  0  0  0  0
   21.7454   36.9884   60.0869 C   0  0  0  0  0  0  0  0  0  0  0  0
   22.4743   36.7210   61.0671 O   0  0  0  0  0  0  0  0  0  0  0  0
   21.3660   36.0544   59.3436 O   0  0  0  0  0  0  0  0  0  0  0  0
   22.7676   37.4071   61.6339 H   0  0  0  0  0  0  0  0  0  0  0  0
  6  7  2  0  0  0
  6 11  1  0  0  0
  6  5  1  0  0  0
  7  8  1  0  0  0
  8  9  2  0  0  0
  9 10  1  0  0  0
  9 12  1  0  0  0
 10 11  2  0  0  0
  1  5  1  0  0  0
  1  2  1  0  0  0
  1  3  2  0  0  0
  1 15  1  0  0  0
 15 16  1  0  0  0
 16 17  1  0  0  0
 17 18  1  0  0  0
 18 19  1  0  0  0
 18 20  2  0  0  0
 19 22  1  0  0  0
 22 23  1  0  0  0
 23 24  1  0  0  0
 23 25  2  0  0  0
 12 13  2  0  0  0
 12 14  1  0  0  0
  2  4  1  0  0  0
 19 21  1  0  0  0
 24 26  1  0  0  0
M  CHG 1  12   1
M  CHG 1  14  -1
M  END
> <minimizedAffinity>
-7.07331

$$$$
1YEI_PGG_L_551


 26 26  0  0  0  0  0  0  0  0999 V2000
   15.2517   37.0572   62.4715 P   0  0  0  0  0  0  0  0  0  0  0  0
   14.4891   36.1078   63.2191 O   0  0  0  0  0  0  0  0  0  0  0  0
   16.5512   37.4343   63.0028 O   0  0  0  0  0  0  0  0  0  0  0  0
   15.0237   35.3133   63.3734 H   0  0  0  0  0  0  0  0  0  0  0  0
   15.4962   36.4121   60.9909 O   0  0  0  0  0  0  0  0  0  0  0  0
   16.6761   36.6958   60.3153 C   0  0  0  0  0  0  0  0  0  0  0  0
   16.6773   37.8045   59.4670 C   0  0  0  0  0  0  0  0  0  0  0  0
   17.8395   38.0842   58.7398 C   0  0  0  0  0  0  0  0  0  0  0  0
   18.9481   37.2519   58.8829 C   0  0  0  0  0  0  0  0  0  0  0  0
   18.9140   36.1369   59.7610 C   0  0  0  0  0  0  0  0  0  0  0  0
   17.7630   35.8441   60.4969 C   0  0  0  0  0  0  0  0  0  0  0  0
   20.1650   37.5051   58.0719 N   0  0  0  0  0  0  0  0  0  0  0  0
   20.4190   36.8666   57.0219 O   0  0  0  0  0  0  0  0  0  0  0  0
   20.9477   38.3534   58.4653 O   0  0  0  0  0  0  0  0  0  0  0  0
   14.3176   38.4966   62.1782 C   0  0  0  0  0  0  0  0  0  0  0  0
   13.1032   38.3266   61.2931 C   0  0  0  0  0  0  0  0  0  0  0  0
   12.4452   37.0233   61.7203 C   0  0  0  0  0  0  0  0  0  0  0  0
   11.0691   37.1774   62.3325 C   0  0  0  0  0  0  0  0  0  0  0  0
   10.3057   38.1925   61.8766 N   0  0  0  0  0  0  0  0  0  0  0  0
   10.7022   36.3656   63.2226 O   0  0  0  0  0  0  0  0  0  0  0  0
   10.6795   38.7790   61.1798 H   0  0  0  0  0  0  0  0  0  0  0  0
    9.0725   38.4450   62.3183 C   0  0  0  0  0  0  0  0  0  0  0  0
    8.5358   39.8313   61.8777 C   0  0  0  0  0  0  0  0  0  0  0  0
    9.3339   40.6281   61.3374 O   0  0  0  0  0  0  0  0  0  0  0  0
    7.4918   40.2841   62.4011 O   0  0  0  0  0  0  0  0  0  0  0  0
   10.1199   40.3072   60.9409 H   0  0  0  0  0  0  0  0  0  0  0  0
  6  7  2  0  0  0
  6 11  1  0  0  0
  6  5  1  0  0  0
  7  8  1  0  0  0
  8  9  2  0  0  0
  9 10  1  0  0  0
  9 12  1  0  0  0
 10 11  2  0  0  0
  1  5  1  0  0  0
  1  2  1  0  0  0
  1  3  2  0  0  0
  1 15  1  0  0  0
 15 16  1  0  0  0
 16 17  1  0  0  0
 17 18  1  0  0  0
 18 19  1  0  0  0
 18 20  2  0  0  0
 19 22  1  0  0  0
 22 23  1  0  0  0
 23 24  1  0  0  0
 23 25  2  0  0  0
 12 13  2  0  0  0
 12 14  1  0  0  0
  2  4  1  0  0  0
 19 21  1  0  0  0
 24 26  1  0  0  0
M  CHG 1  12   1
M  CHG 1  14  -1
M  END
> <minimizedAffinity>
-6.90066

$$$$
1YEI_PGG_L_551


 26 26  0  0  0  0  0  0  0  0999 V2000
   17.9099   36.1897   56.7608 P   0  0  0  0  0  0  0  0  0  0  0  0
   18.7251   35.0219   56.6456 O   0  0  0  0  0  0  0  0  0  0  0  0
   16.4744   35.9915   56.8745 O   0  0  0  0  0  0  0  0  0  0  0  0
   18.5342   34.4204   57.3823 H   0  0  0  0  0  0  0  0  0  0  0  0
   18.4023   36.9844   58.1003 O   0  0  0  0  0  0  0  0  0  0  0  0
   17.5574   37.0443   59.2010 C   0  0  0  0  0  0  0  0  0  0  0  0
   16.6503   38.1040   59.2547 C   0  0  0  0  0  0  0  0  0  0  0  0
   15.8200   38.2125   60.3757 C   0  0  0  0  0  0  0  0  0  0  0  0
   15.9267   37.2682   61.3950 C   0  0  0  0  0  0  0  0  0  0  0  0
   16.8556   36.1985   61.3033 C   0  0  0  0  0  0  0  0  0  0  0  0
   17.6907   36.0730   60.1902 C   0  0  0  0  0  0  0  0  0  0  0  0
   15.0926   37.4078   62.6146 N   0  0  0  0  0  0  0  0  0  0  0  0
   14.7074   38.5228   63.0425 O   0  0  0  0  0  0  0  0  0  0  0  0
   14.7970   36.3938   63.2240 O   0  0  0  0  0  0  0  0  0  0  0  0
   18.2301   37.2903   55.4506 C   0  0  0  0  0  0  0  0  0  0  0  0
   17.3148   37.1744   54.2523 C   0  0  0  0  0  0  0  0  0  0  0  0
   18.0255   36.2652   53.2612 C   0  0  0  0  0  0  0  0  0  0  0  0
   17.3995   34.8971   53.0926 C   0  0  0  0  0  0  0  0  0  0  0  0
   17.9464   33.8822   53.7939 N   0  0  0  0  0  0  0  0  0  0  0  0
   16.4124   34.7679   52.3211 O   0  0  0  0  0  0  0  0  0  0  0  0
   18.7199   34.0789   54.3703 H   0  0  0  0  0  0  0  0  0  0  0  0
   17.4964   32.6271   53.7493 C   0  0  0  0  0  0  0  0  0  0  0  0
   16.8705   32.1527   55.0862 C   0  0  0  0  0  0  0  0  0  0  0  0
   16.6136   30.9361   55.2180 O   0  0  0  0  0  0  0  0  0  0  0  0
   16.2760   32.9782   55.8169 O   0  0  0  0  0  0  0  0  0  0  0  0
   17.0487   30.3044   54.6799 H   0  0  0  0  0  0  0  0  0  0  0  0
  6  7  2  0  0  0
  6 11  1  0  0  0
  6  5  1  0  0  0
  7  8  1  0  0  0
  8  9  2  0  0  0
  9 10  1  0  0  0
  9 12  1  0  0  0
 10 11  2  0  0  0
  1  5  1  0  0  0
  1  2  1  0  0  0
  1  3  2  0  0  0
  1 15  1  0  0  0
 15 16  1  0  0  0
 16 17  1  0  0  0
 17 18  1  0  0  0
 18 19  1  0  0  0
 18 20  2  0  0  0
 19 22  1  0  0  0
 22 23  1  0  0  0
 23 24  1  0  0  0
 23 25  2  0  0  0
 12 13  2  0  0  0
 12 14  1  0  0  0
  2  4  1  0  0  0
 19 21  1  0  0  0
 24 26  1  0  0  0
M  CHG 1  12   1
M  CHG 1  14  -1
M  END
> <minimizedAffinity>
-6.57070

$$$$
