4B6R_3DQ_A_1158


 26 27  0  0  0  0  0  0  0  0999 V2000
   24.1281   47.9439  -13.3390 C   0  0  0  0  0  0  0  0  0  0  0  0
   22.7766   47.3996  -13.6376 C   0  0  0  0  0  0  0  0  0  0  0  0
   22.6882   46.5244  -14.4939 O   0  0  0  0  0  0  0  0  0  0  0  0
   21.5794   47.9765  -12.9083 C   0  0  0  0  0  0  0  0  0  0  0  0
   20.3861   47.2232  -13.1871 O   0  0  0  0  0  0  0  0  0  0  0  0
   21.8385   48.1060  -11.4028 C   0  0  0  0  0  0  0  0  0  0  0  0
   20.7290   48.8012  -10.8789 O   0  0  0  0  0  0  0  0  0  0  0  0
   23.1434   48.9178  -11.1112 C   0  0  0  0  0  0  0  0  0  0  0  0
   24.3325   48.2060  -11.8204 C   0  0  0  0  0  0  0  0  0  0  0  0
   24.5207   47.0082  -11.0721 O   0  0  0  0  0  0  0  0  0  0  0  0
   20.4935   46.3155  -12.8625 H   0  0  0  0  0  0  0  0  0  0  0  0
   20.6574   49.6674  -11.3096 H   0  0  0  0  0  0  0  0  0  0  0  0
   23.7253   46.4570  -11.1388 H   0  0  0  0  0  0  0  0  0  0  0  0
   25.6384   48.9495  -11.6218 C   0  0  0  0  0  0  0  0  0  0  0  0
   26.7217   48.4486  -12.0123 O   0  0  0  0  0  0  0  0  0  0  0  0
   25.5548   50.0475  -11.0580 O   0  0  0  0  0  0  0  0  0  0  0  0
   24.7188   50.3729  -10.7875 H   0  0  0  0  0  0  0  0  0  0  0  0
   24.1328   49.1934  -14.2260 C   0  0  0  0  0  0  0  0  0  0  0  0
   26.0704   48.9885  -18.1502 C   0  0  0  0  0  0  0  0  0  0  0  0
   24.6703   49.0892  -18.0883 C   0  0  0  0  0  0  0  0  0  0  0  0
   24.0432   49.1486  -16.8265 C   0  0  0  0  0  0  0  0  0  0  0  0
   26.8164   48.9236  -16.9745 C   0  0  0  0  0  0  0  0  0  0  0  0
   26.1796   48.9816  -15.7293 C   0  0  0  0  0  0  0  0  0  0  0  0
   24.7902   49.0880  -15.6223 C   0  0  0  0  0  0  0  0  0  0  0  0
   26.4611   49.8961  -20.3744 C   0  0  0  0  0  0  0  0  0  0  0  0
   26.7234   48.9290  -19.3520 O   0  0  0  0  0  0  0  0  0  0  0  0
 25 26  1  0  0  0
 26 19  1  0  0  0
 19 20  1  0  0  0
 19 22  2  0  0  0
 20 21  2  0  0  0
 21 24  1  0  0  0
 22 23  1  0  0  0
 23 24  2  0  0  0
 24 18  1  0  0  0
 18  1  1  0  0  0
  1  2  1  0  0  0
  1  9  1  0  0  0
  2  3  2  0  0  0
  2  4  1  0  0  0
  4  5  1  0  0  0
  4  6  1  0  0  0
  6  7  1  0  0  0
  6  8  1  0  0  0
  8  9  1  0  0  0
  9 14  1  0  0  0
  9 10  1  0  0  0
 14 16  1  0  0  0
 14 15  2  0  0  0
  5 11  1  0  0  0
  7 12  1  0  0  0
 16 17  1  0  0  0
 10 13  1  0  0  0
M  END
> <minimizedAffinity>
-10.29917

$$$$
4B6R_3DQ_A_1158


 26 27  0  0  0  0  0  0  0  0999 V2000
   24.3064   49.1178  -13.9717 C   0  0  0  0  0  0  0  0  0  0  0  0
   25.3116   49.0948  -12.8759 C   0  0  0  0  0  0  0  0  0  0  0  0
   26.1817   49.9609  -12.8788 O   0  0  0  0  0  0  0  0  0  0  0  0
   25.2400   47.9882  -11.8422 C   0  0  0  0  0  0  0  0  0  0  0  0
   26.1701   48.2162  -10.7689 O   0  0  0  0  0  0  0  0  0  0  0  0
   23.8103   47.7805  -11.3293 C   0  0  0  0  0  0  0  0  0  0  0  0
   23.8561   46.6299  -10.5151 O   0  0  0  0  0  0  0  0  0  0  0  0
   22.8059   47.5438  -12.5048 C   0  0  0  0  0  0  0  0  0  0  0  0
   22.8791   48.7662  -13.4660 C   0  0  0  0  0  0  0  0  0  0  0  0
   22.2752   49.8268  -12.7309 O   0  0  0  0  0  0  0  0  0  0  0  0
   25.9371   49.0373  -10.3080 H   0  0  0  0  0  0  0  0  0  0  0  0
   24.1657   45.8749  -11.0395 H   0  0  0  0  0  0  0  0  0  0  0  0
   22.7989   50.0075  -11.9347 H   0  0  0  0  0  0  0  0  0  0  0  0
   21.9608   48.6037  -14.6610 C   0  0  0  0  0  0  0  0  0  0  0  0
   21.4236   49.6070  -15.1919 O   0  0  0  0  0  0  0  0  0  0  0  0
   21.7841   47.4438  -15.0531 O   0  0  0  0  0  0  0  0  0  0  0  0
   22.2113   46.7321  -14.6183 H   0  0  0  0  0  0  0  0  0  0  0  0
   24.9242   48.1076  -14.9444 C   0  0  0  0  0  0  0  0  0  0  0  0
   25.6790   49.5085  -19.0265 C   0  0  0  0  0  0  0  0  0  0  0  0
   24.3979   49.0350  -18.6967 C   0  0  0  0  0  0  0  0  0  0  0  0
   24.1537   48.5772  -17.3854 C   0  0  0  0  0  0  0  0  0  0  0  0
   26.6928   49.4975  -18.0699 C   0  0  0  0  0  0  0  0  0  0  0  0
   26.4358   49.0381  -16.7728 C   0  0  0  0  0  0  0  0  0  0  0  0
   25.1747   48.5644  -16.4009 C   0  0  0  0  0  0  0  0  0  0  0  0
   25.2755   51.0981  -20.8247 C   0  0  0  0  0  0  0  0  0  0  0  0
   25.9629   49.9638  -20.2859 O   0  0  0  0  0  0  0  0  0  0  0  0
 25 26  1  0  0  0
 26 19  1  0  0  0
 19 20  1  0  0  0
 19 22  2  0  0  0
 20 21  2  0  0  0
 21 24  1  0  0  0
 22 23  1  0  0  0
 23 24  2  0  0  0
 24 18  1  0  0  0
 18  1  1  0  0  0
  1  2  1  0  0  0
  1  9  1  0  0  0
  2  3  2  0  0  0
  2  4  1  0  0  0
  4  5  1  0  0  0
  4  6  1  0  0  0
  6  7  1  0  0  0
  6  8  1  0  0  0
  8  9  1  0  0  0
  9 14  1  0  0  0
  9 10  1  0  0  0
 14 16  1  0  0  0
 14 15  2  0  0  0
  5 11  1  0  0  0
  7 12  1  0  0  0
 16 17  1  0  0  0
 10 13  1  0  0  0
M  END
> <minimizedAffinity>
-9.68210

$$$$
4B6R_3DQ_A_1158


 26 27  0  0  0  0  0  0  0  0999 V2000
   24.2616   47.9582  -13.1326 C   0  0  0  0  0  0  0  0  0  0  0  0
   22.9632   47.4083  -13.6054 C   0  0  0  0  0  0  0  0  0  0  0  0
   22.9900   46.5539  -14.4865 O   0  0  0  0  0  0  0  0  0  0  0  0
   21.6794   47.9552  -13.0129 C   0  0  0  0  0  0  0  0  0  0  0  0
   20.5382   47.1974  -13.4519 O   0  0  0  0  0  0  0  0  0  0  0  0
   21.7531   48.0496  -11.4846 C   0  0  0  0  0  0  0  0  0  0  0  0
   20.5797   48.7207  -11.0826 O   0  0  0  0  0  0  0  0  0  0  0  0
   23.0028   48.8666  -11.0181 C   0  0  0  0  0  0  0  0  0  0  0  0
   24.2778   48.1843  -11.5946 C   0  0  0  0  0  0  0  0  0  0  0  0
   24.3894   46.9702  -10.8576 O   0  0  0  0  0  0  0  0  0  0  0  0
   20.6171   46.2830  -13.1381 H   0  0  0  0  0  0  0  0  0  0  0  0
   20.5497   49.5966  -11.4983 H   0  0  0  0  0  0  0  0  0  0  0  0
   23.6150   46.4131  -11.0330 H   0  0  0  0  0  0  0  0  0  0  0  0
   25.5406   48.9353  -11.2220 C   0  0  0  0  0  0  0  0  0  0  0  0
   26.6085   48.3134  -10.9984 O   0  0  0  0  0  0  0  0  0  0  0  0
   25.4367   50.1661  -11.1517 O   0  0  0  0  0  0  0  0  0  0  0  0
   24.6138   50.5776  -11.3293 H   0  0  0  0  0  0  0  0  0  0  0  0
   24.3576   49.2294  -13.9828 C   0  0  0  0  0  0  0  0  0  0  0  0
   25.6217   48.7433  -18.1496 C   0  0  0  0  0  0  0  0  0  0  0  0
   26.5777   48.6057  -17.1291 C   0  0  0  0  0  0  0  0  0  0  0  0
   26.1753   48.7682  -15.7873 C   0  0  0  0  0  0  0  0  0  0  0  0
   24.3028   49.0609  -17.8295 C   0  0  0  0  0  0  0  0  0  0  0  0
   23.9186   49.2212  -16.4930 C   0  0  0  0  0  0  0  0  0  0  0  0
   24.8358   49.0871  -15.4471 C   0  0  0  0  0  0  0  0  0  0  0  0
   26.2010   49.7371  -20.2942 C   0  0  0  0  0  0  0  0  0  0  0  0
   25.9652   48.5934  -19.4663 O   0  0  0  0  0  0  0  0  0  0  0  0
 25 26  1  0  0  0
 26 19  1  0  0  0
 19 20  1  0  0  0
 19 22  2  0  0  0
 20 21  2  0  0  0
 21 24  1  0  0  0
 22 23  1  0  0  0
 23 24  2  0  0  0
 24 18  1  0  0  0
 18  1  1  0  0  0
  1  2  1  0  0  0
  1  9  1  0  0  0
  2  3  2  0  0  0
  2  4  1  0  0  0
  4  5  1  0  0  0
  4  6  1  0  0  0
  6  7  1  0  0  0
  6  8  1  0  0  0
  8  9  1  0  0  0
  9 14  1  0  0  0
  9 10  1  0  0  0
 14 16  1  0  0  0
 14 15  2  0  0  0
  5 11  1  0  0  0
  7 12  1  0  0  0
 16 17  1  0  0  0
 10 13  1  0  0  0
M  END
> <minimizedAffinity>
-9.25245

$$$$
4B6R_3DQ_A_1158


 26 27  0  0  0  0  0  0  0  0999 V2000
   24.2864   47.9431  -13.0467 C   0  0  0  0  0  0  0  0  0  0  0  0
   22.9735   47.4108  -13.4993 C   0  0  0  0  0  0  0  0  0  0  0  0
   22.9761   46.5407  -14.3653 O   0  0  0  0  0  0  0  0  0  0  0  0
   21.7058   47.9932  -12.9062 C   0  0  0  0  0  0  0  0  0  0  0  0
   20.5462   47.2506  -13.3224 O   0  0  0  0  0  0  0  0  0  0  0  0
   21.7942   48.1129  -11.3804 C   0  0  0  0  0  0  0  0  0  0  0  0
   20.6376   48.8140  -10.9809 O   0  0  0  0  0  0  0  0  0  0  0  0
   23.0636   48.9131  -10.9386 C   0  0  0  0  0  0  0  0  0  0  0  0
   24.3201   48.1957  -11.5132 C   0  0  0  0  0  0  0  0  0  0  0  0
   24.4140   46.9927  -10.7557 O   0  0  0  0  0  0  0  0  0  0  0  0
   20.6098   46.3404  -12.9931 H   0  0  0  0  0  0  0  0  0  0  0  0
   20.6213   49.6829  -11.4117 H   0  0  0  0  0  0  0  0  0  0  0  0
   23.6273   46.4480  -10.9150 H   0  0  0  0  0  0  0  0  0  0  0  0
   25.6005   48.9281  -11.1641 C   0  0  0  0  0  0  0  0  0  0  0  0
   26.7161   48.4436  -11.4765 O   0  0  0  0  0  0  0  0  0  0  0  0
   25.4630   50.0001  -10.5622 O   0  0  0  0  0  0  0  0  0  0  0  0
   24.6049   50.3141  -10.3546 H   0  0  0  0  0  0  0  0  0  0  0  0
   24.4002   49.1970  -13.9201 C   0  0  0  0  0  0  0  0  0  0  0  0
   23.0951   48.8225  -18.0857 C   0  0  0  0  0  0  0  0  0  0  0  0
   24.4077   48.4511  -17.7490 C   0  0  0  0  0  0  0  0  0  0  0  0
   24.8328   48.5767  -16.4102 C   0  0  0  0  0  0  0  0  0  0  0  0
   22.2426   49.3304  -17.1069 C   0  0  0  0  0  0  0  0  0  0  0  0
   22.6795   49.4513  -15.7825 C   0  0  0  0  0  0  0  0  0  0  0  0
   23.9746   49.0878  -15.4033 C   0  0  0  0  0  0  0  0  0  0  0  0
   21.9940   49.8248  -20.0108 C   0  0  0  0  0  0  0  0  0  0  0  0
   22.6374   48.7172  -19.3716 O   0  0  0  0  0  0  0  0  0  0  0  0
 25 26  1  0  0  0
 26 19  1  0  0  0
 19 20  1  0  0  0
 19 22  2  0  0  0
 20 21  2  0  0  0
 21 24  1  0  0  0
 22 23  1  0  0  0
 23 24  2  0  0  0
 24 18  1  0  0  0
 18  1  1  0  0  0
  1  2  1  0  0  0
  1  9  1  0  0  0
  2  3  2  0  0  0
  2  4  1  0  0  0
  4  5  1  0  0  0
  4  6  1  0  0  0
  6  7  1  0  0  0
  6  8  1  0  0  0
  8  9  1  0  0  0
  9 14  1  0  0  0
  9 10  1  0  0  0
 14 16  1  0  0  0
 14 15  2  0  0  0
  5 11  1  0  0  0
  7 12  1  0  0  0
 16 17  1  0  0  0
 10 13  1  0  0  0
M  END
> <minimizedAffinity>
-8.19372

$$$$
4B6R_3DQ_A_1158


 26 27  0  0  0  0  0  0  0  0999 V2000
   25.0556   48.5131  -17.1462 C   0  0  0  0  0  0  0  0  0  0  0  0
   26.2014   48.9326  -17.9966 C   0  0  0  0  0  0  0  0  0  0  0  0
   27.1793   48.1921  -18.0457 O   0  0  0  0  0  0  0  0  0  0  0  0
   26.1250   50.2623  -18.7207 C   0  0  0  0  0  0  0  0  0  0  0  0
   27.2311   50.4277  -19.6254 O   0  0  0  0  0  0  0  0  0  0  0  0
   24.7753   50.4511  -19.4227 C   0  0  0  0  0  0  0  0  0  0  0  0
   24.7737   51.7762  -19.9053 O   0  0  0  0  0  0  0  0  0  0  0  0
   23.5798   50.2591  -18.4323 C   0  0  0  0  0  0  0  0  0  0  0  0
   23.6858   48.8380  -17.8054 C   0  0  0  0  0  0  0  0  0  0  0  0
   23.3644   47.9569  -18.8779 O   0  0  0  0  0  0  0  0  0  0  0  0
   27.1949   49.7407  -20.3092 H   0  0  0  0  0  0  0  0  0  0  0  0
   24.8847   52.3908  -19.1631 H   0  0  0  0  0  0  0  0  0  0  0  0
   24.0242   48.0514  -19.5827 H   0  0  0  0  0  0  0  0  0  0  0  0
   22.5825   48.5785  -16.7989 C   0  0  0  0  0  0  0  0  0  0  0  0
   21.9671   49.5360  -16.2682 O   0  0  0  0  0  0  0  0  0  0  0  0
   22.3499   47.3900  -16.5463 O   0  0  0  0  0  0  0  0  0  0  0  0
   22.8411   46.7156  -16.9729 H   0  0  0  0  0  0  0  0  0  0  0  0
   25.3618   49.2837  -15.8576 C   0  0  0  0  0  0  0  0  0  0  0  0
   23.9277   47.7303  -12.0201 C   0  0  0  0  0  0  0  0  0  0  0  0
   24.4871   46.8363  -12.9486 C   0  0  0  0  0  0  0  0  0  0  0  0
   24.9435   47.3322  -14.1874 C   0  0  0  0  0  0  0  0  0  0  0  0
   23.8077   49.0817  -12.3401 C   0  0  0  0  0  0  0  0  0  0  0  0
   24.2635   49.5589  -13.5746 C   0  0  0  0  0  0  0  0  0  0  0  0
   24.8317   48.7054  -14.5244 C   0  0  0  0  0  0  0  0  0  0  0  0
   22.1965   47.7163  -10.3096 C   0  0  0  0  0  0  0  0  0  0  0  0
   23.4721   47.2954  -10.8046 O   0  0  0  0  0  0  0  0  0  0  0  0
 25 26  1  0  0  0
 26 19  1  0  0  0
 19 20  1  0  0  0
 19 22  2  0  0  0
 20 21  2  0  0  0
 21 24  1  0  0  0
 22 23  1  0  0  0
 23 24  2  0  0  0
 24 18  1  0  0  0
 18  1  1  0  0  0
  1  2  1  0  0  0
  1  9  1  0  0  0
  2  3  2  0  0  0
  2  4  1  0  0  0
  4  5  1  0  0  0
  4  6  1  0  0  0
  6  7  1  0  0  0
  6  8  1  0  0  0
  8  9  1  0  0  0
  9 14  1  0  0  0
  9 10  1  0  0  0
 14 16  1  0  0  0
 14 15  2  0  0  0
  5 11  1  0  0  0
  7 12  1  0  0  0
 16 17  1  0  0  0
 10 13  1  0  0  0
M  END
> <minimizedAffinity>
-7.66912

$$$$
4B6R_3DQ_A_1158


 26 27  0  0  0  0  0  0  0  0999 V2000
   23.1314   49.1724  -13.6442 C   0  0  0  0  0  0  0  0  0  0  0  0
   24.1533   49.9390  -12.8826 C   0  0  0  0  0  0  0  0  0  0  0  0
   24.2245   51.1490  -13.0778 O   0  0  0  0  0  0  0  0  0  0  0  0
   25.0777   49.1902  -11.9430 C   0  0  0  0  0  0  0  0  0  0  0  0
   25.8784   50.0979  -11.1658 O   0  0  0  0  0  0  0  0  0  0  0  0
   24.3104   48.1999  -11.0594 C   0  0  0  0  0  0  0  0  0  0  0  0
   25.2915   47.4614  -10.3660 O   0  0  0  0  0  0  0  0  0  0  0  0
   23.4354   47.2246  -11.9139 C   0  0  0  0  0  0  0  0  0  0  0  0
   22.4563   48.0728  -12.7772 C   0  0  0  0  0  0  0  0  0  0  0  0
   21.5276   48.6025  -11.8355 O   0  0  0  0  0  0  0  0  0  0  0  0
   25.3009   50.6411  -10.6069 H   0  0  0  0  0  0  0  0  0  0  0  0
   25.8655   47.0082  -11.0032 H   0  0  0  0  0  0  0  0  0  0  0  0
   21.9941   49.1799  -11.2111 H   0  0  0  0  0  0  0  0  0  0  0  0
   21.5909   47.2059  -13.6701 C   0  0  0  0  0  0  0  0  0  0  0  0
   20.3437   47.1887  -13.5249 O   0  0  0  0  0  0  0  0  0  0  0  0
   22.1916   46.5353  -14.5187 O   0  0  0  0  0  0  0  0  0  0  0  0
   23.1250   46.5875  -14.5822 H   0  0  0  0  0  0  0  0  0  0  0  0
   23.9768   48.6575  -14.8138 C   0  0  0  0  0  0  0  0  0  0  0  0
   23.0799   50.1719  -18.8261 C   0  0  0  0  0  0  0  0  0  0  0  0
   22.0242   49.9899  -17.9169 C   0  0  0  0  0  0  0  0  0  0  0  0
   22.3089   49.4963  -16.6270 C   0  0  0  0  0  0  0  0  0  0  0  0
   24.3825   49.8419  -18.4555 C   0  0  0  0  0  0  0  0  0  0  0  0
   24.6493   49.3510  -17.1720 C   0  0  0  0  0  0  0  0  0  0  0  0
   23.6301   49.1606  -16.2350 C   0  0  0  0  0  0  0  0  0  0  0  0
   21.5183   50.8882  -20.5499 C   0  0  0  0  0  0  0  0  0  0  0  0
   22.8524   50.6494  -20.0888 O   0  0  0  0  0  0  0  0  0  0  0  0
 25 26  1  0  0  0
 26 19  1  0  0  0
 19 20  1  0  0  0
 19 22  2  0  0  0
 20 21  2  0  0  0
 21 24  1  0  0  0
 22 23  1  0  0  0
 23 24  2  0  0  0
 24 18  1  0  0  0
 18  1  1  0  0  0
  1  2  1  0  0  0
  1  9  1  0  0  0
  2  3  2  0  0  0
  2  4  1  0  0  0
  4  5  1  0  0  0
  4  6  1  0  0  0
  6  7  1  0  0  0
  6  8  1  0  0  0
  8  9  1  0  0  0
  9 14  1  0  0  0
  9 10  1  0  0  0
 14 16  1  0  0  0
 14 15  2  0  0  0
  5 11  1  0  0  0
  7 12  1  0  0  0
 16 17  1  0  0  0
 10 13  1  0  0  0
M  END
> <minimizedAffinity>
-7.51975

$$$$
