3KR8_XAV_A_1163


 22 24  0  0  0  0  0  0  0  0999 V2000
   38.2514  -10.9725  -12.8714 N   0  0  0  0  0  0  0  0  0  0  0  0
   38.9979  -11.6750  -12.0373 C   0  0  0  0  0  0  0  0  0  0  0  0
   39.7023  -12.7051  -12.5237 N   0  0  0  0  0  0  0  0  0  0  0  0
   39.7539  -13.0419  -13.7926 C   0  0  0  0  0  0  0  0  0  0  0  0
   39.0168  -12.3126  -14.7115 C   0  0  0  0  0  0  0  0  0  0  0  0
   38.2478  -11.2688  -14.1894 C   0  0  0  0  0  0  0  0  0  0  0  0
   37.4735  -10.5784  -15.0547 O   0  0  0  0  0  0  0  0  0  0  0  0
   40.1904  -14.8954  -15.3974 C   0  0  0  0  0  0  0  0  0  0  0  0
   40.6254  -14.2533  -14.1069 C   0  0  0  0  0  0  0  0  0  0  0  0
   38.9652  -12.6321  -16.1746 C   0  0  0  0  0  0  0  0  0  0  0  0
   40.3842  -13.6427  -16.6984 S   0  0  0  0  0  0  0  0  0  0  0  0
   36.9423   -9.8709  -14.7462 H   0  0  0  0  0  0  0  0  0  0  0  0
   38.7385  -10.1309  -10.1911 C   0  0  0  0  0  0  0  0  0  0  0  0
   39.4310  -12.3569   -9.7045 C   0  0  0  0  0  0  0  0  0  0  0  0
   38.8084   -9.7812   -8.8409 C   0  0  0  0  0  0  0  0  0  0  0  0
   39.4623  -12.0124   -8.3429 C   0  0  0  0  0  0  0  0  0  0  0  0
   39.0494  -11.3911  -10.6591 C   0  0  0  0  0  0  0  0  0  0  0  0
   39.1546  -10.7261   -7.9098 C   0  0  0  0  0  0  0  0  0  0  0  0
   37.9794  -10.2954   -5.9107 F   0  0  0  0  0  0  0  0  0  0  0  0
   39.9313  -11.1614   -5.7358 F   0  0  0  0  0  0  0  0  0  0  0  0
   39.6807   -9.0665   -6.3037 F   0  0  0  0  0  0  0  0  0  0  0  0
   39.1890  -10.2977   -6.4223 C   0  0  0  0  0  0  0  0  0  0  0  0
  1  2  1  0  0  0
  1  6  2  0  0  0
  2  3  2  0  0  0
  2 17  1  0  0  0
  3  4  1  0  0  0
  4  5  2  0  0  0
  4  9  1  0  0  0
  5  6  1  0  0  0
  5 10  1  0  0  0
  6  7  1  0  0  0
 19 22  1  0  0  0
 20 22  1  0  0  0
 21 22  1  0  0  0
 13 15  2  0  0  0
 13 17  1  0  0  0
 14 16  1  0  0  0
 14 17  2  0  0  0
 15 18  1  0  0  0
 16 18  2  0  0  0
  8  9  1  0  0  0
  8 11  1  0  0  0
 10 11  1  0  0  0
 18 22  1  0  0  0
  7 12  1  0  0  0
M  END
> <minimizedAffinity>
-11.59981

$$$$
3KR8_XAV_A_1163


 22 24  0  0  0  0  0  0  0  0999 V2000
   38.8616   -9.7456  -10.7278 N   0  0  0  0  0  0  0  0  0  0  0  0
   39.1565  -11.0268  -10.8622 C   0  0  0  0  0  0  0  0  0  0  0  0
   39.4463  -11.7339   -9.7622 N   0  0  0  0  0  0  0  0  0  0  0  0
   39.4049  -11.2605   -8.5374 C   0  0  0  0  0  0  0  0  0  0  0  0
   39.0652   -9.9316   -8.3422 C   0  0  0  0  0  0  0  0  0  0  0  0
   38.8101   -9.1886   -9.4982 C   0  0  0  0  0  0  0  0  0  0  0  0
   38.5342   -7.8756   -9.3411 O   0  0  0  0  0  0  0  0  0  0  0  0
   40.2533  -11.5348   -6.2122 C   0  0  0  0  0  0  0  0  0  0  0  0
   39.7765  -12.2569   -7.4442 C   0  0  0  0  0  0  0  0  0  0  0  0
   39.0285   -9.2737   -6.9963 C   0  0  0  0  0  0  0  0  0  0  0  0
   38.8779  -10.4892   -5.6513 S   0  0  0  0  0  0  0  0  0  0  0  0
   38.3572   -7.3411  -10.0901 H   0  0  0  0  0  0  0  0  0  0  0  0
   38.4714  -11.1585  -13.1802 C   0  0  0  0  0  0  0  0  0  0  0  0
   39.9709  -12.8151  -12.3565 C   0  0  0  0  0  0  0  0  0  0  0  0
   38.4487  -11.7613  -14.4396 C   0  0  0  0  0  0  0  0  0  0  0  0
   39.9764  -13.3962  -13.6355 C   0  0  0  0  0  0  0  0  0  0  0  0
   39.2027  -11.6557  -12.1211 C   0  0  0  0  0  0  0  0  0  0  0  0
   39.2148  -12.8733  -14.6763 C   0  0  0  0  0  0  0  0  0  0  0  0
   39.4987  -14.7612  -16.0614 F   0  0  0  0  0  0  0  0  0  0  0  0
   37.9484  -13.3796  -16.5893 F   0  0  0  0  0  0  0  0  0  0  0  0
   40.0523  -12.8736  -16.8919 F   0  0  0  0  0  0  0  0  0  0  0  0
   39.1790  -13.4878  -16.0970 C   0  0  0  0  0  0  0  0  0  0  0  0
  1  2  1  0  0  0
  1  6  2  0  0  0
  2  3  2  0  0  0
  2 17  1  0  0  0
  3  4  1  0  0  0
  4  5  2  0  0  0
  4  9  1  0  0  0
  5  6  1  0  0  0
  5 10  1  0  0  0
  6  7  1  0  0  0
 19 22  1  0  0  0
 20 22  1  0  0  0
 21 22  1  0  0  0
 13 15  2  0  0  0
 13 17  1  0  0  0
 14 16  1  0  0  0
 14 17  2  0  0  0
 15 18  1  0  0  0
 16 18  2  0  0  0
  8  9  1  0  0  0
  8 11  1  0  0  0
 10 11  1  0  0  0
 18 22  1  0  0  0
  7 12  1  0  0  0
M  END
> <minimizedAffinity>
-11.46398

$$$$
3KR8_XAV_A_1163


 22 24  0  0  0  0  0  0  0  0999 V2000
   38.2542  -10.9896  -12.6537 N   0  0  0  0  0  0  0  0  0  0  0  0
   39.0109  -11.6813  -11.8196 C   0  0  0  0  0  0  0  0  0  0  0  0
   39.7391  -12.6936  -12.3083 N   0  0  0  0  0  0  0  0  0  0  0  0
   39.8042  -13.0218  -13.5788 C   0  0  0  0  0  0  0  0  0  0  0  0
   39.0568  -12.3026  -14.4973 C   0  0  0  0  0  0  0  0  0  0  0  0
   38.2635  -11.2782  -13.9733 C   0  0  0  0  0  0  0  0  0  0  0  0
   37.4795  -10.5990  -14.8387 O   0  0  0  0  0  0  0  0  0  0  0  0
   40.2875  -14.8564  -15.1918 C   0  0  0  0  0  0  0  0  0  0  0  0
   40.7024  -14.2130  -13.8954 C   0  0  0  0  0  0  0  0  0  0  0  0
   39.0194  -12.6146  -15.9625 C   0  0  0  0  0  0  0  0  0  0  0  0
   40.4619  -13.5923  -16.4846 S   0  0  0  0  0  0  0  0  0  0  0  0
   36.9320   -9.9045  -14.5289 H   0  0  0  0  0  0  0  0  0  0  0  0
   39.8872  -10.4265   -9.9441 C   0  0  0  0  0  0  0  0  0  0  0  0
   38.2611  -12.1105   -9.5071 C   0  0  0  0  0  0  0  0  0  0  0  0
   39.9954  -10.1343   -8.5829 C   0  0  0  0  0  0  0  0  0  0  0  0
   38.3436  -11.7870   -8.1424 C   0  0  0  0  0  0  0  0  0  0  0  0
   39.0494  -11.4044  -10.4396 C   0  0  0  0  0  0  0  0  0  0  0  0
   39.2111  -10.8026   -7.6785 C   0  0  0  0  0  0  0  0  0  0  0  0
   40.2233  -11.1939   -5.5844 F   0  0  0  0  0  0  0  0  0  0  0  0
   39.7628   -9.1632   -6.0888 F   0  0  0  0  0  0  0  0  0  0  0  0
   38.1805  -10.5734   -5.5582 F   0  0  0  0  0  0  0  0  0  0  0  0
   39.3457  -10.4223   -6.1837 C   0  0  0  0  0  0  0  0  0  0  0  0
  1  2  1  0  0  0
  1  6  2  0  0  0
  2  3  2  0  0  0
  2 17  1  0  0  0
  3  4  1  0  0  0
  4  5  2  0  0  0
  4  9  1  0  0  0
  5  6  1  0  0  0
  5 10  1  0  0  0
  6  7  1  0  0  0
 19 22  1  0  0  0
 20 22  1  0  0  0
 21 22  1  0  0  0
 13 15  2  0  0  0
 13 17  1  0  0  0
 14 16  1  0  0  0
 14 17  2  0  0  0
 15 18  1  0  0  0
 16 18  2  0  0  0
  8  9  1  0  0  0
  8 11  1  0  0  0
 10 11  1  0  0  0
 18 22  1  0  0  0
  7 12  1  0  0  0
M  END
> <minimizedAffinity>
-10.68502

$$$$
3KR8_XAV_A_1163


 22 24  0  0  0  0  0  0  0  0999 V2000
   40.2850  -13.1236  -11.8868 N   0  0  0  0  0  0  0  0  0  0  0  0
   39.5029  -12.0965  -11.6041 C   0  0  0  0  0  0  0  0  0  0  0  0
   38.8059  -11.5321  -12.5988 N   0  0  0  0  0  0  0  0  0  0  0  0
   38.7955  -11.9610  -13.8406 C   0  0  0  0  0  0  0  0  0  0  0  0
   39.5714  -13.0578  -14.1788 C   0  0  0  0  0  0  0  0  0  0  0  0
   40.3319  -13.6120  -13.1454 C   0  0  0  0  0  0  0  0  0  0  0  0
   41.1427  -14.6457  -13.4600 O   0  0  0  0  0  0  0  0  0  0  0  0
   38.3972  -11.3289  -16.2162 C   0  0  0  0  0  0  0  0  0  0  0  0
   37.9237  -11.1548  -14.7977 C   0  0  0  0  0  0  0  0  0  0  0  0
   39.6710  -13.6064  -15.5698 C   0  0  0  0  0  0  0  0  0  0  0  0
   38.2614  -13.0988  -16.6014 S   0  0  0  0  0  0  0  0  0  0  0  0
   41.6697  -15.0463  -12.7969 H   0  0  0  0  0  0  0  0  0  0  0  0
   39.5462  -12.3830   -9.2008 C   0  0  0  0  0  0  0  0  0  0  0  0
   39.1482  -10.1997  -10.0644 C   0  0  0  0  0  0  0  0  0  0  0  0
   39.4226  -11.9201   -7.8891 C   0  0  0  0  0  0  0  0  0  0  0  0
   39.0636   -9.7303   -8.7430 C   0  0  0  0  0  0  0  0  0  0  0  0
   39.4060  -11.5657  -10.3035 C   0  0  0  0  0  0  0  0  0  0  0  0
   39.1973  -10.5881   -7.6554 C   0  0  0  0  0  0  0  0  0  0  0  0
   39.7465  -10.9382   -5.3885 F   0  0  0  0  0  0  0  0  0  0  0  0
   39.6425   -8.9103   -6.0723 F   0  0  0  0  0  0  0  0  0  0  0  0
   37.8271  -10.0924   -5.7880 F   0  0  0  0  0  0  0  0  0  0  0  0
   39.0978  -10.1183   -6.1834 C   0  0  0  0  0  0  0  0  0  0  0  0
  1  2  1  0  0  0
  1  6  2  0  0  0
  2  3  2  0  0  0
  2 17  1  0  0  0
  3  4  1  0  0  0
  4  5  2  0  0  0
  4  9  1  0  0  0
  5  6  1  0  0  0
  5 10  1  0  0  0
  6  7  1  0  0  0
 19 22  1  0  0  0
 20 22  1  0  0  0
 21 22  1  0  0  0
 13 15  2  0  0  0
 13 17  1  0  0  0
 14 16  1  0  0  0
 14 17  2  0  0  0
 15 18  1  0  0  0
 16 18  2  0  0  0
  8  9  1  0  0  0
  8 11  1  0  0  0
 10 11  1  0  0  0
 18 22  1  0  0  0
  7 12  1  0  0  0
M  END
> <minimizedAffinity>
-9.82642

$$$$
3KR8_XAV_A_1163


 22 24  0  0  0  0  0  0  0  0999 V2000
   39.7873  -10.4892   -6.0573 N   0  0  0  0  0  0  0  0  0  0  0  0
   38.8251  -11.0857   -6.7392 C   0  0  0  0  0  0  0  0  0  0  0  0
   37.8145  -11.6450   -6.0612 N   0  0  0  0  0  0  0  0  0  0  0  0
   37.6742  -11.5977   -4.7558 C   0  0  0  0  0  0  0  0  0  0  0  0
   38.6387  -10.9516   -3.9996 C   0  0  0  0  0  0  0  0  0  0  0  0
   39.7138  -10.4114   -4.7107 C   0  0  0  0  0  0  0  0  0  0  0  0
   40.6984   -9.8272   -3.9937 O   0  0  0  0  0  0  0  0  0  0  0  0
   36.6488  -12.6978   -2.7709 C   0  0  0  0  0  0  0  0  0  0  0  0
   36.4401  -12.3086   -4.2102 C   0  0  0  0  0  0  0  0  0  0  0  0
   38.6049  -10.8731   -2.5036 C   0  0  0  0  0  0  0  0  0  0  0  0
   36.9328  -11.1598   -1.8471 S   0  0  0  0  0  0  0  0  0  0  0  0
   41.4375   -9.4525   -4.4311 H   0  0  0  0  0  0  0  0  0  0  0  0
   39.3610  -12.2928   -8.7679 C   0  0  0  0  0  0  0  0  0  0  0  0
   38.3730  -10.1357   -8.9725 C   0  0  0  0  0  0  0  0  0  0  0  0
   39.4443  -12.4202  -10.1560 C   0  0  0  0  0  0  0  0  0  0  0  0
   38.4223  -10.2839  -10.3687 C   0  0  0  0  0  0  0  0  0  0  0  0
   38.8482  -11.1740   -8.1443 C   0  0  0  0  0  0  0  0  0  0  0  0
   38.9595  -11.4225  -10.9617 C   0  0  0  0  0  0  0  0  0  0  0  0
   37.8569  -11.5402  -13.0434 F   0  0  0  0  0  0  0  0  0  0  0  0
   39.8153  -10.6716  -13.0167 F   0  0  0  0  0  0  0  0  0  0  0  0
   39.5409  -12.8261  -12.7789 F   0  0  0  0  0  0  0  0  0  0  0  0
   39.0472  -11.6232  -12.4945 C   0  0  0  0  0  0  0  0  0  0  0  0
  1  2  1  0  0  0
  1  6  2  0  0  0
  2  3  2  0  0  0
  2 17  1  0  0  0
  3  4  1  0  0  0
  4  5  2  0  0  0
  4  9  1  0  0  0
  5  6  1  0  0  0
  5 10  1  0  0  0
  6  7  1  0  0  0
 19 22  1  0  0  0
 20 22  1  0  0  0
 21 22  1  0  0  0
 13 15  2  0  0  0
 13 17  1  0  0  0
 14 16  1  0  0  0
 14 17  2  0  0  0
 15 18  1  0  0  0
 16 18  2  0  0  0
  8  9  1  0  0  0
  8 11  1  0  0  0
 10 11  1  0  0  0
 18 22  1  0  0  0
  7 12  1  0  0  0
M  END
> <minimizedAffinity>
-9.05576

$$$$
3KR8_XAV_A_1163


 22 24  0  0  0  0  0  0  0  0999 V2000
   37.2126  -11.9744   -6.2470 N   0  0  0  0  0  0  0  0  0  0  0  0
   38.2717  -11.4482   -6.8369 C   0  0  0  0  0  0  0  0  0  0  0  0
   39.2050  -10.8665   -6.0723 N   0  0  0  0  0  0  0  0  0  0  0  0
   39.1769  -10.8270   -4.7594 C   0  0  0  0  0  0  0  0  0  0  0  0
   38.1045  -11.3976   -4.0932 C   0  0  0  0  0  0  0  0  0  0  0  0
   37.1120  -11.9610   -4.9000 C   0  0  0  0  0  0  0  0  0  0  0  0
   36.0265  -12.4720   -4.2791 O   0  0  0  0  0  0  0  0  0  0  0  0
   39.9759   -9.6165   -2.7351 C   0  0  0  0  0  0  0  0  0  0  0  0
   40.3534  -10.1085   -4.1070 C   0  0  0  0  0  0  0  0  0  0  0  0
   37.9455  -11.3738   -2.6033 C   0  0  0  0  0  0  0  0  0  0  0  0
   39.5288  -11.0805   -1.7571 S   0  0  0  0  0  0  0  0  0  0  0  0
   35.3376  -12.8591   -4.7827 H   0  0  0  0  0  0  0  0  0  0  0  0
   39.2741  -12.3649   -8.8405 C   0  0  0  0  0  0  0  0  0  0  0  0
   37.7599  -10.5420   -9.0754 C   0  0  0  0  0  0  0  0  0  0  0  0
   39.4994  -12.3954  -10.2183 C   0  0  0  0  0  0  0  0  0  0  0  0
   37.9589  -10.6011  -10.4649 C   0  0  0  0  0  0  0  0  0  0  0  0
   38.4300  -11.4562   -8.2359 C   0  0  0  0  0  0  0  0  0  0  0  0
   38.8292  -11.5238  -11.0373 C   0  0  0  0  0  0  0  0  0  0  0  0
   37.9668  -11.5080  -13.2326 F   0  0  0  0  0  0  0  0  0  0  0  0
   39.8940  -10.6228  -12.9278 F   0  0  0  0  0  0  0  0  0  0  0  0
   39.6340  -12.7914  -12.8693 F   0  0  0  0  0  0  0  0  0  0  0  0
   39.0901  -11.6164  -12.5608 C   0  0  0  0  0  0  0  0  0  0  0  0
  1  2  1  0  0  0
  1  6  2  0  0  0
  2  3  2  0  0  0
  2 17  1  0  0  0
  3  4  1  0  0  0
  4  5  2  0  0  0
  4  9  1  0  0  0
  5  6  1  0  0  0
  5 10  1  0  0  0
  6  7  1  0  0  0
 19 22  1  0  0  0
 20 22  1  0  0  0
 21 22  1  0  0  0
 13 15  2  0  0  0
 13 17  1  0  0  0
 14 16  1  0  0  0
 14 17  2  0  0  0
 15 18  1  0  0  0
 16 18  2  0  0  0
  8  9  1  0  0  0
  8 11  1  0  0  0
 10 11  1  0  0  0
 18 22  1  0  0  0
  7 12  1  0  0  0
M  END
> <minimizedAffinity>
-8.99126

$$$$
3KR8_XAV_A_1163


 22 24  0  0  0  0  0  0  0  0999 V2000
   40.1318  -13.1957  -11.8848 N   0  0  0  0  0  0  0  0  0  0  0  0
   39.4102  -12.1155  -11.6421 C   0  0  0  0  0  0  0  0  0  0  0  0
   38.7858  -11.5213  -12.6672 N   0  0  0  0  0  0  0  0  0  0  0  0
   38.7889  -11.9666  -13.9032 C   0  0  0  0  0  0  0  0  0  0  0  0
   39.5017  -13.1168  -14.2008 C   0  0  0  0  0  0  0  0  0  0  0  0
   40.1887  -13.7044  -13.1350 C   0  0  0  0  0  0  0  0  0  0  0  0
   40.9397  -14.7935  -13.4085 O   0  0  0  0  0  0  0  0  0  0  0  0
   38.5134  -11.3446  -16.2988 C   0  0  0  0  0  0  0  0  0  0  0  0
   38.0049  -11.1191  -14.8997 C   0  0  0  0  0  0  0  0  0  0  0  0
   39.6116  -13.6910  -15.5806 C   0  0  0  0  0  0  0  0  0  0  0  0
   38.2740  -13.1073  -16.6665 S   0  0  0  0  0  0  0  0  0  0  0  0
   41.4165  -15.2181  -12.7227 H   0  0  0  0  0  0  0  0  0  0  0  0
   38.5587  -10.4197  -10.1391 C   0  0  0  0  0  0  0  0  0  0  0  0
   39.9581  -12.1213   -9.2350 C   0  0  0  0  0  0  0  0  0  0  0  0
   38.4488   -9.8038   -8.8906 C   0  0  0  0  0  0  0  0  0  0  0  0
   39.8134  -11.5213   -7.9730 C   0  0  0  0  0  0  0  0  0  0  0  0
   39.3048  -11.5605  -10.3523 C   0  0  0  0  0  0  0  0  0  0  0  0
   39.0626  -10.3624   -7.7994 C   0  0  0  0  0  0  0  0  0  0  0  0
   39.4430   -8.4695   -6.4447 F   0  0  0  0  0  0  0  0  0  0  0  0
   37.5895   -9.5110   -6.1794 F   0  0  0  0  0  0  0  0  0  0  0  0
   39.4689  -10.3669   -5.4658 F   0  0  0  0  0  0  0  0  0  0  0  0
   38.8868   -9.6591   -6.4312 C   0  0  0  0  0  0  0  0  0  0  0  0
  1  2  1  0  0  0
  1  6  2  0  0  0
  2  3  2  0  0  0
  2 17  1  0  0  0
  3  4  1  0  0  0
  4  5  2  0  0  0
  4  9  1  0  0  0
  5  6  1  0  0  0
  5 10  1  0  0  0
  6  7  1  0  0  0
 19 22  1  0  0  0
 20 22  1  0  0  0
 21 22  1  0  0  0
 13 15  2  0  0  0
 13 17  1  0  0  0
 14 16  1  0  0  0
 14 17  2  0  0  0
 15 18  1  0  0  0
 16 18  2  0  0  0
  8  9  1  0  0  0
  8 11  1  0  0  0
 10 11  1  0  0  0
 18 22  1  0  0  0
  7 12  1  0  0  0
M  END
> <minimizedAffinity>
-8.83341

$$$$
