1C83_OAI_A_301


 22 23  0  0  0  0  0  0  0  0999 V2000
   45.5409   11.7293    2.1298 C   0  0  0  0  0  0  0  0  0  0  0  0
   45.7837   12.8437    2.8686 C   0  0  0  0  0  0  0  0  0  0  0  0
   45.0356   14.0140    2.6499 C   0  0  0  0  0  0  0  0  0  0  0  0
   44.0488   14.0196    1.6361 C   0  0  0  0  0  0  0  0  0  0  0  0
   43.7858   12.8446    0.8974 C   0  0  0  0  0  0  0  0  0  0  0  0
   44.5170   11.7194    1.1516 C   0  0  0  0  0  0  0  0  0  0  0  0
   44.5112   10.4253    0.5484 C   0  0  0  0  0  0  0  0  0  0  0  0
   45.5594    9.7314    1.1651 C   0  0  0  0  0  0  0  0  0  0  0  0
   46.1542   10.4991    2.0921 N   0  0  0  0  0  0  0  0  0  0  0  0
   46.9119   10.2240    2.6573 H   0  0  0  0  0  0  0  0  0  0  0  0
   45.2414   15.1425    3.3874 N   0  0  0  0  0  0  0  0  0  0  0  0
   45.3850   15.3489    4.7523 C   0  0  0  0  0  0  0  0  0  0  0  0
   45.2403   14.4666    5.6023 O   0  0  0  0  0  0  0  0  0  0  0  0
   45.2989   15.9657    2.8505 H   0  0  0  0  0  0  0  0  0  0  0  0
   45.4539   16.8428    5.1226 C   0  0  0  0  0  0  0  0  0  0  0  0
   46.3695   17.4163    5.5913 O   0  0  0  0  0  0  0  0  0  0  0  0
   44.2492   17.4485    5.0468 O   0  0  0  0  0  0  0  0  0  0  0  0
   43.5191   16.9944    4.6744 H   0  0  0  0  0  0  0  0  0  0  0  0
   43.3313   15.2466    1.3140 C   0  0  0  0  0  0  0  0  0  0  0  0
   42.8352   15.9301    2.1601 O   0  0  0  0  0  0  0  0  0  0  0  0
   43.2741   15.4643    0.0034 O   0  0  0  0  0  0  0  0  0  0  0  0
   43.6948   14.8724   -0.5887 H   0  0  0  0  0  0  0  0  0  0  0  0
  1  2  1  0  0  0
  1  6  2  0  0  0
  1  9  1  0  0  0
  2  3  2  0  0  0
  3  4  1  0  0  0
  3 11  1  0  0  0
  4  5  2  0  0  0
  4 19  1  0  0  0
  5  6  1  0  0  0
  6  7  1  0  0  0
  7  8  2  0  0  0
  8  9  1  0  0  0
 11 12  1  0  0  0
 12 15  1  0  0  0
 12 13  2  0  0  0
 15 16  2  0  0  0
 15 17  1  0  0  0
 19 20  2  0  0  0
 19 21  1  0  0  0
  9 10  1  0  0  0
 11 14  1  0  0  0
 17 18  1  0  0  0
 21 22  1  0  0  0
M  END
> <minimizedAffinity>
-8.62533

$$$$
1C83_OAI_A_301


 22 23  0  0  0  0  0  0  0  0999 V2000
   44.1902   11.0953    0.5370 C   0  0  0  0  0  0  0  0  0  0  0  0
   44.3215   11.9897    1.5517 C   0  0  0  0  0  0  0  0  0  0  0  0
   44.0910   13.3577    1.3228 C   0  0  0  0  0  0  0  0  0  0  0  0
   43.7470   13.7882    0.0198 C   0  0  0  0  0  0  0  0  0  0  0  0
   43.5834   12.8438   -1.0179 C   0  0  0  0  0  0  0  0  0  0  0  0
   43.7940   11.5203   -0.7544 C   0  0  0  0  0  0  0  0  0  0  0  0
   43.7521   10.3655   -1.5929 C   0  0  0  0  0  0  0  0  0  0  0  0
   44.1646    9.3064   -0.7752 C   0  0  0  0  0  0  0  0  0  0  0  0
   44.4148    9.7403    0.4705 N   0  0  0  0  0  0  0  0  0  0  0  0
   44.7128    9.1759    1.2201 H   0  0  0  0  0  0  0  0  0  0  0  0
   44.1953   14.2777    2.3240 N   0  0  0  0  0  0  0  0  0  0  0  0
   45.1430   14.4653    3.3205 C   0  0  0  0  0  0  0  0  0  0  0  0
   46.0821   13.6940    3.5332 O   0  0  0  0  0  0  0  0  0  0  0  0
   43.4600   14.9321    2.3436 H   0  0  0  0  0  0  0  0  0  0  0  0
   44.7438   15.5684    4.3191 C   0  0  0  0  0  0  0  0  0  0  0  0
   44.0192   16.4757    4.1220 O   0  0  0  0  0  0  0  0  0  0  0  0
   45.4798   15.5301    5.4508 O   0  0  0  0  0  0  0  0  0  0  0  0
   46.0571   14.8094    5.6100 H   0  0  0  0  0  0  0  0  0  0  0  0
   43.6059   15.2089   -0.2728 C   0  0  0  0  0  0  0  0  0  0  0  0
   43.9909   15.6847   -1.2997 O   0  0  0  0  0  0  0  0  0  0  0  0
   43.0523   15.8757    0.7358 O   0  0  0  0  0  0  0  0  0  0  0  0
   42.7791   15.4178    1.5063 H   0  0  0  0  0  0  0  0  0  0  0  0
  1  2  1  0  0  0
  1  6  2  0  0  0
  1  9  1  0  0  0
  2  3  2  0  0  0
  3  4  1  0  0  0
  3 11  1  0  0  0
  4  5  2  0  0  0
  4 19  1  0  0  0
  5  6  1  0  0  0
  6  7  1  0  0  0
  7  8  2  0  0  0
  8  9  1  0  0  0
 11 12  1  0  0  0
 12 15  1  0  0  0
 12 13  2  0  0  0
 15 16  2  0  0  0
 15 17  1  0  0  0
 19 20  2  0  0  0
 19 21  1  0  0  0
  9 10  1  0  0  0
 11 14  1  0  0  0
 17 18  1  0  0  0
 21 22  1  0  0  0
M  END
> <minimizedAffinity>
-6.58677

$$$$
1C83_OAI_A_301


 22 23  0  0  0  0  0  0  0  0999 V2000
   44.3912   14.6158    2.6493 C   0  0  0  0  0  0  0  0  0  0  0  0
   43.8557   14.1491    1.4908 C   0  0  0  0  0  0  0  0  0  0  0  0
   44.2659   12.9084    0.9716 C   0  0  0  0  0  0  0  0  0  0  0  0
   45.2587   12.1703    1.6580 C   0  0  0  0  0  0  0  0  0  0  0  0
   45.7836   12.6530    2.8774 C   0  0  0  0  0  0  0  0  0  0  0  0
   45.3460   13.8519    3.3638 C   0  0  0  0  0  0  0  0  0  0  0  0
   45.7188   14.6022    4.5198 C   0  0  0  0  0  0  0  0  0  0  0  0
   45.0001   15.8001    4.4240 C   0  0  0  0  0  0  0  0  0  0  0  0
   44.2223   15.7988    3.3297 N   0  0  0  0  0  0  0  0  0  0  0  0
   43.6239   16.5313    3.0566 H   0  0  0  0  0  0  0  0  0  0  0  0
   43.7339   12.4032   -0.1779 N   0  0  0  0  0  0  0  0  0  0  0  0
   43.9722   12.6846   -1.5160 C   0  0  0  0  0  0  0  0  0  0  0  0
   44.7086   13.5930   -1.9092 O   0  0  0  0  0  0  0  0  0  0  0  0
   43.0524   11.7081   -0.0310 H   0  0  0  0  0  0  0  0  0  0  0  0
   43.0046   11.9450   -2.4595 C   0  0  0  0  0  0  0  0  0  0  0  0
   42.1822   12.4259   -3.1518 O   0  0  0  0  0  0  0  0  0  0  0  0
   43.0355   10.6064   -2.2832 O   0  0  0  0  0  0  0  0  0  0  0  0
   43.6888   10.2212   -1.7329 H   0  0  0  0  0  0  0  0  0  0  0  0
   45.7807   10.9337    1.0904 C   0  0  0  0  0  0  0  0  0  0  0  0
   45.0766    9.9941    0.8653 O   0  0  0  0  0  0  0  0  0  0  0  0
   47.0968   10.9829    0.9068 O   0  0  0  0  0  0  0  0  0  0  0  0
   47.5695   11.7656    1.1117 H   0  0  0  0  0  0  0  0  0  0  0  0
  1  2  1  0  0  0
  1  6  2  0  0  0
  1  9  1  0  0  0
  2  3  2  0  0  0
  3  4  1  0  0  0
  3 11  1  0  0  0
  4  5  2  0  0  0
  4 19  1  0  0  0
  5  6  1  0  0  0
  6  7  1  0  0  0
  7  8  2  0  0  0
  8  9  1  0  0  0
 11 12  1  0  0  0
 12 15  1  0  0  0
 12 13  2  0  0  0
 15 16  2  0  0  0
 15 17  1  0  0  0
 19 20  2  0  0  0
 19 21  1  0  0  0
  9 10  1  0  0  0
 11 14  1  0  0  0
 17 18  1  0  0  0
 21 22  1  0  0  0
M  END
> <minimizedAffinity>
-6.21447

$$$$
1C83_OAI_A_301


 22 23  0  0  0  0  0  0  0  0999 V2000
   45.1224   13.4654    2.7492 C   0  0  0  0  0  0  0  0  0  0  0  0
   45.7104   12.2404    2.7333 C   0  0  0  0  0  0  0  0  0  0  0  0
   45.3406   11.2910    1.7642 C   0  0  0  0  0  0  0  0  0  0  0  0
   44.3333   11.6216    0.8274 C   0  0  0  0  0  0  0  0  0  0  0  0
   43.7532   12.9096    0.8362 C   0  0  0  0  0  0  0  0  0  0  0  0
   44.1524   13.8144    1.7783 C   0  0  0  0  0  0  0  0  0  0  0  0
   43.7225   15.1465    2.0596 C   0  0  0  0  0  0  0  0  0  0  0  0
   44.4254   15.5205    3.2113 C   0  0  0  0  0  0  0  0  0  0  0  0
   45.2457   14.5337    3.6062 N   0  0  0  0  0  0  0  0  0  0  0  0
   45.8428   14.5694    4.3882 H   0  0  0  0  0  0  0  0  0  0  0  0
   45.9254   10.0603    1.7092 N   0  0  0  0  0  0  0  0  0  0  0  0
   47.0090    9.5762    0.9895 C   0  0  0  0  0  0  0  0  0  0  0  0
   47.6126   10.2254    0.1315 O   0  0  0  0  0  0  0  0  0  0  0  0
   45.4987    9.3889    2.2891 H   0  0  0  0  0  0  0  0  0  0  0  0
   47.2005    8.0566    1.1556 C   0  0  0  0  0  0  0  0  0  0  0  0
   47.8280    7.3404    0.4625 O   0  0  0  0  0  0  0  0  0  0  0  0
   46.3897    7.5354    2.1016 O   0  0  0  0  0  0  0  0  0  0  0  0
   45.8894    8.1030    2.6544 H   0  0  0  0  0  0  0  0  0  0  0  0
   43.8536   10.6239   -0.1205 C   0  0  0  0  0  0  0  0  0  0  0  0
   43.6271    9.4969    0.2075 O   0  0  0  0  0  0  0  0  0  0  0  0
   43.7493   11.1128   -1.3527 O   0  0  0  0  0  0  0  0  0  0  0  0
   43.9483   12.0135   -1.5178 H   0  0  0  0  0  0  0  0  0  0  0  0
  1  2  1  0  0  0
  1  6  2  0  0  0
  1  9  1  0  0  0
  2  3  2  0  0  0
  3  4  1  0  0  0
  3 11  1  0  0  0
  4  5  2  0  0  0
  4 19  1  0  0  0
  5  6  1  0  0  0
  6  7  1  0  0  0
  7  8  2  0  0  0
  8  9  1  0  0  0
 11 12  1  0  0  0
 12 15  1  0  0  0
 12 13  2  0  0  0
 15 16  2  0  0  0
 15 17  1  0  0  0
 19 20  2  0  0  0
 19 21  1  0  0  0
  9 10  1  0  0  0
 11 14  1  0  0  0
 17 18  1  0  0  0
 21 22  1  0  0  0
M  END
> <minimizedAffinity>
-6.17716

$$$$
1C83_OAI_A_301


 22 23  0  0  0  0  0  0  0  0999 V2000
   44.0922   13.3502    1.7510 C   0  0  0  0  0  0  0  0  0  0  0  0
   43.6806   12.3497    0.9287 C   0  0  0  0  0  0  0  0  0  0  0  0
   44.3841   11.1329    0.8884 C   0  0  0  0  0  0  0  0  0  0  0  0
   45.5363   10.9781    1.6947 C   0  0  0  0  0  0  0  0  0  0  0  0
   45.9342   12.0149    2.5677 C   0  0  0  0  0  0  0  0  0  0  0  0
   45.2143   13.1752    2.5970 C   0  0  0  0  0  0  0  0  0  0  0  0
   45.3974   14.3897    3.3250 C   0  0  0  0  0  0  0  0  0  0  0  0
   44.4005   15.2516    2.8520 C   0  0  0  0  0  0  0  0  0  0  0  0
   43.6381   14.6352    1.9348 N   0  0  0  0  0  0  0  0  0  0  0  0
   42.8727   15.0402    1.4664 H   0  0  0  0  0  0  0  0  0  0  0  0
   43.9855   10.1026    0.0889 N   0  0  0  0  0  0  0  0  0  0  0  0
   43.5636   10.0596   -1.2327 C   0  0  0  0  0  0  0  0  0  0  0  0
   43.3755   11.0601   -1.9295 O   0  0  0  0  0  0  0  0  0  0  0  0
   43.9997    9.2239    0.5326 H   0  0  0  0  0  0  0  0  0  0  0  0
   43.0732    8.6612   -1.6538 C   0  0  0  0  0  0  0  0  0  0  0  0
   42.1312    8.0860   -1.2430 O   0  0  0  0  0  0  0  0  0  0  0  0
   43.9643    8.0171   -2.4380 O   0  0  0  0  0  0  0  0  0  0  0  0
   44.7146    8.4724   -2.7662 H   0  0  0  0  0  0  0  0  0  0  0  0
   46.3466    9.7708    1.5965 C   0  0  0  0  0  0  0  0  0  0  0  0
   46.5822    9.0876    2.5489 O   0  0  0  0  0  0  0  0  0  0  0  0
   46.7999    9.5704    0.3625 O   0  0  0  0  0  0  0  0  0  0  0  0
   46.5622   10.1605   -0.3255 H   0  0  0  0  0  0  0  0  0  0  0  0
  1  2  1  0  0  0
  1  6  2  0  0  0
  1  9  1  0  0  0
  2  3  2  0  0  0
  3  4  1  0  0  0
  3 11  1  0  0  0
  4  5  2  0  0  0
  4 19  1  0  0  0
  5  6  1  0  0  0
  6  7  1  0  0  0
  7  8  2  0  0  0
  8  9  1  0  0  0
 11 12  1  0  0  0
 12 15  1  0  0  0
 12 13  2  0  0  0
 15 16  2  0  0  0
 15 17  1  0  0  0
 19 20  2  0  0  0
 19 21  1  0  0  0
  9 10  1  0  0  0
 11 14  1  0  0  0
 17 18  1  0  0  0
 21 22  1  0  0  0
M  END
> <minimizedAffinity>
-6.16662

$$$$
1C83_OAI_A_301


 22 23  0  0  0  0  0  0  0  0999 V2000
   44.8563   10.8791    0.8853 C   0  0  0  0  0  0  0  0  0  0  0  0
   44.8031   11.9085    1.7709 C   0  0  0  0  0  0  0  0  0  0  0  0
   44.3301   13.1683    1.3632 C   0  0  0  0  0  0  0  0  0  0  0  0
   43.9369   13.3521    0.0167 C   0  0  0  0  0  0  0  0  0  0  0  0
   43.9680   12.2650   -0.8848 C   0  0  0  0  0  0  0  0  0  0  0  0
   44.4126   11.0495   -0.4487 C   0  0  0  0  0  0  0  0  0  0  0  0
   44.5982    9.8062   -1.1255 C   0  0  0  0  0  0  0  0  0  0  0  0
   45.1827    8.9586   -0.1766 C   0  0  0  0  0  0  0  0  0  0  0  0
   45.3265    9.5918    0.9985 N   0  0  0  0  0  0  0  0  0  0  0  0
   45.7092    9.1960    1.8146 H   0  0  0  0  0  0  0  0  0  0  0  0
   44.2459   14.2159    2.2322 N   0  0  0  0  0  0  0  0  0  0  0  0
   45.0372   14.6006    3.3056 C   0  0  0  0  0  0  0  0  0  0  0  0
   45.9800   13.9346    3.7411 O   0  0  0  0  0  0  0  0  0  0  0  0
   43.4795   14.8115    2.0670 H   0  0  0  0  0  0  0  0  0  0  0  0
   44.4451   15.7920    4.0825 C   0  0  0  0  0  0  0  0  0  0  0  0
   44.4490   15.9507    5.2494 O   0  0  0  0  0  0  0  0  0  0  0  0
   43.7027   16.6017    3.2968 O   0  0  0  0  0  0  0  0  0  0  0  0
   43.6979   16.4775    2.3681 H   0  0  0  0  0  0  0  0  0  0  0  0
   43.5434   14.6713   -0.4617 C   0  0  0  0  0  0  0  0  0  0  0  0
   43.0421   15.4824    0.2595 O   0  0  0  0  0  0  0  0  0  0  0  0
   43.7721   14.8213   -1.7630 O   0  0  0  0  0  0  0  0  0  0  0  0
   44.1717   14.1285   -2.2514 H   0  0  0  0  0  0  0  0  0  0  0  0
  1  2  1  0  0  0
  1  6  2  0  0  0
  1  9  1  0  0  0
  2  3  2  0  0  0
  3  4  1  0  0  0
  3 11  1  0  0  0
  4  5  2  0  0  0
  4 19  1  0  0  0
  5  6  1  0  0  0
  6  7  1  0  0  0
  7  8  2  0  0  0
  8  9  1  0  0  0
 11 12  1  0  0  0
 12 15  1  0  0  0
 12 13  2  0  0  0
 15 16  2  0  0  0
 15 17  1  0  0  0
 19 20  2  0  0  0
 19 21  1  0  0  0
  9 10  1  0  0  0
 11 14  1  0  0  0
 17 18  1  0  0  0
 21 22  1  0  0  0
M  END
> <minimizedAffinity>
-6.04986

$$$$
