3I4B_Z48_A_501


 35 38  0  0  0  0  0  0  0  0999 V2000
   38.2045   35.1683   54.5128 C   0  0  0  0  0  0  0  0  0  0  0  0
   38.1249   36.1668   55.4019 C   0  0  0  0  0  0  0  0  0  0  0  0
   37.3192   35.7782   56.3498 N   0  0  0  0  0  0  0  0  0  0  0  0
   36.8397   34.5347   56.1218 C   0  0  0  0  0  0  0  0  0  0  0  0
   37.3787   34.1376   54.9557 C   0  0  0  0  0  0  0  0  0  0  0  0
   37.0879   36.3237   57.1360 H   0  0  0  0  0  0  0  0  0  0  0  0
   38.4653   33.1122   52.1481 C   0  0  0  0  0  0  0  0  0  0  0  0
   39.0926   34.4558   52.2203 C   0  0  0  0  0  0  0  0  0  0  0  0
   39.8333   34.8679   51.1647 C   0  0  0  0  0  0  0  0  0  0  0  0
   40.3746   36.0373   51.1965 N   0  0  0  0  0  0  0  0  0  0  0  0
   40.2501   36.8376   52.2031 C   0  0  0  0  0  0  0  0  0  0  0  0
   39.5625   36.4929   53.2397 N   0  0  0  0  0  0  0  0  0  0  0  0
   38.9898   35.3369   53.3008 C   0  0  0  0  0  0  0  0  0  0  0  0
   40.9036   38.0245   52.0823 N   0  0  0  0  0  0  0  0  0  0  0  0
   41.3848   38.1210   51.2288 H   0  0  0  0  0  0  0  0  0  0  0  0
   41.0312   39.1262   52.9143 C   0  0  0  0  0  0  0  0  0  0  0  0
   40.7942   40.3577   52.3436 C   0  0  0  0  0  0  0  0  0  0  0  0
   40.9052   41.5070   53.0676 C   0  0  0  0  0  0  0  0  0  0  0  0
   41.2616   41.4387   54.3822 C   0  0  0  0  0  0  0  0  0  0  0  0
   41.4996   40.2197   54.9643 C   0  0  0  0  0  0  0  0  0  0  0  0
   41.3885   39.0707   54.2381 C   0  0  0  0  0  0  0  0  0  0  0  0
   35.9234   33.8066   57.0192 C   0  0  0  0  0  0  0  0  0  0  0  0
   35.3421   32.8377   56.6916 O   0  0  0  0  0  0  0  0  0  0  0  0
   35.7512   34.2621   58.2498 N   0  0  0  0  0  0  0  0  0  0  0  0
   36.2722   35.0625   58.4891 H   0  0  0  0  0  0  0  0  0  0  0  0
   34.8982   33.7348   59.2826 C   0  0  0  0  0  0  0  0  0  0  0  0
   35.5235   32.7191   60.1658 C   0  0  0  0  0  0  0  0  0  0  0  0
   36.8793   32.6377   60.1916 C   0  0  0  0  0  0  0  0  0  0  0  0
   37.5003   31.7273   60.9618 C   0  0  0  0  0  0  0  0  0  0  0  0
   36.7441   30.8922   61.7201 C   0  0  0  0  0  0  0  0  0  0  0  0
   35.3870   30.9691   61.6938 C   0  0  0  0  0  0  0  0  0  0  0  0
   34.7697   31.8895   60.9116 C   0  0  0  0  0  0  0  0  0  0  0  0
   34.6075   34.9229   60.1543 C   0  0  0  0  0  0  0  0  0  0  0  0
   35.5312   35.8916   59.8181 O   0  0  0  0  0  0  0  0  0  0  0  0
   36.4269   35.5474   59.9599 H   0  0  0  0  0  0  0  0  0  0  0  0
  7  8  1  0  0  0
  9  8  2  0  0  0
  8 13  1  0  0  0
  9 10  1  0  0  0
 10 11  2  0  0  0
 14 11  1  0  0  0
 11 12  1  0  0  0
 14 16  1  0  0  0
 17 16  2  0  0  0
 16 21  1  0  0  0
 17 18  1  0  0  0
 18 19  2  0  0  0
 19 20  1  0  0  0
 21 20  2  0  0  0
 12 13  2  0  0  0
 13  1  1  0  0  0
  1  5  1  0  0  0
  1  2  2  0  0  0
  2  3  1  0  0  0
  4  3  1  0  0  0
  5  4  2  0  0  0
  4 22  1  0  0  0
 23 22  2  0  0  0
 22 24  1  0  0  0
 24 26  1  0  0  0
 26 33  1  0  0  0
 26 27  1  0  0  0
 34 33  1  0  0  0
 27 32  2  0  0  0
 27 28  1  0  0  0
 28 29  2  0  0  0
 29 30  1  0  0  0
 31 30  2  0  0  0
 32 31  1  0  0  0
 14 15  1  0  0  0
  3  6  1  0  0  0
 24 25  1  0  0  0
 34 35  1  0  0  0
M  END
> <minimizedAffinity>
-10.84516

$$$$
3I4B_Z48_A_501


 35 38  0  0  0  0  0  0  0  0999 V2000
   36.0347   34.3393   56.3243 C   0  0  0  0  0  0  0  0  0  0  0  0
   35.2867   35.4494   56.3711 C   0  0  0  0  0  0  0  0  0  0  0  0
   34.7401   35.4986   57.5532 N   0  0  0  0  0  0  0  0  0  0  0  0
   35.0942   34.4382   58.3139 C   0  0  0  0  0  0  0  0  0  0  0  0
   35.9031   33.6859   57.5474 C   0  0  0  0  0  0  0  0  0  0  0  0
   34.1421   36.2199   57.8555 H   0  0  0  0  0  0  0  0  0  0  0  0
   35.7196   31.6565   54.7147 C   0  0  0  0  0  0  0  0  0  0  0  0
   36.5740   32.8120   54.3422 C   0  0  0  0  0  0  0  0  0  0  0  0
   37.2759   32.7360   53.1871 C   0  0  0  0  0  0  0  0  0  0  0  0
   38.0121   33.7332   52.8336 N   0  0  0  0  0  0  0  0  0  0  0  0
   38.1201   34.8079   53.5427 C   0  0  0  0  0  0  0  0  0  0  0  0
   37.4803   34.9309   54.6569 N   0  0  0  0  0  0  0  0  0  0  0  0
   36.7240   33.9802   55.0954 C   0  0  0  0  0  0  0  0  0  0  0  0
   38.9556   35.7539   53.0352 N   0  0  0  0  0  0  0  0  0  0  0  0
   39.1224   35.6514   52.0703 H   0  0  0  0  0  0  0  0  0  0  0  0
   39.6204   36.8326   53.5976 C   0  0  0  0  0  0  0  0  0  0  0  0
   40.2642   37.6812   52.7236 C   0  0  0  0  0  0  0  0  0  0  0  0
   40.9594   38.7647   53.1709 C   0  0  0  0  0  0  0  0  0  0  0  0
   41.0233   39.0132   54.5104 C   0  0  0  0  0  0  0  0  0  0  0  0
   40.3863   38.1779   55.3925 C   0  0  0  0  0  0  0  0  0  0  0  0
   39.6915   37.0938   54.9430 C   0  0  0  0  0  0  0  0  0  0  0  0
   34.6592   34.2160   59.7054 C   0  0  0  0  0  0  0  0  0  0  0  0
   34.8564   34.9900   60.5692 O   0  0  0  0  0  0  0  0  0  0  0  0
   34.0142   33.0969   59.9937 N   0  0  0  0  0  0  0  0  0  0  0  0
   33.8519   32.4870   59.2381 H   0  0  0  0  0  0  0  0  0  0  0  0
   33.5199   32.6590   61.2729 C   0  0  0  0  0  0  0  0  0  0  0  0
   32.0591   32.8218   61.4790 C   0  0  0  0  0  0  0  0  0  0  0  0
   31.5894   34.0551   61.8007 C   0  0  0  0  0  0  0  0  0  0  0  0
   30.2775   34.2588   62.0132 C   0  0  0  0  0  0  0  0  0  0  0  0
   29.4279   33.2061   61.8939 C   0  0  0  0  0  0  0  0  0  0  0  0
   29.8955   31.9699   61.5752 C   0  0  0  0  0  0  0  0  0  0  0  0
   31.2212   31.7741   61.3651 C   0  0  0  0  0  0  0  0  0  0  0  0
   33.7787   31.1794   61.2743 C   0  0  0  0  0  0  0  0  0  0  0  0
   34.8149   30.9632   62.1597 O   0  0  0  0  0  0  0  0  0  0  0  0
   35.5932   31.4679   61.8760 H   0  0  0  0  0  0  0  0  0  0  0  0
  7  8  1  0  0  0
  9  8  2  0  0  0
  8 13  1  0  0  0
  9 10  1  0  0  0
 10 11  2  0  0  0
 14 11  1  0  0  0
 11 12  1  0  0  0
 14 16  1  0  0  0
 17 16  2  0  0  0
 16 21  1  0  0  0
 17 18  1  0  0  0
 18 19  2  0  0  0
 19 20  1  0  0  0
 21 20  2  0  0  0
 12 13  2  0  0  0
 13  1  1  0  0  0
  1  5  1  0  0  0
  1  2  2  0  0  0
  2  3  1  0  0  0
  4  3  1  0  0  0
  5  4  2  0  0  0
  4 22  1  0  0  0
 23 22  2  0  0  0
 22 24  1  0  0  0
 24 26  1  0  0  0
 26 33  1  0  0  0
 26 27  1  0  0  0
 34 33  1  0  0  0
 27 32  2  0  0  0
 27 28  1  0  0  0
 28 29  2  0  0  0
 29 30  1  0  0  0
 31 30  2  0  0  0
 32 31  1  0  0  0
 14 15  1  0  0  0
  3  6  1  0  0  0
 24 25  1  0  0  0
 34 35  1  0  0  0
M  END
> <minimizedAffinity>
-9.84723

$$$$
3I4B_Z48_A_501


 35 38  0  0  0  0  0  0  0  0999 V2000
   35.8990   33.5843   58.6157 C   0  0  0  0  0  0  0  0  0  0  0  0
   36.3164   34.8372   58.8392 C   0  0  0  0  0  0  0  0  0  0  0  0
   36.7888   35.2947   57.7140 N   0  0  0  0  0  0  0  0  0  0  0  0
   36.7095   34.3750   56.7260 C   0  0  0  0  0  0  0  0  0  0  0  0
   36.1611   33.2803   57.2818 C   0  0  0  0  0  0  0  0  0  0  0  0
   37.1584   36.1998   57.5976 H   0  0  0  0  0  0  0  0  0  0  0  0
   37.5624   31.7828   60.5842 C   0  0  0  0  0  0  0  0  0  0  0  0
   36.0957   32.0092   60.6238 C   0  0  0  0  0  0  0  0  0  0  0  0
   35.3878   31.4119   61.6111 C   0  0  0  0  0  0  0  0  0  0  0  0
   34.1153   31.6064   61.6765 N   0  0  0  0  0  0  0  0  0  0  0  0
   33.4768   32.3439   60.8293 C   0  0  0  0  0  0  0  0  0  0  0  0
   34.1001   32.9303   59.8630 N   0  0  0  0  0  0  0  0  0  0  0  0
   35.3750   32.7875   59.7132 C   0  0  0  0  0  0  0  0  0  0  0  0
   32.1339   32.4252   61.0305 N   0  0  0  0  0  0  0  0  0  0  0  0
   31.7163   33.1933   60.5778 H   0  0  0  0  0  0  0  0  0  0  0  0
   31.2326   31.6485   61.7421 C   0  0  0  0  0  0  0  0  0  0  0  0
   30.3271   32.3248   62.5303 C   0  0  0  0  0  0  0  0  0  0  0  0
   29.4059   31.6586   63.2819 C   0  0  0  0  0  0  0  0  0  0  0  0
   29.3812   30.2952   63.2576 C   0  0  0  0  0  0  0  0  0  0  0  0
   30.2756   29.6083   62.4768 C   0  0  0  0  0  0  0  0  0  0  0  0
   31.1970   30.2767   61.7256 C   0  0  0  0  0  0  0  0  0  0  0  0
   37.1409   34.5946   55.3329 C   0  0  0  0  0  0  0  0  0  0  0  0
   36.6995   33.9926   54.4236 O   0  0  0  0  0  0  0  0  0  0  0  0
   38.0632   35.5135   55.0955 N   0  0  0  0  0  0  0  0  0  0  0  0
   38.3902   36.0080   55.8815 H   0  0  0  0  0  0  0  0  0  0  0  0
   38.6486   35.8812   53.8328 C   0  0  0  0  0  0  0  0  0  0  0  0
   39.5690   37.0447   53.8741 C   0  0  0  0  0  0  0  0  0  0  0  0
   40.1778   37.4234   52.7202 C   0  0  0  0  0  0  0  0  0  0  0  0
   41.0326   38.4610   52.7006 C   0  0  0  0  0  0  0  0  0  0  0  0
   41.2718   39.1289   53.8586 C   0  0  0  0  0  0  0  0  0  0  0  0
   40.6666   38.7501   55.0156 C   0  0  0  0  0  0  0  0  0  0  0  0
   39.8075   37.7004   55.0256 C   0  0  0  0  0  0  0  0  0  0  0  0
   39.4932   34.6945   53.4657 C   0  0  0  0  0  0  0  0  0  0  0  0
   38.9005   34.1179   52.3608 O   0  0  0  0  0  0  0  0  0  0  0  0
   37.9903   33.8627   52.5784 H   0  0  0  0  0  0  0  0  0  0  0  0
  7  8  1  0  0  0
  9  8  2  0  0  0
  8 13  1  0  0  0
  9 10  1  0  0  0
 10 11  2  0  0  0
 14 11  1  0  0  0
 11 12  1  0  0  0
 14 16  1  0  0  0
 17 16  2  0  0  0
 16 21  1  0  0  0
 17 18  1  0  0  0
 18 19  2  0  0  0
 19 20  1  0  0  0
 21 20  2  0  0  0
 12 13  2  0  0  0
 13  1  1  0  0  0
  1  5  1  0  0  0
  1  2  2  0  0  0
  2  3  1  0  0  0
  4  3  1  0  0  0
  5  4  2  0  0  0
  4 22  1  0  0  0
 23 22  2  0  0  0
 22 24  1  0  0  0
 24 26  1  0  0  0
 26 33  1  0  0  0
 26 27  1  0  0  0
 34 33  1  0  0  0
 27 32  2  0  0  0
 27 28  1  0  0  0
 28 29  2  0  0  0
 29 30  1  0  0  0
 31 30  2  0  0  0
 32 31  1  0  0  0
 14 15  1  0  0  0
  3  6  1  0  0  0
 24 25  1  0  0  0
 34 35  1  0  0  0
M  END
> <minimizedAffinity>
-9.71599

$$$$
3I4B_Z48_A_501


 35 38  0  0  0  0  0  0  0  0999 V2000
   38.2035   35.6303   54.7947 C   0  0  0  0  0  0  0  0  0  0  0  0
   38.2440   34.4282   54.2053 C   0  0  0  0  0  0  0  0  0  0  0  0
   37.4648   33.6362   54.8866 N   0  0  0  0  0  0  0  0  0  0  0  0
   36.8976   34.2722   55.9365 C   0  0  0  0  0  0  0  0  0  0  0  0
   37.3645   35.5327   55.9024 C   0  0  0  0  0  0  0  0  0  0  0  0
   37.3083   32.6901   54.6641 H   0  0  0  0  0  0  0  0  0  0  0  0
   39.8719   35.6286   52.1295 C   0  0  0  0  0  0  0  0  0  0  0  0
   39.7508   36.7523   53.0921 C   0  0  0  0  0  0  0  0  0  0  0  0
   40.3924   37.9085   52.8019 C   0  0  0  0  0  0  0  0  0  0  0  0
   40.2890   38.9042   53.6139 N   0  0  0  0  0  0  0  0  0  0  0  0
   39.6032   38.8457   54.7073 C   0  0  0  0  0  0  0  0  0  0  0  0
   38.9784   37.7657   55.0379 N   0  0  0  0  0  0  0  0  0  0  0  0
   39.0305   36.7143   54.2896 C   0  0  0  0  0  0  0  0  0  0  0  0
   39.6171   39.9788   55.4598 N   0  0  0  0  0  0  0  0  0  0  0  0
   40.5149   40.3697   55.5619 H   0  0  0  0  0  0  0  0  0  0  0  0
   38.6265   40.6964   56.1124 C   0  0  0  0  0  0  0  0  0  0  0  0
   38.8287   42.0541   56.2316 C   0  0  0  0  0  0  0  0  0  0  0  0
   37.9246   42.8518   56.8671 C   0  0  0  0  0  0  0  0  0  0  0  0
   36.7988   42.2960   57.3996 C   0  0  0  0  0  0  0  0  0  0  0  0
   36.5833   40.9460   57.2877 C   0  0  0  0  0  0  0  0  0  0  0  0
   37.4894   40.1492   56.6519 C   0  0  0  0  0  0  0  0  0  0  0  0
   35.9510   33.6558   56.8846 C   0  0  0  0  0  0  0  0  0  0  0  0
   35.2668   32.7413   56.6026 O   0  0  0  0  0  0  0  0  0  0  0  0
   35.8715   34.1517   58.1090 N   0  0  0  0  0  0  0  0  0  0  0  0
   36.4761   34.9025   58.3092 H   0  0  0  0  0  0  0  0  0  0  0  0
   35.0125   33.7317   59.1851 C   0  0  0  0  0  0  0  0  0  0  0  0
   35.5895   32.7139   60.0982 C   0  0  0  0  0  0  0  0  0  0  0  0
   34.7365   31.9398   60.8183 C   0  0  0  0  0  0  0  0  0  0  0  0
   35.2024   31.0114   61.6719 C   0  0  0  0  0  0  0  0  0  0  0  0
   36.5460   30.8579   61.7964 C   0  0  0  0  0  0  0  0  0  0  0  0
   37.4022   31.6334   61.0795 C   0  0  0  0  0  0  0  0  0  0  0  0
   36.9223   32.5690   60.2226 C   0  0  0  0  0  0  0  0  0  0  0  0
   34.8294   34.9744   60.0087 C   0  0  0  0  0  0  0  0  0  0  0  0
   33.4863   35.2870   59.9540 O   0  0  0  0  0  0  0  0  0  0  0  0
   33.2231   35.4214   59.0301 H   0  0  0  0  0  0  0  0  0  0  0  0
  7  8  1  0  0  0
  9  8  2  0  0  0
  8 13  1  0  0  0
  9 10  1  0  0  0
 10 11  2  0  0  0
 14 11  1  0  0  0
 11 12  1  0  0  0
 14 16  1  0  0  0
 17 16  2  0  0  0
 16 21  1  0  0  0
 17 18  1  0  0  0
 18 19  2  0  0  0
 19 20  1  0  0  0
 21 20  2  0  0  0
 12 13  2  0  0  0
 13  1  1  0  0  0
  1  5  1  0  0  0
  1  2  2  0  0  0
  2  3  1  0  0  0
  4  3  1  0  0  0
  5  4  2  0  0  0
  4 22  1  0  0  0
 23 22  2  0  0  0
 22 24  1  0  0  0
 24 26  1  0  0  0
 26 33  1  0  0  0
 26 27  1  0  0  0
 34 33  1  0  0  0
 27 32  2  0  0  0
 27 28  1  0  0  0
 28 29  2  0  0  0
 29 30  1  0  0  0
 31 30  2  0  0  0
 32 31  1  0  0  0
 14 15  1  0  0  0
  3  6  1  0  0  0
 24 25  1  0  0  0
 34 35  1  0  0  0
M  END
> <minimizedAffinity>
-9.67692

$$$$
3I4B_Z48_A_501


 35 38  0  0  0  0  0  0  0  0999 V2000
   35.2763   33.9833   58.8242 C   0  0  0  0  0  0  0  0  0  0  0  0
   36.3180   34.8236   58.8753 C   0  0  0  0  0  0  0  0  0  0  0  0
   36.8300   34.8791   57.6781 N   0  0  0  0  0  0  0  0  0  0  0  0
   36.1623   34.0861   56.8099 C   0  0  0  0  0  0  0  0  0  0  0  0
   35.1831   33.5001   57.5211 C   0  0  0  0  0  0  0  0  0  0  0  0
   37.6082   35.4312   57.4353 H   0  0  0  0  0  0  0  0  0  0  0  0
   33.5520   35.9781   60.5375 C   0  0  0  0  0  0  0  0  0  0  0  0
   33.7350   34.5274   60.7941 C   0  0  0  0  0  0  0  0  0  0  0  0
   33.0848   33.9826   61.8492 C   0  0  0  0  0  0  0  0  0  0  0  0
   33.2146   32.7217   62.0830 N   0  0  0  0  0  0  0  0  0  0  0  0
   33.9516   31.9485   61.3561 C   0  0  0  0  0  0  0  0  0  0  0  0
   34.6007   32.4162   60.3432 N   0  0  0  0  0  0  0  0  0  0  0  0
   34.5374   33.6692   60.0364 C   0  0  0  0  0  0  0  0  0  0  0  0
   33.9947   30.6487   61.7548 N   0  0  0  0  0  0  0  0  0  0  0  0
   34.8947   30.3505   62.0200 H   0  0  0  0  0  0  0  0  0  0  0  0
   33.0315   29.6576   61.8644 C   0  0  0  0  0  0  0  0  0  0  0  0
   33.4360   28.3729   61.5736 C   0  0  0  0  0  0  0  0  0  0  0  0
   32.5665   27.3253   61.6361 C   0  0  0  0  0  0  0  0  0  0  0  0
   31.2689   27.5520   61.9894 C   0  0  0  0  0  0  0  0  0  0  0  0
   30.8520   28.8253   62.2829 C   0  0  0  0  0  0  0  0  0  0  0  0
   31.7234   29.8725   62.2193 C   0  0  0  0  0  0  0  0  0  0  0  0
   36.4830   33.9468   55.3772 C   0  0  0  0  0  0  0  0  0  0  0  0
   35.9361   33.1819   54.6702 O   0  0  0  0  0  0  0  0  0  0  0  0
   37.4258   34.7207   54.8635 N   0  0  0  0  0  0  0  0  0  0  0  0
   37.8429   35.3605   55.4846 H   0  0  0  0  0  0  0  0  0  0  0  0
   37.9182   34.7447   53.5110 C   0  0  0  0  0  0  0  0  0  0  0  0
   38.9026   35.8145   53.2124 C   0  0  0  0  0  0  0  0  0  0  0  0
   38.9572   36.8874   54.0437 C   0  0  0  0  0  0  0  0  0  0  0  0
   39.8191   37.8935   53.8145 C   0  0  0  0  0  0  0  0  0  0  0  0
   40.6406   37.8135   52.7360 C   0  0  0  0  0  0  0  0  0  0  0  0
   40.5859   36.7425   51.9004 C   0  0  0  0  0  0  0  0  0  0  0  0
   39.7112   35.7336   52.1389 C   0  0  0  0  0  0  0  0  0  0  0  0
   38.6593   33.4457   53.3720 C   0  0  0  0  0  0  0  0  0  0  0  0
   38.0035   32.7222   52.3969 O   0  0  0  0  0  0  0  0  0  0  0  0
   37.0799   32.5871   52.6607 H   0  0  0  0  0  0  0  0  0  0  0  0
  7  8  1  0  0  0
  9  8  2  0  0  0
  8 13  1  0  0  0
  9 10  1  0  0  0
 10 11  2  0  0  0
 14 11  1  0  0  0
 11 12  1  0  0  0
 14 16  1  0  0  0
 17 16  2  0  0  0
 16 21  1  0  0  0
 17 18  1  0  0  0
 18 19  2  0  0  0
 19 20  1  0  0  0
 21 20  2  0  0  0
 12 13  2  0  0  0
 13  1  1  0  0  0
  1  5  1  0  0  0
  1  2  2  0  0  0
  2  3  1  0  0  0
  4  3  1  0  0  0
  5  4  2  0  0  0
  4 22  1  0  0  0
 23 22  2  0  0  0
 22 24  1  0  0  0
 24 26  1  0  0  0
 26 33  1  0  0  0
 26 27  1  0  0  0
 34 33  1  0  0  0
 27 32  2  0  0  0
 27 28  1  0  0  0
 28 29  2  0  0  0
 29 30  1  0  0  0
 31 30  2  0  0  0
 32 31  1  0  0  0
 14 15  1  0  0  0
  3  6  1  0  0  0
 24 25  1  0  0  0
 34 35  1  0  0  0
M  END
> <minimizedAffinity>
-9.57561

$$$$
3I4B_Z48_A_501


 35 38  0  0  0  0  0  0  0  0999 V2000
   35.4074   34.2743   59.0664 C   0  0  0  0  0  0  0  0  0  0  0  0
   35.2486   33.7422   57.8475 C   0  0  0  0  0  0  0  0  0  0  0  0
   36.0874   34.3421   57.0506 N   0  0  0  0  0  0  0  0  0  0  0  0
   36.8123   35.2807   57.7002 C   0  0  0  0  0  0  0  0  0  0  0  0
   36.3858   35.2616   58.9752 C   0  0  0  0  0  0  0  0  0  0  0  0
   36.1817   34.1369   56.0924 H   0  0  0  0  0  0  0  0  0  0  0  0
   33.3492   36.0498   60.6471 C   0  0  0  0  0  0  0  0  0  0  0  0
   33.6067   34.6026   60.8557 C   0  0  0  0  0  0  0  0  0  0  0  0
   32.8773   33.9574   61.7962 C   0  0  0  0  0  0  0  0  0  0  0  0
   33.0709   32.6970   61.9845 N   0  0  0  0  0  0  0  0  0  0  0  0
   33.9442   32.0170   61.3180 C   0  0  0  0  0  0  0  0  0  0  0  0
   34.6731   32.5830   60.4155 N   0  0  0  0  0  0  0  0  0  0  0  0
   34.5546   33.8440   60.1626 C   0  0  0  0  0  0  0  0  0  0  0  0
   34.0352   30.7028   61.6573 N   0  0  0  0  0  0  0  0  0  0  0  0
   34.9568   30.4092   61.8411 H   0  0  0  0  0  0  0  0  0  0  0  0
   33.0967   29.6921   61.7974 C   0  0  0  0  0  0  0  0  0  0  0  0
   33.5019   28.4239   61.4422 C   0  0  0  0  0  0  0  0  0  0  0  0
   32.6548   27.3598   61.5276 C   0  0  0  0  0  0  0  0  0  0  0  0
   31.3791   27.5529   61.9696 C   0  0  0  0  0  0  0  0  0  0  0  0
   30.9619   28.8095   62.3279 C   0  0  0  0  0  0  0  0  0  0  0  0
   31.8109   29.8733   62.2413 C   0  0  0  0  0  0  0  0  0  0  0  0
   37.8588   36.1154   57.0814 C   0  0  0  0  0  0  0  0  0  0  0  0
   38.5389   36.8510   57.6983 O   0  0  0  0  0  0  0  0  0  0  0  0
   38.0434   36.0294   55.7737 N   0  0  0  0  0  0  0  0  0  0  0  0
   37.4676   35.3869   55.2994 H   0  0  0  0  0  0  0  0  0  0  0  0
   38.9799   36.7567   54.9575 C   0  0  0  0  0  0  0  0  0  0  0  0
   39.3076   36.1285   53.6534 C   0  0  0  0  0  0  0  0  0  0  0  0
   40.0523   36.8393   52.7672 C   0  0  0  0  0  0  0  0  0  0  0  0
   40.3675   36.3268   51.5649 C   0  0  0  0  0  0  0  0  0  0  0  0
   39.9308   35.0788   51.2548 C   0  0  0  0  0  0  0  0  0  0  0  0
   39.1824   34.3663   52.1384 C   0  0  0  0  0  0  0  0  0  0  0  0
   38.8677   34.8932   53.3481 C   0  0  0  0  0  0  0  0  0  0  0  0
   38.2624   38.0363   54.6352 C   0  0  0  0  0  0  0  0  0  0  0  0
   38.8057   39.0072   55.4516 O   0  0  0  0  0  0  0  0  0  0  0  0
   38.6911   38.7503   56.3799 H   0  0  0  0  0  0  0  0  0  0  0  0
  7  8  1  0  0  0
  9  8  2  0  0  0
  8 13  1  0  0  0
  9 10  1  0  0  0
 10 11  2  0  0  0
 14 11  1  0  0  0
 11 12  1  0  0  0
 14 16  1  0  0  0
 17 16  2  0  0  0
 16 21  1  0  0  0
 17 18  1  0  0  0
 18 19  2  0  0  0
 19 20  1  0  0  0
 21 20  2  0  0  0
 12 13  2  0  0  0
 13  1  1  0  0  0
  1  5  1  0  0  0
  1  2  2  0  0  0
  2  3  1  0  0  0
  4  3  1  0  0  0
  5  4  2  0  0  0
  4 22  1  0  0  0
 23 22  2  0  0  0
 22 24  1  0  0  0
 24 26  1  0  0  0
 26 33  1  0  0  0
 26 27  1  0  0  0
 34 33  1  0  0  0
 27 32  2  0  0  0
 27 28  1  0  0  0
 28 29  2  0  0  0
 29 30  1  0  0  0
 31 30  2  0  0  0
 32 31  1  0  0  0
 14 15  1  0  0  0
  3  6  1  0  0  0
 24 25  1  0  0  0
 34 35  1  0  0  0
M  END
> <minimizedAffinity>
-9.50765

$$$$
3I4B_Z48_A_501


 35 38  0  0  0  0  0  0  0  0999 V2000
   34.8374   37.1781   59.1251 C   0  0  0  0  0  0  0  0  0  0  0  0
   34.5496   37.8267   57.9892 C   0  0  0  0  0  0  0  0  0  0  0  0
   35.5617   37.6659   57.1840 N   0  0  0  0  0  0  0  0  0  0  0  0
   36.5407   36.9253   57.7510 C   0  0  0  0  0  0  0  0  0  0  0  0
   36.1056   36.6188   58.9858 C   0  0  0  0  0  0  0  0  0  0  0  0
   35.6079   38.0382   56.2738 H   0  0  0  0  0  0  0  0  0  0  0  0
   34.9449   39.1784   61.5488 C   0  0  0  0  0  0  0  0  0  0  0  0
   33.9169   38.1334   61.3142 C   0  0  0  0  0  0  0  0  0  0  0  0
   32.9024   38.0299   62.2046 C   0  0  0  0  0  0  0  0  0  0  0  0
   31.9885   37.1412   62.0137 N   0  0  0  0  0  0  0  0  0  0  0  0
   32.0016   36.3303   61.0079 C   0  0  0  0  0  0  0  0  0  0  0  0
   32.9494   36.3788   60.1330 N   0  0  0  0  0  0  0  0  0  0  0  0
   33.9126   37.2319   60.2457 C   0  0  0  0  0  0  0  0  0  0  0  0
   30.9735   35.4404   60.9693 N   0  0  0  0  0  0  0  0  0  0  0  0
   30.2472   35.7080   60.3608 H   0  0  0  0  0  0  0  0  0  0  0  0
   30.7384   34.2341   61.6108 C   0  0  0  0  0  0  0  0  0  0  0  0
   31.8492   33.4985   61.9623 C   0  0  0  0  0  0  0  0  0  0  0  0
   31.7318   32.2917   62.5846 C   0  0  0  0  0  0  0  0  0  0  0  0
   30.4907   31.7993   62.8622 C   0  0  0  0  0  0  0  0  0  0  0  0
   29.3756   32.5208   62.5194 C   0  0  0  0  0  0  0  0  0  0  0  0
   29.4951   33.7280   61.8962 C   0  0  0  0  0  0  0  0  0  0  0  0
   37.8040   36.5492   57.0895 C   0  0  0  0  0  0  0  0  0  0  0  0
   38.8226   36.4425   57.6683 O   0  0  0  0  0  0  0  0  0  0  0  0
   37.7892   36.3172   55.7866 N   0  0  0  0  0  0  0  0  0  0  0  0
   36.9128   36.3972   55.3453 H   0  0  0  0  0  0  0  0  0  0  0  0
   38.8932   35.9627   54.9334 C   0  0  0  0  0  0  0  0  0  0  0  0
   38.5930   34.9440   53.8966 C   0  0  0  0  0  0  0  0  0  0  0  0
   39.2839   34.9941   52.7280 C   0  0  0  0  0  0  0  0  0  0  0  0
   39.0441   34.1061   51.7474 C   0  0  0  0  0  0  0  0  0  0  0  0
   38.0995   33.1517   51.9505 C   0  0  0  0  0  0  0  0  0  0  0  0
   37.4042   33.1012   53.1177 C   0  0  0  0  0  0  0  0  0  0  0  0
   37.6517   34.0032   54.1001 C   0  0  0  0  0  0  0  0  0  0  0  0
   39.2013   37.2327   54.1929 C   0  0  0  0  0  0  0  0  0  0  0  0
   40.3018   37.7903   54.8112 O   0  0  0  0  0  0  0  0  0  0  0  0
   40.0992   37.9545   55.7455 H   0  0  0  0  0  0  0  0  0  0  0  0
  7  8  1  0  0  0
  9  8  2  0  0  0
  8 13  1  0  0  0
  9 10  1  0  0  0
 10 11  2  0  0  0
 14 11  1  0  0  0
 11 12  1  0  0  0
 14 16  1  0  0  0
 17 16  2  0  0  0
 16 21  1  0  0  0
 17 18  1  0  0  0
 18 19  2  0  0  0
 19 20  1  0  0  0
 21 20  2  0  0  0
 12 13  2  0  0  0
 13  1  1  0  0  0
  1  5  1  0  0  0
  1  2  2  0  0  0
  2  3  1  0  0  0
  4  3  1  0  0  0
  5  4  2  0  0  0
  4 22  1  0  0  0
 23 22  2  0  0  0
 22 24  1  0  0  0
 24 26  1  0  0  0
 26 33  1  0  0  0
 26 27  1  0  0  0
 34 33  1  0  0  0
 27 32  2  0  0  0
 27 28  1  0  0  0
 28 29  2  0  0  0
 29 30  1  0  0  0
 31 30  2  0  0  0
 32 31  1  0  0  0
 14 15  1  0  0  0
  3  6  1  0  0  0
 24 25  1  0  0  0
 34 35  1  0  0  0
M  END
> <minimizedAffinity>
-9.42041

$$$$
3I4B_Z48_A_501


 35 38  0  0  0  0  0  0  0  0999 V2000
   34.8848   35.6404   58.9110 C   0  0  0  0  0  0  0  0  0  0  0  0
   35.8434   34.7900   59.3007 C   0  0  0  0  0  0  0  0  0  0  0  0
   36.3719   34.2816   58.2233 N   0  0  0  0  0  0  0  0  0  0  0  0
   35.7872   34.7627   57.1030 C   0  0  0  0  0  0  0  0  0  0  0  0
   34.8337   35.6145   57.5191 C   0  0  0  0  0  0  0  0  0  0  0  0
   37.1072   33.6270   58.2249 H   0  0  0  0  0  0  0  0  0  0  0  0
   35.4625   38.4445   60.2111 C   0  0  0  0  0  0  0  0  0  0  0  0
   34.2839   37.5796   60.4698 C   0  0  0  0  0  0  0  0  0  0  0  0
   33.3394   38.0338   61.3268 C   0  0  0  0  0  0  0  0  0  0  0  0
   32.2986   37.3084   61.5550 N   0  0  0  0  0  0  0  0  0  0  0  0
   32.1185   36.1526   61.0064 C   0  0  0  0  0  0  0  0  0  0  0  0
   32.9908   35.6669   60.1883 N   0  0  0  0  0  0  0  0  0  0  0  0
   34.0690   36.3191   59.9048 C   0  0  0  0  0  0  0  0  0  0  0  0
   30.9771   35.5100   61.3733 N   0  0  0  0  0  0  0  0  0  0  0  0
   30.1689   36.0645   61.2803 H   0  0  0  0  0  0  0  0  0  0  0  0
   30.7181   34.2347   61.8513 C   0  0  0  0  0  0  0  0  0  0  0  0
   31.8121   33.4845   62.2241 C   0  0  0  0  0  0  0  0  0  0  0  0
   31.6720   32.2130   62.6945 C   0  0  0  0  0  0  0  0  0  0  0  0
   30.4252   31.6696   62.7950 C   0  0  0  0  0  0  0  0  0  0  0  0
   29.3266   32.4048   62.4287 C   0  0  0  0  0  0  0  0  0  0  0  0
   29.4688   33.6769   61.9578 C   0  0  0  0  0  0  0  0  0  0  0  0
   36.1741   34.3989   55.7272 C   0  0  0  0  0  0  0  0  0  0  0  0
   35.6071   33.5829   55.0974 O   0  0  0  0  0  0  0  0  0  0  0  0
   37.2030   35.0222   55.1754 N   0  0  0  0  0  0  0  0  0  0  0  0
   37.6355   35.7119   55.7290 H   0  0  0  0  0  0  0  0  0  0  0  0
   37.7694   34.8187   53.8677 C   0  0  0  0  0  0  0  0  0  0  0  0
   38.7599   35.8375   53.4390 C   0  0  0  0  0  0  0  0  0  0  0  0
   39.4987   35.5869   52.3269 C   0  0  0  0  0  0  0  0  0  0  0  0
   40.4210   36.4669   51.8998 C   0  0  0  0  0  0  0  0  0  0  0  0
   40.5961   37.6173   52.6000 C   0  0  0  0  0  0  0  0  0  0  0  0
   39.8604   37.8694   53.7152 C   0  0  0  0  0  0  0  0  0  0  0  0
   38.9340   36.9740   54.1395 C   0  0  0  0  0  0  0  0  0  0  0  0
   38.5281   33.5289   53.9981 C   0  0  0  0  0  0  0  0  0  0  0  0
   37.8152   32.5814   53.2921 O   0  0  0  0  0  0  0  0  0  0  0  0
   36.9186   32.5139   53.6559 H   0  0  0  0  0  0  0  0  0  0  0  0
  7  8  1  0  0  0
  9  8  2  0  0  0
  8 13  1  0  0  0
  9 10  1  0  0  0
 10 11  2  0  0  0
 14 11  1  0  0  0
 11 12  1  0  0  0
 14 16  1  0  0  0
 17 16  2  0  0  0
 16 21  1  0  0  0
 17 18  1  0  0  0
 18 19  2  0  0  0
 19 20  1  0  0  0
 21 20  2  0  0  0
 12 13  2  0  0  0
 13  1  1  0  0  0
  1  5  1  0  0  0
  1  2  2  0  0  0
  2  3  1  0  0  0
  4  3  1  0  0  0
  5  4  2  0  0  0
  4 22  1  0  0  0
 23 22  2  0  0  0
 22 24  1  0  0  0
 24 26  1  0  0  0
 26 33  1  0  0  0
 26 27  1  0  0  0
 34 33  1  0  0  0
 27 32  2  0  0  0
 27 28  1  0  0  0
 28 29  2  0  0  0
 29 30  1  0  0  0
 31 30  2  0  0  0
 32 31  1  0  0  0
 14 15  1  0  0  0
  3  6  1  0  0  0
 24 25  1  0  0  0
 34 35  1  0  0  0
M  END
> <minimizedAffinity>
-9.31618

$$$$
3I4B_Z48_A_501


 35 38  0  0  0  0  0  0  0  0999 V2000
   38.2330   36.2590   54.9057 C   0  0  0  0  0  0  0  0  0  0  0  0
   37.1286   37.0164   54.9270 C   0  0  0  0  0  0  0  0  0  0  0  0
   36.6120   36.9147   56.1192 N   0  0  0  0  0  0  0  0  0  0  0  0
   37.3385   36.0951   56.9122 C   0  0  0  0  0  0  0  0  0  0  0  0
   38.3617   35.6595   56.1565 C   0  0  0  0  0  0  0  0  0  0  0  0
   35.7925   37.3781   56.4073 H   0  0  0  0  0  0  0  0  0  0  0  0
   38.2155   33.7951   52.9521 C   0  0  0  0  0  0  0  0  0  0  0  0
   38.9778   35.0563   52.7724 C   0  0  0  0  0  0  0  0  0  0  0  0
   39.7258   35.1917   51.6522 C   0  0  0  0  0  0  0  0  0  0  0  0
   40.3837   36.2842   51.4654 N   0  0  0  0  0  0  0  0  0  0  0  0
   40.3702   37.2612   52.3108 C   0  0  0  0  0  0  0  0  0  0  0  0
   39.6813   37.1828   53.3995 N   0  0  0  0  0  0  0  0  0  0  0  0
   38.9962   36.1233   53.6756 C   0  0  0  0  0  0  0  0  0  0  0  0
   41.1371   38.3316   51.9696 N   0  0  0  0  0  0  0  0  0  0  0  0
   41.3883   38.3454   51.0177 H   0  0  0  0  0  0  0  0  0  0  0  0
   41.6376   39.4072   52.6870 C   0  0  0  0  0  0  0  0  0  0  0  0
   40.9777   40.6073   52.5354 C   0  0  0  0  0  0  0  0  0  0  0  0
   41.3940   41.7314   53.1838 C   0  0  0  0  0  0  0  0  0  0  0  0
   42.4878   41.6698   53.9960 C   0  0  0  0  0  0  0  0  0  0  0  0
   43.1542   40.4819   54.1577 C   0  0  0  0  0  0  0  0  0  0  0  0
   42.7364   39.3581   53.5077 C   0  0  0  0  0  0  0  0  0  0  0  0
   37.0275   35.7920   58.3216 C   0  0  0  0  0  0  0  0  0  0  0  0
   37.6744   36.1901   59.2199 O   0  0  0  0  0  0  0  0  0  0  0  0
   35.9701   35.0416   58.5871 N   0  0  0  0  0  0  0  0  0  0  0  0
   35.4450   34.7472   57.8081 H   0  0  0  0  0  0  0  0  0  0  0  0
   35.4911   34.6016   59.8713 C   0  0  0  0  0  0  0  0  0  0  0  0
   34.2201   35.2217   60.3216 C   0  0  0  0  0  0  0  0  0  0  0  0
   33.4605   34.5470   61.2234 C   0  0  0  0  0  0  0  0  0  0  0  0
   32.2926   35.0533   61.6563 C   0  0  0  0  0  0  0  0  0  0  0  0
   31.8885   36.2583   61.1777 C   0  0  0  0  0  0  0  0  0  0  0  0
   32.6450   36.9342   60.2726 C   0  0  0  0  0  0  0  0  0  0  0  0
   33.8208   36.4139   59.8402 C   0  0  0  0  0  0  0  0  0  0  0  0
   35.1940   33.1434   59.6671 C   0  0  0  0  0  0  0  0  0  0  0  0
   35.0594   32.9572   58.3064 O   0  0  0  0  0  0  0  0  0  0  0  0
   34.3466   33.5236   57.9715 H   0  0  0  0  0  0  0  0  0  0  0  0
  7  8  1  0  0  0
  9  8  2  0  0  0
  8 13  1  0  0  0
  9 10  1  0  0  0
 10 11  2  0  0  0
 14 11  1  0  0  0
 11 12  1  0  0  0
 14 16  1  0  0  0
 17 16  2  0  0  0
 16 21  1  0  0  0
 17 18  1  0  0  0
 18 19  2  0  0  0
 19 20  1  0  0  0
 21 20  2  0  0  0
 12 13  2  0  0  0
 13  1  1  0  0  0
  1  5  1  0  0  0
  1  2  2  0  0  0
  2  3  1  0  0  0
  4  3  1  0  0  0
  5  4  2  0  0  0
  4 22  1  0  0  0
 23 22  2  0  0  0
 22 24  1  0  0  0
 24 26  1  0  0  0
 26 33  1  0  0  0
 26 27  1  0  0  0
 34 33  1  0  0  0
 27 32  2  0  0  0
 27 28  1  0  0  0
 28 29  2  0  0  0
 29 30  1  0  0  0
 31 30  2  0  0  0
 32 31  1  0  0  0
 14 15  1  0  0  0
  3  6  1  0  0  0
 24 25  1  0  0  0
 34 35  1  0  0  0
M  END
> <minimizedAffinity>
-9.29672

$$$$
3I4B_Z48_A_501


 35 38  0  0  0  0  0  0  0  0999 V2000
   35.3840   35.4046   58.8337 C   0  0  0  0  0  0  0  0  0  0  0  0
   34.8517   35.5473   57.6130 C   0  0  0  0  0  0  0  0  0  0  0  0
   35.8065   35.9400   56.8175 N   0  0  0  0  0  0  0  0  0  0  0  0
   36.9812   36.0761   57.4731 C   0  0  0  0  0  0  0  0  0  0  0  0
   36.7300   35.7545   58.7543 C   0  0  0  0  0  0  0  0  0  0  0  0
   35.6870   36.1161   55.8563 H   0  0  0  0  0  0  0  0  0  0  0  0
   34.3108   37.3179   61.0864 C   0  0  0  0  0  0  0  0  0  0  0  0
   34.0172   35.8693   60.9474 C   0  0  0  0  0  0  0  0  0  0  0  0
   33.1878   35.3001   61.8535 C   0  0  0  0  0  0  0  0  0  0  0  0
   32.9044   34.0474   61.7444 N   0  0  0  0  0  0  0  0  0  0  0  0
   33.3880   33.3007   60.8074 C   0  0  0  0  0  0  0  0  0  0  0  0
   34.1904   33.7888   59.9219 N   0  0  0  0  0  0  0  0  0  0  0  0
   34.5371   35.0326   59.9555 C   0  0  0  0  0  0  0  0  0  0  0  0
   33.0038   31.9965   60.8512 N   0  0  0  0  0  0  0  0  0  0  0  0
   33.5884   31.3988   60.3314 H   0  0  0  0  0  0  0  0  0  0  0  0
   31.9579   31.3363   61.4775 C   0  0  0  0  0  0  0  0  0  0  0  0
   32.3033   30.3323   62.3558 C   0  0  0  0  0  0  0  0  0  0  0  0
   31.3538   29.6102   63.0149 C   0  0  0  0  0  0  0  0  0  0  0  0
   30.0351   29.8828   62.7990 C   0  0  0  0  0  0  0  0  0  0  0  0
   29.6761   30.8801   61.9284 C   0  0  0  0  0  0  0  0  0  0  0  0
   30.6276   31.6014   61.2694 C   0  0  0  0  0  0  0  0  0  0  0  0
   38.2533   36.4842   56.8484 C   0  0  0  0  0  0  0  0  0  0  0  0
   39.2625   36.5683   57.4471 O   0  0  0  0  0  0  0  0  0  0  0  0
   38.2596   36.7641   55.5549 N   0  0  0  0  0  0  0  0  0  0  0  0
   37.3990   36.6608   55.0881 H   0  0  0  0  0  0  0  0  0  0  0  0
   39.3664   37.2006   54.7444 C   0  0  0  0  0  0  0  0  0  0  0  0
   39.5652   36.4466   53.4816 C   0  0  0  0  0  0  0  0  0  0  0  0
   39.0399   35.1972   53.3901 C   0  0  0  0  0  0  0  0  0  0  0  0
   39.2009   34.4621   52.2759 C   0  0  0  0  0  0  0  0  0  0  0  0
   39.8957   34.9964   51.2386 C   0  0  0  0  0  0  0  0  0  0  0  0
   40.4254   36.2453   51.3286 C   0  0  0  0  0  0  0  0  0  0  0  0
   40.2596   36.9782   52.4579 C   0  0  0  0  0  0  0  0  0  0  0  0
   38.9911   38.5979   54.3408 C   0  0  0  0  0  0  0  0  0  0  0  0
   39.6531   39.4468   55.2043 O   0  0  0  0  0  0  0  0  0  0  0  0
   39.3902   39.2493   56.1168 H   0  0  0  0  0  0  0  0  0  0  0  0
  7  8  1  0  0  0
  9  8  2  0  0  0
  8 13  1  0  0  0
  9 10  1  0  0  0
 10 11  2  0  0  0
 14 11  1  0  0  0
 11 12  1  0  0  0
 14 16  1  0  0  0
 17 16  2  0  0  0
 16 21  1  0  0  0
 17 18  1  0  0  0
 18 19  2  0  0  0
 19 20  1  0  0  0
 21 20  2  0  0  0
 12 13  2  0  0  0
 13  1  1  0  0  0
  1  5  1  0  0  0
  1  2  2  0  0  0
  2  3  1  0  0  0
  4  3  1  0  0  0
  5  4  2  0  0  0
  4 22  1  0  0  0
 23 22  2  0  0  0
 22 24  1  0  0  0
 24 26  1  0  0  0
 26 33  1  0  0  0
 26 27  1  0  0  0
 34 33  1  0  0  0
 27 32  2  0  0  0
 27 28  1  0  0  0
 28 29  2  0  0  0
 29 30  1  0  0  0
 31 30  2  0  0  0
 32 31  1  0  0  0
 14 15  1  0  0  0
  3  6  1  0  0  0
 24 25  1  0  0  0
 34 35  1  0  0  0
M  END
> <minimizedAffinity>
-9.26980

$$$$
