5G46_6VD_A_1510


 14 15  0  0  0  0  0  0  0  0999 V2000
  -28.7099    9.6053  -31.2842 C   0  0  0  0  0  0  0  0  0  0  0  0
  -29.2356    9.1429  -30.0948 C   0  0  0  0  0  0  0  0  0  0  0  0
  -27.9112    8.8031  -32.0669 C   0  0  0  0  0  0  0  0  0  0  0  0
  -28.9888    7.8506  -29.6745 C   0  0  0  0  0  0  0  0  0  0  0  0
  -27.6596    7.5177  -31.6244 C   0  0  0  0  0  0  0  0  0  0  0  0
  -28.1958    7.0274  -30.4454 C   0  0  0  0  0  0  0  0  0  0  0  0
  -26.5475    5.2760  -31.9680 C   0  0  0  0  0  0  0  0  0  0  0  0
  -26.8065    6.6494  -32.4464 C   0  0  0  0  0  0  0  0  0  0  0  0
  -27.1177    4.9126  -30.8088 C   0  0  0  0  0  0  0  0  0  0  0  0
  -27.9193    5.7171  -30.0205 N   0  0  0  0  0  0  0  0  0  0  0  0
  -26.3116    7.0730  -33.4823 O   0  0  0  0  0  0  0  0  0  0  0  0
  -26.4918    7.9484  -33.7638 H   0  0  0  0  0  0  0  0  0  0  0  0
  -27.2809    2.4577  -31.2301 C   0  0  0  0  0  0  0  0  0  0  0  0
  -26.8420    3.5421  -30.2769 C   0  0  0  0  0  0  0  0  0  0  0  0
  1  2  1  0  0  0
  1  3  2  0  0  0
  2  4  2  0  0  0
  3  5  1  0  0  0
  4  6  1  0  0  0
  5  6  2  0  0  0
  5  8  1  0  0  0
  6 10  1  0  0  0
  7  8  2  0  0  0
  7  9  1  0  0  0
  8 11  1  0  0  0
  9 14  1  0  0  0
  9 10  2  0  0  0
 13 14  1  0  0  0
 11 12  1  0  0  0
M  END
> <minimizedAffinity>
-5.22960

$$$$
5G46_6VD_A_1510


 14 15  0  0  0  0  0  0  0  0999 V2000
  -27.2278    2.4206  -30.8429 C   0  0  0  0  0  0  0  0  0  0  0  0
  -27.1089    3.5615  -30.0755 C   0  0  0  0  0  0  0  0  0  0  0  0
  -27.1576    2.4782  -32.2162 C   0  0  0  0  0  0  0  0  0  0  0  0
  -26.8925    4.7884  -30.6719 C   0  0  0  0  0  0  0  0  0  0  0  0
  -26.9573    3.7157  -32.7991 C   0  0  0  0  0  0  0  0  0  0  0  0
  -26.8131    4.8689  -32.0459 C   0  0  0  0  0  0  0  0  0  0  0  0
  -26.6636    5.1211  -34.8773 C   0  0  0  0  0  0  0  0  0  0  0  0
  -26.8829    3.7953  -34.2638 C   0  0  0  0  0  0  0  0  0  0  0  0
  -26.5422    6.1685  -34.0471 C   0  0  0  0  0  0  0  0  0  0  0  0
  -26.6136    6.1130  -32.6675 N   0  0  0  0  0  0  0  0  0  0  0  0
  -27.0250    2.7881  -34.9441 O   0  0  0  0  0  0  0  0  0  0  0  0
  -27.1628    1.9588  -34.5303 H   0  0  0  0  0  0  0  0  0  0  0  0
  -25.4526    8.4010  -33.8044 C   0  0  0  0  0  0  0  0  0  0  0  0
  -26.3600    7.5302  -34.6383 C   0  0  0  0  0  0  0  0  0  0  0  0
  1  2  1  0  0  0
  1  3  2  0  0  0
  2  4  2  0  0  0
  3  5  1  0  0  0
  4  6  1  0  0  0
  5  6  2  0  0  0
  5  8  1  0  0  0
  6 10  1  0  0  0
  7  8  2  0  0  0
  7  9  1  0  0  0
  8 11  1  0  0  0
  9 14  1  0  0  0
  9 10  2  0  0  0
 13 14  1  0  0  0
 11 12  1  0  0  0
M  END
> <minimizedAffinity>
-5.16424

$$$$
5G46_6VD_A_1510


 14 15  0  0  0  0  0  0  0  0999 V2000
  -27.0423    9.0052  -33.4011 C   0  0  0  0  0  0  0  0  0  0  0  0
  -26.2745    8.0912  -34.0937 C   0  0  0  0  0  0  0  0  0  0  0  0
  -27.6466    8.6681  -32.2114 C   0  0  0  0  0  0  0  0  0  0  0  0
  -26.0763    6.8193  -33.5928 C   0  0  0  0  0  0  0  0  0  0  0  0
  -27.4524    7.3862  -31.7315 C   0  0  0  0  0  0  0  0  0  0  0  0
  -26.6674    6.4615  -32.3999 C   0  0  0  0  0  0  0  0  0  0  0  0
  -27.8754    5.6388  -29.9572 C   0  0  0  0  0  0  0  0  0  0  0  0
  -28.0928    7.0091  -30.4645 C   0  0  0  0  0  0  0  0  0  0  0  0
  -27.0983    4.8286  -30.6925 C   0  0  0  0  0  0  0  0  0  0  0  0
  -26.4914    5.1649  -31.8883 N   0  0  0  0  0  0  0  0  0  0  0  0
  -28.8029    7.8091  -29.8704 O   0  0  0  0  0  0  0  0  0  0  0  0
  -28.9245    8.6725  -30.2134 H   0  0  0  0  0  0  0  0  0  0  0  0
  -27.2653    2.4084  -31.2803 C   0  0  0  0  0  0  0  0  0  0  0  0
  -26.8917    3.4224  -30.2269 C   0  0  0  0  0  0  0  0  0  0  0  0
  1  2  1  0  0  0
  1  3  2  0  0  0
  2  4  2  0  0  0
  3  5  1  0  0  0
  4  6  1  0  0  0
  5  6  2  0  0  0
  5  8  1  0  0  0
  6 10  1  0  0  0
  7  8  2  0  0  0
  7  9  1  0  0  0
  8 11  1  0  0  0
  9 14  1  0  0  0
  9 10  2  0  0  0
 13 14  1  0  0  0
 11 12  1  0  0  0
M  END
> <minimizedAffinity>
-4.90966

$$$$
5G46_6VD_A_1510


 14 15  0  0  0  0  0  0  0  0999 V2000
  -27.1212    3.7290  -30.0268 C   0  0  0  0  0  0  0  0  0  0  0  0
  -27.2105    2.5105  -30.6686 C   0  0  0  0  0  0  0  0  0  0  0  0
  -26.9473    4.8947  -30.7375 C   0  0  0  0  0  0  0  0  0  0  0  0
  -27.1503    2.4376  -32.0466 C   0  0  0  0  0  0  0  0  0  0  0  0
  -26.8722    4.8036  -32.1149 C   0  0  0  0  0  0  0  0  0  0  0  0
  -26.9821    3.5934  -32.7792 C   0  0  0  0  0  0  0  0  0  0  0  0
  -26.6097    5.9312  -34.3599 C   0  0  0  0  0  0  0  0  0  0  0  0
  -26.6837    6.0379  -32.8884 C   0  0  0  0  0  0  0  0  0  0  0  0
  -26.7251    4.7048  -34.8924 C   0  0  0  0  0  0  0  0  0  0  0  0
  -26.8986    3.5325  -34.1803 N   0  0  0  0  0  0  0  0  0  0  0  0
  -26.5682    7.1131  -32.3155 O   0  0  0  0  0  0  0  0  0  0  0  0
  -26.6190    7.1537  -31.3808 H   0  0  0  0  0  0  0  0  0  0  0  0
  -26.3617    3.1302  -36.7948 C   0  0  0  0  0  0  0  0  0  0  0  0
  -26.6138    4.5581  -36.3767 C   0  0  0  0  0  0  0  0  0  0  0  0
  1  2  1  0  0  0
  1  3  2  0  0  0
  2  4  2  0  0  0
  3  5  1  0  0  0
  4  6  1  0  0  0
  5  6  2  0  0  0
  5  8  1  0  0  0
  6 10  1  0  0  0
  7  8  2  0  0  0
  7  9  1  0  0  0
  8 11  1  0  0  0
  9 14  1  0  0  0
  9 10  2  0  0  0
 13 14  1  0  0  0
 11 12  1  0  0  0
M  END
> <minimizedAffinity>
-4.87593

$$$$
5G46_6VD_A_1510


 14 15  0  0  0  0  0  0  0  0999 V2000
  -30.7443    1.5485  -34.2433 C   0  0  0  0  0  0  0  0  0  0  0  0
  -30.8982    2.8194  -34.7590 C   0  0  0  0  0  0  0  0  0  0  0  0
  -29.8009    1.2840  -33.2767 C   0  0  0  0  0  0  0  0  0  0  0  0
  -30.1203    3.8628  -34.2965 C   0  0  0  0  0  0  0  0  0  0  0  0
  -29.0188    2.3353  -32.8360 C   0  0  0  0  0  0  0  0  0  0  0  0
  -29.1728    3.6221  -33.3244 C   0  0  0  0  0  0  0  0  0  0  0  0
  -27.1775    3.2002  -31.3386 C   0  0  0  0  0  0  0  0  0  0  0  0
  -28.0050    2.0696  -31.8068 C   0  0  0  0  0  0  0  0  0  0  0  0
  -27.4141    4.4019  -31.8871 C   0  0  0  0  0  0  0  0  0  0  0  0
  -28.3603    4.6695  -32.8589 N   0  0  0  0  0  0  0  0  0  0  0  0
  -27.8452    0.9351  -31.3771 O   0  0  0  0  0  0  0  0  0  0  0  0
  -28.3835    0.2352  -31.6906 H   0  0  0  0  0  0  0  0  0  0  0  0
  -27.3437    6.5808  -30.6715 C   0  0  0  0  0  0  0  0  0  0  0  0
  -26.5660    5.5588  -31.4639 C   0  0  0  0  0  0  0  0  0  0  0  0
  1  2  1  0  0  0
  1  3  2  0  0  0
  2  4  2  0  0  0
  3  5  1  0  0  0
  4  6  1  0  0  0
  5  6  2  0  0  0
  5  8  1  0  0  0
  6 10  1  0  0  0
  7  8  2  0  0  0
  7  9  1  0  0  0
  8 11  1  0  0  0
  9 14  1  0  0  0
  9 10  2  0  0  0
 13 14  1  0  0  0
 11 12  1  0  0  0
M  END
> <minimizedAffinity>
-4.85968

$$$$
5G46_6VD_A_1510


 14 15  0  0  0  0  0  0  0  0999 V2000
  -27.0467    6.8986  -31.6167 C   0  0  0  0  0  0  0  0  0  0  0  0
  -27.9382    7.0642  -32.6573 C   0  0  0  0  0  0  0  0  0  0  0  0
  -26.7991    5.6534  -31.0854 C   0  0  0  0  0  0  0  0  0  0  0  0
  -28.5863    5.9747  -33.2056 C   0  0  0  0  0  0  0  0  0  0  0  0
  -27.4680    4.5750  -31.6339 C   0  0  0  0  0  0  0  0  0  0  0  0
  -28.3492    4.7170  -32.6928 C   0  0  0  0  0  0  0  0  0  0  0  0
  -27.9330    2.0925  -31.6724 C   0  0  0  0  0  0  0  0  0  0  0  0
  -27.2174    3.2393  -31.0765 C   0  0  0  0  0  0  0  0  0  0  0  0
  -28.7655    2.3519  -32.6925 C   0  0  0  0  0  0  0  0  0  0  0  0
  -29.0166    3.6020  -33.2269 N   0  0  0  0  0  0  0  0  0  0  0  0
  -26.4545    3.0992  -30.1302 O   0  0  0  0  0  0  0  0  0  0  0  0
  -26.0127    3.8431  -29.7704 H   0  0  0  0  0  0  0  0  0  0  0  0
  -29.9040    1.4721  -34.7322 C   0  0  0  0  0  0  0  0  0  0  0  0
  -29.5356    1.2180  -33.2910 C   0  0  0  0  0  0  0  0  0  0  0  0
  1  2  1  0  0  0
  1  3  2  0  0  0
  2  4  2  0  0  0
  3  5  1  0  0  0
  4  6  1  0  0  0
  5  6  2  0  0  0
  5  8  1  0  0  0
  6 10  1  0  0  0
  7  8  2  0  0  0
  7  9  1  0  0  0
  8 11  1  0  0  0
  9 14  1  0  0  0
  9 10  2  0  0  0
 13 14  1  0  0  0
 11 12  1  0  0  0
M  END
> <minimizedAffinity>
-4.72132

$$$$
5G46_6VD_A_1510


 14 15  0  0  0  0  0  0  0  0999 V2000
  -25.9724    6.6349  -36.7179 C   0  0  0  0  0  0  0  0  0  0  0  0
  -25.9857    7.7180  -35.8626 C   0  0  0  0  0  0  0  0  0  0  0  0
  -26.1824    5.3579  -36.2495 C   0  0  0  0  0  0  0  0  0  0  0  0
  -26.2345    7.5445  -34.5152 C   0  0  0  0  0  0  0  0  0  0  0  0
  -26.4136    5.1987  -34.8958 C   0  0  0  0  0  0  0  0  0  0  0  0
  -26.4532    6.2747  -34.0248 C   0  0  0  0  0  0  0  0  0  0  0  0
  -26.8879    3.6825  -32.9321 C   0  0  0  0  0  0  0  0  0  0  0  0
  -26.6367    3.8421  -34.3790 C   0  0  0  0  0  0  0  0  0  0  0  0
  -26.8993    4.7972  -32.1850 C   0  0  0  0  0  0  0  0  0  0  0  0
  -26.6874    6.0807  -32.6532 N   0  0  0  0  0  0  0  0  0  0  0  0
  -26.5884    2.8793  -35.1328 O   0  0  0  0  0  0  0  0  0  0  0  0
  -26.4275    3.0076  -36.0469 H   0  0  0  0  0  0  0  0  0  0  0  0
  -26.8930    3.2539  -30.2232 C   0  0  0  0  0  0  0  0  0  0  0  0
  -27.1106    4.6656  -30.7102 C   0  0  0  0  0  0  0  0  0  0  0  0
  1  2  1  0  0  0
  1  3  2  0  0  0
  2  4  2  0  0  0
  3  5  1  0  0  0
  4  6  1  0  0  0
  5  6  2  0  0  0
  5  8  1  0  0  0
  6 10  1  0  0  0
  7  8  2  0  0  0
  7  9  1  0  0  0
  8 11  1  0  0  0
  9 14  1  0  0  0
  9 10  2  0  0  0
 13 14  1  0  0  0
 11 12  1  0  0  0
M  END
> <minimizedAffinity>
-4.50773

$$$$
5G46_6VD_A_1510


 14 15  0  0  0  0  0  0  0  0999 V2000
  -26.3144    4.3926  -36.0330 C   0  0  0  0  0  0  0  0  0  0  0  0
  -26.3536    5.7721  -36.0161 C   0  0  0  0  0  0  0  0  0  0  0  0
  -26.5303    3.6622  -34.8867 C   0  0  0  0  0  0  0  0  0  0  0  0
  -26.6350    6.4514  -34.8469 C   0  0  0  0  0  0  0  0  0  0  0  0
  -26.7942    4.3570  -33.7210 C   0  0  0  0  0  0  0  0  0  0  0  0
  -26.8602    5.7399  -33.6877 C   0  0  0  0  0  0  0  0  0  0  0  0
  -27.3103    4.3437  -31.2484 C   0  0  0  0  0  0  0  0  0  0  0  0
  -27.0240    3.5927  -32.4879 C   0  0  0  0  0  0  0  0  0  0  0  0
  -27.3451    5.6823  -31.3364 C   0  0  0  0  0  0  0  0  0  0  0  0
  -27.1273    6.4179  -32.4865 N   0  0  0  0  0  0  0  0  0  0  0  0
  -26.9528    2.3712  -32.4972 O   0  0  0  0  0  0  0  0  0  0  0  0
  -26.7699    1.9186  -33.2970 H   0  0  0  0  0  0  0  0  0  0  0  0
  -28.8511    7.3007  -30.1775 C   0  0  0  0  0  0  0  0  0  0  0  0
  -27.5923    6.4730  -30.0912 C   0  0  0  0  0  0  0  0  0  0  0  0
  1  2  1  0  0  0
  1  3  2  0  0  0
  2  4  2  0  0  0
  3  5  1  0  0  0
  4  6  1  0  0  0
  5  6  2  0  0  0
  5  8  1  0  0  0
  6 10  1  0  0  0
  7  8  2  0  0  0
  7  9  1  0  0  0
  8 11  1  0  0  0
  9 14  1  0  0  0
  9 10  2  0  0  0
 13 14  1  0  0  0
 11 12  1  0  0  0
M  END
> <minimizedAffinity>
-4.44181

$$$$
5G46_6VD_A_1510


 14 15  0  0  0  0  0  0  0  0999 V2000
  -29.3807    7.8099  -29.6254 C   0  0  0  0  0  0  0  0  0  0  0  0
  -29.5402    9.0565  -30.1957 C   0  0  0  0  0  0  0  0  0  0  0  0
  -28.4888    6.9000  -30.1457 C   0  0  0  0  0  0  0  0  0  0  0  0
  -28.7870    9.4275  -31.2924 C   0  0  0  0  0  0  0  0  0  0  0  0
  -27.7543    7.2800  -31.2536 C   0  0  0  0  0  0  0  0  0  0  0  0
  -27.8832    8.5341  -31.8269 C   0  0  0  0  0  0  0  0  0  0  0  0
  -26.0161    6.7366  -33.0039 C   0  0  0  0  0  0  0  0  0  0  0  0
  -26.8000    6.3197  -31.8232 C   0  0  0  0  0  0  0  0  0  0  0  0
  -26.2286    7.9750  -33.4751 C   0  0  0  0  0  0  0  0  0  0  0  0
  -27.1248    8.8900  -32.9547 N   0  0  0  0  0  0  0  0  0  0  0  0
  -26.6864    5.2019  -31.3385 O   0  0  0  0  0  0  0  0  0  0  0  0
  -27.1954    4.9622  -30.5892 H   0  0  0  0  0  0  0  0  0  0  0  0
  -24.5282    9.5477  -34.4056 C   0  0  0  0  0  0  0  0  0  0  0  0
  -25.4802    8.4128  -34.6938 C   0  0  0  0  0  0  0  0  0  0  0  0
  1  2  1  0  0  0
  1  3  2  0  0  0
  2  4  2  0  0  0
  3  5  1  0  0  0
  4  6  1  0  0  0
  5  6  2  0  0  0
  5  8  1  0  0  0
  6 10  1  0  0  0
  7  8  2  0  0  0
  7  9  1  0  0  0
  8 11  1  0  0  0
  9 14  1  0  0  0
  9 10  2  0  0  0
 13 14  1  0  0  0
 11 12  1  0  0  0
M  END
> <minimizedAffinity>
-4.41574

$$$$
5G46_6VD_A_1510


 14 15  0  0  0  0  0  0  0  0999 V2000
  -27.4586    5.6855  -30.2419 C   0  0  0  0  0  0  0  0  0  0  0  0
  -27.4466    6.9422  -30.8121 C   0  0  0  0  0  0  0  0  0  0  0  0
  -27.2739    4.5567  -31.0074 C   0  0  0  0  0  0  0  0  0  0  0  0
  -27.2245    7.0956  -32.1667 C   0  0  0  0  0  0  0  0  0  0  0  0
  -27.0694    4.7257  -32.3642 C   0  0  0  0  0  0  0  0  0  0  0  0
  -27.0315    5.9791  -32.9520 C   0  0  0  0  0  0  0  0  0  0  0  0
  -26.6509    3.7219  -34.6440 C   0  0  0  0  0  0  0  0  0  0  0  0
  -26.8736    3.5311  -33.1962 C   0  0  0  0  0  0  0  0  0  0  0  0
  -26.6384    4.9834  -35.1017 C   0  0  0  0  0  0  0  0  0  0  0  0
  -26.8248    6.1184  -34.3347 N   0  0  0  0  0  0  0  0  0  0  0  0
  -26.9209    2.4159  -32.6948 O   0  0  0  0  0  0  0  0  0  0  0  0
  -27.0634    2.3221  -31.7735 H   0  0  0  0  0  0  0  0  0  0  0  0
  -25.6488    6.4490  -36.8632 C   0  0  0  0  0  0  0  0  0  0  0  0
  -26.4556    5.2082  -36.5690 C   0  0  0  0  0  0  0  0  0  0  0  0
  1  2  1  0  0  0
  1  3  2  0  0  0
  2  4  2  0  0  0
  3  5  1  0  0  0
  4  6  1  0  0  0
  5  6  2  0  0  0
  5  8  1  0  0  0
  6 10  1  0  0  0
  7  8  2  0  0  0
  7  9  1  0  0  0
  8 11  1  0  0  0
  9 14  1  0  0  0
  9 10  2  0  0  0
 13 14  1  0  0  0
 11 12  1  0  0  0
M  END
> <minimizedAffinity>
-4.40108

$$$$
