2FW6_CIT_B_1002


 17 16  0  0  0  0  0  0  0  0999 V2000
   36.0560   65.1412 -151.0339 C   0  0  0  0  0  0  0  0  0  0  0  0
   36.4630   63.9625 -150.3304 O   0  0  0  0  0  0  0  0  0  0  0  0
   35.8102   63.2593 -150.4728 H   0  0  0  0  0  0  0  0  0  0  0  0
   37.0945   66.2374 -150.7989 C   0  0  0  0  0  0  0  0  0  0  0  0
   38.1183   65.9292 -150.1580 O   0  0  0  0  0  0  0  0  0  0  0  0
   36.8831   67.3824 -151.2666 O   0  0  0  0  0  0  0  0  0  0  0  0
   36.0939   67.5564 -151.7409 H   0  0  0  0  0  0  0  0  0  0  0  0
   35.9476   64.8101 -152.5261 C   0  0  0  0  0  0  0  0  0  0  0  0
   36.8948   63.7034 -152.9539 C   0  0  0  0  0  0  0  0  0  0  0  0
   38.0969   63.9841 -153.1570 O   0  0  0  0  0  0  0  0  0  0  0  0
   36.4396   62.5462 -153.0666 O   0  0  0  0  0  0  0  0  0  0  0  0
   35.5314   62.3822 -152.9045 H   0  0  0  0  0  0  0  0  0  0  0  0
   34.6884   65.6142 -150.5255 C   0  0  0  0  0  0  0  0  0  0  0  0
   34.7184   66.0334 -149.0655 C   0  0  0  0  0  0  0  0  0  0  0  0
   34.8490   67.2472 -148.8017 O   0  0  0  0  0  0  0  0  0  0  0  0
   34.6212   65.1543 -148.1825 O   0  0  0  0  0  0  0  0  0  0  0  0
   34.5245   64.2546 -148.4257 H   0  0  0  0  0  0  0  0  0  0  0  0
  9 10  2  0  0  0
  9 11  1  0  0  0
  9  8  1  0  0  0
  8  1  1  0  0  0
  1  2  1  0  0  0
  1 13  1  0  0  0
  1  4  1  0  0  0
 13 14  1  0  0  0
 14 15  2  0  0  0
 14 16  1  0  0  0
  4  5  2  0  0  0
  4  6  1  0  0  0
 11 12  1  0  0  0
  2  3  1  0  0  0
 16 17  1  0  0  0
  6  7  1  0  0  0
M  END
> <minimizedAffinity>
-7.50543

$$$$
2FW6_CIT_B_1002


 17 16  0  0  0  0  0  0  0  0999 V2000
   36.1041   64.9170 -150.9348 C   0  0  0  0  0  0  0  0  0  0  0  0
   36.3443   63.8282 -150.0366 O   0  0  0  0  0  0  0  0  0  0  0  0
   36.4075   64.1654 -149.1293 H   0  0  0  0  0  0  0  0  0  0  0  0
   36.0074   64.3684 -152.3578 C   0  0  0  0  0  0  0  0  0  0  0  0
   35.9425   63.1308 -152.4919 O   0  0  0  0  0  0  0  0  0  0  0  0
   35.9832   65.1760 -153.3180 O   0  0  0  0  0  0  0  0  0  0  0  0
   36.0355   66.0975 -153.1566 H   0  0  0  0  0  0  0  0  0  0  0  0
   34.7969   65.6074 -150.5316 C   0  0  0  0  0  0  0  0  0  0  0  0
   34.7868   66.0461 -149.0782 C   0  0  0  0  0  0  0  0  0  0  0  0
   34.6829   65.1747 -148.1865 O   0  0  0  0  0  0  0  0  0  0  0  0
   34.9043   67.2635 -148.8271 O   0  0  0  0  0  0  0  0  0  0  0  0
   34.9792   67.8812 -149.5276 H   0  0  0  0  0  0  0  0  0  0  0  0
   37.2516   65.9315 -150.8541 C   0  0  0  0  0  0  0  0  0  0  0  0
   38.5533   65.3081 -150.3795 C   0  0  0  0  0  0  0  0  0  0  0  0
   39.4236   65.0351 -151.2328 O   0  0  0  0  0  0  0  0  0  0  0  0
   38.7053   65.0822 -149.1597 O   0  0  0  0  0  0  0  0  0  0  0  0
   38.0255   65.3033 -148.5540 H   0  0  0  0  0  0  0  0  0  0  0  0
  9 10  2  0  0  0
  9 11  1  0  0  0
  9  8  1  0  0  0
  8  1  1  0  0  0
  1  2  1  0  0  0
  1 13  1  0  0  0
  1  4  1  0  0  0
 13 14  1  0  0  0
 14 15  2  0  0  0
 14 16  1  0  0  0
  4  5  2  0  0  0
  4  6  1  0  0  0
 11 12  1  0  0  0
  2  3  1  0  0  0
 16 17  1  0  0  0
  6  7  1  0  0  0
M  END
> <minimizedAffinity>
-7.42564

$$$$
2FW6_CIT_B_1002


 17 16  0  0  0  0  0  0  0  0999 V2000
   36.0042   65.2868 -150.1046 C   0  0  0  0  0  0  0  0  0  0  0  0
   36.4398   64.0041 -149.6410 O   0  0  0  0  0  0  0  0  0  0  0  0
   36.9720   63.5752 -150.3293 H   0  0  0  0  0  0  0  0  0  0  0  0
   35.1682   65.9477 -149.0093 C   0  0  0  0  0  0  0  0  0  0  0  0
   34.7101   65.2106 -148.1144 O   0  0  0  0  0  0  0  0  0  0  0  0
   34.9921   67.1895 -149.0478 O   0  0  0  0  0  0  0  0  0  0  0  0
   35.3612   67.6936 -149.7461 H   0  0  0  0  0  0  0  0  0  0  0  0
   37.2371   66.1363 -150.4305 C   0  0  0  0  0  0  0  0  0  0  0  0
   38.5381   65.3693 -150.2760 C   0  0  0  0  0  0  0  0  0  0  0  0
   39.1682   65.0381 -151.3048 O   0  0  0  0  0  0  0  0  0  0  0  0
   38.9416   65.1158 -149.1219 O   0  0  0  0  0  0  0  0  0  0  0  0
   38.4363   65.3833 -148.3796 H   0  0  0  0  0  0  0  0  0  0  0  0
   35.1550   65.1300 -151.3723 C   0  0  0  0  0  0  0  0  0  0  0  0
   35.8795   64.3750 -152.4738 C   0  0  0  0  0  0  0  0  0  0  0  0
   36.1194   64.9752 -153.5425 O   0  0  0  0  0  0  0  0  0  0  0  0
   36.2011   63.1832 -152.2785 O   0  0  0  0  0  0  0  0  0  0  0  0
   36.0012   62.7720 -151.4607 H   0  0  0  0  0  0  0  0  0  0  0  0
  9 10  2  0  0  0
  9 11  1  0  0  0
  9  8  1  0  0  0
  8  1  1  0  0  0
  1  2  1  0  0  0
  1 13  1  0  0  0
  1  4  1  0  0  0
 13 14  1  0  0  0
 14 15  2  0  0  0
 14 16  1  0  0  0
  4  5  2  0  0  0
  4  6  1  0  0  0
 11 12  1  0  0  0
  2  3  1  0  0  0
 16 17  1  0  0  0
  6  7  1  0  0  0
M  END
> <minimizedAffinity>
-7.30582

$$$$
2FW6_CIT_B_1002


 17 16  0  0  0  0  0  0  0  0999 V2000
   36.2959   65.6309 -151.2173 C   0  0  0  0  0  0  0  0  0  0  0  0
   35.2973   66.3237 -151.9740 O   0  0  0  0  0  0  0  0  0  0  0  0
   34.7303   65.6800 -152.4270 H   0  0  0  0  0  0  0  0  0  0  0  0
   37.1790   66.6588 -150.5111 C   0  0  0  0  0  0  0  0  0  0  0  0
   38.1612   66.2299 -149.8745 O   0  0  0  0  0  0  0  0  0  0  0  0
   36.8910   67.8760 -150.6120 O   0  0  0  0  0  0  0  0  0  0  0  0
   36.1390   68.1403 -151.1045 H   0  0  0  0  0  0  0  0  0  0  0  0
   35.5988   64.7251 -150.1968 C   0  0  0  0  0  0  0  0  0  0  0  0
   34.8163   65.5048 -149.1553 C   0  0  0  0  0  0  0  0  0  0  0  0
   33.8328   66.1842 -149.5244 O   0  0  0  0  0  0  0  0  0  0  0  0
   35.1736   65.4206 -147.9619 O   0  0  0  0  0  0  0  0  0  0  0  0
   35.9173   64.8994 -147.7311 H   0  0  0  0  0  0  0  0  0  0  0  0
   37.1582   64.7673 -152.1464 C   0  0  0  0  0  0  0  0  0  0  0  0
   36.3289   63.8930 -153.0717 C   0  0  0  0  0  0  0  0  0  0  0  0
   35.6241   64.4518 -153.9383 O   0  0  0  0  0  0  0  0  0  0  0  0
   36.3723   62.6521 -152.9300 O   0  0  0  0  0  0  0  0  0  0  0  0
   36.9155   62.2751 -152.2660 H   0  0  0  0  0  0  0  0  0  0  0  0
  9 10  2  0  0  0
  9 11  1  0  0  0
  9  8  1  0  0  0
  8  1  1  0  0  0
  1  2  1  0  0  0
  1 13  1  0  0  0
  1  4  1  0  0  0
 13 14  1  0  0  0
 14 15  2  0  0  0
 14 16  1  0  0  0
  4  5  2  0  0  0
  4  6  1  0  0  0
 11 12  1  0  0  0
  2  3  1  0  0  0
 16 17  1  0  0  0
  6  7  1  0  0  0
M  END
> <minimizedAffinity>
-6.94311

$$$$
2FW6_CIT_B_1002


 17 16  0  0  0  0  0  0  0  0999 V2000
   35.8530   65.4387 -151.2675 C   0  0  0  0  0  0  0  0  0  0  0  0
   35.4961   66.7255 -151.7839 O   0  0  0  0  0  0  0  0  0  0  0  0
   35.5607   67.3867 -151.0771 H   0  0  0  0  0  0  0  0  0  0  0  0
   35.7459   64.4103 -152.3929 C   0  0  0  0  0  0  0  0  0  0  0  0
   35.6732   63.2093 -152.0669 O   0  0  0  0  0  0  0  0  0  0  0  0
   35.7216   64.8130 -153.5811 O   0  0  0  0  0  0  0  0  0  0  0  0
   35.7800   65.7296 -153.7665 H   0  0  0  0  0  0  0  0  0  0  0  0
   37.2866   65.5051 -150.7305 C   0  0  0  0  0  0  0  0  0  0  0  0
   38.3284   65.5288 -151.8347 C   0  0  0  0  0  0  0  0  0  0  0  0
   38.2148   66.3715 -152.7523 O   0  0  0  0  0  0  0  0  0  0  0  0
   39.2743   64.7162 -151.7727 O   0  0  0  0  0  0  0  0  0  0  0  0
   39.3189   64.1021 -151.0664 H   0  0  0  0  0  0  0  0  0  0  0  0
   34.9080   65.0472 -150.1247 C   0  0  0  0  0  0  0  0  0  0  0  0
   35.0074   65.9855 -148.9339 C   0  0  0  0  0  0  0  0  0  0  0  0
   34.9121   67.2137 -149.1397 O   0  0  0  0  0  0  0  0  0  0  0  0
   35.1894   65.5008 -147.7964 O   0  0  0  0  0  0  0  0  0  0  0  0
   35.2550   64.5724 -147.6878 H   0  0  0  0  0  0  0  0  0  0  0  0
  9 10  2  0  0  0
  9 11  1  0  0  0
  9  8  1  0  0  0
  8  1  1  0  0  0
  1  2  1  0  0  0
  1 13  1  0  0  0
  1  4  1  0  0  0
 13 14  1  0  0  0
 14 15  2  0  0  0
 14 16  1  0  0  0
  4  5  2  0  0  0
  4  6  1  0  0  0
 11 12  1  0  0  0
  2  3  1  0  0  0
 16 17  1  0  0  0
  6  7  1  0  0  0
M  END
> <minimizedAffinity>
-6.91184

$$$$
2FW6_CIT_B_1002


 17 16  0  0  0  0  0  0  0  0999 V2000
   35.8995   65.8019 -150.8524 C   0  0  0  0  0  0  0  0  0  0  0  0
   35.0290   66.4471 -151.7883 O   0  0  0  0  0  0  0  0  0  0  0  0
   35.3477   66.2862 -152.6902 H   0  0  0  0  0  0  0  0  0  0  0  0
   35.3834   66.0654 -149.4384 C   0  0  0  0  0  0  0  0  0  0  0  0
   35.0480   67.2330 -149.1589 O   0  0  0  0  0  0  0  0  0  0  0  0
   35.3063   65.1061 -148.6331 O   0  0  0  0  0  0  0  0  0  0  0  0
   35.5734   64.2483 -148.8993 H   0  0  0  0  0  0  0  0  0  0  0  0
   35.9148   64.2990 -151.1510 C   0  0  0  0  0  0  0  0  0  0  0  0
   36.3579   63.9849 -152.5687 C   0  0  0  0  0  0  0  0  0  0  0  0
   35.7294   64.4939 -153.5232 O   0  0  0  0  0  0  0  0  0  0  0  0
   37.3503   63.2441 -152.7277 O   0  0  0  0  0  0  0  0  0  0  0  0
   37.7907   62.8846 -151.9828 H   0  0  0  0  0  0  0  0  0  0  0  0
   37.3241   66.3539 -150.9886 C   0  0  0  0  0  0  0  0  0  0  0  0
   38.3658   65.4533 -150.3466 C   0  0  0  0  0  0  0  0  0  0  0  0
   39.2874   65.0108 -151.0641 O   0  0  0  0  0  0  0  0  0  0  0  0
   38.2615   65.1797 -149.1316 O   0  0  0  0  0  0  0  0  0  0  0  0
   37.5533   65.5341 -148.6307 H   0  0  0  0  0  0  0  0  0  0  0  0
  9 10  2  0  0  0
  9 11  1  0  0  0
  9  8  1  0  0  0
  8  1  1  0  0  0
  1  2  1  0  0  0
  1 13  1  0  0  0
  1  4  1  0  0  0
 13 14  1  0  0  0
 14 15  2  0  0  0
 14 16  1  0  0  0
  4  5  2  0  0  0
  4  6  1  0  0  0
 11 12  1  0  0  0
  2  3  1  0  0  0
 16 17  1  0  0  0
  6  7  1  0  0  0
M  END
> <minimizedAffinity>
-6.67144

$$$$
2FW6_CIT_B_1002


 17 16  0  0  0  0  0  0  0  0999 V2000
   37.6731   65.3012 -151.0690 C   0  0  0  0  0  0  0  0  0  0  0  0
   36.6942   64.3680 -150.5989 O   0  0  0  0  0  0  0  0  0  0  0  0
   35.8646   64.4975 -151.0846 H   0  0  0  0  0  0  0  0  0  0  0  0
   38.9721   65.0834 -150.2941 C   0  0  0  0  0  0  0  0  0  0  0  0
   40.0166   64.9314 -150.9573 O   0  0  0  0  0  0  0  0  0  0  0  0
   38.9360   65.0810 -149.0397 O   0  0  0  0  0  0  0  0  0  0  0  0
   38.1204   65.2002 -148.5942 H   0  0  0  0  0  0  0  0  0  0  0  0
   37.8925   65.0700 -152.5678 C   0  0  0  0  0  0  0  0  0  0  0  0
   36.8579   64.1413 -153.1779 C   0  0  0  0  0  0  0  0  0  0  0  0
   37.0400   62.9057 -153.1052 O   0  0  0  0  0  0  0  0  0  0  0  0
   35.8501   64.6486 -153.7126 O   0  0  0  0  0  0  0  0  0  0  0  0
   35.7555   65.5803 -153.7444 H   0  0  0  0  0  0  0  0  0  0  0  0
   37.1814   66.7376 -150.8507 C   0  0  0  0  0  0  0  0  0  0  0  0
   35.6939   66.8089 -150.5496 C   0  0  0  0  0  0  0  0  0  0  0  0
   35.3387   67.1662 -149.4068 O   0  0  0  0  0  0  0  0  0  0  0  0
   34.8805   66.5008 -151.4471 O   0  0  0  0  0  0  0  0  0  0  0  0
   35.1914   66.2381 -152.2911 H   0  0  0  0  0  0  0  0  0  0  0  0
  9 10  2  0  0  0
  9 11  1  0  0  0
  9  8  1  0  0  0
  8  1  1  0  0  0
  1  2  1  0  0  0
  1 13  1  0  0  0
  1  4  1  0  0  0
 13 14  1  0  0  0
 14 15  2  0  0  0
 14 16  1  0  0  0
  4  5  2  0  0  0
  4  6  1  0  0  0
 11 12  1  0  0  0
  2  3  1  0  0  0
 16 17  1  0  0  0
  6  7  1  0  0  0
M  END
> <minimizedAffinity>
-6.66418

$$$$
2FW6_CIT_B_1002


 17 16  0  0  0  0  0  0  0  0999 V2000
   37.5691   64.7421 -152.6230 C   0  0  0  0  0  0  0  0  0  0  0  0
   37.2003   65.6804 -153.6396 O   0  0  0  0  0  0  0  0  0  0  0  0
   37.7303   66.4871 -153.5426 H   0  0  0  0  0  0  0  0  0  0  0  0
   36.7255   63.4789 -152.7904 C   0  0  0  0  0  0  0  0  0  0  0  0
   35.5914   63.4741 -152.2729 O   0  0  0  0  0  0  0  0  0  0  0  0
   37.1972   62.5178 -153.4450 O   0  0  0  0  0  0  0  0  0  0  0  0
   38.0574   62.5781 -153.8117 H   0  0  0  0  0  0  0  0  0  0  0  0
   39.0599   64.4198 -152.7691 C   0  0  0  0  0  0  0  0  0  0  0  0
   39.6137   64.7998 -154.1306 C   0  0  0  0  0  0  0  0  0  0  0  0
   39.3812   64.0515 -155.1059 O   0  0  0  0  0  0  0  0  0  0  0  0
   40.2652   65.8604 -154.2291 O   0  0  0  0  0  0  0  0  0  0  0  0
   40.4151   66.3902 -153.4709 H   0  0  0  0  0  0  0  0  0  0  0  0
   37.3206   65.3432 -151.2339 C   0  0  0  0  0  0  0  0  0  0  0  0
   36.4350   66.5769 -151.2786 C   0  0  0  0  0  0  0  0  0  0  0  0
   36.9712   67.6950 -151.1301 O   0  0  0  0  0  0  0  0  0  0  0  0
   35.2058   66.4321 -151.4522 O   0  0  0  0  0  0  0  0  0  0  0  0
   34.8457   65.5737 -151.5594 H   0  0  0  0  0  0  0  0  0  0  0  0
  9 10  2  0  0  0
  9 11  1  0  0  0
  9  8  1  0  0  0
  8  1  1  0  0  0
  1  2  1  0  0  0
  1 13  1  0  0  0
  1  4  1  0  0  0
 13 14  1  0  0  0
 14 15  2  0  0  0
 14 16  1  0  0  0
  4  5  2  0  0  0
  4  6  1  0  0  0
 11 12  1  0  0  0
  2  3  1  0  0  0
 16 17  1  0  0  0
  6  7  1  0  0  0
M  END
> <minimizedAffinity>
-5.91595

$$$$
2FW6_CIT_B_1002


 17 16  0  0  0  0  0  0  0  0999 V2000
   37.4304   65.3670 -150.3622 C   0  0  0  0  0  0  0  0  0  0  0  0
   37.0393   66.7400 -150.2536 O   0  0  0  0  0  0  0  0  0  0  0  0
   36.1271   66.8422 -150.5675 H   0  0  0  0  0  0  0  0  0  0  0  0
   38.8681   65.2244 -149.8642 C   0  0  0  0  0  0  0  0  0  0  0  0
   39.7522   65.0141 -150.7175 O   0  0  0  0  0  0  0  0  0  0  0  0
   39.0976   65.3377 -148.6357 O   0  0  0  0  0  0  0  0  0  0  0  0
   38.3920   65.4957 -148.0398 H   0  0  0  0  0  0  0  0  0  0  0  0
   36.4780   64.5163 -149.5153 C   0  0  0  0  0  0  0  0  0  0  0  0
   35.3687   65.3331 -148.8771 C   0  0  0  0  0  0  0  0  0  0  0  0
   35.4736   65.6543 -147.6726 O   0  0  0  0  0  0  0  0  0  0  0  0
   34.4000   65.6721 -149.5881 O   0  0  0  0  0  0  0  0  0  0  0  0
   34.3632   65.4083 -150.4864 H   0  0  0  0  0  0  0  0  0  0  0  0
   37.3469   64.9078 -151.8233 C   0  0  0  0  0  0  0  0  0  0  0  0
   35.9249   64.9102 -152.3584 C   0  0  0  0  0  0  0  0  0  0  0  0
   35.2744   65.9750 -152.3028 O   0  0  0  0  0  0  0  0  0  0  0  0
   35.4534   63.8511 -152.8252 O   0  0  0  0  0  0  0  0  0  0  0  0
   35.9775   63.0747 -152.8475 H   0  0  0  0  0  0  0  0  0  0  0  0
  9 10  2  0  0  0
  9 11  1  0  0  0
  9  8  1  0  0  0
  8  1  1  0  0  0
  1  2  1  0  0  0
  1 13  1  0  0  0
  1  4  1  0  0  0
 13 14  1  0  0  0
 14 15  2  0  0  0
 14 16  1  0  0  0
  4  5  2  0  0  0
  4  6  1  0  0  0
 11 12  1  0  0  0
  2  3  1  0  0  0
 16 17  1  0  0  0
  6  7  1  0  0  0
M  END
> <minimizedAffinity>
-5.70149

$$$$
2FW6_CIT_B_1002


 17 16  0  0  0  0  0  0  0  0999 V2000
   38.0485   65.4811 -152.5684 C   0  0  0  0  0  0  0  0  0  0  0  0
   38.3405   66.7902 -153.0693 O   0  0  0  0  0  0  0  0  0  0  0  0
   37.5318   67.3258 -153.0653 H   0  0  0  0  0  0  0  0  0  0  0  0
   39.3320   64.6519 -152.5816 C   0  0  0  0  0  0  0  0  0  0  0  0
   39.7888   64.3201 -153.6930 O   0  0  0  0  0  0  0  0  0  0  0  0
   39.8731   64.3556 -151.4888 O   0  0  0  0  0  0  0  0  0  0  0  0
   39.4837   64.6328 -150.6829 H   0  0  0  0  0  0  0  0  0  0  0  0
   37.5034   65.6110 -151.1422 C   0  0  0  0  0  0  0  0  0  0  0  0
   36.4695   66.7143 -151.0052 C   0  0  0  0  0  0  0  0  0  0  0  0
   35.2658   66.3994 -150.8754 O   0  0  0  0  0  0  0  0  0  0  0  0
   36.8649   67.8986 -151.0063 O   0  0  0  0  0  0  0  0  0  0  0  0
   37.7771   68.0879 -151.1066 H   0  0  0  0  0  0  0  0  0  0  0  0
   36.9914   64.8024 -153.4484 C   0  0  0  0  0  0  0  0  0  0  0  0
   36.6059   63.4224 -152.9432 C   0  0  0  0  0  0  0  0  0  0  0  0
   35.5819   63.3166 -152.2360 O   0  0  0  0  0  0  0  0  0  0  0  0
   37.3269   62.4464 -153.2426 O   0  0  0  0  0  0  0  0  0  0  0  0
   38.0868   62.5715 -153.7763 H   0  0  0  0  0  0  0  0  0  0  0  0
  9 10  2  0  0  0
  9 11  1  0  0  0
  9  8  1  0  0  0
  8  1  1  0  0  0
  1  2  1  0  0  0
  1 13  1  0  0  0
  1  4  1  0  0  0
 13 14  1  0  0  0
 14 15  2  0  0  0
 14 16  1  0  0  0
  4  5  2  0  0  0
  4  6  1  0  0  0
 11 12  1  0  0  0
  2  3  1  0  0  0
 16 17  1  0  0  0
  6  7  1  0  0  0
M  END
> <minimizedAffinity>
-5.62091

$$$$
