6FA4_D1W_B_203


 30 33  0  0  0  0  0  0  0  0999 V2000
   33.0570   97.4367   28.8957 C   0  0  0  0  0  0  0  0  0  0  0  0
   31.8658   97.7394   28.4216 N   0  0  0  0  0  0  0  0  0  0  0  0
   31.7048   97.8526   27.0960 C   0  0  0  0  0  0  0  0  0  0  0  0
   32.7613   97.6293   26.2128 C   0  0  0  0  0  0  0  0  0  0  0  0
   34.0126   97.3197   26.7103 C   0  0  0  0  0  0  0  0  0  0  0  0
   34.2185   97.1918   28.0885 C   0  0  0  0  0  0  0  0  0  0  0  0
   30.3402   98.2414   26.6304 C   0  0  0  0  0  0  0  0  0  0  0  0
   30.0698   99.5825   26.2983 C   0  0  0  0  0  0  0  0  0  0  0  0
   28.8032   99.9689   25.8810 C   0  0  0  0  0  0  0  0  0  0  0  0
   27.7801   99.0264   25.7758 C   0  0  0  0  0  0  0  0  0  0  0  0
   29.2901   97.2974   26.5089 C   0  0  0  0  0  0  0  0  0  0  0  0
   28.0133   97.6991   26.1070 C   0  0  0  0  0  0  0  0  0  0  0  0
   26.9592   96.8087   26.0004 O   0  0  0  0  0  0  0  0  0  0  0  0
   27.1649   95.4326   26.4111 C   0  0  0  0  0  0  0  0  0  0  0  0
   28.6346   94.9646   26.4136 C   0  0  0  0  0  0  0  0  0  0  0  0
   29.5845   95.9897   26.7874 O   0  0  0  0  0  0  0  0  0  0  0  0
   33.2380   97.3456   30.2222 O   0  0  0  0  0  0  0  0  0  0  0  0
   32.7243   96.1760   30.8685 C   0  0  0  0  0  0  0  0  0  0  0  0
   35.4369   96.8424   28.7103 N   0  0  0  0  0  0  0  0  0  0  0  0
   35.7069   97.4474   29.4385 H   0  0  0  0  0  0  0  0  0  0  0  0
   36.3343   95.7845   28.4755 C   0  0  0  0  0  0  0  0  0  0  0  0
   37.5208   95.8882   27.7445 C   0  0  0  0  0  0  0  0  0  0  0  0
   38.2592   94.7568   27.4516 C   0  0  0  0  0  0  0  0  0  0  0  0
   37.8424   93.5071   27.8594 C   0  0  0  0  0  0  0  0  0  0  0  0
   36.6635   93.4075   28.5879 C   0  0  0  0  0  0  0  0  0  0  0  0
   35.9178   94.5261   28.9029 C   0  0  0  0  0  0  0  0  0  0  0  0
   38.6481   92.2662   27.5370 C   0  0  0  0  0  0  0  0  0  0  0  0
   38.8150   92.0921   26.0698 N   0  0  0  0  0  0  0  0  0  0  0  0
   40.0324   91.2933   25.7469 C   0  0  0  0  0  0  0  0  0  0  0  0
   37.6319   91.4467   25.4772 C   0  0  0  0  0  0  0  0  0  0  0  0
 10  9  2  0  0  0
 10 12  1  0  0  0
 13 12  1  0  0  0
 13 14  1  0  0  0
  9  8  1  0  0  0
 12 11  2  0  0  0
 14 15  1  0  0  0
  8  7  2  0  0  0
 11  7  1  0  0  0
 11 16  1  0  0  0
  7  3  1  0  0  0
 16 15  1  0  0  0
  4  3  2  0  0  0
  4  5  1  0  0  0
  3  2  1  0  0  0
  5  6  2  0  0  0
  2  1  2  0  0  0
  6  1  1  0  0  0
  6 19  1  0  0  0
 23 22  2  0  0  0
 23 24  1  0  0  0
  1 17  1  0  0  0
 27 24  1  0  0  0
 27 28  1  0  0  0
 22 21  1  0  0  0
 24 25  2  0  0  0
 21 19  1  0  0  0
 21 26  2  0  0  0
 28 30  1  0  0  0
 28 29  1  0  0  0
 25 26  1  0  0  0
 17 18  1  0  0  0
 19 20  1  0  0  0
M  END
> <minimizedAffinity>
-7.94143

$$$$
6FA4_D1W_B_203


 30 33  0  0  0  0  0  0  0  0999 V2000
   33.0174   97.4680   28.8802 C   0  0  0  0  0  0  0  0  0  0  0  0
   31.7887   97.5309   28.4097 N   0  0  0  0  0  0  0  0  0  0  0  0
   31.6031   97.5639   27.0828 C   0  0  0  0  0  0  0  0  0  0  0  0
   32.6782   97.5047   26.1958 C   0  0  0  0  0  0  0  0  0  0  0  0
   33.9675   97.4469   26.6894 C   0  0  0  0  0  0  0  0  0  0  0  0
   34.2001   97.4094   28.0687 C   0  0  0  0  0  0  0  0  0  0  0  0
   30.1881   97.6801   26.6197 C   0  0  0  0  0  0  0  0  0  0  0  0
   29.6576   98.9446   26.3011 C   0  0  0  0  0  0  0  0  0  0  0  0
   28.3393   99.0773   25.8863 C   0  0  0  0  0  0  0  0  0  0  0  0
   27.5226   97.9522   25.7702 C   0  0  0  0  0  0  0  0  0  0  0  0
   29.3453   96.5485   26.4872 C   0  0  0  0  0  0  0  0  0  0  0  0
   28.0140   96.6939   26.0880 C   0  0  0  0  0  0  0  0  0  0  0  0
   27.1566   95.6138   25.9709 O   0  0  0  0  0  0  0  0  0  0  0  0
   27.6307   94.3014   26.3676 C   0  0  0  0  0  0  0  0  0  0  0  0
   29.1639   94.1332   26.3671 C   0  0  0  0  0  0  0  0  0  0  0  0
   29.8927   95.3219   26.7525 O   0  0  0  0  0  0  0  0  0  0  0  0
   33.2186   97.4603   30.2070 O   0  0  0  0  0  0  0  0  0  0  0  0
   32.8777   96.2596   30.9081 C   0  0  0  0  0  0  0  0  0  0  0  0
   35.4649   97.3112   28.6883 N   0  0  0  0  0  0  0  0  0  0  0  0
   35.7871   98.1527   29.0847 H   0  0  0  0  0  0  0  0  0  0  0  0
   36.3473   96.2259   28.8406 C   0  0  0  0  0  0  0  0  0  0  0  0
   36.6151   95.5750   30.0479 C   0  0  0  0  0  0  0  0  0  0  0  0
   37.6055   94.6130   30.1154 C   0  0  0  0  0  0  0  0  0  0  0  0
   38.3555   94.2817   29.0065 C   0  0  0  0  0  0  0  0  0  0  0  0
   38.0854   94.9290   27.8072 C   0  0  0  0  0  0  0  0  0  0  0  0
   37.0916   95.8832   27.7146 C   0  0  0  0  0  0  0  0  0  0  0  0
   39.4429   93.2304   29.0790 C   0  0  0  0  0  0  0  0  0  0  0  0
   40.7961   93.8409   28.9942 N   0  0  0  0  0  0  0  0  0  0  0  0
   41.5980   93.5705   30.2224 C   0  0  0  0  0  0  0  0  0  0  0  0
   41.5241   93.3482   27.8133 C   0  0  0  0  0  0  0  0  0  0  0  0
 10  9  2  0  0  0
 10 12  1  0  0  0
 13 12  1  0  0  0
 13 14  1  0  0  0
  9  8  1  0  0  0
 12 11  2  0  0  0
 14 15  1  0  0  0
  8  7  2  0  0  0
 11  7  1  0  0  0
 11 16  1  0  0  0
  7  3  1  0  0  0
 16 15  1  0  0  0
  4  3  2  0  0  0
  4  5  1  0  0  0
  3  2  1  0  0  0
  5  6  2  0  0  0
  2  1  2  0  0  0
  6  1  1  0  0  0
  6 19  1  0  0  0
 23 22  2  0  0  0
 23 24  1  0  0  0
  1 17  1  0  0  0
 27 24  1  0  0  0
 27 28  1  0  0  0
 22 21  1  0  0  0
 24 25  2  0  0  0
 21 19  1  0  0  0
 21 26  2  0  0  0
 28 30  1  0  0  0
 28 29  1  0  0  0
 25 26  1  0  0  0
 17 18  1  0  0  0
 19 20  1  0  0  0
M  END
> <minimizedAffinity>
-7.65704

$$$$
6FA4_D1W_B_203


 30 33  0  0  0  0  0  0  0  0999 V2000
   33.3215   96.8387   28.7965 C   0  0  0  0  0  0  0  0  0  0  0  0
   32.0831   96.5926   28.4209 N   0  0  0  0  0  0  0  0  0  0  0  0
   31.7705   96.6777   27.1205 C   0  0  0  0  0  0  0  0  0  0  0  0
   32.7321   96.9919   26.1598 C   0  0  0  0  0  0  0  0  0  0  0  0
   34.0293   97.2579   26.5546 C   0  0  0  0  0  0  0  0  0  0  0  0
   34.3930   97.1776   27.9034 C   0  0  0  0  0  0  0  0  0  0  0  0
   30.3400   96.4300   26.7707 C   0  0  0  0  0  0  0  0  0  0  0  0
   29.8372   95.1151   26.7699 C   0  0  0  0  0  0  0  0  0  0  0  0
   28.5153   94.8608   26.4299 C   0  0  0  0  0  0  0  0  0  0  0  0
   27.6620   95.9116   26.0924 C   0  0  0  0  0  0  0  0  0  0  0  0
   29.4553   97.4846   26.4334 C   0  0  0  0  0  0  0  0  0  0  0  0
   28.1317   97.2172   26.0734 C   0  0  0  0  0  0  0  0  0  0  0  0
   27.2474   98.2199   25.7156 O   0  0  0  0  0  0  0  0  0  0  0  0
   27.7391   99.5814   25.6199 C   0  0  0  0  0  0  0  0  0  0  0  0
   29.0220   99.8706   26.4260 C   0  0  0  0  0  0  0  0  0  0  0  0
   29.9479   98.7609   26.4885 O   0  0  0  0  0  0  0  0  0  0  0  0
   33.6420   96.7823   30.0983 O   0  0  0  0  0  0  0  0  0  0  0  0
   33.3441   95.5635   30.7878 C   0  0  0  0  0  0  0  0  0  0  0  0
   35.6897   97.3880   28.4206 N   0  0  0  0  0  0  0  0  0  0  0  0
   35.8654   98.3135   28.7066 H   0  0  0  0  0  0  0  0  0  0  0  0
   36.7758   96.5118   28.6006 C   0  0  0  0  0  0  0  0  0  0  0  0
   37.5885   96.0226   27.5743 C   0  0  0  0  0  0  0  0  0  0  0  0
   38.5393   95.0551   27.8406 C   0  0  0  0  0  0  0  0  0  0  0  0
   38.7015   94.5443   29.1113 C   0  0  0  0  0  0  0  0  0  0  0  0
   37.8935   95.0343   30.1298 C   0  0  0  0  0  0  0  0  0  0  0  0
   36.9469   96.0101   29.8884 C   0  0  0  0  0  0  0  0  0  0  0  0
   39.7404   93.4823   29.4044 C   0  0  0  0  0  0  0  0  0  0  0  0
   39.9706   92.6066   28.2251 N   0  0  0  0  0  0  0  0  0  0  0  0
   41.4044   92.6049   27.8143 C   0  0  0  0  0  0  0  0  0  0  0  0
   39.5362   91.2269   28.4997 C   0  0  0  0  0  0  0  0  0  0  0  0
 10  9  2  0  0  0
 10 12  1  0  0  0
 13 12  1  0  0  0
 13 14  1  0  0  0
  9  8  1  0  0  0
 12 11  2  0  0  0
 14 15  1  0  0  0
  8  7  2  0  0  0
 11  7  1  0  0  0
 11 16  1  0  0  0
  7  3  1  0  0  0
 16 15  1  0  0  0
  4  3  2  0  0  0
  4  5  1  0  0  0
  3  2  1  0  0  0
  5  6  2  0  0  0
  2  1  2  0  0  0
  6  1  1  0  0  0
  6 19  1  0  0  0
 23 22  2  0  0  0
 23 24  1  0  0  0
  1 17  1  0  0  0
 27 24  1  0  0  0
 27 28  1  0  0  0
 22 21  1  0  0  0
 24 25  2  0  0  0
 21 19  1  0  0  0
 21 26  2  0  0  0
 28 30  1  0  0  0
 28 29  1  0  0  0
 25 26  1  0  0  0
 17 18  1  0  0  0
 19 20  1  0  0  0
M  END
> <minimizedAffinity>
-6.92631

$$$$
6FA4_D1W_B_203


 30 33  0  0  0  0  0  0  0  0999 V2000
   33.1037   97.4372   28.9119 C   0  0  0  0  0  0  0  0  0  0  0  0
   31.9157   97.7481   28.4354 N   0  0  0  0  0  0  0  0  0  0  0  0
   31.7527   97.8394   27.1083 C   0  0  0  0  0  0  0  0  0  0  0  0
   32.8035   97.5851   26.2267 C   0  0  0  0  0  0  0  0  0  0  0  0
   34.0517   97.2668   26.7267 C   0  0  0  0  0  0  0  0  0  0  0  0
   34.2594   97.1611   28.1065 C   0  0  0  0  0  0  0  0  0  0  0  0
   30.3925   98.2390   26.6391 C   0  0  0  0  0  0  0  0  0  0  0  0
   30.1270   99.5863   26.3286 C   0  0  0  0  0  0  0  0  0  0  0  0
   28.8644   99.9825   25.9084 C   0  0  0  0  0  0  0  0  0  0  0  0
   27.8405   99.0439   25.7786 C   0  0  0  0  0  0  0  0  0  0  0  0
   29.3417   97.2993   26.4926 C   0  0  0  0  0  0  0  0  0  0  0  0
   28.0688   97.7105   26.0879 C   0  0  0  0  0  0  0  0  0  0  0  0
   27.0140   96.8241   25.9573 O   0  0  0  0  0  0  0  0  0  0  0  0
   27.2140   95.4406   26.3451 C   0  0  0  0  0  0  0  0  0  0  0  0
   28.6828   94.9698   26.3508 C   0  0  0  0  0  0  0  0  0  0  0  0
   29.6316   95.9863   26.7501 O   0  0  0  0  0  0  0  0  0  0  0  0
   33.2870   97.3678   30.2395 O   0  0  0  0  0  0  0  0  0  0  0  0
   32.7468   96.2242   30.9102 C   0  0  0  0  0  0  0  0  0  0  0  0
   35.4744   96.8059   28.7315 N   0  0  0  0  0  0  0  0  0  0  0  0
   36.0722   97.5665   28.9145 H   0  0  0  0  0  0  0  0  0  0  0  0
   35.9840   95.5596   29.1398 C   0  0  0  0  0  0  0  0  0  0  0  0
   35.7064   94.3387   28.5189 C   0  0  0  0  0  0  0  0  0  0  0  0
   36.1425   93.1551   29.0844 C   0  0  0  0  0  0  0  0  0  0  0  0
   36.8463   93.1474   30.2704 C   0  0  0  0  0  0  0  0  0  0  0  0
   37.1227   94.3629   30.8841 C   0  0  0  0  0  0  0  0  0  0  0  0
   36.7082   95.5575   30.3294 C   0  0  0  0  0  0  0  0  0  0  0  0
   37.3222   91.8518   30.8931 C   0  0  0  0  0  0  0  0  0  0  0  0
   36.4605   91.4488   32.0358 N   0  0  0  0  0  0  0  0  0  0  0  0
   36.9656   92.0014   33.3257 C   0  0  0  0  0  0  0  0  0  0  0  0
   35.0693   91.8827   31.8261 C   0  0  0  0  0  0  0  0  0  0  0  0
 10  9  2  0  0  0
 10 12  1  0  0  0
 13 12  1  0  0  0
 13 14  1  0  0  0
  9  8  1  0  0  0
 12 11  2  0  0  0
 14 15  1  0  0  0
  8  7  2  0  0  0
 11  7  1  0  0  0
 11 16  1  0  0  0
  7  3  1  0  0  0
 16 15  1  0  0  0
  4  3  2  0  0  0
  4  5  1  0  0  0
  3  2  1  0  0  0
  5  6  2  0  0  0
  2  1  2  0  0  0
  6  1  1  0  0  0
  6 19  1  0  0  0
 23 22  2  0  0  0
 23 24  1  0  0  0
  1 17  1  0  0  0
 27 24  1  0  0  0
 27 28  1  0  0  0
 22 21  1  0  0  0
 24 25  2  0  0  0
 21 19  1  0  0  0
 21 26  2  0  0  0
 28 30  1  0  0  0
 28 29  1  0  0  0
 25 26  1  0  0  0
 17 18  1  0  0  0
 19 20  1  0  0  0
M  END
> <minimizedAffinity>
-6.75816

$$$$
6FA4_D1W_B_203


 30 33  0  0  0  0  0  0  0  0999 V2000
   33.1143   95.4509   28.3294 C   0  0  0  0  0  0  0  0  0  0  0  0
   32.0492   96.0530   27.8413 N   0  0  0  0  0  0  0  0  0  0  0  0
   32.2090   97.1747   27.1255 C   0  0  0  0  0  0  0  0  0  0  0  0
   33.4759   97.6977   26.8651 C   0  0  0  0  0  0  0  0  0  0  0  0
   34.5926   97.0707   27.3839 C   0  0  0  0  0  0  0  0  0  0  0  0
   34.4648   95.8969   28.1349 C   0  0  0  0  0  0  0  0  0  0  0  0
   30.9573   97.8290   26.6407 C   0  0  0  0  0  0  0  0  0  0  0  0
   30.9598   99.2026   26.3323 C   0  0  0  0  0  0  0  0  0  0  0  0
   29.8025   99.8346   25.8976 C   0  0  0  0  0  0  0  0  0  0  0  0
   28.6191   99.1106   25.7511 C   0  0  0  0  0  0  0  0  0  0  0  0
   29.7475   97.1090   26.4772 C   0  0  0  0  0  0  0  0  0  0  0  0
   28.5828   97.7577   26.0581 C   0  0  0  0  0  0  0  0  0  0  0  0
   27.3791   97.0908   25.9106 O   0  0  0  0  0  0  0  0  0  0  0  0
   27.3045   95.6940   26.2954 C   0  0  0  0  0  0  0  0  0  0  0  0
   28.6552   94.9497   26.3178 C   0  0  0  0  0  0  0  0  0  0  0  0
   29.7763   95.7643   26.7331 O   0  0  0  0  0  0  0  0  0  0  0  0
   32.9666   94.3414   29.0696 O   0  0  0  0  0  0  0  0  0  0  0  0
   31.8085   94.2700   29.9081 C   0  0  0  0  0  0  0  0  0  0  0  0
   35.5302   95.1487   28.6811 N   0  0  0  0  0  0  0  0  0  0  0  0
   35.2484   94.3424   29.1706 H   0  0  0  0  0  0  0  0  0  0  0  0
   36.9225   95.3490   28.6510 C   0  0  0  0  0  0  0  0  0  0  0  0
   37.7019   95.3823   27.4915 C   0  0  0  0  0  0  0  0  0  0  0  0
   39.0801   95.4423   27.5806 C   0  0  0  0  0  0  0  0  0  0  0  0
   39.7163   95.4593   28.8041 C   0  0  0  0  0  0  0  0  0  0  0  0
   38.9386   95.4283   29.9550 C   0  0  0  0  0  0  0  0  0  0  0  0
   37.5601   95.3819   29.8887 C   0  0  0  0  0  0  0  0  0  0  0  0
   41.2259   95.5219   28.9038 C   0  0  0  0  0  0  0  0  0  0  0  0
   41.6645   96.5675   29.8656 N   0  0  0  0  0  0  0  0  0  0  0  0
   42.3309   95.9707   31.0590 C   0  0  0  0  0  0  0  0  0  0  0  0
   42.5766   97.5272   29.2218 C   0  0  0  0  0  0  0  0  0  0  0  0
 10  9  2  0  0  0
 10 12  1  0  0  0
 13 12  1  0  0  0
 13 14  1  0  0  0
  9  8  1  0  0  0
 12 11  2  0  0  0
 14 15  1  0  0  0
  8  7  2  0  0  0
 11  7  1  0  0  0
 11 16  1  0  0  0
  7  3  1  0  0  0
 16 15  1  0  0  0
  4  3  2  0  0  0
  4  5  1  0  0  0
  3  2  1  0  0  0
  5  6  2  0  0  0
  2  1  2  0  0  0
  6  1  1  0  0  0
  6 19  1  0  0  0
 23 22  2  0  0  0
 23 24  1  0  0  0
  1 17  1  0  0  0
 27 24  1  0  0  0
 27 28  1  0  0  0
 22 21  1  0  0  0
 24 25  2  0  0  0
 21 19  1  0  0  0
 21 26  2  0  0  0
 28 30  1  0  0  0
 28 29  1  0  0  0
 25 26  1  0  0  0
 17 18  1  0  0  0
 19 20  1  0  0  0
M  END
> <minimizedAffinity>
-6.60138

$$$$
6FA4_D1W_B_203


 30 33  0  0  0  0  0  0  0  0999 V2000
   31.3649   97.3566   27.5319 C   0  0  0  0  0  0  0  0  0  0  0  0
   30.1100   96.9783   27.4000 N   0  0  0  0  0  0  0  0  0  0  0  0
   29.8082   95.6783   27.5216 C   0  0  0  0  0  0  0  0  0  0  0  0
   30.7873   94.7278   27.8118 C   0  0  0  0  0  0  0  0  0  0  0  0
   32.1048   95.1235   27.9422 C   0  0  0  0  0  0  0  0  0  0  0  0
   32.4575   96.4723   27.8230 C   0  0  0  0  0  0  0  0  0  0  0  0
   28.3746   95.3142   27.3162 C   0  0  0  0  0  0  0  0  0  0  0  0
   27.9124   94.9912   26.0262 C   0  0  0  0  0  0  0  0  0  0  0  0
   26.5796   94.6678   25.8100 C   0  0  0  0  0  0  0  0  0  0  0  0
   25.6793   94.6495   26.8754 C   0  0  0  0  0  0  0  0  0  0  0  0
   27.4465   95.2816   28.3868 C   0  0  0  0  0  0  0  0  0  0  0  0
   26.1028   94.9743   28.1564 C   0  0  0  0  0  0  0  0  0  0  0  0
   25.1650   94.9564   29.1741 O   0  0  0  0  0  0  0  0  0  0  0  0
   25.5734   95.3630   30.5054 C   0  0  0  0  0  0  0  0  0  0  0  0
   27.0866   95.2581   30.7849 C   0  0  0  0  0  0  0  0  0  0  0  0
   27.9241   95.5490   29.6417 O   0  0  0  0  0  0  0  0  0  0  0  0
   31.6845   98.6518   27.3869 O   0  0  0  0  0  0  0  0  0  0  0  0
   30.6367   99.5369   26.9769 C   0  0  0  0  0  0  0  0  0  0  0  0
   33.7583   96.9999   27.9742 N   0  0  0  0  0  0  0  0  0  0  0  0
   33.8726   97.9053   27.6050 H   0  0  0  0  0  0  0  0  0  0  0  0
   34.9206   96.4632   28.5580 C   0  0  0  0  0  0  0  0  0  0  0  0
   35.0096   95.9795   29.8661 C   0  0  0  0  0  0  0  0  0  0  0  0
   36.2337   95.6055   30.3882 C   0  0  0  0  0  0  0  0  0  0  0  0
   37.3895   95.7097   29.6430 C   0  0  0  0  0  0  0  0  0  0  0  0
   37.2974   96.1889   28.3422 C   0  0  0  0  0  0  0  0  0  0  0  0
   36.0830   96.5552   27.7965 C   0  0  0  0  0  0  0  0  0  0  0  0
   38.7317   95.3035   30.2141 C   0  0  0  0  0  0  0  0  0  0  0  0
   39.7198   95.0280   29.1378 N   0  0  0  0  0  0  0  0  0  0  0  0
   40.9879   95.7839   29.3503 C   0  0  0  0  0  0  0  0  0  0  0  0
   40.0148   93.5884   29.0483 C   0  0  0  0  0  0  0  0  0  0  0  0
 10  9  2  0  0  0
 10 12  1  0  0  0
 13 12  1  0  0  0
 13 14  1  0  0  0
  9  8  1  0  0  0
 12 11  2  0  0  0
 14 15  1  0  0  0
  8  7  2  0  0  0
 11  7  1  0  0  0
 11 16  1  0  0  0
  7  3  1  0  0  0
 16 15  1  0  0  0
  4  3  2  0  0  0
  4  5  1  0  0  0
  3  2  1  0  0  0
  5  6  2  0  0  0
  2  1  2  0  0  0
  6  1  1  0  0  0
  6 19  1  0  0  0
 23 22  2  0  0  0
 23 24  1  0  0  0
  1 17  1  0  0  0
 27 24  1  0  0  0
 27 28  1  0  0  0
 22 21  1  0  0  0
 24 25  2  0  0  0
 21 19  1  0  0  0
 21 26  2  0  0  0
 28 30  1  0  0  0
 28 29  1  0  0  0
 25 26  1  0  0  0
 17 18  1  0  0  0
 19 20  1  0  0  0
M  END
> <minimizedAffinity>
-5.97132

$$$$
6FA4_D1W_B_203


 30 33  0  0  0  0  0  0  0  0999 V2000
   31.2795   96.0905   29.6129 C   0  0  0  0  0  0  0  0  0  0  0  0
   30.1953   95.5723   29.0733 N   0  0  0  0  0  0  0  0  0  0  0  0
   30.0326   95.6467   27.7451 C   0  0  0  0  0  0  0  0  0  0  0  0
   30.9971   96.2334   26.9254 C   0  0  0  0  0  0  0  0  0  0  0  0
   32.1305   96.7842   27.4921 C   0  0  0  0  0  0  0  0  0  0  0  0
   32.3353   96.7243   28.8751 C   0  0  0  0  0  0  0  0  0  0  0  0
   28.7610   95.0791   27.2058 C   0  0  0  0  0  0  0  0  0  0  0  0
   27.6624   95.9264   26.9665 C   0  0  0  0  0  0  0  0  0  0  0  0
   26.4650   95.4167   26.4828 C   0  0  0  0  0  0  0  0  0  0  0  0
   26.3380   94.0531   26.2173 C   0  0  0  0  0  0  0  0  0  0  0  0
   28.6151   93.6983   26.9217 C   0  0  0  0  0  0  0  0  0  0  0  0
   27.3998   93.1913   26.4538 C   0  0  0  0  0  0  0  0  0  0  0  0
   27.2148   91.8456   26.1887 O   0  0  0  0  0  0  0  0  0  0  0  0
   28.2886   90.9203   26.4978 C   0  0  0  0  0  0  0  0  0  0  0  0
   29.6929   91.5532   26.5790 C   0  0  0  0  0  0  0  0  0  0  0  0
   29.7093   92.8978   27.1124 O   0  0  0  0  0  0  0  0  0  0  0  0
   31.4427   96.0458   30.9441 O   0  0  0  0  0  0  0  0  0  0  0  0
   30.3134   95.6361   31.7228 C   0  0  0  0  0  0  0  0  0  0  0  0
   33.4670   97.2147   29.5620 N   0  0  0  0  0  0  0  0  0  0  0  0
   33.2793   97.9744   30.1594 H   0  0  0  0  0  0  0  0  0  0  0  0
   34.8151   96.8121   29.5458 C   0  0  0  0  0  0  0  0  0  0  0  0
   35.7566   97.2049   28.5906 C   0  0  0  0  0  0  0  0  0  0  0  0
   37.0181   96.6395   28.5831 C   0  0  0  0  0  0  0  0  0  0  0  0
   37.3733   95.6744   29.5019 C   0  0  0  0  0  0  0  0  0  0  0  0
   36.4357   95.2876   30.4516 C   0  0  0  0  0  0  0  0  0  0  0  0
   35.1747   95.8492   30.4854 C   0  0  0  0  0  0  0  0  0  0  0  0
   38.7535   95.0517   29.4935 C   0  0  0  0  0  0  0  0  0  0  0  0
   39.0297   94.3590   28.2071 N   0  0  0  0  0  0  0  0  0  0  0  0
   40.4902   94.3215   27.9067 C   0  0  0  0  0  0  0  0  0  0  0  0
   38.4952   92.9873   28.2211 C   0  0  0  0  0  0  0  0  0  0  0  0
 10  9  2  0  0  0
 10 12  1  0  0  0
 13 12  1  0  0  0
 13 14  1  0  0  0
  9  8  1  0  0  0
 12 11  2  0  0  0
 14 15  1  0  0  0
  8  7  2  0  0  0
 11  7  1  0  0  0
 11 16  1  0  0  0
  7  3  1  0  0  0
 16 15  1  0  0  0
  4  3  2  0  0  0
  4  5  1  0  0  0
  3  2  1  0  0  0
  5  6  2  0  0  0
  2  1  2  0  0  0
  6  1  1  0  0  0
  6 19  1  0  0  0
 23 22  2  0  0  0
 23 24  1  0  0  0
  1 17  1  0  0  0
 27 24  1  0  0  0
 27 28  1  0  0  0
 22 21  1  0  0  0
 24 25  2  0  0  0
 21 19  1  0  0  0
 21 26  2  0  0  0
 28 30  1  0  0  0
 28 29  1  0  0  0
 25 26  1  0  0  0
 17 18  1  0  0  0
 19 20  1  0  0  0
M  END
> <minimizedAffinity>
-5.68277

$$$$
6FA4_D1W_B_203


 30 33  0  0  0  0  0  0  0  0999 V2000
   33.5927   94.8354   28.3830 C   0  0  0  0  0  0  0  0  0  0  0  0
   32.4157   95.1277   27.8688 N   0  0  0  0  0  0  0  0  0  0  0  0
   31.8862   96.3357   28.1058 C   0  0  0  0  0  0  0  0  0  0  0  0
   32.5662   97.2936   28.8583 C   0  0  0  0  0  0  0  0  0  0  0  0
   33.7972   96.9842   29.4044 C   0  0  0  0  0  0  0  0  0  0  0  0
   34.3821   95.7335   29.1773 C   0  0  0  0  0  0  0  0  0  0  0  0
   30.5307   96.5837   27.5302 C   0  0  0  0  0  0  0  0  0  0  0  0
   30.3757   97.5035   26.4758 C   0  0  0  0  0  0  0  0  0  0  0  0
   29.1220   97.7627   25.9385 C   0  0  0  0  0  0  0  0  0  0  0  0
   27.9959   97.1042   26.4328 C   0  0  0  0  0  0  0  0  0  0  0  0
   29.3760   95.9186   28.0128 C   0  0  0  0  0  0  0  0  0  0  0  0
   28.1156   96.2005   27.4791 C   0  0  0  0  0  0  0  0  0  0  0  0
   26.9644   95.5875   27.9422 O   0  0  0  0  0  0  0  0  0  0  0  0
   27.0600   94.6952   29.0821 C   0  0  0  0  0  0  0  0  0  0  0  0
   28.4609   94.0988   29.3287 C   0  0  0  0  0  0  0  0  0  0  0  0
   29.5526   94.9906   29.0038 O   0  0  0  0  0  0  0  0  0  0  0  0
   34.1228   93.6202   28.1749 O   0  0  0  0  0  0  0  0  0  0  0  0
   33.3043   92.4911   28.4984 C   0  0  0  0  0  0  0  0  0  0  0  0
   35.6466   95.3181   29.6479 N   0  0  0  0  0  0  0  0  0  0  0  0
   35.6211   94.8439   30.5103 H   0  0  0  0  0  0  0  0  0  0  0  0
   36.9369   95.4603   29.1050 C   0  0  0  0  0  0  0  0  0  0  0  0
   37.2360   95.4580   27.7399 C   0  0  0  0  0  0  0  0  0  0  0  0
   38.5516   95.4610   27.3155 C   0  0  0  0  0  0  0  0  0  0  0  0
   39.5932   95.4549   28.2194 C   0  0  0  0  0  0  0  0  0  0  0  0
   39.2926   95.4594   29.5758 C   0  0  0  0  0  0  0  0  0  0  0  0
   37.9856   95.4701   30.0213 C   0  0  0  0  0  0  0  0  0  0  0  0
   41.0350   95.4550   27.7566 C   0  0  0  0  0  0  0  0  0  0  0  0
   41.2034   94.6755   26.5017 N   0  0  0  0  0  0  0  0  0  0  0  0
   42.2065   95.3051   25.5950 C   0  0  0  0  0  0  0  0  0  0  0  0
   41.6048   93.2891   26.7917 C   0  0  0  0  0  0  0  0  0  0  0  0
 10  9  2  0  0  0
 10 12  1  0  0  0
 13 12  1  0  0  0
 13 14  1  0  0  0
  9  8  1  0  0  0
 12 11  2  0  0  0
 14 15  1  0  0  0
  8  7  2  0  0  0
 11  7  1  0  0  0
 11 16  1  0  0  0
  7  3  1  0  0  0
 16 15  1  0  0  0
  4  3  2  0  0  0
  4  5  1  0  0  0
  3  2  1  0  0  0
  5  6  2  0  0  0
  2  1  2  0  0  0
  6  1  1  0  0  0
  6 19  1  0  0  0
 23 22  2  0  0  0
 23 24  1  0  0  0
  1 17  1  0  0  0
 27 24  1  0  0  0
 27 28  1  0  0  0
 22 21  1  0  0  0
 24 25  2  0  0  0
 21 19  1  0  0  0
 21 26  2  0  0  0
 28 30  1  0  0  0
 28 29  1  0  0  0
 25 26  1  0  0  0
 17 18  1  0  0  0
 19 20  1  0  0  0
M  END
> <minimizedAffinity>
-5.63571

$$$$
6FA4_D1W_B_203


 30 33  0  0  0  0  0  0  0  0999 V2000
   33.2038   94.4441   28.4616 C   0  0  0  0  0  0  0  0  0  0  0  0
   32.0172   94.7182   27.9595 N   0  0  0  0  0  0  0  0  0  0  0  0
   31.8207   95.9056   27.3701 C   0  0  0  0  0  0  0  0  0  0  0  0
   32.8504   96.8397   27.2537 C   0  0  0  0  0  0  0  0  0  0  0  0
   34.0928   96.5555   27.7874 C   0  0  0  0  0  0  0  0  0  0  0  0
   34.3356   95.3256   28.4089 C   0  0  0  0  0  0  0  0  0  0  0  0
   30.4407   96.1675   26.8631 C   0  0  0  0  0  0  0  0  0  0  0  0
   29.5284   95.1029   26.7348 C   0  0  0  0  0  0  0  0  0  0  0  0
   28.2466   95.3212   26.2481 C   0  0  0  0  0  0  0  0  0  0  0  0
   27.8415   96.6065   25.8874 C   0  0  0  0  0  0  0  0  0  0  0  0
   30.0075   97.4670   26.4996 C   0  0  0  0  0  0  0  0  0  0  0  0
   28.7219   97.6740   25.9921 C   0  0  0  0  0  0  0  0  0  0  0  0
   28.2740   98.9251   25.6053 O   0  0  0  0  0  0  0  0  0  0  0  0
   29.2026  100.0392   25.6394 C   0  0  0  0  0  0  0  0  0  0  0  0
   30.4059   99.8575   26.5870 C   0  0  0  0  0  0  0  0  0  0  0  0
   30.8908   98.4976   26.6786 O   0  0  0  0  0  0  0  0  0  0  0  0
   33.4068   93.2692   29.0773 O   0  0  0  0  0  0  0  0  0  0  0  0
   32.2439   92.5176   29.4408 C   0  0  0  0  0  0  0  0  0  0  0  0
   35.5689   94.9077   28.9544 N   0  0  0  0  0  0  0  0  0  0  0  0
   35.5442   94.7342   29.9231 H   0  0  0  0  0  0  0  0  0  0  0  0
   36.8269   94.6949   28.3613 C   0  0  0  0  0  0  0  0  0  0  0  0
   37.6968   95.7059   27.9440 C   0  0  0  0  0  0  0  0  0  0  0  0
   38.8458   95.3902   27.2432 C   0  0  0  0  0  0  0  0  0  0  0  0
   39.1550   94.0830   26.9308 C   0  0  0  0  0  0  0  0  0  0  0  0
   38.2892   93.0800   27.3489 C   0  0  0  0  0  0  0  0  0  0  0  0
   37.1432   93.3721   28.0617 C   0  0  0  0  0  0  0  0  0  0  0  0
   40.4114   93.7354   26.1606 C   0  0  0  0  0  0  0  0  0  0  0  0
   41.2833   92.8099   26.9313 N   0  0  0  0  0  0  0  0  0  0  0  0
   41.8747   91.7567   26.0563 C   0  0  0  0  0  0  0  0  0  0  0  0
   42.3613   93.5454   27.6128 C   0  0  0  0  0  0  0  0  0  0  0  0
 10  9  2  0  0  0
 10 12  1  0  0  0
 13 12  1  0  0  0
 13 14  1  0  0  0
  9  8  1  0  0  0
 12 11  2  0  0  0
 14 15  1  0  0  0
  8  7  2  0  0  0
 11  7  1  0  0  0
 11 16  1  0  0  0
  7  3  1  0  0  0
 16 15  1  0  0  0
  4  3  2  0  0  0
  4  5  1  0  0  0
  3  2  1  0  0  0
  5  6  2  0  0  0
  2  1  2  0  0  0
  6  1  1  0  0  0
  6 19  1  0  0  0
 23 22  2  0  0  0
 23 24  1  0  0  0
  1 17  1  0  0  0
 27 24  1  0  0  0
 27 28  1  0  0  0
 22 21  1  0  0  0
 24 25  2  0  0  0
 21 19  1  0  0  0
 21 26  2  0  0  0
 28 30  1  0  0  0
 28 29  1  0  0  0
 25 26  1  0  0  0
 17 18  1  0  0  0
 19 20  1  0  0  0
M  END
> <minimizedAffinity>
-5.63121

$$$$
6FA4_D1W_B_203


 30 33  0  0  0  0  0  0  0  0999 V2000
   31.8866   95.0791   27.6148 C   0  0  0  0  0  0  0  0  0  0  0  0
   33.1436   94.9911   27.9987 N   0  0  0  0  0  0  0  0  0  0  0  0
   33.7653   96.0928   28.4412 C   0  0  0  0  0  0  0  0  0  0  0  0
   33.1022   97.3171   28.5292 C   0  0  0  0  0  0  0  0  0  0  0  0
   31.7862   97.4111   28.1189 C   0  0  0  0  0  0  0  0  0  0  0  0
   31.1041   96.2819   27.6524 C   0  0  0  0  0  0  0  0  0  0  0  0
   35.2013   95.9309   28.8177 C   0  0  0  0  0  0  0  0  0  0  0  0
   36.2093   96.2701   27.8953 C   0  0  0  0  0  0  0  0  0  0  0  0
   37.5501   96.1099   28.2181 C   0  0  0  0  0  0  0  0  0  0  0  0
   37.9172   95.6174   29.4706 C   0  0  0  0  0  0  0  0  0  0  0  0
   35.5946   95.4403   30.0878 C   0  0  0  0  0  0  0  0  0  0  0  0
   36.9461   95.2638   30.3967 C   0  0  0  0  0  0  0  0  0  0  0  0
   37.3649   94.7651   31.6179 O   0  0  0  0  0  0  0  0  0  0  0  0
   36.3640   94.3227   32.5703 C   0  0  0  0  0  0  0  0  0  0  0  0
   34.9603   94.9305   32.3723 C   0  0  0  0  0  0  0  0  0  0  0  0
   34.6027   95.1635   30.9900 O   0  0  0  0  0  0  0  0  0  0  0  0
   31.2600   93.9892   27.1454 O   0  0  0  0  0  0  0  0  0  0  0  0
   31.6360   92.7297   27.7127 C   0  0  0  0  0  0  0  0  0  0  0  0
   29.7530   96.2461   27.2443 N   0  0  0  0  0  0  0  0  0  0  0  0
   29.5862   96.6520   26.3630 H   0  0  0  0  0  0  0  0  0  0  0  0
   28.6023   95.7343   27.8716 C   0  0  0  0  0  0  0  0  0  0  0  0
   27.4237   95.3749   27.2122 C   0  0  0  0  0  0  0  0  0  0  0  0
   26.3020   95.0172   27.9367 C   0  0  0  0  0  0  0  0  0  0  0  0
   26.3131   95.0167   29.3157 C   0  0  0  0  0  0  0  0  0  0  0  0
   27.4870   95.3724   29.9683 C   0  0  0  0  0  0  0  0  0  0  0  0
   28.6227   95.7199   29.2640 C   0  0  0  0  0  0  0  0  0  0  0  0
   25.0847   94.6283   30.1112 C   0  0  0  0  0  0  0  0  0  0  0  0
   25.2180   95.0141   31.5409 N   0  0  0  0  0  0  0  0  0  0  0  0
   24.2284   96.0633   31.9208 C   0  0  0  0  0  0  0  0  0  0  0  0
   25.0566   93.8445   32.4203 C   0  0  0  0  0  0  0  0  0  0  0  0
 10  9  2  0  0  0
 10 12  1  0  0  0
 13 12  1  0  0  0
 13 14  1  0  0  0
  9  8  1  0  0  0
 12 11  2  0  0  0
 14 15  1  0  0  0
  8  7  2  0  0  0
 11  7  1  0  0  0
 11 16  1  0  0  0
  7  3  1  0  0  0
 16 15  1  0  0  0
  4  3  2  0  0  0
  4  5  1  0  0  0
  3  2  1  0  0  0
  5  6  2  0  0  0
  2  1  2  0  0  0
  6  1  1  0  0  0
  6 19  1  0  0  0
 23 22  2  0  0  0
 23 24  1  0  0  0
  1 17  1  0  0  0
 27 24  1  0  0  0
 27 28  1  0  0  0
 22 21  1  0  0  0
 24 25  2  0  0  0
 21 19  1  0  0  0
 21 26  2  0  0  0
 28 30  1  0  0  0
 28 29  1  0  0  0
 25 26  1  0  0  0
 17 18  1  0  0  0
 19 20  1  0  0  0
M  END
> <minimizedAffinity>
-5.21908

$$$$
