4GGZ_BTN_A_900


 19 20  0  0  0  0  0  0  0  0999 V2000
   41.0673   -8.4436    0.9573 C   0  0  0  0  0  0  0  0  0  0  0  0
   41.3494   -7.6520    2.4261 S   0  0  0  0  0  0  0  0  0  0  0  0
   43.0779   -7.4086    1.9268 C   0  0  0  0  0  0  0  0  0  0  0  0
   43.0325   -7.0156    0.4498 C   0  0  0  0  0  0  0  0  0  0  0  0
   42.8463   -5.5879    0.2948 N   0  0  0  0  0  0  0  0  0  0  0  0
   41.6612   -5.3340   -0.2642 C   0  0  0  0  0  0  0  0  0  0  0  0
   41.2480   -4.0640   -0.5408 O   0  0  0  0  0  0  0  0  0  0  0  0
   40.9622   -6.4187   -0.5071 N   0  0  0  0  0  0  0  0  0  0  0  0
   41.7544   -7.5846   -0.1090 C   0  0  0  0  0  0  0  0  0  0  0  0
   43.5002   -4.9027    0.5633 H   0  0  0  0  0  0  0  0  0  0  0  0
   40.0566   -6.4441   -0.8926 H   0  0  0  0  0  0  0  0  0  0  0  0
   39.5737   -8.6679    0.6580 C   0  0  0  0  0  0  0  0  0  0  0  0
   39.0028   -9.7977    1.5453 C   0  0  0  0  0  0  0  0  0  0  0  0
   37.5059  -10.0119    1.2864 C   0  0  0  0  0  0  0  0  0  0  0  0
   37.0928  -11.4300    1.7070 C   0  0  0  0  0  0  0  0  0  0  0  0
   37.9329  -12.5277    1.0882 C   0  0  0  0  0  0  0  0  0  0  0  0
   38.0031  -12.7035   -0.1751 O   0  0  0  0  0  0  0  0  0  0  0  0
   38.5677  -13.3048    1.8575 O   0  0  0  0  0  0  0  0  0  0  0  0
   38.5231  -13.1847    2.7857 H   0  0  0  0  0  0  0  0  0  0  0  0
 16 17  2  0  0  0
 16 18  1  0  0  0
 16 15  1  0  0  0
 15 14  1  0  0  0
 14 13  1  0  0  0
 13 12  1  0  0  0
 12  1  1  0  0  0
  1  2  1  0  0  0
  1  9  1  0  0  0
  2  3  1  0  0  0
  3  4  1  0  0  0
  4  5  1  0  0  0
  4  9  1  0  0  0
  5  6  1  0  0  0
  6  7  2  0  0  0
  6  8  1  0  0  0
  8  9  1  0  0  0
 18 19  1  0  0  0
  5 10  1  0  0  0
  8 11  1  0  0  0
M  END
> <minimizedAffinity>
-8.70689

$$$$
4GGZ_BTN_A_900


 19 20  0  0  0  0  0  0  0  0999 V2000
   39.0136  -13.5271    0.8122 C   0  0  0  0  0  0  0  0  0  0  0  0
   39.0839  -14.0796   -0.7857 S   0  0  0  0  0  0  0  0  0  0  0  0
   40.5076  -15.1113   -0.3333 C   0  0  0  0  0  0  0  0  0  0  0  0
   40.1681  -15.7130    1.0308 C   0  0  0  0  0  0  0  0  0  0  0  0
   39.4018  -16.9333    0.8871 N   0  0  0  0  0  0  0  0  0  0  0  0
   38.1698  -16.7657    1.3723 C   0  0  0  0  0  0  0  0  0  0  0  0
   37.2504  -17.7731    1.3782 O   0  0  0  0  0  0  0  0  0  0  0  0
   37.9550  -15.5529    1.8276 N   0  0  0  0  0  0  0  0  0  0  0  0
   39.1875  -14.7745    1.6845 C   0  0  0  0  0  0  0  0  0  0  0  0
   39.7410  -17.7672    0.4886 H   0  0  0  0  0  0  0  0  0  0  0  0
   37.1070  -15.2221    2.2027 H   0  0  0  0  0  0  0  0  0  0  0  0
   37.7209  -12.7573    1.1392 C   0  0  0  0  0  0  0  0  0  0  0  0
   38.0390  -11.4662    1.9277 C   0  0  0  0  0  0  0  0  0  0  0  0
   39.1933  -10.6866    1.2847 C   0  0  0  0  0  0  0  0  0  0  0  0
   38.7953   -9.2163    1.0882 C   0  0  0  0  0  0  0  0  0  0  0  0
   39.8773   -8.2270    1.4680 C   0  0  0  0  0  0  0  0  0  0  0  0
   40.7480   -8.4799    2.3678 O   0  0  0  0  0  0  0  0  0  0  0  0
   39.8994   -7.1064    0.8828 O   0  0  0  0  0  0  0  0  0  0  0  0
   39.2653   -6.9107    0.2213 H   0  0  0  0  0  0  0  0  0  0  0  0
 16 17  2  0  0  0
 16 18  1  0  0  0
 16 15  1  0  0  0
 15 14  1  0  0  0
 14 13  1  0  0  0
 13 12  1  0  0  0
 12  1  1  0  0  0
  1  2  1  0  0  0
  1  9  1  0  0  0
  2  3  1  0  0  0
  3  4  1  0  0  0
  4  5  1  0  0  0
  4  9  1  0  0  0
  5  6  1  0  0  0
  6  7  2  0  0  0
  6  8  1  0  0  0
  8  9  1  0  0  0
 18 19  1  0  0  0
  5 10  1  0  0  0
  8 11  1  0  0  0
M  END
> <minimizedAffinity>
-6.77896

$$$$
4GGZ_BTN_A_900


 19 20  0  0  0  0  0  0  0  0999 V2000
   38.2536  -14.2217    1.2959 C   0  0  0  0  0  0  0  0  0  0  0  0
   39.5900  -15.1609    1.7380 S   0  0  0  0  0  0  0  0  0  0  0  0
   38.5323  -16.6355    1.6827 C   0  0  0  0  0  0  0  0  0  0  0  0
   37.6577  -16.4732    0.4390 C   0  0  0  0  0  0  0  0  0  0  0  0
   38.3280  -16.9796   -0.7405 N   0  0  0  0  0  0  0  0  0  0  0  0
   38.5950  -15.9814   -1.5853 C   0  0  0  0  0  0  0  0  0  0  0  0
   39.2049  -16.1927   -2.7867 O   0  0  0  0  0  0  0  0  0  0  0  0
   38.2133  -14.8083   -1.1351 N   0  0  0  0  0  0  0  0  0  0  0  0
   37.5663  -14.9945    0.1657 C   0  0  0  0  0  0  0  0  0  0  0  0
   38.5545  -17.9248   -0.8969 H   0  0  0  0  0  0  0  0  0  0  0  0
   38.3409  -13.9474   -1.5952 H   0  0  0  0  0  0  0  0  0  0  0  0
   38.6225  -12.7845    0.8849 C   0  0  0  0  0  0  0  0  0  0  0  0
   37.5717  -11.7797    1.4103 C   0  0  0  0  0  0  0  0  0  0  0  0
   38.0404  -10.3305    1.2263 C   0  0  0  0  0  0  0  0  0  0  0  0
   39.5232  -10.2009    1.6051 C   0  0  0  0  0  0  0  0  0  0  0  0
   40.0660   -8.7907    1.5034 C   0  0  0  0  0  0  0  0  0  0  0  0
   40.7827   -8.2673    2.4222 O   0  0  0  0  0  0  0  0  0  0  0  0
   39.7779   -8.1081    0.4788 O   0  0  0  0  0  0  0  0  0  0  0  0
   39.2528   -8.4824   -0.2010 H   0  0  0  0  0  0  0  0  0  0  0  0
 16 17  2  0  0  0
 16 18  1  0  0  0
 16 15  1  0  0  0
 15 14  1  0  0  0
 14 13  1  0  0  0
 13 12  1  0  0  0
 12  1  1  0  0  0
  1  2  1  0  0  0
  1  9  1  0  0  0
  2  3  1  0  0  0
  3  4  1  0  0  0
  4  5  1  0  0  0
  4  9  1  0  0  0
  5  6  1  0  0  0
  6  7  2  0  0  0
  6  8  1  0  0  0
  8  9  1  0  0  0
 18 19  1  0  0  0
  5 10  1  0  0  0
  8 11  1  0  0  0
M  END
> <minimizedAffinity>
-6.23196

$$$$
4GGZ_BTN_A_900


 19 20  0  0  0  0  0  0  0  0999 V2000
   41.0011   -7.8223    2.0324 C   0  0  0  0  0  0  0  0  0  0  0  0
   40.0198   -6.9102    0.9986 S   0  0  0  0  0  0  0  0  0  0  0  0
   41.0054   -5.4419    1.4097 C   0  0  0  0  0  0  0  0  0  0  0  0
   42.4611   -5.9095    1.4253 C   0  0  0  0  0  0  0  0  0  0  0  0
   43.0406   -5.8571    0.0992 N   0  0  0  0  0  0  0  0  0  0  0  0
   43.3223   -7.0885   -0.3316 C   0  0  0  0  0  0  0  0  0  0  0  0
   43.8983   -7.3168   -1.5465 O   0  0  0  0  0  0  0  0  0  0  0  0
   42.9880   -8.0245    0.5266 N   0  0  0  0  0  0  0  0  0  0  0  0
   42.4370   -7.3859    1.7242 C   0  0  0  0  0  0  0  0  0  0  0  0
   43.2034   -5.0313   -0.4115 H   0  0  0  0  0  0  0  0  0  0  0  0
   43.0905   -8.9938    0.3882 H   0  0  0  0  0  0  0  0  0  0  0  0
   40.8043   -9.3420    1.8830 C   0  0  0  0  0  0  0  0  0  0  0  0
   39.4697   -9.6518    1.1670 C   0  0  0  0  0  0  0  0  0  0  0  0
   38.6762  -10.7376    1.9053 C   0  0  0  0  0  0  0  0  0  0  0  0
   37.7678  -11.4910    0.9225 C   0  0  0  0  0  0  0  0  0  0  0  0
   38.1221  -12.9533    0.7501 C   0  0  0  0  0  0  0  0  0  0  0  0
   38.0523  -13.5439   -0.3804 O   0  0  0  0  0  0  0  0  0  0  0  0
   38.4791  -13.6095    1.7703 O   0  0  0  0  0  0  0  0  0  0  0  0
   38.5335  -13.1860    2.6043 H   0  0  0  0  0  0  0  0  0  0  0  0
 16 17  2  0  0  0
 16 18  1  0  0  0
 16 15  1  0  0  0
 15 14  1  0  0  0
 14 13  1  0  0  0
 13 12  1  0  0  0
 12  1  1  0  0  0
  1  2  1  0  0  0
  1  9  1  0  0  0
  2  3  1  0  0  0
  3  4  1  0  0  0
  4  5  1  0  0  0
  4  9  1  0  0  0
  5  6  1  0  0  0
  6  7  2  0  0  0
  6  8  1  0  0  0
  8  9  1  0  0  0
 18 19  1  0  0  0
  5 10  1  0  0  0
  8 11  1  0  0  0
M  END
> <minimizedAffinity>
-6.00649

$$$$
4GGZ_BTN_A_900


 19 20  0  0  0  0  0  0  0  0999 V2000
   40.0020   -6.8530    0.8914 C   0  0  0  0  0  0  0  0  0  0  0  0
   40.7166   -7.4162   -0.5354 S   0  0  0  0  0  0  0  0  0  0  0  0
   42.0901   -6.2597   -0.2670 C   0  0  0  0  0  0  0  0  0  0  0  0
   42.4039   -6.3269    1.2281 C   0  0  0  0  0  0  0  0  0  0  0  0
   43.3278   -7.4031    1.5199 N   0  0  0  0  0  0  0  0  0  0  0  0
   42.7289   -8.3396    2.2584 C   0  0  0  0  0  0  0  0  0  0  0  0
   43.3878   -9.4532    2.6897 O   0  0  0  0  0  0  0  0  0  0  0  0
   41.4688   -8.0699    2.5111 N   0  0  0  0  0  0  0  0  0  0  0  0
   41.1394   -6.7733    1.9147 C   0  0  0  0  0  0  0  0  0  0  0  0
   44.2639   -7.4388    1.2168 H   0  0  0  0  0  0  0  0  0  0  0  0
   40.8490   -8.6436    3.0170 H   0  0  0  0  0  0  0  0  0  0  0  0
   38.8332   -7.7283    1.3795 C   0  0  0  0  0  0  0  0  0  0  0  0
   38.9440   -9.1582    0.8025 C   0  0  0  0  0  0  0  0  0  0  0  0
   37.7491  -10.0253    1.2195 C   0  0  0  0  0  0  0  0  0  0  0  0
   38.2306  -11.2352    2.0338 C   0  0  0  0  0  0  0  0  0  0  0  0
   38.2482  -12.5354    1.2573 C   0  0  0  0  0  0  0  0  0  0  0  0
   37.7468  -12.6382    0.0869 O   0  0  0  0  0  0  0  0  0  0  0  0
   38.7614  -13.5542    1.8026 O   0  0  0  0  0  0  0  0  0  0  0  0
   39.1319  -13.4896    2.6608 H   0  0  0  0  0  0  0  0  0  0  0  0
 16 17  2  0  0  0
 16 18  1  0  0  0
 16 15  1  0  0  0
 15 14  1  0  0  0
 14 13  1  0  0  0
 13 12  1  0  0  0
 12  1  1  0  0  0
  1  2  1  0  0  0
  1  9  1  0  0  0
  2  3  1  0  0  0
  3  4  1  0  0  0
  4  5  1  0  0  0
  4  9  1  0  0  0
  5  6  1  0  0  0
  6  7  2  0  0  0
  6  8  1  0  0  0
  8  9  1  0  0  0
 18 19  1  0  0  0
  5 10  1  0  0  0
  8 11  1  0  0  0
M  END
> <minimizedAffinity>
-5.83746

$$$$
4GGZ_BTN_A_900


 19 20  0  0  0  0  0  0  0  0999 V2000
   38.0860  -14.2057   -0.0866 C   0  0  0  0  0  0  0  0  0  0  0  0
   37.4248  -15.6412    0.5183 S   0  0  0  0  0  0  0  0  0  0  0  0
   37.3954  -16.3030   -1.1721 C   0  0  0  0  0  0  0  0  0  0  0  0
   38.7191  -15.8772   -1.8083 C   0  0  0  0  0  0  0  0  0  0  0  0
   39.7697  -16.8295   -1.5146 N   0  0  0  0  0  0  0  0  0  0  0  0
   40.7006  -16.2674   -0.7408 C   0  0  0  0  0  0  0  0  0  0  0  0
   41.8128  -16.9455   -0.3367 O   0  0  0  0  0  0  0  0  0  0  0  0
   40.4256  -15.0231   -0.4239 N   0  0  0  0  0  0  0  0  0  0  0  0
   39.1714  -14.6404   -1.0765 C   0  0  0  0  0  0  0  0  0  0  0  0
   39.7939  -17.7586   -1.8393 H   0  0  0  0  0  0  0  0  0  0  0  0
   40.9715  -14.4439    0.1557 H   0  0  0  0  0  0  0  0  0  0  0  0
   38.6307  -13.2714    1.0093 C   0  0  0  0  0  0  0  0  0  0  0  0
   38.4763  -11.7912    0.5909 C   0  0  0  0  0  0  0  0  0  0  0  0
   38.4874  -10.8599    1.8100 C   0  0  0  0  0  0  0  0  0  0  0  0
   38.5246   -9.3931    1.3562 C   0  0  0  0  0  0  0  0  0  0  0  0
   39.9156   -8.7964    1.3069 C   0  0  0  0  0  0  0  0  0  0  0  0
   40.3454   -8.1497    0.2925 O   0  0  0  0  0  0  0  0  0  0  0  0
   40.6782   -8.9665    2.3010 O   0  0  0  0  0  0  0  0  0  0  0  0
   40.3729   -9.4394    3.0501 H   0  0  0  0  0  0  0  0  0  0  0  0
 16 17  2  0  0  0
 16 18  1  0  0  0
 16 15  1  0  0  0
 15 14  1  0  0  0
 14 13  1  0  0  0
 13 12  1  0  0  0
 12  1  1  0  0  0
  1  2  1  0  0  0
  1  9  1  0  0  0
  2  3  1  0  0  0
  3  4  1  0  0  0
  4  5  1  0  0  0
  4  9  1  0  0  0
  5  6  1  0  0  0
  6  7  2  0  0  0
  6  8  1  0  0  0
  8  9  1  0  0  0
 18 19  1  0  0  0
  5 10  1  0  0  0
  8 11  1  0  0  0
M  END
> <minimizedAffinity>
-5.81977

$$$$
