4X5P_3XJ_A_301


 37 39  0  0  0  0  0  0  0  0999 V2000
   -6.0952   46.7480  -10.6012 C   0  0  0  0  0  0  0  0  0  0  0  0
   -4.7476   46.5676  -10.3516 C   0  0  0  0  0  0  0  0  0  0  0  0
   -6.5018   47.7441  -11.5081 C   0  0  0  0  0  0  0  0  0  0  0  0
   -5.5383   48.5118  -12.1219 C   0  0  0  0  0  0  0  0  0  0  0  0
   -4.2138   48.3217  -11.8588 C   0  0  0  0  0  0  0  0  0  0  0  0
   -4.2590   45.3129   -9.2966 Cl  0  0  0  0  0  0  0  0  0  0  0  0
   -3.7978   47.3473  -10.9638 C   0  0  0  0  0  0  0  0  0  0  0  0
   -8.7515   47.4625  -12.6588 C   0  0  0  0  0  0  0  0  0  0  0  0
   -8.3744   46.6663  -13.4151 O   0  0  0  0  0  0  0  0  0  0  0  0
   -7.8601   48.0270  -11.7494 N   0  0  0  0  0  0  0  0  0  0  0  0
   -8.2408   48.7380  -11.1847 H   0  0  0  0  0  0  0  0  0  0  0  0
  -10.1419   47.9573  -12.6756 C   0  0  0  0  0  0  0  0  0  0  0  0
  -11.1533   46.9800  -12.6764 C   0  0  0  0  0  0  0  0  0  0  0  0
  -12.4863   47.3464  -12.5685 C   0  0  0  0  0  0  0  0  0  0  0  0
  -12.8270   48.6800  -12.4628 C   0  0  0  0  0  0  0  0  0  0  0  0
  -11.8200   49.6604  -12.4728 C   0  0  0  0  0  0  0  0  0  0  0  0
  -10.4827   49.3037  -12.5928 C   0  0  0  0  0  0  0  0  0  0  0  0
  -14.8182   49.6911  -13.3282 O   0  0  0  0  0  0  0  0  0  0  0  0
  -14.3143   49.0688  -12.3658 C   0  0  0  0  0  0  0  0  0  0  0  0
  -14.9198   48.7178  -11.3269 O   0  0  0  0  0  0  0  0  0  0  0  0
  -14.2904   49.9148  -14.0694 H   0  0  0  0  0  0  0  0  0  0  0  0
   -2.4801   47.0643  -10.6640 O   0  0  0  0  0  0  0  0  0  0  0  0
   -2.3288   49.0462   -9.4640 O   0  0  0  0  0  0  0  0  0  0  0  0
   -2.6557   47.2834   -6.2858 O   0  0  0  0  0  0  0  0  0  0  0  0
   -0.2002   46.2679   -7.2547 O   0  0  0  0  0  0  0  0  0  0  0  0
    0.3912   48.3648   -9.0465 O   0  0  0  0  0  0  0  0  0  0  0  0
   -1.6577   48.0566  -10.1777 C   0  0  0  0  0  0  0  0  0  0  0  0
   -2.9992   48.5200   -8.3135 C   0  0  0  0  0  0  0  0  0  0  0  0
   -0.6037   47.4134   -9.3404 C   0  0  0  0  0  0  0  0  0  0  0  0
   -1.1585   46.8340   -8.0945 C   0  0  0  0  0  0  0  0  0  0  0  0
   -2.0193   47.8345   -7.3904 C   0  0  0  0  0  0  0  0  0  0  0  0
   -1.9994   46.8526   -5.7160 H   0  0  0  0  0  0  0  0  0  0  0  0
    0.3308   45.6286   -7.7549 H   0  0  0  0  0  0  0  0  0  0  0  0
    0.7416   48.7321   -9.8731 H   0  0  0  0  0  0  0  0  0  0  0  0
   -2.9062   50.4604   -6.8806 O   0  0  0  0  0  0  0  0  0  0  0  0
   -3.7609   49.6687   -7.6974 C   0  0  0  0  0  0  0  0  0  0  0  0
   -3.4137   51.1915   -6.4950 H   0  0  0  0  0  0  0  0  0  0  0  0
 20 19  2  0  0  0
 14 13  2  0  0  0
 14 15  1  0  0  0
 19 15  1  0  0  0
 19 18  1  0  0  0
 13 12  1  0  0  0
 15 16  2  0  0  0
 12  8  1  0  0  0
 12 17  2  0  0  0
 16 17  1  0  0  0
  8 10  1  0  0  0
  8  9  2  0  0  0
 10  3  1  0  0  0
  4  3  2  0  0  0
  4  5  1  0  0  0
  3  1  1  0  0  0
  5  7  2  0  0  0
  1  2  2  0  0  0
  7  2  1  0  0  0
  7 22  1  0  0  0
  2  6  1  0  0  0
 22 27  1  0  0  0
 27 29  1  0  0  0
 27 23  1  0  0  0
 29 26  1  0  0  0
 29 30  1  0  0  0
 23 28  1  0  0  0
 30 25  1  0  0  0
 30 31  1  0  0  0
 28 31  1  0  0  0
 28 36  1  0  0  0
 31 24  1  0  0  0
 36 35  1  0  0  0
 18 21  1  0  0  0
 24 32  1  0  0  0
 25 33  1  0  0  0
 26 34  1  0  0  0
 35 37  1  0  0  0
 10 11  1  0  0  0
M  END
> <minimizedAffinity>
-9.15230

$$$$
4X5P_3XJ_A_301


 37 39  0  0  0  0  0  0  0  0999 V2000
   -5.4716   47.8600  -12.5676 C   0  0  0  0  0  0  0  0  0  0  0  0
   -4.1679   47.5642  -12.2157 C   0  0  0  0  0  0  0  0  0  0  0  0
   -6.4907   47.7388  -11.6049 C   0  0  0  0  0  0  0  0  0  0  0  0
   -6.1545   47.3274  -10.3352 C   0  0  0  0  0  0  0  0  0  0  0  0
   -4.8631   47.0356  -10.0087 C   0  0  0  0  0  0  0  0  0  0  0  0
   -2.9268   47.7751  -13.3737 Cl  0  0  0  0  0  0  0  0  0  0  0  0
   -3.8484   47.1456  -10.9478 C   0  0  0  0  0  0  0  0  0  0  0  0
   -8.5353   49.1349  -12.1836 C   0  0  0  0  0  0  0  0  0  0  0  0
   -7.9864   50.1538  -12.0904 O   0  0  0  0  0  0  0  0  0  0  0  0
   -7.8465   47.9533  -11.9194 N   0  0  0  0  0  0  0  0  0  0  0  0
   -8.3957   47.1372  -11.9589 H   0  0  0  0  0  0  0  0  0  0  0  0
   -9.9735   49.0503  -12.5042 C   0  0  0  0  0  0  0  0  0  0  0  0
  -10.4833   47.7640  -12.7564 C   0  0  0  0  0  0  0  0  0  0  0  0
  -11.8433   47.5704  -12.9455 C   0  0  0  0  0  0  0  0  0  0  0  0
  -12.7059   48.6468  -12.8898 C   0  0  0  0  0  0  0  0  0  0  0  0
  -12.1992   49.9353  -12.6491 C   0  0  0  0  0  0  0  0  0  0  0  0
  -10.8369   50.1409  -12.4707 C   0  0  0  0  0  0  0  0  0  0  0  0
  -14.8399   47.7573  -12.2642 O   0  0  0  0  0  0  0  0  0  0  0  0
  -14.2106   48.4149  -13.1240 C   0  0  0  0  0  0  0  0  0  0  0  0
  -14.7017   48.9183  -14.1606 O   0  0  0  0  0  0  0  0  0  0  0  0
  -14.3920   47.4154  -11.5156 H   0  0  0  0  0  0  0  0  0  0  0  0
   -2.5126   46.9037  -10.6960 O   0  0  0  0  0  0  0  0  0  0  0  0
   -2.3575   48.9460   -9.6026 O   0  0  0  0  0  0  0  0  0  0  0  0
   -2.5423   47.3409   -6.3307 O   0  0  0  0  0  0  0  0  0  0  0  0
   -0.1028   46.3196   -7.3334 O   0  0  0  0  0  0  0  0  0  0  0  0
    0.3875   48.3330   -9.2473 O   0  0  0  0  0  0  0  0  0  0  0  0
   -1.6928   47.9332  -10.2891 C   0  0  0  0  0  0  0  0  0  0  0  0
   -2.9781   48.4673   -8.4043 C   0  0  0  0  0  0  0  0  0  0  0  0
   -0.5988   47.3511   -9.4582 C   0  0  0  0  0  0  0  0  0  0  0  0
   -1.0997   46.8261   -8.1662 C   0  0  0  0  0  0  0  0  0  0  0  0
   -1.9545   47.8461   -7.4831 C   0  0  0  0  0  0  0  0  0  0  0  0
   -1.8589   46.9507   -5.7636 H   0  0  0  0  0  0  0  0  0  0  0  0
    0.4227   45.6649   -7.8194 H   0  0  0  0  0  0  0  0  0  0  0  0
    0.7025   48.6639  -10.1030 H   0  0  0  0  0  0  0  0  0  0  0  0
   -2.9127   50.3855   -6.9404 O   0  0  0  0  0  0  0  0  0  0  0  0
   -3.7396   49.6326   -7.8200 C   0  0  0  0  0  0  0  0  0  0  0  0
   -3.4197   51.1281   -6.5763 H   0  0  0  0  0  0  0  0  0  0  0  0
 20 19  2  0  0  0
 14 13  2  0  0  0
 14 15  1  0  0  0
 19 15  1  0  0  0
 19 18  1  0  0  0
 13 12  1  0  0  0
 15 16  2  0  0  0
 12  8  1  0  0  0
 12 17  2  0  0  0
 16 17  1  0  0  0
  8 10  1  0  0  0
  8  9  2  0  0  0
 10  3  1  0  0  0
  4  3  2  0  0  0
  4  5  1  0  0  0
  3  1  1  0  0  0
  5  7  2  0  0  0
  1  2  2  0  0  0
  7  2  1  0  0  0
  7 22  1  0  0  0
  2  6  1  0  0  0
 22 27  1  0  0  0
 27 29  1  0  0  0
 27 23  1  0  0  0
 29 26  1  0  0  0
 29 30  1  0  0  0
 23 28  1  0  0  0
 30 25  1  0  0  0
 30 31  1  0  0  0
 28 31  1  0  0  0
 28 36  1  0  0  0
 31 24  1  0  0  0
 36 35  1  0  0  0
 18 21  1  0  0  0
 24 32  1  0  0  0
 25 33  1  0  0  0
 26 34  1  0  0  0
 35 37  1  0  0  0
 10 11  1  0  0  0
M  END
> <minimizedAffinity>
-8.20076

$$$$
4X5P_3XJ_A_301


 37 39  0  0  0  0  0  0  0  0999 V2000
   -6.0573   49.1284  -10.4353 C   0  0  0  0  0  0  0  0  0  0  0  0
   -4.7100   48.9498  -10.1825 C   0  0  0  0  0  0  0  0  0  0  0  0
   -6.5921   48.6973  -11.6634 C   0  0  0  0  0  0  0  0  0  0  0  0
   -5.7512   48.1072  -12.5794 C   0  0  0  0  0  0  0  0  0  0  0  0
   -4.4237   47.9442  -12.3133 C   0  0  0  0  0  0  0  0  0  0  0  0
   -4.0808   49.4188   -8.6627 Cl  0  0  0  0  0  0  0  0  0  0  0  0
   -3.8809   48.3683  -11.1096 C   0  0  0  0  0  0  0  0  0  0  0  0
   -8.6060   50.0951  -12.3374 C   0  0  0  0  0  0  0  0  0  0  0  0
   -8.0444   51.1096  -12.2774 O   0  0  0  0  0  0  0  0  0  0  0  0
   -7.9390   48.9167  -12.0112 N   0  0  0  0  0  0  0  0  0  0  0  0
   -8.4990   48.1071  -12.0262 H   0  0  0  0  0  0  0  0  0  0  0  0
  -10.0395   50.0165  -12.6803 C   0  0  0  0  0  0  0  0  0  0  0  0
  -10.6535   48.7618  -12.5169 C   0  0  0  0  0  0  0  0  0  0  0  0
  -12.0211   48.6187  -12.6959 C   0  0  0  0  0  0  0  0  0  0  0  0
  -12.7882   49.7135  -13.0406 C   0  0  0  0  0  0  0  0  0  0  0  0
  -12.1768   50.9668  -13.2157 C   0  0  0  0  0  0  0  0  0  0  0  0
  -10.8056   51.1173  -13.0505 C   0  0  0  0  0  0  0  0  0  0  0  0
  -15.0720   50.3614  -12.7231 O   0  0  0  0  0  0  0  0  0  0  0  0
  -14.3023   49.5303  -13.2564 C   0  0  0  0  0  0  0  0  0  0  0  0
  -14.6550   48.5618  -13.9683 O   0  0  0  0  0  0  0  0  0  0  0  0
  -14.7218   51.0583  -12.2038 H   0  0  0  0  0  0  0  0  0  0  0  0
   -2.5586   48.2133  -10.7438 O   0  0  0  0  0  0  0  0  0  0  0  0
   -0.6565   46.9449  -10.3391 O   0  0  0  0  0  0  0  0  0  0  0  0
   -1.2689   46.9608   -6.7419 O   0  0  0  0  0  0  0  0  0  0  0  0
   -3.5039   45.5147   -7.6976 O   0  0  0  0  0  0  0  0  0  0  0  0
   -2.4058   44.7203  -10.1715 O   0  0  0  0  0  0  0  0  0  0  0  0
   -1.9801   46.9635  -10.7712 C   0  0  0  0  0  0  0  0  0  0  0  0
   -0.5259   47.3869   -8.9835 C   0  0  0  0  0  0  0  0  0  0  0  0
   -2.8243   46.0461   -9.9516 C   0  0  0  0  0  0  0  0  0  0  0  0
   -2.7706   46.3797   -8.5088 C   0  0  0  0  0  0  0  0  0  0  0  0
   -1.3517   46.5248   -8.0578 C   0  0  0  0  0  0  0  0  0  0  0  0
   -1.8091   46.3868   -6.1765 H   0  0  0  0  0  0  0  0  0  0  0  0
   -4.4135   45.4538   -8.0290 H   0  0  0  0  0  0  0  0  0  0  0  0
   -2.4478   44.5210  -11.1199 H   0  0  0  0  0  0  0  0  0  0  0  0
    1.5140   48.6770   -9.0203 O   0  0  0  0  0  0  0  0  0  0  0  0
    0.9530   47.4142   -8.6812 C   0  0  0  0  0  0  0  0  0  0  0  0
    2.4629   48.6739   -8.8189 H   0  0  0  0  0  0  0  0  0  0  0  0
 20 19  2  0  0  0
 14 13  2  0  0  0
 14 15  1  0  0  0
 19 15  1  0  0  0
 19 18  1  0  0  0
 13 12  1  0  0  0
 15 16  2  0  0  0
 12  8  1  0  0  0
 12 17  2  0  0  0
 16 17  1  0  0  0
  8 10  1  0  0  0
  8  9  2  0  0  0
 10  3  1  0  0  0
  4  3  2  0  0  0
  4  5  1  0  0  0
  3  1  1  0  0  0
  5  7  2  0  0  0
  1  2  2  0  0  0
  7  2  1  0  0  0
  7 22  1  0  0  0
  2  6  1  0  0  0
 22 27  1  0  0  0
 27 29  1  0  0  0
 27 23  1  0  0  0
 29 26  1  0  0  0
 29 30  1  0  0  0
 23 28  1  0  0  0
 30 25  1  0  0  0
 30 31  1  0  0  0
 28 31  1  0  0  0
 28 36  1  0  0  0
 31 24  1  0  0  0
 36 35  1  0  0  0
 18 21  1  0  0  0
 24 32  1  0  0  0
 25 33  1  0  0  0
 26 34  1  0  0  0
 35 37  1  0  0  0
 10 11  1  0  0  0
M  END
> <minimizedAffinity>
-7.54788

$$$$
4X5P_3XJ_A_301


 37 39  0  0  0  0  0  0  0  0999 V2000
   -5.3329   46.8766  -13.1304 C   0  0  0  0  0  0  0  0  0  0  0  0
   -4.1678   46.7432  -12.3984 C   0  0  0  0  0  0  0  0  0  0  0  0
   -6.5277   47.2171  -12.4697 C   0  0  0  0  0  0  0  0  0  0  0  0
   -6.4978   47.4082  -11.1070 C   0  0  0  0  0  0  0  0  0  0  0  0
   -5.3392   47.2673  -10.4018 C   0  0  0  0  0  0  0  0  0  0  0  0
   -2.7080   46.3914  -13.2176 Cl  0  0  0  0  0  0  0  0  0  0  0  0
   -4.1547   46.9272  -11.0379 C   0  0  0  0  0  0  0  0  0  0  0  0
   -8.6808   46.2992  -13.4626 C   0  0  0  0  0  0  0  0  0  0  0  0
   -8.4368   45.1912  -13.2157 O   0  0  0  0  0  0  0  0  0  0  0  0
   -7.7605   47.2956  -13.1460 N   0  0  0  0  0  0  0  0  0  0  0  0
   -8.0122   48.2000  -13.4427 H   0  0  0  0  0  0  0  0  0  0  0  0
   -9.9144   46.6860  -14.1748 C   0  0  0  0  0  0  0  0  0  0  0  0
  -11.0956   46.7097  -13.4118 C   0  0  0  0  0  0  0  0  0  0  0  0
  -12.2796   47.1773  -13.9618 C   0  0  0  0  0  0  0  0  0  0  0  0
  -12.3032   47.6204  -15.2690 C   0  0  0  0  0  0  0  0  0  0  0  0
  -11.1275   47.5880  -16.0383 C   0  0  0  0  0  0  0  0  0  0  0  0
   -9.9395   47.1098  -15.4998 C   0  0  0  0  0  0  0  0  0  0  0  0
  -14.0391   49.2501  -15.5289 O   0  0  0  0  0  0  0  0  0  0  0  0
  -13.6327   48.1158  -15.8690 C   0  0  0  0  0  0  0  0  0  0  0  0
  -14.2080   47.3454  -16.6719 O   0  0  0  0  0  0  0  0  0  0  0  0
  -13.5441   49.7619  -14.9197 H   0  0  0  0  0  0  0  0  0  0  0  0
   -2.9323   46.7968  -10.4093 O   0  0  0  0  0  0  0  0  0  0  0  0
   -2.7567   48.8643   -9.3677 O   0  0  0  0  0  0  0  0  0  0  0  0
   -2.0785   47.3099   -6.1367 O   0  0  0  0  0  0  0  0  0  0  0  0
    0.1832   46.5188   -7.6395 O   0  0  0  0  0  0  0  0  0  0  0  0
    0.0489   48.5352   -9.6077 O   0  0  0  0  0  0  0  0  0  0  0  0
   -2.1537   47.9104  -10.1833 C   0  0  0  0  0  0  0  0  0  0  0  0
   -3.0569   48.3485   -8.0662 C   0  0  0  0  0  0  0  0  0  0  0  0
   -0.8549   47.4560   -9.6065 C   0  0  0  0  0  0  0  0  0  0  0  0
   -1.0141   46.9078   -8.2391 C   0  0  0  0  0  0  0  0  0  0  0  0
   -1.8033   47.8498   -7.3863 C   0  0  0  0  0  0  0  0  0  0  0  0
   -1.2543   47.0006   -5.7295 H   0  0  0  0  0  0  0  0  0  0  0  0
    0.6571   45.9110   -8.2284 H   0  0  0  0  0  0  0  0  0  0  0  0
    0.1397   48.8799  -10.5098 H   0  0  0  0  0  0  0  0  0  0  0  0
   -2.8968   50.4803   -6.9452 O   0  0  0  0  0  0  0  0  0  0  0  0
   -3.7912   49.4426   -7.3293 C   0  0  0  0  0  0  0  0  0  0  0  0
   -3.3872   51.1720   -6.4741 H   0  0  0  0  0  0  0  0  0  0  0  0
 20 19  2  0  0  0
 14 13  2  0  0  0
 14 15  1  0  0  0
 19 15  1  0  0  0
 19 18  1  0  0  0
 13 12  1  0  0  0
 15 16  2  0  0  0
 12  8  1  0  0  0
 12 17  2  0  0  0
 16 17  1  0  0  0
  8 10  1  0  0  0
  8  9  2  0  0  0
 10  3  1  0  0  0
  4  3  2  0  0  0
  4  5  1  0  0  0
  3  1  1  0  0  0
  5  7  2  0  0  0
  1  2  2  0  0  0
  7  2  1  0  0  0
  7 22  1  0  0  0
  2  6  1  0  0  0
 22 27  1  0  0  0
 27 29  1  0  0  0
 27 23  1  0  0  0
 29 26  1  0  0  0
 29 30  1  0  0  0
 23 28  1  0  0  0
 30 25  1  0  0  0
 30 31  1  0  0  0
 28 31  1  0  0  0
 28 36  1  0  0  0
 31 24  1  0  0  0
 36 35  1  0  0  0
 18 21  1  0  0  0
 24 32  1  0  0  0
 25 33  1  0  0  0
 26 34  1  0  0  0
 35 37  1  0  0  0
 10 11  1  0  0  0
M  END
> <minimizedAffinity>
-7.48167

$$$$
4X5P_3XJ_A_301


 37 39  0  0  0  0  0  0  0  0999 V2000
   -6.4597   48.3528  -10.9529 C   0  0  0  0  0  0  0  0  0  0  0  0
   -5.1381   48.3110  -10.5495 C   0  0  0  0  0  0  0  0  0  0  0  0
   -6.9444   47.3666  -11.8318 C   0  0  0  0  0  0  0  0  0  0  0  0
   -6.0817   46.3853  -12.2643 C   0  0  0  0  0  0  0  0  0  0  0  0
   -4.7799   46.3639  -11.8587 C   0  0  0  0  0  0  0  0  0  0  0  0
   -4.5737   49.4762   -9.4316 Cl  0  0  0  0  0  0  0  0  0  0  0  0
   -4.2861   47.3316  -10.9966 C   0  0  0  0  0  0  0  0  0  0  0  0
   -8.7793   48.0355  -13.4598 C   0  0  0  0  0  0  0  0  0  0  0  0
   -8.0960   48.7234  -14.0987 O   0  0  0  0  0  0  0  0  0  0  0  0
   -8.2584   47.3956  -12.3375 N   0  0  0  0  0  0  0  0  0  0  0  0
   -8.9142   46.8810  -11.8138 H   0  0  0  0  0  0  0  0  0  0  0  0
  -10.2159   47.8712  -13.7559 C   0  0  0  0  0  0  0  0  0  0  0  0
  -11.0789   47.8033  -12.6474 C   0  0  0  0  0  0  0  0  0  0  0  0
  -12.4536   47.7725  -12.8265 C   0  0  0  0  0  0  0  0  0  0  0  0
  -12.9824   47.8050  -14.1013 C   0  0  0  0  0  0  0  0  0  0  0  0
  -12.1231   47.8616  -15.2120 C   0  0  0  0  0  0  0  0  0  0  0  0
  -10.7443   47.8805  -15.0429 C   0  0  0  0  0  0  0  0  0  0  0  0
  -15.0144   46.6637  -14.6534 O   0  0  0  0  0  0  0  0  0  0  0  0
  -14.5112   47.7479  -14.2808 C   0  0  0  0  0  0  0  0  0  0  0  0
  -15.1462   48.7969  -14.0247 O   0  0  0  0  0  0  0  0  0  0  0  0
  -14.4631   45.9254  -14.8239 H   0  0  0  0  0  0  0  0  0  0  0  0
   -2.9947   47.3676  -10.5096 O   0  0  0  0  0  0  0  0  0  0  0  0
   -1.0858   46.2721   -9.7702 O   0  0  0  0  0  0  0  0  0  0  0  0
   -0.7303   48.5524   -6.9437 O   0  0  0  0  0  0  0  0  0  0  0  0
   -3.1737   47.2637   -6.3368 O   0  0  0  0  0  0  0  0  0  0  0  0
   -2.7852   44.9605   -7.9184 O   0  0  0  0  0  0  0  0  0  0  0  0
   -2.4756   46.2710   -9.8574 C   0  0  0  0  0  0  0  0  0  0  0  0
   -0.5922   47.4048   -9.0467 C   0  0  0  0  0  0  0  0  0  0  0  0
   -3.0975   46.2023   -8.5030 C   0  0  0  0  0  0  0  0  0  0  0  0
   -2.6579   47.3169   -7.6311 C   0  0  0  0  0  0  0  0  0  0  0  0
   -1.1672   47.4394   -7.6500 C   0  0  0  0  0  0  0  0  0  0  0  0
   -1.1171   48.5432   -6.0542 H   0  0  0  0  0  0  0  0  0  0  0  0
   -4.1397   47.1848   -6.3767 H   0  0  0  0  0  0  0  0  0  0  0  0
   -3.0801   44.2447   -8.5028 H   0  0  0  0  0  0  0  0  0  0  0  0
    1.4924   48.5965   -8.7999 O   0  0  0  0  0  0  0  0  0  0  0  0
    0.9143   47.3354   -9.1157 C   0  0  0  0  0  0  0  0  0  0  0  0
    2.4589   48.5308   -8.8499 H   0  0  0  0  0  0  0  0  0  0  0  0
 20 19  2  0  0  0
 14 13  2  0  0  0
 14 15  1  0  0  0
 19 15  1  0  0  0
 19 18  1  0  0  0
 13 12  1  0  0  0
 15 16  2  0  0  0
 12  8  1  0  0  0
 12 17  2  0  0  0
 16 17  1  0  0  0
  8 10  1  0  0  0
  8  9  2  0  0  0
 10  3  1  0  0  0
  4  3  2  0  0  0
  4  5  1  0  0  0
  3  1  1  0  0  0
  5  7  2  0  0  0
  1  2  2  0  0  0
  7  2  1  0  0  0
  7 22  1  0  0  0
  2  6  1  0  0  0
 22 27  1  0  0  0
 27 29  1  0  0  0
 27 23  1  0  0  0
 29 26  1  0  0  0
 29 30  1  0  0  0
 23 28  1  0  0  0
 30 25  1  0  0  0
 30 31  1  0  0  0
 28 31  1  0  0  0
 28 36  1  0  0  0
 31 24  1  0  0  0
 36 35  1  0  0  0
 18 21  1  0  0  0
 24 32  1  0  0  0
 25 33  1  0  0  0
 26 34  1  0  0  0
 35 37  1  0  0  0
 10 11  1  0  0  0
M  END
> <minimizedAffinity>
-7.45659

$$$$
4X5P_3XJ_A_301


 37 39  0  0  0  0  0  0  0  0999 V2000
   -7.2305   48.3040  -11.7063 C   0  0  0  0  0  0  0  0  0  0  0  0
   -6.0395   47.8235  -11.1948 C   0  0  0  0  0  0  0  0  0  0  0  0
   -7.2278   49.4897  -12.4639 C   0  0  0  0  0  0  0  0  0  0  0  0
   -6.0314   50.1371  -12.6733 C   0  0  0  0  0  0  0  0  0  0  0  0
   -4.8675   49.6497  -12.1563 C   0  0  0  0  0  0  0  0  0  0  0  0
   -6.0424   46.3483  -10.3290 Cl  0  0  0  0  0  0  0  0  0  0  0  0
   -4.8547   48.4851  -11.4035 C   0  0  0  0  0  0  0  0  0  0  0  0
   -9.1445   51.1601  -12.4794 C   0  0  0  0  0  0  0  0  0  0  0  0
   -8.8179   51.6915  -11.5000 O   0  0  0  0  0  0  0  0  0  0  0  0
   -8.4155   50.0702  -12.9493 N   0  0  0  0  0  0  0  0  0  0  0  0
   -8.7907   49.6360  -13.7493 H   0  0  0  0  0  0  0  0  0  0  0  0
  -10.3619   51.5572  -13.2134 C   0  0  0  0  0  0  0  0  0  0  0  0
  -10.9468   50.5745  -14.0321 C   0  0  0  0  0  0  0  0  0  0  0  0
  -12.1578   50.8140  -14.6637 C   0  0  0  0  0  0  0  0  0  0  0  0
  -12.7952   52.0265  -14.4925 C   0  0  0  0  0  0  0  0  0  0  0  0
  -12.2086   53.0152  -13.6840 C   0  0  0  0  0  0  0  0  0  0  0  0
  -10.9897   52.7890  -13.0572 C   0  0  0  0  0  0  0  0  0  0  0  0
  -14.5476   53.4608  -15.2725 O   0  0  0  0  0  0  0  0  0  0  0  0
  -14.1289   52.2820  -15.2197 C   0  0  0  0  0  0  0  0  0  0  0  0
  -14.6949   51.2837  -15.7218 O   0  0  0  0  0  0  0  0  0  0  0  0
  -14.0589   54.1502  -14.8677 H   0  0  0  0  0  0  0  0  0  0  0  0
   -3.7211   47.9034  -10.8716 O   0  0  0  0  0  0  0  0  0  0  0  0
   -3.0976   49.4475   -9.2539 O   0  0  0  0  0  0  0  0  0  0  0  0
   -2.7989   46.8430   -6.7156 O   0  0  0  0  0  0  0  0  0  0  0  0
   -0.7603   46.1085   -8.5334 O   0  0  0  0  0  0  0  0  0  0  0  0
   -0.4333   48.6247   -9.7659 O   0  0  0  0  0  0  0  0  0  0  0  0
   -2.7163   48.6962  -10.3625 C   0  0  0  0  0  0  0  0  0  0  0  0
   -3.5119   48.6219   -8.1600 C   0  0  0  0  0  0  0  0  0  0  0  0
   -1.5538   47.8182  -10.0408 C   0  0  0  0  0  0  0  0  0  0  0  0
   -1.8382   46.9118   -8.9036 C   0  0  0  0  0  0  0  0  0  0  0  0
   -2.4039   47.6798   -7.7512 C   0  0  0  0  0  0  0  0  0  0  0  0
   -2.0661   46.2533   -6.4789 H   0  0  0  0  0  0  0  0  0  0  0  0
   -0.4295   45.6327   -9.3112 H   0  0  0  0  0  0  0  0  0  0  0  0
   -0.2633   49.2100  -10.5205 H   0  0  0  0  0  0  0  0  0  0  0  0
   -3.0716   50.6269   -6.8899 O   0  0  0  0  0  0  0  0  0  0  0  0
   -3.9896   49.5555   -7.0740 C   0  0  0  0  0  0  0  0  0  0  0  0
   -3.3963   51.2140   -6.1893 H   0  0  0  0  0  0  0  0  0  0  0  0
 20 19  2  0  0  0
 14 13  2  0  0  0
 14 15  1  0  0  0
 19 15  1  0  0  0
 19 18  1  0  0  0
 13 12  1  0  0  0
 15 16  2  0  0  0
 12  8  1  0  0  0
 12 17  2  0  0  0
 16 17  1  0  0  0
  8 10  1  0  0  0
  8  9  2  0  0  0
 10  3  1  0  0  0
  4  3  2  0  0  0
  4  5  1  0  0  0
  3  1  1  0  0  0
  5  7  2  0  0  0
  1  2  2  0  0  0
  7  2  1  0  0  0
  7 22  1  0  0  0
  2  6  1  0  0  0
 22 27  1  0  0  0
 27 29  1  0  0  0
 27 23  1  0  0  0
 29 26  1  0  0  0
 29 30  1  0  0  0
 23 28  1  0  0  0
 30 25  1  0  0  0
 30 31  1  0  0  0
 28 31  1  0  0  0
 28 36  1  0  0  0
 31 24  1  0  0  0
 36 35  1  0  0  0
 18 21  1  0  0  0
 24 32  1  0  0  0
 25 33  1  0  0  0
 26 34  1  0  0  0
 35 37  1  0  0  0
 10 11  1  0  0  0
M  END
> <minimizedAffinity>
-7.37856

$$$$
4X5P_3XJ_A_301


 37 39  0  0  0  0  0  0  0  0999 V2000
   -7.7383   50.6207  -12.2249 C   0  0  0  0  0  0  0  0  0  0  0  0
   -8.9414   50.8941  -12.8482 C   0  0  0  0  0  0  0  0  0  0  0  0
   -7.3962   49.2857  -11.9404 C   0  0  0  0  0  0  0  0  0  0  0  0
   -8.2760   48.2884  -12.2946 C   0  0  0  0  0  0  0  0  0  0  0  0
   -9.4605   48.5787  -12.9048 C   0  0  0  0  0  0  0  0  0  0  0  0
   -9.3209   52.5135  -13.2475 Cl  0  0  0  0  0  0  0  0  0  0  0  0
   -9.8140   49.8897  -13.1873 C   0  0  0  0  0  0  0  0  0  0  0  0
   -4.8887   48.9860  -11.6457 C   0  0  0  0  0  0  0  0  0  0  0  0
   -4.6272   49.2766  -12.7390 O   0  0  0  0  0  0  0  0  0  0  0  0
   -6.2212   48.9470  -11.2419 N   0  0  0  0  0  0  0  0  0  0  0  0
   -6.3646   48.6320  -10.3202 H   0  0  0  0  0  0  0  0  0  0  0  0
   -3.8514   48.5805  -10.6772 C   0  0  0  0  0  0  0  0  0  0  0  0
   -4.1496   48.7871   -9.3184 C   0  0  0  0  0  0  0  0  0  0  0  0
   -3.2911   48.3269   -8.3314 C   0  0  0  0  0  0  0  0  0  0  0  0
   -2.1323   47.6636   -8.6818 C   0  0  0  0  0  0  0  0  0  0  0  0
   -1.8251   47.4648  -10.0388 C   0  0  0  0  0  0  0  0  0  0  0  0
   -2.6729   47.9330  -11.0348 C   0  0  0  0  0  0  0  0  0  0  0  0
   -0.0682   46.7197   -7.9170 O   0  0  0  0  0  0  0  0  0  0  0  0
   -1.1806   47.1790   -7.5718 C   0  0  0  0  0  0  0  0  0  0  0  0
   -1.5880   47.2944   -6.3929 O   0  0  0  0  0  0  0  0  0  0  0  0
    0.1563   46.6691   -8.8253 H   0  0  0  0  0  0  0  0  0  0  0  0
  -10.9744   50.2714  -13.8308 O   0  0  0  0  0  0  0  0  0  0  0  0
  -12.4897   50.7110  -12.1276 O   0  0  0  0  0  0  0  0  0  0  0  0
  -13.5847   53.7963  -13.7393 O   0  0  0  0  0  0  0  0  0  0  0  0
  -14.4084   51.8461  -15.6149 O   0  0  0  0  0  0  0  0  0  0  0  0
  -14.4600   49.6377  -13.8606 O   0  0  0  0  0  0  0  0  0  0  0  0
  -12.1986   49.9750  -13.2732 C   0  0  0  0  0  0  0  0  0  0  0  0
  -12.5287   52.1186  -12.3869 C   0  0  0  0  0  0  0  0  0  0  0  0
  -13.2431   50.1762  -14.3194 C   0  0  0  0  0  0  0  0  0  0  0  0
  -13.4047   51.6050  -14.6776 C   0  0  0  0  0  0  0  0  0  0  0  0
  -13.5578   52.4392  -13.4454 C   0  0  0  0  0  0  0  0  0  0  0  0
  -14.2541   53.9664  -14.4203 H   0  0  0  0  0  0  0  0  0  0  0  0
  -14.2664   51.2841  -16.3926 H   0  0  0  0  0  0  0  0  0  0  0  0
  -14.3343   48.7036  -13.6315 H   0  0  0  0  0  0  0  0  0  0  0  0
  -12.1615   54.0899  -11.0430 O   0  0  0  0  0  0  0  0  0  0  0  0
  -12.7501   52.7947  -11.0553 C   0  0  0  0  0  0  0  0  0  0  0  0
  -12.3146   54.5065  -10.1806 H   0  0  0  0  0  0  0  0  0  0  0  0
 20 19  2  0  0  0
 14 13  2  0  0  0
 14 15  1  0  0  0
 19 15  1  0  0  0
 19 18  1  0  0  0
 13 12  1  0  0  0
 15 16  2  0  0  0
 12  8  1  0  0  0
 12 17  2  0  0  0
 16 17  1  0  0  0
  8 10  1  0  0  0
  8  9  2  0  0  0
 10  3  1  0  0  0
  4  3  2  0  0  0
  4  5  1  0  0  0
  3  1  1  0  0  0
  5  7  2  0  0  0
  1  2  2  0  0  0
  7  2  1  0  0  0
  7 22  1  0  0  0
  2  6  1  0  0  0
 22 27  1  0  0  0
 27 29  1  0  0  0
 27 23  1  0  0  0
 29 26  1  0  0  0
 29 30  1  0  0  0
 23 28  1  0  0  0
 30 25  1  0  0  0
 30 31  1  0  0  0
 28 31  1  0  0  0
 28 36  1  0  0  0
 31 24  1  0  0  0
 36 35  1  0  0  0
 18 21  1  0  0  0
 24 32  1  0  0  0
 25 33  1  0  0  0
 26 34  1  0  0  0
 35 37  1  0  0  0
 10 11  1  0  0  0
M  END
> <minimizedAffinity>
-7.25630

$$$$
4X5P_3XJ_A_301


 37 39  0  0  0  0  0  0  0  0999 V2000
   -8.0489   48.5428  -12.2895 C   0  0  0  0  0  0  0  0  0  0  0  0
   -7.0824   47.9074  -11.5324 C   0  0  0  0  0  0  0  0  0  0  0  0
   -7.8575   49.8845  -12.6678 C   0  0  0  0  0  0  0  0  0  0  0  0
   -6.7064   50.5254  -12.2697 C   0  0  0  0  0  0  0  0  0  0  0  0
   -5.7667   49.8828  -11.5189 C   0  0  0  0  0  0  0  0  0  0  0  0
   -7.2932   46.2582  -11.1307 Cl  0  0  0  0  0  0  0  0  0  0  0  0
   -5.9432   48.5622  -11.1341 C   0  0  0  0  0  0  0  0  0  0  0  0
   -9.6986   51.6158  -12.9460 C   0  0  0  0  0  0  0  0  0  0  0  0
   -9.7154   51.9203  -11.8256 O   0  0  0  0  0  0  0  0  0  0  0  0
   -8.8362   50.6095  -13.3747 N   0  0  0  0  0  0  0  0  0  0  0  0
   -8.9252   50.3659  -14.3245 H   0  0  0  0  0  0  0  0  0  0  0  0
  -10.6218   52.2133  -13.9304 C   0  0  0  0  0  0  0  0  0  0  0  0
  -11.4072   53.2889  -13.4784 C   0  0  0  0  0  0  0  0  0  0  0  0
  -12.2128   53.9921  -14.3613 C   0  0  0  0  0  0  0  0  0  0  0  0
  -12.2492   53.6340  -15.6940 C   0  0  0  0  0  0  0  0  0  0  0  0
  -11.4745   52.5528  -16.1475 C   0  0  0  0  0  0  0  0  0  0  0  0
  -10.6738   51.8346  -15.2682 C   0  0  0  0  0  0  0  0  0  0  0  0
  -12.7386   54.6481  -17.8079 O   0  0  0  0  0  0  0  0  0  0  0  0
  -13.1668   54.4132  -16.6551 C   0  0  0  0  0  0  0  0  0  0  0  0
  -14.2906   54.7456  -16.2127 O   0  0  0  0  0  0  0  0  0  0  0  0
  -11.8817   54.3621  -18.0567 H   0  0  0  0  0  0  0  0  0  0  0  0
   -5.0312   47.8257  -10.4047 O   0  0  0  0  0  0  0  0  0  0  0  0
   -2.9172   48.3625   -9.6086 O   0  0  0  0  0  0  0  0  0  0  0  0
   -2.6591   45.1938   -7.8174 O   0  0  0  0  0  0  0  0  0  0  0  0
   -2.7519   44.3257  -10.5077 O   0  0  0  0  0  0  0  0  0  0  0  0
   -1.9213   46.7392  -11.7087 O   0  0  0  0  0  0  0  0  0  0  0  0
   -3.6862   47.9262  -10.6845 C   0  0  0  0  0  0  0  0  0  0  0  0
   -3.0002   47.4718   -8.4907 C   0  0  0  0  0  0  0  0  0  0  0  0
   -3.2163   46.5980  -11.1754 C   0  0  0  0  0  0  0  0  0  0  0  0
   -3.2336   45.5713  -10.1071 C   0  0  0  0  0  0  0  0  0  0  0  0
   -2.5500   46.0829   -8.8787 C   0  0  0  0  0  0  0  0  0  0  0  0
   -2.3628   44.3146   -8.1004 H   0  0  0  0  0  0  0  0  0  0  0  0
   -3.2240   44.0376  -11.3046 H   0  0  0  0  0  0  0  0  0  0  0  0
   -1.9302   47.4143  -12.4052 H   0  0  0  0  0  0  0  0  0  0  0  0
   -2.3192   47.3455   -6.1783 O   0  0  0  0  0  0  0  0  0  0  0  0
   -2.2110   48.1102   -7.3733 C   0  0  0  0  0  0  0  0  0  0  0  0
   -1.8061   47.7718   -5.4741 H   0  0  0  0  0  0  0  0  0  0  0  0
 20 19  2  0  0  0
 14 13  2  0  0  0
 14 15  1  0  0  0
 19 15  1  0  0  0
 19 18  1  0  0  0
 13 12  1  0  0  0
 15 16  2  0  0  0
 12  8  1  0  0  0
 12 17  2  0  0  0
 16 17  1  0  0  0
  8 10  1  0  0  0
  8  9  2  0  0  0
 10  3  1  0  0  0
  4  3  2  0  0  0
  4  5  1  0  0  0
  3  1  1  0  0  0
  5  7  2  0  0  0
  1  2  2  0  0  0
  7  2  1  0  0  0
  7 22  1  0  0  0
  2  6  1  0  0  0
 22 27  1  0  0  0
 27 29  1  0  0  0
 27 23  1  0  0  0
 29 26  1  0  0  0
 29 30  1  0  0  0
 23 28  1  0  0  0
 30 25  1  0  0  0
 30 31  1  0  0  0
 28 31  1  0  0  0
 28 36  1  0  0  0
 31 24  1  0  0  0
 36 35  1  0  0  0
 18 21  1  0  0  0
 24 32  1  0  0  0
 25 33  1  0  0  0
 26 34  1  0  0  0
 35 37  1  0  0  0
 10 11  1  0  0  0
M  END
> <minimizedAffinity>
-6.88382

$$$$
4X5P_3XJ_A_301


 37 39  0  0  0  0  0  0  0  0999 V2000
   -8.3651   49.8259  -12.0867 C   0  0  0  0  0  0  0  0  0  0  0  0
   -9.6004   49.8528  -12.7066 C   0  0  0  0  0  0  0  0  0  0  0  0
   -7.7114   48.5934  -11.9040 C   0  0  0  0  0  0  0  0  0  0  0  0
   -8.3266   47.4465  -12.3518 C   0  0  0  0  0  0  0  0  0  0  0  0
   -9.5478   47.4931  -12.9568 C   0  0  0  0  0  0  0  0  0  0  0  0
  -10.3591   51.3610  -12.9816 Cl  0  0  0  0  0  0  0  0  0  0  0  0
  -10.2068   48.6997  -13.1397 C   0  0  0  0  0  0  0  0  0  0  0  0
   -5.2813   49.1579  -11.4138 C   0  0  0  0  0  0  0  0  0  0  0  0
   -5.1691   49.8887  -12.3092 O   0  0  0  0  0  0  0  0  0  0  0  0
   -6.4875   48.4904  -11.2149 N   0  0  0  0  0  0  0  0  0  0  0  0
   -6.4839   47.8426  -10.4736 H   0  0  0  0  0  0  0  0  0  0  0  0
   -4.1544   48.8518  -10.5112 C   0  0  0  0  0  0  0  0  0  0  0  0
   -4.3898   49.0266   -9.1356 C   0  0  0  0  0  0  0  0  0  0  0  0
   -3.4344   48.6489   -8.2044 C   0  0  0  0  0  0  0  0  0  0  0  0
   -2.2405   48.1000   -8.6273 C   0  0  0  0  0  0  0  0  0  0  0  0
   -1.9968   47.9338  -10.0014 C   0  0  0  0  0  0  0  0  0  0  0  0
   -2.9429   48.3205  -10.9423 C   0  0  0  0  0  0  0  0  0  0  0  0
   -1.5872   47.2551   -6.4835 O   0  0  0  0  0  0  0  0  0  0  0  0
   -1.1827   47.7067   -7.5789 C   0  0  0  0  0  0  0  0  0  0  0  0
    0.0167   47.8561   -7.9080 O   0  0  0  0  0  0  0  0  0  0  0  0
   -2.5065   47.1767   -6.3199 H   0  0  0  0  0  0  0  0  0  0  0  0
  -11.4267   48.8432  -13.7703 O   0  0  0  0  0  0  0  0  0  0  0  0
  -13.1403   48.6864  -12.2116 O   0  0  0  0  0  0  0  0  0  0  0  0
  -15.0846   51.2610  -13.9164 O   0  0  0  0  0  0  0  0  0  0  0  0
  -15.0270   49.2057  -15.8587 O   0  0  0  0  0  0  0  0  0  0  0  0
  -14.4681   47.0592  -14.1159 O   0  0  0  0  0  0  0  0  0  0  0  0
  -12.5180   48.1297  -13.3259 C   0  0  0  0  0  0  0  0  0  0  0  0
  -13.6370   50.0035  -12.4735 C   0  0  0  0  0  0  0  0  0  0  0  0
  -13.4750   47.9946  -14.4625 C   0  0  0  0  0  0  0  0  0  0  0  0
  -14.0852   49.2928  -14.8342 C   0  0  0  0  0  0  0  0  0  0  0  0
  -14.6194   49.9862  -13.6211 C   0  0  0  0  0  0  0  0  0  0  0  0
  -15.7111   51.2134  -14.6554 H   0  0  0  0  0  0  0  0  0  0  0  0
  -14.6352   48.7502  -16.6202 H   0  0  0  0  0  0  0  0  0  0  0  0
  -14.0499   46.2175  -13.8761 H   0  0  0  0  0  0  0  0  0  0  0  0
  -14.2105   51.9445  -11.1581 O   0  0  0  0  0  0  0  0  0  0  0  0
  -14.1893   50.5219  -11.1676 C   0  0  0  0  0  0  0  0  0  0  0  0
  -14.5680   52.2569  -10.3122 H   0  0  0  0  0  0  0  0  0  0  0  0
 20 19  2  0  0  0
 14 13  2  0  0  0
 14 15  1  0  0  0
 19 15  1  0  0  0
 19 18  1  0  0  0
 13 12  1  0  0  0
 15 16  2  0  0  0
 12  8  1  0  0  0
 12 17  2  0  0  0
 16 17  1  0  0  0
  8 10  1  0  0  0
  8  9  2  0  0  0
 10  3  1  0  0  0
  4  3  2  0  0  0
  4  5  1  0  0  0
  3  1  1  0  0  0
  5  7  2  0  0  0
  1  2  2  0  0  0
  7  2  1  0  0  0
  7 22  1  0  0  0
  2  6  1  0  0  0
 22 27  1  0  0  0
 27 29  1  0  0  0
 27 23  1  0  0  0
 29 26  1  0  0  0
 29 30  1  0  0  0
 23 28  1  0  0  0
 30 25  1  0  0  0
 30 31  1  0  0  0
 28 31  1  0  0  0
 28 36  1  0  0  0
 31 24  1  0  0  0
 36 35  1  0  0  0
 18 21  1  0  0  0
 24 32  1  0  0  0
 25 33  1  0  0  0
 26 34  1  0  0  0
 35 37  1  0  0  0
 10 11  1  0  0  0
M  END
> <minimizedAffinity>
-6.80922

$$$$
4X5P_3XJ_A_301


 37 39  0  0  0  0  0  0  0  0999 V2000
   -8.0817   50.1865  -12.0739 C   0  0  0  0  0  0  0  0  0  0  0  0
   -9.3045   50.3580  -12.6955 C   0  0  0  0  0  0  0  0  0  0  0  0
   -7.5801   48.8854  -11.8850 C   0  0  0  0  0  0  0  0  0  0  0  0
   -8.3277   47.8183  -12.3285 C   0  0  0  0  0  0  0  0  0  0  0  0
   -9.5342   48.0079  -12.9352 C   0  0  0  0  0  0  0  0  0  0  0  0
   -9.8772   51.9449  -12.9780 Cl  0  0  0  0  0  0  0  0  0  0  0  0
  -10.0441   49.2837  -13.1241 C   0  0  0  0  0  0  0  0  0  0  0  0
   -5.1139   49.2028  -11.3547 C   0  0  0  0  0  0  0  0  0  0  0  0
   -4.9264   49.9599  -12.2148 O   0  0  0  0  0  0  0  0  0  0  0  0
   -6.3778   48.6400  -11.1940 N   0  0  0  0  0  0  0  0  0  0  0  0
   -6.4408   47.9617  -10.4832 H   0  0  0  0  0  0  0  0  0  0  0  0
   -4.0288   48.7544  -10.4602 C   0  0  0  0  0  0  0  0  0  0  0  0
   -4.2056   49.0063   -9.0879 C   0  0  0  0  0  0  0  0  0  0  0  0
   -3.3003   48.5147   -8.1596 C   0  0  0  0  0  0  0  0  0  0  0  0
   -2.2142   47.7750   -8.5827 C   0  0  0  0  0  0  0  0  0  0  0  0
   -2.0279   47.5305   -9.9541 C   0  0  0  0  0  0  0  0  0  0  0  0
   -2.9228   48.0293  -10.8923 C   0  0  0  0  0  0  0  0  0  0  0  0
   -0.0822   46.8889   -7.9458 O   0  0  0  0  0  0  0  0  0  0  0  0
   -1.2078   47.2559   -7.5385 C   0  0  0  0  0  0  0  0  0  0  0  0
   -1.5884   47.2523   -6.3451 O   0  0  0  0  0  0  0  0  0  0  0  0
    0.1198   46.9248   -8.8601 H   0  0  0  0  0  0  0  0  0  0  0  0
  -11.2376   49.5692  -13.7569 O   0  0  0  0  0  0  0  0  0  0  0  0
  -13.2739   50.6807  -13.6634 O   0  0  0  0  0  0  0  0  0  0  0  0
  -14.8857   48.1457  -15.7348 O   0  0  0  0  0  0  0  0  0  0  0  0
  -14.2152   46.6573  -13.4251 O   0  0  0  0  0  0  0  0  0  0  0  0
  -13.9780   48.8266  -11.6376 O   0  0  0  0  0  0  0  0  0  0  0  0
  -12.3587   49.8588  -13.0108 C   0  0  0  0  0  0  0  0  0  0  0  0
  -13.7703   50.0852  -14.8671 C   0  0  0  0  0  0  0  0  0  0  0  0
  -12.9900   48.5688  -12.6066 C   0  0  0  0  0  0  0  0  0  0  0  0
  -13.5675   47.8448  -13.7634 C   0  0  0  0  0  0  0  0  0  0  0  0
  -14.4307   48.7583  -14.5745 C   0  0  0  0  0  0  0  0  0  0  0  0
  -15.3029   47.2990  -15.5112 H   0  0  0  0  0  0  0  0  0  0  0  0
  -13.6175   46.1007  -12.9018 H   0  0  0  0  0  0  0  0  0  0  0  0
  -13.5815   49.3003  -10.8897 H   0  0  0  0  0  0  0  0  0  0  0  0
  -14.5184   51.0838  -16.9335 O   0  0  0  0  0  0  0  0  0  0  0  0
  -14.6634   51.1134  -15.5184 C   0  0  0  0  0  0  0  0  0  0  0  0
  -15.0994   51.7504  -17.3321 H   0  0  0  0  0  0  0  0  0  0  0  0
 20 19  2  0  0  0
 14 13  2  0  0  0
 14 15  1  0  0  0
 19 15  1  0  0  0
 19 18  1  0  0  0
 13 12  1  0  0  0
 15 16  2  0  0  0
 12  8  1  0  0  0
 12 17  2  0  0  0
 16 17  1  0  0  0
  8 10  1  0  0  0
  8  9  2  0  0  0
 10  3  1  0  0  0
  4  3  2  0  0  0
  4  5  1  0  0  0
  3  1  1  0  0  0
  5  7  2  0  0  0
  1  2  2  0  0  0
  7  2  1  0  0  0
  7 22  1  0  0  0
  2  6  1  0  0  0
 22 27  1  0  0  0
 27 29  1  0  0  0
 27 23  1  0  0  0
 29 26  1  0  0  0
 29 30  1  0  0  0
 23 28  1  0  0  0
 30 25  1  0  0  0
 30 31  1  0  0  0
 28 31  1  0  0  0
 28 36  1  0  0  0
 31 24  1  0  0  0
 36 35  1  0  0  0
 18 21  1  0  0  0
 24 32  1  0  0  0
 25 33  1  0  0  0
 26 34  1  0  0  0
 35 37  1  0  0  0
 10 11  1  0  0  0
M  END
> <minimizedAffinity>
-6.49721

$$$$
