4POH_2VR_A_501


 24 25  0  0  0  0  0  0  0  0999 V2000
   65.8191   46.2366   29.1082 C   0  0  0  0  0  0  0  0  0  0  0  0
   67.2047   45.6372   29.3590 C   0  0  0  0  0  0  0  0  0  0  0  0
   68.0458   46.3582   30.4189 C   0  0  0  0  0  0  0  0  0  0  0  0
   67.2264   46.7915   31.6404 C   0  0  0  0  0  0  0  0  0  0  0  0
   67.7863   46.6866   32.9074 C   0  0  0  0  0  0  0  0  0  0  0  0
   67.0415   47.0320   34.0378 C   0  0  0  0  0  0  0  0  0  0  0  0
   65.7266   47.4512   33.9055 C   0  0  0  0  0  0  0  0  0  0  0  0
   65.1535   47.5753   32.6376 C   0  0  0  0  0  0  0  0  0  0  0  0
   63.7291   48.0818   32.4954 C   0  0  0  0  0  0  0  0  0  0  0  0
   65.9179   47.2502   31.5100 C   0  0  0  0  0  0  0  0  0  0  0  0
   65.4322   47.3147   30.1398 C   0  0  0  0  0  0  0  0  0  0  0  0
   64.7074   48.4174   29.7116 C   0  0  0  0  0  0  0  0  0  0  0  0
   64.3420   48.5399   28.2916 C   0  0  0  0  0  0  0  0  0  0  0  0
   65.4004   49.0386   27.3066 C   0  0  0  0  0  0  0  0  0  0  0  0
   63.0813   48.1913   27.8244 C   0  0  0  0  0  0  0  0  0  0  0  0
   61.9877   47.6835   28.6667 C   0  0  0  0  0  0  0  0  0  0  0  0
   60.7095   47.5435   28.1407 C   0  0  0  0  0  0  0  0  0  0  0  0
   59.5887   47.0627   28.9577 C   0  0  0  0  0  0  0  0  0  0  0  0
   59.8471   46.2834   30.2458 C   0  0  0  0  0  0  0  0  0  0  0  0
   58.2950   47.3437   28.5055 C   0  0  0  0  0  0  0  0  0  0  0  0
   57.0553   46.9684   29.1817 C   0  0  0  0  0  0  0  0  0  0  0  0
   56.1394   47.8209   29.2017 O   0  0  0  0  0  0  0  0  0  0  0  0
   56.9641   45.8395   29.7230 O   0  0  0  0  0  0  0  0  0  0  0  0
   57.6817   45.2388   29.6775 H   0  0  0  0  0  0  0  0  0  0  0  0
 14 13  1  0  0  0
 15 13  2  0  0  0
 15 16  1  0  0  0
 13 12  1  0  0  0
 17 16  2  0  0  0
 17 18  1  0  0  0
 20 18  2  0  0  0
 20 21  1  0  0  0
  1  2  1  0  0  0
  1 11  1  0  0  0
 18 19  1  0  0  0
 22 21  2  0  0  0
  2  3  1  0  0  0
 21 23  1  0  0  0
 12 11  2  0  0  0
 11 10  1  0  0  0
  3  4  1  0  0  0
 10  4  2  0  0  0
 10  8  1  0  0  0
  4  5  1  0  0  0
  9  8  1  0  0  0
  8  7  2  0  0  0
  5  6  2  0  0  0
  7  6  1  0  0  0
 23 24  1  0  0  0
M  END
> <minimizedAffinity>
-11.39331

$$$$
4POH_2VR_A_501


 24 25  0  0  0  0  0  0  0  0999 V2000
   64.6983   49.4636   30.4900 C   0  0  0  0  0  0  0  0  0  0  0  0
   64.2244   49.5887   31.9399 C   0  0  0  0  0  0  0  0  0  0  0  0
   64.0971   48.2642   32.7016 C   0  0  0  0  0  0  0  0  0  0  0  0
   65.2476   47.2933   32.4104 C   0  0  0  0  0  0  0  0  0  0  0  0
   65.7684   46.5256   33.4445 C   0  0  0  0  0  0  0  0  0  0  0  0
   66.8469   45.6685   33.2119 C   0  0  0  0  0  0  0  0  0  0  0  0
   67.4264   45.6021   31.9542 C   0  0  0  0  0  0  0  0  0  0  0  0
   66.9058   46.3572   30.9005 C   0  0  0  0  0  0  0  0  0  0  0  0
   67.5133   46.2437   29.5135 C   0  0  0  0  0  0  0  0  0  0  0  0
   65.8085   47.1940   31.1395 C   0  0  0  0  0  0  0  0  0  0  0  0
   65.1889   48.0460   30.1357 C   0  0  0  0  0  0  0  0  0  0  0  0
   64.9232   47.5458   28.8693 C   0  0  0  0  0  0  0  0  0  0  0  0
   64.1709   48.3663   27.9071 C   0  0  0  0  0  0  0  0  0  0  0  0
   64.9534   49.2273   26.9143 C   0  0  0  0  0  0  0  0  0  0  0  0
   62.7828   48.3572   27.8606 C   0  0  0  0  0  0  0  0  0  0  0  0
   61.9211   47.5599   28.7468 C   0  0  0  0  0  0  0  0  0  0  0  0
   60.5527   47.4953   28.5158 C   0  0  0  0  0  0  0  0  0  0  0  0
   59.6588   46.7294   29.3928 C   0  0  0  0  0  0  0  0  0  0  0  0
   60.2308   45.8180   30.4770 C   0  0  0  0  0  0  0  0  0  0  0  0
   58.2818   46.8683   29.1887 C   0  0  0  0  0  0  0  0  0  0  0  0
   57.2341   46.2077   29.9638 C   0  0  0  0  0  0  0  0  0  0  0  0
   56.6007   45.2903   29.3955 O   0  0  0  0  0  0  0  0  0  0  0  0
   56.9993   46.5896   31.1364 O   0  0  0  0  0  0  0  0  0  0  0  0
   57.5052   47.2822   31.5137 H   0  0  0  0  0  0  0  0  0  0  0  0
 14 13  1  0  0  0
 15 13  2  0  0  0
 15 16  1  0  0  0
 13 12  1  0  0  0
 17 16  2  0  0  0
 17 18  1  0  0  0
 20 18  2  0  0  0
 20 21  1  0  0  0
  1  2  1  0  0  0
  1 11  1  0  0  0
 18 19  1  0  0  0
 22 21  2  0  0  0
  2  3  1  0  0  0
 21 23  1  0  0  0
 12 11  2  0  0  0
 11 10  1  0  0  0
  3  4  1  0  0  0
 10  4  2  0  0  0
 10  8  1  0  0  0
  4  5  1  0  0  0
  9  8  1  0  0  0
  8  7  2  0  0  0
  5  6  2  0  0  0
  7  6  1  0  0  0
 23 24  1  0  0  0
M  END
> <minimizedAffinity>
-10.44830

$$$$
4POH_2VR_A_501


 24 25  0  0  0  0  0  0  0  0999 V2000
   66.5755   45.2520   32.3192 C   0  0  0  0  0  0  0  0  0  0  0  0
   67.1206   45.1302   33.7441 C   0  0  0  0  0  0  0  0  0  0  0  0
   67.4684   46.4587   34.4257 C   0  0  0  0  0  0  0  0  0  0  0  0
   66.4386   47.5607   34.1498 C   0  0  0  0  0  0  0  0  0  0  0  0
   66.0899   48.4371   35.1697 C   0  0  0  0  0  0  0  0  0  0  0  0
   65.1201   49.4194   34.9541 C   0  0  0  0  0  0  0  0  0  0  0  0
   64.4750   49.5059   33.7300 C   0  0  0  0  0  0  0  0  0  0  0  0
   64.8241   48.6412   32.6898 C   0  0  0  0  0  0  0  0  0  0  0  0
   64.1493   48.7722   31.3358 C   0  0  0  0  0  0  0  0  0  0  0  0
   65.8155   47.6767   32.9097 C   0  0  0  0  0  0  0  0  0  0  0  0
   66.2529   46.7051   31.9187 C   0  0  0  0  0  0  0  0  0  0  0  0
   66.5003   47.1076   30.6144 C   0  0  0  0  0  0  0  0  0  0  0  0
   67.0758   46.1512   29.6556 C   0  0  0  0  0  0  0  0  0  0  0  0
   68.5546   45.7846   29.7895 C   0  0  0  0  0  0  0  0  0  0  0  0
   66.3104   45.5584   28.6596 C   0  0  0  0  0  0  0  0  0  0  0  0
   64.8786   45.8142   28.4408 C   0  0  0  0  0  0  0  0  0  0  0  0
   64.4311   47.1054   28.1905 C   0  0  0  0  0  0  0  0  0  0  0  0
   63.0073   47.4020   27.9910 C   0  0  0  0  0  0  0  0  0  0  0  0
   62.5599   48.3326   26.8652 C   0  0  0  0  0  0  0  0  0  0  0  0
   62.0960   46.8055   28.8689 C   0  0  0  0  0  0  0  0  0  0  0  0
   60.6438   46.9607   28.8254 C   0  0  0  0  0  0  0  0  0  0  0  0
   60.2027   48.0705   28.4517 O   0  0  0  0  0  0  0  0  0  0  0  0
   59.9096   46.0048   29.1761 O   0  0  0  0  0  0  0  0  0  0  0  0
   60.2934   45.1943   29.4475 H   0  0  0  0  0  0  0  0  0  0  0  0
 14 13  1  0  0  0
 15 13  2  0  0  0
 15 16  1  0  0  0
 13 12  1  0  0  0
 17 16  2  0  0  0
 17 18  1  0  0  0
 20 18  2  0  0  0
 20 21  1  0  0  0
  1  2  1  0  0  0
  1 11  1  0  0  0
 18 19  1  0  0  0
 22 21  2  0  0  0
  2  3  1  0  0  0
 21 23  1  0  0  0
 12 11  2  0  0  0
 11 10  1  0  0  0
  3  4  1  0  0  0
 10  4  2  0  0  0
 10  8  1  0  0  0
  4  5  1  0  0  0
  9  8  1  0  0  0
  8  7  2  0  0  0
  5  6  2  0  0  0
  7  6  1  0  0  0
 23 24  1  0  0  0
M  END
> <minimizedAffinity>
-10.24028

$$$$
