5UV2_LA6_A_704


 23 22  0  0  0  0  0  0  0  0999 V2000
  -10.5047   12.0406  -19.5965 O   0  0  0  0  0  0  0  0  0  0  0  0
  -10.1022   10.5533  -20.0278 P   0  0  0  0  0  0  0  0  0  0  0  0
   -9.6774    9.8256  -18.7684 O   0  0  0  0  0  0  0  0  0  0  0  0
   -8.9971   10.5906  -21.0504 O   0  0  0  0  0  0  0  0  0  0  0  0
   -8.2211   11.0327  -20.6719 H   0  0  0  0  0  0  0  0  0  0  0  0
  -11.3938    9.8178  -20.6568 O   0  0  0  0  0  0  0  0  0  0  0  0
  -11.6888    9.7891  -22.2406 P   0  0  0  0  0  0  0  0  0  0  0  0
  -10.6051    8.9358  -22.8628 O   0  0  0  0  0  0  0  0  0  0  0  0
  -11.6343   11.1882  -22.8082 O   0  0  0  0  0  0  0  0  0  0  0  0
  -13.0636    9.1987  -22.4748 O   0  0  0  0  0  0  0  0  0  0  0  0
  -10.6470    8.0399  -22.4934 H   0  0  0  0  0  0  0  0  0  0  0  0
  -12.3317   11.7283  -22.4045 H   0  0  0  0  0  0  0  0  0  0  0  0
   -9.9169   12.6913  -18.4797 C   0  0  0  0  0  0  0  0  0  0  0  0
   -8.6087   13.3025  -18.9186 C   0  0  0  0  0  0  0  0  0  0  0  0
   -8.5573   14.1537  -19.9172 F   0  0  0  0  0  0  0  0  0  0  0  0
   -7.4957   12.9601  -18.2896 C   0  0  0  0  0  0  0  0  0  0  0  0
   -6.2251   13.5962  -18.7617 C   0  0  0  0  0  0  0  0  0  0  0  0
   -7.6068   11.9733  -17.1351 C   0  0  0  0  0  0  0  0  0  0  0  0
   -7.3577   12.4568  -15.7004 C   0  0  0  0  0  0  0  0  0  0  0  0
   -8.3004   13.4531  -15.0437 C   0  0  0  0  0  0  0  0  0  0  0  0
   -8.3820   14.7952  -15.1100 C   0  0  0  0  0  0  0  0  0  0  0  0
   -7.4724   15.6846  -15.9045 C   0  0  0  0  0  0  0  0  0  0  0  0
   -9.4726   15.4334  -14.3070 C   0  0  0  0  0  0  0  0  0  0  0  0
 14 13  1  0  0  0
 13  1  1  0  0  0
  2  1  1  0  0  0
 16 14  2  0  0  0
 14 15  1  0  0  0
 17 16  1  0  0  0
 18 16  1  0  0  0
 19 18  1  0  0  0
 20 19  1  0  0  0
 20 21  2  0  0  0
 23 21  1  0  0  0
 21 22  1  0  0  0
  3  2  2  0  0  0
  2  6  1  0  0  0
  2  4  1  0  0  0
  6  7  1  0  0  0
 10  7  2  0  0  0
  7  9  1  0  0  0
  7  8  1  0  0  0
  8 11  1  0  0  0
  4  5  1  0  0  0
  9 12  1  0  0  0
M  END
> <minimizedAffinity>
-7.95164

$$$$
5UV2_LA6_A_704


 23 22  0  0  0  0  0  0  0  0999 V2000
   -8.9235   10.8757  -19.8599 O   0  0  0  0  0  0  0  0  0  0  0  0
  -10.5048   10.7499  -19.6509 P   0  0  0  0  0  0  0  0  0  0  0  0
  -10.8842   11.7124  -18.5438 O   0  0  0  0  0  0  0  0  0  0  0  0
  -10.8715    9.3303  -19.3062 O   0  0  0  0  0  0  0  0  0  0  0  0
  -10.4210    9.0697  -18.4876 H   0  0  0  0  0  0  0  0  0  0  0  0
  -11.2539   11.1843  -21.0129 O   0  0  0  0  0  0  0  0  0  0  0  0
  -11.4634   10.1706  -22.2477 P   0  0  0  0  0  0  0  0  0  0  0  0
  -10.1089    9.5610  -22.5361 O   0  0  0  0  0  0  0  0  0  0  0  0
  -11.9613   10.9204  -23.4612 O   0  0  0  0  0  0  0  0  0  0  0  0
  -12.4748    9.1150  -21.8521 O   0  0  0  0  0  0  0  0  0  0  0  0
   -9.7966    9.0818  -21.7527 H   0  0  0  0  0  0  0  0  0  0  0  0
  -12.8294   11.3078  -23.2682 H   0  0  0  0  0  0  0  0  0  0  0  0
   -8.0396   11.1803  -18.7913 C   0  0  0  0  0  0  0  0  0  0  0  0
   -6.7237   11.6330  -19.3756 C   0  0  0  0  0  0  0  0  0  0  0  0
   -5.9581   10.8049  -20.0484 F   0  0  0  0  0  0  0  0  0  0  0  0
   -6.3349   12.8845  -19.1917 C   0  0  0  0  0  0  0  0  0  0  0  0
   -5.0232   13.2841  -19.7932 C   0  0  0  0  0  0  0  0  0  0  0  0
   -7.2588   13.8080  -18.4088 C   0  0  0  0  0  0  0  0  0  0  0  0
   -6.6632   14.7823  -17.3841 C   0  0  0  0  0  0  0  0  0  0  0  0
   -7.5378   15.4046  -16.3069 C   0  0  0  0  0  0  0  0  0  0  0  0
   -8.2291   14.8662  -15.2848 C   0  0  0  0  0  0  0  0  0  0  0  0
   -8.3086   13.4036  -14.9623 C   0  0  0  0  0  0  0  0  0  0  0  0
   -8.9831   15.8250  -14.4167 C   0  0  0  0  0  0  0  0  0  0  0  0
 14 13  1  0  0  0
 13  1  1  0  0  0
  2  1  1  0  0  0
 16 14  2  0  0  0
 14 15  1  0  0  0
 17 16  1  0  0  0
 18 16  1  0  0  0
 19 18  1  0  0  0
 20 19  1  0  0  0
 20 21  2  0  0  0
 23 21  1  0  0  0
 21 22  1  0  0  0
  3  2  2  0  0  0
  2  6  1  0  0  0
  2  4  1  0  0  0
  6  7  1  0  0  0
 10  7  2  0  0  0
  7  9  1  0  0  0
  7  8  1  0  0  0
  8 11  1  0  0  0
  4  5  1  0  0  0
  9 12  1  0  0  0
M  END
> <minimizedAffinity>
-7.82389

$$$$
5UV2_LA6_A_704


 23 22  0  0  0  0  0  0  0  0999 V2000
   -7.7271   11.9563  -21.6474 O   0  0  0  0  0  0  0  0  0  0  0  0
   -8.9867   11.5890  -22.5631 P   0  0  0  0  0  0  0  0  0  0  0  0
   -8.5064   10.5945  -23.6005 O   0  0  0  0  0  0  0  0  0  0  0  0
   -9.5458   12.8339  -23.2003 O   0  0  0  0  0  0  0  0  0  0  0  0
   -8.8636   13.2499  -23.7503 H   0  0  0  0  0  0  0  0  0  0  0  0
  -10.1212   10.8961  -21.6478 O   0  0  0  0  0  0  0  0  0  0  0  0
  -11.3206   10.0187  -22.2708 P   0  0  0  0  0  0  0  0  0  0  0  0
  -12.2109    9.6263  -21.1119 O   0  0  0  0  0  0  0  0  0  0  0  0
  -10.7700    8.7817  -22.9411 O   0  0  0  0  0  0  0  0  0  0  0  0
  -12.0681   10.8572  -23.2864 O   0  0  0  0  0  0  0  0  0  0  0  0
  -12.5600   10.4255  -20.6874 H   0  0  0  0  0  0  0  0  0  0  0  0
  -10.2008    9.0417  -23.6822 H   0  0  0  0  0  0  0  0  0  0  0  0
   -7.8625   12.3122  -20.2796 C   0  0  0  0  0  0  0  0  0  0  0  0
   -8.2829   13.7597  -20.2032 C   0  0  0  0  0  0  0  0  0  0  0  0
   -7.7786   14.6578  -21.0179 F   0  0  0  0  0  0  0  0  0  0  0  0
   -9.1662   14.1255  -19.2881 C   0  0  0  0  0  0  0  0  0  0  0  0
   -9.5516   15.5719  -19.2554 C   0  0  0  0  0  0  0  0  0  0  0  0
   -9.7258   13.0473  -18.3696 C   0  0  0  0  0  0  0  0  0  0  0  0
   -9.1095   12.8438  -16.9793 C   0  0  0  0  0  0  0  0  0  0  0  0
   -9.2445   13.9142  -15.9075 C   0  0  0  0  0  0  0  0  0  0  0  0
   -8.4960   14.9935  -15.6123 C   0  0  0  0  0  0  0  0  0  0  0  0
   -7.2451   15.4079  -16.3286 C   0  0  0  0  0  0  0  0  0  0  0  0
   -8.9638   15.8300  -14.4621 C   0  0  0  0  0  0  0  0  0  0  0  0
 14 13  1  0  0  0
 13  1  1  0  0  0
  2  1  1  0  0  0
 16 14  2  0  0  0
 14 15  1  0  0  0
 17 16  1  0  0  0
 18 16  1  0  0  0
 19 18  1  0  0  0
 20 19  1  0  0  0
 20 21  2  0  0  0
 23 21  1  0  0  0
 21 22  1  0  0  0
  3  2  2  0  0  0
  2  6  1  0  0  0
  2  4  1  0  0  0
  6  7  1  0  0  0
 10  7  2  0  0  0
  7  9  1  0  0  0
  7  8  1  0  0  0
  8 11  1  0  0  0
  4  5  1  0  0  0
  9 12  1  0  0  0
M  END
> <minimizedAffinity>
-7.82135

$$$$
5UV2_LA6_A_704


 23 22  0  0  0  0  0  0  0  0999 V2000
   -7.8579   12.1815  -21.4678 O   0  0  0  0  0  0  0  0  0  0  0  0
   -8.9948   11.6389  -22.4544 P   0  0  0  0  0  0  0  0  0  0  0  0
   -8.3322   10.6536  -23.3957 O   0  0  0  0  0  0  0  0  0  0  0  0
   -9.6254   12.7855  -23.2001 O   0  0  0  0  0  0  0  0  0  0  0  0
   -8.9473   13.2456  -23.7191 H   0  0  0  0  0  0  0  0  0  0  0  0
  -10.1224   10.8727  -21.5905 O   0  0  0  0  0  0  0  0  0  0  0  0
  -11.3372   10.0644  -22.2743 P   0  0  0  0  0  0  0  0  0  0  0  0
  -10.7240    8.8515  -22.9393 O   0  0  0  0  0  0  0  0  0  0  0  0
  -12.0242   10.9276  -23.3065 O   0  0  0  0  0  0  0  0  0  0  0  0
  -12.3298    9.6674  -21.2016 O   0  0  0  0  0  0  0  0  0  0  0  0
  -10.2853    8.3031  -22.2703 H   0  0  0  0  0  0  0  0  0  0  0  0
  -12.4143   11.7023  -22.8724 H   0  0  0  0  0  0  0  0  0  0  0  0
   -8.1642   12.8624  -20.2601 C   0  0  0  0  0  0  0  0  0  0  0  0
   -7.5218   12.1164  -19.1163 C   0  0  0  0  0  0  0  0  0  0  0  0
   -7.4250   10.8068  -19.1280 F   0  0  0  0  0  0  0  0  0  0  0  0
   -7.0616   12.7996  -18.0804 C   0  0  0  0  0  0  0  0  0  0  0  0
   -6.4315   12.0129  -16.9732 C   0  0  0  0  0  0  0  0  0  0  0  0
   -7.1926   14.3165  -18.1149 C   0  0  0  0  0  0  0  0  0  0  0  0
   -6.8093   15.1368  -16.8762 C   0  0  0  0  0  0  0  0  0  0  0  0
   -7.8722   15.5910  -15.8881 C   0  0  0  0  0  0  0  0  0  0  0  0
   -8.5775   14.9257  -14.9540 C   0  0  0  0  0  0  0  0  0  0  0  0
   -8.4725   13.4576  -14.6656 C   0  0  0  0  0  0  0  0  0  0  0  0
   -9.5500   15.7368  -14.1554 C   0  0  0  0  0  0  0  0  0  0  0  0
 14 13  1  0  0  0
 13  1  1  0  0  0
  2  1  1  0  0  0
 16 14  2  0  0  0
 14 15  1  0  0  0
 17 16  1  0  0  0
 18 16  1  0  0  0
 19 18  1  0  0  0
 20 19  1  0  0  0
 20 21  2  0  0  0
 23 21  1  0  0  0
 21 22  1  0  0  0
  3  2  2  0  0  0
  2  6  1  0  0  0
  2  4  1  0  0  0
  6  7  1  0  0  0
 10  7  2  0  0  0
  7  9  1  0  0  0
  7  8  1  0  0  0
  8 11  1  0  0  0
  4  5  1  0  0  0
  9 12  1  0  0  0
M  END
> <minimizedAffinity>
-7.80458

$$$$
5UV2_LA6_A_704


 23 22  0  0  0  0  0  0  0  0999 V2000
  -10.3768   12.0192  -18.9981 O   0  0  0  0  0  0  0  0  0  0  0  0
   -9.8577   10.9105  -20.0284 P   0  0  0  0  0  0  0  0  0  0  0  0
  -10.3293    9.5672  -19.5098 O   0  0  0  0  0  0  0  0  0  0  0  0
   -8.3571   10.9695  -20.1418 O   0  0  0  0  0  0  0  0  0  0  0  0
   -7.9604   10.8054  -19.2720 H   0  0  0  0  0  0  0  0  0  0  0  0
  -10.5186   11.1834  -21.4754 O   0  0  0  0  0  0  0  0  0  0  0  0
  -11.4123   10.0829  -22.2412 P   0  0  0  0  0  0  0  0  0  0  0  0
  -12.4295    9.5839  -21.2383 O   0  0  0  0  0  0  0  0  0  0  0  0
  -10.5444    8.9384  -22.7097 O   0  0  0  0  0  0  0  0  0  0  0  0
  -12.0812   10.7347  -23.4334 O   0  0  0  0  0  0  0  0  0  0  0  0
  -12.9823   10.3242  -20.9428 H   0  0  0  0  0  0  0  0  0  0  0  0
   -9.8956    9.2664  -23.3518 H   0  0  0  0  0  0  0  0  0  0  0  0
   -9.4952   12.9257  -18.3523 C   0  0  0  0  0  0  0  0  0  0  0  0
   -9.3299   14.1394  -19.2340 C   0  0  0  0  0  0  0  0  0  0  0  0
  -10.3277   14.5967  -19.9550 F   0  0  0  0  0  0  0  0  0  0  0  0
   -8.1522   14.7407  -19.2863 C   0  0  0  0  0  0  0  0  0  0  0  0
   -8.0410   15.9414  -20.1740 C   0  0  0  0  0  0  0  0  0  0  0  0
   -7.0274   14.1763  -18.4287 C   0  0  0  0  0  0  0  0  0  0  0  0
   -6.5699   14.9433  -17.1811 C   0  0  0  0  0  0  0  0  0  0  0  0
   -7.5839   15.4482  -16.1666 C   0  0  0  0  0  0  0  0  0  0  0  0
   -8.3050   14.8159  -15.2217 C   0  0  0  0  0  0  0  0  0  0  0  0
   -8.2765   13.3419  -14.9458 C   0  0  0  0  0  0  0  0  0  0  0  0
   -9.2129   15.6737  -14.3963 C   0  0  0  0  0  0  0  0  0  0  0  0
 14 13  1  0  0  0
 13  1  1  0  0  0
  2  1  1  0  0  0
 16 14  2  0  0  0
 14 15  1  0  0  0
 17 16  1  0  0  0
 18 16  1  0  0  0
 19 18  1  0  0  0
 20 19  1  0  0  0
 20 21  2  0  0  0
 23 21  1  0  0  0
 21 22  1  0  0  0
  3  2  2  0  0  0
  2  6  1  0  0  0
  2  4  1  0  0  0
  6  7  1  0  0  0
 10  7  2  0  0  0
  7  9  1  0  0  0
  7  8  1  0  0  0
  8 11  1  0  0  0
  4  5  1  0  0  0
  9 12  1  0  0  0
M  END
> <minimizedAffinity>
-7.67667

$$$$
5UV2_LA6_A_704


 23 22  0  0  0  0  0  0  0  0999 V2000
   -9.3195   13.0657  -20.1874 O   0  0  0  0  0  0  0  0  0  0  0  0
   -9.5520   12.0079  -21.3653 P   0  0  0  0  0  0  0  0  0  0  0  0
   -8.3814   11.0463  -21.3355 O   0  0  0  0  0  0  0  0  0  0  0  0
   -9.6563   12.7193  -22.6886 O   0  0  0  0  0  0  0  0  0  0  0  0
   -8.8361   13.2086  -22.8583 H   0  0  0  0  0  0  0  0  0  0  0  0
  -10.9164   11.1935  -21.0822 O   0  0  0  0  0  0  0  0  0  0  0  0
  -11.5019   10.1000  -22.1107 P   0  0  0  0  0  0  0  0  0  0  0  0
  -12.5530    9.3187  -21.3528 O   0  0  0  0  0  0  0  0  0  0  0  0
  -10.4013    9.1731  -22.5712 O   0  0  0  0  0  0  0  0  0  0  0  0
  -12.0962   10.8164  -23.3054 O   0  0  0  0  0  0  0  0  0  0  0  0
  -13.2554    9.9207  -21.0609 H   0  0  0  0  0  0  0  0  0  0  0  0
   -9.7322    9.6813  -23.0558 H   0  0  0  0  0  0  0  0  0  0  0  0
  -10.1022   13.0652  -19.0028 C   0  0  0  0  0  0  0  0  0  0  0  0
   -9.3244   12.3606  -17.9181 C   0  0  0  0  0  0  0  0  0  0  0  0
   -8.9532   11.1081  -18.0522 F   0  0  0  0  0  0  0  0  0  0  0  0
   -9.0259   13.0189  -16.8096 C   0  0  0  0  0  0  0  0  0  0  0  0
   -8.2513   12.2760  -15.7656 C   0  0  0  0  0  0  0  0  0  0  0  0
   -9.4739   14.4705  -16.7027 C   0  0  0  0  0  0  0  0  0  0  0  0
   -8.4324   15.5658  -16.4385 C   0  0  0  0  0  0  0  0  0  0  0  0
   -6.9730   15.3531  -16.8091 C   0  0  0  0  0  0  0  0  0  0  0  0
   -6.3461   15.2831  -17.9984 C   0  0  0  0  0  0  0  0  0  0  0  0
   -7.0083   15.3944  -19.3395 C   0  0  0  0  0  0  0  0  0  0  0  0
   -4.8656   15.0644  -17.9554 C   0  0  0  0  0  0  0  0  0  0  0  0
 14 13  1  0  0  0
 13  1  1  0  0  0
  2  1  1  0  0  0
 16 14  2  0  0  0
 14 15  1  0  0  0
 17 16  1  0  0  0
 18 16  1  0  0  0
 19 18  1  0  0  0
 20 19  1  0  0  0
 20 21  2  0  0  0
 23 21  1  0  0  0
 21 22  1  0  0  0
  3  2  2  0  0  0
  2  6  1  0  0  0
  2  4  1  0  0  0
  6  7  1  0  0  0
 10  7  2  0  0  0
  7  9  1  0  0  0
  7  8  1  0  0  0
  8 11  1  0  0  0
  4  5  1  0  0  0
  9 12  1  0  0  0
M  END
> <minimizedAffinity>
-7.25438

$$$$
5UV2_LA6_A_704


 23 22  0  0  0  0  0  0  0  0999 V2000
   -4.9506   14.5647  -18.1948 O   0  0  0  0  0  0  0  0  0  0  0  0
   -3.5366   15.1791  -18.6230 P   0  0  0  0  0  0  0  0  0  0  0  0
   -2.7335   15.3719  -17.3526 O   0  0  0  0  0  0  0  0  0  0  0  0
   -3.7364   16.4776  -19.3594 O   0  0  0  0  0  0  0  0  0  0  0  0
   -4.1957   17.1086  -18.7834 H   0  0  0  0  0  0  0  0  0  0  0  0
   -2.7723   14.1286  -19.5807 O   0  0  0  0  0  0  0  0  0  0  0  0
   -3.5278   13.3079  -20.7435 P   0  0  0  0  0  0  0  0  0  0  0  0
   -4.1965   14.3368  -21.6288 O   0  0  0  0  0  0  0  0  0  0  0  0
   -4.5664   12.3886  -20.1445 O   0  0  0  0  0  0  0  0  0  0  0  0
   -2.5092   12.4920  -21.5118 O   0  0  0  0  0  0  0  0  0  0  0  0
   -3.5234   14.9225  -22.0091 H   0  0  0  0  0  0  0  0  0  0  0  0
   -4.1299   11.7325  -19.5789 H   0  0  0  0  0  0  0  0  0  0  0  0
   -6.1734   15.2521  -18.4144 C   0  0  0  0  0  0  0  0  0  0  0  0
   -6.8765   15.4090  -17.0882 C   0  0  0  0  0  0  0  0  0  0  0  0
   -6.1995   15.5039  -15.9670 F   0  0  0  0  0  0  0  0  0  0  0  0
   -8.1994   15.4377  -17.0610 C   0  0  0  0  0  0  0  0  0  0  0  0
   -8.8483   15.5973  -15.7211 C   0  0  0  0  0  0  0  0  0  0  0  0
   -8.9399   15.3287  -18.3873 C   0  0  0  0  0  0  0  0  0  0  0  0
   -9.7286   14.0529  -18.7103 C   0  0  0  0  0  0  0  0  0  0  0  0
   -9.0161   12.7173  -18.8558 C   0  0  0  0  0  0  0  0  0  0  0  0
   -9.4700   11.4498  -18.8635 C   0  0  0  0  0  0  0  0  0  0  0  0
  -10.9028   11.0372  -18.7017 C   0  0  0  0  0  0  0  0  0  0  0  0
   -8.4395   10.3780  -19.0388 C   0  0  0  0  0  0  0  0  0  0  0  0
 14 13  1  0  0  0
 13  1  1  0  0  0
  2  1  1  0  0  0
 16 14  2  0  0  0
 14 15  1  0  0  0
 17 16  1  0  0  0
 18 16  1  0  0  0
 19 18  1  0  0  0
 20 19  1  0  0  0
 20 21  2  0  0  0
 23 21  1  0  0  0
 21 22  1  0  0  0
  3  2  2  0  0  0
  2  6  1  0  0  0
  2  4  1  0  0  0
  6  7  1  0  0  0
 10  7  2  0  0  0
  7  9  1  0  0  0
  7  8  1  0  0  0
  8 11  1  0  0  0
  4  5  1  0  0  0
  9 12  1  0  0  0
M  END
> <minimizedAffinity>
-6.97408

$$$$
5UV2_LA6_A_704


 23 22  0  0  0  0  0  0  0  0999 V2000
   -9.7253   11.6370  -18.0573 O   0  0  0  0  0  0  0  0  0  0  0  0
   -9.4459   10.9019  -19.4508 P   0  0  0  0  0  0  0  0  0  0  0  0
   -8.1758   10.0935  -19.2793 O   0  0  0  0  0  0  0  0  0  0  0  0
   -9.3165   11.9167  -20.5561 O   0  0  0  0  0  0  0  0  0  0  0  0
   -8.5798   12.5164  -20.3599 H   0  0  0  0  0  0  0  0  0  0  0  0
  -10.6715    9.9036  -19.7765 O   0  0  0  0  0  0  0  0  0  0  0  0
  -11.3712    9.8349  -21.2264 P   0  0  0  0  0  0  0  0  0  0  0  0
  -12.3586    8.6897  -21.1718 O   0  0  0  0  0  0  0  0  0  0  0  0
  -10.3356    9.5735  -22.2950 O   0  0  0  0  0  0  0  0  0  0  0  0
  -12.0641   11.1531  -21.5017 O   0  0  0  0  0  0  0  0  0  0  0  0
  -13.0195    8.8652  -20.4838 H   0  0  0  0  0  0  0  0  0  0  0  0
   -9.7069   10.3117  -22.3235 H   0  0  0  0  0  0  0  0  0  0  0  0
  -10.1038   13.0035  -17.9837 C   0  0  0  0  0  0  0  0  0  0  0  0
   -9.2949   13.6640  -16.8941 C   0  0  0  0  0  0  0  0  0  0  0  0
   -9.0866   13.0650  -15.7442 F   0  0  0  0  0  0  0  0  0  0  0  0
   -8.8008   14.8737  -17.1034 C   0  0  0  0  0  0  0  0  0  0  0  0
   -8.0040   15.4840  -15.9922 C   0  0  0  0  0  0  0  0  0  0  0  0
   -9.0652   15.5255  -18.4541 C   0  0  0  0  0  0  0  0  0  0  0  0
   -8.0672   15.3198  -19.6013 C   0  0  0  0  0  0  0  0  0  0  0  0
   -6.5880   15.6121  -19.4034 C   0  0  0  0  0  0  0  0  0  0  0  0
   -5.5792   14.8657  -18.9161 C   0  0  0  0  0  0  0  0  0  0  0  0
   -5.7041   13.4624  -18.4016 C   0  0  0  0  0  0  0  0  0  0  0  0
   -4.2302   15.5144  -18.8842 C   0  0  0  0  0  0  0  0  0  0  0  0
 14 13  1  0  0  0
 13  1  1  0  0  0
  2  1  1  0  0  0
 16 14  2  0  0  0
 14 15  1  0  0  0
 17 16  1  0  0  0
 18 16  1  0  0  0
 19 18  1  0  0  0
 20 19  1  0  0  0
 20 21  2  0  0  0
 23 21  1  0  0  0
 21 22  1  0  0  0
  3  2  2  0  0  0
  2  6  1  0  0  0
  2  4  1  0  0  0
  6  7  1  0  0  0
 10  7  2  0  0  0
  7  9  1  0  0  0
  7  8  1  0  0  0
  8 11  1  0  0  0
  4  5  1  0  0  0
  9 12  1  0  0  0
M  END
> <minimizedAffinity>
-6.89710

$$$$
5UV2_LA6_A_704


 23 22  0  0  0  0  0  0  0  0999 V2000
   -7.7448   11.6096  -21.1924 O   0  0  0  0  0  0  0  0  0  0  0  0
   -8.9440   11.3712  -22.2245 P   0  0  0  0  0  0  0  0  0  0  0  0
   -8.3638   10.6394  -23.4177 O   0  0  0  0  0  0  0  0  0  0  0  0
   -9.5566   12.6886  -22.6217 O   0  0  0  0  0  0  0  0  0  0  0  0
   -8.8822   13.2453  -23.0413 H   0  0  0  0  0  0  0  0  0  0  0  0
  -10.0655   10.4442  -21.5262 O   0  0  0  0  0  0  0  0  0  0  0  0
  -11.4236   10.0121  -22.2783 P   0  0  0  0  0  0  0  0  0  0  0  0
  -11.9947   11.2731  -22.8893 O   0  0  0  0  0  0  0  0  0  0  0  0
  -12.4050    9.4265  -21.2902 O   0  0  0  0  0  0  0  0  0  0  0  0
  -11.0931    8.9818  -23.3380 O   0  0  0  0  0  0  0  0  0  0  0  0
  -11.3590   11.6425  -23.5220 H   0  0  0  0  0  0  0  0  0  0  0  0
  -12.0316    8.6191  -20.9034 H   0  0  0  0  0  0  0  0  0  0  0  0
   -7.4223   12.8977  -20.6895 C   0  0  0  0  0  0  0  0  0  0  0  0
   -5.9490   13.1400  -20.9096 C   0  0  0  0  0  0  0  0  0  0  0  0
   -5.4075   13.0019  -22.0979 F   0  0  0  0  0  0  0  0  0  0  0  0
   -5.1931   13.4850  -19.8795 C   0  0  0  0  0  0  0  0  0  0  0  0
   -3.7388   13.7160  -20.1510 C   0  0  0  0  0  0  0  0  0  0  0  0
   -5.8674   13.6370  -18.5225 C   0  0  0  0  0  0  0  0  0  0  0  0
   -5.8644   15.0040  -17.8256 C   0  0  0  0  0  0  0  0  0  0  0  0
   -6.8117   15.2869  -16.6702 C   0  0  0  0  0  0  0  0  0  0  0  0
   -8.1503   15.4184  -16.6137 C   0  0  0  0  0  0  0  0  0  0  0  0
   -9.0848   15.3210  -17.7828 C   0  0  0  0  0  0  0  0  0  0  0  0
   -8.7326   15.6956  -15.2626 C   0  0  0  0  0  0  0  0  0  0  0  0
 14 13  1  0  0  0
 13  1  1  0  0  0
  2  1  1  0  0  0
 16 14  2  0  0  0
 14 15  1  0  0  0
 17 16  1  0  0  0
 18 16  1  0  0  0
 19 18  1  0  0  0
 20 19  1  0  0  0
 20 21  2  0  0  0
 23 21  1  0  0  0
 21 22  1  0  0  0
  3  2  2  0  0  0
  2  6  1  0  0  0
  2  4  1  0  0  0
  6  7  1  0  0  0
 10  7  2  0  0  0
  7  9  1  0  0  0
  7  8  1  0  0  0
  8 11  1  0  0  0
  4  5  1  0  0  0
  9 12  1  0  0  0
M  END
> <minimizedAffinity>
-6.84779

$$$$
5UV2_LA6_A_704


 23 22  0  0  0  0  0  0  0  0999 V2000
   -4.5092   13.7657  -17.7974 O   0  0  0  0  0  0  0  0  0  0  0  0
   -3.4268   14.7247  -18.4824 P   0  0  0  0  0  0  0  0  0  0  0  0
   -2.4151   15.0864  -17.4140 O   0  0  0  0  0  0  0  0  0  0  0  0
   -4.1007   15.9464  -19.0494 O   0  0  0  0  0  0  0  0  0  0  0  0
   -4.5473   16.4295  -18.3365 H   0  0  0  0  0  0  0  0  0  0  0  0
   -2.6834   13.9203  -19.6679 O   0  0  0  0  0  0  0  0  0  0  0  0
   -3.4817   13.2736  -20.9093 P   0  0  0  0  0  0  0  0  0  0  0  0
   -4.4387   12.2596  -20.3217 O   0  0  0  0  0  0  0  0  0  0  0  0
   -2.5185   12.5896  -21.8511 O   0  0  0  0  0  0  0  0  0  0  0  0
   -4.2195   14.3719  -21.6460 O   0  0  0  0  0  0  0  0  0  0  0  0
   -5.0532   12.7065  -19.7187 H   0  0  0  0  0  0  0  0  0  0  0  0
   -1.9090   13.2461  -22.2232 H   0  0  0  0  0  0  0  0  0  0  0  0
   -5.9058   13.9909  -17.9186 C   0  0  0  0  0  0  0  0  0  0  0  0
   -6.6089   13.2217  -16.8269 C   0  0  0  0  0  0  0  0  0  0  0  0
   -6.2561   11.9932  -16.5258 F   0  0  0  0  0  0  0  0  0  0  0  0
   -7.6063   13.7972  -16.1746 C   0  0  0  0  0  0  0  0  0  0  0  0
   -8.2691   12.9929  -15.0996 C   0  0  0  0  0  0  0  0  0  0  0  0
   -7.9755   15.2244  -16.5566 C   0  0  0  0  0  0  0  0  0  0  0  0
   -9.1739   15.4736  -17.4818 C   0  0  0  0  0  0  0  0  0  0  0  0
   -9.2567   14.7981  -18.8417 C   0  0  0  0  0  0  0  0  0  0  0  0
   -9.6484   13.5647  -19.2130 C   0  0  0  0  0  0  0  0  0  0  0  0
  -10.1172   12.4839  -18.2848 C   0  0  0  0  0  0  0  0  0  0  0  0
   -9.5931   13.2650  -20.6787 C   0  0  0  0  0  0  0  0  0  0  0  0
 14 13  1  0  0  0
 13  1  1  0  0  0
  2  1  1  0  0  0
 16 14  2  0  0  0
 14 15  1  0  0  0
 17 16  1  0  0  0
 18 16  1  0  0  0
 19 18  1  0  0  0
 20 19  1  0  0  0
 20 21  2  0  0  0
 23 21  1  0  0  0
 21 22  1  0  0  0
  3  2  2  0  0  0
  2  6  1  0  0  0
  2  4  1  0  0  0
  6  7  1  0  0  0
 10  7  2  0  0  0
  7  9  1  0  0  0
  7  8  1  0  0  0
  8 11  1  0  0  0
  4  5  1  0  0  0
  9 12  1  0  0  0
M  END
> <minimizedAffinity>
-6.76250

$$$$
