4K5P_1OS_A_1106


 22 22  0  0  0  0  0  0  0  0999 V2000
   12.7334   11.0975   14.8899 C   0  0  0  0  0  0  0  0  0  0  0  0
   11.8602   12.0365   15.4065 C   0  0  0  0  0  0  0  0  0  0  0  0
   11.5710   11.9072   16.7766 C   0  0  0  0  0  0  0  0  0  0  0  0
   12.1085   10.8719   17.5805 C   0  0  0  0  0  0  0  0  0  0  0  0
   12.9518    9.9494   17.0203 C   0  0  0  0  0  0  0  0  0  0  0  0
   13.2598   10.0708   15.6752 C   0  0  0  0  0  0  0  0  0  0  0  0
   11.8797   10.6897   19.0840 C   0  0  0  0  0  0  0  0  0  0  0  0
   11.6054   11.6462   19.8813 N   0  0  0  0  0  0  0  0  0  0  0  0
   11.8856    9.4462   19.5865 N   0  0  0  0  0  0  0  0  0  0  0  0
   11.5909   12.5736   19.5511 H   0  0  0  0  0  0  0  0  0  0  0  0
   11.4082   11.4574   20.8272 H   0  0  0  0  0  0  0  0  0  0  0  0
   12.0926    8.6805   19.0033 H   0  0  0  0  0  0  0  0  0  0  0  0
   13.1056   11.0019   13.4670 C   0  0  0  0  0  0  0  0  0  0  0  0
   14.4802   11.5306   13.3382 N   0  0  0  0  0  0  0  0  0  0  0  0
   14.4972   12.5080   13.6294 H   0  0  0  0  0  0  0  0  0  0  0  0
   14.7819   11.4601   12.3664 H   0  0  0  0  0  0  0  0  0  0  0  0
   12.4799   11.1505   11.1147 O   0  0  0  0  0  0  0  0  0  0  0  0
   12.1811   12.0718   12.4039 P   0  0  0  0  0  0  0  0  0  0  0  0
   13.0403   13.3455   11.6697 O   0  0  0  0  0  0  0  0  0  0  0  0
   10.5753   11.9723   12.4639 O   0  0  0  0  0  0  0  0  0  0  0  0
   12.4378   13.8633   11.1131 H   0  0  0  0  0  0  0  0  0  0  0  0
   10.1886   12.6052   11.8388 H   0  0  0  0  0  0  0  0  0  0  0  0
 17 18  2  0  0  0
 19 18  1  0  0  0
 20 18  1  0  0  0
 18 13  1  0  0  0
 14 13  1  0  0  0
 13  1  1  0  0  0
  1  6  2  0  0  0
  1  2  1  0  0  0
  6  5  1  0  0  0
  2  3  2  0  0  0
  5  4  2  0  0  0
  3  4  1  0  0  0
  4  7  1  0  0  0
  7  9  2  0  0  0
  7  8  1  0  0  0
 19 21  1  0  0  0
 20 22  1  0  0  0
 14 15  1  0  0  0
 14 16  1  0  0  0
  8 10  1  0  0  0
  8 11  1  0  0  0
  9 12  1  0  0  0
M  END
> <minimizedAffinity>
-8.69592

$$$$
4K5P_1OS_A_1106


 22 22  0  0  0  0  0  0  0  0999 V2000
   12.4545   11.5541   14.4625 C   0  0  0  0  0  0  0  0  0  0  0  0
   13.1695   10.4250   14.8162 C   0  0  0  0  0  0  0  0  0  0  0  0
   13.0926   10.0581   16.1716 C   0  0  0  0  0  0  0  0  0  0  0  0
   12.3586   10.8020   17.1281 C   0  0  0  0  0  0  0  0  0  0  0  0
   11.6839   11.9277   16.7365 C   0  0  0  0  0  0  0  0  0  0  0  0
   11.7361   12.2953   15.4019 C   0  0  0  0  0  0  0  0  0  0  0  0
   12.1884   10.4446   18.6078 C   0  0  0  0  0  0  0  0  0  0  0  0
   12.3688    9.2741   19.0806 N   0  0  0  0  0  0  0  0  0  0  0  0
   11.9138   11.4285   19.4768 N   0  0  0  0  0  0  0  0  0  0  0  0
   12.5724    8.5247   18.4755 H   0  0  0  0  0  0  0  0  0  0  0  0
   12.3043    9.1198   20.0508 H   0  0  0  0  0  0  0  0  0  0  0  0
   11.7680   12.3462   19.1514 H   0  0  0  0  0  0  0  0  0  0  0  0
   12.4635   12.1568   13.1175 C   0  0  0  0  0  0  0  0  0  0  0  0
   11.1319   11.9169   12.5220 N   0  0  0  0  0  0  0  0  0  0  0  0
   10.9703   10.9128   12.4438 H   0  0  0  0  0  0  0  0  0  0  0  0
   11.0926   12.3408   11.5951 H   0  0  0  0  0  0  0  0  0  0  0  0
   13.5203   12.6155   10.9681 O   0  0  0  0  0  0  0  0  0  0  0  0
   13.5469   11.3541   11.9723 P   0  0  0  0  0  0  0  0  0  0  0  0
   12.8124   10.4022   10.7665 O   0  0  0  0  0  0  0  0  0  0  0  0
   15.1142   11.3097   12.3385 O   0  0  0  0  0  0  0  0  0  0  0  0
   13.4969   10.0134   10.1998 H   0  0  0  0  0  0  0  0  0  0  0  0
   15.5972   10.8462   11.6365 H   0  0  0  0  0  0  0  0  0  0  0  0
 17 18  2  0  0  0
 19 18  1  0  0  0
 20 18  1  0  0  0
 18 13  1  0  0  0
 14 13  1  0  0  0
 13  1  1  0  0  0
  1  6  2  0  0  0
  1  2  1  0  0  0
  6  5  1  0  0  0
  2  3  2  0  0  0
  5  4  2  0  0  0
  3  4  1  0  0  0
  4  7  1  0  0  0
  7  9  2  0  0  0
  7  8  1  0  0  0
 19 21  1  0  0  0
 20 22  1  0  0  0
 14 15  1  0  0  0
 14 16  1  0  0  0
  8 10  1  0  0  0
  8 11  1  0  0  0
  9 12  1  0  0  0
M  END
> <minimizedAffinity>
-8.50500

$$$$
4K5P_1OS_A_1106


 22 22  0  0  0  0  0  0  0  0999 V2000
   12.9441   11.3614   15.1059 C   0  0  0  0  0  0  0  0  0  0  0  0
   13.4175   10.1707   15.6249 C   0  0  0  0  0  0  0  0  0  0  0  0
   12.9735    9.8549   16.9213 C   0  0  0  0  0  0  0  0  0  0  0  0
   12.1208   10.7038   17.6691 C   0  0  0  0  0  0  0  0  0  0  0  0
   11.6950   11.8855   17.1231 C   0  0  0  0  0  0  0  0  0  0  0  0
   12.1102   12.2054   15.8409 C   0  0  0  0  0  0  0  0  0  0  0  0
   11.5580   10.4114   19.0633 C   0  0  0  0  0  0  0  0  0  0  0  0
   11.8547    9.3760   19.7458 N   0  0  0  0  0  0  0  0  0  0  0  0
   10.7709   11.3305   19.6418 N   0  0  0  0  0  0  0  0  0  0  0  0
   12.4300    8.6782   19.3568 H   0  0  0  0  0  0  0  0  0  0  0  0
   11.5085    9.2744   20.6618 H   0  0  0  0  0  0  0  0  0  0  0  0
   10.5190   12.1440   19.1479 H   0  0  0  0  0  0  0  0  0  0  0  0
   13.3474   11.9193   13.8026 C   0  0  0  0  0  0  0  0  0  0  0  0
   13.2663   13.3913   13.9132 N   0  0  0  0  0  0  0  0  0  0  0  0
   12.3051   13.6645   14.1175 H   0  0  0  0  0  0  0  0  0  0  0  0
   13.5606   13.8151   13.0334 H   0  0  0  0  0  0  0  0  0  0  0  0
   12.1043   13.1288   12.0883 O   0  0  0  0  0  0  0  0  0  0  0  0
   12.2189   11.5702   12.4858 P   0  0  0  0  0  0  0  0  0  0  0  0
   10.5626   11.5683   12.8811 O   0  0  0  0  0  0  0  0  0  0  0  0
   12.8304   10.9690   11.1231 O   0  0  0  0  0  0  0  0  0  0  0  0
   10.0412   11.3666   12.0884 H   0  0  0  0  0  0  0  0  0  0  0  0
   12.1150   10.8225   10.4847 H   0  0  0  0  0  0  0  0  0  0  0  0
 17 18  2  0  0  0
 19 18  1  0  0  0
 20 18  1  0  0  0
 18 13  1  0  0  0
 14 13  1  0  0  0
 13  1  1  0  0  0
  1  6  2  0  0  0
  1  2  1  0  0  0
  6  5  1  0  0  0
  2  3  2  0  0  0
  5  4  2  0  0  0
  3  4  1  0  0  0
  4  7  1  0  0  0
  7  9  2  0  0  0
  7  8  1  0  0  0
 19 21  1  0  0  0
 20 22  1  0  0  0
 14 15  1  0  0  0
 14 16  1  0  0  0
  8 10  1  0  0  0
  8 11  1  0  0  0
  9 12  1  0  0  0
M  END
> <minimizedAffinity>
-8.50224

$$$$
4K5P_1OS_A_1106


 22 22  0  0  0  0  0  0  0  0999 V2000
   13.2052   11.0270   14.6097 C   0  0  0  0  0  0  0  0  0  0  0  0
   13.2810    9.9942   15.5254 C   0  0  0  0  0  0  0  0  0  0  0  0
   13.1320   10.3663   16.8734 C   0  0  0  0  0  0  0  0  0  0  0  0
   12.9448   11.7095   17.2830 C   0  0  0  0  0  0  0  0  0  0  0  0
   12.8993   12.7034   16.3418 C   0  0  0  0  0  0  0  0  0  0  0  0
   13.0288   12.3530   15.0079 C   0  0  0  0  0  0  0  0  0  0  0  0
   12.7296   12.1895   18.7215 C   0  0  0  0  0  0  0  0  0  0  0  0
   11.9768   11.5964   19.5627 N   0  0  0  0  0  0  0  0  0  0  0  0
   13.4317   13.2466   19.1557 N   0  0  0  0  0  0  0  0  0  0  0  0
   11.4452   10.8163   19.2831 H   0  0  0  0  0  0  0  0  0  0  0  0
   11.9273   11.9184   20.4917 H   0  0  0  0  0  0  0  0  0  0  0  0
   14.0244   13.7316   18.5371 H   0  0  0  0  0  0  0  0  0  0  0  0
   13.4149   10.8696   13.1593 C   0  0  0  0  0  0  0  0  0  0  0  0
   14.8030   11.2879   12.8703 N   0  0  0  0  0  0  0  0  0  0  0  0
   14.9234   12.2677   13.1270 H   0  0  0  0  0  0  0  0  0  0  0  0
   14.9930   11.1715   11.8749 H   0  0  0  0  0  0  0  0  0  0  0  0
   12.6340   11.0563   10.8566 O   0  0  0  0  0  0  0  0  0  0  0  0
   12.4636   11.9821   12.1659 P   0  0  0  0  0  0  0  0  0  0  0  0
   13.3212   13.2237   11.3769 O   0  0  0  0  0  0  0  0  0  0  0  0
   10.8630   11.9478   12.3372 O   0  0  0  0  0  0  0  0  0  0  0  0
   12.7033   13.7686   10.8649 H   0  0  0  0  0  0  0  0  0  0  0  0
   10.4601   12.5993   11.7421 H   0  0  0  0  0  0  0  0  0  0  0  0
 17 18  2  0  0  0
 19 18  1  0  0  0
 20 18  1  0  0  0
 18 13  1  0  0  0
 14 13  1  0  0  0
 13  1  1  0  0  0
  1  6  2  0  0  0
  1  2  1  0  0  0
  6  5  1  0  0  0
  2  3  2  0  0  0
  5  4  2  0  0  0
  3  4  1  0  0  0
  4  7  1  0  0  0
  7  9  2  0  0  0
  7  8  1  0  0  0
 19 21  1  0  0  0
 20 22  1  0  0  0
 14 15  1  0  0  0
 14 16  1  0  0  0
  8 10  1  0  0  0
  8 11  1  0  0  0
  9 12  1  0  0  0
M  END
> <minimizedAffinity>
-8.43946

$$$$
4K5P_1OS_A_1106


 22 22  0  0  0  0  0  0  0  0999 V2000
   13.9599    9.8925   13.8819 C   0  0  0  0  0  0  0  0  0  0  0  0
   13.8383    9.1209   15.0226 C   0  0  0  0  0  0  0  0  0  0  0  0
   13.2707    9.7676   16.1349 C   0  0  0  0  0  0  0  0  0  0  0  0
   12.8715   11.1267   16.1119 C   0  0  0  0  0  0  0  0  0  0  0  0
   13.0323   11.8594   14.9659 C   0  0  0  0  0  0  0  0  0  0  0  0
   13.5756   11.2339   13.8558 C   0  0  0  0  0  0  0  0  0  0  0  0
   12.2060   11.8884   17.2621 C   0  0  0  0  0  0  0  0  0  0  0  0
   11.1544   11.4896   17.8630 N   0  0  0  0  0  0  0  0  0  0  0  0
   12.8016   12.9973   17.7251 N   0  0  0  0  0  0  0  0  0  0  0  0
   10.6879   10.6797   17.5537 H   0  0  0  0  0  0  0  0  0  0  0  0
   10.8090   11.9917   18.6362 H   0  0  0  0  0  0  0  0  0  0  0  0
   13.6158   13.3376   17.2887 H   0  0  0  0  0  0  0  0  0  0  0  0
   14.5996    9.4376   12.6344 C   0  0  0  0  0  0  0  0  0  0  0  0
   16.0546    9.3729   12.8877 N   0  0  0  0  0  0  0  0  0  0  0  0
   16.3996   10.3023   13.1277 H   0  0  0  0  0  0  0  0  0  0  0  0
   16.5311    9.0392   12.0498 H   0  0  0  0  0  0  0  0  0  0  0  0
   15.0504    9.5198   10.2393 O   0  0  0  0  0  0  0  0  0  0  0  0
   14.4925   10.5965   11.3022 P   0  0  0  0  0  0  0  0  0  0  0  0
   15.8667   11.5612   11.0183 O   0  0  0  0  0  0  0  0  0  0  0  0
   13.0344   10.8842   10.6832 O   0  0  0  0  0  0  0  0  0  0  0  0
   15.6960   12.1549   10.2705 H   0  0  0  0  0  0  0  0  0  0  0  0
   13.1099   11.5323    9.9654 H   0  0  0  0  0  0  0  0  0  0  0  0
 17 18  2  0  0  0
 19 18  1  0  0  0
 20 18  1  0  0  0
 18 13  1  0  0  0
 14 13  1  0  0  0
 13  1  1  0  0  0
  1  6  2  0  0  0
  1  2  1  0  0  0
  6  5  1  0  0  0
  2  3  2  0  0  0
  5  4  2  0  0  0
  3  4  1  0  0  0
  4  7  1  0  0  0
  7  9  2  0  0  0
  7  8  1  0  0  0
 19 21  1  0  0  0
 20 22  1  0  0  0
 14 15  1  0  0  0
 14 16  1  0  0  0
  8 10  1  0  0  0
  8 11  1  0  0  0
  9 12  1  0  0  0
M  END
> <minimizedAffinity>
-7.81453

$$$$
4K5P_1OS_A_1106


 22 22  0  0  0  0  0  0  0  0999 V2000
   12.8517   11.3499   15.9183 C   0  0  0  0  0  0  0  0  0  0  0  0
   13.4966   10.3446   15.2221 C   0  0  0  0  0  0  0  0  0  0  0  0
   13.5292   10.4989   13.8247 C   0  0  0  0  0  0  0  0  0  0  0  0
   12.9215   11.5914   13.1584 C   0  0  0  0  0  0  0  0  0  0  0  0
   12.2730   12.5524   13.8877 C   0  0  0  0  0  0  0  0  0  0  0  0
   12.2445   12.4244   15.2667 C   0  0  0  0  0  0  0  0  0  0  0  0
   12.9519   11.8546   11.6498 C   0  0  0  0  0  0  0  0  0  0  0  0
   13.0911   13.0124   11.1338 N   0  0  0  0  0  0  0  0  0  0  0  0
   12.9125   10.8050   10.8157 N   0  0  0  0  0  0  0  0  0  0  0  0
   13.1246   13.8083   11.7123 H   0  0  0  0  0  0  0  0  0  0  0  0
   13.1650   13.1103   10.1570 H   0  0  0  0  0  0  0  0  0  0  0  0
   12.8062    9.8945   11.1749 H   0  0  0  0  0  0  0  0  0  0  0  0
   12.6329   11.3439   17.3759 C   0  0  0  0  0  0  0  0  0  0  0  0
   11.2143   11.6902   17.6063 N   0  0  0  0  0  0  0  0  0  0  0  0
   11.0278   12.6230   17.2382 H   0  0  0  0  0  0  0  0  0  0  0  0
   11.0187   11.6744   18.6073 H   0  0  0  0  0  0  0  0  0  0  0  0
   14.6081   11.6031   18.7823 O   0  0  0  0  0  0  0  0  0  0  0  0
   13.4875   12.6286   18.2410 P   0  0  0  0  0  0  0  0  0  0  0  0
   13.0036   12.9187   19.8477 O   0  0  0  0  0  0  0  0  0  0  0  0
   14.4050   13.6264   17.3722 O   0  0  0  0  0  0  0  0  0  0  0  0
   13.5361   13.6386   20.2208 H   0  0  0  0  0  0  0  0  0  0  0  0
   14.8162   14.2806   17.9586 H   0  0  0  0  0  0  0  0  0  0  0  0
 17 18  2  0  0  0
 19 18  1  0  0  0
 20 18  1  0  0  0
 18 13  1  0  0  0
 14 13  1  0  0  0
 13  1  1  0  0  0
  1  6  2  0  0  0
  1  2  1  0  0  0
  6  5  1  0  0  0
  2  3  2  0  0  0
  5  4  2  0  0  0
  3  4  1  0  0  0
  4  7  1  0  0  0
  7  9  2  0  0  0
  7  8  1  0  0  0
 19 21  1  0  0  0
 20 22  1  0  0  0
 14 15  1  0  0  0
 14 16  1  0  0  0
  8 10  1  0  0  0
  8 11  1  0  0  0
  9 12  1  0  0  0
M  END
> <minimizedAffinity>
-7.79584

$$$$
4K5P_1OS_A_1106


 22 22  0  0  0  0  0  0  0  0999 V2000
   12.9237   11.3227   16.2760 C   0  0  0  0  0  0  0  0  0  0  0  0
   12.6126   12.6546   16.0754 C   0  0  0  0  0  0  0  0  0  0  0  0
   12.4667   13.0481   14.7332 C   0  0  0  0  0  0  0  0  0  0  0  0
   12.6511   12.1570   13.6473 C   0  0  0  0  0  0  0  0  0  0  0  0
   12.9816   10.8508   13.8931 C   0  0  0  0  0  0  0  0  0  0  0  0
   13.1142   10.4422   15.2101 C   0  0  0  0  0  0  0  0  0  0  0  0
   12.4663   12.4951   12.1649 C   0  0  0  0  0  0  0  0  0  0  0  0
   13.4251   12.8008   11.3817 N   0  0  0  0  0  0  0  0  0  0  0  0
   11.2406   12.3869   11.6313 N   0  0  0  0  0  0  0  0  0  0  0  0
   14.3398   12.8899   11.7347 H   0  0  0  0  0  0  0  0  0  0  0  0
   13.2506   12.9478   10.4240 H   0  0  0  0  0  0  0  0  0  0  0  0
   10.4739   12.1525   12.2027 H   0  0  0  0  0  0  0  0  0  0  0  0
   13.1995   10.7224   17.5936 C   0  0  0  0  0  0  0  0  0  0  0  0
   13.4225    9.2770   17.3774 N   0  0  0  0  0  0  0  0  0  0  0  0
   12.5804    8.8584   16.9824 H   0  0  0  0  0  0  0  0  0  0  0  0
   13.6390    8.8294   18.2680 H   0  0  0  0  0  0  0  0  0  0  0  0
   12.5362   11.7964   19.6800 O   0  0  0  0  0  0  0  0  0  0  0  0
   11.8183   10.7371   18.6988 P   0  0  0  0  0  0  0  0  0  0  0  0
   11.8354    9.5889   19.9562 O   0  0  0  0  0  0  0  0  0  0  0  0
   10.5226   11.5847   18.2573 O   0  0  0  0  0  0  0  0  0  0  0  0
   11.0354    9.6883   20.4957 H   0  0  0  0  0  0  0  0  0  0  0  0
    9.8403   11.5131   18.9431 H   0  0  0  0  0  0  0  0  0  0  0  0
 17 18  2  0  0  0
 19 18  1  0  0  0
 20 18  1  0  0  0
 18 13  1  0  0  0
 14 13  1  0  0  0
 13  1  1  0  0  0
  1  6  2  0  0  0
  1  2  1  0  0  0
  6  5  1  0  0  0
  2  3  2  0  0  0
  5  4  2  0  0  0
  3  4  1  0  0  0
  4  7  1  0  0  0
  7  9  2  0  0  0
  7  8  1  0  0  0
 19 21  1  0  0  0
 20 22  1  0  0  0
 14 15  1  0  0  0
 14 16  1  0  0  0
  8 10  1  0  0  0
  8 11  1  0  0  0
  9 12  1  0  0  0
M  END
> <minimizedAffinity>
-7.78829

$$$$
4K5P_1OS_A_1106


 22 22  0  0  0  0  0  0  0  0999 V2000
   12.5742   11.3570   15.4069 C   0  0  0  0  0  0  0  0  0  0  0  0
   13.3682   10.3443   14.9017 C   0  0  0  0  0  0  0  0  0  0  0  0
   13.6928   10.4512   13.5376 C   0  0  0  0  0  0  0  0  0  0  0  0
   13.2218   11.5051   12.7164 C   0  0  0  0  0  0  0  0  0  0  0  0
   12.4180   12.4745   13.2550 C   0  0  0  0  0  0  0  0  0  0  0  0
   12.1007   12.3933   14.6009 C   0  0  0  0  0  0  0  0  0  0  0  0
   13.5660   11.7169   11.2390 C   0  0  0  0  0  0  0  0  0  0  0  0
   14.4686   11.0630   10.6196 N   0  0  0  0  0  0  0  0  0  0  0  0
   12.8266   12.5797   10.5265 N   0  0  0  0  0  0  0  0  0  0  0  0
   15.0326   10.4199   11.1071 H   0  0  0  0  0  0  0  0  0  0  0  0
   14.6015   11.2011    9.6539 H   0  0  0  0  0  0  0  0  0  0  0  0
   12.1196   13.1037   10.9680 H   0  0  0  0  0  0  0  0  0  0  0  0
   12.0523   11.3957   16.7848 C   0  0  0  0  0  0  0  0  0  0  0  0
   11.9458   12.8185   17.1721 N   0  0  0  0  0  0  0  0  0  0  0  0
   12.8706   13.2480   17.1463 H   0  0  0  0  0  0  0  0  0  0  0  0
   11.5656   12.8864   18.1161 H   0  0  0  0  0  0  0  0  0  0  0  0
   12.3114   11.3850   19.2096 O   0  0  0  0  0  0  0  0  0  0  0  0
   13.1653   10.7494   17.9984 P   0  0  0  0  0  0  0  0  0  0  0  0
   14.4811   11.7399   18.4309 O   0  0  0  0  0  0  0  0  0  0  0  0
   13.0490    9.1834   18.3540 O   0  0  0  0  0  0  0  0  0  0  0  0
   15.0206   11.2878   19.0984 H   0  0  0  0  0  0  0  0  0  0  0  0
   13.7086    8.9549   19.0276 H   0  0  0  0  0  0  0  0  0  0  0  0
 17 18  2  0  0  0
 19 18  1  0  0  0
 20 18  1  0  0  0
 18 13  1  0  0  0
 14 13  1  0  0  0
 13  1  1  0  0  0
  1  6  2  0  0  0
  1  2  1  0  0  0
  6  5  1  0  0  0
  2  3  2  0  0  0
  5  4  2  0  0  0
  3  4  1  0  0  0
  4  7  1  0  0  0
  7  9  2  0  0  0
  7  8  1  0  0  0
 19 21  1  0  0  0
 20 22  1  0  0  0
 14 15  1  0  0  0
 14 16  1  0  0  0
  8 10  1  0  0  0
  8 11  1  0  0  0
  9 12  1  0  0  0
M  END
> <minimizedAffinity>
-7.65088

$$$$
4K5P_1OS_A_1106


 22 22  0  0  0  0  0  0  0  0999 V2000
   14.6718   10.2549   12.2620 C   0  0  0  0  0  0  0  0  0  0  0  0
   15.1221    8.9876   12.5821 C   0  0  0  0  0  0  0  0  0  0  0  0
   15.7444    8.2828   11.5363 C   0  0  0  0  0  0  0  0  0  0  0  0
   15.8825    8.8117   10.2293 C   0  0  0  0  0  0  0  0  0  0  0  0
   15.4003   10.0633    9.9519 C   0  0  0  0  0  0  0  0  0  0  0  0
   14.7981   10.7780   10.9743 C   0  0  0  0  0  0  0  0  0  0  0  0
   16.5853    8.1287    9.0522 C   0  0  0  0  0  0  0  0  0  0  0  0
   16.0535    7.9676    7.9045 N   0  0  0  0  0  0  0  0  0  0  0  0
   17.8625    7.7478    9.2025 N   0  0  0  0  0  0  0  0  0  0  0  0
   15.1180    8.2346    7.7536 H   0  0  0  0  0  0  0  0  0  0  0  0
   16.5785    7.5762    7.1693 H   0  0  0  0  0  0  0  0  0  0  0  0
   18.3091    7.8556   10.0732 H   0  0  0  0  0  0  0  0  0  0  0  0
   13.9222   11.1283   13.1827 C   0  0  0  0  0  0  0  0  0  0  0  0
   13.1355   10.2504   14.0748 N   0  0  0  0  0  0  0  0  0  0  0  0
   12.4807    9.7000   13.5192 H   0  0  0  0  0  0  0  0  0  0  0  0
   12.6181   10.8210   14.7435 H   0  0  0  0  0  0  0  0  0  0  0  0
   12.4816   13.0249   13.7066 O   0  0  0  0  0  0  0  0  0  0  0  0
   12.6698   12.1009   12.3985 P   0  0  0  0  0  0  0  0  0  0  0  0
   11.0644   11.5606   12.5720 O   0  0  0  0  0  0  0  0  0  0  0  0
   13.1480   13.2067   11.3304 O   0  0  0  0  0  0  0  0  0  0  0  0
   10.4673   12.1657   12.1048 H   0  0  0  0  0  0  0  0  0  0  0  0
   12.3729   13.6688   10.9745 H   0  0  0  0  0  0  0  0  0  0  0  0
 17 18  2  0  0  0
 19 18  1  0  0  0
 20 18  1  0  0  0
 18 13  1  0  0  0
 14 13  1  0  0  0
 13  1  1  0  0  0
  1  6  2  0  0  0
  1  2  1  0  0  0
  6  5  1  0  0  0
  2  3  2  0  0  0
  5  4  2  0  0  0
  3  4  1  0  0  0
  4  7  1  0  0  0
  7  9  2  0  0  0
  7  8  1  0  0  0
 19 21  1  0  0  0
 20 22  1  0  0  0
 14 15  1  0  0  0
 14 16  1  0  0  0
  8 10  1  0  0  0
  8 11  1  0  0  0
  9 12  1  0  0  0
M  END
> <minimizedAffinity>
-7.32520

$$$$
4K5P_1OS_A_1106


 22 22  0  0  0  0  0  0  0  0999 V2000
   14.1386    9.8225   13.7478 C   0  0  0  0  0  0  0  0  0  0  0  0
   13.7040   11.0732   13.3502 C   0  0  0  0  0  0  0  0  0  0  0  0
   13.0216   11.8177   14.3287 C   0  0  0  0  0  0  0  0  0  0  0  0
   12.7640   11.3214   15.6304 C   0  0  0  0  0  0  0  0  0  0  0  0
   13.1934   10.0667   15.9729 C   0  0  0  0  0  0  0  0  0  0  0  0
   13.8810    9.3253   15.0261 C   0  0  0  0  0  0  0  0  0  0  0  0
   12.0705   12.0844   16.7630 C   0  0  0  0  0  0  0  0  0  0  0  0
   11.0403   11.6562   17.3806 N   0  0  0  0  0  0  0  0  0  0  0  0
   12.6183   13.2310   17.1921 N   0  0  0  0  0  0  0  0  0  0  0  0
   10.6089   10.8181   17.0963 H   0  0  0  0  0  0  0  0  0  0  0  0
   10.6764   12.1636   18.1417 H   0  0  0  0  0  0  0  0  0  0  0  0
   13.4146   13.5948   16.7418 H   0  0  0  0  0  0  0  0  0  0  0  0
   14.7998    8.8504   12.8588 C   0  0  0  0  0  0  0  0  0  0  0  0
   15.6458    7.9858   13.7087 N   0  0  0  0  0  0  0  0  0  0  0  0
   16.3519    8.5547   14.1759 H   0  0  0  0  0  0  0  0  0  0  0  0
   16.1045    7.2831   13.1288 H   0  0  0  0  0  0  0  0  0  0  0  0
   17.2192    8.9493   12.5694 O   0  0  0  0  0  0  0  0  0  0  0  0
   15.9761    9.5680   11.7494 P   0  0  0  0  0  0  0  0  0  0  0  0
   16.5276   11.1332   12.1306 O   0  0  0  0  0  0  0  0  0  0  0  0
   16.1857    8.8509   10.3232 O   0  0  0  0  0  0  0  0  0  0  0  0
   17.1641   11.4243   11.4589 H   0  0  0  0  0  0  0  0  0  0  0  0
   16.8513    9.3369    9.8116 H   0  0  0  0  0  0  0  0  0  0  0  0
 17 18  2  0  0  0
 19 18  1  0  0  0
 20 18  1  0  0  0
 18 13  1  0  0  0
 14 13  1  0  0  0
 13  1  1  0  0  0
  1  6  2  0  0  0
  1  2  1  0  0  0
  6  5  1  0  0  0
  2  3  2  0  0  0
  5  4  2  0  0  0
  3  4  1  0  0  0
  4  7  1  0  0  0
  7  9  2  0  0  0
  7  8  1  0  0  0
 19 21  1  0  0  0
 20 22  1  0  0  0
 14 15  1  0  0  0
 14 16  1  0  0  0
  8 10  1  0  0  0
  8 11  1  0  0  0
  9 12  1  0  0  0
M  END
> <minimizedAffinity>
-7.26716

$$$$
