4NA9_1T7_H_301


 42 46  0  0  0  0  0  0  0  0999 V2000
    8.1772   35.7346   28.0715 C   0  0  0  0  0  0  0  0  0  0  0  0
    8.6597   35.4857   26.7781 C   0  0  0  0  0  0  0  0  0  0  0  0
    8.0131   36.0273   25.6703 N   0  0  0  0  0  0  0  0  0  0  0  0
    6.7529   36.7591   25.8172 C   0  0  0  0  0  0  0  0  0  0  0  0
    6.8593   37.6307   27.0778 C   0  0  0  0  0  0  0  0  0  0  0  0
    7.0470   36.7127   28.3106 C   0  0  0  0  0  0  0  0  0  0  0  0
    9.6668   34.0212   28.9412 C   0  0  0  0  0  0  0  0  0  0  0  0
   10.1133   33.7733   27.6461 C   0  0  0  0  0  0  0  0  0  0  0  0
    9.6469   34.5222   26.5821 C   0  0  0  0  0  0  0  0  0  0  0  0
    8.7131   35.0127   29.1408 C   0  0  0  0  0  0  0  0  0  0  0  0
    8.4085   35.9168   24.7755 H   0  0  0  0  0  0  0  0  0  0  0  0
    6.5370   37.6838   24.6384 C   0  0  0  0  0  0  0  0  0  0  0  0
    7.4975   38.6269   24.3141 C   0  0  0  0  0  0  0  0  0  0  0  0
    7.3087   39.5552   23.2963 C   0  0  0  0  0  0  0  0  0  0  0  0
    6.1156   39.5112   22.5692 C   0  0  0  0  0  0  0  0  0  0  0  0
    5.1312   38.5584   22.8597 C   0  0  0  0  0  0  0  0  0  0  0  0
    5.3590   37.6598   23.9020 C   0  0  0  0  0  0  0  0  0  0  0  0
    3.9464   38.4903   22.1216 N   0  0  0  0  0  0  0  0  0  0  0  0
    3.7873   39.1253   21.3863 H   0  0  0  0  0  0  0  0  0  0  0  0
    3.2709   37.8073   22.3370 H   0  0  0  0  0  0  0  0  0  0  0  0
    8.4089   40.5137   22.9869 C   0  0  0  0  0  0  0  0  0  0  0  0
    8.1953   41.8835   23.1312 C   0  0  0  0  0  0  0  0  0  0  0  0
    9.2487   42.7861   22.9912 C   0  0  0  0  0  0  0  0  0  0  0  0
   10.5201   42.3331   22.6880 C   0  0  0  0  0  0  0  0  0  0  0  0
   10.7504   40.9806   22.5146 C   0  0  0  0  0  0  0  0  0  0  0  0
    9.6977   40.0686   22.6467 C   0  0  0  0  0  0  0  0  0  0  0  0
    9.9578   38.6473   22.3166 C   0  0  0  0  0  0  0  0  0  0  0  0
    9.3922   38.2323   21.2167 O   0  0  0  0  0  0  0  0  0  0  0  0
   10.7531   37.9991   22.9790 O   0  0  0  0  0  0  0  0  0  0  0  0
    8.7900   38.7873   20.7613 H   0  0  0  0  0  0  0  0  0  0  0  0
   10.1114   33.1846   30.1119 C   0  0  0  0  0  0  0  0  0  0  0  0
   10.4864   31.8599   29.9024 N   0  0  0  0  0  0  0  0  0  0  0  0
   10.2229   33.7738   31.2927 N   0  0  0  0  0  0  0  0  0  0  0  0
   10.3888   31.4559   29.0100 H   0  0  0  0  0  0  0  0  0  0  0  0
   10.8492   31.3274   30.6468 H   0  0  0  0  0  0  0  0  0  0  0  0
    9.9472   34.7125   31.4024 H   0  0  0  0  0  0  0  0  0  0  0  0
    7.3380   37.7271   29.4112 C   0  0  0  0  0  0  0  0  0  0  0  0
    8.6297   38.1722   29.6610 C   0  0  0  0  0  0  0  0  0  0  0  0
    8.8520   39.2774   30.4771 C   0  0  0  0  0  0  0  0  0  0  0  0
    7.7887   39.9357   31.0603 C   0  0  0  0  0  0  0  0  0  0  0  0
    6.5059   39.4781   30.8476 C   0  0  0  0  0  0  0  0  0  0  0  0
    6.2816   38.3721   30.0386 C   0  0  0  0  0  0  0  0  0  0  0  0
 29 27  2  0  0  0
 18 16  1  0  0  0
 27 26  1  0  0  0
 27 28  1  0  0  0
 25 24  2  0  0  0
 25 26  1  0  0  0
 24 23  1  0  0  0
 15 16  2  0  0  0
 15 14  1  0  0  0
 26 21  2  0  0  0
 23 22  2  0  0  0
 16 17  1  0  0  0
 21 22  1  0  0  0
 21 14  1  0  0  0
 14 13  2  0  0  0
 17 12  2  0  0  0
 13 12  1  0  0  0
 12  4  1  0  0  0
  3  4  1  0  0  0
  3  2  1  0  0  0
  4  5  1  0  0  0
  9  2  2  0  0  0
  9  8  1  0  0  0
  2  1  1  0  0  0
  5  6  1  0  0  0
  8  7  2  0  0  0
  1  6  1  0  0  0
  1 10  2  0  0  0
  6 37  1  0  0  0
  7 10  1  0  0  0
  7 31  1  0  0  0
 37 38  2  0  0  0
 37 42  1  0  0  0
 38 39  1  0  0  0
 32 31  1  0  0  0
 42 41  2  0  0  0
 31 33  2  0  0  0
 39 40  2  0  0  0
 41 40  1  0  0  0
  3 11  1  0  0  0
 32 34  1  0  0  0
 32 35  1  0  0  0
 33 36  1  0  0  0
 18 19  1  0  0  0
 18 20  1  0  0  0
 28 30  1  0  0  0
M  END
> <minimizedAffinity>
-11.25017

$$$$
4NA9_1T7_H_301


 42 46  0  0  0  0  0  0  0  0999 V2000
    8.3615   35.9643   27.8612 C   0  0  0  0  0  0  0  0  0  0  0  0
    9.0017   35.7802   26.6268 C   0  0  0  0  0  0  0  0  0  0  0  0
    8.5135   36.4042   25.4818 N   0  0  0  0  0  0  0  0  0  0  0  0
    7.2590   37.1594   25.5126 C   0  0  0  0  0  0  0  0  0  0  0  0
    7.2188   37.9511   26.8286 C   0  0  0  0  0  0  0  0  0  0  0  0
    7.2287   36.9563   28.0153 C   0  0  0  0  0  0  0  0  0  0  0  0
    9.6940   34.1627   28.8045 C   0  0  0  0  0  0  0  0  0  0  0  0
   10.2986   33.9806   27.5639 C   0  0  0  0  0  0  0  0  0  0  0  0
    9.9875   34.8039   26.4981 C   0  0  0  0  0  0  0  0  0  0  0  0
    8.7414   35.1657   28.9427 C   0  0  0  0  0  0  0  0  0  0  0  0
    9.0187   36.3367   24.6395 H   0  0  0  0  0  0  0  0  0  0  0  0
    7.2143   38.1584   24.3762 C   0  0  0  0  0  0  0  0  0  0  0  0
    6.0605   38.8867   24.1404 C   0  0  0  0  0  0  0  0  0  0  0  0
    5.9398   39.7516   23.0586 C   0  0  0  0  0  0  0  0  0  0  0  0
    7.0332   39.8993   22.2002 C   0  0  0  0  0  0  0  0  0  0  0  0
    8.2212   39.1913   22.4206 C   0  0  0  0  0  0  0  0  0  0  0  0
    8.2876   38.3215   23.5091 C   0  0  0  0  0  0  0  0  0  0  0  0
    9.3282   39.3517   21.5828 N   0  0  0  0  0  0  0  0  0  0  0  0
    9.2795   39.9660   20.8150 H   0  0  0  0  0  0  0  0  0  0  0  0
   10.1567   38.8504   21.7604 H   0  0  0  0  0  0  0  0  0  0  0  0
    4.6754   40.5264   22.8976 C   0  0  0  0  0  0  0  0  0  0  0  0
    4.5109   41.7326   23.5765 C   0  0  0  0  0  0  0  0  0  0  0  0
    3.4044   42.5435   23.3274 C   0  0  0  0  0  0  0  0  0  0  0  0
    2.4431   42.1509   22.4135 C   0  0  0  0  0  0  0  0  0  0  0  0
    2.5720   40.9460   21.7472 C   0  0  0  0  0  0  0  0  0  0  0  0
    3.6757   40.1231   21.9961 C   0  0  0  0  0  0  0  0  0  0  0  0
    3.7041   38.7815   21.3666 C   0  0  0  0  0  0  0  0  0  0  0  0
    4.1316   38.7683   20.1341 O   0  0  0  0  0  0  0  0  0  0  0  0
    3.4664   37.7859   22.0328 O   0  0  0  0  0  0  0  0  0  0  0  0
    4.2927   39.5749   19.6853 H   0  0  0  0  0  0  0  0  0  0  0  0
    9.9681   33.2460   29.9676 C   0  0  0  0  0  0  0  0  0  0  0  0
   10.1729   31.8884   29.7346 N   0  0  0  0  0  0  0  0  0  0  0  0
   10.1018   33.7863   31.1693 N   0  0  0  0  0  0  0  0  0  0  0  0
   10.0642   31.5227   28.8270 H   0  0  0  0  0  0  0  0  0  0  0  0
   10.4265   31.2942   30.4776 H   0  0  0  0  0  0  0  0  0  0  0  0
    9.9486   34.7507   31.2952 H   0  0  0  0  0  0  0  0  0  0  0  0
    7.3947   37.8951   29.2053 C   0  0  0  0  0  0  0  0  0  0  0  0
    8.6487   38.3333   29.6110 C   0  0  0  0  0  0  0  0  0  0  0  0
    8.7728   39.3815   30.5180 C   0  0  0  0  0  0  0  0  0  0  0  0
    7.6474   39.9887   31.0366 C   0  0  0  0  0  0  0  0  0  0  0  0
    6.3989   39.5356   30.6678 C   0  0  0  0  0  0  0  0  0  0  0  0
    6.2721   38.4860   29.7676 C   0  0  0  0  0  0  0  0  0  0  0  0
 29 27  2  0  0  0
 18 16  1  0  0  0
 27 26  1  0  0  0
 27 28  1  0  0  0
 25 24  2  0  0  0
 25 26  1  0  0  0
 24 23  1  0  0  0
 15 16  2  0  0  0
 15 14  1  0  0  0
 26 21  2  0  0  0
 23 22  2  0  0  0
 16 17  1  0  0  0
 21 22  1  0  0  0
 21 14  1  0  0  0
 14 13  2  0  0  0
 17 12  2  0  0  0
 13 12  1  0  0  0
 12  4  1  0  0  0
  3  4  1  0  0  0
  3  2  1  0  0  0
  4  5  1  0  0  0
  9  2  2  0  0  0
  9  8  1  0  0  0
  2  1  1  0  0  0
  5  6  1  0  0  0
  8  7  2  0  0  0
  1  6  1  0  0  0
  1 10  2  0  0  0
  6 37  1  0  0  0
  7 10  1  0  0  0
  7 31  1  0  0  0
 37 38  2  0  0  0
 37 42  1  0  0  0
 38 39  1  0  0  0
 32 31  1  0  0  0
 42 41  2  0  0  0
 31 33  2  0  0  0
 39 40  2  0  0  0
 41 40  1  0  0  0
  3 11  1  0  0  0
 32 34  1  0  0  0
 32 35  1  0  0  0
 33 36  1  0  0  0
 18 19  1  0  0  0
 18 20  1  0  0  0
 28 30  1  0  0  0
M  END
> <minimizedAffinity>
-10.34162

$$$$
4NA9_1T7_H_301


 42 46  0  0  0  0  0  0  0  0999 V2000
    8.4161   35.8933   27.9663 C   0  0  0  0  0  0  0  0  0  0  0  0
    9.0273   35.6839   26.7211 C   0  0  0  0  0  0  0  0  0  0  0  0
    8.5202   36.2954   25.5776 N   0  0  0  0  0  0  0  0  0  0  0  0
    7.2742   37.0637   25.6241 C   0  0  0  0  0  0  0  0  0  0  0  0
    7.2706   37.8756   26.9283 C   0  0  0  0  0  0  0  0  0  0  0  0
    7.2968   36.8990   28.1297 C   0  0  0  0  0  0  0  0  0  0  0  0
    9.7512   34.0927   28.9080 C   0  0  0  0  0  0  0  0  0  0  0  0
   10.3267   33.8857   27.6574 C   0  0  0  0  0  0  0  0  0  0  0  0
   10.0003   34.6958   26.5861 C   0  0  0  0  0  0  0  0  0  0  0  0
    8.8118   35.1073   29.0514 C   0  0  0  0  0  0  0  0  0  0  0  0
    9.0062   36.2100   24.7257 H   0  0  0  0  0  0  0  0  0  0  0  0
    7.2144   38.0457   24.4737 C   0  0  0  0  0  0  0  0  0  0  0  0
    8.3525   38.7371   24.0945 C   0  0  0  0  0  0  0  0  0  0  0  0
    8.3301   39.7115   23.1029 C   0  0  0  0  0  0  0  0  0  0  0  0
    7.1180   39.9777   22.4595 C   0  0  0  0  0  0  0  0  0  0  0  0
    5.9522   39.2835   22.8063 C   0  0  0  0  0  0  0  0  0  0  0  0
    6.0211   38.3278   23.8201 C   0  0  0  0  0  0  0  0  0  0  0  0
    4.7415   39.5245   22.1512 N   0  0  0  0  0  0  0  0  0  0  0  0
    4.6947   40.1994   21.4359 H   0  0  0  0  0  0  0  0  0  0  0  0
    3.9354   39.0194   22.4049 H   0  0  0  0  0  0  0  0  0  0  0  0
    9.6082   40.3837   22.7292 C   0  0  0  0  0  0  0  0  0  0  0  0
   10.6925   39.6204   22.2997 C   0  0  0  0  0  0  0  0  0  0  0  0
   11.8431   40.2340   21.8063 C   0  0  0  0  0  0  0  0  0  0  0  0
   11.9304   41.6135   21.7539 C   0  0  0  0  0  0  0  0  0  0  0  0
   10.8773   42.3916   22.1988 C   0  0  0  0  0  0  0  0  0  0  0  0
    9.7217   41.7841   22.7016 C   0  0  0  0  0  0  0  0  0  0  0  0
    8.6769   42.6518   23.2951 C   0  0  0  0  0  0  0  0  0  0  0  0
    8.7068   42.7257   24.5973 O   0  0  0  0  0  0  0  0  0  0  0  0
    7.9578   43.3268   22.5749 O   0  0  0  0  0  0  0  0  0  0  0  0
    9.2865   42.1741   25.0847 H   0  0  0  0  0  0  0  0  0  0  0  0
   10.0417   33.1910   30.0787 C   0  0  0  0  0  0  0  0  0  0  0  0
   10.3972   31.8644   29.8484 N   0  0  0  0  0  0  0  0  0  0  0  0
   10.0430   33.7242   31.2910 N   0  0  0  0  0  0  0  0  0  0  0  0
   10.3842   31.5032   28.9326 H   0  0  0  0  0  0  0  0  0  0  0  0
   10.6616   31.2878   30.6013 H   0  0  0  0  0  0  0  0  0  0  0  0
    9.7854   34.6663   31.4147 H   0  0  0  0  0  0  0  0  0  0  0  0
    7.4981   37.8539   29.3012 C   0  0  0  0  0  0  0  0  0  0  0  0
    8.7672   38.2592   29.6937 C   0  0  0  0  0  0  0  0  0  0  0  0
    8.9289   39.3197   30.5803 C   0  0  0  0  0  0  0  0  0  0  0  0
    7.8258   39.9722   31.0918 C   0  0  0  0  0  0  0  0  0  0  0  0
    6.5619   39.5525   30.7365 C   0  0  0  0  0  0  0  0  0  0  0  0
    6.3975   38.4909   29.8567 C   0  0  0  0  0  0  0  0  0  0  0  0
 29 27  2  0  0  0
 18 16  1  0  0  0
 27 26  1  0  0  0
 27 28  1  0  0  0
 25 24  2  0  0  0
 25 26  1  0  0  0
 24 23  1  0  0  0
 15 16  2  0  0  0
 15 14  1  0  0  0
 26 21  2  0  0  0
 23 22  2  0  0  0
 16 17  1  0  0  0
 21 22  1  0  0  0
 21 14  1  0  0  0
 14 13  2  0  0  0
 17 12  2  0  0  0
 13 12  1  0  0  0
 12  4  1  0  0  0
  3  4  1  0  0  0
  3  2  1  0  0  0
  4  5  1  0  0  0
  9  2  2  0  0  0
  9  8  1  0  0  0
  2  1  1  0  0  0
  5  6  1  0  0  0
  8  7  2  0  0  0
  1  6  1  0  0  0
  1 10  2  0  0  0
  6 37  1  0  0  0
  7 10  1  0  0  0
  7 31  1  0  0  0
 37 38  2  0  0  0
 37 42  1  0  0  0
 38 39  1  0  0  0
 32 31  1  0  0  0
 42 41  2  0  0  0
 31 33  2  0  0  0
 39 40  2  0  0  0
 41 40  1  0  0  0
  3 11  1  0  0  0
 32 34  1  0  0  0
 32 35  1  0  0  0
 33 36  1  0  0  0
 18 19  1  0  0  0
 18 20  1  0  0  0
 28 30  1  0  0  0
M  END
> <minimizedAffinity>
-10.18414

$$$$
4NA9_1T7_H_301


 42 46  0  0  0  0  0  0  0  0999 V2000
    9.5338   40.9495   21.8372 C   0  0  0  0  0  0  0  0  0  0  0  0
    9.1425   39.6751   21.4006 C   0  0  0  0  0  0  0  0  0  0  0  0
    8.8442   38.6767   22.3241 N   0  0  0  0  0  0  0  0  0  0  0  0
    9.0506   38.8912   23.7581 C   0  0  0  0  0  0  0  0  0  0  0  0
    8.6057   40.3242   24.0882 C   0  0  0  0  0  0  0  0  0  0  0  0
    9.4944   41.3208   23.3041 C   0  0  0  0  0  0  0  0  0  0  0  0
   10.1905   41.5105   19.5645 C   0  0  0  0  0  0  0  0  0  0  0  0
    9.8193   40.2319   19.1577 C   0  0  0  0  0  0  0  0  0  0  0  0
    9.2646   39.3380   20.0542 C   0  0  0  0  0  0  0  0  0  0  0  0
   10.0280   41.8602   20.9001 C   0  0  0  0  0  0  0  0  0  0  0  0
    8.4894   37.8142   22.0086 H   0  0  0  0  0  0  0  0  0  0  0  0
    8.1858   37.9464   24.5648 C   0  0  0  0  0  0  0  0  0  0  0  0
    8.7669   37.0981   25.4922 C   0  0  0  0  0  0  0  0  0  0  0  0
    8.0282   36.1528   26.1949 C   0  0  0  0  0  0  0  0  0  0  0  0
    6.6511   36.0805   25.9655 C   0  0  0  0  0  0  0  0  0  0  0  0
    6.0292   36.9360   25.0476 C   0  0  0  0  0  0  0  0  0  0  0  0
    6.8156   37.8556   24.3535 C   0  0  0  0  0  0  0  0  0  0  0  0
    4.6494   36.8885   24.8304 N   0  0  0  0  0  0  0  0  0  0  0  0
    4.0959   36.2389   25.3212 H   0  0  0  0  0  0  0  0  0  0  0  0
    4.2309   37.5047   24.1866 H   0  0  0  0  0  0  0  0  0  0  0  0
    8.7254   35.3026   27.2028 C   0  0  0  0  0  0  0  0  0  0  0  0
    9.3593   34.1287   26.7993 C   0  0  0  0  0  0  0  0  0  0  0  0
   10.1399   33.3982   27.6943 C   0  0  0  0  0  0  0  0  0  0  0  0
   10.2803   33.8211   29.0039 C   0  0  0  0  0  0  0  0  0  0  0  0
    9.6395   34.9687   29.4337 C   0  0  0  0  0  0  0  0  0  0  0  0
    8.8490   35.7040   28.5439 C   0  0  0  0  0  0  0  0  0  0  0  0
    8.0704   36.8459   29.0793 C   0  0  0  0  0  0  0  0  0  0  0  0
    6.8196   36.5783   29.3360 O   0  0  0  0  0  0  0  0  0  0  0  0
    8.6327   37.8913   29.3663 O   0  0  0  0  0  0  0  0  0  0  0  0
    6.4562   35.7519   29.0849 H   0  0  0  0  0  0  0  0  0  0  0  0
   10.8509   42.4857   18.6259 C   0  0  0  0  0  0  0  0  0  0  0  0
   12.2394   42.4993   18.5198 N   0  0  0  0  0  0  0  0  0  0  0  0
   10.0747   43.2344   17.8573 N   0  0  0  0  0  0  0  0  0  0  0  0
   12.7837   41.9285   19.1090 H   0  0  0  0  0  0  0  0  0  0  0  0
   12.6767   43.0797   17.8556 H   0  0  0  0  0  0  0  0  0  0  0  0
    9.0964   43.1979   17.9615 H   0  0  0  0  0  0  0  0  0  0  0  0
    8.7932   42.6460   23.5814 C   0  0  0  0  0  0  0  0  0  0  0  0
    7.4148   42.7159   23.7371 C   0  0  0  0  0  0  0  0  0  0  0  0
    6.8172   43.8662   24.2437 C   0  0  0  0  0  0  0  0  0  0  0  0
    7.5892   44.9582   24.5838 C   0  0  0  0  0  0  0  0  0  0  0  0
    8.9541   44.9109   24.3976 C   0  0  0  0  0  0  0  0  0  0  0  0
    9.5524   43.7666   23.8869 C   0  0  0  0  0  0  0  0  0  0  0  0
 29 27  2  0  0  0
 18 16  1  0  0  0
 27 26  1  0  0  0
 27 28  1  0  0  0
 25 24  2  0  0  0
 25 26  1  0  0  0
 24 23  1  0  0  0
 15 16  2  0  0  0
 15 14  1  0  0  0
 26 21  2  0  0  0
 23 22  2  0  0  0
 16 17  1  0  0  0
 21 22  1  0  0  0
 21 14  1  0  0  0
 14 13  2  0  0  0
 17 12  2  0  0  0
 13 12  1  0  0  0
 12  4  1  0  0  0
  3  4  1  0  0  0
  3  2  1  0  0  0
  4  5  1  0  0  0
  9  2  2  0  0  0
  9  8  1  0  0  0
  2  1  1  0  0  0
  5  6  1  0  0  0
  8  7  2  0  0  0
  1  6  1  0  0  0
  1 10  2  0  0  0
  6 37  1  0  0  0
  7 10  1  0  0  0
  7 31  1  0  0  0
 37 38  2  0  0  0
 37 42  1  0  0  0
 38 39  1  0  0  0
 32 31  1  0  0  0
 42 41  2  0  0  0
 31 33  2  0  0  0
 39 40  2  0  0  0
 41 40  1  0  0  0
  3 11  1  0  0  0
 32 34  1  0  0  0
 32 35  1  0  0  0
 33 36  1  0  0  0
 18 19  1  0  0  0
 18 20  1  0  0  0
 28 30  1  0  0  0
M  END
> <minimizedAffinity>
-9.20889

$$$$
4NA9_1T7_H_301


 42 46  0  0  0  0  0  0  0  0999 V2000
    4.7979   37.3798   26.9739 C   0  0  0  0  0  0  0  0  0  0  0  0
    4.1153   37.7416   25.8030 C   0  0  0  0  0  0  0  0  0  0  0  0
    4.7052   38.6052   24.8839 N   0  0  0  0  0  0  0  0  0  0  0  0
    5.9878   39.2506   25.1728 C   0  0  0  0  0  0  0  0  0  0  0  0
    6.8910   38.2154   25.8604 C   0  0  0  0  0  0  0  0  0  0  0  0
    6.2384   37.7868   27.1977 C   0  0  0  0  0  0  0  0  0  0  0  0
    2.7498   36.4047   27.8491 C   0  0  0  0  0  0  0  0  0  0  0  0
    2.0861   36.7953   26.6893 C   0  0  0  0  0  0  0  0  0  0  0  0
    2.7671   37.4196   25.6612 C   0  0  0  0  0  0  0  0  0  0  0  0
    4.1052   36.6884   27.9709 C   0  0  0  0  0  0  0  0  0  0  0  0
    4.2538   38.7845   24.0275 H   0  0  0  0  0  0  0  0  0  0  0  0
    6.6699   39.6718   23.8888 C   0  0  0  0  0  0  0  0  0  0  0  0
    7.9136   40.2788   23.9331 C   0  0  0  0  0  0  0  0  0  0  0  0
    8.5423   40.7614   22.7907 C   0  0  0  0  0  0  0  0  0  0  0  0
    7.8981   40.6033   21.5602 C   0  0  0  0  0  0  0  0  0  0  0  0
    6.6479   39.9777   21.4782 C   0  0  0  0  0  0  0  0  0  0  0  0
    6.0489   39.5263   22.6544 C   0  0  0  0  0  0  0  0  0  0  0  0
    6.0079   39.7922   20.2497 N   0  0  0  0  0  0  0  0  0  0  0  0
    6.4320   40.1114   19.4206 H   0  0  0  0  0  0  0  0  0  0  0  0
    5.1329   39.3424   20.2134 H   0  0  0  0  0  0  0  0  0  0  0  0
    9.8982   41.3693   22.9210 C   0  0  0  0  0  0  0  0  0  0  0  0
   10.0266   42.6931   23.3379 C   0  0  0  0  0  0  0  0  0  0  0  0
   11.2826   43.2347   23.6084 C   0  0  0  0  0  0  0  0  0  0  0  0
   12.4225   42.4677   23.4479 C   0  0  0  0  0  0  0  0  0  0  0  0
   12.3214   41.1598   23.0103 C   0  0  0  0  0  0  0  0  0  0  0  0
   11.0655   40.6106   22.7302 C   0  0  0  0  0  0  0  0  0  0  0  0
   11.0122   39.2553   22.1325 C   0  0  0  0  0  0  0  0  0  0  0  0
   11.2624   39.2154   20.8527 O   0  0  0  0  0  0  0  0  0  0  0  0
   10.8757   38.2743   22.8470 O   0  0  0  0  0  0  0  0  0  0  0  0
   11.3545   40.0121   20.3683 H   0  0  0  0  0  0  0  0  0  0  0  0
    2.0246   35.7761   29.0097 C   0  0  0  0  0  0  0  0  0  0  0  0
    2.5870   35.8387   30.2822 N   0  0  0  0  0  0  0  0  0  0  0  0
    0.8214   35.2676   28.7915 N   0  0  0  0  0  0  0  0  0  0  0  0
    3.4845   36.2240   30.4053 H   0  0  0  0  0  0  0  0  0  0  0  0
    2.0870   35.4976   31.0587 H   0  0  0  0  0  0  0  0  0  0  0  0
    0.4569   35.2404   27.8774 H   0  0  0  0  0  0  0  0  0  0  0  0
    7.1402   36.6349   27.6276 C   0  0  0  0  0  0  0  0  0  0  0  0
    7.7721   35.8241   26.6936 C   0  0  0  0  0  0  0  0  0  0  0  0
    8.7864   34.9542   27.0826 C   0  0  0  0  0  0  0  0  0  0  0  0
    9.1660   34.8773   28.4071 C   0  0  0  0  0  0  0  0  0  0  0  0
    8.5188   35.6512   29.3462 C   0  0  0  0  0  0  0  0  0  0  0  0
    7.5024   36.5157   28.9618 C   0  0  0  0  0  0  0  0  0  0  0  0
 29 27  2  0  0  0
 18 16  1  0  0  0
 27 26  1  0  0  0
 27 28  1  0  0  0
 25 24  2  0  0  0
 25 26  1  0  0  0
 24 23  1  0  0  0
 15 16  2  0  0  0
 15 14  1  0  0  0
 26 21  2  0  0  0
 23 22  2  0  0  0
 16 17  1  0  0  0
 21 22  1  0  0  0
 21 14  1  0  0  0
 14 13  2  0  0  0
 17 12  2  0  0  0
 13 12  1  0  0  0
 12  4  1  0  0  0
  3  4  1  0  0  0
  3  2  1  0  0  0
  4  5  1  0  0  0
  9  2  2  0  0  0
  9  8  1  0  0  0
  2  1  1  0  0  0
  5  6  1  0  0  0
  8  7  2  0  0  0
  1  6  1  0  0  0
  1 10  2  0  0  0
  6 37  1  0  0  0
  7 10  1  0  0  0
  7 31  1  0  0  0
 37 38  2  0  0  0
 37 42  1  0  0  0
 38 39  1  0  0  0
 32 31  1  0  0  0
 42 41  2  0  0  0
 31 33  2  0  0  0
 39 40  2  0  0  0
 41 40  1  0  0  0
  3 11  1  0  0  0
 32 34  1  0  0  0
 32 35  1  0  0  0
 33 36  1  0  0  0
 18 19  1  0  0  0
 18 20  1  0  0  0
 28 30  1  0  0  0
M  END
> <minimizedAffinity>
-8.99463

$$$$
4NA9_1T7_H_301


 42 46  0  0  0  0  0  0  0  0999 V2000
    6.0744   37.6330   25.6091 C   0  0  0  0  0  0  0  0  0  0  0  0
    5.7571   37.8935   24.2678 C   0  0  0  0  0  0  0  0  0  0  0  0
    6.6416   38.6051   23.4616 N   0  0  0  0  0  0  0  0  0  0  0  0
    7.8563   39.2024   24.0211 C   0  0  0  0  0  0  0  0  0  0  0  0
    8.4519   38.2039   25.0253 C   0  0  0  0  0  0  0  0  0  0  0  0
    7.4366   37.9768   26.1723 C   0  0  0  0  0  0  0  0  0  0  0  0
    3.7901   36.8929   25.9906 C   0  0  0  0  0  0  0  0  0  0  0  0
    3.4906   37.1821   24.6622 C   0  0  0  0  0  0  0  0  0  0  0  0
    4.4697   37.6382   23.7998 C   0  0  0  0  0  0  0  0  0  0  0  0
    5.0862   37.1075   26.4452 C   0  0  0  0  0  0  0  0  0  0  0  0
    6.4478   38.7082   22.5019 H   0  0  0  0  0  0  0  0  0  0  0  0
    8.8853   39.4267   22.9338 C   0  0  0  0  0  0  0  0  0  0  0  0
    8.7813   40.5267   22.0993 C   0  0  0  0  0  0  0  0  0  0  0  0
    9.6495   40.7306   21.0326 C   0  0  0  0  0  0  0  0  0  0  0  0
   10.6703   39.7999   20.8189 C   0  0  0  0  0  0  0  0  0  0  0  0
   10.8146   38.6860   21.6554 C   0  0  0  0  0  0  0  0  0  0  0  0
    9.9077   38.5149   22.7014 C   0  0  0  0  0  0  0  0  0  0  0  0
   11.8474   37.7639   21.4651 N   0  0  0  0  0  0  0  0  0  0  0  0
   12.4866   37.8862   20.7264 H   0  0  0  0  0  0  0  0  0  0  0  0
   11.9358   36.9921   22.0698 H   0  0  0  0  0  0  0  0  0  0  0  0
    9.4909   41.9608   20.2042 C   0  0  0  0  0  0  0  0  0  0  0  0
   10.0755   43.1559   20.6198 C   0  0  0  0  0  0  0  0  0  0  0  0
   10.0661   44.2778   19.7918 C   0  0  0  0  0  0  0  0  0  0  0  0
    9.4579   44.2238   18.5506 C   0  0  0  0  0  0  0  0  0  0  0  0
    8.8487   43.0565   18.1279 C   0  0  0  0  0  0  0  0  0  0  0  0
    8.8478   41.9283   18.9552 C   0  0  0  0  0  0  0  0  0  0  0  0
    8.0658   40.7453   18.5239 C   0  0  0  0  0  0  0  0  0  0  0  0
    8.7495   39.8543   17.8601 O   0  0  0  0  0  0  0  0  0  0  0  0
    6.9134   40.6005   18.9012 O   0  0  0  0  0  0  0  0  0  0  0  0
    9.6320   40.0367   17.6033 H   0  0  0  0  0  0  0  0  0  0  0  0
    2.7334   36.4510   26.9685 C   0  0  0  0  0  0  0  0  0  0  0  0
    3.1125   35.7774   28.1269 N   0  0  0  0  0  0  0  0  0  0  0  0
    1.4797   36.8085   26.7354 N   0  0  0  0  0  0  0  0  0  0  0  0
    4.0548   35.5279   28.2651 H   0  0  0  0  0  0  0  0  0  0  0  0
    2.4383   35.5508   28.8075 H   0  0  0  0  0  0  0  0  0  0  0  0
    1.2497   37.2838   25.9045 H   0  0  0  0  0  0  0  0  0  0  0  0
    8.0879   36.8322   26.9407 C   0  0  0  0  0  0  0  0  0  0  0  0
    8.5483   35.6945   26.2905 C   0  0  0  0  0  0  0  0  0  0  0  0
    9.3665   34.7835   26.9520 C   0  0  0  0  0  0  0  0  0  0  0  0
    9.7179   34.9943   28.2696 C   0  0  0  0  0  0  0  0  0  0  0  0
    9.2352   36.1015   28.9337 C   0  0  0  0  0  0  0  0  0  0  0  0
    8.4139   37.0091   28.2779 C   0  0  0  0  0  0  0  0  0  0  0  0
 29 27  2  0  0  0
 18 16  1  0  0  0
 27 26  1  0  0  0
 27 28  1  0  0  0
 25 24  2  0  0  0
 25 26  1  0  0  0
 24 23  1  0  0  0
 15 16  2  0  0  0
 15 14  1  0  0  0
 26 21  2  0  0  0
 23 22  2  0  0  0
 16 17  1  0  0  0
 21 22  1  0  0  0
 21 14  1  0  0  0
 14 13  2  0  0  0
 17 12  2  0  0  0
 13 12  1  0  0  0
 12  4  1  0  0  0
  3  4  1  0  0  0
  3  2  1  0  0  0
  4  5  1  0  0  0
  9  2  2  0  0  0
  9  8  1  0  0  0
  2  1  1  0  0  0
  5  6  1  0  0  0
  8  7  2  0  0  0
  1  6  1  0  0  0
  1 10  2  0  0  0
  6 37  1  0  0  0
  7 10  1  0  0  0
  7 31  1  0  0  0
 37 38  2  0  0  0
 37 42  1  0  0  0
 38 39  1  0  0  0
 32 31  1  0  0  0
 42 41  2  0  0  0
 31 33  2  0  0  0
 39 40  2  0  0  0
 41 40  1  0  0  0
  3 11  1  0  0  0
 32 34  1  0  0  0
 32 35  1  0  0  0
 33 36  1  0  0  0
 18 19  1  0  0  0
 18 20  1  0  0  0
 28 30  1  0  0  0
M  END
> <minimizedAffinity>
-8.84951

$$$$
4NA9_1T7_H_301


 42 46  0  0  0  0  0  0  0  0999 V2000
    6.3536   38.7811   23.3593 C   0  0  0  0  0  0  0  0  0  0  0  0
    5.4296   38.3298   24.3135 C   0  0  0  0  0  0  0  0  0  0  0  0
    5.8653   37.6442   25.4444 N   0  0  0  0  0  0  0  0  0  0  0  0
    7.2725   37.2703   25.6028 C   0  0  0  0  0  0  0  0  0  0  0  0
    8.1299   38.4443   25.1059 C   0  0  0  0  0  0  0  0  0  0  0  0
    7.8439   38.6757   23.6017 C   0  0  0  0  0  0  0  0  0  0  0  0
    4.5211   39.2728   21.8389 C   0  0  0  0  0  0  0  0  0  0  0  0
    3.6236   38.7968   22.7908 C   0  0  0  0  0  0  0  0  0  0  0  0
    4.0664   38.3682   24.0280 C   0  0  0  0  0  0  0  0  0  0  0  0
    5.8779   39.2739   22.1417 C   0  0  0  0  0  0  0  0  0  0  0  0
    5.2182   37.4075   26.1476 H   0  0  0  0  0  0  0  0  0  0  0  0
    7.6008   37.0503   27.0640 C   0  0  0  0  0  0  0  0  0  0  0  0
    7.4285   38.0794   27.9742 C   0  0  0  0  0  0  0  0  0  0  0  0
    7.7964   37.9553   29.3093 C   0  0  0  0  0  0  0  0  0  0  0  0
    8.3362   36.7399   29.7401 C   0  0  0  0  0  0  0  0  0  0  0  0
    8.5068   35.6729   28.8492 C   0  0  0  0  0  0  0  0  0  0  0  0
    8.1396   35.8518   27.5154 C   0  0  0  0  0  0  0  0  0  0  0  0
    9.0218   34.4459   29.2761 N   0  0  0  0  0  0  0  0  0  0  0  0
    9.2804   34.3214   30.2178 H   0  0  0  0  0  0  0  0  0  0  0  0
    9.1259   33.7059   28.6351 H   0  0  0  0  0  0  0  0  0  0  0  0
    7.5431   39.0995   30.2321 C   0  0  0  0  0  0  0  0  0  0  0  0
    8.6082   39.8839   30.6715 C   0  0  0  0  0  0  0  0  0  0  0  0
    8.3796   41.0429   31.4121 C   0  0  0  0  0  0  0  0  0  0  0  0
    7.0891   41.4202   31.7371 C   0  0  0  0  0  0  0  0  0  0  0  0
    6.0182   40.6435   31.3342 C   0  0  0  0  0  0  0  0  0  0  0  0
    6.2390   39.4754   30.5965 C   0  0  0  0  0  0  0  0  0  0  0  0
    5.0776   38.6017   30.3056 C   0  0  0  0  0  0  0  0  0  0  0  0
    4.7556   37.7860   31.2716 O   0  0  0  0  0  0  0  0  0  0  0  0
    4.4265   38.7655   29.2855 O   0  0  0  0  0  0  0  0  0  0  0  0
    5.3061   37.7132   32.0264 H   0  0  0  0  0  0  0  0  0  0  0  0
    4.0763   39.6912   20.4622 C   0  0  0  0  0  0  0  0  0  0  0  0
    2.7580   40.0930   20.2623 N   0  0  0  0  0  0  0  0  0  0  0  0
    4.9889   39.7548   19.5047 N   0  0  0  0  0  0  0  0  0  0  0  0
    2.1074   40.0309   20.9986 H   0  0  0  0  0  0  0  0  0  0  0  0
    2.4766   40.4391   19.3847 H   0  0  0  0  0  0  0  0  0  0  0  0
    5.9115   39.4614   19.6837 H   0  0  0  0  0  0  0  0  0  0  0  0
    8.6002   39.9732   23.3384 C   0  0  0  0  0  0  0  0  0  0  0  0
    8.1080   41.1976   23.7715 C   0  0  0  0  0  0  0  0  0  0  0  0
    8.9173   42.3297   23.7606 C   0  0  0  0  0  0  0  0  0  0  0  0
   10.2170   42.2503   23.3038 C   0  0  0  0  0  0  0  0  0  0  0  0
   10.7019   41.0473   22.8374 C   0  0  0  0  0  0  0  0  0  0  0  0
    9.8947   39.9175   22.8417 C   0  0  0  0  0  0  0  0  0  0  0  0
 29 27  2  0  0  0
 18 16  1  0  0  0
 27 26  1  0  0  0
 27 28  1  0  0  0
 25 24  2  0  0  0
 25 26  1  0  0  0
 24 23  1  0  0  0
 15 16  2  0  0  0
 15 14  1  0  0  0
 26 21  2  0  0  0
 23 22  2  0  0  0
 16 17  1  0  0  0
 21 22  1  0  0  0
 21 14  1  0  0  0
 14 13  2  0  0  0
 17 12  2  0  0  0
 13 12  1  0  0  0
 12  4  1  0  0  0
  3  4  1  0  0  0
  3  2  1  0  0  0
  4  5  1  0  0  0
  9  2  2  0  0  0
  9  8  1  0  0  0
  2  1  1  0  0  0
  5  6  1  0  0  0
  8  7  2  0  0  0
  1  6  1  0  0  0
  1 10  2  0  0  0
  6 37  1  0  0  0
  7 10  1  0  0  0
  7 31  1  0  0  0
 37 38  2  0  0  0
 37 42  1  0  0  0
 38 39  1  0  0  0
 32 31  1  0  0  0
 42 41  2  0  0  0
 31 33  2  0  0  0
 39 40  2  0  0  0
 41 40  1  0  0  0
  3 11  1  0  0  0
 32 34  1  0  0  0
 32 35  1  0  0  0
 33 36  1  0  0  0
 18 19  1  0  0  0
 18 20  1  0  0  0
 28 30  1  0  0  0
M  END
> <minimizedAffinity>
-8.58248

$$$$
4NA9_1T7_H_301


 42 46  0  0  0  0  0  0  0  0999 V2000
    7.5442   36.6912   27.7912 C   0  0  0  0  0  0  0  0  0  0  0  0
    7.7436   36.8202   29.1737 C   0  0  0  0  0  0  0  0  0  0  0  0
    7.3023   37.9579   29.8443 N   0  0  0  0  0  0  0  0  0  0  0  0
    6.7372   39.0927   29.1108 C   0  0  0  0  0  0  0  0  0  0  0  0
    5.8450   38.5327   27.9925 C   0  0  0  0  0  0  0  0  0  0  0  0
    6.7172   37.6989   27.0221 C   0  0  0  0  0  0  0  0  0  0  0  0
    9.0416   34.7758   27.7688 C   0  0  0  0  0  0  0  0  0  0  0  0
    9.2446   34.9377   29.1366 C   0  0  0  0  0  0  0  0  0  0  0  0
    8.5741   35.9210   29.8393 C   0  0  0  0  0  0  0  0  0  0  0  0
    8.1790   35.6472   27.1137 C   0  0  0  0  0  0  0  0  0  0  0  0
    7.3710   38.0000   30.8255 H   0  0  0  0  0  0  0  0  0  0  0  0
    5.8614   39.9278   30.0201 C   0  0  0  0  0  0  0  0  0  0  0  0
    5.2235   39.3384   31.0985 C   0  0  0  0  0  0  0  0  0  0  0  0
    4.3415   40.0419   31.9110 C   0  0  0  0  0  0  0  0  0  0  0  0
    4.1162   41.3935   31.6340 C   0  0  0  0  0  0  0  0  0  0  0  0
    4.7593   42.0247   30.5620 C   0  0  0  0  0  0  0  0  0  0  0  0
    5.6214   41.2722   29.7642 C   0  0  0  0  0  0  0  0  0  0  0  0
    4.5600   43.3815   30.2928 N   0  0  0  0  0  0  0  0  0  0  0  0
    3.9513   43.9110   30.8569 H   0  0  0  0  0  0  0  0  0  0  0  0
    5.0285   43.8078   29.5391 H   0  0  0  0  0  0  0  0  0  0  0  0
    3.7244   39.3415   33.0745 C   0  0  0  0  0  0  0  0  0  0  0  0
    4.1727   39.6157   34.3654 C   0  0  0  0  0  0  0  0  0  0  0  0
    3.5138   39.0865   35.4744 C   0  0  0  0  0  0  0  0  0  0  0  0
    2.4140   38.2646   35.3060 C   0  0  0  0  0  0  0  0  0  0  0  0
    1.9670   37.9577   34.0338 C   0  0  0  0  0  0  0  0  0  0  0  0
    2.6264   38.4791   32.9155 C   0  0  0  0  0  0  0  0  0  0  0  0
    2.2018   38.0147   31.5735 C   0  0  0  0  0  0  0  0  0  0  0  0
    2.7620   36.9041   31.1801 O   0  0  0  0  0  0  0  0  0  0  0  0
    1.2984   38.5869   30.9835 O   0  0  0  0  0  0  0  0  0  0  0  0
    3.4520   36.5225   31.6864 H   0  0  0  0  0  0  0  0  0  0  0  0
    9.8008   33.7529   26.9654 C   0  0  0  0  0  0  0  0  0  0  0  0
   10.5833   34.1703   25.8917 N   0  0  0  0  0  0  0  0  0  0  0  0
    9.7727   32.4934   27.3738 N   0  0  0  0  0  0  0  0  0  0  0  0
   10.5781   35.1157   25.6170 H   0  0  0  0  0  0  0  0  0  0  0  0
   11.1417   33.5200   25.4074 H   0  0  0  0  0  0  0  0  0  0  0  0
    9.2068   32.2360   28.1371 H   0  0  0  0  0  0  0  0  0  0  0  0
    5.6614   37.0654   26.1227 C   0  0  0  0  0  0  0  0  0  0  0  0
    4.4407   36.6395   26.6301 C   0  0  0  0  0  0  0  0  0  0  0  0
    3.3947   36.3092   25.7736 C   0  0  0  0  0  0  0  0  0  0  0  0
    3.5648   36.3877   24.4064 C   0  0  0  0  0  0  0  0  0  0  0  0
    4.7847   36.7737   23.8938 C   0  0  0  0  0  0  0  0  0  0  0  0
    5.8319   37.0982   24.7460 C   0  0  0  0  0  0  0  0  0  0  0  0
 29 27  2  0  0  0
 18 16  1  0  0  0
 27 26  1  0  0  0
 27 28  1  0  0  0
 25 24  2  0  0  0
 25 26  1  0  0  0
 24 23  1  0  0  0
 15 16  2  0  0  0
 15 14  1  0  0  0
 26 21  2  0  0  0
 23 22  2  0  0  0
 16 17  1  0  0  0
 21 22  1  0  0  0
 21 14  1  0  0  0
 14 13  2  0  0  0
 17 12  2  0  0  0
 13 12  1  0  0  0
 12  4  1  0  0  0
  3  4  1  0  0  0
  3  2  1  0  0  0
  4  5  1  0  0  0
  9  2  2  0  0  0
  9  8  1  0  0  0
  2  1  1  0  0  0
  5  6  1  0  0  0
  8  7  2  0  0  0
  1  6  1  0  0  0
  1 10  2  0  0  0
  6 37  1  0  0  0
  7 10  1  0  0  0
  7 31  1  0  0  0
 37 38  2  0  0  0
 37 42  1  0  0  0
 38 39  1  0  0  0
 32 31  1  0  0  0
 42 41  2  0  0  0
 31 33  2  0  0  0
 39 40  2  0  0  0
 41 40  1  0  0  0
  3 11  1  0  0  0
 32 34  1  0  0  0
 32 35  1  0  0  0
 33 36  1  0  0  0
 18 19  1  0  0  0
 18 20  1  0  0  0
 28 30  1  0  0  0
M  END
> <minimizedAffinity>
-8.32206

$$$$
4NA9_1T7_H_301


 42 46  0  0  0  0  0  0  0  0999 V2000
    5.1076   37.4818   26.7814 C   0  0  0  0  0  0  0  0  0  0  0  0
    4.4845   37.9313   25.6078 C   0  0  0  0  0  0  0  0  0  0  0  0
    5.1497   38.8009   24.7476 N   0  0  0  0  0  0  0  0  0  0  0  0
    6.4544   39.3621   25.1050 C   0  0  0  0  0  0  0  0  0  0  0  0
    7.2780   38.2501   25.7723 C   0  0  0  0  0  0  0  0  0  0  0  0
    6.5595   37.7995   27.0679 C   0  0  0  0  0  0  0  0  0  0  0  0
    2.9827   36.5824   27.5477 C   0  0  0  0  0  0  0  0  0  0  0  0
    2.3796   37.0590   26.3870 C   0  0  0  0  0  0  0  0  0  0  0  0
    3.1266   37.6898   25.4100 C   0  0  0  0  0  0  0  0  0  0  0  0
    4.3465   36.7862   27.7241 C   0  0  0  0  0  0  0  0  0  0  0  0
    4.7372   39.0419   23.8868 H   0  0  0  0  0  0  0  0  0  0  0  0
    7.2002   39.8014   23.8632 C   0  0  0  0  0  0  0  0  0  0  0  0
    8.3955   40.4903   23.9815 C   0  0  0  0  0  0  0  0  0  0  0  0
    9.0737   40.9902   22.8755 C   0  0  0  0  0  0  0  0  0  0  0  0
    8.5331   40.7648   21.6062 C   0  0  0  0  0  0  0  0  0  0  0  0
    7.3353   40.0561   21.4503 C   0  0  0  0  0  0  0  0  0  0  0  0
    6.6821   39.5901   22.5914 C   0  0  0  0  0  0  0  0  0  0  0  0
    6.8005   39.8037   20.1840 N   0  0  0  0  0  0  0  0  0  0  0  0
    7.2628   40.1334   19.3798 H   0  0  0  0  0  0  0  0  0  0  0  0
    5.9614   39.2963   20.0963 H   0  0  0  0  0  0  0  0  0  0  0  0
   10.3743   41.6891   23.0876 C   0  0  0  0  0  0  0  0  0  0  0  0
   11.5611   40.9581   23.0906 C   0  0  0  0  0  0  0  0  0  0  0  0
   12.7949   41.6057   23.1386 C   0  0  0  0  0  0  0  0  0  0  0  0
   12.8564   42.9861   23.2029 C   0  0  0  0  0  0  0  0  0  0  0  0
   11.6915   43.7309   23.2274 C   0  0  0  0  0  0  0  0  0  0  0  0
   10.4492   43.0889   23.1863 C   0  0  0  0  0  0  0  0  0  0  0  0
    9.2294   43.9139   23.3548 C   0  0  0  0  0  0  0  0  0  0  0  0
    8.9471   44.2206   24.5910 O   0  0  0  0  0  0  0  0  0  0  0  0
    8.6487   44.3577   22.3764 O   0  0  0  0  0  0  0  0  0  0  0  0
    9.4377   43.8390   25.2922 H   0  0  0  0  0  0  0  0  0  0  0  0
    2.1870   35.9440   28.6556 C   0  0  0  0  0  0  0  0  0  0  0  0
    0.8509   35.6176   28.4374 N   0  0  0  0  0  0  0  0  0  0  0  0
    2.8203   35.6251   29.7741 N   0  0  0  0  0  0  0  0  0  0  0  0
    0.4137   35.8716   27.5926 H   0  0  0  0  0  0  0  0  0  0  0  0
    0.3435   35.1327   29.1278 H   0  0  0  0  0  0  0  0  0  0  0  0
    3.7657   35.8730   29.8924 H   0  0  0  0  0  0  0  0  0  0  0  0
    7.3841   36.5824   27.4724 C   0  0  0  0  0  0  0  0  0  0  0  0
    8.0713   35.8289   26.5296 C   0  0  0  0  0  0  0  0  0  0  0  0
    9.0201   34.8917   26.9275 C   0  0  0  0  0  0  0  0  0  0  0  0
    9.2783   34.6903   28.2680 C   0  0  0  0  0  0  0  0  0  0  0  0
    8.5743   35.4073   29.2115 C   0  0  0  0  0  0  0  0  0  0  0  0
    7.6228   36.3388   28.8175 C   0  0  0  0  0  0  0  0  0  0  0  0
 29 27  2  0  0  0
 18 16  1  0  0  0
 27 26  1  0  0  0
 27 28  1  0  0  0
 25 24  2  0  0  0
 25 26  1  0  0  0
 24 23  1  0  0  0
 15 16  2  0  0  0
 15 14  1  0  0  0
 26 21  2  0  0  0
 23 22  2  0  0  0
 16 17  1  0  0  0
 21 22  1  0  0  0
 21 14  1  0  0  0
 14 13  2  0  0  0
 17 12  2  0  0  0
 13 12  1  0  0  0
 12  4  1  0  0  0
  3  4  1  0  0  0
  3  2  1  0  0  0
  4  5  1  0  0  0
  9  2  2  0  0  0
  9  8  1  0  0  0
  2  1  1  0  0  0
  5  6  1  0  0  0
  8  7  2  0  0  0
  1  6  1  0  0  0
  1 10  2  0  0  0
  6 37  1  0  0  0
  7 10  1  0  0  0
  7 31  1  0  0  0
 37 38  2  0  0  0
 37 42  1  0  0  0
 38 39  1  0  0  0
 32 31  1  0  0  0
 42 41  2  0  0  0
 31 33  2  0  0  0
 39 40  2  0  0  0
 41 40  1  0  0  0
  3 11  1  0  0  0
 32 34  1  0  0  0
 32 35  1  0  0  0
 33 36  1  0  0  0
 18 19  1  0  0  0
 18 20  1  0  0  0
 28 30  1  0  0  0
M  END
> <minimizedAffinity>
-8.27673

$$$$
4NA9_1T7_H_301


 42 46  0  0  0  0  0  0  0  0999 V2000
    8.0803   39.9954   22.3296 C   0  0  0  0  0  0  0  0  0  0  0  0
    8.9472   38.9962   22.7963 C   0  0  0  0  0  0  0  0  0  0  0  0
    8.7534   38.4281   24.0526 N   0  0  0  0  0  0  0  0  0  0  0  0
    7.7260   38.9420   24.9611 C   0  0  0  0  0  0  0  0  0  0  0  0
    6.4787   39.2669   24.1251 C   0  0  0  0  0  0  0  0  0  0  0  0
    6.8332   40.3723   23.1002 C   0  0  0  0  0  0  0  0  0  0  0  0
    9.6163   40.4539   20.5016 C   0  0  0  0  0  0  0  0  0  0  0  0
   10.4737   39.4751   20.9966 C   0  0  0  0  0  0  0  0  0  0  0  0
   10.1271   38.7269   22.1059 C   0  0  0  0  0  0  0  0  0  0  0  0
    8.4191   40.6919   21.1669 C   0  0  0  0  0  0  0  0  0  0  0  0
    9.3150   37.6701   24.3343 H   0  0  0  0  0  0  0  0  0  0  0  0
    7.3364   37.8851   25.9723 C   0  0  0  0  0  0  0  0  0  0  0  0
    6.0623   37.8826   26.5144 C   0  0  0  0  0  0  0  0  0  0  0  0
    5.6833   36.9878   27.5088 C   0  0  0  0  0  0  0  0  0  0  0  0
    6.6207   36.0504   27.9522 C   0  0  0  0  0  0  0  0  0  0  0  0
    7.9122   36.0141   27.4120 C   0  0  0  0  0  0  0  0  0  0  0  0
    8.2511   36.9443   26.4293 C   0  0  0  0  0  0  0  0  0  0  0  0
    8.8480   35.0642   27.8307 N   0  0  0  0  0  0  0  0  0  0  0  0
    8.6071   34.4085   28.5244 H   0  0  0  0  0  0  0  0  0  0  0  0
    9.7480   35.0508   27.4320 H   0  0  0  0  0  0  0  0  0  0  0  0
    4.2800   37.0283   28.0128 C   0  0  0  0  0  0  0  0  0  0  0  0
    3.2817   36.3259   27.3398 C   0  0  0  0  0  0  0  0  0  0  0  0
    1.9974   36.2286   27.8737 C   0  0  0  0  0  0  0  0  0  0  0  0
    1.6918   36.8459   29.0733 C   0  0  0  0  0  0  0  0  0  0  0  0
    2.6592   37.5700   29.7458 C   0  0  0  0  0  0  0  0  0  0  0  0
    3.9486   37.6782   29.2138 C   0  0  0  0  0  0  0  0  0  0  0  0
    4.9126   38.5758   29.8933 C   0  0  0  0  0  0  0  0  0  0  0  0
    5.6048   38.0105   30.8438 O   0  0  0  0  0  0  0  0  0  0  0  0
    5.1021   39.7058   29.4705 O   0  0  0  0  0  0  0  0  0  0  0  0
    5.4007   37.1375   31.1163 H   0  0  0  0  0  0  0  0  0  0  0  0
    9.9910   41.3248   19.3315 C   0  0  0  0  0  0  0  0  0  0  0  0
   11.3361   41.5286   19.0339 N   0  0  0  0  0  0  0  0  0  0  0  0
    9.0175   41.7899   18.5635 N   0  0  0  0  0  0  0  0  0  0  0  0
   12.0322   41.1673   19.6291 H   0  0  0  0  0  0  0  0  0  0  0  0
   11.5910   42.0338   18.2283 H   0  0  0  0  0  0  0  0  0  0  0  0
    8.0777   41.6257   18.8065 H   0  0  0  0  0  0  0  0  0  0  0  0
    5.5733   40.4153   22.2424 C   0  0  0  0  0  0  0  0  0  0  0  0
    5.4103   39.5679   21.1542 C   0  0  0  0  0  0  0  0  0  0  0  0
    4.1671   39.4309   20.5439 C   0  0  0  0  0  0  0  0  0  0  0  0
    3.0832   40.1493   21.0058 C   0  0  0  0  0  0  0  0  0  0  0  0
    3.2446   41.0205   22.0616 C   0  0  0  0  0  0  0  0  0  0  0  0
    4.4852   41.1636   22.6688 C   0  0  0  0  0  0  0  0  0  0  0  0
 29 27  2  0  0  0
 18 16  1  0  0  0
 27 26  1  0  0  0
 27 28  1  0  0  0
 25 24  2  0  0  0
 25 26  1  0  0  0
 24 23  1  0  0  0
 15 16  2  0  0  0
 15 14  1  0  0  0
 26 21  2  0  0  0
 23 22  2  0  0  0
 16 17  1  0  0  0
 21 22  1  0  0  0
 21 14  1  0  0  0
 14 13  2  0  0  0
 17 12  2  0  0  0
 13 12  1  0  0  0
 12  4  1  0  0  0
  3  4  1  0  0  0
  3  2  1  0  0  0
  4  5  1  0  0  0
  9  2  2  0  0  0
  9  8  1  0  0  0
  2  1  1  0  0  0
  5  6  1  0  0  0
  8  7  2  0  0  0
  1  6  1  0  0  0
  1 10  2  0  0  0
  6 37  1  0  0  0
  7 10  1  0  0  0
  7 31  1  0  0  0
 37 38  2  0  0  0
 37 42  1  0  0  0
 38 39  1  0  0  0
 32 31  1  0  0  0
 42 41  2  0  0  0
 31 33  2  0  0  0
 39 40  2  0  0  0
 41 40  1  0  0  0
  3 11  1  0  0  0
 32 34  1  0  0  0
 32 35  1  0  0  0
 33 36  1  0  0  0
 18 19  1  0  0  0
 18 20  1  0  0  0
 28 30  1  0  0  0
M  END
> <minimizedAffinity>
-8.25688

$$$$
