1JAQ_01S_A_1


 27 26  0  0  0  0  0  0  0  0999 V2000
   28.5766   59.2903   50.3373 C   0  0  0  0  0  0  0  0  0  0  0  0
   28.3611   60.1257   49.4536 O   0  0  0  0  0  0  0  0  0  0  0  0
   29.7214   59.2463   50.9973 N   0  0  0  0  0  0  0  0  0  0  0  0
   29.8618   58.5781   51.7066 H   0  0  0  0  0  0  0  0  0  0  0  0
   30.7636   60.1894   50.6661 C   0  0  0  0  0  0  0  0  0  0  0  0
   31.3688   60.7552   51.9200 C   0  0  0  0  0  0  0  0  0  0  0  0
   31.8152   59.5468   49.7427 C   0  0  0  0  0  0  0  0  0  0  0  0
   32.7187   58.8525   50.2133 O   0  0  0  0  0  0  0  0  0  0  0  0
   31.5848   59.6861   48.4276 N   0  0  0  0  0  0  0  0  0  0  0  0
   30.7347   60.0957   48.1470 H   0  0  0  0  0  0  0  0  0  0  0  0
   32.5166   59.2677   47.3936 C   0  0  0  0  0  0  0  0  0  0  0  0
   32.2919   59.6174   45.9725 C   0  0  0  0  0  0  0  0  0  0  0  0
   32.4722   60.7908   45.6421 O   0  0  0  0  0  0  0  0  0  0  0  0
   31.5099   58.7972   45.2844 N   0  0  0  0  0  0  0  0  0  0  0  0
   31.3912   57.8659   45.5808 H   0  0  0  0  0  0  0  0  0  0  0  0
   31.0479   59.1195   44.4770 H   0  0  0  0  0  0  0  0  0  0  0  0
   27.5121   58.2938   50.7670 C   0  0  0  0  0  0  0  0  0  0  0  0
   25.7657   59.3781   52.0946 N   0  0  0  0  0  0  0  0  0  0  0  0
   25.1884   59.7582   53.3027 O   0  0  0  0  0  0  0  0  0  0  0  0
   26.9076   58.7209   52.1175 C   0  0  0  0  0  0  0  0  0  0  0  0
   27.4598   58.4606   53.1624 O   0  0  0  0  0  0  0  0  0  0  0  0
   25.3293   59.5961   51.2395 H   0  0  0  0  0  0  0  0  0  0  0  0
   25.7501   59.4632   54.0365 H   0  0  0  0  0  0  0  0  0  0  0  0
   26.4205   58.2663   49.7233 C   0  0  0  0  0  0  0  0  0  0  0  0
   26.3883   57.0049   48.8562 C   0  0  0  0  0  0  0  0  0  0  0  0
   26.8468   55.7787   49.6569 C   0  0  0  0  0  0  0  0  0  0  0  0
   24.9806   56.7780   48.2341 C   0  0  0  0  0  0  0  0  0  0  0  0
 18 19  1  0  0  0
 18 20  1  0  0  0
 20 21  2  0  0  0
 20 17  1  0  0  0
 17 24  1  0  0  0
 17  1  1  0  0  0
 24 25  1  0  0  0
 25 26  1  0  0  0
 25 27  1  0  0  0
  1  2  2  0  0  0
  3  5  1  0  0  0
  5  7  1  0  0  0
  5  6  1  0  0  0
  7  8  2  0  0  0
  9 11  1  0  0  0
 11 12  1  0  0  0
 12 13  2  0  0  0
  1  3  1  0  0  0
  7  9  1  0  0  0
 12 14  1  0  0  0
 18 22  1  0  0  0
 19 23  1  0  0  0
  3  4  1  0  0  0
  9 10  1  0  0  0
 14 15  1  0  0  0
 14 16  1  0  0  0
M  END
> <minimizedAffinity>
-7.47818

$$$$
1JAQ_01S_A_1


 27 26  0  0  0  0  0  0  0  0999 V2000
   27.7896   60.2877   51.2102 C   0  0  0  0  0  0  0  0  0  0  0  0
   27.2957   61.1660   50.4961 O   0  0  0  0  0  0  0  0  0  0  0  0
   28.0995   59.0919   50.7388 N   0  0  0  0  0  0  0  0  0  0  0  0
   28.5046   58.4145   51.3272 H   0  0  0  0  0  0  0  0  0  0  0  0
   27.8370   58.7907   49.3511 C   0  0  0  0  0  0  0  0  0  0  0  0
   29.0050   58.0618   48.7487 C   0  0  0  0  0  0  0  0  0  0  0  0
   26.5155   58.0155   49.1959 C   0  0  0  0  0  0  0  0  0  0  0  0
   25.4533   58.5083   49.5817 O   0  0  0  0  0  0  0  0  0  0  0  0
   26.6016   56.8690   48.5030 N   0  0  0  0  0  0  0  0  0  0  0  0
   27.4592   56.6520   48.0710 H   0  0  0  0  0  0  0  0  0  0  0  0
   25.5031   55.9292   48.3530 C   0  0  0  0  0  0  0  0  0  0  0  0
   25.7149   54.4720   48.5072 C   0  0  0  0  0  0  0  0  0  0  0  0
   24.8501   53.7219   48.0511 O   0  0  0  0  0  0  0  0  0  0  0  0
   26.5396   54.0995   49.4761 N   0  0  0  0  0  0  0  0  0  0  0  0
   27.2179   54.7281   49.8140 H   0  0  0  0  0  0  0  0  0  0  0  0
   26.4738   53.1944   49.8578 H   0  0  0  0  0  0  0  0  0  0  0  0
   28.1310   60.5465   52.6688 C   0  0  0  0  0  0  0  0  0  0  0  0
   25.8110   59.8855   53.0792 N   0  0  0  0  0  0  0  0  0  0  0  0
   24.8004   59.3499   53.8724 O   0  0  0  0  0  0  0  0  0  0  0  0
   27.0284   59.9704   53.5764 C   0  0  0  0  0  0  0  0  0  0  0  0
   27.2711   59.6065   54.7047 O   0  0  0  0  0  0  0  0  0  0  0  0
   25.6199   60.1949   52.1643 H   0  0  0  0  0  0  0  0  0  0  0  0
   25.1652   59.0999   54.7357 H   0  0  0  0  0  0  0  0  0  0  0  0
   29.4413   59.8673   52.9905 C   0  0  0  0  0  0  0  0  0  0  0  0
   30.6316   60.8133   53.1701 C   0  0  0  0  0  0  0  0  0  0  0  0
   31.2514   61.1764   51.8141 C   0  0  0  0  0  0  0  0  0  0  0  0
   30.2299   62.0882   53.9661 C   0  0  0  0  0  0  0  0  0  0  0  0
 18 19  1  0  0  0
 18 20  1  0  0  0
 20 21  2  0  0  0
 20 17  1  0  0  0
 17 24  1  0  0  0
 17  1  1  0  0  0
 24 25  1  0  0  0
 25 26  1  0  0  0
 25 27  1  0  0  0
  1  2  2  0  0  0
  3  5  1  0  0  0
  5  7  1  0  0  0
  5  6  1  0  0  0
  7  8  2  0  0  0
  9 11  1  0  0  0
 11 12  1  0  0  0
 12 13  2  0  0  0
  1  3  1  0  0  0
  7  9  1  0  0  0
 12 14  1  0  0  0
 18 22  1  0  0  0
 19 23  1  0  0  0
  3  4  1  0  0  0
  9 10  1  0  0  0
 14 15  1  0  0  0
 14 16  1  0  0  0
M  END
> <minimizedAffinity>
-7.45656

$$$$
1JAQ_01S_A_1


 27 26  0  0  0  0  0  0  0  0999 V2000
   26.9339   58.9071   52.4114 C   0  0  0  0  0  0  0  0  0  0  0  0
   27.5271   57.9895   52.9870 O   0  0  0  0  0  0  0  0  0  0  0  0
   26.4793   59.9652   53.0610 N   0  0  0  0  0  0  0  0  0  0  0  0
   26.0214   60.6888   52.5752 H   0  0  0  0  0  0  0  0  0  0  0  0
   26.6620   60.0475   54.4911 C   0  0  0  0  0  0  0  0  0  0  0  0
   27.5093   61.2393   54.8379 C   0  0  0  0  0  0  0  0  0  0  0  0
   25.3057   60.0571   55.2203 C   0  0  0  0  0  0  0  0  0  0  0  0
   24.2527   60.0000   54.5816 O   0  0  0  0  0  0  0  0  0  0  0  0
   25.3744   59.9901   56.5592 N   0  0  0  0  0  0  0  0  0  0  0  0
   26.2571   59.8479   56.9713 H   0  0  0  0  0  0  0  0  0  0  0  0
   24.2222   60.1151   57.4363 C   0  0  0  0  0  0  0  0  0  0  0  0
   24.3138   59.7763   58.8747 C   0  0  0  0  0  0  0  0  0  0  0  0
   25.1244   58.9078   59.2021 O   0  0  0  0  0  0  0  0  0  0  0  0
   23.2563   60.0770   59.6156 N   0  0  0  0  0  0  0  0  0  0  0  0
   22.6312   60.7777   59.3197 H   0  0  0  0  0  0  0  0  0  0  0  0
   23.0960   59.5997   60.4616 H   0  0  0  0  0  0  0  0  0  0  0  0
   26.7413   58.9079   50.9035 C   0  0  0  0  0  0  0  0  0  0  0  0
   28.5538   59.6033   49.4137 N   0  0  0  0  0  0  0  0  0  0  0  0
   29.3522   60.5673   48.8050 O   0  0  0  0  0  0  0  0  0  0  0  0
   27.6243   59.9943   50.2619 C   0  0  0  0  0  0  0  0  0  0  0  0
   27.4690   61.1652   50.5252 O   0  0  0  0  0  0  0  0  0  0  0  0
   28.6811   58.6476   49.2143 H   0  0  0  0  0  0  0  0  0  0  0  0
   29.0895   61.4479   49.1158 H   0  0  0  0  0  0  0  0  0  0  0  0
   27.1454   57.5577   50.3599 C   0  0  0  0  0  0  0  0  0  0  0  0
   26.4145   57.1306   49.0842 C   0  0  0  0  0  0  0  0  0  0  0  0
   26.2916   55.6028   49.0095 C   0  0  0  0  0  0  0  0  0  0  0  0
   25.0219   57.8147   48.9703 C   0  0  0  0  0  0  0  0  0  0  0  0
 18 19  1  0  0  0
 18 20  1  0  0  0
 20 21  2  0  0  0
 20 17  1  0  0  0
 17 24  1  0  0  0
 17  1  1  0  0  0
 24 25  1  0  0  0
 25 26  1  0  0  0
 25 27  1  0  0  0
  1  2  2  0  0  0
  3  5  1  0  0  0
  5  7  1  0  0  0
  5  6  1  0  0  0
  7  8  2  0  0  0
  9 11  1  0  0  0
 11 12  1  0  0  0
 12 13  2  0  0  0
  1  3  1  0  0  0
  7  9  1  0  0  0
 12 14  1  0  0  0
 18 22  1  0  0  0
 19 23  1  0  0  0
  3  4  1  0  0  0
  9 10  1  0  0  0
 14 15  1  0  0  0
 14 16  1  0  0  0
M  END
> <minimizedAffinity>
-7.23301

$$$$
1JAQ_01S_A_1


 27 26  0  0  0  0  0  0  0  0999 V2000
   28.2719   60.5249   51.5063 C   0  0  0  0  0  0  0  0  0  0  0  0
   27.7907   61.2283   50.6124 O   0  0  0  0  0  0  0  0  0  0  0  0
   29.1534   59.5728   51.2522 N   0  0  0  0  0  0  0  0  0  0  0  0
   29.5312   59.0356   51.9856 H   0  0  0  0  0  0  0  0  0  0  0  0
   29.5557   59.3298   49.8868 C   0  0  0  0  0  0  0  0  0  0  0  0
   30.9926   58.8921   49.8395 C   0  0  0  0  0  0  0  0  0  0  0  0
   28.6108   58.3231   49.2048 C   0  0  0  0  0  0  0  0  0  0  0  0
   28.9882   57.6775   48.2246 O   0  0  0  0  0  0  0  0  0  0  0  0
   27.4430   58.1164   49.8336 N   0  0  0  0  0  0  0  0  0  0  0  0
   27.3097   58.5375   50.7135 H   0  0  0  0  0  0  0  0  0  0  0  0
   26.3639   57.3074   49.2920 C   0  0  0  0  0  0  0  0  0  0  0  0
   26.4954   55.8378   49.1688 C   0  0  0  0  0  0  0  0  0  0  0  0
   25.7818   55.2723   48.3384 O   0  0  0  0  0  0  0  0  0  0  0  0
   27.0035   55.2055   50.2174 N   0  0  0  0  0  0  0  0  0  0  0  0
   27.5696   55.6924   50.8591 H   0  0  0  0  0  0  0  0  0  0  0  0
   26.8148   54.2490   50.3545 H   0  0  0  0  0  0  0  0  0  0  0  0
   27.9263   60.7505   52.9694 C   0  0  0  0  0  0  0  0  0  0  0  0
   25.8069   60.3868   54.1374 N   0  0  0  0  0  0  0  0  0  0  0  0
   24.7137   59.6051   54.4995 O   0  0  0  0  0  0  0  0  0  0  0  0
   26.7394   59.8559   53.3725 C   0  0  0  0  0  0  0  0  0  0  0  0
   26.6641   58.7074   52.9986 O   0  0  0  0  0  0  0  0  0  0  0  0
   25.8821   61.3184   54.4468 H   0  0  0  0  0  0  0  0  0  0  0  0
   24.8041   58.7220   54.1087 H   0  0  0  0  0  0  0  0  0  0  0  0
   29.1256   60.3913   53.8145 C   0  0  0  0  0  0  0  0  0  0  0  0
   29.8824   61.5857   54.4017 C   0  0  0  0  0  0  0  0  0  0  0  0
   31.0698   61.9730   53.5101 C   0  0  0  0  0  0  0  0  0  0  0  0
   28.9363   62.7977   54.6388 C   0  0  0  0  0  0  0  0  0  0  0  0
 18 19  1  0  0  0
 18 20  1  0  0  0
 20 21  2  0  0  0
 20 17  1  0  0  0
 17 24  1  0  0  0
 17  1  1  0  0  0
 24 25  1  0  0  0
 25 26  1  0  0  0
 25 27  1  0  0  0
  1  2  2  0  0  0
  3  5  1  0  0  0
  5  7  1  0  0  0
  5  6  1  0  0  0
  7  8  2  0  0  0
  9 11  1  0  0  0
 11 12  1  0  0  0
 12 13  2  0  0  0
  1  3  1  0  0  0
  7  9  1  0  0  0
 12 14  1  0  0  0
 18 22  1  0  0  0
 19 23  1  0  0  0
  3  4  1  0  0  0
  9 10  1  0  0  0
 14 15  1  0  0  0
 14 16  1  0  0  0
M  END
> <minimizedAffinity>
-6.91065

$$$$
1JAQ_01S_A_1


 27 26  0  0  0  0  0  0  0  0999 V2000
   27.3034   59.1486   52.4749 C   0  0  0  0  0  0  0  0  0  0  0  0
   26.1707   59.0652   52.9602 O   0  0  0  0  0  0  0  0  0  0  0  0
   27.5612   58.7894   51.2289 N   0  0  0  0  0  0  0  0  0  0  0  0
   28.4709   58.8789   50.8631 H   0  0  0  0  0  0  0  0  0  0  0  0
   26.4935   58.2643   50.4106 C   0  0  0  0  0  0  0  0  0  0  0  0
   25.9488   59.3414   49.5151 C   0  0  0  0  0  0  0  0  0  0  0  0
   26.9600   57.0251   49.6246 C   0  0  0  0  0  0  0  0  0  0  0  0
   28.0700   57.0069   49.0884 O   0  0  0  0  0  0  0  0  0  0  0  0
   26.1447   55.9610   49.6955 N   0  0  0  0  0  0  0  0  0  0  0  0
   25.3722   56.0089   50.3039 H   0  0  0  0  0  0  0  0  0  0  0  0
   26.3353   54.7423   48.9268 C   0  0  0  0  0  0  0  0  0  0  0  0
   25.2847   54.2415   48.0115 C   0  0  0  0  0  0  0  0  0  0  0  0
   25.4700   53.1442   47.4821 O   0  0  0  0  0  0  0  0  0  0  0  0
   24.4787   55.1555   47.4894 N   0  0  0  0  0  0  0  0  0  0  0  0
   24.3567   56.0209   47.9427 H   0  0  0  0  0  0  0  0  0  0  0  0
   24.0021   54.9688   46.6484 H   0  0  0  0  0  0  0  0  0  0  0  0
   28.4661   59.7295   53.2633 C   0  0  0  0  0  0  0  0  0  0  0  0
   30.4771   58.3359   53.2193 N   0  0  0  0  0  0  0  0  0  0  0  0
   31.6762   57.9141   52.6524 O   0  0  0  0  0  0  0  0  0  0  0  0
   29.8001   59.2983   52.6261 C   0  0  0  0  0  0  0  0  0  0  0  0
   30.2111   59.8224   51.6157 O   0  0  0  0  0  0  0  0  0  0  0  0
   30.1412   57.9231   54.0476 H   0  0  0  0  0  0  0  0  0  0  0  0
   31.8508   58.4258   51.8471 H   0  0  0  0  0  0  0  0  0  0  0  0
   28.3692   61.2366   53.2355 C   0  0  0  0  0  0  0  0  0  0  0  0
   28.7155   61.9301   54.5558 C   0  0  0  0  0  0  0  0  0  0  0  0
   30.0040   62.7524   54.4204 C   0  0  0  0  0  0  0  0  0  0  0  0
   27.5363   62.8090   55.0630 C   0  0  0  0  0  0  0  0  0  0  0  0
 18 19  1  0  0  0
 18 20  1  0  0  0
 20 21  2  0  0  0
 20 17  1  0  0  0
 17 24  1  0  0  0
 17  1  1  0  0  0
 24 25  1  0  0  0
 25 26  1  0  0  0
 25 27  1  0  0  0
  1  2  2  0  0  0
  3  5  1  0  0  0
  5  7  1  0  0  0
  5  6  1  0  0  0
  7  8  2  0  0  0
  9 11  1  0  0  0
 11 12  1  0  0  0
 12 13  2  0  0  0
  1  3  1  0  0  0
  7  9  1  0  0  0
 12 14  1  0  0  0
 18 22  1  0  0  0
 19 23  1  0  0  0
  3  4  1  0  0  0
  9 10  1  0  0  0
 14 15  1  0  0  0
 14 16  1  0  0  0
M  END
> <minimizedAffinity>
-6.69618

$$$$
1JAQ_01S_A_1


 27 26  0  0  0  0  0  0  0  0999 V2000
   28.8700   60.0553   52.1782 C   0  0  0  0  0  0  0  0  0  0  0  0
   28.6157   61.1613   51.6909 O   0  0  0  0  0  0  0  0  0  0  0  0
   29.2838   59.0407   51.4383 N   0  0  0  0  0  0  0  0  0  0  0  0
   29.4923   58.1733   51.8547 H   0  0  0  0  0  0  0  0  0  0  0  0
   29.4263   59.2192   50.0124 C   0  0  0  0  0  0  0  0  0  0  0  0
   30.8722   59.1085   49.6179 C   0  0  0  0  0  0  0  0  0  0  0  0
   28.5285   58.2341   49.2412 C   0  0  0  0  0  0  0  0  0  0  0  0
   28.9473   57.6685   48.2290 O   0  0  0  0  0  0  0  0  0  0  0  0
   27.3541   57.9505   49.8263 N   0  0  0  0  0  0  0  0  0  0  0  0
   27.1883   58.3063   50.7292 H   0  0  0  0  0  0  0  0  0  0  0  0
   26.3128   57.1489   49.2053 C   0  0  0  0  0  0  0  0  0  0  0  0
   26.4108   55.6724   49.1533 C   0  0  0  0  0  0  0  0  0  0  0  0
   25.6153   55.0767   48.4247 O   0  0  0  0  0  0  0  0  0  0  0  0
   27.0042   55.0884   50.1850 N   0  0  0  0  0  0  0  0  0  0  0  0
   27.6342   55.5983   50.7439 H   0  0  0  0  0  0  0  0  0  0  0  0
   26.8149   54.1447   50.3923 H   0  0  0  0  0  0  0  0  0  0  0  0
   28.7820   59.8061   53.6753 C   0  0  0  0  0  0  0  0  0  0  0  0
   26.3900   59.7304   53.1649 N   0  0  0  0  0  0  0  0  0  0  0  0
   25.0496   59.6556   53.5325 O   0  0  0  0  0  0  0  0  0  0  0  0
   27.3064   59.7453   54.1116 C   0  0  0  0  0  0  0  0  0  0  0  0
   26.9991   59.7100   55.2816 O   0  0  0  0  0  0  0  0  0  0  0  0
   26.6484   59.7713   52.2158 H   0  0  0  0  0  0  0  0  0  0  0  0
   24.9809   59.6231   54.4995 H   0  0  0  0  0  0  0  0  0  0  0  0
   29.4453   58.4858   53.9894 C   0  0  0  0  0  0  0  0  0  0  0  0
   30.8542   58.5955   54.5785 C   0  0  0  0  0  0  0  0  0  0  0  0
   30.9448   57.8578   55.9211 C   0  0  0  0  0  0  0  0  0  0  0  0
   31.9302   58.0820   53.5791 C   0  0  0  0  0  0  0  0  0  0  0  0
 18 19  1  0  0  0
 18 20  1  0  0  0
 20 21  2  0  0  0
 20 17  1  0  0  0
 17 24  1  0  0  0
 17  1  1  0  0  0
 24 25  1  0  0  0
 25 26  1  0  0  0
 25 27  1  0  0  0
  1  2  2  0  0  0
  3  5  1  0  0  0
  5  7  1  0  0  0
  5  6  1  0  0  0
  7  8  2  0  0  0
  9 11  1  0  0  0
 11 12  1  0  0  0
 12 13  2  0  0  0
  1  3  1  0  0  0
  7  9  1  0  0  0
 12 14  1  0  0  0
 18 22  1  0  0  0
 19 23  1  0  0  0
  3  4  1  0  0  0
  9 10  1  0  0  0
 14 15  1  0  0  0
 14 16  1  0  0  0
M  END
> <minimizedAffinity>
-6.54084

$$$$
1JAQ_01S_A_1


 27 26  0  0  0  0  0  0  0  0999 V2000
   28.5156   58.7212   49.2907 C   0  0  0  0  0  0  0  0  0  0  0  0
   27.8649   59.5668   49.9126 O   0  0  0  0  0  0  0  0  0  0  0  0
   27.9781   57.5857   48.8785 N   0  0  0  0  0  0  0  0  0  0  0  0
   28.5164   56.9348   48.3728 H   0  0  0  0  0  0  0  0  0  0  0  0
   26.5924   57.3113   49.1783 C   0  0  0  0  0  0  0  0  0  0  0  0
   25.7031   58.2849   48.4573 C   0  0  0  0  0  0  0  0  0  0  0  0
   26.2398   55.8461   48.8618 C   0  0  0  0  0  0  0  0  0  0  0  0
   26.8408   54.9248   49.4185 O   0  0  0  0  0  0  0  0  0  0  0  0
   25.1698   55.6722   48.0700 N   0  0  0  0  0  0  0  0  0  0  0  0
   24.6393   56.4652   47.8274 H   0  0  0  0  0  0  0  0  0  0  0  0
   24.7486   54.3820   47.5500 C   0  0  0  0  0  0  0  0  0  0  0  0
   25.6220   53.1911   47.6555 C   0  0  0  0  0  0  0  0  0  0  0  0
   26.0651   52.7183   46.6074 O   0  0  0  0  0  0  0  0  0  0  0  0
   25.5027   52.4739   48.7642 N   0  0  0  0  0  0  0  0  0  0  0  0
   25.1439   52.8880   49.5821 H   0  0  0  0  0  0  0  0  0  0  0  0
   25.7728   51.5272   48.7695 H   0  0  0  0  0  0  0  0  0  0  0  0
   29.9665   58.9595   48.9044 C   0  0  0  0  0  0  0  0  0  0  0  0
   30.2847   58.7370   51.3204 N   0  0  0  0  0  0  0  0  0  0  0  0
   31.0785   58.5841   52.4535 O   0  0  0  0  0  0  0  0  0  0  0  0
   30.8705   58.8127   50.1425 C   0  0  0  0  0  0  0  0  0  0  0  0
   32.0752   58.7663   50.0377 O   0  0  0  0  0  0  0  0  0  0  0  0
   29.3046   58.7876   51.3976 H   0  0  0  0  0  0  0  0  0  0  0  0
   32.0122   58.5534   52.1924 H   0  0  0  0  0  0  0  0  0  0  0  0
   30.3709   57.9332   47.8724 C   0  0  0  0  0  0  0  0  0  0  0  0
   31.5682   58.3285   47.0040 C   0  0  0  0  0  0  0  0  0  0  0  0
   32.1789   57.0974   46.3210 C   0  0  0  0  0  0  0  0  0  0  0  0
   31.1808   59.4171   45.9624 C   0  0  0  0  0  0  0  0  0  0  0  0
 18 19  1  0  0  0
 18 20  1  0  0  0
 20 21  2  0  0  0
 20 17  1  0  0  0
 17 24  1  0  0  0
 17  1  1  0  0  0
 24 25  1  0  0  0
 25 26  1  0  0  0
 25 27  1  0  0  0
  1  2  2  0  0  0
  3  5  1  0  0  0
  5  7  1  0  0  0
  5  6  1  0  0  0
  7  8  2  0  0  0
  9 11  1  0  0  0
 11 12  1  0  0  0
 12 13  2  0  0  0
  1  3  1  0  0  0
  7  9  1  0  0  0
 12 14  1  0  0  0
 18 22  1  0  0  0
 19 23  1  0  0  0
  3  4  1  0  0  0
  9 10  1  0  0  0
 14 15  1  0  0  0
 14 16  1  0  0  0
M  END
> <minimizedAffinity>
-6.51945

$$$$
1JAQ_01S_A_1


 27 26  0  0  0  0  0  0  0  0999 V2000
   27.6099   59.6754   50.5381 C   0  0  0  0  0  0  0  0  0  0  0  0
   27.3627   60.8796   50.4185 O   0  0  0  0  0  0  0  0  0  0  0  0
   27.7847   59.1089   51.7199 N   0  0  0  0  0  0  0  0  0  0  0  0
   27.9675   58.1439   51.7873 H   0  0  0  0  0  0  0  0  0  0  0  0
   27.7044   59.9217   52.9108 C   0  0  0  0  0  0  0  0  0  0  0  0
   26.4054   59.6703   53.6237 C   0  0  0  0  0  0  0  0  0  0  0  0
   28.9277   59.6930   53.8177 C   0  0  0  0  0  0  0  0  0  0  0  0
   28.8026   59.6816   55.0442 O   0  0  0  0  0  0  0  0  0  0  0  0
   30.0646   59.3775   53.1776 N   0  0  0  0  0  0  0  0  0  0  0  0
   30.0222   59.2244   52.2060 H   0  0  0  0  0  0  0  0  0  0  0  0
   31.3546   59.2485   53.8347 C   0  0  0  0  0  0  0  0  0  0  0  0
   31.8280   57.9411   54.3435 C   0  0  0  0  0  0  0  0  0  0  0  0
   32.4643   57.2270   53.5665 O   0  0  0  0  0  0  0  0  0  0  0  0
   31.1789   57.4503   55.3902 N   0  0  0  0  0  0  0  0  0  0  0  0
   30.6815   58.0538   55.9882 H   0  0  0  0  0  0  0  0  0  0  0  0
   31.1943   56.4823   55.5694 H   0  0  0  0  0  0  0  0  0  0  0  0
   27.6687   58.7514   49.3324 C   0  0  0  0  0  0  0  0  0  0  0  0
   29.8290   59.7885   48.8367 N   0  0  0  0  0  0  0  0  0  0  0  0
   31.1403   59.7508   48.3717 O   0  0  0  0  0  0  0  0  0  0  0  0
   29.1088   58.6860   48.7908 C   0  0  0  0  0  0  0  0  0  0  0  0
   29.5640   57.6587   48.3414 O   0  0  0  0  0  0  0  0  0  0  0  0
   29.4469   60.6229   49.1931 H   0  0  0  0  0  0  0  0  0  0  0  0
   31.3471   58.8558   48.0599 H   0  0  0  0  0  0  0  0  0  0  0  0
   27.2369   57.3677   49.7572 C   0  0  0  0  0  0  0  0  0  0  0  0
   26.3874   56.6132   48.7309 C   0  0  0  0  0  0  0  0  0  0  0  0
   26.3030   55.1216   49.0812 C   0  0  0  0  0  0  0  0  0  0  0  0
   24.9708   57.2412   48.5931 C   0  0  0  0  0  0  0  0  0  0  0  0
 18 19  1  0  0  0
 18 20  1  0  0  0
 20 21  2  0  0  0
 20 17  1  0  0  0
 17 24  1  0  0  0
 17  1  1  0  0  0
 24 25  1  0  0  0
 25 26  1  0  0  0
 25 27  1  0  0  0
  1  2  2  0  0  0
  3  5  1  0  0  0
  5  7  1  0  0  0
  5  6  1  0  0  0
  7  8  2  0  0  0
  9 11  1  0  0  0
 11 12  1  0  0  0
 12 13  2  0  0  0
  1  3  1  0  0  0
  7  9  1  0  0  0
 12 14  1  0  0  0
 18 22  1  0  0  0
 19 23  1  0  0  0
  3  4  1  0  0  0
  9 10  1  0  0  0
 14 15  1  0  0  0
 14 16  1  0  0  0
M  END
> <minimizedAffinity>
-6.47615

$$$$
1JAQ_01S_A_1


 27 26  0  0  0  0  0  0  0  0999 V2000
   28.3121   59.7130   52.4897 C   0  0  0  0  0  0  0  0  0  0  0  0
   28.7454   58.7783   53.1708 O   0  0  0  0  0  0  0  0  0  0  0  0
   28.2939   60.9573   52.9363 N   0  0  0  0  0  0  0  0  0  0  0  0
   27.9552   61.6857   52.3671 H   0  0  0  0  0  0  0  0  0  0  0  0
   28.7765   61.2359   54.2685 C   0  0  0  0  0  0  0  0  0  0  0  0
   29.6108   62.4859   54.2671 C   0  0  0  0  0  0  0  0  0  0  0  0
   27.6115   61.3067   55.2731 C   0  0  0  0  0  0  0  0  0  0  0  0
   27.1433   62.3960   55.6108 O   0  0  0  0  0  0  0  0  0  0  0  0
   27.0815   60.1233   55.6204 N   0  0  0  0  0  0  0  0  0  0  0  0
   27.3998   59.3178   55.1523 H   0  0  0  0  0  0  0  0  0  0  0  0
   26.0653   59.9613   56.6468 C   0  0  0  0  0  0  0  0  0  0  0  0
   24.6371   60.2261   56.3597 C   0  0  0  0  0  0  0  0  0  0  0  0
   24.2695   60.1411   55.1866 O   0  0  0  0  0  0  0  0  0  0  0  0
   23.9832   60.9482   57.2590 N   0  0  0  0  0  0  0  0  0  0  0  0
   24.3088   60.9910   58.1871 H   0  0  0  0  0  0  0  0  0  0  0  0
   23.1721   61.4416   56.9987 H   0  0  0  0  0  0  0  0  0  0  0  0
   27.8264   59.5011   51.0648 C   0  0  0  0  0  0  0  0  0  0  0  0
   29.9487   58.4798   50.4006 N   0  0  0  0  0  0  0  0  0  0  0  0
   31.0370   58.3367   49.5448 O   0  0  0  0  0  0  0  0  0  0  0  0
   29.0304   59.3799   50.1123 C   0  0  0  0  0  0  0  0  0  0  0  0
   29.1290   60.0839   49.1330 O   0  0  0  0  0  0  0  0  0  0  0  0
   29.8666   57.9194   51.2058 H   0  0  0  0  0  0  0  0  0  0  0  0
   30.9549   58.9642   48.8097 H   0  0  0  0  0  0  0  0  0  0  0  0
   27.0214   58.2242   51.0090 C   0  0  0  0  0  0  0  0  0  0  0  0
   26.7644   57.6844   49.5996 C   0  0  0  0  0  0  0  0  0  0  0  0
   26.8796   56.1544   49.5703 C   0  0  0  0  0  0  0  0  0  0  0  0
   25.3872   58.1569   49.0518 C   0  0  0  0  0  0  0  0  0  0  0  0
 18 19  1  0  0  0
 18 20  1  0  0  0
 20 21  2  0  0  0
 20 17  1  0  0  0
 17 24  1  0  0  0
 17  1  1  0  0  0
 24 25  1  0  0  0
 25 26  1  0  0  0
 25 27  1  0  0  0
  1  2  2  0  0  0
  3  5  1  0  0  0
  5  7  1  0  0  0
  5  6  1  0  0  0
  7  8  2  0  0  0
  9 11  1  0  0  0
 11 12  1  0  0  0
 12 13  2  0  0  0
  1  3  1  0  0  0
  7  9  1  0  0  0
 12 14  1  0  0  0
 18 22  1  0  0  0
 19 23  1  0  0  0
  3  4  1  0  0  0
  9 10  1  0  0  0
 14 15  1  0  0  0
 14 16  1  0  0  0
M  END
> <minimizedAffinity>
-6.10589

$$$$
1JAQ_01S_A_1


 27 26  0  0  0  0  0  0  0  0999 V2000
   28.9678   60.1859   51.0228 C   0  0  0  0  0  0  0  0  0  0  0  0
   28.6128   61.0817   50.2502 O   0  0  0  0  0  0  0  0  0  0  0  0
   28.8722   58.9061   50.7047 N   0  0  0  0  0  0  0  0  0  0  0  0
   29.1751   58.2127   51.3345 H   0  0  0  0  0  0  0  0  0  0  0  0
   28.3184   58.5371   49.4231 C   0  0  0  0  0  0  0  0  0  0  0  0
   29.4031   58.0255   48.5174 C   0  0  0  0  0  0  0  0  0  0  0  0
   27.1667   57.5288   49.5902 C   0  0  0  0  0  0  0  0  0  0  0  0
   26.0120   57.9231   49.7672 O   0  0  0  0  0  0  0  0  0  0  0  0
   27.4969   56.2431   49.3900 N   0  0  0  0  0  0  0  0  0  0  0  0
   28.4048   56.0429   49.0664 H   0  0  0  0  0  0  0  0  0  0  0  0
   26.5927   55.1292   49.6231 C   0  0  0  0  0  0  0  0  0  0  0  0
   25.7222   54.6103   48.5437 C   0  0  0  0  0  0  0  0  0  0  0  0
   25.9230   53.4571   48.1585 O   0  0  0  0  0  0  0  0  0  0  0  0
   25.1248   55.5191   47.7854 N   0  0  0  0  0  0  0  0  0  0  0  0
   24.9823   56.4305   48.1293 H   0  0  0  0  0  0  0  0  0  0  0  0
   24.8236   55.2825   46.8785 H   0  0  0  0  0  0  0  0  0  0  0  0
   29.5969   60.5004   52.3705 C   0  0  0  0  0  0  0  0  0  0  0  0
   31.4499   61.2822   50.9763 N   0  0  0  0  0  0  0  0  0  0  0  0
   32.6096   62.0217   50.7632 O   0  0  0  0  0  0  0  0  0  0  0  0
   30.8913   61.3102   52.1695 C   0  0  0  0  0  0  0  0  0  0  0  0
   31.3770   61.9513   53.0737 O   0  0  0  0  0  0  0  0  0  0  0  0
   31.0545   60.7484   50.2497 H   0  0  0  0  0  0  0  0  0  0  0  0
   32.8545   62.4819   51.5812 H   0  0  0  0  0  0  0  0  0  0  0  0
   28.6227   61.3192   53.1841 C   0  0  0  0  0  0  0  0  0  0  0  0
   28.0466   60.6059   54.4102 C   0  0  0  0  0  0  0  0  0  0  0  0
   26.8816   59.6894   54.0129 C   0  0  0  0  0  0  0  0  0  0  0  0
   29.1463   59.8190   55.1794 C   0  0  0  0  0  0  0  0  0  0  0  0
 18 19  1  0  0  0
 18 20  1  0  0  0
 20 21  2  0  0  0
 20 17  1  0  0  0
 17 24  1  0  0  0
 17  1  1  0  0  0
 24 25  1  0  0  0
 25 26  1  0  0  0
 25 27  1  0  0  0
  1  2  2  0  0  0
  3  5  1  0  0  0
  5  7  1  0  0  0
  5  6  1  0  0  0
  7  8  2  0  0  0
  9 11  1  0  0  0
 11 12  1  0  0  0
 12 13  2  0  0  0
  1  3  1  0  0  0
  7  9  1  0  0  0
 12 14  1  0  0  0
 18 22  1  0  0  0
 19 23  1  0  0  0
  3  4  1  0  0  0
  9 10  1  0  0  0
 14 15  1  0  0  0
 14 16  1  0  0  0
M  END
> <minimizedAffinity>
-6.08700

$$$$
