4Q81_7MH_A_303


 11 11  0  0  0  0  0  0  0  0999 V2000
   15.3099    1.3812   17.2962 C   0  0  0  0  0  0  0  0  0  0  0  0
   15.4834    2.0542   15.9639 C   0  0  0  0  0  0  0  0  0  0  0  0
   14.9952    3.3153   15.7653 C   0  0  0  0  0  0  0  0  0  0  0  0
   15.1111    3.9155   14.5254 C   0  0  0  0  0  0  0  0  0  0  0  0
   14.5733    5.3185   14.3081 C   0  0  0  0  0  0  0  0  0  0  0  0
   15.7693    3.2726   13.5169 C   0  0  0  0  0  0  0  0  0  0  0  0
   16.2704    2.0074   13.7215 C   0  0  0  0  0  0  0  0  0  0  0  0
   17.1107    1.1804   12.4301 S   0  0  0  0  0  0  0  0  0  0  0  0
   16.0732    1.3779   14.9268 N   0  0  0  0  0  0  0  0  0  0  0  0
   16.5159    0.1253   15.1093 O   0  0  0  0  0  0  0  0  0  0  0  0
   16.3814   -0.3040   15.9313 H   0  0  0  0  0  0  0  0  0  0  0  0
  1  2  1  0  0  0
  2  3  2  0  0  0
  2  9  1  0  0  0
  3  4  1  0  0  0
 10  9  1  0  0  0
  9  7  1  0  0  0
  4  5  1  0  0  0
  4  6  2  0  0  0
  7  6  1  0  0  0
  7  8  2  0  0  0
 10 11  1  0  0  0
M  END
> <minimizedAffinity>
-5.13649

$$$$
4Q81_7MH_A_303


 11 11  0  0  0  0  0  0  0  0999 V2000
   16.9615    1.1882   12.8260 C   0  0  0  0  0  0  0  0  0  0  0  0
   16.2061    1.9367   13.8876 C   0  0  0  0  0  0  0  0  0  0  0  0
   15.7653    3.2078   13.6467 C   0  0  0  0  0  0  0  0  0  0  0  0
   15.1135    3.9147   14.6399 C   0  0  0  0  0  0  0  0  0  0  0  0
   14.6196    5.3244   14.3687 C   0  0  0  0  0  0  0  0  0  0  0  0
   14.8547    3.3196   15.8410 C   0  0  0  0  0  0  0  0  0  0  0  0
   15.2891    2.0356   16.0783 C   0  0  0  0  0  0  0  0  0  0  0  0
   14.9621    1.2725   17.6173 S   0  0  0  0  0  0  0  0  0  0  0  0
   16.0163    1.3694   15.1217 N   0  0  0  0  0  0  0  0  0  0  0  0
   16.4842    0.1378   15.3722 O   0  0  0  0  0  0  0  0  0  0  0  0
   16.9801   -0.3165   14.7198 H   0  0  0  0  0  0  0  0  0  0  0  0
  1  2  1  0  0  0
  2  3  2  0  0  0
  2  9  1  0  0  0
  3  4  1  0  0  0
 10  9  1  0  0  0
  9  7  1  0  0  0
  4  5  1  0  0  0
  4  6  2  0  0  0
  7  6  1  0  0  0
  7  8  2  0  0  0
 10 11  1  0  0  0
M  END
> <minimizedAffinity>
-5.04889

$$$$
4Q81_7MH_A_303


 11 11  0  0  0  0  0  0  0  0999 V2000
   20.1203    2.2014   10.0909 C   0  0  0  0  0  0  0  0  0  0  0  0
   18.9932    1.5889   10.8736 C   0  0  0  0  0  0  0  0  0  0  0  0
   18.7812    0.2395   10.8266 C   0  0  0  0  0  0  0  0  0  0  0  0
   17.7149   -0.3181   11.5072 C   0  0  0  0  0  0  0  0  0  0  0  0
   17.4841   -1.8178   11.4584 C   0  0  0  0  0  0  0  0  0  0  0  0
   16.9108    0.4720   12.2772 C   0  0  0  0  0  0  0  0  0  0  0  0
   17.1323    1.8290   12.3327 C   0  0  0  0  0  0  0  0  0  0  0  0
   16.1014    2.8435   13.3155 S   0  0  0  0  0  0  0  0  0  0  0  0
   18.1367    2.3916   11.5828 N   0  0  0  0  0  0  0  0  0  0  0  0
   18.3199    3.7200   11.5963 O   0  0  0  0  0  0  0  0  0  0  0  0
   19.0049    4.1037   11.0849 H   0  0  0  0  0  0  0  0  0  0  0  0
  1  2  1  0  0  0
  2  3  2  0  0  0
  2  9  1  0  0  0
  3  4  1  0  0  0
 10  9  1  0  0  0
  9  7  1  0  0  0
  4  5  1  0  0  0
  4  6  2  0  0  0
  7  6  1  0  0  0
  7  8  2  0  0  0
 10 11  1  0  0  0
M  END
> <minimizedAffinity>
-4.67656

$$$$
4Q81_7MH_A_303


 11 11  0  0  0  0  0  0  0  0999 V2000
   16.0261    2.6630   13.2332 C   0  0  0  0  0  0  0  0  0  0  0  0
   16.9845    1.8435   12.4159 C   0  0  0  0  0  0  0  0  0  0  0  0
   16.7956    0.4960   12.2869 C   0  0  0  0  0  0  0  0  0  0  0  0
   17.7042   -0.2657   11.5761 C   0  0  0  0  0  0  0  0  0  0  0  0
   17.4899   -1.7615   11.4291 C   0  0  0  0  0  0  0  0  0  0  0  0
   18.7564    0.3382   10.9501 C   0  0  0  0  0  0  0  0  0  0  0  0
   18.9390    1.6967   11.0714 C   0  0  0  0  0  0  0  0  0  0  0  0
   20.2881    2.4720   10.2735 S   0  0  0  0  0  0  0  0  0  0  0  0
   18.0859    2.4367   11.8538 N   0  0  0  0  0  0  0  0  0  0  0  0
   18.2937    3.7518   12.0141 O   0  0  0  0  0  0  0  0  0  0  0  0
   17.7119    4.2564   12.5477 H   0  0  0  0  0  0  0  0  0  0  0  0
  1  2  1  0  0  0
  2  3  2  0  0  0
  2  9  1  0  0  0
  3  4  1  0  0  0
 10  9  1  0  0  0
  9  7  1  0  0  0
  4  5  1  0  0  0
  4  6  2  0  0  0
  7  6  1  0  0  0
  7  8  2  0  0  0
 10 11  1  0  0  0
M  END
> <minimizedAffinity>
-4.60411

$$$$
4Q81_7MH_A_303


 11 11  0  0  0  0  0  0  0  0999 V2000
   18.1652   -1.1045   11.0308 C   0  0  0  0  0  0  0  0  0  0  0  0
   18.4575    0.3649   11.1473 C   0  0  0  0  0  0  0  0  0  0  0  0
   19.4743    0.9202   10.4222 C   0  0  0  0  0  0  0  0  0  0  0  0
   19.7751    2.2617   10.5661 C   0  0  0  0  0  0  0  0  0  0  0  0
   20.9013    2.8781    9.7557 C   0  0  0  0  0  0  0  0  0  0  0  0
   19.0153    3.0456   11.3859 C   0  0  0  0  0  0  0  0  0  0  0  0
   17.9845    2.4875   12.1067 C   0  0  0  0  0  0  0  0  0  0  0  0
   17.0123    3.4887   13.1603 S   0  0  0  0  0  0  0  0  0  0  0  0
   17.7468    1.1364   12.0308 N   0  0  0  0  0  0  0  0  0  0  0  0
   16.7759    0.5837   12.7726 O   0  0  0  0  0  0  0  0  0  0  0  0
   16.6137   -0.3377   12.7208 H   0  0  0  0  0  0  0  0  0  0  0  0
  1  2  1  0  0  0
  2  3  2  0  0  0
  2  9  1  0  0  0
  3  4  1  0  0  0
 10  9  1  0  0  0
  9  7  1  0  0  0
  4  5  1  0  0  0
  4  6  2  0  0  0
  7  6  1  0  0  0
  7  8  2  0  0  0
 10 11  1  0  0  0
M  END
> <minimizedAffinity>
-4.53127

$$$$
4Q81_7MH_A_303


 11 11  0  0  0  0  0  0  0  0999 V2000
   14.7059    2.5761   16.2242 C   0  0  0  0  0  0  0  0  0  0  0  0
   15.3149    3.5548   15.2601 C   0  0  0  0  0  0  0  0  0  0  0  0
   14.5272    4.4810   14.6358 C   0  0  0  0  0  0  0  0  0  0  0  0
   15.0785    5.3491   13.7121 C   0  0  0  0  0  0  0  0  0  0  0  0
   14.2032    6.3811   13.0237 C   0  0  0  0  0  0  0  0  0  0  0  0
   16.4218    5.3225   13.4702 C   0  0  0  0  0  0  0  0  0  0  0  0
   17.2157    4.3969   14.1079 C   0  0  0  0  0  0  0  0  0  0  0  0
   18.9360    4.3584   13.7970 S   0  0  0  0  0  0  0  0  0  0  0  0
   16.6500    3.4761   14.9563 N   0  0  0  0  0  0  0  0  0  0  0  0
   17.4155    2.5411   15.5378 O   0  0  0  0  0  0  0  0  0  0  0  0
   17.0297    1.9131   16.1164 H   0  0  0  0  0  0  0  0  0  0  0  0
  1  2  1  0  0  0
  2  3  2  0  0  0
  2  9  1  0  0  0
  3  4  1  0  0  0
 10  9  1  0  0  0
  9  7  1  0  0  0
  4  5  1  0  0  0
  4  6  2  0  0  0
  7  6  1  0  0  0
  7  8  2  0  0  0
 10 11  1  0  0  0
M  END
> <minimizedAffinity>
-4.45867

$$$$
4Q81_7MH_A_303


 11 11  0  0  0  0  0  0  0  0999 V2000
   17.4214   -1.0303   11.4452 C   0  0  0  0  0  0  0  0  0  0  0  0
   17.4729    0.4545   11.6709 C   0  0  0  0  0  0  0  0  0  0  0  0
   16.6482    1.0357   12.5930 C   0  0  0  0  0  0  0  0  0  0  0  0
   16.6604    2.4071   12.7659 C   0  0  0  0  0  0  0  0  0  0  0  0
   15.7477    3.0505   13.7945 C   0  0  0  0  0  0  0  0  0  0  0  0
   17.5416    3.1744   12.0599 C   0  0  0  0  0  0  0  0  0  0  0  0
   18.3794    2.5866   11.1400 C   0  0  0  0  0  0  0  0  0  0  0  0
   19.5064    3.5677   10.2317 S   0  0  0  0  0  0  0  0  0  0  0  0
   18.3005    1.2352   10.9051 N   0  0  0  0  0  0  0  0  0  0  0  0
   19.0804    0.6701    9.9720 O   0  0  0  0  0  0  0  0  0  0  0  0
   19.0266   -0.2515    9.8118 H   0  0  0  0  0  0  0  0  0  0  0  0
  1  2  1  0  0  0
  2  3  2  0  0  0
  2  9  1  0  0  0
  3  4  1  0  0  0
 10  9  1  0  0  0
  9  7  1  0  0  0
  4  5  1  0  0  0
  4  6  2  0  0  0
  7  6  1  0  0  0
  7  8  2  0  0  0
 10 11  1  0  0  0
M  END
> <minimizedAffinity>
-4.36827

$$$$
4Q81_7MH_A_303


 11 11  0  0  0  0  0  0  0  0999 V2000
   19.4202    5.3289   13.5487 C   0  0  0  0  0  0  0  0  0  0  0  0
   18.1177    4.5855   13.6427 C   0  0  0  0  0  0  0  0  0  0  0  0
   17.0777    5.1141   14.3548 C   0  0  0  0  0  0  0  0  0  0  0  0
   15.8961    4.4081   14.4825 C   0  0  0  0  0  0  0  0  0  0  0  0
   14.7400    4.9992   15.2691 C   0  0  0  0  0  0  0  0  0  0  0  0
   15.7465    3.2105   13.8444 C   0  0  0  0  0  0  0  0  0  0  0  0
   16.7905    2.6846   13.1184 C   0  0  0  0  0  0  0  0  0  0  0  0
   16.6026    1.1491   12.3033 S   0  0  0  0  0  0  0  0  0  0  0  0
   17.9939    3.3458   13.0693 N   0  0  0  0  0  0  0  0  0  0  0  0
   19.0275    2.8086   12.4051 O   0  0  0  0  0  0  0  0  0  0  0  0
   19.8482    3.2595   12.3716 H   0  0  0  0  0  0  0  0  0  0  0  0
  1  2  1  0  0  0
  2  3  2  0  0  0
  2  9  1  0  0  0
  3  4  1  0  0  0
 10  9  1  0  0  0
  9  7  1  0  0  0
  4  5  1  0  0  0
  4  6  2  0  0  0
  7  6  1  0  0  0
  7  8  2  0  0  0
 10 11  1  0  0  0
M  END
> <minimizedAffinity>
-4.32536

$$$$
4Q81_7MH_A_303


 11 11  0  0  0  0  0  0  0  0999 V2000
   15.3377    5.6267   13.5089 C   0  0  0  0  0  0  0  0  0  0  0  0
   15.6094    4.1971   13.8838 C   0  0  0  0  0  0  0  0  0  0  0  0
   15.3739    3.7675   15.1598 C   0  0  0  0  0  0  0  0  0  0  0  0
   15.6700    2.4655   15.5178 C   0  0  0  0  0  0  0  0  0  0  0  0
   15.4026    1.9884   16.9340 C   0  0  0  0  0  0  0  0  0  0  0  0
   16.1389    1.5915   14.5798 C   0  0  0  0  0  0  0  0  0  0  0  0
   16.3649    2.0224   13.2926 C   0  0  0  0  0  0  0  0  0  0  0  0
   16.9690    0.9057   12.0902 S   0  0  0  0  0  0  0  0  0  0  0  0
   16.1560    3.3399   12.9633 N   0  0  0  0  0  0  0  0  0  0  0  0
   16.4253    3.7718   11.7227 O   0  0  0  0  0  0  0  0  0  0  0  0
   16.2829    4.6703   11.4982 H   0  0  0  0  0  0  0  0  0  0  0  0
  1  2  1  0  0  0
  2  3  2  0  0  0
  2  9  1  0  0  0
  3  4  1  0  0  0
 10  9  1  0  0  0
  9  7  1  0  0  0
  4  5  1  0  0  0
  4  6  2  0  0  0
  7  6  1  0  0  0
  7  8  2  0  0  0
 10 11  1  0  0  0
M  END
> <minimizedAffinity>
-4.30334

$$$$
4Q81_7MH_A_303


 11 11  0  0  0  0  0  0  0  0999 V2000
   16.9414    0.9051   13.0770 C   0  0  0  0  0  0  0  0  0  0  0  0
   16.2054    1.8060   14.0280 C   0  0  0  0  0  0  0  0  0  0  0  0
   15.9515    1.3918   15.3056 C   0  0  0  0  0  0  0  0  0  0  0  0
   15.2318    2.2002   16.1655 C   0  0  0  0  0  0  0  0  0  0  0  0
   14.9555    1.7409   17.5859 C   0  0  0  0  0  0  0  0  0  0  0  0
   14.8288    3.4392   15.7578 C   0  0  0  0  0  0  0  0  0  0  0  0
   15.0950    3.8596   14.4748 C   0  0  0  0  0  0  0  0  0  0  0  0
   14.5766    5.4447   13.9490 S   0  0  0  0  0  0  0  0  0  0  0  0
   15.7304    3.0174   13.5946 N   0  0  0  0  0  0  0  0  0  0  0  0
   15.9438    3.4070   12.3293 O   0  0  0  0  0  0  0  0  0  0  0  0
   16.3771    2.8326   11.7290 H   0  0  0  0  0  0  0  0  0  0  0  0
  1  2  1  0  0  0
  2  3  2  0  0  0
  2  9  1  0  0  0
  3  4  1  0  0  0
 10  9  1  0  0  0
  9  7  1  0  0  0
  4  5  1  0  0  0
  4  6  2  0  0  0
  7  6  1  0  0  0
  7  8  2  0  0  0
 10 11  1  0  0  0
M  END
> <minimizedAffinity>
-4.28112

$$$$
