6GZM_LCI_A_1004


 29 32  0  0  0  0  0  0  0  0999 V2000
    3.7919    0.3369   19.1969 F   0  0  0  0  0  0  0  0  0  0  0  0
    3.3025    1.2733   18.4065 C   0  0  0  0  0  0  0  0  0  0  0  0
    2.6690    0.8569   17.2509 C   0  0  0  0  0  0  0  0  0  0  0  0
    2.1073    1.7395   16.3405 N   0  0  0  0  0  0  0  0  0  0  0  0
    3.4197    2.6189   18.7118 C   0  0  0  0  0  0  0  0  0  0  0  0
    2.8332    3.5023   17.8146 N   0  0  0  0  0  0  0  0  0  0  0  0
    2.1899    3.0856   16.6634 C   0  0  0  0  0  0  0  0  0  0  0  0
    4.0023    3.1475   19.9703 C   0  0  0  0  0  0  0  0  0  0  0  0
    4.8754    2.4661   20.8189 C   0  0  0  0  0  0  0  0  0  0  0  0
    5.0800    3.2504   21.8791 N   0  0  0  0  0  0  0  0  0  0  0  0
    4.4391    4.3166   21.7711 N   0  0  0  0  0  0  0  0  0  0  0  0
    4.5148    5.3380   22.8267 C   0  0  0  0  0  0  0  0  0  0  0  0
    3.7312    4.3386   20.6206 C   0  0  0  0  0  0  0  0  0  0  0  0
    2.8090    5.4902   20.1896 C   0  0  0  0  0  0  0  0  0  0  0  0
    3.5793    6.4184   19.2315 C   0  0  0  0  0  0  0  0  0  0  0  0
    3.7314    7.8434   19.7830 C   0  0  0  0  0  0  0  0  0  0  0  0
    2.6732    7.5309   18.7321 C   0  0  0  0  0  0  0  0  0  0  0  0
    1.6052    4.0069   15.8005 N   0  0  0  0  0  0  0  0  0  0  0  0
    1.5796    3.8167   14.8349 H   0  0  0  0  0  0  0  0  0  0  0  0
    1.0270    5.2553   16.3039 C   0  0  0  0  0  0  0  0  0  0  0  0
    0.4785    6.0388   15.1101 C   0  0  0  0  0  0  0  0  0  0  0  0
   -0.1677    7.3535   15.5921 C   0  0  0  0  0  0  0  0  0  0  0  0
   -0.1131    4.9766   17.3120 C   0  0  0  0  0  0  0  0  0  0  0  0
   -0.8298    6.2627   17.7782 C   0  0  0  0  0  0  0  0  0  0  0  0
   -1.3280    7.0829   16.5697 C   0  0  0  0  0  0  0  0  0  0  0  0
   -1.8982    8.3699   17.0376 N   0  0  0  0  0  0  0  0  0  0  0  0
   -1.1776    8.9048   17.5222 H   0  0  0  0  0  0  0  0  0  0  0  0
   -2.6726    8.1867   17.6756 H   0  0  0  0  0  0  0  0  0  0  0  0
   -2.2365    8.9031   16.2365 H   0  0  0  0  0  0  0  0  0  0  0  0
 26 25  1  0  0  0
 25 22  1  0  0  0
 25 24  1  0  0  0
 22 21  1  0  0  0
 21 20  1  0  0  0
 24 23  1  0  0  0
 23 20  1  0  0  0
 20 18  1  0  0  0
 18  7  1  0  0  0
  7  4  2  0  0  0
  7  6  1  0  0  0
  4  3  1  0  0  0
  6  5  2  0  0  0
  3  2  2  0  0  0
 14 15  1  0  0  0
 14 13  1  0  0  0
 16 15  1  0  0  0
 16 17  1  0  0  0
  5  2  1  0  0  0
  5  8  1  0  0  0
 15 17  1  0  0  0
  2  1  1  0  0  0
 13  8  2  0  0  0
 13 11  1  0  0  0
  8  9  1  0  0  0
 11 12  1  0  0  0
 11 10  1  0  0  0
  9 10  2  0  0  0
 18 19  1  0  0  0
 26 27  1  0  0  0
 26 28  1  0  0  0
 26 29  1  0  0  0
M  CHG 1  26   1
M  END
> <minimizedAffinity>
-8.75502

$$$$
6GZM_LCI_A_1004


 29 32  0  0  0  0  0  0  0  0999 V2000
   -1.7747    6.7325   18.9535 F   0  0  0  0  0  0  0  0  0  0  0  0
   -0.5162    6.5519   19.3067 C   0  0  0  0  0  0  0  0  0  0  0  0
   -0.2424    6.4905   20.6600 C   0  0  0  0  0  0  0  0  0  0  0  0
    1.0362    6.2984   21.1614 N   0  0  0  0  0  0  0  0  0  0  0  0
    0.4944    6.4339   18.3673 C   0  0  0  0  0  0  0  0  0  0  0  0
    1.7712    6.2137   18.8680 N   0  0  0  0  0  0  0  0  0  0  0  0
    2.0441    6.1417   20.2219 C   0  0  0  0  0  0  0  0  0  0  0  0
    0.2775    6.3982   16.8996 C   0  0  0  0  0  0  0  0  0  0  0  0
   -0.0114    7.4948   16.0868 C   0  0  0  0  0  0  0  0  0  0  0  0
   -0.2292    7.0226   14.8578 N   0  0  0  0  0  0  0  0  0  0  0  0
   -0.1061    5.7803   14.8328 N   0  0  0  0  0  0  0  0  0  0  0  0
   -0.3004    5.0404   13.5766 C   0  0  0  0  0  0  0  0  0  0  0  0
    0.1986    5.3017   16.0590 C   0  0  0  0  0  0  0  0  0  0  0  0
    0.3891    3.8124   16.3880 C   0  0  0  0  0  0  0  0  0  0  0  0
    1.8134    3.3873   15.9834 C   0  0  0  0  0  0  0  0  0  0  0  0
    2.2958    2.1406   16.7391 C   0  0  0  0  0  0  0  0  0  0  0  0
    2.7612    3.5284   17.1624 C   0  0  0  0  0  0  0  0  0  0  0  0
    3.3375    5.9061   20.6767 N   0  0  0  0  0  0  0  0  0  0  0  0
    4.0354    6.5832   20.5224 H   0  0  0  0  0  0  0  0  0  0  0  0
    3.6790    4.6679   21.3812 C   0  0  0  0  0  0  0  0  0  0  0  0
    4.1772    3.6565   20.3474 C   0  0  0  0  0  0  0  0  0  0  0  0
    4.5768    2.3404   21.0450 C   0  0  0  0  0  0  0  0  0  0  0  0
    4.7787    4.9132   22.4416 C   0  0  0  0  0  0  0  0  0  0  0  0
    5.2532    3.6127   23.1260 C   0  0  0  0  0  0  0  0  0  0  0  0
    5.6971    2.5706   22.0779 C   0  0  0  0  0  0  0  0  0  0  0  0
    6.0271    1.2908   22.7515 N   0  0  0  0  0  0  0  0  0  0  0  0
    5.2011    0.9382   23.2350 H   0  0  0  0  0  0  0  0  0  0  0  0
    6.7762    1.4450   23.4264 H   0  0  0  0  0  0  0  0  0  0  0  0
    6.3309    0.6091   22.0562 H   0  0  0  0  0  0  0  0  0  0  0  0
 26 25  1  0  0  0
 25 22  1  0  0  0
 25 24  1  0  0  0
 22 21  1  0  0  0
 21 20  1  0  0  0
 24 23  1  0  0  0
 23 20  1  0  0  0
 20 18  1  0  0  0
 18  7  1  0  0  0
  7  4  2  0  0  0
  7  6  1  0  0  0
  4  3  1  0  0  0
  6  5  2  0  0  0
  3  2  2  0  0  0
 14 15  1  0  0  0
 14 13  1  0  0  0
 16 15  1  0  0  0
 16 17  1  0  0  0
  5  2  1  0  0  0
  5  8  1  0  0  0
 15 17  1  0  0  0
  2  1  1  0  0  0
 13  8  2  0  0  0
 13 11  1  0  0  0
  8  9  1  0  0  0
 11 12  1  0  0  0
 11 10  1  0  0  0
  9 10  2  0  0  0
 18 19  1  0  0  0
 26 27  1  0  0  0
 26 28  1  0  0  0
 26 29  1  0  0  0
M  CHG 1  26   1
M  END
> <minimizedAffinity>
-8.13026

$$$$
6GZM_LCI_A_1004


 29 32  0  0  0  0  0  0  0  0999 V2000
    4.9179    7.5792   20.8286 F   0  0  0  0  0  0  0  0  0  0  0  0
    3.6698    7.2451   20.5606 C   0  0  0  0  0  0  0  0  0  0  0  0
    2.9250    8.1350   19.8102 C   0  0  0  0  0  0  0  0  0  0  0  0
    1.6050    7.9001   19.4554 N   0  0  0  0  0  0  0  0  0  0  0  0
    3.1202    6.0575   21.0136 C   0  0  0  0  0  0  0  0  0  0  0  0
    1.8071    5.8086   20.6354 N   0  0  0  0  0  0  0  0  0  0  0  0
    1.0645    6.6941   19.8755 C   0  0  0  0  0  0  0  0  0  0  0  0
    3.8728    5.0084   21.7454 C   0  0  0  0  0  0  0  0  0  0  0  0
    4.2268    5.0438   23.0945 C   0  0  0  0  0  0  0  0  0  0  0  0
    4.9753    3.9643   23.3296 N   0  0  0  0  0  0  0  0  0  0  0  0
    5.1132    3.2864   22.2902 N   0  0  0  0  0  0  0  0  0  0  0  0
    5.9023    2.0455   22.3127 C   0  0  0  0  0  0  0  0  0  0  0  0
    4.4709    3.8626   21.2506 C   0  0  0  0  0  0  0  0  0  0  0  0
    4.4630    3.3066   19.8177 C   0  0  0  0  0  0  0  0  0  0  0  0
    3.1733    2.4921   19.6026 C   0  0  0  0  0  0  0  0  0  0  0  0
    3.4474    0.9977   19.3801 C   0  0  0  0  0  0  0  0  0  0  0  0
    3.1439    1.9112   18.1990 C   0  0  0  0  0  0  0  0  0  0  0  0
   -0.2439    6.3957   19.5093 N   0  0  0  0  0  0  0  0  0  0  0  0
   -0.9852    6.6709   20.0960 H   0  0  0  0  0  0  0  0  0  0  0  0
   -0.5379    5.6791   18.2658 C   0  0  0  0  0  0  0  0  0  0  0  0
   -0.7723    6.7157   17.1656 C   0  0  0  0  0  0  0  0  0  0  0  0
   -1.0597    6.0087   15.8255 C   0  0  0  0  0  0  0  0  0  0  0  0
    0.6333    4.7507   17.8655 C   0  0  0  0  0  0  0  0  0  0  0  0
    0.4156    4.0653   16.4988 C   0  0  0  0  0  0  0  0  0  0  0  0
    0.1177    5.1091   15.4019 C   0  0  0  0  0  0  0  0  0  0  0  0
   -0.2115    4.4203   14.1300 N   0  0  0  0  0  0  0  0  0  0  0  0
   -1.0388    3.8386   14.2626 H   0  0  0  0  0  0  0  0  0  0  0  0
    0.5742    3.8344   13.8474 H   0  0  0  0  0  0  0  0  0  0  0  0
   -0.3961    5.1141   13.4055 H   0  0  0  0  0  0  0  0  0  0  0  0
 26 25  1  0  0  0
 25 22  1  0  0  0
 25 24  1  0  0  0
 22 21  1  0  0  0
 21 20  1  0  0  0
 24 23  1  0  0  0
 23 20  1  0  0  0
 20 18  1  0  0  0
 18  7  1  0  0  0
  7  4  2  0  0  0
  7  6  1  0  0  0
  4  3  1  0  0  0
  6  5  2  0  0  0
  3  2  2  0  0  0
 14 15  1  0  0  0
 14 13  1  0  0  0
 16 15  1  0  0  0
 16 17  1  0  0  0
  5  2  1  0  0  0
  5  8  1  0  0  0
 15 17  1  0  0  0
  2  1  1  0  0  0
 13  8  2  0  0  0
 13 11  1  0  0  0
  8  9  1  0  0  0
 11 12  1  0  0  0
 11 10  1  0  0  0
  9 10  2  0  0  0
 18 19  1  0  0  0
 26 27  1  0  0  0
 26 28  1  0  0  0
 26 29  1  0  0  0
M  CHG 1  26   1
M  END
> <minimizedAffinity>
-8.07596

$$$$
6GZM_LCI_A_1004


 29 32  0  0  0  0  0  0  0  0999 V2000
    1.9524    7.1981   24.9723 F   0  0  0  0  0  0  0  0  0  0  0  0
    2.4675    6.6707   23.8779 C   0  0  0  0  0  0  0  0  0  0  0  0
    3.4484    5.7108   24.0406 C   0  0  0  0  0  0  0  0  0  0  0  0
    4.0648    5.0759   22.9728 N   0  0  0  0  0  0  0  0  0  0  0  0
    2.0526    7.0614   22.6158 C   0  0  0  0  0  0  0  0  0  0  0  0
    2.6496    6.4062   21.5464 N   0  0  0  0  0  0  0  0  0  0  0  0
    3.6237    5.4380   21.7089 C   0  0  0  0  0  0  0  0  0  0  0  0
    0.9467    8.0155   22.3526 C   0  0  0  0  0  0  0  0  0  0  0  0
    0.8260    9.2983   22.8879 C   0  0  0  0  0  0  0  0  0  0  0  0
   -0.3504    9.7807   22.4828 N   0  0  0  0  0  0  0  0  0  0  0  0
   -0.9490    8.9475   21.7712 N   0  0  0  0  0  0  0  0  0  0  0  0
   -2.2705    9.2651   21.2089 C   0  0  0  0  0  0  0  0  0  0  0  0
   -0.2241    7.8147   21.6424 C   0  0  0  0  0  0  0  0  0  0  0  0
   -0.6812    6.5747   20.8578 C   0  0  0  0  0  0  0  0  0  0  0  0
   -0.2600    6.7298   19.3842 C   0  0  0  0  0  0  0  0  0  0  0  0
   -1.2129    6.0113   18.4178 C   0  0  0  0  0  0  0  0  0  0  0  0
    0.1205    5.3803   18.7992 C   0  0  0  0  0  0  0  0  0  0  0  0
    4.1841    4.7990   20.6076 N   0  0  0  0  0  0  0  0  0  0  0  0
    5.0418    5.1202   20.2466 H   0  0  0  0  0  0  0  0  0  0  0  0
    3.5198    3.6562   19.9759 C   0  0  0  0  0  0  0  0  0  0  0  0
    3.4489    3.9219   18.4711 C   0  0  0  0  0  0  0  0  0  0  0  0
    2.7801    2.7311   17.7548 C   0  0  0  0  0  0  0  0  0  0  0  0
    4.2967    2.3439   20.2368 C   0  0  0  0  0  0  0  0  0  0  0  0
    3.6964    1.1325   19.4903 C   0  0  0  0  0  0  0  0  0  0  0  0
    3.5681    1.4261   17.9807 C   0  0  0  0  0  0  0  0  0  0  0  0
    2.8747    0.3004   17.3079 N   0  0  0  0  0  0  0  0  0  0  0  0
    1.9400    0.1927   17.7017 H   0  0  0  0  0  0  0  0  0  0  0  0
    3.4048   -0.5593   17.4504 H   0  0  0  0  0  0  0  0  0  0  0  0
    2.8026    0.4937   16.3090 H   0  0  0  0  0  0  0  0  0  0  0  0
 26 25  1  0  0  0
 25 22  1  0  0  0
 25 24  1  0  0  0
 22 21  1  0  0  0
 21 20  1  0  0  0
 24 23  1  0  0  0
 23 20  1  0  0  0
 20 18  1  0  0  0
 18  7  1  0  0  0
  7  4  2  0  0  0
  7  6  1  0  0  0
  4  3  1  0  0  0
  6  5  2  0  0  0
  3  2  2  0  0  0
 14 15  1  0  0  0
 14 13  1  0  0  0
 16 15  1  0  0  0
 16 17  1  0  0  0
  5  2  1  0  0  0
  5  8  1  0  0  0
 15 17  1  0  0  0
  2  1  1  0  0  0
 13  8  2  0  0  0
 13 11  1  0  0  0
  8  9  1  0  0  0
 11 12  1  0  0  0
 11 10  1  0  0  0
  9 10  2  0  0  0
 18 19  1  0  0  0
 26 27  1  0  0  0
 26 28  1  0  0  0
 26 29  1  0  0  0
M  CHG 1  26   1
M  END
> <minimizedAffinity>
-7.99839

$$$$
6GZM_LCI_A_1004


 29 32  0  0  0  0  0  0  0  0999 V2000
    1.6434    9.3104   22.1437 F   0  0  0  0  0  0  0  0  0  0  0  0
    0.8170    8.5619   21.4380 C   0  0  0  0  0  0  0  0  0  0  0  0
   -0.1243    9.2157   20.6657 C   0  0  0  0  0  0  0  0  0  0  0  0
   -1.0455    8.5460   19.8744 N   0  0  0  0  0  0  0  0  0  0  0  0
    0.8798    7.1789   21.4692 C   0  0  0  0  0  0  0  0  0  0  0  0
   -0.0243    6.5078   20.6558 N   0  0  0  0  0  0  0  0  0  0  0  0
   -0.9595    7.1619   19.8745 C   0  0  0  0  0  0  0  0  0  0  0  0
    1.9124    6.4007   22.1976 C   0  0  0  0  0  0  0  0  0  0  0  0
    2.0006    6.2503   23.5819 C   0  0  0  0  0  0  0  0  0  0  0  0
    3.1190    5.5656   23.8292 N   0  0  0  0  0  0  0  0  0  0  0  0
    3.7113    5.2864   22.7660 N   0  0  0  0  0  0  0  0  0  0  0  0
    4.9722    4.5299   22.7955 C   0  0  0  0  0  0  0  0  0  0  0  0
    3.0408    5.7735   21.6990 C   0  0  0  0  0  0  0  0  0  0  0  0
    3.5089    5.6356   20.2415 C   0  0  0  0  0  0  0  0  0  0  0  0
    2.9094    4.3498   19.6414 C   0  0  0  0  0  0  0  0  0  0  0  0
    3.9842    3.3425   19.2075 C   0  0  0  0  0  0  0  0  0  0  0  0
    3.2905    4.2237   18.1761 C   0  0  0  0  0  0  0  0  0  0  0  0
   -1.8366    6.4475   19.0648 N   0  0  0  0  0  0  0  0  0  0  0  0
   -2.7361    6.2293   19.4005 H   0  0  0  0  0  0  0  0  0  0  0  0
   -1.4449    6.0143   17.7213 C   0  0  0  0  0  0  0  0  0  0  0  0
   -0.8205    7.2106   17.0009 C   0  0  0  0  0  0  0  0  0  0  0  0
   -0.3649    6.7974   15.5866 C   0  0  0  0  0  0  0  0  0  0  0  0
   -0.4241    4.8533   17.7839 C   0  0  0  0  0  0  0  0  0  0  0  0
    0.1057    4.4443   16.3920 C   0  0  0  0  0  0  0  0  0  0  0  0
    0.6790    5.6651   15.6419 C   0  0  0  0  0  0  0  0  0  0  0  0
    1.0639    5.2720   14.2643 N   0  0  0  0  0  0  0  0  0  0  0  0
    0.2408    4.9366   13.7639 H   0  0  0  0  0  0  0  0  0  0  0  0
    1.7628    4.5302   14.3051 H   0  0  0  0  0  0  0  0  0  0  0  0
    1.4528    6.0790   13.7766 H   0  0  0  0  0  0  0  0  0  0  0  0
 26 25  1  0  0  0
 25 22  1  0  0  0
 25 24  1  0  0  0
 22 21  1  0  0  0
 21 20  1  0  0  0
 24 23  1  0  0  0
 23 20  1  0  0  0
 20 18  1  0  0  0
 18  7  1  0  0  0
  7  4  2  0  0  0
  7  6  1  0  0  0
  4  3  1  0  0  0
  6  5  2  0  0  0
  3  2  2  0  0  0
 14 15  1  0  0  0
 14 13  1  0  0  0
 16 15  1  0  0  0
 16 17  1  0  0  0
  5  2  1  0  0  0
  5  8  1  0  0  0
 15 17  1  0  0  0
  2  1  1  0  0  0
 13  8  2  0  0  0
 13 11  1  0  0  0
  8  9  1  0  0  0
 11 12  1  0  0  0
 11 10  1  0  0  0
  9 10  2  0  0  0
 18 19  1  0  0  0
 26 27  1  0  0  0
 26 28  1  0  0  0
 26 29  1  0  0  0
M  CHG 1  26   1
M  END
> <minimizedAffinity>
-7.85095

$$$$
6GZM_LCI_A_1004


 29 32  0  0  0  0  0  0  0  0999 V2000
    1.4770    5.0784   14.1043 F   0  0  0  0  0  0  0  0  0  0  0  0
    0.7647    5.6428   15.0609 C   0  0  0  0  0  0  0  0  0  0  0  0
   -0.0922    6.6626   14.6925 C   0  0  0  0  0  0  0  0  0  0  0  0
   -0.8993    7.3325   15.5997 N   0  0  0  0  0  0  0  0  0  0  0  0
    0.8699    5.2402   16.3817 C   0  0  0  0  0  0  0  0  0  0  0  0
    0.0417    5.8917   17.2868 N   0  0  0  0  0  0  0  0  0  0  0  0
   -0.8237    6.9051   16.9168 C   0  0  0  0  0  0  0  0  0  0  0  0
    1.6945    4.0982   16.8491 C   0  0  0  0  0  0  0  0  0  0  0  0
    1.5562    2.7691   16.4480 C   0  0  0  0  0  0  0  0  0  0  0  0
    2.4177    2.0517   17.1720 N   0  0  0  0  0  0  0  0  0  0  0  0
    3.0551    2.7852   17.9561 N   0  0  0  0  0  0  0  0  0  0  0  0
    4.0660    2.2087   18.8555 C   0  0  0  0  0  0  0  0  0  0  0  0
    2.6663    4.0734   17.8341 C   0  0  0  0  0  0  0  0  0  0  0  0
    3.2262    5.2333   18.6727 C   0  0  0  0  0  0  0  0  0  0  0  0
    2.4520    5.3107   20.0022 C   0  0  0  0  0  0  0  0  0  0  0  0
    2.3582    6.7423   20.5498 C   0  0  0  0  0  0  0  0  0  0  0  0
    3.3727    5.7610   21.1237 C   0  0  0  0  0  0  0  0  0  0  0  0
   -1.6444    7.5199   17.8568 N   0  0  0  0  0  0  0  0  0  0  0  0
   -2.6219    7.4782   17.7467 H   0  0  0  0  0  0  0  0  0  0  0  0
   -1.0792    8.2285   19.0078 C   0  0  0  0  0  0  0  0  0  0  0  0
   -1.6370    9.6529   19.0079 C   0  0  0  0  0  0  0  0  0  0  0  0
   -1.0915   10.4344   20.2204 C   0  0  0  0  0  0  0  0  0  0  0  0
   -1.4497    7.5242   20.3347 C   0  0  0  0  0  0  0  0  0  0  0  0
   -0.9740    8.3030   21.5807 C   0  0  0  0  0  0  0  0  0  0  0  0
   -1.4866    9.7582   21.5477 C   0  0  0  0  0  0  0  0  0  0  0  0
   -0.9138   10.5177   22.6859 N   0  0  0  0  0  0  0  0  0  0  0  0
    0.1034   10.5266   22.6112 H   0  0  0  0  0  0  0  0  0  0  0  0
   -1.1864   10.0736   23.5627 H   0  0  0  0  0  0  0  0  0  0  0  0
   -1.2644   11.4754   22.6664 H   0  0  0  0  0  0  0  0  0  0  0  0
 26 25  1  0  0  0
 25 22  1  0  0  0
 25 24  1  0  0  0
 22 21  1  0  0  0
 21 20  1  0  0  0
 24 23  1  0  0  0
 23 20  1  0  0  0
 20 18  1  0  0  0
 18  7  1  0  0  0
  7  4  2  0  0  0
  7  6  1  0  0  0
  4  3  1  0  0  0
  6  5  2  0  0  0
  3  2  2  0  0  0
 14 15  1  0  0  0
 14 13  1  0  0  0
 16 15  1  0  0  0
 16 17  1  0  0  0
  5  2  1  0  0  0
  5  8  1  0  0  0
 15 17  1  0  0  0
  2  1  1  0  0  0
 13  8  2  0  0  0
 13 11  1  0  0  0
  8  9  1  0  0  0
 11 12  1  0  0  0
 11 10  1  0  0  0
  9 10  2  0  0  0
 18 19  1  0  0  0
 26 27  1  0  0  0
 26 28  1  0  0  0
 26 29  1  0  0  0
M  CHG 1  26   1
M  END
> <minimizedAffinity>
-7.78430

$$$$
6GZM_LCI_A_1004


 29 32  0  0  0  0  0  0  0  0999 V2000
   -2.0324    6.3478   16.6636 F   0  0  0  0  0  0  0  0  0  0  0  0
   -0.7954    6.0714   17.0304 C   0  0  0  0  0  0  0  0  0  0  0  0
   -0.6202    5.0427   17.9365 C   0  0  0  0  0  0  0  0  0  0  0  0
    0.6275    4.6496   18.3971 N   0  0  0  0  0  0  0  0  0  0  0  0
    0.2865    6.7814   16.5375 C   0  0  0  0  0  0  0  0  0  0  0  0
    1.5384    6.3703   16.9770 N   0  0  0  0  0  0  0  0  0  0  0  0
    1.7150    5.3339   17.8756 C   0  0  0  0  0  0  0  0  0  0  0  0
    0.1961    7.8366   15.4978 C   0  0  0  0  0  0  0  0  0  0  0  0
   -0.2290    9.1503   15.6980 C   0  0  0  0  0  0  0  0  0  0  0  0
   -0.2570    9.7378   14.5001 N   0  0  0  0  0  0  0  0  0  0  0  0
    0.0989    8.9404   13.6076 N   0  0  0  0  0  0  0  0  0  0  0  0
    0.1464    9.3722   12.2024 C   0  0  0  0  0  0  0  0  0  0  0  0
    0.3909    7.7298   14.1318 C   0  0  0  0  0  0  0  0  0  0  0  0
    0.8314    6.5094   13.3080 C   0  0  0  0  0  0  0  0  0  0  0  0
   -0.3329    6.0699   12.4001 C   0  0  0  0  0  0  0  0  0  0  0  0
   -0.5191    4.5459   12.3727 C   0  0  0  0  0  0  0  0  0  0  0  0
    0.1899    5.2578   11.2273 C   0  0  0  0  0  0  0  0  0  0  0  0
    2.9899    4.9483   18.2772 N   0  0  0  0  0  0  0  0  0  0  0  0
    3.7737    5.2774   17.7806 H   0  0  0  0  0  0  0  0  0  0  0  0
    3.1862    4.0611   19.4263 C   0  0  0  0  0  0  0  0  0  0  0  0
    3.9102    2.8054   18.9371 C   0  0  0  0  0  0  0  0  0  0  0  0
    4.1657    1.8481   20.1190 C   0  0  0  0  0  0  0  0  0  0  0  0
    4.0260    4.7505   20.5277 C   0  0  0  0  0  0  0  0  0  0  0  0
    4.3573    3.8099   21.7070 C   0  0  0  0  0  0  0  0  0  0  0  0
    5.0318    2.5159   21.2048 C   0  0  0  0  0  0  0  0  0  0  0  0
    5.2241    1.5781   22.3380 N   0  0  0  0  0  0  0  0  0  0  0  0
    4.3174    1.3405   22.7403 H   0  0  0  0  0  0  0  0  0  0  0  0
    5.8066    2.0195   23.0495 H   0  0  0  0  0  0  0  0  0  0  0  0
    5.6805    0.7295   22.0033 H   0  0  0  0  0  0  0  0  0  0  0  0
 26 25  1  0  0  0
 25 22  1  0  0  0
 25 24  1  0  0  0
 22 21  1  0  0  0
 21 20  1  0  0  0
 24 23  1  0  0  0
 23 20  1  0  0  0
 20 18  1  0  0  0
 18  7  1  0  0  0
  7  4  2  0  0  0
  7  6  1  0  0  0
  4  3  1  0  0  0
  6  5  2  0  0  0
  3  2  2  0  0  0
 14 15  1  0  0  0
 14 13  1  0  0  0
 16 15  1  0  0  0
 16 17  1  0  0  0
  5  2  1  0  0  0
  5  8  1  0  0  0
 15 17  1  0  0  0
  2  1  1  0  0  0
 13  8  2  0  0  0
 13 11  1  0  0  0
  8  9  1  0  0  0
 11 12  1  0  0  0
 11 10  1  0  0  0
  9 10  2  0  0  0
 18 19  1  0  0  0
 26 27  1  0  0  0
 26 28  1  0  0  0
 26 29  1  0  0  0
M  CHG 1  26   1
M  END
> <minimizedAffinity>
-7.64898

$$$$
6GZM_LCI_A_1004


 29 32  0  0  0  0  0  0  0  0999 V2000
    5.6090    2.5079   21.8450 F   0  0  0  0  0  0  0  0  0  0  0  0
    4.8788    3.6052   21.7830 C   0  0  0  0  0  0  0  0  0  0  0  0
    5.1627    4.6051   22.6938 C   0  0  0  0  0  0  0  0  0  0  0  0
    4.4737    5.8081   22.7301 N   0  0  0  0  0  0  0  0  0  0  0  0
    3.8650    3.7540   20.8515 C   0  0  0  0  0  0  0  0  0  0  0  0
    3.1929    4.9695   20.8690 N   0  0  0  0  0  0  0  0  0  0  0  0
    3.4837    5.9746   21.7735 C   0  0  0  0  0  0  0  0  0  0  0  0
    3.5542    2.7716   19.7834 C   0  0  0  0  0  0  0  0  0  0  0  0
    3.6745    1.3853   19.8846 C   0  0  0  0  0  0  0  0  0  0  0  0
    3.3943    0.8808   18.6814 N   0  0  0  0  0  0  0  0  0  0  0  0
    3.1205    1.7916   17.8724 N   0  0  0  0  0  0  0  0  0  0  0  0
    2.7765    1.4683   16.4794 C   0  0  0  0  0  0  0  0  0  0  0  0
    3.2036    3.0030   18.4647 C   0  0  0  0  0  0  0  0  0  0  0  0
    2.9598    4.3401   17.7470 C   0  0  0  0  0  0  0  0  0  0  0  0
    1.4820    4.4178   17.3191 C   0  0  0  0  0  0  0  0  0  0  0  0
    0.9528    5.8587   17.2784 C   0  0  0  0  0  0  0  0  0  0  0  0
    0.6299    4.9506   18.4585 C   0  0  0  0  0  0  0  0  0  0  0  0
    2.7922    7.1814   21.7444 N   0  0  0  0  0  0  0  0  0  0  0  0
    3.2326    7.9993   22.0705 H   0  0  0  0  0  0  0  0  0  0  0  0
    1.4199    7.2561   21.2370 C   0  0  0  0  0  0  0  0  0  0  0  0
    0.4824    7.4409   22.4316 C   0  0  0  0  0  0  0  0  0  0  0  0
   -0.9771    7.5530   21.9461 C   0  0  0  0  0  0  0  0  0  0  0  0
    1.2509    8.4393   20.2546 C   0  0  0  0  0  0  0  0  0  0  0  0
   -0.2088    8.6270   19.7866 C   0  0  0  0  0  0  0  0  0  0  0  0
   -1.1613    8.7511   20.9944 C   0  0  0  0  0  0  0  0  0  0  0  0
   -2.5665    8.8030   20.5219 N   0  0  0  0  0  0  0  0  0  0  0  0
   -2.7873    7.9448   20.0169 H   0  0  0  0  0  0  0  0  0  0  0  0
   -2.6871    9.6034   19.9012 H   0  0  0  0  0  0  0  0  0  0  0  0
   -3.1913    8.8967   21.3227 H   0  0  0  0  0  0  0  0  0  0  0  0
 26 25  1  0  0  0
 25 22  1  0  0  0
 25 24  1  0  0  0
 22 21  1  0  0  0
 21 20  1  0  0  0
 24 23  1  0  0  0
 23 20  1  0  0  0
 20 18  1  0  0  0
 18  7  1  0  0  0
  7  4  2  0  0  0
  7  6  1  0  0  0
  4  3  1  0  0  0
  6  5  2  0  0  0
  3  2  2  0  0  0
 14 15  1  0  0  0
 14 13  1  0  0  0
 16 15  1  0  0  0
 16 17  1  0  0  0
  5  2  1  0  0  0
  5  8  1  0  0  0
 15 17  1  0  0  0
  2  1  1  0  0  0
 13  8  2  0  0  0
 13 11  1  0  0  0
  8  9  1  0  0  0
 11 12  1  0  0  0
 11 10  1  0  0  0
  9 10  2  0  0  0
 18 19  1  0  0  0
 26 27  1  0  0  0
 26 28  1  0  0  0
 26 29  1  0  0  0
M  CHG 1  26   1
M  END
> <minimizedAffinity>
-7.64484

$$$$
6GZM_LCI_A_1004


 29 32  0  0  0  0  0  0  0  0999 V2000
   -1.1103    7.2178   22.2746 F   0  0  0  0  0  0  0  0  0  0  0  0
   -0.6279    7.3716   21.0561 C   0  0  0  0  0  0  0  0  0  0  0  0
   -1.4542    7.9634   20.1196 C   0  0  0  0  0  0  0  0  0  0  0  0
   -1.0655    8.1876   18.8074 N   0  0  0  0  0  0  0  0  0  0  0  0
    0.6493    6.9549   20.7202 C   0  0  0  0  0  0  0  0  0  0  0  0
    1.0494    7.2042   19.4136 N   0  0  0  0  0  0  0  0  0  0  0  0
    0.2266    7.8060   18.4789 C   0  0  0  0  0  0  0  0  0  0  0  0
    1.6308    6.3949   21.6822 C   0  0  0  0  0  0  0  0  0  0  0  0
    1.5676    6.4994   23.0720 C   0  0  0  0  0  0  0  0  0  0  0  0
    2.6845    5.9519   23.5554 N   0  0  0  0  0  0  0  0  0  0  0  0
    3.4084    5.5319   22.6288 N   0  0  0  0  0  0  0  0  0  0  0  0
    4.6954    4.8856   22.9273 C   0  0  0  0  0  0  0  0  0  0  0  0
    2.8401    5.7722   21.4269 C   0  0  0  0  0  0  0  0  0  0  0  0
    3.4786    5.4119   20.0760 C   0  0  0  0  0  0  0  0  0  0  0  0
    3.0032    4.0086   19.6545 C   0  0  0  0  0  0  0  0  0  0  0  0
    4.1627    3.0899   19.2431 C   0  0  0  0  0  0  0  0  0  0  0  0
    3.3028    3.7693   18.1845 C   0  0  0  0  0  0  0  0  0  0  0  0
    0.6757    8.0476   17.1846 N   0  0  0  0  0  0  0  0  0  0  0  0
    1.3609    8.7377   17.0313 H   0  0  0  0  0  0  0  0  0  0  0  0
    0.1466    7.2929   16.0459 C   0  0  0  0  0  0  0  0  0  0  0  0
    0.6246    7.9744   14.7625 C   0  0  0  0  0  0  0  0  0  0  0  0
    0.1150    7.1990   13.5306 C   0  0  0  0  0  0  0  0  0  0  0  0
    0.6382    5.8260   16.0707 C   0  0  0  0  0  0  0  0  0  0  0  0
    0.2006    5.0253   14.8247 C   0  0  0  0  0  0  0  0  0  0  0  0
    0.6298    5.7464   13.5296 C   0  0  0  0  0  0  0  0  0  0  0  0
    0.0895    5.0252   12.3513 N   0  0  0  0  0  0  0  0  0  0  0  0
   -0.9294    5.0132   12.3978 H   0  0  0  0  0  0  0  0  0  0  0  0
    0.4410    4.0677   12.3481 H   0  0  0  0  0  0  0  0  0  0  0  0
    0.3853    5.4988   11.4977 H   0  0  0  0  0  0  0  0  0  0  0  0
 26 25  1  0  0  0
 25 22  1  0  0  0
 25 24  1  0  0  0
 22 21  1  0  0  0
 21 20  1  0  0  0
 24 23  1  0  0  0
 23 20  1  0  0  0
 20 18  1  0  0  0
 18  7  1  0  0  0
  7  4  2  0  0  0
  7  6  1  0  0  0
  4  3  1  0  0  0
  6  5  2  0  0  0
  3  2  2  0  0  0
 14 15  1  0  0  0
 14 13  1  0  0  0
 16 15  1  0  0  0
 16 17  1  0  0  0
  5  2  1  0  0  0
  5  8  1  0  0  0
 15 17  1  0  0  0
  2  1  1  0  0  0
 13  8  2  0  0  0
 13 11  1  0  0  0
  8  9  1  0  0  0
 11 12  1  0  0  0
 11 10  1  0  0  0
  9 10  2  0  0  0
 18 19  1  0  0  0
 26 27  1  0  0  0
 26 28  1  0  0  0
 26 29  1  0  0  0
M  CHG 1  26   1
M  END
> <minimizedAffinity>
-7.57863

$$$$
6GZM_LCI_A_1004


 29 32  0  0  0  0  0  0  0  0999 V2000
   -1.0763    5.6758   16.7107 F   0  0  0  0  0  0  0  0  0  0  0  0
   -0.1335    6.3120   17.3796 C   0  0  0  0  0  0  0  0  0  0  0  0
   -0.4576    7.5472   17.9077 C   0  0  0  0  0  0  0  0  0  0  0  0
    0.4400    8.3138   18.6357 N   0  0  0  0  0  0  0  0  0  0  0  0
    1.1319    5.7741   17.5448 C   0  0  0  0  0  0  0  0  0  0  0  0
    2.0229    6.5285   18.2973 N   0  0  0  0  0  0  0  0  0  0  0  0
    1.6957    7.7600   18.8350 C   0  0  0  0  0  0  0  0  0  0  0  0
    1.5355    4.4202   17.0901 C   0  0  0  0  0  0  0  0  0  0  0  0
    1.3159    3.8823   15.8217 C   0  0  0  0  0  0  0  0  0  0  0  0
    1.7389    2.6171   15.8562 N   0  0  0  0  0  0  0  0  0  0  0  0
    2.1850    2.3303   16.9866 N   0  0  0  0  0  0  0  0  0  0  0  0
    2.7102    0.9834   17.2574 C   0  0  0  0  0  0  0  0  0  0  0  0
    2.0905    3.3864   17.8239 C   0  0  0  0  0  0  0  0  0  0  0  0
    2.5200    3.3668   19.2995 C   0  0  0  0  0  0  0  0  0  0  0  0
    4.0564    3.4492   19.3762 C   0  0  0  0  0  0  0  0  0  0  0  0
    4.6996    2.1210   19.8006 C   0  0  0  0  0  0  0  0  0  0  0  0
    4.5248    3.2509   20.8078 C   0  0  0  0  0  0  0  0  0  0  0  0
    2.6175    8.4741   19.5936 N   0  0  0  0  0  0  0  0  0  0  0  0
    3.0559    9.2647   19.2038 H   0  0  0  0  0  0  0  0  0  0  0  0
    2.9471    8.0698   20.9626 C   0  0  0  0  0  0  0  0  0  0  0  0
    1.6683    7.5545   21.6254 C   0  0  0  0  0  0  0  0  0  0  0  0
    1.9691    7.0893   23.0647 C   0  0  0  0  0  0  0  0  0  0  0  0
    4.0234    6.9584   20.9734 C   0  0  0  0  0  0  0  0  0  0  0  0
    4.3152    6.4192   22.3908 C   0  0  0  0  0  0  0  0  0  0  0  0
    3.0147    5.9572   23.0814 C   0  0  0  0  0  0  0  0  0  0  0  0
    3.3032    5.5635   24.4822 N   0  0  0  0  0  0  0  0  0  0  0  0
    3.6775    6.3648   24.9904 H   0  0  0  0  0  0  0  0  0  0  0  0
    3.9872    4.8069   24.4888 H   0  0  0  0  0  0  0  0  0  0  0  0
    2.4431    5.2481   24.9307 H   0  0  0  0  0  0  0  0  0  0  0  0
 26 25  1  0  0  0
 25 22  1  0  0  0
 25 24  1  0  0  0
 22 21  1  0  0  0
 21 20  1  0  0  0
 24 23  1  0  0  0
 23 20  1  0  0  0
 20 18  1  0  0  0
 18  7  1  0  0  0
  7  4  2  0  0  0
  7  6  1  0  0  0
  4  3  1  0  0  0
  6  5  2  0  0  0
  3  2  2  0  0  0
 14 15  1  0  0  0
 14 13  1  0  0  0
 16 15  1  0  0  0
 16 17  1  0  0  0
  5  2  1  0  0  0
  5  8  1  0  0  0
 15 17  1  0  0  0
  2  1  1  0  0  0
 13  8  2  0  0  0
 13 11  1  0  0  0
  8  9  1  0  0  0
 11 12  1  0  0  0
 11 10  1  0  0  0
  9 10  2  0  0  0
 18 19  1  0  0  0
 26 27  1  0  0  0
 26 28  1  0  0  0
 26 29  1  0  0  0
M  CHG 1  26   1
M  END
> <minimizedAffinity>
-7.50113

$$$$
