1V7A_FRC_A_1001


 28 30  0  0  0  0  0  0  0  0999 V2000
   47.9007   49.5123   16.6972 C   0  0  0  0  0  0  0  0  0  0  0  0
   49.7558   49.7188   18.4926 C   0  0  0  0  0  0  0  0  0  0  0  0
   48.5434   49.1270   17.9317 N   0  0  0  0  0  0  0  0  0  0  0  0
   48.1836   48.0916   18.6928 C   0  0  0  0  0  0  0  0  0  0  0  0
   48.9597   48.0005   19.7887 N   0  0  0  0  0  0  0  0  0  0  0  0
   50.0551   48.9720   19.5667 C   0  0  0  0  0  0  0  0  0  0  0  0
   51.2921   49.0737   20.3865 C   0  0  0  0  0  0  0  0  0  0  0  0
   51.3613   49.7616   21.3921 O   0  0  0  0  0  0  0  0  0  0  0  0
   52.3329   48.3562   19.9949 N   0  0  0  0  0  0  0  0  0  0  0  0
   52.2719   47.8029   19.1829 H   0  0  0  0  0  0  0  0  0  0  0  0
   53.1682   48.3757   20.5157 H   0  0  0  0  0  0  0  0  0  0  0  0
   48.0063   48.3959   15.6308 C   0  0  0  0  0  0  0  0  0  0  0  0
   46.7217   47.9483   15.0608 O   0  0  0  0  0  0  0  0  0  0  0  0
   49.1810   48.7130   14.6608 C   0  0  0  0  0  0  0  0  0  0  0  0
   46.3114   48.6802   14.5740 H   0  0  0  0  0  0  0  0  0  0  0  0
   46.4880   50.0388   16.9223 C   0  0  0  0  0  0  0  0  0  0  0  0
   46.4035   51.5039   16.4515 C   0  0  0  0  0  0  0  0  0  0  0  0
   47.6384   52.1667   16.5920 O   0  0  0  0  0  0  0  0  0  0  0  0
   47.3713   57.2723   20.4589 C   0  0  0  0  0  0  0  0  0  0  0  0
   47.9357   56.0001   20.6250 C   0  0  0  0  0  0  0  0  0  0  0  0
   47.9070   55.0953   19.5576 C   0  0  0  0  0  0  0  0  0  0  0  0
   47.2191   55.4267   18.3686 C   0  0  0  0  0  0  0  0  0  0  0  0
   46.6739   56.7090   18.2137 C   0  0  0  0  0  0  0  0  0  0  0  0
   46.7290   57.6250   19.2684 C   0  0  0  0  0  0  0  0  0  0  0  0
   48.4430   53.8157   19.7484 C   0  0  0  0  0  0  0  0  0  0  0  0
   48.3293   52.8950   18.7055 C   0  0  0  0  0  0  0  0  0  0  0  0
   47.6711   53.2045   17.5087 C   0  0  0  0  0  0  0  0  0  0  0  0
   47.1263   54.4963   17.3205 C   0  0  0  0  0  0  0  0  0  0  0  0
  2  3  1  0  0  0
  2  6  2  0  0  0
  3  4  1  0  0  0
  3  1  1  0  0  0
  4  5  2  0  0  0
  5  6  1  0  0  0
  6  7  1  0  0  0
  7  8  2  0  0  0
  7  9  1  0  0  0
  1 12  1  0  0  0
  1 16  1  0  0  0
 12 13  1  0  0  0
 12 14  1  0  0  0
 16 17  1  0  0  0
 17 18  1  0  0  0
 18 27  1  0  0  0
 19 20  2  0  0  0
 19 24  1  0  0  0
 20 21  1  0  0  0
 21 22  2  0  0  0
 21 25  1  0  0  0
 22 23  1  0  0  0
 22 28  1  0  0  0
 23 24  2  0  0  0
 25 26  2  0  0  0
 26 27  1  0  0  0
 27 28  2  0  0  0
  9 10  1  0  0  0
  9 11  1  0  0  0
 13 15  1  0  0  0
M  END
> <minimizedAffinity>
-9.18328

$$$$
1V7A_FRC_A_1001


 28 30  0  0  0  0  0  0  0  0999 V2000
   50.0509   49.6438   19.0824 C   0  0  0  0  0  0  0  0  0  0  0  0
   48.5257   49.5176   16.9930 C   0  0  0  0  0  0  0  0  0  0  0  0
   48.9902   49.0551   18.2988 N   0  0  0  0  0  0  0  0  0  0  0  0
   48.1980   48.0610   18.7050 C   0  0  0  0  0  0  0  0  0  0  0  0
   47.3190   47.7166   17.7457 N   0  0  0  0  0  0  0  0  0  0  0  0
   47.4541   48.7625   16.7061 C   0  0  0  0  0  0  0  0  0  0  0  0
   46.5309   48.9541   15.5555 C   0  0  0  0  0  0  0  0  0  0  0  0
   45.5081   48.3032   15.4161 O   0  0  0  0  0  0  0  0  0  0  0  0
   46.8490   49.8942   14.6802 N   0  0  0  0  0  0  0  0  0  0  0  0
   47.6753   50.4165   14.7973 H   0  0  0  0  0  0  0  0  0  0  0  0
   46.2595   50.0713   13.9119 H   0  0  0  0  0  0  0  0  0  0  0  0
   50.6072   48.6445   20.1248 C   0  0  0  0  0  0  0  0  0  0  0  0
   52.0354   48.3091   19.9735 O   0  0  0  0  0  0  0  0  0  0  0  0
   50.0762   49.0189   21.5388 C   0  0  0  0  0  0  0  0  0  0  0  0
   52.5717   49.1037   20.1217 H   0  0  0  0  0  0  0  0  0  0  0  0
   51.1134   50.3039   18.2111 C   0  0  0  0  0  0  0  0  0  0  0  0
   51.1867   51.8080   18.5392 C   0  0  0  0  0  0  0  0  0  0  0  0
   50.8066   52.0683   19.8704 O   0  0  0  0  0  0  0  0  0  0  0  0
   47.4421   57.3871   21.0876 C   0  0  0  0  0  0  0  0  0  0  0  0
   47.1995   56.2996   20.2374 C   0  0  0  0  0  0  0  0  0  0  0  0
   48.0926   55.2219   20.2349 C   0  0  0  0  0  0  0  0  0  0  0  0
   49.2788   55.2854   21.0001 C   0  0  0  0  0  0  0  0  0  0  0  0
   49.4977   56.3735   21.8567 C   0  0  0  0  0  0  0  0  0  0  0  0
   48.5905   57.4369   21.8831 C   0  0  0  0  0  0  0  0  0  0  0  0
   47.8573   54.1579   19.3553 C   0  0  0  0  0  0  0  0  0  0  0  0
   48.8019   53.1317   19.3002 C   0  0  0  0  0  0  0  0  0  0  0  0
   49.9758   53.1596   20.0635 C   0  0  0  0  0  0  0  0  0  0  0  0
   50.2131   54.2381   20.9476 C   0  0  0  0  0  0  0  0  0  0  0  0
  2  3  1  0  0  0
  2  6  2  0  0  0
  3  4  1  0  0  0
  3  1  1  0  0  0
  4  5  2  0  0  0
  5  6  1  0  0  0
  6  7  1  0  0  0
  7  8  2  0  0  0
  7  9  1  0  0  0
  1 12  1  0  0  0
  1 16  1  0  0  0
 12 13  1  0  0  0
 12 14  1  0  0  0
 16 17  1  0  0  0
 17 18  1  0  0  0
 18 27  1  0  0  0
 19 20  2  0  0  0
 19 24  1  0  0  0
 20 21  1  0  0  0
 21 22  2  0  0  0
 21 25  1  0  0  0
 22 23  1  0  0  0
 22 28  1  0  0  0
 23 24  2  0  0  0
 25 26  2  0  0  0
 26 27  1  0  0  0
 27 28  2  0  0  0
  9 10  1  0  0  0
  9 11  1  0  0  0
 13 15  1  0  0  0
M  END
> <minimizedAffinity>
-8.89630

$$$$
1V7A_FRC_A_1001


 28 30  0  0  0  0  0  0  0  0999 V2000
   49.6438   51.4798   19.7987 C   0  0  0  0  0  0  0  0  0  0  0  0
   51.0814   50.7358   17.7770 C   0  0  0  0  0  0  0  0  0  0  0  0
   49.8104   51.0128   18.4424 N   0  0  0  0  0  0  0  0  0  0  0  0
   48.8248   50.8696   17.5542 C   0  0  0  0  0  0  0  0  0  0  0  0
   49.2903   50.3973   16.3830 N   0  0  0  0  0  0  0  0  0  0  0  0
   50.7652   50.4539   16.5037 C   0  0  0  0  0  0  0  0  0  0  0  0
   51.7265   50.2593   15.3854 C   0  0  0  0  0  0  0  0  0  0  0  0
   52.0093   51.1474   14.5977 O   0  0  0  0  0  0  0  0  0  0  0  0
   52.2990   49.0704   15.2854 N   0  0  0  0  0  0  0  0  0  0  0  0
   52.0674   48.3573   15.9235 H   0  0  0  0  0  0  0  0  0  0  0  0
   52.9565   48.8990   14.5730 H   0  0  0  0  0  0  0  0  0  0  0  0
   50.4326   50.6034   20.8009 C   0  0  0  0  0  0  0  0  0  0  0  0
   50.6490   51.2078   22.1288 O   0  0  0  0  0  0  0  0  0  0  0  0
   49.9187   49.1366   20.7254 C   0  0  0  0  0  0  0  0  0  0  0  0
   49.7945   51.3329   22.5703 H   0  0  0  0  0  0  0  0  0  0  0  0
   49.9022   52.9764   19.9293 C   0  0  0  0  0  0  0  0  0  0  0  0
   48.5705   53.7418   19.8027 C   0  0  0  0  0  0  0  0  0  0  0  0
   48.6502   54.7672   18.8402 O   0  0  0  0  0  0  0  0  0  0  0  0
   43.6160   58.6077   17.8412 C   0  0  0  0  0  0  0  0  0  0  0  0
   44.1517   58.0511   19.0106 C   0  0  0  0  0  0  0  0  0  0  0  0
   45.3280   57.2967   18.9314 C   0  0  0  0  0  0  0  0  0  0  0  0
   45.9013   57.0118   17.6717 C   0  0  0  0  0  0  0  0  0  0  0  0
   45.3614   57.5896   16.5141 C   0  0  0  0  0  0  0  0  0  0  0  0
   44.2037   58.3690   16.5955 C   0  0  0  0  0  0  0  0  0  0  0  0
   45.8331   56.7170   20.1019 C   0  0  0  0  0  0  0  0  0  0  0  0
   46.9565   55.8956   19.9947 C   0  0  0  0  0  0  0  0  0  0  0  0
   47.5568   55.6138   18.7612 C   0  0  0  0  0  0  0  0  0  0  0  0
   47.0415   56.1969   17.5798 C   0  0  0  0  0  0  0  0  0  0  0  0
  2  3  1  0  0  0
  2  6  2  0  0  0
  3  4  1  0  0  0
  3  1  1  0  0  0
  4  5  2  0  0  0
  5  6  1  0  0  0
  6  7  1  0  0  0
  7  8  2  0  0  0
  7  9  1  0  0  0
  1 12  1  0  0  0
  1 16  1  0  0  0
 12 13  1  0  0  0
 12 14  1  0  0  0
 16 17  1  0  0  0
 17 18  1  0  0  0
 18 27  1  0  0  0
 19 20  2  0  0  0
 19 24  1  0  0  0
 20 21  1  0  0  0
 21 22  2  0  0  0
 21 25  1  0  0  0
 22 23  1  0  0  0
 22 28  1  0  0  0
 23 24  2  0  0  0
 25 26  2  0  0  0
 26 27  1  0  0  0
 27 28  2  0  0  0
  9 10  1  0  0  0
  9 11  1  0  0  0
 13 15  1  0  0  0
M  END
> <minimizedAffinity>
-8.74595

$$$$
1V7A_FRC_A_1001


 28 30  0  0  0  0  0  0  0  0999 V2000
   50.1808   50.3350   19.6008 C   0  0  0  0  0  0  0  0  0  0  0  0
   49.4410   49.5363   17.2509 C   0  0  0  0  0  0  0  0  0  0  0  0
   50.2801   50.3133   18.1602 N   0  0  0  0  0  0  0  0  0  0  0  0
   51.2318   50.9198   17.4480 C   0  0  0  0  0  0  0  0  0  0  0  0
   51.0445   50.7340   16.1282 N   0  0  0  0  0  0  0  0  0  0  0  0
   49.9677   49.7221   16.0307 C   0  0  0  0  0  0  0  0  0  0  0  0
   49.5658   49.0129   14.7864 C   0  0  0  0  0  0  0  0  0  0  0  0
   48.5977   49.3454   14.1220 O   0  0  0  0  0  0  0  0  0  0  0  0
   50.3258   48.0009   14.3996 N   0  0  0  0  0  0  0  0  0  0  0  0
   51.1057   47.7366   14.9393 H   0  0  0  0  0  0  0  0  0  0  0  0
   50.1112   47.5123   13.5723 H   0  0  0  0  0  0  0  0  0  0  0  0
   50.7812   49.0548   20.2296 C   0  0  0  0  0  0  0  0  0  0  0  0
   52.2260   49.1156   20.5197 O   0  0  0  0  0  0  0  0  0  0  0  0
   49.8225   48.5182   21.3317 C   0  0  0  0  0  0  0  0  0  0  0  0
   52.3920   49.7918   21.1951 H   0  0  0  0  0  0  0  0  0  0  0  0
   50.7060   51.6365   20.1956 C   0  0  0  0  0  0  0  0  0  0  0  0
   49.5225   52.4921   20.6881 C   0  0  0  0  0  0  0  0  0  0  0  0
   49.8828   53.8468   20.8259 O   0  0  0  0  0  0  0  0  0  0  0  0
   45.6856   57.7000   17.8885 C   0  0  0  0  0  0  0  0  0  0  0  0
   46.2771   57.7541   19.1580 C   0  0  0  0  0  0  0  0  0  0  0  0
   47.2363   56.7962   19.5061 C   0  0  0  0  0  0  0  0  0  0  0  0
   47.5189   55.7270   18.6265 C   0  0  0  0  0  0  0  0  0  0  0  0
   46.9298   55.6972   17.3547 C   0  0  0  0  0  0  0  0  0  0  0  0
   45.9941   56.6712   16.9938 C   0  0  0  0  0  0  0  0  0  0  0  0
   47.7937   56.8409   20.7901 C   0  0  0  0  0  0  0  0  0  0  0  0
   48.6832   55.8287   21.1542 C   0  0  0  0  0  0  0  0  0  0  0  0
   48.9967   54.7690   20.2940 C   0  0  0  0  0  0  0  0  0  0  0  0
   48.4285   54.7238   18.9993 C   0  0  0  0  0  0  0  0  0  0  0  0
  2  3  1  0  0  0
  2  6  2  0  0  0
  3  4  1  0  0  0
  3  1  1  0  0  0
  4  5  2  0  0  0
  5  6  1  0  0  0
  6  7  1  0  0  0
  7  8  2  0  0  0
  7  9  1  0  0  0
  1 12  1  0  0  0
  1 16  1  0  0  0
 12 13  1  0  0  0
 12 14  1  0  0  0
 16 17  1  0  0  0
 17 18  1  0  0  0
 18 27  1  0  0  0
 19 20  2  0  0  0
 19 24  1  0  0  0
 20 21  1  0  0  0
 21 22  2  0  0  0
 21 25  1  0  0  0
 22 23  1  0  0  0
 22 28  1  0  0  0
 23 24  2  0  0  0
 25 26  2  0  0  0
 26 27  1  0  0  0
 27 28  2  0  0  0
  9 10  1  0  0  0
  9 11  1  0  0  0
 13 15  1  0  0  0
M  END
> <minimizedAffinity>
-8.74061

$$$$
1V7A_FRC_A_1001


 28 30  0  0  0  0  0  0  0  0999 V2000
   49.7280   53.3991   19.1523 C   0  0  0  0  0  0  0  0  0  0  0  0
   51.2180   55.1494   20.3456 C   0  0  0  0  0  0  0  0  0  0  0  0
   49.9697   54.6983   19.7348 N   0  0  0  0  0  0  0  0  0  0  0  0
   49.0468   55.6477   19.9009 C   0  0  0  0  0  0  0  0  0  0  0  0
   49.5805   56.7537   20.4520 N   0  0  0  0  0  0  0  0  0  0  0  0
   50.9480   56.3588   20.8607 C   0  0  0  0  0  0  0  0  0  0  0  0
   51.8523   57.1639   21.7249 C   0  0  0  0  0  0  0  0  0  0  0  0
   51.8963   58.3825   21.6775 O   0  0  0  0  0  0  0  0  0  0  0  0
   52.6073   56.5011   22.5863 N   0  0  0  0  0  0  0  0  0  0  0  0
   52.5680   55.5180   22.6205 H   0  0  0  0  0  0  0  0  0  0  0  0
   53.2083   56.9912   23.1928 H   0  0  0  0  0  0  0  0  0  0  0  0
   50.5535   52.2981   19.8601 C   0  0  0  0  0  0  0  0  0  0  0  0
   49.7921   51.4412   20.7883 O   0  0  0  0  0  0  0  0  0  0  0  0
   51.5055   51.6205   18.8325 C   0  0  0  0  0  0  0  0  0  0  0  0
   49.1298   50.9354   20.2919 H   0  0  0  0  0  0  0  0  0  0  0  0
   48.2404   53.0907   19.0273 C   0  0  0  0  0  0  0  0  0  0  0  0
   47.8751   52.9103   17.5410 C   0  0  0  0  0  0  0  0  0  0  0  0
   48.4122   51.7192   17.0149 O   0  0  0  0  0  0  0  0  0  0  0  0
   44.8980   46.4857   18.1782 C   0  0  0  0  0  0  0  0  0  0  0  0
   46.2043   46.8372   18.5451 C   0  0  0  0  0  0  0  0  0  0  0  0
   46.6911   48.1051   18.2068 C   0  0  0  0  0  0  0  0  0  0  0  0
   45.9103   48.9725   17.4101 C   0  0  0  0  0  0  0  0  0  0  0  0
   44.6002   48.6112   17.0654 C   0  0  0  0  0  0  0  0  0  0  0  0
   44.1015   47.3569   17.4293 C   0  0  0  0  0  0  0  0  0  0  0  0
   48.0097   48.4304   18.5485 C   0  0  0  0  0  0  0  0  0  0  0  0
   48.5106   49.6636   18.1284 C   0  0  0  0  0  0  0  0  0  0  0  0
   47.7508   50.5509   17.3560 C   0  0  0  0  0  0  0  0  0  0  0  0
   46.4207   50.2176   17.0082 C   0  0  0  0  0  0  0  0  0  0  0  0
  2  3  1  0  0  0
  2  6  2  0  0  0
  3  4  1  0  0  0
  3  1  1  0  0  0
  4  5  2  0  0  0
  5  6  1  0  0  0
  6  7  1  0  0  0
  7  8  2  0  0  0
  7  9  1  0  0  0
  1 12  1  0  0  0
  1 16  1  0  0  0
 12 13  1  0  0  0
 12 14  1  0  0  0
 16 17  1  0  0  0
 17 18  1  0  0  0
 18 27  1  0  0  0
 19 20  2  0  0  0
 19 24  1  0  0  0
 20 21  1  0  0  0
 21 22  2  0  0  0
 21 25  1  0  0  0
 22 23  1  0  0  0
 22 28  1  0  0  0
 23 24  2  0  0  0
 25 26  2  0  0  0
 26 27  1  0  0  0
 27 28  2  0  0  0
  9 10  1  0  0  0
  9 11  1  0  0  0
 13 15  1  0  0  0
M  END
> <minimizedAffinity>
-8.66627

$$$$
1V7A_FRC_A_1001


 28 30  0  0  0  0  0  0  0  0999 V2000
   48.1860   50.0452   16.5894 C   0  0  0  0  0  0  0  0  0  0  0  0
   49.7020   49.9139   18.6852 C   0  0  0  0  0  0  0  0  0  0  0  0
   48.6445   49.4185   17.8071 N   0  0  0  0  0  0  0  0  0  0  0  0
   48.2420   48.2277   18.2551 C   0  0  0  0  0  0  0  0  0  0  0  0
   48.8328   47.9232   19.4255 N   0  0  0  0  0  0  0  0  0  0  0  0
   49.8754   48.9583   19.6113 C   0  0  0  0  0  0  0  0  0  0  0  0
   50.9507   48.9195   20.6384 C   0  0  0  0  0  0  0  0  0  0  0  0
   52.1064   49.2257   20.3941 O   0  0  0  0  0  0  0  0  0  0  0  0
   50.5997   48.5581   21.8622 N   0  0  0  0  0  0  0  0  0  0  0  0
   49.6660   48.3120   22.0540 H   0  0  0  0  0  0  0  0  0  0  0  0
   51.2723   48.5354   22.5807 H   0  0  0  0  0  0  0  0  0  0  0  0
   48.3711   49.1133   15.3679 C   0  0  0  0  0  0  0  0  0  0  0  0
   47.2977   49.1802   14.3586 O   0  0  0  0  0  0  0  0  0  0  0  0
   49.8499   49.1740   14.8871 C   0  0  0  0  0  0  0  0  0  0  0  0
   47.2825   50.0647   13.9609 H   0  0  0  0  0  0  0  0  0  0  0  0
   46.7846   50.6274   16.7327 C   0  0  0  0  0  0  0  0  0  0  0  0
   46.8812   52.1419   17.0012 C   0  0  0  0  0  0  0  0  0  0  0  0
   48.1580   52.5055   17.4721 O   0  0  0  0  0  0  0  0  0  0  0  0
   48.9020   57.0390   21.9426 C   0  0  0  0  0  0  0  0  0  0  0  0
   47.9524   56.8742   20.9249 C   0  0  0  0  0  0  0  0  0  0  0  0
   47.9949   55.7223   20.1310 C   0  0  0  0  0  0  0  0  0  0  0  0
   49.0501   54.7954   20.2865 C   0  0  0  0  0  0  0  0  0  0  0  0
   49.9821   54.9679   21.3195 C   0  0  0  0  0  0  0  0  0  0  0  0
   49.9225   56.1030   22.1335 C   0  0  0  0  0  0  0  0  0  0  0  0
   47.0621   55.5869   19.0952 C   0  0  0  0  0  0  0  0  0  0  0  0
   47.1705   54.4764   18.2565 C   0  0  0  0  0  0  0  0  0  0  0  0
   48.1940   53.5317   18.4017 C   0  0  0  0  0  0  0  0  0  0  0  0
   49.1378   53.6736   19.4459 C   0  0  0  0  0  0  0  0  0  0  0  0
  2  3  1  0  0  0
  2  6  2  0  0  0
  3  4  1  0  0  0
  3  1  1  0  0  0
  4  5  2  0  0  0
  5  6  1  0  0  0
  6  7  1  0  0  0
  7  8  2  0  0  0
  7  9  1  0  0  0
  1 12  1  0  0  0
  1 16  1  0  0  0
 12 13  1  0  0  0
 12 14  1  0  0  0
 16 17  1  0  0  0
 17 18  1  0  0  0
 18 27  1  0  0  0
 19 20  2  0  0  0
 19 24  1  0  0  0
 20 21  1  0  0  0
 21 22  2  0  0  0
 21 25  1  0  0  0
 22 23  1  0  0  0
 22 28  1  0  0  0
 23 24  2  0  0  0
 25 26  2  0  0  0
 26 27  1  0  0  0
 27 28  2  0  0  0
  9 10  1  0  0  0
  9 11  1  0  0  0
 13 15  1  0  0  0
M  END
> <minimizedAffinity>
-8.66013

$$$$
1V7A_FRC_A_1001


 28 30  0  0  0  0  0  0  0  0999 V2000
   49.5673   54.1994   20.6745 C   0  0  0  0  0  0  0  0  0  0  0  0
   50.1591   51.6954   20.9703 C   0  0  0  0  0  0  0  0  0  0  0  0
   50.2167   52.9752   20.2678 N   0  0  0  0  0  0  0  0  0  0  0  0
   51.0616   52.8600   19.2413 C   0  0  0  0  0  0  0  0  0  0  0  0
   51.4859   51.5904   19.1008 N   0  0  0  0  0  0  0  0  0  0  0  0
   51.0035   50.8869   20.3113 C   0  0  0  0  0  0  0  0  0  0  0  0
   51.4172   49.5218   20.7335 C   0  0  0  0  0  0  0  0  0  0  0  0
   52.3952   48.9573   20.2710 O   0  0  0  0  0  0  0  0  0  0  0  0
   50.6872   48.9352   21.6685 N   0  0  0  0  0  0  0  0  0  0  0  0
   49.8991   49.3949   22.0383 H   0  0  0  0  0  0  0  0  0  0  0  0
   50.9323   48.0391   21.9944 H   0  0  0  0  0  0  0  0  0  0  0  0
   50.5479   55.1439   21.4099 C   0  0  0  0  0  0  0  0  0  0  0  0
   51.8398   55.3597   20.7318 O   0  0  0  0  0  0  0  0  0  0  0  0
   49.7731   56.3820   21.9469 C   0  0  0  0  0  0  0  0  0  0  0  0
   51.6899   55.8119   19.8868 H   0  0  0  0  0  0  0  0  0  0  0  0
   48.7996   54.8525   19.5309 C   0  0  0  0  0  0  0  0  0  0  0  0
   47.6347   53.9380   19.1043 C   0  0  0  0  0  0  0  0  0  0  0  0
   47.6126   53.7413   17.7097 O   0  0  0  0  0  0  0  0  0  0  0  0
   47.2093   47.5048   16.2834 C   0  0  0  0  0  0  0  0  0  0  0  0
   46.6603   48.6420   15.6752 C   0  0  0  0  0  0  0  0  0  0  0  0
   46.9891   49.9084   16.1721 C   0  0  0  0  0  0  0  0  0  0  0  0
   47.7763   50.0270   17.3396 C   0  0  0  0  0  0  0  0  0  0  0  0
   48.3300   48.8801   17.9257 C   0  0  0  0  0  0  0  0  0  0  0  0
   48.0272   47.6157   17.4116 C   0  0  0  0  0  0  0  0  0  0  0  0
   46.4060   51.0344   15.5776 C   0  0  0  0  0  0  0  0  0  0  0  0
   46.6736   52.2844   16.1381 C   0  0  0  0  0  0  0  0  0  0  0  0
   47.4675   52.4319   17.2823 C   0  0  0  0  0  0  0  0  0  0  0  0
   48.0513   51.2923   17.8836 C   0  0  0  0  0  0  0  0  0  0  0  0
  2  3  1  0  0  0
  2  6  2  0  0  0
  3  4  1  0  0  0
  3  1  1  0  0  0
  4  5  2  0  0  0
  5  6  1  0  0  0
  6  7  1  0  0  0
  7  8  2  0  0  0
  7  9  1  0  0  0
  1 12  1  0  0  0
  1 16  1  0  0  0
 12 13  1  0  0  0
 12 14  1  0  0  0
 16 17  1  0  0  0
 17 18  1  0  0  0
 18 27  1  0  0  0
 19 20  2  0  0  0
 19 24  1  0  0  0
 20 21  1  0  0  0
 21 22  2  0  0  0
 21 25  1  0  0  0
 22 23  1  0  0  0
 22 28  1  0  0  0
 23 24  2  0  0  0
 25 26  2  0  0  0
 26 27  1  0  0  0
 27 28  2  0  0  0
  9 10  1  0  0  0
  9 11  1  0  0  0
 13 15  1  0  0  0
M  END
> <minimizedAffinity>
-8.51050

$$$$
1V7A_FRC_A_1001


 28 30  0  0  0  0  0  0  0  0999 V2000
   50.1039   50.0645   20.0952 C   0  0  0  0  0  0  0  0  0  0  0  0
   50.0041   52.6514   20.1726 C   0  0  0  0  0  0  0  0  0  0  0  0
   50.1405   51.3323   20.7860 N   0  0  0  0  0  0  0  0  0  0  0  0
   50.4166   51.4917   22.0818 C   0  0  0  0  0  0  0  0  0  0  0  0
   50.3544   52.7886   22.4364 N   0  0  0  0  0  0  0  0  0  0  0  0
   50.2276   53.5309   21.1612 C   0  0  0  0  0  0  0  0  0  0  0  0
   50.3586   55.0047   21.0087 C   0  0  0  0  0  0  0  0  0  0  0  0
   49.3976   55.7566   21.0235 O   0  0  0  0  0  0  0  0  0  0  0  0
   51.5835   55.4886   20.8793 N   0  0  0  0  0  0  0  0  0  0  0  0
   52.3555   54.8778   20.8680 H   0  0  0  0  0  0  0  0  0  0  0  0
   51.7228   56.4595   20.7944 H   0  0  0  0  0  0  0  0  0  0  0  0
   51.3528   49.8690   19.2028 C   0  0  0  0  0  0  0  0  0  0  0  0
   52.0750   48.5986   19.4028 O   0  0  0  0  0  0  0  0  0  0  0  0
   51.0290   50.3204   17.7492 C   0  0  0  0  0  0  0  0  0  0  0  0
   51.5032   47.8579   19.1472 H   0  0  0  0  0  0  0  0  0  0  0  0
   49.8133   48.9023   21.0379 C   0  0  0  0  0  0  0  0  0  0  0  0
   48.8423   47.9178   20.3573 C   0  0  0  0  0  0  0  0  0  0  0  0
   48.9168   48.0018   18.9532 O   0  0  0  0  0  0  0  0  0  0  0  0
   43.8079   46.9097   15.2387 C   0  0  0  0  0  0  0  0  0  0  0  0
   43.9806   46.8698   16.6291 C   0  0  0  0  0  0  0  0  0  0  0  0
   45.2158   47.2376   17.1749 C   0  0  0  0  0  0  0  0  0  0  0  0
   46.3032   47.5378   16.3238 C   0  0  0  0  0  0  0  0  0  0  0  0
   46.1084   47.5882   14.9364 C   0  0  0  0  0  0  0  0  0  0  0  0
   44.8660   47.2507   14.3914 C   0  0  0  0  0  0  0  0  0  0  0  0
   45.3858   47.1595   18.5627 C   0  0  0  0  0  0  0  0  0  0  0  0
   46.6481   47.4448   19.0857 C   0  0  0  0  0  0  0  0  0  0  0  0
   47.7375   47.7656   18.2662 C   0  0  0  0  0  0  0  0  0  0  0  0
   47.5641   47.8390   16.8642 C   0  0  0  0  0  0  0  0  0  0  0  0
  2  3  1  0  0  0
  2  6  2  0  0  0
  3  4  1  0  0  0
  3  1  1  0  0  0
  4  5  2  0  0  0
  5  6  1  0  0  0
  6  7  1  0  0  0
  7  8  2  0  0  0
  7  9  1  0  0  0
  1 12  1  0  0  0
  1 16  1  0  0  0
 12 13  1  0  0  0
 12 14  1  0  0  0
 16 17  1  0  0  0
 17 18  1  0  0  0
 18 27  1  0  0  0
 19 20  2  0  0  0
 19 24  1  0  0  0
 20 21  1  0  0  0
 21 22  2  0  0  0
 21 25  1  0  0  0
 22 23  1  0  0  0
 22 28  1  0  0  0
 23 24  2  0  0  0
 25 26  2  0  0  0
 26 27  1  0  0  0
 27 28  2  0  0  0
  9 10  1  0  0  0
  9 11  1  0  0  0
 13 15  1  0  0  0
M  END
> <minimizedAffinity>
-8.46939

$$$$
1V7A_FRC_A_1001


 28 30  0  0  0  0  0  0  0  0999 V2000
   49.4220   54.1880   20.6583 C   0  0  0  0  0  0  0  0  0  0  0  0
   50.3172   51.8198   21.2039 C   0  0  0  0  0  0  0  0  0  0  0  0
   49.5746   52.7777   20.3879 N   0  0  0  0  0  0  0  0  0  0  0  0
   49.1486   52.1579   19.2855 C   0  0  0  0  0  0  0  0  0  0  0  0
   49.4190   50.8402   19.3331 N   0  0  0  0  0  0  0  0  0  0  0  0
   50.2980   50.6697   20.5126 C   0  0  0  0  0  0  0  0  0  0  0  0
   51.0540   49.4335   20.8488 C   0  0  0  0  0  0  0  0  0  0  0  0
   52.2095   49.2528   20.5007 O   0  0  0  0  0  0  0  0  0  0  0  0
   50.4259   48.5248   21.5775 N   0  0  0  0  0  0  0  0  0  0  0  0
   49.4936   48.6754   21.8558 H   0  0  0  0  0  0  0  0  0  0  0  0
   50.8910   47.6982   21.8415 H   0  0  0  0  0  0  0  0  0  0  0  0
   50.7888   54.8673   20.9138 C   0  0  0  0  0  0  0  0  0  0  0  0
   51.3539   55.5943   19.7616 O   0  0  0  0  0  0  0  0  0  0  0  0
   50.7679   55.5719   22.3010 C   0  0  0  0  0  0  0  0  0  0  0  0
   50.7762   56.3397   19.5346 H   0  0  0  0  0  0  0  0  0  0  0  0
   48.5558   54.8849   19.6154 C   0  0  0  0  0  0  0  0  0  0  0  0
   47.7877   56.0459   20.2766 C   0  0  0  0  0  0  0  0  0  0  0  0
   46.4098   55.9868   19.9902 O   0  0  0  0  0  0  0  0  0  0  0  0
   44.3896   61.4408   17.2949 C   0  0  0  0  0  0  0  0  0  0  0  0
   43.6972   60.3806   17.8958 C   0  0  0  0  0  0  0  0  0  0  0  0
   44.4219   59.3346   18.4787 C   0  0  0  0  0  0  0  0  0  0  0  0
   45.8297   59.2994   18.3622 C   0  0  0  0  0  0  0  0  0  0  0  0
   46.5068   60.3757   17.7719 C   0  0  0  0  0  0  0  0  0  0  0  0
   45.7853   61.4365   17.2163 C   0  0  0  0  0  0  0  0  0  0  0  0
   43.7176   58.2645   19.0445 C   0  0  0  0  0  0  0  0  0  0  0  0
   44.4517   57.1874   19.5437 C   0  0  0  0  0  0  0  0  0  0  0  0
   45.8487   57.1369   19.4600 C   0  0  0  0  0  0  0  0  0  0  0  0
   46.5572   58.2171   18.8836 C   0  0  0  0  0  0  0  0  0  0  0  0
  2  3  1  0  0  0
  2  6  2  0  0  0
  3  4  1  0  0  0
  3  1  1  0  0  0
  4  5  2  0  0  0
  5  6  1  0  0  0
  6  7  1  0  0  0
  7  8  2  0  0  0
  7  9  1  0  0  0
  1 12  1  0  0  0
  1 16  1  0  0  0
 12 13  1  0  0  0
 12 14  1  0  0  0
 16 17  1  0  0  0
 17 18  1  0  0  0
 18 27  1  0  0  0
 19 20  2  0  0  0
 19 24  1  0  0  0
 20 21  1  0  0  0
 21 22  2  0  0  0
 21 25  1  0  0  0
 22 23  1  0  0  0
 22 28  1  0  0  0
 23 24  2  0  0  0
 25 26  2  0  0  0
 26 27  1  0  0  0
 27 28  2  0  0  0
  9 10  1  0  0  0
  9 11  1  0  0  0
 13 15  1  0  0  0
M  END
> <minimizedAffinity>
-8.35047

$$$$
1V7A_FRC_A_1001


 28 30  0  0  0  0  0  0  0  0999 V2000
   50.6974   50.6207   20.3982 C   0  0  0  0  0  0  0  0  0  0  0  0
   51.2546   50.0743   17.9287 C   0  0  0  0  0  0  0  0  0  0  0  0
   50.4265   50.6602   18.9802 N   0  0  0  0  0  0  0  0  0  0  0  0
   49.4291   51.3379   18.4087 C   0  0  0  0  0  0  0  0  0  0  0  0
   49.4245   51.1634   17.0741 N   0  0  0  0  0  0  0  0  0  0  0  0
   50.6934   50.4619   16.7730 C   0  0  0  0  0  0  0  0  0  0  0  0
   51.2579   50.2541   15.4126 C   0  0  0  0  0  0  0  0  0  0  0  0
   51.9589   51.0838   14.8565 O   0  0  0  0  0  0  0  0  0  0  0  0
   50.9902   49.1011   14.8208 N   0  0  0  0  0  0  0  0  0  0  0  0
   50.4242   48.4350   15.2738 H   0  0  0  0  0  0  0  0  0  0  0  0
   51.3572   48.9094   13.9276 H   0  0  0  0  0  0  0  0  0  0  0  0
   49.8578   51.6703   21.1650 C   0  0  0  0  0  0  0  0  0  0  0  0
   49.5943   51.3513   22.5807 O   0  0  0  0  0  0  0  0  0  0  0  0
   50.3568   53.0994   20.8044 C   0  0  0  0  0  0  0  0  0  0  0  0
   50.4316   51.3381   23.0704 H   0  0  0  0  0  0  0  0  0  0  0  0
   50.6102   49.2076   20.9630 C   0  0  0  0  0  0  0  0  0  0  0  0
   49.1875   48.6548   20.7498 C   0  0  0  0  0  0  0  0  0  0  0  0
   49.1723   47.6097   19.8056 O   0  0  0  0  0  0  0  0  0  0  0  0
   44.8689   47.7914   15.0581 C   0  0  0  0  0  0  0  0  0  0  0  0
   44.7398   47.5336   16.4297 C   0  0  0  0  0  0  0  0  0  0  0  0
   45.8660   47.6405   17.2538 C   0  0  0  0  0  0  0  0  0  0  0  0
   47.1347   47.8970   16.6870 C   0  0  0  0  0  0  0  0  0  0  0  0
   47.2430   48.1678   15.3157 C   0  0  0  0  0  0  0  0  0  0  0  0
   46.1131   48.0917   14.4959 C   0  0  0  0  0  0  0  0  0  0  0  0
   45.7306   47.3460   18.6162 C   0  0  0  0  0  0  0  0  0  0  0  0
   46.8786   47.3714   19.4097 C   0  0  0  0  0  0  0  0  0  0  0  0
   48.1449   47.6434   18.8772 C   0  0  0  0  0  0  0  0  0  0  0  0
   48.2796   47.9357   17.4997 C   0  0  0  0  0  0  0  0  0  0  0  0
  2  3  1  0  0  0
  2  6  2  0  0  0
  3  4  1  0  0  0
  3  1  1  0  0  0
  4  5  2  0  0  0
  5  6  1  0  0  0
  6  7  1  0  0  0
  7  8  2  0  0  0
  7  9  1  0  0  0
  1 12  1  0  0  0
  1 16  1  0  0  0
 12 13  1  0  0  0
 12 14  1  0  0  0
 16 17  1  0  0  0
 17 18  1  0  0  0
 18 27  1  0  0  0
 19 20  2  0  0  0
 19 24  1  0  0  0
 20 21  1  0  0  0
 21 22  2  0  0  0
 21 25  1  0  0  0
 22 23  1  0  0  0
 22 28  1  0  0  0
 23 24  2  0  0  0
 25 26  2  0  0  0
 26 27  1  0  0  0
 27 28  2  0  0  0
  9 10  1  0  0  0
  9 11  1  0  0  0
 13 15  1  0  0  0
M  END
> <minimizedAffinity>
-8.30717

$$$$
