1HYO_HBU_A_1012


 13 12  0  0  0  0  0  0  0  0999 V2000
   48.0304   43.0161   59.4051 C   0  0  0  0  0  0  0  0  0  0  0  0
   48.1101   44.0733   58.8592 O   0  0  0  0  0  0  0  0  0  0  0  0
   48.4208   42.7061   60.8387 C   0  0  0  0  0  0  0  0  0  0  0  0
   48.5960   44.7669   61.9805 O   0  0  0  0  0  0  0  0  0  0  0  0
   47.9415   43.7371   61.8411 C   0  0  0  0  0  0  0  0  0  0  0  0
   46.9370   43.6204   62.5010 O   0  0  0  0  0  0  0  0  0  0  0  0
   49.3815   44.8935   61.4855 H   0  0  0  0  0  0  0  0  0  0  0  0
   47.4176   41.8796   58.5854 C   0  0  0  0  0  0  0  0  0  0  0  0
   45.5792   41.9474   58.8304 P   0  0  0  0  0  0  0  0  0  0  0  0
   45.0100   42.9184   57.8649 O   0  0  0  0  0  0  0  0  0  0  0  0
   45.3023   42.2808   60.2344 O   0  0  0  0  0  0  0  0  0  0  0  0
   45.0999   40.4132   58.5456 C   0  0  0  0  0  0  0  0  0  0  0  0
   45.5845   43.1917   60.4121 H   0  0  0  0  0  0  0  0  0  0  0  0
  4  5  1  0  0  0
  5  6  2  0  0  0
  5  3  1  0  0  0
  3  1  1  0  0  0
  1  2  2  0  0  0
  1  8  1  0  0  0
  8  9  1  0  0  0
  9 10  2  0  0  0
  9 11  1  0  0  0
  9 12  1  0  0  0
  4  7  1  0  0  0
 11 13  1  0  0  0
M  END
> <minimizedAffinity>
-6.74984

$$$$
1HYO_HBU_A_1012


 13 12  0  0  0  0  0  0  0  0999 V2000
   46.7401   43.0794   59.5351 C   0  0  0  0  0  0  0  0  0  0  0  0
   45.9713   43.9897   59.4882 O   0  0  0  0  0  0  0  0  0  0  0  0
   47.8533   42.8862   60.5486 C   0  0  0  0  0  0  0  0  0  0  0  0
   47.8973   44.8814   61.8129 O   0  0  0  0  0  0  0  0  0  0  0  0
   47.6614   43.6762   61.8278 C   0  0  0  0  0  0  0  0  0  0  0  0
   47.2669   43.1973   62.8637 O   0  0  0  0  0  0  0  0  0  0  0  0
   48.2051   45.2889   61.0273 H   0  0  0  0  0  0  0  0  0  0  0  0
   46.5369   41.9725   58.4994 C   0  0  0  0  0  0  0  0  0  0  0  0
   44.7988   41.3496   58.6866 P   0  0  0  0  0  0  0  0  0  0  0  0
   43.9503   42.0029   57.6607 O   0  0  0  0  0  0  0  0  0  0  0  0
   44.3543   41.5986   60.0649 O   0  0  0  0  0  0  0  0  0  0  0  0
   44.9443   39.7398   58.4593 C   0  0  0  0  0  0  0  0  0  0  0  0
   44.2653   42.5538   60.2084 H   0  0  0  0  0  0  0  0  0  0  0  0
  4  5  1  0  0  0
  5  6  2  0  0  0
  5  3  1  0  0  0
  3  1  1  0  0  0
  1  2  2  0  0  0
  1  8  1  0  0  0
  8  9  1  0  0  0
  9 10  2  0  0  0
  9 11  1  0  0  0
  9 12  1  0  0  0
  4  7  1  0  0  0
 11 13  1  0  0  0
M  END
> <minimizedAffinity>
-6.48388

$$$$
1HYO_HBU_A_1012


 13 12  0  0  0  0  0  0  0  0999 V2000
   46.2023   41.6391   58.5472 C   0  0  0  0  0  0  0  0  0  0  0  0
   46.6485   42.1134   57.5482 O   0  0  0  0  0  0  0  0  0  0  0  0
   44.9099   40.8539   58.6774 C   0  0  0  0  0  0  0  0  0  0  0  0
   43.3564   42.5063   59.3388 O   0  0  0  0  0  0  0  0  0  0  0  0
   43.6619   41.6896   58.4740 C   0  0  0  0  0  0  0  0  0  0  0  0
   42.9548   41.6194   57.4977 O   0  0  0  0  0  0  0  0  0  0  0  0
   43.8811   42.5897   60.1107 H   0  0  0  0  0  0  0  0  0  0  0  0
   47.0564   41.7948   59.8063 C   0  0  0  0  0  0  0  0  0  0  0  0
   47.0273   43.5895   60.2781 P   0  0  0  0  0  0  0  0  0  0  0  0
   45.6157   44.0407   60.3309 O   0  0  0  0  0  0  0  0  0  0  0  0
   47.8515   44.3420   59.3222 O   0  0  0  0  0  0  0  0  0  0  0  0
   47.7562   43.6114   61.7385 C   0  0  0  0  0  0  0  0  0  0  0  0
   47.4251   44.3338   58.4510 H   0  0  0  0  0  0  0  0  0  0  0  0
  4  5  1  0  0  0
  5  6  2  0  0  0
  5  3  1  0  0  0
  3  1  1  0  0  0
  1  2  2  0  0  0
  1  8  1  0  0  0
  8  9  1  0  0  0
  9 10  2  0  0  0
  9 11  1  0  0  0
  9 12  1  0  0  0
  4  7  1  0  0  0
 11 13  1  0  0  0
M  END
> <minimizedAffinity>
-6.14441

$$$$
1HYO_HBU_A_1012


 13 12  0  0  0  0  0  0  0  0999 V2000
   45.0936   42.2871   58.8663 C   0  0  0  0  0  0  0  0  0  0  0  0
   45.0148   42.9339   57.8676 O   0  0  0  0  0  0  0  0  0  0  0  0
   44.4362   40.9445   59.1292 C   0  0  0  0  0  0  0  0  0  0  0  0
   45.5667   40.1289   57.2218 O   0  0  0  0  0  0  0  0  0  0  0  0
   44.9411   39.8294   58.2354 C   0  0  0  0  0  0  0  0  0  0  0  0
   44.7860   38.6549   58.4690 O   0  0  0  0  0  0  0  0  0  0  0  0
   45.7073   41.0301   57.0072 H   0  0  0  0  0  0  0  0  0  0  0  0
   45.9977   42.8504   59.9637 C   0  0  0  0  0  0  0  0  0  0  0  0
   47.7352   42.8383   59.3117 P   0  0  0  0  0  0  0  0  0  0  0  0
   48.1283   44.2315   58.9901 O   0  0  0  0  0  0  0  0  0  0  0  0
   47.8011   41.9266   58.1612 O   0  0  0  0  0  0  0  0  0  0  0  0
   48.5994   42.2025   60.5420 C   0  0  0  0  0  0  0  0  0  0  0  0
   47.2896   42.2974   57.4252 H   0  0  0  0  0  0  0  0  0  0  0  0
  4  5  1  0  0  0
  5  6  2  0  0  0
  5  3  1  0  0  0
  3  1  1  0  0  0
  1  2  2  0  0  0
  1  8  1  0  0  0
  8  9  1  0  0  0
  9 10  2  0  0  0
  9 11  1  0  0  0
  9 12  1  0  0  0
  4  7  1  0  0  0
 11 13  1  0  0  0
M  END
> <minimizedAffinity>
-6.06218

$$$$
1HYO_HBU_A_1012


 13 12  0  0  0  0  0  0  0  0999 V2000
   47.5932   42.2756   59.3447 C   0  0  0  0  0  0  0  0  0  0  0  0
   47.9140   42.9241   58.3968 O   0  0  0  0  0  0  0  0  0  0  0  0
   47.7779   42.6524   60.8034 C   0  0  0  0  0  0  0  0  0  0  0  0
   45.9825   44.1856   60.7217 O   0  0  0  0  0  0  0  0  0  0  0  0
   47.0903   43.9453   61.1943 C   0  0  0  0  0  0  0  0  0  0  0  0
   47.5555   44.7509   61.9642 O   0  0  0  0  0  0  0  0  0  0  0  0
   45.5889   43.5841   60.1208 H   0  0  0  0  0  0  0  0  0  0  0  0
   46.8719   40.9601   59.0477 C   0  0  0  0  0  0  0  0  0  0  0  0
   45.1866   41.3859   58.3975 P   0  0  0  0  0  0  0  0  0  0  0  0
   44.8653   40.4650   57.2804 O   0  0  0  0  0  0  0  0  0  0  0  0
   45.1732   42.8045   58.0146 O   0  0  0  0  0  0  0  0  0  0  0  0
   44.2147   41.1771   59.6922 C   0  0  0  0  0  0  0  0  0  0  0  0
   45.7488   42.9372   57.2453 H   0  0  0  0  0  0  0  0  0  0  0  0
  4  5  1  0  0  0
  5  6  2  0  0  0
  5  3  1  0  0  0
  3  1  1  0  0  0
  1  2  2  0  0  0
  1  8  1  0  0  0
  8  9  1  0  0  0
  9 10  2  0  0  0
  9 11  1  0  0  0
  9 12  1  0  0  0
  4  7  1  0  0  0
 11 13  1  0  0  0
M  END
> <minimizedAffinity>
-6.02301

$$$$
1HYO_HBU_A_1012


 13 12  0  0  0  0  0  0  0  0999 V2000
   45.5632   42.4122   58.8101 C   0  0  0  0  0  0  0  0  0  0  0  0
   46.2541   42.6008   57.8567 O   0  0  0  0  0  0  0  0  0  0  0  0
   44.6759   41.2065   59.0607 C   0  0  0  0  0  0  0  0  0  0  0  0
   42.5813   41.7162   58.0943 O   0  0  0  0  0  0  0  0  0  0  0  0
   43.5893   41.0185   58.0209 C   0  0  0  0  0  0  0  0  0  0  0  0
   43.6610   40.2359   57.1040 O   0  0  0  0  0  0  0  0  0  0  0  0
   42.4897   42.3351   58.7919 H   0  0  0  0  0  0  0  0  0  0  0  0
   45.6309   43.4719   59.9108 C   0  0  0  0  0  0  0  0  0  0  0  0
   47.4195   43.7039   60.3484 P   0  0  0  0  0  0  0  0  0  0  0  0
   47.5004   44.4957   61.5996 O   0  0  0  0  0  0  0  0  0  0  0  0
   48.1065   44.3289   59.2097 O   0  0  0  0  0  0  0  0  0  0  0  0
   47.9694   42.1773   60.5262 C   0  0  0  0  0  0  0  0  0  0  0  0
   47.7852   45.2371   59.0971 H   0  0  0  0  0  0  0  0  0  0  0  0
  4  5  1  0  0  0
  5  6  2  0  0  0
  5  3  1  0  0  0
  3  1  1  0  0  0
  1  2  2  0  0  0
  1  8  1  0  0  0
  8  9  1  0  0  0
  9 10  2  0  0  0
  9 11  1  0  0  0
  9 12  1  0  0  0
  4  7  1  0  0  0
 11 13  1  0  0  0
M  END
> <minimizedAffinity>
-5.75193

$$$$
1HYO_HBU_A_1012


 13 12  0  0  0  0  0  0  0  0999 V2000
   45.5342   43.4982   59.5916 C   0  0  0  0  0  0  0  0  0  0  0  0
   44.5090   44.1034   59.5238 O   0  0  0  0  0  0  0  0  0  0  0  0
   46.6138   43.6620   60.6458 C   0  0  0  0  0  0  0  0  0  0  0  0
   48.5351   44.0724   59.3337 O   0  0  0  0  0  0  0  0  0  0  0  0
   48.0073   43.3255   60.1535 C   0  0  0  0  0  0  0  0  0  0  0  0
   48.6464   42.3747   60.5351 O   0  0  0  0  0  0  0  0  0  0  0  0
   48.0703   44.8206   59.0142 H   0  0  0  0  0  0  0  0  0  0  0  0
   45.7446   42.4099   58.5378 C   0  0  0  0  0  0  0  0  0  0  0  0
   44.3087   41.2399   58.6541 P   0  0  0  0  0  0  0  0  0  0  0  0
   43.3050   41.6214   57.6313 O   0  0  0  0  0  0  0  0  0  0  0  0
   43.7892   41.2657   60.0283 O   0  0  0  0  0  0  0  0  0  0  0  0
   44.9824   39.7805   58.3696 C   0  0  0  0  0  0  0  0  0  0  0  0
   43.3868   42.1304   60.2057 H   0  0  0  0  0  0  0  0  0  0  0  0
  4  5  1  0  0  0
  5  6  2  0  0  0
  5  3  1  0  0  0
  3  1  1  0  0  0
  1  2  2  0  0  0
  1  8  1  0  0  0
  8  9  1  0  0  0
  9 10  2  0  0  0
  9 11  1  0  0  0
  9 12  1  0  0  0
  4  7  1  0  0  0
 11 13  1  0  0  0
M  END
> <minimizedAffinity>
-5.61025

$$$$
1HYO_HBU_A_1012


 13 12  0  0  0  0  0  0  0  0999 V2000
   45.6444   42.2273   58.9499 C   0  0  0  0  0  0  0  0  0  0  0  0
   45.0743   42.8616   58.1165 O   0  0  0  0  0  0  0  0  0  0  0  0
   46.8193   42.6890   59.7926 C   0  0  0  0  0  0  0  0  0  0  0  0
   45.4473   44.4300   60.6097 O   0  0  0  0  0  0  0  0  0  0  0  0
   46.4679   43.7720   60.7931 C   0  0  0  0  0  0  0  0  0  0  0  0
   47.1204   44.0169   61.7792 O   0  0  0  0  0  0  0  0  0  0  0  0
   44.9151   44.2688   59.8556 H   0  0  0  0  0  0  0  0  0  0  0  0
   45.0895   40.8297   59.2291 C   0  0  0  0  0  0  0  0  0  0  0  0
   44.8980   39.9720   57.5945 P   0  0  0  0  0  0  0  0  0  0  0  0
   46.1148   40.2226   56.7848 O   0  0  0  0  0  0  0  0  0  0  0  0
   43.6593   40.4407   56.9580 O   0  0  0  0  0  0  0  0  0  0  0  0
   44.7212   38.4023   58.0063 C   0  0  0  0  0  0  0  0  0  0  0  0
   43.7562   41.3735   56.7100 H   0  0  0  0  0  0  0  0  0  0  0  0
  4  5  1  0  0  0
  5  6  2  0  0  0
  5  3  1  0  0  0
  3  1  1  0  0  0
  1  2  2  0  0  0
  1  8  1  0  0  0
  8  9  1  0  0  0
  9 10  2  0  0  0
  9 11  1  0  0  0
  9 12  1  0  0  0
  4  7  1  0  0  0
 11 13  1  0  0  0
M  END
> <minimizedAffinity>
-5.59313

$$$$
1HYO_HBU_A_1012


 13 12  0  0  0  0  0  0  0  0999 V2000
   45.3672   42.7176   59.4183 C   0  0  0  0  0  0  0  0  0  0  0  0
   44.8282   43.4750   58.6714 O   0  0  0  0  0  0  0  0  0  0  0  0
   46.6930   42.9333   60.1251 C   0  0  0  0  0  0  0  0  0  0  0  0
   48.5421   44.1413   59.2869 O   0  0  0  0  0  0  0  0  0  0  0  0
   47.8660   43.1212   59.1838 C   0  0  0  0  0  0  0  0  0  0  0  0
   48.1950   42.3156   58.3466 O   0  0  0  0  0  0  0  0  0  0  0  0
   48.3178   44.7896   59.9252 H   0  0  0  0  0  0  0  0  0  0  0  0
   44.6084   41.4275   59.7325 C   0  0  0  0  0  0  0  0  0  0  0  0
   44.7115   40.3431   58.2299 P   0  0  0  0  0  0  0  0  0  0  0  0
   44.8234   38.9323   58.6729 O   0  0  0  0  0  0  0  0  0  0  0  0
   45.8386   40.7918   57.4007 O   0  0  0  0  0  0  0  0  0  0  0  0
   43.3166   40.6522   57.4405 C   0  0  0  0  0  0  0  0  0  0  0  0
   46.6720   40.6116   57.8631 H   0  0  0  0  0  0  0  0  0  0  0  0
  4  5  1  0  0  0
  5  6  2  0  0  0
  5  3  1  0  0  0
  3  1  1  0  0  0
  1  2  2  0  0  0
  1  8  1  0  0  0
  8  9  1  0  0  0
  9 10  2  0  0  0
  9 11  1  0  0  0
  9 12  1  0  0  0
  4  7  1  0  0  0
 11 13  1  0  0  0
M  END
> <minimizedAffinity>
-5.39142

$$$$
1HYO_HBU_A_1012


 13 12  0  0  0  0  0  0  0  0999 V2000
   48.0436   42.9780   59.1281 C   0  0  0  0  0  0  0  0  0  0  0  0
   48.3003   44.1082   58.8477 O   0  0  0  0  0  0  0  0  0  0  0  0
   47.5066   41.9124   58.1901 C   0  0  0  0  0  0  0  0  0  0  0  0
   45.2394   42.4884   57.8596 O   0  0  0  0  0  0  0  0  0  0  0  0
   46.0181   41.6645   58.3320 C   0  0  0  0  0  0  0  0  0  0  0  0
   45.5443   40.6898   58.8645 O   0  0  0  0  0  0  0  0  0  0  0  0
   45.5697   43.2576   57.4386 H   0  0  0  0  0  0  0  0  0  0  0  0
   48.3445   42.5563   60.5671 C   0  0  0  0  0  0  0  0  0  0  0  0
   47.3394   43.6438   61.6858 P   0  0  0  0  0  0  0  0  0  0  0  0
   48.0798   44.9101   61.9028 O   0  0  0  0  0  0  0  0  0  0  0  0
   47.0525   42.9086   62.9253 O   0  0  0  0  0  0  0  0  0  0  0  0
   45.9468   43.8556   60.8609 C   0  0  0  0  0  0  0  0  0  0  0  0
   47.8755   42.7785   63.4219 H   0  0  0  0  0  0  0  0  0  0  0  0
  4  5  1  0  0  0
  5  6  2  0  0  0
  5  3  1  0  0  0
  3  1  1  0  0  0
  1  2  2  0  0  0
  1  8  1  0  0  0
  8  9  1  0  0  0
  9 10  2  0  0  0
  9 11  1  0  0  0
  9 12  1  0  0  0
  4  7  1  0  0  0
 11 13  1  0  0  0
M  END
> <minimizedAffinity>
-5.04933

$$$$
