2QI3_MZ5_B_200


 40 42  0  0  0  0  0  0  0  0999 V2000
   20.8531   29.0610   14.3509 C   0  0  0  0  0  0  0  0  0  0  0  0
   21.0288   28.0214   15.3135 O   0  0  0  0  0  0  0  0  0  0  0  0
   20.2922   27.3937   15.2495 H   0  0  0  0  0  0  0  0  0  0  0  0
   20.8913   28.5285   12.9135 C   0  0  0  0  0  0  0  0  0  0  0  0
   19.8355   26.4989   11.3404 O   0  0  0  0  0  0  0  0  0  0  0  0
   19.1179   27.4418   11.6067 C   0  0  0  0  0  0  0  0  0  0  0  0
   19.5240   28.4663   12.3762 N   0  0  0  0  0  0  0  0  0  0  0  0
   18.8916   29.1914   12.5849 H   0  0  0  0  0  0  0  0  0  0  0  0
   17.7300   27.4345   11.0146 C   0  0  0  0  0  0  0  0  0  0  0  0
   16.6999   27.6818   11.9767 O   0  0  0  0  0  0  0  0  0  0  0  0
   16.8258   28.5611   12.3665 H   0  0  0  0  0  0  0  0  0  0  0  0
   17.6563   28.5633    9.9710 C   0  0  0  0  0  0  0  0  0  0  0  0
   16.3120   29.2836   10.0213 C   0  0  0  0  0  0  0  0  0  0  0  0
   17.9376   28.0481    8.5560 C   0  0  0  0  0  0  0  0  0  0  0  0
   21.7064   29.4198   11.9665 C   0  0  0  0  0  0  0  0  0  0  0  0
   22.7320   28.6298   11.1884 C   0  0  0  0  0  0  0  0  0  0  0  0
   22.6986   28.6174    9.7976 C   0  0  0  0  0  0  0  0  0  0  0  0
   23.6545   27.8819    9.0938 C   0  0  0  0  0  0  0  0  0  0  0  0
   24.6413   27.1429    9.7502 C   0  0  0  0  0  0  0  0  0  0  0  0
   24.6705   27.1674   11.1414 C   0  0  0  0  0  0  0  0  0  0  0  0
   23.7209   27.8985   11.8628 C   0  0  0  0  0  0  0  0  0  0  0  0
   19.5281   29.7491   14.6714 C   0  0  0  0  0  0  0  0  0  0  0  0
   19.6429   31.1856   14.3582 N   0  0  0  0  0  0  0  0  0  0  0  0
   18.3388   31.7815   13.5856 S   0  0  0  0  0  0  0  0  0  0  0  0
   17.6609   30.6918   12.9566 O   0  0  0  0  0  0  0  0  0  0  0  0
   18.8601   32.7285   12.6316 O   0  0  0  0  0  0  0  0  0  0  0  0
   17.3208   32.5260   14.6296 C   0  0  0  0  0  0  0  0  0  0  0  0
   17.3324   33.9212   14.9114 C   0  0  0  0  0  0  0  0  0  0  0  0
   16.4279   34.4880   15.8519 C   0  0  0  0  0  0  0  0  0  0  0  0
   16.3559   36.1514   16.2676 S   0  0  0  0  0  0  0  0  0  0  0  0
   15.0800   35.6665   17.3486 C   0  0  0  0  0  0  0  0  0  0  0  0
   14.7778   34.3512   17.3738 N   0  0  0  0  0  0  0  0  0  0  0  0
   15.5318   33.6381   16.5138 C   0  0  0  0  0  0  0  0  0  0  0  0
   15.5264   32.2824   16.2411 C   0  0  0  0  0  0  0  0  0  0  0  0
   16.4037   31.7300   15.3178 C   0  0  0  0  0  0  0  0  0  0  0  0
   20.0427   31.9751   15.5398 C   0  0  0  0  0  0  0  0  0  0  0  0
   21.0742   33.0375   15.1411 C   0  0  0  0  0  0  0  0  0  0  0  0
   21.7322   33.6487   16.3857 C   0  0  0  0  0  0  0  0  0  0  0  0
   22.0998   32.4842   14.1471 C   0  0  0  0  0  0  0  0  0  0  0  0
   23.5268   32.8820   14.4547 C   0  0  0  0  0  0  0  0  0  0  0  0
  5  6  2  0  0  0
  6  9  1  0  0  0
  6  7  1  0  0  0
  9 12  1  0  0  0
  9 10  1  0  0  0
 12 14  1  0  0  0
 12 13  1  0  0  0
  7  4  1  0  0  0
  4 15  1  0  0  0
  4  1  1  0  0  0
 15 16  1  0  0  0
 16 17  2  0  0  0
 16 21  1  0  0  0
 17 18  1  0  0  0
 18 19  2  0  0  0
 19 20  1  0  0  0
 20 21  2  0  0  0
  1 22  1  0  0  0
  1  2  1  0  0  0
 22 23  1  0  0  0
 23 24  1  0  0  0
 23 36  1  0  0  0
 36 37  1  0  0  0
 37 38  1  0  0  0
 37 39  1  0  0  0
 39 40  1  0  0  0
 24 26  2  0  0  0
 24 25  2  0  0  0
 24 27  1  0  0  0
 27 28  2  0  0  0
 27 35  1  0  0  0
 28 29  1  0  0  0
 29 30  1  0  0  0
 29 33  2  0  0  0
 30 31  1  0  0  0
 31 32  2  0  0  0
 32 33  1  0  0  0
 33 34  1  0  0  0
 34 35  2  0  0  0
 10 11  1  0  0  0
  7  8  1  0  0  0
  2  3  1  0  0  0
M  END
> <minimizedAffinity>
-9.07112

$$$$
2QI3_MZ5_B_200


 40 42  0  0  0  0  0  0  0  0999 V2000
   18.0485   31.0001   14.8456 C   0  0  0  0  0  0  0  0  0  0  0  0
   17.1370   30.2171   15.6164 O   0  0  0  0  0  0  0  0  0  0  0  0
   17.4338   30.1907   16.5395 H   0  0  0  0  0  0  0  0  0  0  0  0
   18.0857   32.4620   15.3066 C   0  0  0  0  0  0  0  0  0  0  0  0
   19.7288   34.0686   16.8648 O   0  0  0  0  0  0  0  0  0  0  0  0
   20.0655   33.8569   15.7173 C   0  0  0  0  0  0  0  0  0  0  0  0
   19.3529   33.0778   14.8855 N   0  0  0  0  0  0  0  0  0  0  0  0
   19.6869   32.9158   13.9737 H   0  0  0  0  0  0  0  0  0  0  0  0
   21.3290   34.5292   15.2394 C   0  0  0  0  0  0  0  0  0  0  0  0
   21.3687   35.9316   15.5218 O   0  0  0  0  0  0  0  0  0  0  0  0
   21.3322   36.0694   16.4813 H   0  0  0  0  0  0  0  0  0  0  0  0
   22.5152   33.8842   15.9780 C   0  0  0  0  0  0  0  0  0  0  0  0
   23.0347   34.7852   17.0946 C   0  0  0  0  0  0  0  0  0  0  0  0
   23.6483   33.5115   15.0167 C   0  0  0  0  0  0  0  0  0  0  0  0
   16.9538   33.3077   14.7072 C   0  0  0  0  0  0  0  0  0  0  0  0
   16.2519   34.1385   15.7553 C   0  0  0  0  0  0  0  0  0  0  0  0
   15.4729   33.5236   16.7302 C   0  0  0  0  0  0  0  0  0  0  0  0
   14.8311   34.3067   17.6919 C   0  0  0  0  0  0  0  0  0  0  0  0
   14.9383   35.6993   17.6951 C   0  0  0  0  0  0  0  0  0  0  0  0
   15.7254   36.3044   16.7198 C   0  0  0  0  0  0  0  0  0  0  0  0
   16.3756   35.5358   15.7487 C   0  0  0  0  0  0  0  0  0  0  0  0
   19.4168   30.3309   14.9538 C   0  0  0  0  0  0  0  0  0  0  0  0
   19.8662   29.9323   13.6070 N   0  0  0  0  0  0  0  0  0  0  0  0
   21.3539   30.4823   13.2366 S   0  0  0  0  0  0  0  0  0  0  0  0
   22.1305   30.4994   14.4362 O   0  0  0  0  0  0  0  0  0  0  0  0
   21.1487   31.8031   12.6960 O   0  0  0  0  0  0  0  0  0  0  0  0
   22.0825   29.5205   12.1301 C   0  0  0  0  0  0  0  0  0  0  0  0
   23.0502   28.5235   12.4398 C   0  0  0  0  0  0  0  0  0  0  0  0
   23.6554   27.7441   11.4152 C   0  0  0  0  0  0  0  0  0  0  0  0
   24.8304   26.5206   11.6747 S   0  0  0  0  0  0  0  0  0  0  0  0
   24.8077   26.3482    9.9423 C   0  0  0  0  0  0  0  0  0  0  0  0
   23.9824   27.1737    9.2645 N   0  0  0  0  0  0  0  0  0  0  0  0
   23.2920   27.9907   10.0845 C   0  0  0  0  0  0  0  0  0  0  0  0
   22.3550   28.9632    9.7868 C   0  0  0  0  0  0  0  0  0  0  0  0
   21.7586   29.7189   10.7869 C   0  0  0  0  0  0  0  0  0  0  0  0
   19.6967   28.4838   13.3777 C   0  0  0  0  0  0  0  0  0  0  0  0
   18.5256   28.2339   12.4199 C   0  0  0  0  0  0  0  0  0  0  0  0
   17.3547   27.5692   13.1565 C   0  0  0  0  0  0  0  0  0  0  0  0
   18.1086   29.5149   11.6910 C   0  0  0  0  0  0  0  0  0  0  0  0
   16.9694   29.3205   10.7144 C   0  0  0  0  0  0  0  0  0  0  0  0
  5  6  2  0  0  0
  6  9  1  0  0  0
  6  7  1  0  0  0
  9 12  1  0  0  0
  9 10  1  0  0  0
 12 14  1  0  0  0
 12 13  1  0  0  0
  7  4  1  0  0  0
  4 15  1  0  0  0
  4  1  1  0  0  0
 15 16  1  0  0  0
 16 17  2  0  0  0
 16 21  1  0  0  0
 17 18  1  0  0  0
 18 19  2  0  0  0
 19 20  1  0  0  0
 20 21  2  0  0  0
  1 22  1  0  0  0
  1  2  1  0  0  0
 22 23  1  0  0  0
 23 24  1  0  0  0
 23 36  1  0  0  0
 36 37  1  0  0  0
 37 38  1  0  0  0
 37 39  1  0  0  0
 39 40  1  0  0  0
 24 26  2  0  0  0
 24 25  2  0  0  0
 24 27  1  0  0  0
 27 28  2  0  0  0
 27 35  1  0  0  0
 28 29  1  0  0  0
 29 30  1  0  0  0
 29 33  2  0  0  0
 30 31  1  0  0  0
 31 32  2  0  0  0
 32 33  1  0  0  0
 33 34  1  0  0  0
 34 35  2  0  0  0
 10 11  1  0  0  0
  7  8  1  0  0  0
  2  3  1  0  0  0
M  END
> <minimizedAffinity>
-8.89035

$$$$
2QI3_MZ5_B_200


 40 42  0  0  0  0  0  0  0  0999 V2000
   19.1318   31.0956   15.8076 C   0  0  0  0  0  0  0  0  0  0  0  0
   19.3063   30.4190   17.0526 O   0  0  0  0  0  0  0  0  0  0  0  0
   18.9655   30.9730   17.7722 H   0  0  0  0  0  0  0  0  0  0  0  0
   17.6521   31.3290   15.4804 C   0  0  0  0  0  0  0  0  0  0  0  0
   15.0321   31.9663   16.1425 O   0  0  0  0  0  0  0  0  0  0  0  0
   15.8949   32.7846   16.3898 C   0  0  0  0  0  0  0  0  0  0  0  0
   17.1952   32.5675   16.1282 N   0  0  0  0  0  0  0  0  0  0  0  0
   17.8568   33.2532   16.3759 H   0  0  0  0  0  0  0  0  0  0  0  0
   15.4454   34.0913   16.9959 C   0  0  0  0  0  0  0  0  0  0  0  0
   15.0970   33.9862   18.3799 O   0  0  0  0  0  0  0  0  0  0  0  0
   15.8730   33.7022   18.8880 H   0  0  0  0  0  0  0  0  0  0  0  0
   16.6166   35.0848   16.8973 C   0  0  0  0  0  0  0  0  0  0  0  0
   17.3232   35.2505   18.2396 C   0  0  0  0  0  0  0  0  0  0  0  0
   16.1640   36.4448   16.3564 C   0  0  0  0  0  0  0  0  0  0  0  0
   17.3890   31.4847   13.9764 C   0  0  0  0  0  0  0  0  0  0  0  0
   17.7244   30.2272   13.2099 C   0  0  0  0  0  0  0  0  0  0  0  0
   17.6408   28.9851   13.8310 C   0  0  0  0  0  0  0  0  0  0  0  0
   17.9543   27.8326   13.1075 C   0  0  0  0  0  0  0  0  0  0  0  0
   18.3650   27.8922   11.7739 C   0  0  0  0  0  0  0  0  0  0  0  0
   18.4387   29.1388   11.1596 C   0  0  0  0  0  0  0  0  0  0  0  0
   18.1285   30.3039   11.8688 C   0  0  0  0  0  0  0  0  0  0  0  0
   19.9120   32.4053   15.8963 C   0  0  0  0  0  0  0  0  0  0  0  0
   21.3044   32.1664   15.4734 N   0  0  0  0  0  0  0  0  0  0  0  0
   21.4962   32.1781   13.8560 S   0  0  0  0  0  0  0  0  0  0  0  0
   22.6694   32.9368   13.5551 O   0  0  0  0  0  0  0  0  0  0  0  0
   20.2985   32.7881   13.3342 O   0  0  0  0  0  0  0  0  0  0  0  0
   21.6646   30.6593   13.2685 C   0  0  0  0  0  0  0  0  0  0  0  0
   21.9262   30.3458   11.9048 C   0  0  0  0  0  0  0  0  0  0  0  0
   22.0352   28.9960   11.4694 C   0  0  0  0  0  0  0  0  0  0  0  0
   22.3461   28.5057    9.8545 S   0  0  0  0  0  0  0  0  0  0  0  0
   22.2428   26.8880   10.4900 C   0  0  0  0  0  0  0  0  0  0  0  0
   21.9789   26.7735   11.8088 N   0  0  0  0  0  0  0  0  0  0  0  0
   21.8606   27.9733   12.4113 C   0  0  0  0  0  0  0  0  0  0  0  0
   21.6019   28.2812   13.7344 C   0  0  0  0  0  0  0  0  0  0  0  0
   21.5029   29.5985   14.1613 C   0  0  0  0  0  0  0  0  0  0  0  0
   22.2534   33.0426   16.1881 C   0  0  0  0  0  0  0  0  0  0  0  0
   21.5182   34.2580   16.7658 C   0  0  0  0  0  0  0  0  0  0  0  0
   21.9981   34.5544   18.1932 C   0  0  0  0  0  0  0  0  0  0  0  0
   21.6300   35.4764   15.8444 C   0  0  0  0  0  0  0  0  0  0  0  0
   21.6023   36.8011   16.5751 C   0  0  0  0  0  0  0  0  0  0  0  0
  5  6  2  0  0  0
  6  9  1  0  0  0
  6  7  1  0  0  0
  9 12  1  0  0  0
  9 10  1  0  0  0
 12 14  1  0  0  0
 12 13  1  0  0  0
  7  4  1  0  0  0
  4 15  1  0  0  0
  4  1  1  0  0  0
 15 16  1  0  0  0
 16 17  2  0  0  0
 16 21  1  0  0  0
 17 18  1  0  0  0
 18 19  2  0  0  0
 19 20  1  0  0  0
 20 21  2  0  0  0
  1 22  1  0  0  0
  1  2  1  0  0  0
 22 23  1  0  0  0
 23 24  1  0  0  0
 23 36  1  0  0  0
 36 37  1  0  0  0
 37 38  1  0  0  0
 37 39  1  0  0  0
 39 40  1  0  0  0
 24 26  2  0  0  0
 24 25  2  0  0  0
 24 27  1  0  0  0
 27 28  2  0  0  0
 27 35  1  0  0  0
 28 29  1  0  0  0
 29 30  1  0  0  0
 29 33  2  0  0  0
 30 31  1  0  0  0
 31 32  2  0  0  0
 32 33  1  0  0  0
 33 34  1  0  0  0
 34 35  2  0  0  0
 10 11  1  0  0  0
  7  8  1  0  0  0
  2  3  1  0  0  0
M  END
> <minimizedAffinity>
-8.65563

$$$$
2QI3_MZ5_B_200


 40 42  0  0  0  0  0  0  0  0999 V2000
   21.2111   31.6665   12.8690 C   0  0  0  0  0  0  0  0  0  0  0  0
   20.8232   31.6692   11.4951 O   0  0  0  0  0  0  0  0  0  0  0  0
   20.1347   31.0011   11.3523 H   0  0  0  0  0  0  0  0  0  0  0  0
   20.0556   32.0635   13.7954 C   0  0  0  0  0  0  0  0  0  0  0  0
   20.8624   31.9571   16.4499 O   0  0  0  0  0  0  0  0  0  0  0  0
   20.8204   33.0457   15.9130 C   0  0  0  0  0  0  0  0  0  0  0  0
   20.4629   33.2056   14.6272 N   0  0  0  0  0  0  0  0  0  0  0  0
   20.4741   34.1078   14.2334 H   0  0  0  0  0  0  0  0  0  0  0  0
   21.1715   34.2421   16.7627 C   0  0  0  0  0  0  0  0  0  0  0  0
   20.3187   34.4013   17.9008 O   0  0  0  0  0  0  0  0  0  0  0  0
   20.3991   33.6246   18.4763 H   0  0  0  0  0  0  0  0  0  0  0  0
   22.6023   34.0409   17.2928 C   0  0  0  0  0  0  0  0  0  0  0  0
   22.8881   34.9467   18.4871 C   0  0  0  0  0  0  0  0  0  0  0  0
   23.6498   34.2520   16.1950 C   0  0  0  0  0  0  0  0  0  0  0  0
   18.7953   32.4910   13.0309 C   0  0  0  0  0  0  0  0  0  0  0  0
   17.6504   32.8133   13.9619 C   0  0  0  0  0  0  0  0  0  0  0  0
   17.0245   31.7989   14.6795 C   0  0  0  0  0  0  0  0  0  0  0  0
   15.9677   32.1145   15.5360 C   0  0  0  0  0  0  0  0  0  0  0  0
   15.5092   33.4255   15.6838 C   0  0  0  0  0  0  0  0  0  0  0  0
   16.1464   34.4339   14.9670 C   0  0  0  0  0  0  0  0  0  0  0  0
   17.2066   34.1363   14.1043 C   0  0  0  0  0  0  0  0  0  0  0  0
   21.7416   30.2692   13.1821 C   0  0  0  0  0  0  0  0  0  0  0  0
   21.0222   29.2838   12.3537 N   0  0  0  0  0  0  0  0  0  0  0  0
   21.9971   28.4610   11.3411 S   0  0  0  0  0  0  0  0  0  0  0  0
   23.2246   28.1988   12.0244 O   0  0  0  0  0  0  0  0  0  0  0  0
   22.1769   29.3235   10.1998 O   0  0  0  0  0  0  0  0  0  0  0  0
   21.3156   27.0446   10.8833 C   0  0  0  0  0  0  0  0  0  0  0  0
   20.1683   26.9337   10.0481 C   0  0  0  0  0  0  0  0  0  0  0  0
   19.6223   25.6630    9.7152 C   0  0  0  0  0  0  0  0  0  0  0  0
   18.2458   25.4141    8.7210 S   0  0  0  0  0  0  0  0  0  0  0  0
   18.5194   23.7230    9.0324 C   0  0  0  0  0  0  0  0  0  0  0  0
   19.5606   23.4181    9.8357 N   0  0  0  0  0  0  0  0  0  0  0  0
   20.2283   24.5154   10.2437 C   0  0  0  0  0  0  0  0  0  0  0  0
   21.3400   24.6270   11.0587 C   0  0  0  0  0  0  0  0  0  0  0  0
   21.8777   25.8664   11.3777 C   0  0  0  0  0  0  0  0  0  0  0  0
   20.1469   28.4169   13.1672 C   0  0  0  0  0  0  0  0  0  0  0  0
   18.6831   28.8451   13.0076 C   0  0  0  0  0  0  0  0  0  0  0  0
   18.4203   29.3592   11.5855 C   0  0  0  0  0  0  0  0  0  0  0  0
   17.7196   27.7261   13.4143 C   0  0  0  0  0  0  0  0  0  0  0  0
   17.0422   27.0463   12.2446 C   0  0  0  0  0  0  0  0  0  0  0  0
  5  6  2  0  0  0
  6  9  1  0  0  0
  6  7  1  0  0  0
  9 12  1  0  0  0
  9 10  1  0  0  0
 12 14  1  0  0  0
 12 13  1  0  0  0
  7  4  1  0  0  0
  4 15  1  0  0  0
  4  1  1  0  0  0
 15 16  1  0  0  0
 16 17  2  0  0  0
 16 21  1  0  0  0
 17 18  1  0  0  0
 18 19  2  0  0  0
 19 20  1  0  0  0
 20 21  2  0  0  0
  1 22  1  0  0  0
  1  2  1  0  0  0
 22 23  1  0  0  0
 23 24  1  0  0  0
 23 36  1  0  0  0
 36 37  1  0  0  0
 37 38  1  0  0  0
 37 39  1  0  0  0
 39 40  1  0  0  0
 24 26  2  0  0  0
 24 25  2  0  0  0
 24 27  1  0  0  0
 27 28  2  0  0  0
 27 35  1  0  0  0
 28 29  1  0  0  0
 29 30  1  0  0  0
 29 33  2  0  0  0
 30 31  1  0  0  0
 31 32  2  0  0  0
 32 33  1  0  0  0
 33 34  1  0  0  0
 34 35  2  0  0  0
 10 11  1  0  0  0
  7  8  1  0  0  0
  2  3  1  0  0  0
M  END
> <minimizedAffinity>
-8.60876

$$$$
2QI3_MZ5_B_200


 40 42  0  0  0  0  0  0  0  0999 V2000
   21.3021   28.6660   12.8102 C   0  0  0  0  0  0  0  0  0  0  0  0
   20.7336   28.1027   13.9924 O   0  0  0  0  0  0  0  0  0  0  0  0
   20.0195   27.4930   13.7490 H   0  0  0  0  0  0  0  0  0  0  0  0
   21.9565   27.6016   11.9214 C   0  0  0  0  0  0  0  0  0  0  0  0
   22.3999   24.8893   11.5269 O   0  0  0  0  0  0  0  0  0  0  0  0
   21.2760   25.3126   11.3457 C   0  0  0  0  0  0  0  0  0  0  0  0
   20.9505   26.6039   11.5280 N   0  0  0  0  0  0  0  0  0  0  0  0
   20.0174   26.8882   11.3951 H   0  0  0  0  0  0  0  0  0  0  0  0
   20.2382   24.3217   10.8789 C   0  0  0  0  0  0  0  0  0  0  0  0
   19.9064   23.3389   11.8648 O   0  0  0  0  0  0  0  0  0  0  0  0
   19.5336   23.7772   12.6457 H   0  0  0  0  0  0  0  0  0  0  0  0
   18.9492   25.1015   10.5642 C   0  0  0  0  0  0  0  0  0  0  0  0
   17.7125   24.3630   11.0679 C   0  0  0  0  0  0  0  0  0  0  0  0
   18.8209   25.4071    9.0685 C   0  0  0  0  0  0  0  0  0  0  0  0
   22.5447   28.1813   10.6277 C   0  0  0  0  0  0  0  0  0  0  0  0
   23.7262   27.3800   10.1343 C   0  0  0  0  0  0  0  0  0  0  0  0
   24.8755   27.2762   10.9113 C   0  0  0  0  0  0  0  0  0  0  0  0
   25.9586   26.5313   10.4400 C   0  0  0  0  0  0  0  0  0  0  0  0
   25.9262   25.8946    9.1973 C   0  0  0  0  0  0  0  0  0  0  0  0
   24.7695   25.9987    8.4307 C   0  0  0  0  0  0  0  0  0  0  0  0
   23.6749   26.7407    8.8867 C   0  0  0  0  0  0  0  0  0  0  0  0
   20.1824   29.4083   12.0843 C   0  0  0  0  0  0  0  0  0  0  0  0
   19.4633   30.2596   13.0503 N   0  0  0  0  0  0  0  0  0  0  0  0
   19.7009   31.8522   12.8052 S   0  0  0  0  0  0  0  0  0  0  0  0
   18.4470   32.5173   12.9718 O   0  0  0  0  0  0  0  0  0  0  0  0
   20.2054   31.9599   11.4588 O   0  0  0  0  0  0  0  0  0  0  0  0
   20.7853   32.4601   13.8705 C   0  0  0  0  0  0  0  0  0  0  0  0
   20.4450   33.2352   15.0149 C   0  0  0  0  0  0  0  0  0  0  0  0
   21.4510   33.7480   15.8801 C   0  0  0  0  0  0  0  0  0  0  0  0
   21.1544   34.6921   17.2821 S   0  0  0  0  0  0  0  0  0  0  0  0
   22.8879   34.7179   17.4423 C   0  0  0  0  0  0  0  0  0  0  0  0
   23.5916   34.0711   16.4892 N   0  0  0  0  0  0  0  0  0  0  0  0
   22.7933   33.4896   15.5721 C   0  0  0  0  0  0  0  0  0  0  0  0
   23.1206   32.7402   14.4569 C   0  0  0  0  0  0  0  0  0  0  0  0
   22.1390   32.2332   13.6164 C   0  0  0  0  0  0  0  0  0  0  0  0
   18.0400   29.8837   13.1605 C   0  0  0  0  0  0  0  0  0  0  0  0
   17.7113   28.7620   12.1679 C   0  0  0  0  0  0  0  0  0  0  0  0
   17.2612   27.4959   12.9096 C   0  0  0  0  0  0  0  0  0  0  0  0
   16.6956   29.2180   11.1160 C   0  0  0  0  0  0  0  0  0  0  0  0
   16.6606   28.3457    9.8803 C   0  0  0  0  0  0  0  0  0  0  0  0
  5  6  2  0  0  0
  6  9  1  0  0  0
  6  7  1  0  0  0
  9 12  1  0  0  0
  9 10  1  0  0  0
 12 14  1  0  0  0
 12 13  1  0  0  0
  7  4  1  0  0  0
  4 15  1  0  0  0
  4  1  1  0  0  0
 15 16  1  0  0  0
 16 17  2  0  0  0
 16 21  1  0  0  0
 17 18  1  0  0  0
 18 19  2  0  0  0
 19 20  1  0  0  0
 20 21  2  0  0  0
  1 22  1  0  0  0
  1  2  1  0  0  0
 22 23  1  0  0  0
 23 24  1  0  0  0
 23 36  1  0  0  0
 36 37  1  0  0  0
 37 38  1  0  0  0
 37 39  1  0  0  0
 39 40  1  0  0  0
 24 26  2  0  0  0
 24 25  2  0  0  0
 24 27  1  0  0  0
 27 28  2  0  0  0
 27 35  1  0  0  0
 28 29  1  0  0  0
 29 30  1  0  0  0
 29 33  2  0  0  0
 30 31  1  0  0  0
 31 32  2  0  0  0
 32 33  1  0  0  0
 33 34  1  0  0  0
 34 35  2  0  0  0
 10 11  1  0  0  0
  7  8  1  0  0  0
  2  3  1  0  0  0
M  END
> <minimizedAffinity>
-8.51747

$$$$
2QI3_MZ5_B_200


 40 42  0  0  0  0  0  0  0  0999 V2000
   21.5714   28.8912   13.6171 C   0  0  0  0  0  0  0  0  0  0  0  0
   21.0113   28.1955   14.7308 O   0  0  0  0  0  0  0  0  0  0  0  0
   20.2066   27.7318   14.4509 H   0  0  0  0  0  0  0  0  0  0  0  0
   22.0151   27.9350   12.5035 C   0  0  0  0  0  0  0  0  0  0  0  0
   21.8827   25.3114   11.6046 O   0  0  0  0  0  0  0  0  0  0  0  0
   20.8846   25.9962   11.5050 C   0  0  0  0  0  0  0  0  0  0  0  0
   20.8362   27.2713   11.9274 N   0  0  0  0  0  0  0  0  0  0  0  0
   19.9923   27.7722   11.8493 H   0  0  0  0  0  0  0  0  0  0  0  0
   19.6793   25.3595   10.8581 C   0  0  0  0  0  0  0  0  0  0  0  0
   18.9637   24.4796   11.7308 O   0  0  0  0  0  0  0  0  0  0  0  0
   18.6322   24.9795   12.4932 H   0  0  0  0  0  0  0  0  0  0  0  0
   18.7103   26.4852   10.4549 C   0  0  0  0  0  0  0  0  0  0  0  0
   17.3422   26.3044   11.1060 C   0  0  0  0  0  0  0  0  0  0  0  0
   18.5711   26.5971    8.9334 C   0  0  0  0  0  0  0  0  0  0  0  0
   22.7359   28.6499   11.3525 C   0  0  0  0  0  0  0  0  0  0  0  0
   23.7350   27.7501   10.6645 C   0  0  0  0  0  0  0  0  0  0  0  0
   24.8340   27.2606   11.3633 C   0  0  0  0  0  0  0  0  0  0  0  0
   25.7479   26.4297   10.7119 C   0  0  0  0  0  0  0  0  0  0  0  0
   25.5970   26.0845    9.3669 C   0  0  0  0  0  0  0  0  0  0  0  0
   24.4907   26.5736    8.6787 C   0  0  0  0  0  0  0  0  0  0  0  0
   23.5650   27.4072    9.3150 C   0  0  0  0  0  0  0  0  0  0  0  0
   20.5172   29.8840   13.1327 C   0  0  0  0  0  0  0  0  0  0  0  0
   20.4459   31.0119   14.0801 N   0  0  0  0  0  0  0  0  0  0  0  0
   19.2331   30.8704   15.1581 S   0  0  0  0  0  0  0  0  0  0  0  0
   19.8017   30.5120   16.4193 O   0  0  0  0  0  0  0  0  0  0  0  0
   18.3723   29.8408   14.6310 O   0  0  0  0  0  0  0  0  0  0  0  0
   18.4103   32.2774   15.3121 C   0  0  0  0  0  0  0  0  0  0  0  0
   18.1998   32.9585   16.5441 C   0  0  0  0  0  0  0  0  0  0  0  0
   17.4514   34.1671   16.5966 C   0  0  0  0  0  0  0  0  0  0  0  0
   17.1361   35.0674   18.0231 S   0  0  0  0  0  0  0  0  0  0  0  0
   16.2588   36.1385   16.9674 C   0  0  0  0  0  0  0  0  0  0  0  0
   16.2190   35.7995   15.6614 N   0  0  0  0  0  0  0  0  0  0  0  0
   16.9059   34.6681   15.4070 C   0  0  0  0  0  0  0  0  0  0  0  0
   17.1083   34.0013   14.2125 C   0  0  0  0  0  0  0  0  0  0  0  0
   17.8450   32.8259   14.1597 C   0  0  0  0  0  0  0  0  0  0  0  0
   21.7567   31.2939   14.6978 C   0  0  0  0  0  0  0  0  0  0  0  0
   22.2762   32.6602   14.2343 C   0  0  0  0  0  0  0  0  0  0  0  0
   21.4726   33.7950   14.8840 C   0  0  0  0  0  0  0  0  0  0  0  0
   23.7834   32.8004   14.4679 C   0  0  0  0  0  0  0  0  0  0  0  0
   24.1510   33.8794   15.4630 C   0  0  0  0  0  0  0  0  0  0  0  0
  5  6  2  0  0  0
  6  9  1  0  0  0
  6  7  1  0  0  0
  9 12  1  0  0  0
  9 10  1  0  0  0
 12 14  1  0  0  0
 12 13  1  0  0  0
  7  4  1  0  0  0
  4 15  1  0  0  0
  4  1  1  0  0  0
 15 16  1  0  0  0
 16 17  2  0  0  0
 16 21  1  0  0  0
 17 18  1  0  0  0
 18 19  2  0  0  0
 19 20  1  0  0  0
 20 21  2  0  0  0
  1 22  1  0  0  0
  1  2  1  0  0  0
 22 23  1  0  0  0
 23 24  1  0  0  0
 23 36  1  0  0  0
 36 37  1  0  0  0
 37 38  1  0  0  0
 37 39  1  0  0  0
 39 40  1  0  0  0
 24 26  2  0  0  0
 24 25  2  0  0  0
 24 27  1  0  0  0
 27 28  2  0  0  0
 27 35  1  0  0  0
 28 29  1  0  0  0
 29 30  1  0  0  0
 29 33  2  0  0  0
 30 31  1  0  0  0
 31 32  2  0  0  0
 32 33  1  0  0  0
 33 34  1  0  0  0
 34 35  2  0  0  0
 10 11  1  0  0  0
  7  8  1  0  0  0
  2  3  1  0  0  0
M  END
> <minimizedAffinity>
-8.49074

$$$$
2QI3_MZ5_B_200


 40 42  0  0  0  0  0  0  0  0999 V2000
   21.2089   28.6114   13.2833 C   0  0  0  0  0  0  0  0  0  0  0  0
   20.9409   27.9128   14.4992 O   0  0  0  0  0  0  0  0  0  0  0  0
   20.2821   27.2199   14.3355 H   0  0  0  0  0  0  0  0  0  0  0  0
   21.8291   27.6988   12.2185 C   0  0  0  0  0  0  0  0  0  0  0  0
   21.7977   25.0043   11.5498 O   0  0  0  0  0  0  0  0  0  0  0  0
   20.8543   25.6859   11.2028 C   0  0  0  0  0  0  0  0  0  0  0  0
   20.7615   26.9951   11.4924 N   0  0  0  0  0  0  0  0  0  0  0  0
   19.9606   27.4943   11.2120 H   0  0  0  0  0  0  0  0  0  0  0  0
   19.7747   25.0027   10.4000 C   0  0  0  0  0  0  0  0  0  0  0  0
   20.1864   23.7504    9.8431 O   0  0  0  0  0  0  0  0  0  0  0  0
   20.4219   23.1399   10.5591 H   0  0  0  0  0  0  0  0  0  0  0  0
   18.5955   24.7127   11.3456 C   0  0  0  0  0  0  0  0  0  0  0  0
   18.0660   23.2938   11.1593 C   0  0  0  0  0  0  0  0  0  0  0  0
   17.4667   25.7345   11.1760 C   0  0  0  0  0  0  0  0  0  0  0  0
   22.6506   28.4685   11.1753 C   0  0  0  0  0  0  0  0  0  0  0  0
   23.7083   27.6009   10.5352 C   0  0  0  0  0  0  0  0  0  0  0  0
   23.5669   27.1829    9.2158 C   0  0  0  0  0  0  0  0  0  0  0  0
   24.5543   26.3812    8.6394 C   0  0  0  0  0  0  0  0  0  0  0  0
   25.6804   25.9731    9.3580 C   0  0  0  0  0  0  0  0  0  0  0  0
   25.8160   26.4022   10.6749 C   0  0  0  0  0  0  0  0  0  0  0  0
   24.8368   27.2056   11.2686 C   0  0  0  0  0  0  0  0  0  0  0  0
   19.8889   29.2208   12.8164 C   0  0  0  0  0  0  0  0  0  0  0  0
   19.5961   30.4164   13.6286 N   0  0  0  0  0  0  0  0  0  0  0  0
   20.0688   31.8055   12.9217 S   0  0  0  0  0  0  0  0  0  0  0  0
   18.9027   32.5918   12.6677 O   0  0  0  0  0  0  0  0  0  0  0  0
   20.7381   31.4075   11.7082 O   0  0  0  0  0  0  0  0  0  0  0  0
   21.0909   32.6437   13.8876 C   0  0  0  0  0  0  0  0  0  0  0  0
   20.6898   33.6681   14.7909 C   0  0  0  0  0  0  0  0  0  0  0  0
   21.6452   34.3670   15.5798 C   0  0  0  0  0  0  0  0  0  0  0  0
   21.2737   35.6162   16.6962 S   0  0  0  0  0  0  0  0  0  0  0  0
   22.9926   35.6731   16.9671 C   0  0  0  0  0  0  0  0  0  0  0  0
   23.7460   34.8172   16.2446 N   0  0  0  0  0  0  0  0  0  0  0  0
   22.9998   34.0385   15.4362 C   0  0  0  0  0  0  0  0  0  0  0  0
   23.3865   33.0461   14.5541 C   0  0  0  0  0  0  0  0  0  0  0  0
   22.4538   32.3586   13.7896 C   0  0  0  0  0  0  0  0  0  0  0  0
   18.1947   30.4355   14.0924 C   0  0  0  0  0  0  0  0  0  0  0  0
   18.1425   30.6718   15.6067 C   0  0  0  0  0  0  0  0  0  0  0  0
   19.5371   30.5164   16.2284 C   0  0  0  0  0  0  0  0  0  0  0  0
   17.4954   32.0178   15.9464 C   0  0  0  0  0  0  0  0  0  0  0  0
   16.3345   32.3833   15.0475 C   0  0  0  0  0  0  0  0  0  0  0  0
  5  6  2  0  0  0
  6  9  1  0  0  0
  6  7  1  0  0  0
  9 12  1  0  0  0
  9 10  1  0  0  0
 12 14  1  0  0  0
 12 13  1  0  0  0
  7  4  1  0  0  0
  4 15  1  0  0  0
  4  1  1  0  0  0
 15 16  1  0  0  0
 16 17  2  0  0  0
 16 21  1  0  0  0
 17 18  1  0  0  0
 18 19  2  0  0  0
 19 20  1  0  0  0
 20 21  2  0  0  0
  1 22  1  0  0  0
  1  2  1  0  0  0
 22 23  1  0  0  0
 23 24  1  0  0  0
 23 36  1  0  0  0
 36 37  1  0  0  0
 37 38  1  0  0  0
 37 39  1  0  0  0
 39 40  1  0  0  0
 24 26  2  0  0  0
 24 25  2  0  0  0
 24 27  1  0  0  0
 27 28  2  0  0  0
 27 35  1  0  0  0
 28 29  1  0  0  0
 29 30  1  0  0  0
 29 33  2  0  0  0
 30 31  1  0  0  0
 31 32  2  0  0  0
 32 33  1  0  0  0
 33 34  1  0  0  0
 34 35  2  0  0  0
 10 11  1  0  0  0
  7  8  1  0  0  0
  2  3  1  0  0  0
M  END
> <minimizedAffinity>
-8.39361

$$$$
2QI3_MZ5_B_200


 40 42  0  0  0  0  0  0  0  0999 V2000
   21.0155   30.8712   13.3700 C   0  0  0  0  0  0  0  0  0  0  0  0
   22.4391   30.7746   13.4158 O   0  0  0  0  0  0  0  0  0  0  0  0
   22.6938   29.9935   13.9315 H   0  0  0  0  0  0  0  0  0  0  0  0
   20.3794   29.6774   12.6479 C   0  0  0  0  0  0  0  0  0  0  0  0
   20.7821   28.0746   10.4169 O   0  0  0  0  0  0  0  0  0  0  0  0
   21.4692   27.8663   11.3965 C   0  0  0  0  0  0  0  0  0  0  0  0
   21.3684   28.5967   12.5202 N   0  0  0  0  0  0  0  0  0  0  0  0
   21.9705   28.4039   13.2749 H   0  0  0  0  0  0  0  0  0  0  0  0
   22.4480   26.7208   11.3151 C   0  0  0  0  0  0  0  0  0  0  0  0
   22.2181   25.8544   10.1995 O   0  0  0  0  0  0  0  0  0  0  0  0
   22.3155   26.3560    9.3751 H   0  0  0  0  0  0  0  0  0  0  0  0
   23.8572   27.3156   11.1443 C   0  0  0  0  0  0  0  0  0  0  0  0
   24.0375   27.9371    9.7624 C   0  0  0  0  0  0  0  0  0  0  0  0
   24.9493   26.2753   11.4126 C   0  0  0  0  0  0  0  0  0  0  0  0
   19.1735   29.0968   13.3990 C   0  0  0  0  0  0  0  0  0  0  0  0
   18.0412   28.7429   12.4641 C   0  0  0  0  0  0  0  0  0  0  0  0
   17.5615   29.6831   11.5578 C   0  0  0  0  0  0  0  0  0  0  0  0
   16.5142   29.3392   10.7006 C   0  0  0  0  0  0  0  0  0  0  0  0
   15.9216   28.0749   10.7362 C   0  0  0  0  0  0  0  0  0  0  0  0
   16.4132   27.1392   11.6415 C   0  0  0  0  0  0  0  0  0  0  0  0
   17.4616   27.4662   12.5079 C   0  0  0  0  0  0  0  0  0  0  0  0
   20.5281   30.9938   14.8120 C   0  0  0  0  0  0  0  0  0  0  0  0
   20.1579   32.3963   15.0780 N   0  0  0  0  0  0  0  0  0  0  0  0
   21.4418   33.3577   15.3609 S   0  0  0  0  0  0  0  0  0  0  0  0
   21.9273   33.8294   14.1022 O   0  0  0  0  0  0  0  0  0  0  0  0
   22.4006   32.5232   16.0418 O   0  0  0  0  0  0  0  0  0  0  0  0
   21.0303   34.6348   16.2989 C   0  0  0  0  0  0  0  0  0  0  0  0
   21.6107   35.9306   16.1979 C   0  0  0  0  0  0  0  0  0  0  0  0
   21.2136   36.9831   17.0687 C   0  0  0  0  0  0  0  0  0  0  0  0
   21.8463   38.5779   17.0359 S   0  0  0  0  0  0  0  0  0  0  0  0
   20.7646   38.8681   18.3691 C   0  0  0  0  0  0  0  0  0  0  0  0
   20.0206   37.8200   18.7816 N   0  0  0  0  0  0  0  0  0  0  0  0
   20.2471   36.7132   18.0467 C   0  0  0  0  0  0  0  0  0  0  0  0
   19.6887   35.4519   18.1452 C   0  0  0  0  0  0  0  0  0  0  0  0
   20.0704   34.4265   17.2907 C   0  0  0  0  0  0  0  0  0  0  0  0
   19.2373   32.9253   14.0523 C   0  0  0  0  0  0  0  0  0  0  0  0
   17.8399   33.1276   14.6505 C   0  0  0  0  0  0  0  0  0  0  0  0
   17.1972   34.4105   14.1058 C   0  0  0  0  0  0  0  0  0  0  0  0
   16.9538   31.8951   14.4458 C   0  0  0  0  0  0  0  0  0  0  0  0
   16.8398   31.0130   15.6698 C   0  0  0  0  0  0  0  0  0  0  0  0
  5  6  2  0  0  0
  6  9  1  0  0  0
  6  7  1  0  0  0
  9 12  1  0  0  0
  9 10  1  0  0  0
 12 14  1  0  0  0
 12 13  1  0  0  0
  7  4  1  0  0  0
  4 15  1  0  0  0
  4  1  1  0  0  0
 15 16  1  0  0  0
 16 17  2  0  0  0
 16 21  1  0  0  0
 17 18  1  0  0  0
 18 19  2  0  0  0
 19 20  1  0  0  0
 20 21  2  0  0  0
  1 22  1  0  0  0
  1  2  1  0  0  0
 22 23  1  0  0  0
 23 24  1  0  0  0
 23 36  1  0  0  0
 36 37  1  0  0  0
 37 38  1  0  0  0
 37 39  1  0  0  0
 39 40  1  0  0  0
 24 26  2  0  0  0
 24 25  2  0  0  0
 24 27  1  0  0  0
 27 28  2  0  0  0
 27 35  1  0  0  0
 28 29  1  0  0  0
 29 30  1  0  0  0
 29 33  2  0  0  0
 30 31  1  0  0  0
 31 32  2  0  0  0
 32 33  1  0  0  0
 33 34  1  0  0  0
 34 35  2  0  0  0
 10 11  1  0  0  0
  7  8  1  0  0  0
  2  3  1  0  0  0
M  END
> <minimizedAffinity>
-8.37279

$$$$
2QI3_MZ5_B_200


 40 42  0  0  0  0  0  0  0  0999 V2000
   19.1168   31.1312   15.6382 C   0  0  0  0  0  0  0  0  0  0  0  0
   18.5560   30.8921   16.9291 O   0  0  0  0  0  0  0  0  0  0  0  0
   18.0108   31.6506   17.1904 H   0  0  0  0  0  0  0  0  0  0  0  0
   18.0387   31.2542   14.5549 C   0  0  0  0  0  0  0  0  0  0  0  0
   18.7250   31.0194   11.8748 O   0  0  0  0  0  0  0  0  0  0  0  0
   18.3425   30.0215   12.4520 C   0  0  0  0  0  0  0  0  0  0  0  0
   18.0052   30.0221   13.7531 N   0  0  0  0  0  0  0  0  0  0  0  0
   17.7294   29.1783   14.1789 H   0  0  0  0  0  0  0  0  0  0  0  0
   18.2371   28.7567   11.6360 C   0  0  0  0  0  0  0  0  0  0  0  0
   17.4915   27.7218   12.2848 O   0  0  0  0  0  0  0  0  0  0  0  0
   16.5828   28.0249   12.4372 H   0  0  0  0  0  0  0  0  0  0  0  0
   17.4975   29.0979   10.3302 C   0  0  0  0  0  0  0  0  0  0  0  0
   15.9838   29.0321   10.5119 C   0  0  0  0  0  0  0  0  0  0  0  0
   17.9399   28.1953    9.1741 C   0  0  0  0  0  0  0  0  0  0  0  0
   16.6305   31.4537   15.1317 C   0  0  0  0  0  0  0  0  0  0  0  0
   16.3556   32.9008   15.4662 C   0  0  0  0  0  0  0  0  0  0  0  0
   16.6817   33.9035   14.5586 C   0  0  0  0  0  0  0  0  0  0  0  0
   16.4205   35.2362   14.8838 C   0  0  0  0  0  0  0  0  0  0  0  0
   15.8501   35.5949   16.1073 C   0  0  0  0  0  0  0  0  0  0  0  0
   15.5212   34.5840   17.0054 C   0  0  0  0  0  0  0  0  0  0  0  0
   15.7756   33.2436   16.6966 C   0  0  0  0  0  0  0  0  0  0  0  0
   19.9667   32.3953   15.7461 C   0  0  0  0  0  0  0  0  0  0  0  0
   21.3924   32.0250   15.6739 N   0  0  0  0  0  0  0  0  0  0  0  0
   21.9848   32.0408   14.1568 S   0  0  0  0  0  0  0  0  0  0  0  0
   23.3464   32.4707   14.2179 O   0  0  0  0  0  0  0  0  0  0  0  0
   21.1491   32.9643   13.4305 O   0  0  0  0  0  0  0  0  0  0  0  0
   21.9137   30.5528   13.4777 C   0  0  0  0  0  0  0  0  0  0  0  0
   22.1070   30.2878   12.0925 C   0  0  0  0  0  0  0  0  0  0  0  0
   22.0049   28.9661   11.5765 C   0  0  0  0  0  0  0  0  0  0  0  0
   22.2168   28.5346    9.9291 S   0  0  0  0  0  0  0  0  0  0  0  0
   21.8783   26.9149   10.4708 C   0  0  0  0  0  0  0  0  0  0  0  0
   21.6174   26.7608   11.7862 N   0  0  0  0  0  0  0  0  0  0  0  0
   21.6899   27.9255   12.4605 C   0  0  0  0  0  0  0  0  0  0  0  0
   21.4981   28.1871   13.8047 C   0  0  0  0  0  0  0  0  0  0  0  0
   21.6051   29.4757   14.3101 C   0  0  0  0  0  0  0  0  0  0  0  0
   22.2083   32.7921   16.6358 C   0  0  0  0  0  0  0  0  0  0  0  0
   21.5559   34.1511   16.9165 C   0  0  0  0  0  0  0  0  0  0  0  0
   21.5467   34.4478   18.4223 C   0  0  0  0  0  0  0  0  0  0  0  0
   22.2103   35.2710   16.1019 C   0  0  0  0  0  0  0  0  0  0  0  0
   22.2810   36.5959   16.8292 C   0  0  0  0  0  0  0  0  0  0  0  0
  5  6  2  0  0  0
  6  9  1  0  0  0
  6  7  1  0  0  0
  9 12  1  0  0  0
  9 10  1  0  0  0
 12 14  1  0  0  0
 12 13  1  0  0  0
  7  4  1  0  0  0
  4 15  1  0  0  0
  4  1  1  0  0  0
 15 16  1  0  0  0
 16 17  2  0  0  0
 16 21  1  0  0  0
 17 18  1  0  0  0
 18 19  2  0  0  0
 19 20  1  0  0  0
 20 21  2  0  0  0
  1 22  1  0  0  0
  1  2  1  0  0  0
 22 23  1  0  0  0
 23 24  1  0  0  0
 23 36  1  0  0  0
 36 37  1  0  0  0
 37 38  1  0  0  0
 37 39  1  0  0  0
 39 40  1  0  0  0
 24 26  2  0  0  0
 24 25  2  0  0  0
 24 27  1  0  0  0
 27 28  2  0  0  0
 27 35  1  0  0  0
 28 29  1  0  0  0
 29 30  1  0  0  0
 29 33  2  0  0  0
 30 31  1  0  0  0
 31 32  2  0  0  0
 32 33  1  0  0  0
 33 34  1  0  0  0
 34 35  2  0  0  0
 10 11  1  0  0  0
  7  8  1  0  0  0
  2  3  1  0  0  0
M  END
> <minimizedAffinity>
-8.35198

$$$$
2QI3_MZ5_B_200


 40 42  0  0  0  0  0  0  0  0999 V2000
   20.2693   31.5010   12.1307 C   0  0  0  0  0  0  0  0  0  0  0  0
   20.0550   32.4220   11.0611 O   0  0  0  0  0  0  0  0  0  0  0  0
   19.1253   32.3883   10.7868 H   0  0  0  0  0  0  0  0  0  0  0  0
   19.4593   31.8689   13.3796 C   0  0  0  0  0  0  0  0  0  0  0  0
   20.3544   30.8697   15.8105 O   0  0  0  0  0  0  0  0  0  0  0  0
   20.6889   31.9959   15.5022 C   0  0  0  0  0  0  0  0  0  0  0  0
   20.3272   32.5662   14.3402 N   0  0  0  0  0  0  0  0  0  0  0  0
   20.6505   33.4714   14.1273 H   0  0  0  0  0  0  0  0  0  0  0  0
   21.5267   32.7582   16.4991 C   0  0  0  0  0  0  0  0  0  0  0  0
   22.3051   31.9129   17.3521 O   0  0  0  0  0  0  0  0  0  0  0  0
   22.9243   31.3940   16.8153 H   0  0  0  0  0  0  0  0  0  0  0  0
   22.5127   33.6389   15.7113 C   0  0  0  0  0  0  0  0  0  0  0  0
   23.5487   32.7954   14.9738 C   0  0  0  0  0  0  0  0  0  0  0  0
   23.2010   34.6682   16.6134 C   0  0  0  0  0  0  0  0  0  0  0  0
   18.2821   32.8053   13.0751 C   0  0  0  0  0  0  0  0  0  0  0  0
   17.3140   32.8920   14.2313 C   0  0  0  0  0  0  0  0  0  0  0  0
   16.8573   31.7330   14.8506 C   0  0  0  0  0  0  0  0  0  0  0  0
   15.9626   31.8313   15.9184 C   0  0  0  0  0  0  0  0  0  0  0  0
   15.4997   33.0669   16.3766 C   0  0  0  0  0  0  0  0  0  0  0  0
   15.9679   34.2206   15.7550 C   0  0  0  0  0  0  0  0  0  0  0  0
   16.8642   34.1412   14.6840 C   0  0  0  0  0  0  0  0  0  0  0  0
   19.9117   30.1127   11.6049 C   0  0  0  0  0  0  0  0  0  0  0  0
   19.3887   29.2965   12.7162 N   0  0  0  0  0  0  0  0  0  0  0  0
   17.8992   28.7019   12.4318 S   0  0  0  0  0  0  0  0  0  0  0  0
   17.0965   29.7566   11.8973 O   0  0  0  0  0  0  0  0  0  0  0  0
   17.4210   28.2423   13.7120 O   0  0  0  0  0  0  0  0  0  0  0  0
   17.9503   27.4620   11.3640 C   0  0  0  0  0  0  0  0  0  0  0  0
   18.0278   27.6165    9.9510 C   0  0  0  0  0  0  0  0  0  0  0  0
   18.0440   26.4854    9.0884 C   0  0  0  0  0  0  0  0  0  0  0  0
   18.1335   26.5559    7.3761 S   0  0  0  0  0  0  0  0  0  0  0  0
   18.0681   24.8178    7.4561 C   0  0  0  0  0  0  0  0  0  0  0  0
   17.9710   24.2737    8.6876 N   0  0  0  0  0  0  0  0  0  0  0  0
   17.9629   25.2081    9.6589 C   0  0  0  0  0  0  0  0  0  0  0  0
   17.8830   25.0618   11.0316 C   0  0  0  0  0  0  0  0  0  0  0  0
   17.8748   26.1650   11.8743 C   0  0  0  0  0  0  0  0  0  0  0  0
   20.3606   28.2742   13.1517 C   0  0  0  0  0  0  0  0  0  0  0  0
   21.4884   28.1443   12.1207 C   0  0  0  0  0  0  0  0  0  0  0  0
   22.8238   28.6112   12.7159 C   0  0  0  0  0  0  0  0  0  0  0  0
   21.5665   26.7274   11.5443 C   0  0  0  0  0  0  0  0  0  0  0  0
   22.9709   26.2843   11.1971 C   0  0  0  0  0  0  0  0  0  0  0  0
  5  6  2  0  0  0
  6  9  1  0  0  0
  6  7  1  0  0  0
  9 12  1  0  0  0
  9 10  1  0  0  0
 12 14  1  0  0  0
 12 13  1  0  0  0
  7  4  1  0  0  0
  4 15  1  0  0  0
  4  1  1  0  0  0
 15 16  1  0  0  0
 16 17  2  0  0  0
 16 21  1  0  0  0
 17 18  1  0  0  0
 18 19  2  0  0  0
 19 20  1  0  0  0
 20 21  2  0  0  0
  1 22  1  0  0  0
  1  2  1  0  0  0
 22 23  1  0  0  0
 23 24  1  0  0  0
 23 36  1  0  0  0
 36 37  1  0  0  0
 37 38  1  0  0  0
 37 39  1  0  0  0
 39 40  1  0  0  0
 24 26  2  0  0  0
 24 25  2  0  0  0
 24 27  1  0  0  0
 27 28  2  0  0  0
 27 35  1  0  0  0
 28 29  1  0  0  0
 29 30  1  0  0  0
 29 33  2  0  0  0
 30 31  1  0  0  0
 31 32  2  0  0  0
 32 33  1  0  0  0
 33 34  1  0  0  0
 34 35  2  0  0  0
 10 11  1  0  0  0
  7  8  1  0  0  0
  2  3  1  0  0  0
M  END
> <minimizedAffinity>
-8.22967

$$$$
