3JVR_AGX_A_901


 25 27  0  0  0  0  0  0  0  0999 V2000
   29.8451   -4.6923   18.5353 O   0  0  0  0  0  0  0  0  0  0  0  0
   29.7619   -6.1507   20.2002 O   0  0  0  0  0  0  0  0  0  0  0  0
   28.9122   -3.9691   20.3322 N   0  0  0  0  0  0  0  0  0  0  0  0
   29.5083   -5.0273   19.8040 C   0  0  0  0  0  0  0  0  0  0  0  0
   28.5966   -3.2581   19.7287 H   0  0  0  0  0  0  0  0  0  0  0  0
   25.3557   -2.9352   23.8074 Cl  0  0  0  0  0  0  0  0  0  0  0  0
   27.6252   -3.2678   26.1452 Cl  0  0  0  0  0  0  0  0  0  0  0  0
   28.7106   -3.8148   21.7053 C   0  0  0  0  0  0  0  0  0  0  0  0
   29.7015   -3.9652   22.7416 C   0  0  0  0  0  0  0  0  0  0  0  0
   29.3473   -3.7888   24.1066 C   0  0  0  0  0  0  0  0  0  0  0  0
   28.0023   -3.4640   24.4683 C   0  0  0  0  0  0  0  0  0  0  0  0
   27.0051   -3.3147   23.4344 C   0  0  0  0  0  0  0  0  0  0  0  0
   27.3730   -3.4890   22.0627 C   0  0  0  0  0  0  0  0  0  0  0  0
   31.1781   -4.9788   18.0050 C   0  0  0  0  0  0  0  0  0  0  0  0
   30.7014   -5.6568   16.7914 C   0  0  0  0  0  0  0  0  0  0  0  0
   32.8507   -0.2681   17.4527 C   0  0  0  0  0  0  0  0  0  0  0  0
   31.5626   -2.4508   17.7684 N   0  0  0  0  0  0  0  0  0  0  0  0
   34.1746    0.2729   17.2640 C   0  0  0  0  0  0  0  0  0  0  0  0
   33.3663   -3.8230   17.6819 N   0  0  0  0  0  0  0  0  0  0  0  0
   35.3178   -0.6009   17.2078 C   0  0  0  0  0  0  0  0  0  0  0  0
   35.1325   -2.0190   17.3443 C   0  0  0  0  0  0  0  0  0  0  0  0
   32.6973   -1.6866   17.5849 C   0  0  0  0  0  0  0  0  0  0  0  0
   33.8067   -2.5336   17.5302 C   0  0  0  0  0  0  0  0  0  0  0  0
   32.0239   -3.7317   17.8187 C   0  0  0  0  0  0  0  0  0  0  0  0
   30.6314   -2.1407   17.8455 H   0  0  0  0  0  0  0  0  0  0  0  0
 16 22  2  0  0  0
 16 18  1  0  0  0
 17 22  1  0  0  0
 17 24  1  0  0  0
 14  1  1  0  0  0
  1  4  1  0  0  0
 12  6  1  0  0  0
 18 20  2  0  0  0
 24 19  2  0  0  0
 23 19  1  0  0  0
  4  2  2  0  0  0
 11  7  1  0  0  0
 20 21  1  0  0  0
  4  3  1  0  0  0
  3  8  1  0  0  0
 23 21  2  0  0  0
 22 23  1  0  0  0
 14 24  1  0  0  0
 15 14  1  0  0  0
  8 13  2  0  0  0
  8  9  1  0  0  0
  9 10  2  0  0  0
 10 11  1  0  0  0
 12 11  2  0  0  0
 13 12  1  0  0  0
 17 25  1  0  0  0
  3  5  1  0  0  0
M  END
> <minimizedAffinity>
-7.84645

$$$$
3JVR_AGX_A_901


 25 27  0  0  0  0  0  0  0  0999 V2000
   30.0175   -4.5389   18.1852 O   0  0  0  0  0  0  0  0  0  0  0  0
   29.4187   -6.2378   19.4740 O   0  0  0  0  0  0  0  0  0  0  0  0
   29.0588   -3.9881   20.0291 N   0  0  0  0  0  0  0  0  0  0  0  0
   29.4668   -5.0305   19.3211 C   0  0  0  0  0  0  0  0  0  0  0  0
   28.9810   -3.1162   19.5786 H   0  0  0  0  0  0  0  0  0  0  0  0
   30.7880   -5.6324   24.5125 Cl  0  0  0  0  0  0  0  0  0  0  0  0
   28.0589   -4.4915   25.9186 Cl  0  0  0  0  0  0  0  0  0  0  0  0
   28.7340   -4.0683   21.3848 C   0  0  0  0  0  0  0  0  0  0  0  0
   27.5386   -3.5638   22.0134 C   0  0  0  0  0  0  0  0  0  0  0  0
   27.3472   -3.7074   23.4143 C   0  0  0  0  0  0  0  0  0  0  0  0
   28.3404   -4.3505   24.2175 C   0  0  0  0  0  0  0  0  0  0  0  0
   29.5408   -4.8555   23.5934 C   0  0  0  0  0  0  0  0  0  0  0  0
   29.7217   -4.7109   22.1814 C   0  0  0  0  0  0  0  0  0  0  0  0
   31.4284   -4.7621   17.8696 C   0  0  0  0  0  0  0  0  0  0  0  0
   31.1757   -5.5338   16.6447 C   0  0  0  0  0  0  0  0  0  0  0  0
   32.8829    0.0334   17.4449 C   0  0  0  0  0  0  0  0  0  0  0  0
   31.6950   -2.2147   17.6861 N   0  0  0  0  0  0  0  0  0  0  0  0
   34.1835    0.6414   17.3048 C   0  0  0  0  0  0  0  0  0  0  0  0
   33.5657   -3.4958   17.6311 N   0  0  0  0  0  0  0  0  0  0  0  0
   35.3694   -0.1746   17.2684 C   0  0  0  0  0  0  0  0  0  0  0  0
   35.2502   -1.6023   17.3761 C   0  0  0  0  0  0  0  0  0  0  0  0
   32.7956   -1.3930   17.5491 C   0  0  0  0  0  0  0  0  0  0  0  0
   33.9463   -2.1839   17.5138 C   0  0  0  0  0  0  0  0  0  0  0  0
   32.2169   -3.4723   17.7291 C   0  0  0  0  0  0  0  0  0  0  0  0
   30.7478   -1.9516   17.7403 H   0  0  0  0  0  0  0  0  0  0  0  0
 16 22  2  0  0  0
 16 18  1  0  0  0
 17 22  1  0  0  0
 17 24  1  0  0  0
 14  1  1  0  0  0
  1  4  1  0  0  0
 12  6  1  0  0  0
 18 20  2  0  0  0
 24 19  2  0  0  0
 23 19  1  0  0  0
  4  2  2  0  0  0
 11  7  1  0  0  0
 20 21  1  0  0  0
  4  3  1  0  0  0
  3  8  1  0  0  0
 23 21  2  0  0  0
 22 23  1  0  0  0
 14 24  1  0  0  0
 15 14  1  0  0  0
  8 13  2  0  0  0
  8  9  1  0  0  0
  9 10  2  0  0  0
 10 11  1  0  0  0
 12 11  2  0  0  0
 13 12  1  0  0  0
 17 25  1  0  0  0
  3  5  1  0  0  0
M  END
> <minimizedAffinity>
-7.05431

$$$$
3JVR_AGX_A_901


 25 27  0  0  0  0  0  0  0  0999 V2000
   30.1977   -8.2511   25.6970 O   0  0  0  0  0  0  0  0  0  0  0  0
   28.9909   -9.0137   24.0035 O   0  0  0  0  0  0  0  0  0  0  0  0
   30.5848   -7.3050   23.8055 N   0  0  0  0  0  0  0  0  0  0  0  0
   29.8397   -8.2307   24.3905 C   0  0  0  0  0  0  0  0  0  0  0  0
   31.3833   -6.9770   24.2789 H   0  0  0  0  0  0  0  0  0  0  0  0
   28.0249   -3.5802   21.4888 Cl  0  0  0  0  0  0  0  0  0  0  0  0
   29.1195   -4.6961   18.6108 Cl  0  0  0  0  0  0  0  0  0  0  0  0
   30.2904   -6.7728   22.5486 C   0  0  0  0  0  0  0  0  0  0  0  0
   30.7723   -7.2532   21.2776 C   0  0  0  0  0  0  0  0  0  0  0  0
   30.3965   -6.6002   20.0725 C   0  0  0  0  0  0  0  0  0  0  0  0
   29.5390   -5.4562   20.1071 C   0  0  0  0  0  0  0  0  0  0  0  0
   29.0555   -4.9692   21.3777 C   0  0  0  0  0  0  0  0  0  0  0  0
   29.4351   -5.6369   22.5851 C   0  0  0  0  0  0  0  0  0  0  0  0
   29.3850   -7.5857   26.7152 C   0  0  0  0  0  0  0  0  0  0  0  0
   30.4978   -7.3439   27.6442 C   0  0  0  0  0  0  0  0  0  0  0  0
   27.9955   -2.9596   25.3145 C   0  0  0  0  0  0  0  0  0  0  0  0
   29.1170   -5.0929   26.1599 N   0  0  0  0  0  0  0  0  0  0  0  0
   26.7854   -2.4526   24.7148 C   0  0  0  0  0  0  0  0  0  0  0  0
   27.3983   -6.4909   25.6746 N   0  0  0  0  0  0  0  0  0  0  0  0
   25.6952   -3.3423   24.4094 C   0  0  0  0  0  0  0  0  0  0  0  0
   25.8207   -4.7430   24.7030 C   0  0  0  0  0  0  0  0  0  0  0  0
   28.0910   -4.3613   25.5966 C   0  0  0  0  0  0  0  0  0  0  0  0
   27.0331   -5.2237   25.3000 C   0  0  0  0  0  0  0  0  0  0  0  0
   28.6453   -6.3707   26.1844 C   0  0  0  0  0  0  0  0  0  0  0  0
   29.9912   -4.7656   26.4729 H   0  0  0  0  0  0  0  0  0  0  0  0
 16 22  2  0  0  0
 16 18  1  0  0  0
 17 22  1  0  0  0
 17 24  1  0  0  0
 14  1  1  0  0  0
  1  4  1  0  0  0
 12  6  1  0  0  0
 18 20  2  0  0  0
 24 19  2  0  0  0
 23 19  1  0  0  0
  4  2  2  0  0  0
 11  7  1  0  0  0
 20 21  1  0  0  0
  4  3  1  0  0  0
  3  8  1  0  0  0
 23 21  2  0  0  0
 22 23  1  0  0  0
 14 24  1  0  0  0
 15 14  1  0  0  0
  8 13  2  0  0  0
  8  9  1  0  0  0
  9 10  2  0  0  0
 10 11  1  0  0  0
 12 11  2  0  0  0
 13 12  1  0  0  0
 17 25  1  0  0  0
  3  5  1  0  0  0
M  END
> <minimizedAffinity>
-6.72664

$$$$
3JVR_AGX_A_901


 25 27  0  0  0  0  0  0  0  0999 V2000
   31.3588   -4.8628   18.8992 O   0  0  0  0  0  0  0  0  0  0  0  0
   30.0878   -3.8055   17.4253 O   0  0  0  0  0  0  0  0  0  0  0  0
   32.4169   -3.5642   17.5515 N   0  0  0  0  0  0  0  0  0  0  0  0
   31.2062   -3.9988   17.8670 C   0  0  0  0  0  0  0  0  0  0  0  0
   33.1968   -4.0604   17.8904 H   0  0  0  0  0  0  0  0  0  0  0  0
   33.5598    1.3788   17.7875 Cl  0  0  0  0  0  0  0  0  0  0  0  0
   33.4770    1.4952   14.5155 Cl  0  0  0  0  0  0  0  0  0  0  0  0
   32.6386   -2.4350   16.7606 C   0  0  0  0  0  0  0  0  0  0  0  0
   32.6103   -2.3756   15.3204 C   0  0  0  0  0  0  0  0  0  0  0  0
   32.8685   -1.1516   14.6458 C   0  0  0  0  0  0  0  0  0  0  0  0
   33.1635    0.0347   15.3880 C   0  0  0  0  0  0  0  0  0  0  0  0
   33.1956   -0.0197   16.8308 C   0  0  0  0  0  0  0  0  0  0  0  0
   32.9289   -1.2557   17.5007 C   0  0  0  0  0  0  0  0  0  0  0  0
   30.3021   -5.8090   19.2573 C   0  0  0  0  0  0  0  0  0  0  0  0
   31.2091   -6.9324   19.5308 C   0  0  0  0  0  0  0  0  0  0  0  0
   27.2817   -3.1803   22.3005 C   0  0  0  0  0  0  0  0  0  0  0  0
   28.7644   -4.1358   20.4534 N   0  0  0  0  0  0  0  0  0  0  0  0
   26.7464   -3.4604   23.6104 C   0  0  0  0  0  0  0  0  0  0  0  0
   29.2583   -6.0821   21.5078 N   0  0  0  0  0  0  0  0  0  0  0  0
   27.0631   -4.6962   24.2782 C   0  0  0  0  0  0  0  0  0  0  0  0
   27.9154   -5.6536   23.6292 C   0  0  0  0  0  0  0  0  0  0  0  0
   28.1295   -4.1540   21.6789 C   0  0  0  0  0  0  0  0  0  0  0  0
   28.4363   -5.3525   22.3272 C   0  0  0  0  0  0  0  0  0  0  0  0
   29.4321   -5.3222   20.4025 C   0  0  0  0  0  0  0  0  0  0  0  0
   28.7402   -3.4266   19.7710 H   0  0  0  0  0  0  0  0  0  0  0  0
 16 22  2  0  0  0
 16 18  1  0  0  0
 17 22  1  0  0  0
 17 24  1  0  0  0
 14  1  1  0  0  0
  1  4  1  0  0  0
 12  6  1  0  0  0
 18 20  2  0  0  0
 24 19  2  0  0  0
 23 19  1  0  0  0
  4  2  2  0  0  0
 11  7  1  0  0  0
 20 21  1  0  0  0
  4  3  1  0  0  0
  3  8  1  0  0  0
 23 21  2  0  0  0
 22 23  1  0  0  0
 14 24  1  0  0  0
 15 14  1  0  0  0
  8 13  2  0  0  0
  8  9  1  0  0  0
  9 10  2  0  0  0
 10 11  1  0  0  0
 12 11  2  0  0  0
 13 12  1  0  0  0
 17 25  1  0  0  0
  3  5  1  0  0  0
M  END
> <minimizedAffinity>
-6.29812

$$$$
3JVR_AGX_A_901


 25 27  0  0  0  0  0  0  0  0999 V2000
   30.7508   -4.1933   17.2335 O   0  0  0  0  0  0  0  0  0  0  0  0
   28.6743   -4.8853   17.5723 O   0  0  0  0  0  0  0  0  0  0  0  0
   30.1708   -4.3534   19.2976 N   0  0  0  0  0  0  0  0  0  0  0  0
   29.7327   -4.5322   18.0605 C   0  0  0  0  0  0  0  0  0  0  0  0
   30.9848   -3.8168   19.4343 H   0  0  0  0  0  0  0  0  0  0  0  0
   26.9224   -3.2195   23.0336 Cl  0  0  0  0  0  0  0  0  0  0  0  0
   27.2071   -6.2906   24.1352 Cl  0  0  0  0  0  0  0  0  0  0  0  0
   29.5318   -4.8906   20.4169 C   0  0  0  0  0  0  0  0  0  0  0  0
   29.6461   -6.2422   20.9055 C   0  0  0  0  0  0  0  0  0  0  0  0
   28.9228   -6.6542   22.0574 C   0  0  0  0  0  0  0  0  0  0  0  0
   28.0696   -5.7336   22.7429 C   0  0  0  0  0  0  0  0  0  0  0  0
   27.9494   -4.3793   22.2563 C   0  0  0  0  0  0  0  0  0  0  0  0
   28.6861   -3.9727   21.0989 C   0  0  0  0  0  0  0  0  0  0  0  0
   32.1454   -4.3859   17.6311 C   0  0  0  0  0  0  0  0  0  0  0  0
   32.4241   -5.4440   16.6501 C   0  0  0  0  0  0  0  0  0  0  0  0
   35.8488   -0.9982   17.3119 C   0  0  0  0  0  0  0  0  0  0  0  0
   34.3294   -3.0456   17.4630 N   0  0  0  0  0  0  0  0  0  0  0  0
   35.8399    0.4434   17.2616 C   0  0  0  0  0  0  0  0  0  0  0  0
   32.3712   -1.9028   17.5223 N   0  0  0  0  0  0  0  0  0  0  0  0
   34.5952    1.1664   17.3012 C   0  0  0  0  0  0  0  0  0  0  0  0
   33.3578    0.4416   17.3880 C   0  0  0  0  0  0  0  0  0  0  0  0
   34.5988   -1.6934   17.3993 C   0  0  0  0  0  0  0  0  0  0  0  0
   33.3919   -0.9914   17.4375 C   0  0  0  0  0  0  0  0  0  0  0  0
   32.9708   -3.1151   17.5373 C   0  0  0  0  0  0  0  0  0  0  0  0
   34.9728   -3.7907   17.4564 H   0  0  0  0  0  0  0  0  0  0  0  0
 16 22  2  0  0  0
 16 18  1  0  0  0
 17 22  1  0  0  0
 17 24  1  0  0  0
 14  1  1  0  0  0
  1  4  1  0  0  0
 12  6  1  0  0  0
 18 20  2  0  0  0
 24 19  2  0  0  0
 23 19  1  0  0  0
  4  2  2  0  0  0
 11  7  1  0  0  0
 20 21  1  0  0  0
  4  3  1  0  0  0
  3  8  1  0  0  0
 23 21  2  0  0  0
 22 23  1  0  0  0
 14 24  1  0  0  0
 15 14  1  0  0  0
  8 13  2  0  0  0
  8  9  1  0  0  0
  9 10  2  0  0  0
 10 11  1  0  0  0
 12 11  2  0  0  0
 13 12  1  0  0  0
 17 25  1  0  0  0
  3  5  1  0  0  0
M  END
> <minimizedAffinity>
-6.21063

$$$$
3JVR_AGX_A_901


 25 27  0  0  0  0  0  0  0  0999 V2000
   30.6067   -6.1434   27.1447 O   0  0  0  0  0  0  0  0  0  0  0  0
   31.6246   -8.1092   27.2173 O   0  0  0  0  0  0  0  0  0  0  0  0
   32.6747   -6.0757   27.7285 N   0  0  0  0  0  0  0  0  0  0  0  0
   31.7080   -6.9025   27.3596 C   0  0  0  0  0  0  0  0  0  0  0  0
   32.4304   -5.1664   28.0161 H   0  0  0  0  0  0  0  0  0  0  0  0
   36.5799   -7.1304   24.6573 Cl  0  0  0  0  0  0  0  0  0  0  0  0
   38.4642   -7.5712   27.2995 Cl  0  0  0  0  0  0  0  0  0  0  0  0
   34.0244   -6.4339   27.7285 C   0  0  0  0  0  0  0  0  0  0  0  0
   34.8630   -6.6240   28.8857 C   0  0  0  0  0  0  0  0  0  0  0  0
   36.2307   -6.9784   28.7323 C   0  0  0  0  0  0  0  0  0  0  0  0
   36.7922   -7.1466   27.4278 C   0  0  0  0  0  0  0  0  0  0  0  0
   35.9572   -6.9549   26.2652 C   0  0  0  0  0  0  0  0  0  0  0  0
   34.5800   -6.6035   26.4303 C   0  0  0  0  0  0  0  0  0  0  0  0
   29.3763   -6.7281   26.6115 C   0  0  0  0  0  0  0  0  0  0  0  0
   28.7882   -7.0331   27.9232 C   0  0  0  0  0  0  0  0  0  0  0  0
   26.1389   -3.4046   24.6705 C   0  0  0  0  0  0  0  0  0  0  0  0
   27.5297   -5.0284   26.0677 N   0  0  0  0  0  0  0  0  0  0  0  0
   26.0125   -2.8333   23.3519 C   0  0  0  0  0  0  0  0  0  0  0  0
   28.9733   -5.6087   24.4175 N   0  0  0  0  0  0  0  0  0  0  0  0
   26.9294   -3.2050   22.3057 C   0  0  0  0  0  0  0  0  0  0  0  0
   27.9766   -4.1485   22.5840 C   0  0  0  0  0  0  0  0  0  0  0  0
   27.1927   -4.3436   24.9176 C   0  0  0  0  0  0  0  0  0  0  0  0
   28.0818   -4.7036   23.9023 C   0  0  0  0  0  0  0  0  0  0  0  0
   28.6095   -5.7777   25.7092 C   0  0  0  0  0  0  0  0  0  0  0  0
   27.0896   -4.9852   26.9473 H   0  0  0  0  0  0  0  0  0  0  0  0
 16 22  2  0  0  0
 16 18  1  0  0  0
 17 22  1  0  0  0
 17 24  1  0  0  0
 14  1  1  0  0  0
  1  4  1  0  0  0
 12  6  1  0  0  0
 18 20  2  0  0  0
 24 19  2  0  0  0
 23 19  1  0  0  0
  4  2  2  0  0  0
 11  7  1  0  0  0
 20 21  1  0  0  0
  4  3  1  0  0  0
  3  8  1  0  0  0
 23 21  2  0  0  0
 22 23  1  0  0  0
 14 24  1  0  0  0
 15 14  1  0  0  0
  8 13  2  0  0  0
  8  9  1  0  0  0
  9 10  2  0  0  0
 10 11  1  0  0  0
 12 11  2  0  0  0
 13 12  1  0  0  0
 17 25  1  0  0  0
  3  5  1  0  0  0
M  END
> <minimizedAffinity>
-6.06043

$$$$
3JVR_AGX_A_901


 25 27  0  0  0  0  0  0  0  0999 V2000
   31.4372   -4.9488   17.7972 O   0  0  0  0  0  0  0  0  0  0  0  0
   33.0045   -4.7100   16.2505 O   0  0  0  0  0  0  0  0  0  0  0  0
   32.7469   -3.2676   18.0814 N   0  0  0  0  0  0  0  0  0  0  0  0
   32.4941   -4.2844   17.2710 C   0  0  0  0  0  0  0  0  0  0  0  0
   32.3528   -3.2772   18.9835 H   0  0  0  0  0  0  0  0  0  0  0  0
   32.5459    1.5198   16.3978 Cl  0  0  0  0  0  0  0  0  0  0  0  0
   35.8187    1.6210   16.4678 Cl  0  0  0  0  0  0  0  0  0  0  0  0
   33.5465   -2.1829   17.7157 C   0  0  0  0  0  0  0  0  0  0  0  0
   34.9868   -2.1271   17.7490 C   0  0  0  0  0  0  0  0  0  0  0  0
   35.6700   -0.9443   17.3564 C   0  0  0  0  0  0  0  0  0  0  0  0
   34.9363    0.2059   16.9275 C   0  0  0  0  0  0  0  0  0  0  0  0
   33.4934    0.1563   16.8946 C   0  0  0  0  0  0  0  0  0  0  0  0
   32.8150   -1.0411   17.2866 C   0  0  0  0  0  0  0  0  0  0  0  0
   30.1601   -4.2752   18.0323 C   0  0  0  0  0  0  0  0  0  0  0  0
   29.4770   -4.8652   16.8726 C   0  0  0  0  0  0  0  0  0  0  0  0
   27.8090   -4.0457   22.4722 C   0  0  0  0  0  0  0  0  0  0  0  0
   28.8390   -3.7069   20.1597 N   0  0  0  0  0  0  0  0  0  0  0  0
   27.6648   -5.0032   23.5415 C   0  0  0  0  0  0  0  0  0  0  0  0
   29.7735   -5.7669   19.9955 N   0  0  0  0  0  0  0  0  0  0  0  0
   28.2607   -6.3097   23.4352 C   0  0  0  0  0  0  0  0  0  0  0  0
   28.9994   -6.6570   22.2529 C   0  0  0  0  0  0  0  0  0  0  0  0
   28.5522   -4.4206   21.3059 C   0  0  0  0  0  0  0  0  0  0  0  0
   29.1299   -5.6882   21.2034 C   0  0  0  0  0  0  0  0  0  0  0  0
   29.5789   -4.5660   19.4044 C   0  0  0  0  0  0  0  0  0  0  0  0
   28.5699   -2.7861   19.9383 H   0  0  0  0  0  0  0  0  0  0  0  0
 16 22  2  0  0  0
 16 18  1  0  0  0
 17 22  1  0  0  0
 17 24  1  0  0  0
 14  1  1  0  0  0
  1  4  1  0  0  0
 12  6  1  0  0  0
 18 20  2  0  0  0
 24 19  2  0  0  0
 23 19  1  0  0  0
  4  2  2  0  0  0
 11  7  1  0  0  0
 20 21  1  0  0  0
  4  3  1  0  0  0
  3  8  1  0  0  0
 23 21  2  0  0  0
 22 23  1  0  0  0
 14 24  1  0  0  0
 15 14  1  0  0  0
  8 13  2  0  0  0
  8  9  1  0  0  0
  9 10  2  0  0  0
 10 11  1  0  0  0
 12 11  2  0  0  0
 13 12  1  0  0  0
 17 25  1  0  0  0
  3  5  1  0  0  0
M  END
> <minimizedAffinity>
-5.84185

$$$$
3JVR_AGX_A_901


 25 27  0  0  0  0  0  0  0  0999 V2000
   30.5774   -5.0338   20.0632 O   0  0  0  0  0  0  0  0  0  0  0  0
   31.9860   -4.8612   18.3627 O   0  0  0  0  0  0  0  0  0  0  0  0
   29.6568   -4.9847   18.1210 N   0  0  0  0  0  0  0  0  0  0  0  0
   30.8304   -4.9588   18.7344 C   0  0  0  0  0  0  0  0  0  0  0  0
   28.8457   -4.8123   18.6518 H   0  0  0  0  0  0  0  0  0  0  0  0
   30.5367   -3.0273   13.5178 Cl  0  0  0  0  0  0  0  0  0  0  0  0
   29.2733   -5.7396   12.1862 Cl  0  0  0  0  0  0  0  0  0  0  0  0
   29.5164   -5.2452   16.7563 C   0  0  0  0  0  0  0  0  0  0  0  0
   28.9675   -6.4381   16.1612 C   0  0  0  0  0  0  0  0  0  0  0  0
   28.8979   -6.5702   14.7478 C   0  0  0  0  0  0  0  0  0  0  0  0
   29.3756   -5.5227   13.8994 C   0  0  0  0  0  0  0  0  0  0  0  0
   29.9287   -4.3267   14.4902 C   0  0  0  0  0  0  0  0  0  0  0  0
   29.9893   -4.2010   15.9143 C   0  0  0  0  0  0  0  0  0  0  0  0
   29.6237   -6.0051   20.5988 C   0  0  0  0  0  0  0  0  0  0  0  0
   30.6418   -6.9602   21.0579 C   0  0  0  0  0  0  0  0  0  0  0  0
   26.7977   -5.1472   24.6697 C   0  0  0  0  0  0  0  0  0  0  0  0
   28.3377   -6.0054   22.8216 N   0  0  0  0  0  0  0  0  0  0  0  0
   25.9702   -4.0304   25.0554 C   0  0  0  0  0  0  0  0  0  0  0  0
   28.1481   -4.1919   21.4728 N   0  0  0  0  0  0  0  0  0  0  0  0
   25.8503   -2.8811   24.1962 C   0  0  0  0  0  0  0  0  0  0  0  0
   26.5643   -2.8511   22.9499 C   0  0  0  0  0  0  0  0  0  0  0  0
   27.4970   -5.0888   23.4203 C   0  0  0  0  0  0  0  0  0  0  0  0
   27.3803   -3.9737   22.5874 C   0  0  0  0  0  0  0  0  0  0  0  0
   28.7003   -5.4139   21.6492 C   0  0  0  0  0  0  0  0  0  0  0  0
   28.6129   -6.8864   23.1641 H   0  0  0  0  0  0  0  0  0  0  0  0
 16 22  2  0  0  0
 16 18  1  0  0  0
 17 22  1  0  0  0
 17 24  1  0  0  0
 14  1  1  0  0  0
  1  4  1  0  0  0
 12  6  1  0  0  0
 18 20  2  0  0  0
 24 19  2  0  0  0
 23 19  1  0  0  0
  4  2  2  0  0  0
 11  7  1  0  0  0
 20 21  1  0  0  0
  4  3  1  0  0  0
  3  8  1  0  0  0
 23 21  2  0  0  0
 22 23  1  0  0  0
 14 24  1  0  0  0
 15 14  1  0  0  0
  8 13  2  0  0  0
  8  9  1  0  0  0
  9 10  2  0  0  0
 10 11  1  0  0  0
 12 11  2  0  0  0
 13 12  1  0  0  0
 17 25  1  0  0  0
  3  5  1  0  0  0
M  END
> <minimizedAffinity>
-5.81144

$$$$
3JVR_AGX_A_901


 25 27  0  0  0  0  0  0  0  0999 V2000
   30.6210   -4.9780   19.9568 O   0  0  0  0  0  0  0  0  0  0  0  0
   32.0594   -5.2398   18.2930 O   0  0  0  0  0  0  0  0  0  0  0  0
   29.7769   -4.7970   17.9877 N   0  0  0  0  0  0  0  0  0  0  0  0
   30.9090   -5.0316   18.6341 C   0  0  0  0  0  0  0  0  0  0  0  0
   29.0242   -4.4048   18.4866 H   0  0  0  0  0  0  0  0  0  0  0  0
   27.9264   -8.2815   14.7896 Cl  0  0  0  0  0  0  0  0  0  0  0  0
   28.8008   -6.3624   12.2838 Cl  0  0  0  0  0  0  0  0  0  0  0  0
   29.6015   -5.0801   16.6317 C   0  0  0  0  0  0  0  0  0  0  0  0
   29.9773   -4.2393   15.5226 C   0  0  0  0  0  0  0  0  0  0  0  0
   29.7247   -4.6546   14.1871 C   0  0  0  0  0  0  0  0  0  0  0  0
   29.0907   -5.9101   13.9281 C   0  0  0  0  0  0  0  0  0  0  0  0
   28.7099   -6.7552   15.0355 C   0  0  0  0  0  0  0  0  0  0  0  0
   28.9735   -6.3305   16.3763 C   0  0  0  0  0  0  0  0  0  0  0  0
   29.5091   -5.7429   20.5213 C   0  0  0  0  0  0  0  0  0  0  0  0
   30.2834   -6.9729   20.7384 C   0  0  0  0  0  0  0  0  0  0  0  0
   26.7842   -2.9453   23.6901 C   0  0  0  0  0  0  0  0  0  0  0  0
   27.9060   -4.1451   21.7343 N   0  0  0  0  0  0  0  0  0  0  0  0
   26.7776   -2.8417   25.1289 C   0  0  0  0  0  0  0  0  0  0  0  0
   29.3157   -5.4054   22.9865 N   0  0  0  0  0  0  0  0  0  0  0  0
   27.6750   -3.6419   25.9213 C   0  0  0  0  0  0  0  0  0  0  0  0
   28.5778   -4.5495   25.2692 C   0  0  0  0  0  0  0  0  0  0  0  0
   27.6965   -3.8586   23.0682 C   0  0  0  0  0  0  0  0  0  0  0  0
   28.5667   -4.6345   23.8374 C   0  0  0  0  0  0  0  0  0  0  0  0
   28.8939   -5.0832   21.7425 C   0  0  0  0  0  0  0  0  0  0  0  0
   27.4459   -3.7592   20.9541 H   0  0  0  0  0  0  0  0  0  0  0  0
 16 22  2  0  0  0
 16 18  1  0  0  0
 17 22  1  0  0  0
 17 24  1  0  0  0
 14  1  1  0  0  0
  1  4  1  0  0  0
 12  6  1  0  0  0
 18 20  2  0  0  0
 24 19  2  0  0  0
 23 19  1  0  0  0
  4  2  2  0  0  0
 11  7  1  0  0  0
 20 21  1  0  0  0
  4  3  1  0  0  0
  3  8  1  0  0  0
 23 21  2  0  0  0
 22 23  1  0  0  0
 14 24  1  0  0  0
 15 14  1  0  0  0
  8 13  2  0  0  0
  8  9  1  0  0  0
  9 10  2  0  0  0
 10 11  1  0  0  0
 12 11  2  0  0  0
 13 12  1  0  0  0
 17 25  1  0  0  0
  3  5  1  0  0  0
M  END
> <minimizedAffinity>
-5.65590

$$$$
3JVR_AGX_A_901


 25 27  0  0  0  0  0  0  0  0999 V2000
   30.3486   -8.0391   23.7389 O   0  0  0  0  0  0  0  0  0  0  0  0
   28.7113   -8.9625   22.5676 O   0  0  0  0  0  0  0  0  0  0  0  0
   30.5328   -7.8416   21.6060 N   0  0  0  0  0  0  0  0  0  0  0  0
   29.7531   -8.3319   22.5579 C   0  0  0  0  0  0  0  0  0  0  0  0
   31.4560   -7.5909   21.8383 H   0  0  0  0  0  0  0  0  0  0  0  0
   29.2099   -4.2880   18.2271 Cl  0  0  0  0  0  0  0  0  0  0  0  0
   28.7335   -6.6532   16.0123 Cl  0  0  0  0  0  0  0  0  0  0  0  0
   30.1061   -7.6639   20.2884 C   0  0  0  0  0  0  0  0  0  0  0  0
   29.8997   -8.6978   19.3050 C   0  0  0  0  0  0  0  0  0  0  0  0
   29.4723   -8.3656   17.9910 C   0  0  0  0  0  0  0  0  0  0  0  0
   29.2459   -7.0010   17.6276 C   0  0  0  0  0  0  0  0  0  0  0  0
   29.4536   -5.9612   18.6079 C   0  0  0  0  0  0  0  0  0  0  0  0
   29.8787   -6.3064   19.9299 C   0  0  0  0  0  0  0  0  0  0  0  0
   29.5947   -7.4360   24.8381 C   0  0  0  0  0  0  0  0  0  0  0  0
   30.7758   -7.0773   25.6355 C   0  0  0  0  0  0  0  0  0  0  0  0
   27.5091   -3.5178   22.4736 C   0  0  0  0  0  0  0  0  0  0  0  0
   28.9214   -5.4607   23.3417 N   0  0  0  0  0  0  0  0  0  0  0  0
   26.2834   -2.7915   22.6999 C   0  0  0  0  0  0  0  0  0  0  0  0
   27.5305   -6.0472   25.0344 N   0  0  0  0  0  0  0  0  0  0  0  0
   25.4031   -3.1650   23.7765 C   0  0  0  0  0  0  0  0  0  0  0  0
   25.7515   -4.2708   24.6249 C   0  0  0  0  0  0  0  0  0  0  0  0
   27.8302   -4.6154   23.3369 C   0  0  0  0  0  0  0  0  0  0  0  0
   26.9758   -4.9772   24.3810 C   0  0  0  0  0  0  0  0  0  0  0  0
   28.6898   -6.3036   24.3867 C   0  0  0  0  0  0  0  0  0  0  0  0
   29.6921   -5.4556   22.7292 H   0  0  0  0  0  0  0  0  0  0  0  0
 16 22  2  0  0  0
 16 18  1  0  0  0
 17 22  1  0  0  0
 17 24  1  0  0  0
 14  1  1  0  0  0
  1  4  1  0  0  0
 12  6  1  0  0  0
 18 20  2  0  0  0
 24 19  2  0  0  0
 23 19  1  0  0  0
  4  2  2  0  0  0
 11  7  1  0  0  0
 20 21  1  0  0  0
  4  3  1  0  0  0
  3  8  1  0  0  0
 23 21  2  0  0  0
 22 23  1  0  0  0
 14 24  1  0  0  0
 15 14  1  0  0  0
  8 13  2  0  0  0
  8  9  1  0  0  0
  9 10  2  0  0  0
 10 11  1  0  0  0
 12 11  2  0  0  0
 13 12  1  0  0  0
 17 25  1  0  0  0
  3  5  1  0  0  0
M  END
> <minimizedAffinity>
-5.41361

$$$$
