1WHT_BZS_A_430


 17 17  0  0  0  0  0  0  0  0999 V2000
   63.9229   35.3706   72.2382 C   0  0  0  0  0  0  0  0  0  0  0  0
   62.6975   34.7216   72.7956 C   0  0  0  0  0  0  0  0  0  0  0  0
   61.7241   34.7039   72.0511 O   0  0  0  0  0  0  0  0  0  0  0  0
   62.7556   34.1815   73.9093 O   0  0  0  0  0  0  0  0  0  0  0  0
   63.5397   34.2415   74.4188 H   0  0  0  0  0  0  0  0  0  0  0  0
   65.2258   34.6425   72.6942 C   0  0  0  0  0  0  0  0  0  0  0  0
   65.4320   33.2375   72.1077 C   0  0  0  0  0  0  0  0  0  0  0  0
   66.0206   33.0666   70.9708 O   0  0  0  0  0  0  0  0  0  0  0  0
   64.9628   32.3128   72.7730 O   0  0  0  0  0  0  0  0  0  0  0  0
   64.5450   32.4904   73.5927 H   0  0  0  0  0  0  0  0  0  0  0  0
   63.7420   35.4110   70.7311 C   0  0  0  0  0  0  0  0  0  0  0  0
   64.0930   36.7244   70.1289 C   0  0  0  0  0  0  0  0  0  0  0  0
   65.0658   37.5463   70.7015 C   0  0  0  0  0  0  0  0  0  0  0  0
   63.4100   37.1415   68.9810 C   0  0  0  0  0  0  0  0  0  0  0  0
   65.3354   38.7730   70.0851 C   0  0  0  0  0  0  0  0  0  0  0  0
   63.6918   38.3420   68.3287 C   0  0  0  0  0  0  0  0  0  0  0  0
   64.6645   39.1611   68.9124 C   0  0  0  0  0  0  0  0  0  0  0  0
  7  6  1  0  0  0
  7  8  2  0  0  0
  7  9  1  0  0  0
  6  1  1  0  0  0
  1  2  1  0  0  0
  1 11  1  0  0  0
  2  3  2  0  0  0
  2  4  1  0  0  0
 11 12  1  0  0  0
 12 13  2  0  0  0
 12 14  1  0  0  0
 13 15  1  0  0  0
 14 16  2  0  0  0
 15 17  2  0  0  0
 16 17  1  0  0  0
  9 10  1  0  0  0
  4  5  1  0  0  0
M  END
> <minimizedAffinity>
-7.62957

$$$$
1WHT_BZS_A_430


 17 17  0  0  0  0  0  0  0  0999 V2000
   64.5591   34.1841   72.7510 C   0  0  0  0  0  0  0  0  0  0  0  0
   63.4774   33.2446   72.3259 C   0  0  0  0  0  0  0  0  0  0  0  0
   62.4552   33.2758   73.0014 O   0  0  0  0  0  0  0  0  0  0  0  0
   63.6355   32.5688   71.2994 O   0  0  0  0  0  0  0  0  0  0  0  0
   64.4507   32.6006   70.8385 H   0  0  0  0  0  0  0  0  0  0  0  0
   65.7962   34.1149   71.8020 C   0  0  0  0  0  0  0  0  0  0  0  0
   66.8766   33.0997   72.2051 C   0  0  0  0  0  0  0  0  0  0  0  0
   66.5718   31.8796   72.4995 O   0  0  0  0  0  0  0  0  0  0  0  0
   68.0239   33.5445   72.2655 O   0  0  0  0  0  0  0  0  0  0  0  0
   68.1922   34.4384   72.0409 H   0  0  0  0  0  0  0  0  0  0  0  0
   63.9268   35.5624   72.8297 C   0  0  0  0  0  0  0  0  0  0  0  0
   63.9944   36.3173   71.5504 C   0  0  0  0  0  0  0  0  0  0  0  0
   63.1747   35.9853   70.4700 C   0  0  0  0  0  0  0  0  0  0  0  0
   64.9186   37.3617   71.4343 C   0  0  0  0  0  0  0  0  0  0  0  0
   63.3016   36.7333   69.2945 C   0  0  0  0  0  0  0  0  0  0  0  0
   65.0327   38.1451   70.2857 C   0  0  0  0  0  0  0  0  0  0  0  0
   64.2109   37.8018   69.2066 C   0  0  0  0  0  0  0  0  0  0  0  0
  7  6  1  0  0  0
  7  8  2  0  0  0
  7  9  1  0  0  0
  6  1  1  0  0  0
  1  2  1  0  0  0
  1 11  1  0  0  0
  2  3  2  0  0  0
  2  4  1  0  0  0
 11 12  1  0  0  0
 12 13  2  0  0  0
 12 14  1  0  0  0
 13 15  1  0  0  0
 14 16  2  0  0  0
 15 17  2  0  0  0
 16 17  1  0  0  0
  9 10  1  0  0  0
  4  5  1  0  0  0
M  END
> <minimizedAffinity>
-7.58913

$$$$
1WHT_BZS_A_430


 17 17  0  0  0  0  0  0  0  0999 V2000
   65.2284   34.5285   71.8514 C   0  0  0  0  0  0  0  0  0  0  0  0
   66.4762   33.7081   71.7941 C   0  0  0  0  0  0  0  0  0  0  0  0
   66.3860   32.5768   72.2568 O   0  0  0  0  0  0  0  0  0  0  0  0
   67.4756   34.1706   71.2261 O   0  0  0  0  0  0  0  0  0  0  0  0
   67.4643   35.0486   70.8990 H   0  0  0  0  0  0  0  0  0  0  0  0
   64.3481   34.1636   73.0874 C   0  0  0  0  0  0  0  0  0  0  0  0
   62.9034   33.7516   72.7656 C   0  0  0  0  0  0  0  0  0  0  0  0
   62.0122   34.6303   72.4464 O   0  0  0  0  0  0  0  0  0  0  0  0
   62.6593   32.5491   72.8767 O   0  0  0  0  0  0  0  0  0  0  0  0
   63.3425   31.9521   73.1108 H   0  0  0  0  0  0  0  0  0  0  0  0
   65.6662   35.9822   71.8219 C   0  0  0  0  0  0  0  0  0  0  0  0
   65.0144   36.7738   70.7451 C   0  0  0  0  0  0  0  0  0  0  0  0
   65.3682   38.1036   70.5091 C   0  0  0  0  0  0  0  0  0  0  0  0
   64.0125   36.1683   69.9784 C   0  0  0  0  0  0  0  0  0  0  0  0
   64.7044   38.7887   69.4857 C   0  0  0  0  0  0  0  0  0  0  0  0
   63.3670   36.8208   68.9278 C   0  0  0  0  0  0  0  0  0  0  0  0
   63.7246   38.1545   68.7021 C   0  0  0  0  0  0  0  0  0  0  0  0
  7  6  1  0  0  0
  7  8  2  0  0  0
  7  9  1  0  0  0
  6  1  1  0  0  0
  1  2  1  0  0  0
  1 11  1  0  0  0
  2  3  2  0  0  0
  2  4  1  0  0  0
 11 12  1  0  0  0
 12 13  2  0  0  0
 12 14  1  0  0  0
 13 15  1  0  0  0
 14 16  2  0  0  0
 15 17  2  0  0  0
 16 17  1  0  0  0
  9 10  1  0  0  0
  4  5  1  0  0  0
M  END
> <minimizedAffinity>
-7.43179

$$$$
1WHT_BZS_A_430


 17 17  0  0  0  0  0  0  0  0999 V2000
   65.1236   34.6147   71.7731 C   0  0  0  0  0  0  0  0  0  0  0  0
   66.3255   33.7342   71.6575 C   0  0  0  0  0  0  0  0  0  0  0  0
   66.4145   33.0964   70.6146 O   0  0  0  0  0  0  0  0  0  0  0  0
   67.1794   33.7594   72.5550 O   0  0  0  0  0  0  0  0  0  0  0  0
   67.0351   34.2741   73.3246 H   0  0  0  0  0  0  0  0  0  0  0  0
   64.2851   34.2904   73.0489 C   0  0  0  0  0  0  0  0  0  0  0  0
   62.8643   33.7687   72.7852 C   0  0  0  0  0  0  0  0  0  0  0  0
   62.5783   32.5150   72.9070 O   0  0  0  0  0  0  0  0  0  0  0  0
   62.0502   34.6160   72.4148 O   0  0  0  0  0  0  0  0  0  0  0  0
   62.3084   35.5138   72.3429 H   0  0  0  0  0  0  0  0  0  0  0  0
   65.6306   36.0452   71.7236 C   0  0  0  0  0  0  0  0  0  0  0  0
   64.9913   36.8619   70.6580 C   0  0  0  0  0  0  0  0  0  0  0  0
   63.9496   36.3510   69.8814 C   0  0  0  0  0  0  0  0  0  0  0  0
   65.4699   38.1561   70.4250 C   0  0  0  0  0  0  0  0  0  0  0  0
   63.4042   37.1740   68.8901 C   0  0  0  0  0  0  0  0  0  0  0  0
   64.9137   39.0065   69.4693 C   0  0  0  0  0  0  0  0  0  0  0  0
   63.8737   38.4841   68.6926 C   0  0  0  0  0  0  0  0  0  0  0  0
  7  6  1  0  0  0
  7  8  2  0  0  0
  7  9  1  0  0  0
  6  1  1  0  0  0
  1  2  1  0  0  0
  1 11  1  0  0  0
  2  3  2  0  0  0
  2  4  1  0  0  0
 11 12  1  0  0  0
 12 13  2  0  0  0
 12 14  1  0  0  0
 13 15  1  0  0  0
 14 16  2  0  0  0
 15 17  2  0  0  0
 16 17  1  0  0  0
  9 10  1  0  0  0
  4  5  1  0  0  0
M  END
> <minimizedAffinity>
-7.33718

$$$$
1WHT_BZS_A_430


 17 17  0  0  0  0  0  0  0  0999 V2000
   64.2099   37.4532   69.3382 C   0  0  0  0  0  0  0  0  0  0  0  0
   63.4329   38.4058   68.4884 C   0  0  0  0  0  0  0  0  0  0  0  0
   63.2660   39.5228   68.9645 O   0  0  0  0  0  0  0  0  0  0  0  0
   63.0840   38.0532   67.3529 O   0  0  0  0  0  0  0  0  0  0  0  0
   63.2487   37.1776   67.0629 H   0  0  0  0  0  0  0  0  0  0  0  0
   64.6540   38.1041   70.6854 C   0  0  0  0  0  0  0  0  0  0  0  0
   66.0076   38.8301   70.6487 C   0  0  0  0  0  0  0  0  0  0  0  0
   67.1068   38.2109   70.9251 O   0  0  0  0  0  0  0  0  0  0  0  0
   65.9558   40.0321   70.3833 O   0  0  0  0  0  0  0  0  0  0  0  0
   65.1319   40.4340   70.1895 H   0  0  0  0  0  0  0  0  0  0  0  0
   63.3384   36.2222   69.5135 C   0  0  0  0  0  0  0  0  0  0  0  0
   63.6469   35.4507   70.7467 C   0  0  0  0  0  0  0  0  0  0  0  0
   64.8684   34.7924   70.9020 C   0  0  0  0  0  0  0  0  0  0  0  0
   62.6756   35.3721   71.7510 C   0  0  0  0  0  0  0  0  0  0  0  0
   65.0839   34.0773   72.0850 C   0  0  0  0  0  0  0  0  0  0  0  0
   62.8859   34.6982   72.9542 C   0  0  0  0  0  0  0  0  0  0  0  0
   64.1108   34.0375   73.0987 C   0  0  0  0  0  0  0  0  0  0  0  0
  7  6  1  0  0  0
  7  8  2  0  0  0
  7  9  1  0  0  0
  6  1  1  0  0  0
  1  2  1  0  0  0
  1 11  1  0  0  0
  2  3  2  0  0  0
  2  4  1  0  0  0
 11 12  1  0  0  0
 12 13  2  0  0  0
 12 14  1  0  0  0
 13 15  1  0  0  0
 14 16  2  0  0  0
 15 17  2  0  0  0
 16 17  1  0  0  0
  9 10  1  0  0  0
  4  5  1  0  0  0
M  END
> <minimizedAffinity>
-6.57028

$$$$
1WHT_BZS_A_430


 17 17  0  0  0  0  0  0  0  0999 V2000
   66.4303   35.9149   72.0655 C   0  0  0  0  0  0  0  0  0  0  0  0
   67.6862   36.5260   72.5970 C   0  0  0  0  0  0  0  0  0  0  0  0
   67.7067   37.7512   72.6248 O   0  0  0  0  0  0  0  0  0  0  0  0
   68.5744   35.7859   73.0429 O   0  0  0  0  0  0  0  0  0  0  0  0
   68.4828   34.8553   72.9827 H   0  0  0  0  0  0  0  0  0  0  0  0
   66.0663   34.5922   72.8097 C   0  0  0  0  0  0  0  0  0  0  0  0
   66.0883   33.3240   71.9428 C   0  0  0  0  0  0  0  0  0  0  0  0
   65.4437   33.2661   70.8250 O   0  0  0  0  0  0  0  0  0  0  0  0
   66.7196   32.3748   72.4103 O   0  0  0  0  0  0  0  0  0  0  0  0
   67.1708   32.4687   73.2261 H   0  0  0  0  0  0  0  0  0  0  0  0
   65.3564   36.9841   72.1610 C   0  0  0  0  0  0  0  0  0  0  0  0
   64.7625   37.3440   70.8461 C   0  0  0  0  0  0  0  0  0  0  0  0
   65.0349   38.5724   70.2409 C   0  0  0  0  0  0  0  0  0  0  0  0
   63.8974   36.4343   70.2278 C   0  0  0  0  0  0  0  0  0  0  0  0
   64.4317   38.8460   69.0085 C   0  0  0  0  0  0  0  0  0  0  0  0
   63.3179   36.6709   68.9811 C   0  0  0  0  0  0  0  0  0  0  0  0
   63.5926   37.9064   68.3846 C   0  0  0  0  0  0  0  0  0  0  0  0
  7  6  1  0  0  0
  7  8  2  0  0  0
  7  9  1  0  0  0
  6  1  1  0  0  0
  1  2  1  0  0  0
  1 11  1  0  0  0
  2  3  2  0  0  0
  2  4  1  0  0  0
 11 12  1  0  0  0
 12 13  2  0  0  0
 12 14  1  0  0  0
 13 15  1  0  0  0
 14 16  2  0  0  0
 15 17  2  0  0  0
 16 17  1  0  0  0
  9 10  1  0  0  0
  4  5  1  0  0  0
M  END
> <minimizedAffinity>
-6.17898

$$$$
1WHT_BZS_A_430


 17 17  0  0  0  0  0  0  0  0999 V2000
   64.5656   37.7598   70.5084 C   0  0  0  0  0  0  0  0  0  0  0  0
   65.7269   37.8959   71.4390 C   0  0  0  0  0  0  0  0  0  0  0  0
   66.7952   37.4688   71.0164 O   0  0  0  0  0  0  0  0  0  0  0  0
   65.5695   38.4878   72.5162 O   0  0  0  0  0  0  0  0  0  0  0  0
   64.7169   38.7839   72.7678 H   0  0  0  0  0  0  0  0  0  0  0  0
   64.6253   38.8008   69.3471 C   0  0  0  0  0  0  0  0  0  0  0  0
   63.3239   38.9677   68.5477 C   0  0  0  0  0  0  0  0  0  0  0  0
   62.3405   39.6668   69.0084 O   0  0  0  0  0  0  0  0  0  0  0  0
   63.2793   38.3593   67.4773 O   0  0  0  0  0  0  0  0  0  0  0  0
   64.0212   37.8658   67.1876 H   0  0  0  0  0  0  0  0  0  0  0  0
   64.5590   36.3172   70.0348 C   0  0  0  0  0  0  0  0  0  0  0  0
   64.0752   35.3596   71.0644 C   0  0  0  0  0  0  0  0  0  0  0  0
   62.9092   35.6068   71.7916 C   0  0  0  0  0  0  0  0  0  0  0  0
   64.8262   34.2057   71.3147 C   0  0  0  0  0  0  0  0  0  0  0  0
   62.5215   34.6657   72.7516 C   0  0  0  0  0  0  0  0  0  0  0  0
   64.4359   33.2360   72.2386 C   0  0  0  0  0  0  0  0  0  0  0  0
   63.2690   33.4947   72.9660 C   0  0  0  0  0  0  0  0  0  0  0  0
  7  6  1  0  0  0
  7  8  2  0  0  0
  7  9  1  0  0  0
  6  1  1  0  0  0
  1  2  1  0  0  0
  1 11  1  0  0  0
  2  3  2  0  0  0
  2  4  1  0  0  0
 11 12  1  0  0  0
 12 13  2  0  0  0
 12 14  1  0  0  0
 13 15  1  0  0  0
 14 16  2  0  0  0
 15 17  2  0  0  0
 16 17  1  0  0  0
  9 10  1  0  0  0
  4  5  1  0  0  0
M  END
> <minimizedAffinity>
-6.12338

$$$$
1WHT_BZS_A_430


 17 17  0  0  0  0  0  0  0  0999 V2000
   64.5835   37.5138   69.7858 C   0  0  0  0  0  0  0  0  0  0  0  0
   64.1855   38.5753   68.8121 C   0  0  0  0  0  0  0  0  0  0  0  0
   63.4400   38.2115   67.9097 O   0  0  0  0  0  0  0  0  0  0  0  0
   64.5507   39.7426   69.0107 O   0  0  0  0  0  0  0  0  0  0  0  0
   65.1240   39.9389   69.7253 H   0  0  0  0  0  0  0  0  0  0  0  0
   65.0513   38.1182   71.1466 C   0  0  0  0  0  0  0  0  0  0  0  0
   66.5707   38.1249   71.3741 C   0  0  0  0  0  0  0  0  0  0  0  0
   67.0962   37.5441   72.4011 O   0  0  0  0  0  0  0  0  0  0  0  0
   67.2272   38.7513   70.5408 O   0  0  0  0  0  0  0  0  0  0  0  0
   66.7972   39.1548   69.8127 H   0  0  0  0  0  0  0  0  0  0  0  0
   63.3960   36.5759   69.9108 C   0  0  0  0  0  0  0  0  0  0  0  0
   63.5900   35.5095   70.9288 C   0  0  0  0  0  0  0  0  0  0  0  0
   62.6716   35.3210   71.9634 C   0  0  0  0  0  0  0  0  0  0  0  0
   64.7314   34.7039   70.8490 C   0  0  0  0  0  0  0  0  0  0  0  0
   62.9258   34.3046   72.8907 C   0  0  0  0  0  0  0  0  0  0  0  0
   64.9828   33.6598   71.7394 C   0  0  0  0  0  0  0  0  0  0  0  0
   64.0596   33.4816   72.7757 C   0  0  0  0  0  0  0  0  0  0  0  0
  7  6  1  0  0  0
  7  8  2  0  0  0
  7  9  1  0  0  0
  6  1  1  0  0  0
  1  2  1  0  0  0
  1 11  1  0  0  0
  2  3  2  0  0  0
  2  4  1  0  0  0
 11 12  1  0  0  0
 12 13  2  0  0  0
 12 14  1  0  0  0
 13 15  1  0  0  0
 14 16  2  0  0  0
 15 17  2  0  0  0
 16 17  1  0  0  0
  9 10  1  0  0  0
  4  5  1  0  0  0
M  END
> <minimizedAffinity>
-6.09980

$$$$
1WHT_BZS_A_430


 17 17  0  0  0  0  0  0  0  0999 V2000
   64.5178   34.5314   72.0345 C   0  0  0  0  0  0  0  0  0  0  0  0
   63.6849   33.5645   72.8121 C   0  0  0  0  0  0  0  0  0  0  0  0
   62.8475   34.0658   73.5535 O   0  0  0  0  0  0  0  0  0  0  0  0
   63.8247   32.3501   72.6095 O   0  0  0  0  0  0  0  0  0  0  0  0
   64.4917   32.0462   72.0256 H   0  0  0  0  0  0  0  0  0  0  0  0
   63.7524   35.8615   71.7500 C   0  0  0  0  0  0  0  0  0  0  0  0
   62.7026   35.7880   70.6306 C   0  0  0  0  0  0  0  0  0  0  0  0
   62.9827   36.1575   69.4251 O   0  0  0  0  0  0  0  0  0  0  0  0
   61.5863   35.3988   70.9774 O   0  0  0  0  0  0  0  0  0  0  0  0
   61.4349   35.1416   71.8656 H   0  0  0  0  0  0  0  0  0  0  0  0
   65.8029   34.7230   72.8202 C   0  0  0  0  0  0  0  0  0  0  0  0
   67.0161   34.2741   72.0871 C   0  0  0  0  0  0  0  0  0  0  0  0
   68.2878   34.7234   72.4484 C   0  0  0  0  0  0  0  0  0  0  0  0
   66.8621   33.4040   71.0019 C   0  0  0  0  0  0  0  0  0  0  0  0
   69.3819   34.2663   71.7058 C   0  0  0  0  0  0  0  0  0  0  0  0
   67.9428   32.9053   70.2743 C   0  0  0  0  0  0  0  0  0  0  0  0
   69.2126   33.3650   70.6404 C   0  0  0  0  0  0  0  0  0  0  0  0
  7  6  1  0  0  0
  7  8  2  0  0  0
  7  9  1  0  0  0
  6  1  1  0  0  0
  1  2  1  0  0  0
  1 11  1  0  0  0
  2  3  2  0  0  0
  2  4  1  0  0  0
 11 12  1  0  0  0
 12 13  2  0  0  0
 12 14  1  0  0  0
 13 15  1  0  0  0
 14 16  2  0  0  0
 15 17  2  0  0  0
 16 17  1  0  0  0
  9 10  1  0  0  0
  4  5  1  0  0  0
M  END
> <minimizedAffinity>
-6.09380

$$$$
1WHT_BZS_A_430


 17 17  0  0  0  0  0  0  0  0999 V2000
   64.0550   35.0796   71.7675 C   0  0  0  0  0  0  0  0  0  0  0  0
   62.9271   34.4001   72.4743 C   0  0  0  0  0  0  0  0  0  0  0  0
   61.8055   34.6693   72.0599 O   0  0  0  0  0  0  0  0  0  0  0  0
   63.1829   33.5669   73.3550 O   0  0  0  0  0  0  0  0  0  0  0  0
   64.0704   33.4190   73.6165 H   0  0  0  0  0  0  0  0  0  0  0  0
   63.6699   36.5204   71.3074 C   0  0  0  0  0  0  0  0  0  0  0  0
   63.7617   36.7729   69.7947 C   0  0  0  0  0  0  0  0  0  0  0  0
   64.5312   37.6927   69.3152 O   0  0  0  0  0  0  0  0  0  0  0  0
   63.0267   36.0730   69.0963 O   0  0  0  0  0  0  0  0  0  0  0  0
   62.4870   35.4183   69.4940 H   0  0  0  0  0  0  0  0  0  0  0  0
   65.2434   35.0378   72.7116 C   0  0  0  0  0  0  0  0  0  0  0  0
   66.4756   34.4883   72.0864 C   0  0  0  0  0  0  0  0  0  0  0  0
   66.4075   33.5296   71.0735 C   0  0  0  0  0  0  0  0  0  0  0  0
   67.7194   34.9321   72.5491 C   0  0  0  0  0  0  0  0  0  0  0  0
   67.6090   33.0508   70.5400 C   0  0  0  0  0  0  0  0  0  0  0  0
   68.9274   34.4974   72.0035 C   0  0  0  0  0  0  0  0  0  0  0  0
   68.8494   33.5332   70.9925 C   0  0  0  0  0  0  0  0  0  0  0  0
  7  6  1  0  0  0
  7  8  2  0  0  0
  7  9  1  0  0  0
  6  1  1  0  0  0
  1  2  1  0  0  0
  1 11  1  0  0  0
  2  3  2  0  0  0
  2  4  1  0  0  0
 11 12  1  0  0  0
 12 13  2  0  0  0
 12 14  1  0  0  0
 13 15  1  0  0  0
 14 16  2  0  0  0
 15 17  2  0  0  0
 16 17  1  0  0  0
  9 10  1  0  0  0
  4  5  1  0  0  0
M  END
> <minimizedAffinity>
-6.02226

$$$$
