2FXS_RDA_A_1001


 33 34  0  0  0  0  0  0  0  0999 V2000
   22.6054   34.6698    6.4592 C   0  0  0  0  0  0  0  0  0  0  0  0
   23.7567   34.0823    5.6408 C   0  0  0  0  0  0  0  0  0  0  0  0
   24.7695   34.7432    5.4153 O   0  0  0  0  0  0  0  0  0  0  0  0
   23.5699   32.8281    5.2325 N   0  0  0  0  0  0  0  0  0  0  0  0
   22.7326   32.3821    5.4955 H   0  0  0  0  0  0  0  0  0  0  0  0
   24.4346   32.1336    4.4936 C   0  0  0  0  0  0  0  0  0  0  0  0
   24.5889   32.3566    3.1276 C   0  0  0  0  0  0  0  0  0  0  0  0
   25.4485   31.5608    2.3748 C   0  0  0  0  0  0  0  0  0  0  0  0
   25.5647   31.7582    1.1646 O   0  0  0  0  0  0  0  0  0  0  0  0
   26.1643   30.5343    2.9842 C   0  0  0  0  0  0  0  0  0  0  0  0
   26.0166   30.3128    4.3521 C   0  0  0  0  0  0  0  0  0  0  0  0
   25.1569   31.1095    5.1013 C   0  0  0  0  0  0  0  0  0  0  0  0
   25.0395   30.9120    6.3104 O   0  0  0  0  0  0  0  0  0  0  0  0
   25.0828   32.4491    0.7542 H   0  0  0  0  0  0  0  0  0  0  0  0
   24.4614   31.4465    6.8184 H   0  0  0  0  0  0  0  0  0  0  0  0
   26.9758   29.7309    2.2465 O   0  0  0  0  0  0  0  0  0  0  0  0
   26.5739   28.3593    2.3298 C   0  0  0  0  0  0  0  0  0  0  0  0
   21.6999   35.5694    5.6138 C   0  0  0  0  0  0  0  0  0  0  0  0
   19.7763   34.2338    4.5974 C   0  0  0  0  0  0  0  0  0  0  0  0
   18.4667   33.7597    4.6067 C   0  0  0  0  0  0  0  0  0  0  0  0
   18.0150   32.9754    3.5921 O   0  0  0  0  0  0  0  0  0  0  0  0
   17.6013   34.1061    5.6384 C   0  0  0  0  0  0  0  0  0  0  0  0
   18.0620   34.9334    6.6578 C   0  0  0  0  0  0  0  0  0  0  0  0
   17.2204   35.3101    7.6576 O   0  0  0  0  0  0  0  0  0  0  0  0
   19.3724   35.3984    6.6417 C   0  0  0  0  0  0  0  0  0  0  0  0
   19.9031   36.3920    7.9549 Cl  0  0  0  0  0  0  0  0  0  0  0  0
   20.2534   35.0604    5.6140 C   0  0  0  0  0  0  0  0  0  0  0  0
   18.5908   32.7368    2.8924 H   0  0  0  0  0  0  0  0  0  0  0  0
   16.3372   34.9973    7.6693 H   0  0  0  0  0  0  0  0  0  0  0  0
   20.6762   33.8895    3.4066 C   0  0  0  0  0  0  0  0  0  0  0  0
   21.1432   32.7580    3.2863 O   0  0  0  0  0  0  0  0  0  0  0  0
   22.2907   34.6900    1.9497 C   0  0  0  0  0  0  0  0  0  0  0  0
   20.9877   34.8697    2.5143 O   0  0  0  0  0  0  0  0  0  0  0  0
 32 33  1  0  0  0
 33 30  1  0  0  0
 30 31  2  0  0  0
 30 19  1  0  0  0
 19 20  1  0  0  0
 19 27  2  0  0  0
 20 21  1  0  0  0
 20 22  2  0  0  0
 22 23  1  0  0  0
 23 24  1  0  0  0
 23 25  2  0  0  0
 25 26  1  0  0  0
 25 27  1  0  0  0
 27 18  1  0  0  0
 18  1  1  0  0  0
  1  2  1  0  0  0
  2  3  2  0  0  0
  2  4  1  0  0  0
  4  6  1  0  0  0
  6  7  1  0  0  0
  6 12  2  0  0  0
  7  8  2  0  0  0
  8  9  1  0  0  0
  8 10  1  0  0  0
 10 16  1  0  0  0
 10 11  2  0  0  0
 16 17  1  0  0  0
 11 12  1  0  0  0
 12 13  1  0  0  0
 21 28  1  0  0  0
 24 29  1  0  0  0
  4  5  1  0  0  0
  9 14  1  0  0  0
 13 15  1  0  0  0
M  END
> <minimizedAffinity>
-7.42383

$$$$
2FXS_RDA_A_1001


 33 34  0  0  0  0  0  0  0  0999 V2000
   22.4865   34.2293    6.3917 C   0  0  0  0  0  0  0  0  0  0  0  0
   23.0539   33.0709    5.5692 C   0  0  0  0  0  0  0  0  0  0  0  0
   22.4261   32.0202    5.4459 O   0  0  0  0  0  0  0  0  0  0  0  0
   24.2365   33.3117    5.0053 N   0  0  0  0  0  0  0  0  0  0  0  0
   24.6369   34.2002    5.1455 H   0  0  0  0  0  0  0  0  0  0  0  0
   24.9169   32.4369    4.2652 C   0  0  0  0  0  0  0  0  0  0  0  0
   24.7906   32.3819    2.8795 C   0  0  0  0  0  0  0  0  0  0  0  0
   25.4612   31.4055    2.1474 C   0  0  0  0  0  0  0  0  0  0  0  0
   25.3291   31.3578    0.9237 O   0  0  0  0  0  0  0  0  0  0  0  0
   26.2675   30.4752    2.7970 C   0  0  0  0  0  0  0  0  0  0  0  0
   26.4006   30.5317    4.1830 C   0  0  0  0  0  0  0  0  0  0  0  0
   25.7292   31.5082    4.9114 C   0  0  0  0  0  0  0  0  0  0  0  0
   25.8597   31.5557    6.1343 O   0  0  0  0  0  0  0  0  0  0  0  0
   24.7864   31.9839    0.4862 H   0  0  0  0  0  0  0  0  0  0  0  0
   25.4091   32.2120    6.6285 H   0  0  0  0  0  0  0  0  0  0  0  0
   26.8939   29.4972    2.0905 O   0  0  0  0  0  0  0  0  0  0  0  0
   26.5423   28.1949    2.5704 C   0  0  0  0  0  0  0  0  0  0  0  0
   21.6506   35.1857    5.5370 C   0  0  0  0  0  0  0  0  0  0  0  0
   19.4393   35.3800    6.7978 C   0  0  0  0  0  0  0  0  0  0  0  0
   18.0740   35.1398    6.9332 C   0  0  0  0  0  0  0  0  0  0  0  0
   17.4050   35.5883    8.0285 O   0  0  0  0  0  0  0  0  0  0  0  0
   17.3884   34.4160    5.9639 C   0  0  0  0  0  0  0  0  0  0  0  0
   18.0860   33.9347    4.8604 C   0  0  0  0  0  0  0  0  0  0  0  0
   17.4393   33.1962    3.9191 O   0  0  0  0  0  0  0  0  0  0  0  0
   19.4482   34.1832    4.7323 C   0  0  0  0  0  0  0  0  0  0  0  0
   20.2569   33.5945    3.3207 Cl  0  0  0  0  0  0  0  0  0  0  0  0
   20.1509   34.9075    5.6957 C   0  0  0  0  0  0  0  0  0  0  0  0
   17.8585   36.0769    8.6869 H   0  0  0  0  0  0  0  0  0  0  0  0
   16.5214   33.0282    4.0045 H   0  0  0  0  0  0  0  0  0  0  0  0
   20.1726   36.1181    7.9219 C   0  0  0  0  0  0  0  0  0  0  0  0
   20.4787   35.5287    8.9572 O   0  0  0  0  0  0  0  0  0  0  0  0
   20.8132   38.0618    9.0090 C   0  0  0  0  0  0  0  0  0  0  0  0
   20.4342   37.4461    7.7736 O   0  0  0  0  0  0  0  0  0  0  0  0
 32 33  1  0  0  0
 33 30  1  0  0  0
 30 31  2  0  0  0
 30 19  1  0  0  0
 19 20  1  0  0  0
 19 27  2  0  0  0
 20 21  1  0  0  0
 20 22  2  0  0  0
 22 23  1  0  0  0
 23 24  1  0  0  0
 23 25  2  0  0  0
 25 26  1  0  0  0
 25 27  1  0  0  0
 27 18  1  0  0  0
 18  1  1  0  0  0
  1  2  1  0  0  0
  2  3  2  0  0  0
  2  4  1  0  0  0
  4  6  1  0  0  0
  6  7  1  0  0  0
  6 12  2  0  0  0
  7  8  2  0  0  0
  8  9  1  0  0  0
  8 10  1  0  0  0
 10 16  1  0  0  0
 10 11  2  0  0  0
 16 17  1  0  0  0
 11 12  1  0  0  0
 12 13  1  0  0  0
 21 28  1  0  0  0
 24 29  1  0  0  0
  4  5  1  0  0  0
  9 14  1  0  0  0
 13 15  1  0  0  0
M  END
> <minimizedAffinity>
-7.33238

$$$$
2FXS_RDA_A_1001


 33 34  0  0  0  0  0  0  0  0999 V2000
   21.6503   34.8658    5.4311 C   0  0  0  0  0  0  0  0  0  0  0  0
   22.9184   34.3319    4.7624 C   0  0  0  0  0  0  0  0  0  0  0  0
   23.7551   35.1028    4.2945 O   0  0  0  0  0  0  0  0  0  0  0  0
   23.0317   33.0046    4.7572 N   0  0  0  0  0  0  0  0  0  0  0  0
   22.3157   32.4834    5.1871 H   0  0  0  0  0  0  0  0  0  0  0  0
   24.0444   32.3313    4.2120 C   0  0  0  0  0  0  0  0  0  0  0  0
   24.3402   32.4090    2.8534 C   0  0  0  0  0  0  0  0  0  0  0  0
   25.3596   31.6337    2.3071 C   0  0  0  0  0  0  0  0  0  0  0  0
   25.6013   31.6999    1.1011 O   0  0  0  0  0  0  0  0  0  0  0  0
   26.0950   30.7738    3.1179 C   0  0  0  0  0  0  0  0  0  0  0  0
   25.8053   30.6985    4.4789 C   0  0  0  0  0  0  0  0  0  0  0  0
   24.7862   31.4743    5.0215 C   0  0  0  0  0  0  0  0  0  0  0  0
   24.5433   31.4077    6.2262 O   0  0  0  0  0  0  0  0  0  0  0  0
   25.1064   32.2787    0.5552 H   0  0  0  0  0  0  0  0  0  0  0  0
   23.8576   31.9287    6.5955 H   0  0  0  0  0  0  0  0  0  0  0  0
   27.0658   29.9872    2.5822 O   0  0  0  0  0  0  0  0  0  0  0  0
   26.6091   28.6433    2.3944 C   0  0  0  0  0  0  0  0  0  0  0  0
   20.6147   35.3363    4.4063 C   0  0  0  0  0  0  0  0  0  0  0  0
   18.5718   33.8491    4.7698 C   0  0  0  0  0  0  0  0  0  0  0  0
   17.7142   32.8203    4.3876 C   0  0  0  0  0  0  0  0  0  0  0  0
   16.6545   32.4855    5.1708 O   0  0  0  0  0  0  0  0  0  0  0  0
   17.9490   32.1084    3.2166 C   0  0  0  0  0  0  0  0  0  0  0  0
   19.0524   32.4373    2.4354 C   0  0  0  0  0  0  0  0  0  0  0  0
   19.3171   31.7302    1.3042 O   0  0  0  0  0  0  0  0  0  0  0  0
   19.9006   33.4687    2.8234 C   0  0  0  0  0  0  0  0  0  0  0  0
   21.2349   33.8604    1.7941 Cl  0  0  0  0  0  0  0  0  0  0  0  0
   19.6792   34.1927    3.9954 C   0  0  0  0  0  0  0  0  0  0  0  0
   16.4883   32.9595    5.9618 H   0  0  0  0  0  0  0  0  0  0  0  0
   18.7462   31.0350    1.0419 H   0  0  0  0  0  0  0  0  0  0  0  0
   18.3207   34.5608    6.1028 C   0  0  0  0  0  0  0  0  0  0  0  0
   17.3139   35.2494    6.2606 O   0  0  0  0  0  0  0  0  0  0  0  0
   19.2777   35.6122    7.9327 C   0  0  0  0  0  0  0  0  0  0  0  0
   19.2544   34.4566    7.0885 O   0  0  0  0  0  0  0  0  0  0  0  0
 32 33  1  0  0  0
 33 30  1  0  0  0
 30 31  2  0  0  0
 30 19  1  0  0  0
 19 20  1  0  0  0
 19 27  2  0  0  0
 20 21  1  0  0  0
 20 22  2  0  0  0
 22 23  1  0  0  0
 23 24  1  0  0  0
 23 25  2  0  0  0
 25 26  1  0  0  0
 25 27  1  0  0  0
 27 18  1  0  0  0
 18  1  1  0  0  0
  1  2  1  0  0  0
  2  3  2  0  0  0
  2  4  1  0  0  0
  4  6  1  0  0  0
  6  7  1  0  0  0
  6 12  2  0  0  0
  7  8  2  0  0  0
  8  9  1  0  0  0
  8 10  1  0  0  0
 10 16  1  0  0  0
 10 11  2  0  0  0
 16 17  1  0  0  0
 11 12  1  0  0  0
 12 13  1  0  0  0
 21 28  1  0  0  0
 24 29  1  0  0  0
  4  5  1  0  0  0
  9 14  1  0  0  0
 13 15  1  0  0  0
M  END
> <minimizedAffinity>
-7.31493

$$$$
2FXS_RDA_A_1001


 33 34  0  0  0  0  0  0  0  0999 V2000
   21.5016   33.3943    3.9901 C   0  0  0  0  0  0  0  0  0  0  0  0
   22.9367   32.8995    3.8009 C   0  0  0  0  0  0  0  0  0  0  0  0
   23.4014   32.7333    2.6740 O   0  0  0  0  0  0  0  0  0  0  0  0
   23.6120   32.6960    4.9310 N   0  0  0  0  0  0  0  0  0  0  0  0
   23.1515   32.8897    5.7793 H   0  0  0  0  0  0  0  0  0  0  0  0
   24.8658   32.2492    4.9961 C   0  0  0  0  0  0  0  0  0  0  0  0
   25.9526   33.0324    4.6155 C   0  0  0  0  0  0  0  0  0  0  0  0
   27.2414   32.5055    4.6275 C   0  0  0  0  0  0  0  0  0  0  0  0
   28.1926   33.2037    4.2739 O   0  0  0  0  0  0  0  0  0  0  0  0
   27.4546   31.1883    5.0234 C   0  0  0  0  0  0  0  0  0  0  0  0
   26.3697   30.4040    5.4107 C   0  0  0  0  0  0  0  0  0  0  0  0
   25.0834   30.9333    5.3975 C   0  0  0  0  0  0  0  0  0  0  0  0
   24.1323   30.2358    5.7495 O   0  0  0  0  0  0  0  0  0  0  0  0
   28.0493   34.0905    4.0073 H   0  0  0  0  0  0  0  0  0  0  0  0
   23.2644   30.5888    5.7420 H   0  0  0  0  0  0  0  0  0  0  0  0
   28.7062   30.6581    5.0006 O   0  0  0  0  0  0  0  0  0  0  0  0
   28.6717   29.2274    5.0398 C   0  0  0  0  0  0  0  0  0  0  0  0
   20.8157   32.7248    5.1840 C   0  0  0  0  0  0  0  0  0  0  0  0
   18.6969   33.9738    5.8685 C   0  0  0  0  0  0  0  0  0  0  0  0
   18.0110   34.8946    6.6569 C   0  0  0  0  0  0  0  0  0  0  0  0
   16.6846   35.1148    6.4555 O   0  0  0  0  0  0  0  0  0  0  0  0
   18.6813   35.6167    7.6380 C   0  0  0  0  0  0  0  0  0  0  0  0
   20.0450   35.4074    7.8182 C   0  0  0  0  0  0  0  0  0  0  0  0
   20.7241   36.1285    8.7501 O   0  0  0  0  0  0  0  0  0  0  0  0
   20.7202   34.4830    7.0287 C   0  0  0  0  0  0  0  0  0  0  0  0
   22.4070   34.2351    7.3224 Cl  0  0  0  0  0  0  0  0  0  0  0  0
   20.0626   33.7505    6.0400 C   0  0  0  0  0  0  0  0  0  0  0  0
   16.2244   34.6330    5.7967 H   0  0  0  0  0  0  0  0  0  0  0  0
   20.2700   36.7516    9.2826 H   0  0  0  0  0  0  0  0  0  0  0  0
   17.9389   33.2518    4.7503 C   0  0  0  0  0  0  0  0  0  0  0  0
   17.5724   33.8660    3.7496 O   0  0  0  0  0  0  0  0  0  0  0  0
   17.3710   31.2890    3.6572 C   0  0  0  0  0  0  0  0  0  0  0  0
   17.6368   31.9334    4.9074 O   0  0  0  0  0  0  0  0  0  0  0  0
 32 33  1  0  0  0
 33 30  1  0  0  0
 30 31  2  0  0  0
 30 19  1  0  0  0
 19 20  1  0  0  0
 19 27  2  0  0  0
 20 21  1  0  0  0
 20 22  2  0  0  0
 22 23  1  0  0  0
 23 24  1  0  0  0
 23 25  2  0  0  0
 25 26  1  0  0  0
 25 27  1  0  0  0
 27 18  1  0  0  0
 18  1  1  0  0  0
  1  2  1  0  0  0
  2  3  2  0  0  0
  2  4  1  0  0  0
  4  6  1  0  0  0
  6  7  1  0  0  0
  6 12  2  0  0  0
  7  8  2  0  0  0
  8  9  1  0  0  0
  8 10  1  0  0  0
 10 16  1  0  0  0
 10 11  2  0  0  0
 16 17  1  0  0  0
 11 12  1  0  0  0
 12 13  1  0  0  0
 21 28  1  0  0  0
 24 29  1  0  0  0
  4  5  1  0  0  0
  9 14  1  0  0  0
 13 15  1  0  0  0
M  END
> <minimizedAffinity>
-7.06909

$$$$
2FXS_RDA_A_1001


 33 34  0  0  0  0  0  0  0  0999 V2000
   22.2801   36.0135    5.2924 C   0  0  0  0  0  0  0  0  0  0  0  0
   21.4862   34.7249    5.0694 C   0  0  0  0  0  0  0  0  0  0  0  0
   21.8616   33.6617    5.5613 O   0  0  0  0  0  0  0  0  0  0  0  0
   20.3820   34.8676    4.3381 N   0  0  0  0  0  0  0  0  0  0  0  0
   20.1596   35.7718    4.0184 H   0  0  0  0  0  0  0  0  0  0  0  0
   19.5566   33.8747    4.0079 C   0  0  0  0  0  0  0  0  0  0  0  0
   18.7585   33.2301    4.9496 C   0  0  0  0  0  0  0  0  0  0  0  0
   17.9639   32.1481    4.5798 C   0  0  0  0  0  0  0  0  0  0  0  0
   17.2741   31.5765    5.4253 O   0  0  0  0  0  0  0  0  0  0  0  0
   17.9594   31.7023    3.2612 C   0  0  0  0  0  0  0  0  0  0  0  0
   18.7524   32.3494    2.3154 C   0  0  0  0  0  0  0  0  0  0  0  0
   19.5452   33.4299    2.6881 C   0  0  0  0  0  0  0  0  0  0  0  0
   20.2356   34.0007    1.8441 O   0  0  0  0  0  0  0  0  0  0  0  0
   17.2770   31.8765    6.3129 H   0  0  0  0  0  0  0  0  0  0  0  0
   20.7710   34.7289    2.0912 H   0  0  0  0  0  0  0  0  0  0  0  0
   17.2144   30.6229    2.9036 O   0  0  0  0  0  0  0  0  0  0  0  0
   17.7197   30.0063    1.7144 C   0  0  0  0  0  0  0  0  0  0  0  0
   23.2040   36.3305    4.1134 C   0  0  0  0  0  0  0  0  0  0  0  0
   24.6912   34.4277    3.2858 C   0  0  0  0  0  0  0  0  0  0  0  0
   25.8611   33.6729    3.3259 C   0  0  0  0  0  0  0  0  0  0  0  0
   26.0311   32.6276    2.4734 O   0  0  0  0  0  0  0  0  0  0  0  0
   26.8534   33.9636    4.2555 C   0  0  0  0  0  0  0  0  0  0  0  0
   26.6593   35.0163    5.1444 C   0  0  0  0  0  0  0  0  0  0  0  0
   27.6040   35.2943    6.0824 O   0  0  0  0  0  0  0  0  0  0  0  0
   25.4896   35.7666    5.0939 C   0  0  0  0  0  0  0  0  0  0  0  0
   25.3183   37.0884    6.1970 Cl  0  0  0  0  0  0  0  0  0  0  0  0
   24.4842   35.4880    4.1675 C   0  0  0  0  0  0  0  0  0  0  0  0
   25.3679   32.4240    1.8436 H   0  0  0  0  0  0  0  0  0  0  0  0
   28.3925   34.7893    6.1173 H   0  0  0  0  0  0  0  0  0  0  0  0
   23.5914   34.0305    2.2965 C   0  0  0  0  0  0  0  0  0  0  0  0
   23.0898   32.9083    2.3412 O   0  0  0  0  0  0  0  0  0  0  0  0
   24.3151   35.3200    0.5123 C   0  0  0  0  0  0  0  0  0  0  0  0
   23.2161   34.9231    1.3391 O   0  0  0  0  0  0  0  0  0  0  0  0
 32 33  1  0  0  0
 33 30  1  0  0  0
 30 31  2  0  0  0
 30 19  1  0  0  0
 19 20  1  0  0  0
 19 27  2  0  0  0
 20 21  1  0  0  0
 20 22  2  0  0  0
 22 23  1  0  0  0
 23 24  1  0  0  0
 23 25  2  0  0  0
 25 26  1  0  0  0
 25 27  1  0  0  0
 27 18  1  0  0  0
 18  1  1  0  0  0
  1  2  1  0  0  0
  2  3  2  0  0  0
  2  4  1  0  0  0
  4  6  1  0  0  0
  6  7  1  0  0  0
  6 12  2  0  0  0
  7  8  2  0  0  0
  8  9  1  0  0  0
  8 10  1  0  0  0
 10 16  1  0  0  0
 10 11  2  0  0  0
 16 17  1  0  0  0
 11 12  1  0  0  0
 12 13  1  0  0  0
 21 28  1  0  0  0
 24 29  1  0  0  0
  4  5  1  0  0  0
  9 14  1  0  0  0
 13 15  1  0  0  0
M  END
> <minimizedAffinity>
-6.90283

$$$$
2FXS_RDA_A_1001


 33 34  0  0  0  0  0  0  0  0999 V2000
   23.5385   34.5749    5.7501 C   0  0  0  0  0  0  0  0  0  0  0  0
   22.4260   33.6008    5.3579 C   0  0  0  0  0  0  0  0  0  0  0  0
   22.4846   32.4155    5.6818 O   0  0  0  0  0  0  0  0  0  0  0  0
   21.4187   34.1463    4.6779 N   0  0  0  0  0  0  0  0  0  0  0  0
   21.4599   35.1133    4.4980 H   0  0  0  0  0  0  0  0  0  0  0  0
   20.3594   33.4775    4.2234 C   0  0  0  0  0  0  0  0  0  0  0  0
   19.3870   32.9613    5.0762 C   0  0  0  0  0  0  0  0  0  0  0  0
   18.3335   32.2044    4.5700 C   0  0  0  0  0  0  0  0  0  0  0  0
   17.4881   31.7404    5.3363 O   0  0  0  0  0  0  0  0  0  0  0  0
   18.2426   31.9591    3.2029 C   0  0  0  0  0  0  0  0  0  0  0  0
   19.2108   32.4796    2.3464 C   0  0  0  0  0  0  0  0  0  0  0  0
   20.2621   33.2352    2.8553 C   0  0  0  0  0  0  0  0  0  0  0  0
   21.1078   33.6981    2.0903 O   0  0  0  0  0  0  0  0  0  0  0  0
   17.5491   31.9055    6.2567 H   0  0  0  0  0  0  0  0  0  0  0  0
   21.8174   34.2075    2.4293 H   0  0  0  0  0  0  0  0  0  0  0  0
   17.2370   31.1893    2.7086 O   0  0  0  0  0  0  0  0  0  0  0  0
   17.7410   30.1298    1.8881 C   0  0  0  0  0  0  0  0  0  0  0  0
   24.9121   34.1037    5.2652 C   0  0  0  0  0  0  0  0  0  0  0  0
   25.2994   32.8602    3.0694 C   0  0  0  0  0  0  0  0  0  0  0  0
   25.3369   32.8007    1.6784 C   0  0  0  0  0  0  0  0  0  0  0  0
   25.6848   31.6455    1.0515 O   0  0  0  0  0  0  0  0  0  0  0  0
   25.0461   33.9283    0.9187 C   0  0  0  0  0  0  0  0  0  0  0  0
   24.7198   35.1149    1.5679 C   0  0  0  0  0  0  0  0  0  0  0  0
   24.4650   36.2367    0.8424 O   0  0  0  0  0  0  0  0  0  0  0  0
   24.6811   35.1633    2.9571 C   0  0  0  0  0  0  0  0  0  0  0  0
   24.2313   36.6544    3.7106 Cl  0  0  0  0  0  0  0  0  0  0  0  0
   24.9703   34.0411    3.7340 C   0  0  0  0  0  0  0  0  0  0  0  0
   25.8826   30.8804    1.5551 H   0  0  0  0  0  0  0  0  0  0  0  0
   24.4909   36.2051   -0.0937 H   0  0  0  0  0  0  0  0  0  0  0  0
   25.6969   31.6172    3.8712 C   0  0  0  0  0  0  0  0  0  0  0  0
   24.8915   31.0843    4.6331 O   0  0  0  0  0  0  0  0  0  0  0  0
   27.5076   30.7490    5.0277 C   0  0  0  0  0  0  0  0  0  0  0  0
   26.9692   31.1447    3.7618 O   0  0  0  0  0  0  0  0  0  0  0  0
 32 33  1  0  0  0
 33 30  1  0  0  0
 30 31  2  0  0  0
 30 19  1  0  0  0
 19 20  1  0  0  0
 19 27  2  0  0  0
 20 21  1  0  0  0
 20 22  2  0  0  0
 22 23  1  0  0  0
 23 24  1  0  0  0
 23 25  2  0  0  0
 25 26  1  0  0  0
 25 27  1  0  0  0
 27 18  1  0  0  0
 18  1  1  0  0  0
  1  2  1  0  0  0
  2  3  2  0  0  0
  2  4  1  0  0  0
  4  6  1  0  0  0
  6  7  1  0  0  0
  6 12  2  0  0  0
  7  8  2  0  0  0
  8  9  1  0  0  0
  8 10  1  0  0  0
 10 16  1  0  0  0
 10 11  2  0  0  0
 16 17  1  0  0  0
 11 12  1  0  0  0
 12 13  1  0  0  0
 21 28  1  0  0  0
 24 29  1  0  0  0
  4  5  1  0  0  0
  9 14  1  0  0  0
 13 15  1  0  0  0
M  END
> <minimizedAffinity>
-6.86709

$$$$
2FXS_RDA_A_1001


 33 34  0  0  0  0  0  0  0  0999 V2000
   25.4019   32.9599    6.3904 C   0  0  0  0  0  0  0  0  0  0  0  0
   24.0219   33.5568    6.1081 C   0  0  0  0  0  0  0  0  0  0  0  0
   23.9107   34.6630    5.5815 O   0  0  0  0  0  0  0  0  0  0  0  0
   22.9955   32.7819    6.4552 N   0  0  0  0  0  0  0  0  0  0  0  0
   23.1995   31.9002    6.8428 H   0  0  0  0  0  0  0  0  0  0  0  0
   21.7124   33.1138    6.3155 C   0  0  0  0  0  0  0  0  0  0  0  0
   20.9901   32.8133    5.1634 C   0  0  0  0  0  0  0  0  0  0  0  0
   19.6725   33.2416    5.0241 C   0  0  0  0  0  0  0  0  0  0  0  0
   19.0493   32.9826    3.9937 O   0  0  0  0  0  0  0  0  0  0  0  0
   19.0644   33.9739    6.0396 C   0  0  0  0  0  0  0  0  0  0  0  0
   19.7826   34.2709    7.1962 C   0  0  0  0  0  0  0  0  0  0  0  0
   21.0988   33.8416    7.3323 C   0  0  0  0  0  0  0  0  0  0  0  0
   21.7226   34.1012    8.3611 O   0  0  0  0  0  0  0  0  0  0  0  0
   19.4585   32.4897    3.3100 H   0  0  0  0  0  0  0  0  0  0  0  0
   22.6093   33.8138    8.4564 H   0  0  0  0  0  0  0  0  0  0  0  0
   17.7909   34.4265    5.8920 O   0  0  0  0  0  0  0  0  0  0  0  0
   17.4079   35.2805    6.9754 C   0  0  0  0  0  0  0  0  0  0  0  0
   26.3670   33.1648    5.2197 C   0  0  0  0  0  0  0  0  0  0  0  0
   25.7110   31.8014    3.1634 C   0  0  0  0  0  0  0  0  0  0  0  0
   25.7988   30.6684    2.3583 C   0  0  0  0  0  0  0  0  0  0  0  0
   25.0503   30.5722    1.2273 O   0  0  0  0  0  0  0  0  0  0  0  0
   26.6310   29.6139    2.7172 C   0  0  0  0  0  0  0  0  0  0  0  0
   27.3715   29.7070    3.8915 C   0  0  0  0  0  0  0  0  0  0  0  0
   28.1653   28.6719    4.2762 O   0  0  0  0  0  0  0  0  0  0  0  0
   27.2801   30.8442    4.6868 C   0  0  0  0  0  0  0  0  0  0  0  0
   28.2527   30.9225    6.1154 Cl  0  0  0  0  0  0  0  0  0  0  0  0
   26.4498   31.9108    4.3410 C   0  0  0  0  0  0  0  0  0  0  0  0
   24.4865   31.2776    0.9773 H   0  0  0  0  0  0  0  0  0  0  0  0
   28.2276   27.9052    3.7410 H   0  0  0  0  0  0  0  0  0  0  0  0
   24.7286   32.9095    2.7718 C   0  0  0  0  0  0  0  0  0  0  0  0
   23.5183   32.6910    2.7559 O   0  0  0  0  0  0  0  0  0  0  0  0
   25.1939   34.2976    0.9756 C   0  0  0  0  0  0  0  0  0  0  0  0
   25.2222   34.1215    2.3958 O   0  0  0  0  0  0  0  0  0  0  0  0
 32 33  1  0  0  0
 33 30  1  0  0  0
 30 31  2  0  0  0
 30 19  1  0  0  0
 19 20  1  0  0  0
 19 27  2  0  0  0
 20 21  1  0  0  0
 20 22  2  0  0  0
 22 23  1  0  0  0
 23 24  1  0  0  0
 23 25  2  0  0  0
 25 26  1  0  0  0
 25 27  1  0  0  0
 27 18  1  0  0  0
 18  1  1  0  0  0
  1  2  1  0  0  0
  2  3  2  0  0  0
  2  4  1  0  0  0
  4  6  1  0  0  0
  6  7  1  0  0  0
  6 12  2  0  0  0
  7  8  2  0  0  0
  8  9  1  0  0  0
  8 10  1  0  0  0
 10 16  1  0  0  0
 10 11  2  0  0  0
 16 17  1  0  0  0
 11 12  1  0  0  0
 12 13  1  0  0  0
 21 28  1  0  0  0
 24 29  1  0  0  0
  4  5  1  0  0  0
  9 14  1  0  0  0
 13 15  1  0  0  0
M  END
> <minimizedAffinity>
-6.84452

$$$$
2FXS_RDA_A_1001


 33 34  0  0  0  0  0  0  0  0999 V2000
   23.7890   36.2736    5.7944 C   0  0  0  0  0  0  0  0  0  0  0  0
   22.3747   35.9679    5.2976 C   0  0  0  0  0  0  0  0  0  0  0  0
   21.8414   36.6749    4.4437 O   0  0  0  0  0  0  0  0  0  0  0  0
   21.8104   34.8917    5.8434 N   0  0  0  0  0  0  0  0  0  0  0  0
   22.3401   34.3801    6.4968 H   0  0  0  0  0  0  0  0  0  0  0  0
   20.5808   34.4575    5.5687 C   0  0  0  0  0  0  0  0  0  0  0  0
   19.4517   34.9889    6.1870 C   0  0  0  0  0  0  0  0  0  0  0  0
   18.1901   34.4590    5.9293 C   0  0  0  0  0  0  0  0  0  0  0  0
   17.2010   34.9278    6.4942 O   0  0  0  0  0  0  0  0  0  0  0  0
   18.0469   33.3920    5.0469 C   0  0  0  0  0  0  0  0  0  0  0  0
   19.1742   32.8622    4.4221 C   0  0  0  0  0  0  0  0  0  0  0  0
   20.4332   33.3938    4.6818 C   0  0  0  0  0  0  0  0  0  0  0  0
   21.4221   32.9250    4.1186 O   0  0  0  0  0  0  0  0  0  0  0  0
   17.2972   35.6460    7.0882 H   0  0  0  0  0  0  0  0  0  0  0  0
   22.2718   33.2804    4.2910 H   0  0  0  0  0  0  0  0  0  0  0  0
   16.8221   32.8470    4.8212 O   0  0  0  0  0  0  0  0  0  0  0  0
   16.7983   32.0939    3.6038 C   0  0  0  0  0  0  0  0  0  0  0  0
   24.8445   36.0210    4.7146 C   0  0  0  0  0  0  0  0  0  0  0  0
   24.5985   33.9707    3.2136 C   0  0  0  0  0  0  0  0  0  0  0  0
   24.7552   32.6121    2.9498 C   0  0  0  0  0  0  0  0  0  0  0  0
   24.3326   32.0908    1.7673 O   0  0  0  0  0  0  0  0  0  0  0  0
   25.3197   31.7717    3.9029 C   0  0  0  0  0  0  0  0  0  0  0  0
   25.7226   32.3072    5.1223 C   0  0  0  0  0  0  0  0  0  0  0  0
   26.2459   31.4951    6.0795 O   0  0  0  0  0  0  0  0  0  0  0  0
   25.5656   33.6657    5.3747 C   0  0  0  0  0  0  0  0  0  0  0  0
   26.1199   34.2842    6.8924 Cl  0  0  0  0  0  0  0  0  0  0  0  0
   25.0010   34.5224    4.4293 C   0  0  0  0  0  0  0  0  0  0  0  0
   23.9509   32.6492    1.1189 H   0  0  0  0  0  0  0  0  0  0  0  0
   26.3521   30.5796    5.9103 H   0  0  0  0  0  0  0  0  0  0  0  0
   23.9062   34.8495    2.1673 C   0  0  0  0  0  0  0  0  0  0  0  0
   22.7155   34.6852    1.9061 O   0  0  0  0  0  0  0  0  0  0  0  0
   24.5661   35.6102    0.0802 C   0  0  0  0  0  0  0  0  0  0  0  0
   24.6436   35.7792    1.4994 O   0  0  0  0  0  0  0  0  0  0  0  0
 32 33  1  0  0  0
 33 30  1  0  0  0
 30 31  2  0  0  0
 30 19  1  0  0  0
 19 20  1  0  0  0
 19 27  2  0  0  0
 20 21  1  0  0  0
 20 22  2  0  0  0
 22 23  1  0  0  0
 23 24  1  0  0  0
 23 25  2  0  0  0
 25 26  1  0  0  0
 25 27  1  0  0  0
 27 18  1  0  0  0
 18  1  1  0  0  0
  1  2  1  0  0  0
  2  3  2  0  0  0
  2  4  1  0  0  0
  4  6  1  0  0  0
  6  7  1  0  0  0
  6 12  2  0  0  0
  7  8  2  0  0  0
  8  9  1  0  0  0
  8 10  1  0  0  0
 10 16  1  0  0  0
 10 11  2  0  0  0
 16 17  1  0  0  0
 11 12  1  0  0  0
 12 13  1  0  0  0
 21 28  1  0  0  0
 24 29  1  0  0  0
  4  5  1  0  0  0
  9 14  1  0  0  0
 13 15  1  0  0  0
M  END
> <minimizedAffinity>
-6.79831

$$$$
2FXS_RDA_A_1001


 33 34  0  0  0  0  0  0  0  0999 V2000
   25.3612   33.0480    6.3219 C   0  0  0  0  0  0  0  0  0  0  0  0
   23.9846   33.5254    5.8557 C   0  0  0  0  0  0  0  0  0  0  0  0
   23.6442   34.6989    5.9985 O   0  0  0  0  0  0  0  0  0  0  0  0
   23.2313   32.5874    5.2837 N   0  0  0  0  0  0  0  0  0  0  0  0
   23.6153   31.6854    5.1937 H   0  0  0  0  0  0  0  0  0  0  0  0
   21.9954   32.7818    4.8246 C   0  0  0  0  0  0  0  0  0  0  0  0
   21.7484   33.2579    3.5394 C   0  0  0  0  0  0  0  0  0  0  0  0
   20.4462   33.5188    3.1210 C   0  0  0  0  0  0  0  0  0  0  0  0
   20.2420   33.9542    1.9871 O   0  0  0  0  0  0  0  0  0  0  0  0
   19.3775   33.3028    3.9862 C   0  0  0  0  0  0  0  0  0  0  0  0
   19.6211   32.8206    5.2708 C   0  0  0  0  0  0  0  0  0  0  0  0
   20.9232   32.5612    5.6857 C   0  0  0  0  0  0  0  0  0  0  0  0
   21.1280   32.1272    6.8191 O   0  0  0  0  0  0  0  0  0  0  0  0
   20.9614   34.0997    1.4045 H   0  0  0  0  0  0  0  0  0  0  0  0
   22.0037   31.9512    7.1023 H   0  0  0  0  0  0  0  0  0  0  0  0
   18.1079   33.5917    3.5951 O   0  0  0  0  0  0  0  0  0  0  0  0
   17.1425   33.0563    4.5068 C   0  0  0  0  0  0  0  0  0  0  0  0
   26.4567   33.3692    5.3018 C   0  0  0  0  0  0  0  0  0  0  0  0
   26.0439   31.6385    3.4710 C   0  0  0  0  0  0  0  0  0  0  0  0
   25.6422   31.2759    2.1877 C   0  0  0  0  0  0  0  0  0  0  0  0
   25.6871   29.9741    1.7981 O   0  0  0  0  0  0  0  0  0  0  0  0
   25.2178   32.2440    1.2843 C   0  0  0  0  0  0  0  0  0  0  0  0
   25.2027   33.5777    1.6806 C   0  0  0  0  0  0  0  0  0  0  0  0
   24.8227   34.5422    0.8002 O   0  0  0  0  0  0  0  0  0  0  0  0
   25.6020   33.9293    2.9654 C   0  0  0  0  0  0  0  0  0  0  0  0
   25.5260   35.5978    3.4168 Cl  0  0  0  0  0  0  0  0  0  0  0  0
   26.0306   32.9704    3.8837 C   0  0  0  0  0  0  0  0  0  0  0  0
   25.9717   29.3146    2.3998 H   0  0  0  0  0  0  0  0  0  0  0  0
   24.5535   34.3063   -0.0658 H   0  0  0  0  0  0  0  0  0  0  0  0
   26.5735   30.5520    4.4119 C   0  0  0  0  0  0  0  0  0  0  0  0
   27.7812   30.4409    4.6169 O   0  0  0  0  0  0  0  0  0  0  0  0
   26.1674   28.3354    4.9519 C   0  0  0  0  0  0  0  0  0  0  0  0
   25.6888   29.6842    4.9761 O   0  0  0  0  0  0  0  0  0  0  0  0
 32 33  1  0  0  0
 33 30  1  0  0  0
 30 31  2  0  0  0
 30 19  1  0  0  0
 19 20  1  0  0  0
 19 27  2  0  0  0
 20 21  1  0  0  0
 20 22  2  0  0  0
 22 23  1  0  0  0
 23 24  1  0  0  0
 23 25  2  0  0  0
 25 26  1  0  0  0
 25 27  1  0  0  0
 27 18  1  0  0  0
 18  1  1  0  0  0
  1  2  1  0  0  0
  2  3  2  0  0  0
  2  4  1  0  0  0
  4  6  1  0  0  0
  6  7  1  0  0  0
  6 12  2  0  0  0
  7  8  2  0  0  0
  8  9  1  0  0  0
  8 10  1  0  0  0
 10 16  1  0  0  0
 10 11  2  0  0  0
 16 17  1  0  0  0
 11 12  1  0  0  0
 12 13  1  0  0  0
 21 28  1  0  0  0
 24 29  1  0  0  0
  4  5  1  0  0  0
  9 14  1  0  0  0
 13 15  1  0  0  0
M  END
> <minimizedAffinity>
-6.51136

$$$$
2FXS_RDA_A_1001


 33 34  0  0  0  0  0  0  0  0999 V2000
   22.9880   35.3230    2.7242 C   0  0  0  0  0  0  0  0  0  0  0  0
   24.0933   34.3514    3.1424 C   0  0  0  0  0  0  0  0  0  0  0  0
   25.1539   34.7673    3.6065 O   0  0  0  0  0  0  0  0  0  0  0  0
   23.7962   33.0629    2.9808 N   0  0  0  0  0  0  0  0  0  0  0  0
   22.9044   32.8406    2.6278 H   0  0  0  0  0  0  0  0  0  0  0  0
   24.6189   32.0531    3.2624 C   0  0  0  0  0  0  0  0  0  0  0  0
   24.8216   31.6032    4.5647 C   0  0  0  0  0  0  0  0  0  0  0  0
   25.7450   30.5947    4.8278 C   0  0  0  0  0  0  0  0  0  0  0  0
   25.9263   30.2162    5.9859 O   0  0  0  0  0  0  0  0  0  0  0  0
   26.4734   30.0250    3.7875 C   0  0  0  0  0  0  0  0  0  0  0  0
   26.2682   30.4689    2.4826 C   0  0  0  0  0  0  0  0  0  0  0  0
   25.3451   31.4766    2.2231 C   0  0  0  0  0  0  0  0  0  0  0  0
   25.1644   31.8562    1.0664 O   0  0  0  0  0  0  0  0  0  0  0  0
   25.4360   30.5997    6.6863 H   0  0  0  0  0  0  0  0  0  0  0  0
   24.5435   32.5348    0.8876 H   0  0  0  0  0  0  0  0  0  0  0  0
   27.4029   29.0667    4.0442 O   0  0  0  0  0  0  0  0  0  0  0  0
   26.8771   27.7529    3.8269 C   0  0  0  0  0  0  0  0  0  0  0  0
   22.1299   35.7635    3.9131 C   0  0  0  0  0  0  0  0  0  0  0  0
   21.3349   34.0780    5.6580 C   0  0  0  0  0  0  0  0  0  0  0  0
   20.4879   33.0604    6.0903 C   0  0  0  0  0  0  0  0  0  0  0  0
   20.6448   32.5179    7.3271 O   0  0  0  0  0  0  0  0  0  0  0  0
   19.4924   32.5711    5.2520 C   0  0  0  0  0  0  0  0  0  0  0  0
   19.3571   33.1109    3.9767 C   0  0  0  0  0  0  0  0  0  0  0  0
   18.4110   32.6222    3.1307 O   0  0  0  0  0  0  0  0  0  0  0  0
   20.2051   34.1294    3.5557 C   0  0  0  0  0  0  0  0  0  0  0  0
   19.9664   34.7901    1.9746 Cl  0  0  0  0  0  0  0  0  0  0  0  0
   21.2090   34.6315    4.3843 C   0  0  0  0  0  0  0  0  0  0  0  0
   21.3129   32.8410    7.8991 H   0  0  0  0  0  0  0  0  0  0  0  0
   17.8391   31.9359    3.4135 H   0  0  0  0  0  0  0  0  0  0  0  0
   22.4650   34.5392    6.5835 C   0  0  0  0  0  0  0  0  0  0  0  0
   22.2495   35.3746    7.4602 O   0  0  0  0  0  0  0  0  0  0  0  0
   24.3409   33.6488    7.6121 C   0  0  0  0  0  0  0  0  0  0  0  0
   23.7183   34.0451    6.3856 O   0  0  0  0  0  0  0  0  0  0  0  0
 32 33  1  0  0  0
 33 30  1  0  0  0
 30 31  2  0  0  0
 30 19  1  0  0  0
 19 20  1  0  0  0
 19 27  2  0  0  0
 20 21  1  0  0  0
 20 22  2  0  0  0
 22 23  1  0  0  0
 23 24  1  0  0  0
 23 25  2  0  0  0
 25 26  1  0  0  0
 25 27  1  0  0  0
 27 18  1  0  0  0
 18  1  1  0  0  0
  1  2  1  0  0  0
  2  3  2  0  0  0
  2  4  1  0  0  0
  4  6  1  0  0  0
  6  7  1  0  0  0
  6 12  2  0  0  0
  7  8  2  0  0  0
  8  9  1  0  0  0
  8 10  1  0  0  0
 10 16  1  0  0  0
 10 11  2  0  0  0
 16 17  1  0  0  0
 11 12  1  0  0  0
 12 13  1  0  0  0
 21 28  1  0  0  0
 24 29  1  0  0  0
  4  5  1  0  0  0
  9 14  1  0  0  0
 13 15  1  0  0  0
M  END
> <minimizedAffinity>
-6.44128

$$$$
