5FHO_5XN_A_301


 30 32  0  0  0  0  0  0  0  0999 V2000
   93.3794   17.0699   29.2201 C   0  0  0  0  0  0  0  0  0  0  0  0
   93.6727   16.6873   30.4751 C   0  0  0  0  0  0  0  0  0  0  0  0
   92.8005   17.2257   31.3914 O   0  0  0  0  0  0  0  0  0  0  0  0
   91.8995   18.0114   30.6275 N   0  0  0  0  0  0  0  0  0  0  0  0
   92.2334   17.9271   29.3136 C   0  0  0  0  0  0  0  0  0  0  0  0
   91.6591   18.4898   28.3603 O   0  0  0  0  0  0  0  0  0  0  0  0
   91.1502   18.5354   30.9923 H   0  0  0  0  0  0  0  0  0  0  0  0
   94.7546   15.7956   30.9365 C   0  0  0  0  0  0  0  0  0  0  0  0
   94.6833   15.2066   32.1617 N   0  0  0  0  0  0  0  0  0  0  0  0
   95.7594   14.4969   32.2515 N   0  0  0  0  0  0  0  0  0  0  0  0
   96.4392   14.6798   31.0932 N   0  0  0  0  0  0  0  0  0  0  0  0
   95.8281   15.5081   30.2128 N   0  0  0  0  0  0  0  0  0  0  0  0
   97.7134   14.0235   30.8570 C   0  0  0  0  0  0  0  0  0  0  0  0
  100.1557   14.2504   34.4440 C   0  0  0  0  0  0  0  0  0  0  0  0
   99.4601   13.0672   34.1421 C   0  0  0  0  0  0  0  0  0  0  0  0
   98.6670   12.9938   32.9793 C   0  0  0  0  0  0  0  0  0  0  0  0
   98.5756   14.1030   32.1114 C   0  0  0  0  0  0  0  0  0  0  0  0
   99.2729   15.2912   32.4224 C   0  0  0  0  0  0  0  0  0  0  0  0
  100.0630   15.3634   33.5852 C   0  0  0  0  0  0  0  0  0  0  0  0
   99.5836   11.7119   35.2042 Cl  0  0  0  0  0  0  0  0  0  0  0  0
   94.0590   16.7245   27.8989 C   0  0  0  0  0  0  0  0  0  0  0  0
   93.7075   15.3178   27.3465 C   0  0  0  0  0  0  0  0  0  0  0  0
   94.7019   14.2917   27.6995 N   0  0  0  0  0  0  0  0  0  0  0  0
   95.5946   14.5182   27.2611 H   0  0  0  0  0  0  0  0  0  0  0  0
   94.3826   13.3809   27.3695 H   0  0  0  0  0  0  0  0  0  0  0  0
   94.8178   14.2648   28.7126 H   0  0  0  0  0  0  0  0  0  0  0  0
   93.5575   15.3193   25.8100 C   0  0  0  0  0  0  0  0  0  0  0  0
   92.9071   16.2447   25.2814 O   0  0  0  0  0  0  0  0  0  0  0  0
   94.0792   14.4076   25.1364 O   0  0  0  0  0  0  0  0  0  0  0  0
   94.5613   13.7269   25.5632 H   0  0  0  0  0  0  0  0  0  0  0  0
 28 27  2  0  0  0
 29 27  1  0  0  0
 27 22  1  0  0  0
 22 23  1  0  0  0
 22 21  1  0  0  0
 21  1  1  0  0  0
  6  5  2  0  0  0
  1  5  1  0  0  0
  1  2  2  0  0  0
  5  4  1  0  0  0
 12  8  2  0  0  0
 12 11  1  0  0  0
  2  8  1  0  0  0
  2  3  1  0  0  0
  4  3  1  0  0  0
 13 11  1  0  0  0
 13 17  1  0  0  0
  8  9  1  0  0  0
 11 10  1  0  0  0
 17 18  2  0  0  0
 17 16  1  0  0  0
  9 10  2  0  0  0
 18 19  1  0  0  0
 16 15  2  0  0  0
 19 14  2  0  0  0
 15 14  1  0  0  0
 15 20  1  0  0  0
  4  7  1  0  0  0
 29 30  1  0  0  0
 23 24  1  0  0  0
 23 25  1  0  0  0
 23 26  1  0  0  0
M  CHG 1  23   1
M  END
> <minimizedAffinity>
-11.88898

$$$$
5FHO_5XN_A_301


 30 32  0  0  0  0  0  0  0  0999 V2000
   94.2303   17.3910   30.3438 C   0  0  0  0  0  0  0  0  0  0  0  0
   94.9444   16.7412   31.2792 C   0  0  0  0  0  0  0  0  0  0  0  0
   94.5592   17.0910   32.5519 O   0  0  0  0  0  0  0  0  0  0  0  0
   93.5227   18.0434   32.3762 N   0  0  0  0  0  0  0  0  0  0  0  0
   93.3097   18.2351   31.0485 C   0  0  0  0  0  0  0  0  0  0  0  0
   92.4747   19.0027   30.5301 O   0  0  0  0  0  0  0  0  0  0  0  0
   93.0345   18.4946   33.1024 H   0  0  0  0  0  0  0  0  0  0  0  0
   96.0180   15.7458   31.0912 C   0  0  0  0  0  0  0  0  0  0  0  0
   95.7597   14.5686   30.4584 N   0  0  0  0  0  0  0  0  0  0  0  0
   96.8896   13.9417   30.4501 N   0  0  0  0  0  0  0  0  0  0  0  0
   97.7826   14.7491   31.0729 N   0  0  0  0  0  0  0  0  0  0  0  0
   97.2662   15.9256   31.5017 N   0  0  0  0  0  0  0  0  0  0  0  0
   99.1678   14.3471   31.2452 C   0  0  0  0  0  0  0  0  0  0  0  0
  100.0627   13.8582   35.4693 C   0  0  0  0  0  0  0  0  0  0  0  0
  100.3481   15.0755   34.8276 C   0  0  0  0  0  0  0  0  0  0  0  0
  100.0590   15.2338   33.4573 C   0  0  0  0  0  0  0  0  0  0  0  0
   99.4751   14.1757   32.7283 C   0  0  0  0  0  0  0  0  0  0  0  0
   99.1949   12.9530   33.3772 C   0  0  0  0  0  0  0  0  0  0  0  0
   99.4861   12.7959   34.7455 C   0  0  0  0  0  0  0  0  0  0  0  0
  101.0546   16.3678   35.7280 Cl  0  0  0  0  0  0  0  0  0  0  0  0
   94.3029   17.3212   28.8217 C   0  0  0  0  0  0  0  0  0  0  0  0
   93.3056   16.3217   28.1782 C   0  0  0  0  0  0  0  0  0  0  0  0
   93.6337   15.9943   26.7812 N   0  0  0  0  0  0  0  0  0  0  0  0
   93.5539   16.8339   26.2075 H   0  0  0  0  0  0  0  0  0  0  0  0
   92.9867   15.2848   26.4373 H   0  0  0  0  0  0  0  0  0  0  0  0
   94.5879   15.6375   26.7307 H   0  0  0  0  0  0  0  0  0  0  0  0
   91.8550   16.8488   28.2102 C   0  0  0  0  0  0  0  0  0  0  0  0
   90.9452   16.0545   28.5265 O   0  0  0  0  0  0  0  0  0  0  0  0
   91.6230   18.0403   27.9210 O   0  0  0  0  0  0  0  0  0  0  0  0
   92.3281   18.6116   27.6877 H   0  0  0  0  0  0  0  0  0  0  0  0
 28 27  2  0  0  0
 29 27  1  0  0  0
 27 22  1  0  0  0
 22 23  1  0  0  0
 22 21  1  0  0  0
 21  1  1  0  0  0
  6  5  2  0  0  0
  1  5  1  0  0  0
  1  2  2  0  0  0
  5  4  1  0  0  0
 12  8  2  0  0  0
 12 11  1  0  0  0
  2  8  1  0  0  0
  2  3  1  0  0  0
  4  3  1  0  0  0
 13 11  1  0  0  0
 13 17  1  0  0  0
  8  9  1  0  0  0
 11 10  1  0  0  0
 17 18  2  0  0  0
 17 16  1  0  0  0
  9 10  2  0  0  0
 18 19  1  0  0  0
 16 15  2  0  0  0
 19 14  2  0  0  0
 15 14  1  0  0  0
 15 20  1  0  0  0
  4  7  1  0  0  0
 29 30  1  0  0  0
 23 24  1  0  0  0
 23 25  1  0  0  0
 23 26  1  0  0  0
M  CHG 1  23   1
M  END
> <minimizedAffinity>
-9.81773

$$$$
5FHO_5XN_A_301


 30 32  0  0  0  0  0  0  0  0999 V2000
   93.1967   16.5750   29.1409 C   0  0  0  0  0  0  0  0  0  0  0  0
   94.3367   15.9772   28.7532 C   0  0  0  0  0  0  0  0  0  0  0  0
   94.3908   15.8138   27.3892 O   0  0  0  0  0  0  0  0  0  0  0  0
   93.1725   16.3542   26.9031 N   0  0  0  0  0  0  0  0  0  0  0  0
   92.4400   16.8203   27.9476 C   0  0  0  0  0  0  0  0  0  0  0  0
   91.3166   17.3586   27.8896 O   0  0  0  0  0  0  0  0  0  0  0  0
   92.9008   16.3864   25.9574 H   0  0  0  0  0  0  0  0  0  0  0  0
   95.4671   15.5224   29.5863 C   0  0  0  0  0  0  0  0  0  0  0  0
   95.9815   16.3359   30.5489 N   0  0  0  0  0  0  0  0  0  0  0  0
   96.9321   15.6485   31.0907 N   0  0  0  0  0  0  0  0  0  0  0  0
   96.9630   14.4575   30.4442 N   0  0  0  0  0  0  0  0  0  0  0  0
   96.0341   14.3294   29.4669 N   0  0  0  0  0  0  0  0  0  0  0  0
   97.9283   13.4325   30.8014 C   0  0  0  0  0  0  0  0  0  0  0  0
  100.1364   14.6684   34.3340 C   0  0  0  0  0  0  0  0  0  0  0  0
   99.5956   13.3733   34.2616 C   0  0  0  0  0  0  0  0  0  0  0  0
   98.8784   12.9727   33.1164 C   0  0  0  0  0  0  0  0  0  0  0  0
   98.7085   13.8659   32.0369 C   0  0  0  0  0  0  0  0  0  0  0  0
   99.2500   15.1678   32.1172 C   0  0  0  0  0  0  0  0  0  0  0  0
   99.9644   15.5669   33.2625 C   0  0  0  0  0  0  0  0  0  0  0  0
   99.8148   12.2838   35.5826 Cl  0  0  0  0  0  0  0  0  0  0  0  0
   92.7077   16.9581   30.5341 C   0  0  0  0  0  0  0  0  0  0  0  0
   92.9555   18.4421   30.9140 C   0  0  0  0  0  0  0  0  0  0  0  0
   93.5647   18.6056   32.2439 N   0  0  0  0  0  0  0  0  0  0  0  0
   92.9190   18.2676   32.9575 H   0  0  0  0  0  0  0  0  0  0  0  0
   93.7655   19.5922   32.4069 H   0  0  0  0  0  0  0  0  0  0  0  0
   94.4317   18.0702   32.2889 H   0  0  0  0  0  0  0  0  0  0  0  0
   91.6543   19.2723   30.8867 C   0  0  0  0  0  0  0  0  0  0  0  0
   91.4274   20.0456   31.8403 O   0  0  0  0  0  0  0  0  0  0  0  0
   90.8649   19.1543   29.9275 O   0  0  0  0  0  0  0  0  0  0  0  0
   91.0640   18.5651   29.2266 H   0  0  0  0  0  0  0  0  0  0  0  0
 28 27  2  0  0  0
 29 27  1  0  0  0
 27 22  1  0  0  0
 22 23  1  0  0  0
 22 21  1  0  0  0
 21  1  1  0  0  0
  6  5  2  0  0  0
  1  5  1  0  0  0
  1  2  2  0  0  0
  5  4  1  0  0  0
 12  8  2  0  0  0
 12 11  1  0  0  0
  2  8  1  0  0  0
  2  3  1  0  0  0
  4  3  1  0  0  0
 13 11  1  0  0  0
 13 17  1  0  0  0
  8  9  1  0  0  0
 11 10  1  0  0  0
 17 18  2  0  0  0
 17 16  1  0  0  0
  9 10  2  0  0  0
 18 19  1  0  0  0
 16 15  2  0  0  0
 19 14  2  0  0  0
 15 14  1  0  0  0
 15 20  1  0  0  0
  4  7  1  0  0  0
 29 30  1  0  0  0
 23 24  1  0  0  0
 23 25  1  0  0  0
 23 26  1  0  0  0
M  CHG 1  23   1
M  END
> <minimizedAffinity>
-9.70449

$$$$
