5E2K_BX4_A_302


 21 22  0  0  0  0  0  0  0  0999 V2000
   -5.2442    2.3235   16.1069 C   0  0  0  0  0  0  0  0  0  0  0  0
   -6.0978    3.3588   15.7430 C   0  0  0  0  0  0  0  0  0  0  0  0
   -5.6056    4.4505   15.0381 C   0  0  0  0  0  0  0  0  0  0  0  0
   -4.2600    4.5070   14.6954 C   0  0  0  0  0  0  0  0  0  0  0  0
   -3.4064    3.4717   15.0593 C   0  0  0  0  0  0  0  0  0  0  0  0
   -3.8983    2.3807   15.7648 C   0  0  0  0  0  0  0  0  0  0  0  0
   -3.7320    5.6751   13.9413 C   0  0  0  0  0  0  0  0  0  0  0  0
   -4.1817    5.9301   12.6519 C   0  0  0  0  0  0  0  0  0  0  0  0
   -3.6898    7.0225   11.9471 C   0  0  0  0  0  0  0  0  0  0  0  0
   -2.7473    7.8605   12.5331 C   0  0  0  0  0  0  0  0  0  0  0  0
   -2.2976    7.6052   13.8234 C   0  0  0  0  0  0  0  0  0  0  0  0
   -2.7905    6.5127   14.5281 C   0  0  0  0  0  0  0  0  0  0  0  0
   -1.3616    8.4358   14.4053 N   0  0  0  0  0  0  0  0  0  0  0  0
   -1.0124    9.2094   13.9066 H   0  0  0  0  0  0  0  0  0  0  0  0
   -1.0432    8.2546   15.3190 H   0  0  0  0  0  0  0  0  0  0  0  0
   -5.8721    0.9338   17.0049 S   0  0  0  0  0  0  0  0  0  0  0  0
   -7.4779    0.9669   16.8893 N   0  0  0  0  0  0  0  0  0  0  0  0
   -5.4174   -0.2546   16.3384 O   0  0  0  0  0  0  0  0  0  0  0  0
   -5.5372    1.1259   18.3882 O   0  0  0  0  0  0  0  0  0  0  0  0
   -7.8352    1.8015   17.3543 H   0  0  0  0  0  0  0  0  0  0  0  0
   -7.8680    0.1363   17.3347 H   0  0  0  0  0  0  0  0  0  0  0  0
 13 11  1  0  0  0
 11 10  2  0  0  0
 11 12  1  0  0  0
 10  9  1  0  0  0
 12  7  2  0  0  0
  9  8  2  0  0  0
  7  8  1  0  0  0
  7  4  1  0  0  0
  4  5  2  0  0  0
  4  3  1  0  0  0
  5  6  1  0  0  0
  3  2  2  0  0  0
  6  1  2  0  0  0
  2  1  1  0  0  0
  1 16  1  0  0  0
 17 16  1  0  0  0
 19 16  2  0  0  0
 16 18  2  0  0  0
 17 20  1  0  0  0
 17 21  1  0  0  0
 13 14  1  0  0  0
 13 15  1  0  0  0
M  END
> <minimizedAffinity>
-7.59943

$$$$
5E2K_BX4_A_302


 21 22  0  0  0  0  0  0  0  0999 V2000
   -5.2427    2.3235   16.1049 C   0  0  0  0  0  0  0  0  0  0  0  0
   -3.8969    2.3770   15.7599 C   0  0  0  0  0  0  0  0  0  0  0  0
   -3.4027    3.4678   15.0551 C   0  0  0  0  0  0  0  0  0  0  0  0
   -4.2533    4.5065   14.6961 C   0  0  0  0  0  0  0  0  0  0  0  0
   -5.5990    4.4530   15.0411 C   0  0  0  0  0  0  0  0  0  0  0  0
   -6.0934    3.3621   15.7449 C   0  0  0  0  0  0  0  0  0  0  0  0
   -3.7254    5.6743   13.9415 C   0  0  0  0  0  0  0  0  0  0  0  0
   -4.1716    5.9259   12.6502 C   0  0  0  0  0  0  0  0  0  0  0  0
   -3.6798    7.0181   11.9450 C   0  0  0  0  0  0  0  0  0  0  0  0
   -2.7410    7.8592   12.5323 C   0  0  0  0  0  0  0  0  0  0  0  0
   -2.2948    7.6072   13.8245 C   0  0  0  0  0  0  0  0  0  0  0  0
   -2.7875    6.5150   14.5298 C   0  0  0  0  0  0  0  0  0  0  0  0
   -1.3624    8.4408   14.4078 N   0  0  0  0  0  0  0  0  0  0  0  0
   -1.0132    9.2144   13.9088 H   0  0  0  0  0  0  0  0  0  0  0  0
   -1.0464    8.2621   15.3229 H   0  0  0  0  0  0  0  0  0  0  0  0
   -5.8711    0.9336   17.0022 S   0  0  0  0  0  0  0  0  0  0  0  0
   -7.4770    0.9687   16.8886 N   0  0  0  0  0  0  0  0  0  0  0  0
   -5.4185   -0.2546   16.3338 O   0  0  0  0  0  0  0  0  0  0  0  0
   -5.5342    1.1237   18.3852 O   0  0  0  0  0  0  0  0  0  0  0  0
   -7.8327    1.8032   17.3550 H   0  0  0  0  0  0  0  0  0  0  0  0
   -7.8675    0.1380   17.3336 H   0  0  0  0  0  0  0  0  0  0  0  0
 13 11  1  0  0  0
 11 10  2  0  0  0
 11 12  1  0  0  0
 10  9  1  0  0  0
 12  7  2  0  0  0
  9  8  2  0  0  0
  7  8  1  0  0  0
  7  4  1  0  0  0
  4  5  2  0  0  0
  4  3  1  0  0  0
  5  6  1  0  0  0
  3  2  2  0  0  0
  6  1  2  0  0  0
  2  1  1  0  0  0
  1 16  1  0  0  0
 17 16  1  0  0  0
 19 16  2  0  0  0
 16 18  2  0  0  0
 17 20  1  0  0  0
 17 21  1  0  0  0
 13 14  1  0  0  0
 13 15  1  0  0  0
M  END
> <minimizedAffinity>
-7.59932

$$$$
5E2K_BX4_A_302


 21 22  0  0  0  0  0  0  0  0999 V2000
   -5.6311    2.5950   16.2671 C   0  0  0  0  0  0  0  0  0  0  0  0
   -6.4122    3.6884   15.9102 C   0  0  0  0  0  0  0  0  0  0  0  0
   -5.8714    4.7047   15.1321 C   0  0  0  0  0  0  0  0  0  0  0  0
   -4.5499    4.6278   14.7091 C   0  0  0  0  0  0  0  0  0  0  0  0
   -3.7688    3.5344   15.0659 C   0  0  0  0  0  0  0  0  0  0  0  0
   -4.3091    2.5188   15.8446 C   0  0  0  0  0  0  0  0  0  0  0  0
   -3.9700    5.7152   13.8765 C   0  0  0  0  0  0  0  0  0  0  0  0
   -2.9708    6.5291   14.3951 C   0  0  0  0  0  0  0  0  0  0  0  0
   -2.4272    7.5446   13.6169 C   0  0  0  0  0  0  0  0  0  0  0  0
   -2.8839    7.7457   12.3189 C   0  0  0  0  0  0  0  0  0  0  0  0
   -3.8837    6.9310   11.8003 C   0  0  0  0  0  0  0  0  0  0  0  0
   -4.4265    5.9150   12.5788 C   0  0  0  0  0  0  0  0  0  0  0  0
   -4.3381    7.1305   10.5125 N   0  0  0  0  0  0  0  0  0  0  0  0
   -3.9540    7.8499    9.9609 H   0  0  0  0  0  0  0  0  0  0  0  0
   -5.0463    6.5535   10.1455 H   0  0  0  0  0  0  0  0  0  0  0  0
   -6.3208    1.3013   17.2584 S   0  0  0  0  0  0  0  0  0  0  0  0
   -5.4418   -0.0241   17.0064 N   0  0  0  0  0  0  0  0  0  0  0  0
   -6.1524    1.6737   18.6355 O   0  0  0  0  0  0  0  0  0  0  0  0
   -7.6443    1.0387   16.7667 O   0  0  0  0  0  0  0  0  0  0  0  0
   -5.5391   -0.3169   16.0342 H   0  0  0  0  0  0  0  0  0  0  0  0
   -5.7681   -0.7704   17.6205 H   0  0  0  0  0  0  0  0  0  0  0  0
 13 11  1  0  0  0
 11 10  2  0  0  0
 11 12  1  0  0  0
 10  9  1  0  0  0
 12  7  2  0  0  0
  9  8  2  0  0  0
  7  8  1  0  0  0
  7  4  1  0  0  0
  4  5  2  0  0  0
  4  3  1  0  0  0
  5  6  1  0  0  0
  3  2  2  0  0  0
  6  1  2  0  0  0
  2  1  1  0  0  0
  1 16  1  0  0  0
 17 16  1  0  0  0
 19 16  2  0  0  0
 16 18  2  0  0  0
 17 20  1  0  0  0
 17 21  1  0  0  0
 13 14  1  0  0  0
 13 15  1  0  0  0
M  END
> <minimizedAffinity>
-7.46540

$$$$
5E2K_BX4_A_302


 21 22  0  0  0  0  0  0  0  0999 V2000
   -1.9117    3.8228   12.5329 C   0  0  0  0  0  0  0  0  0  0  0  0
   -2.7922    2.7832   12.2555 C   0  0  0  0  0  0  0  0  0  0  0  0
   -3.7637    2.4285   13.1836 C   0  0  0  0  0  0  0  0  0  0  0  0
   -3.8564    3.1139   14.3889 C   0  0  0  0  0  0  0  0  0  0  0  0
   -2.9759    4.1535   14.6664 C   0  0  0  0  0  0  0  0  0  0  0  0
   -2.0041    4.5076   13.7389 C   0  0  0  0  0  0  0  0  0  0  0  0
   -4.8955    2.7349   15.3831 C   0  0  0  0  0  0  0  0  0  0  0  0
   -5.9151    3.6251   15.6956 C   0  0  0  0  0  0  0  0  0  0  0  0
   -6.8875    3.2710   16.6235 C   0  0  0  0  0  0  0  0  0  0  0  0
   -6.8396    2.0249   17.2392 C   0  0  0  0  0  0  0  0  0  0  0  0
   -5.8193    1.1343   16.9262 C   0  0  0  0  0  0  0  0  0  0  0  0
   -4.8473    1.4888   15.9974 C   0  0  0  0  0  0  0  0  0  0  0  0
   -5.7706   -0.1021   17.5374 N   0  0  0  0  0  0  0  0  0  0  0  0
   -6.4586   -0.3536   18.1951 H   0  0  0  0  0  0  0  0  0  0  0  0
   -5.0477   -0.7327   17.3157 H   0  0  0  0  0  0  0  0  0  0  0  0
   -0.6747    4.2734   11.3503 S   0  0  0  0  0  0  0  0  0  0  0  0
    0.6225    4.7645   12.1683 N   0  0  0  0  0  0  0  0  0  0  0  0
   -0.3064    3.0843   10.6336 O   0  0  0  0  0  0  0  0  0  0  0  0
   -1.1710    5.4023   10.6144 O   0  0  0  0  0  0  0  0  0  0  0  0
    0.3949    5.6106   12.6906 H   0  0  0  0  0  0  0  0  0  0  0  0
    1.3814    4.9615   11.5159 H   0  0  0  0  0  0  0  0  0  0  0  0
 13 11  1  0  0  0
 11 10  2  0  0  0
 11 12  1  0  0  0
 10  9  1  0  0  0
 12  7  2  0  0  0
  9  8  2  0  0  0
  7  8  1  0  0  0
  7  4  1  0  0  0
  4  5  2  0  0  0
  4  3  1  0  0  0
  5  6  1  0  0  0
  3  2  2  0  0  0
  6  1  2  0  0  0
  2  1  1  0  0  0
  1 16  1  0  0  0
 17 16  1  0  0  0
 19 16  2  0  0  0
 16 18  2  0  0  0
 17 20  1  0  0  0
 17 21  1  0  0  0
 13 14  1  0  0  0
 13 15  1  0  0  0
M  END
> <minimizedAffinity>
-7.02748

$$$$
5E2K_BX4_A_302


 21 22  0  0  0  0  0  0  0  0999 V2000
   -3.4797    3.8141   11.4088 C   0  0  0  0  0  0  0  0  0  0  0  0
   -4.0509    2.5558   11.5616 C   0  0  0  0  0  0  0  0  0  0  0  0
   -4.6902    2.2221   12.7495 C   0  0  0  0  0  0  0  0  0  0  0  0
   -4.7600    3.1467   13.7846 C   0  0  0  0  0  0  0  0  0  0  0  0
   -4.1888    4.4050   13.6318 C   0  0  0  0  0  0  0  0  0  0  0  0
   -3.5488    4.7383   12.4446 C   0  0  0  0  0  0  0  0  0  0  0  0
   -5.4437    2.7906   15.0564 C   0  0  0  0  0  0  0  0  0  0  0  0
   -6.2842    3.7084   15.6737 C   0  0  0  0  0  0  0  0  0  0  0  0
   -6.9247    3.3756   16.8615 C   0  0  0  0  0  0  0  0  0  0  0  0
   -6.7242    2.1234   17.4322 C   0  0  0  0  0  0  0  0  0  0  0  0
   -5.8832    1.2051   16.8142 C   0  0  0  0  0  0  0  0  0  0  0  0
   -5.2433    1.5383   15.6256 C   0  0  0  0  0  0  0  0  0  0  0  0
   -5.6829   -0.0375   17.3803 N   0  0  0  0  0  0  0  0  0  0  0  0
   -6.1358   -0.2738   18.2218 H   0  0  0  0  0  0  0  0  0  0  0  0
   -5.0870   -0.6876   16.9425 H   0  0  0  0  0  0  0  0  0  0  0  0
   -2.6654    4.2377    9.8958 S   0  0  0  0  0  0  0  0  0  0  0  0
   -3.8046    4.4957    8.7874 N   0  0  0  0  0  0  0  0  0  0  0  0
   -1.9801    5.4825   10.1060 O   0  0  0  0  0  0  0  0  0  0  0  0
   -1.9096    3.0911    9.4758 O   0  0  0  0  0  0  0  0  0  0  0  0
   -4.3125    3.6284    8.6136 H   0  0  0  0  0  0  0  0  0  0  0  0
   -3.3704    4.8149    7.9214 H   0  0  0  0  0  0  0  0  0  0  0  0
 13 11  1  0  0  0
 11 10  2  0  0  0
 11 12  1  0  0  0
 10  9  1  0  0  0
 12  7  2  0  0  0
  9  8  2  0  0  0
  7  8  1  0  0  0
  7  4  1  0  0  0
  4  5  2  0  0  0
  4  3  1  0  0  0
  5  6  1  0  0  0
  3  2  2  0  0  0
  6  1  2  0  0  0
  2  1  1  0  0  0
  1 16  1  0  0  0
 17 16  1  0  0  0
 19 16  2  0  0  0
 16 18  2  0  0  0
 17 20  1  0  0  0
 17 21  1  0  0  0
 13 14  1  0  0  0
 13 15  1  0  0  0
M  END
> <minimizedAffinity>
-6.95423

$$$$
5E2K_BX4_A_302


 21 22  0  0  0  0  0  0  0  0999 V2000
   -3.7208    3.4620   14.9969 C   0  0  0  0  0  0  0  0  0  0  0  0
   -2.4219    3.7221   14.5747 C   0  0  0  0  0  0  0  0  0  0  0  0
   -2.0447    5.0181   14.2445 C   0  0  0  0  0  0  0  0  0  0  0  0
   -2.9653    6.0549   14.3376 C   0  0  0  0  0  0  0  0  0  0  0  0
   -4.2641    5.7948   14.7598 C   0  0  0  0  0  0  0  0  0  0  0  0
   -4.6416    4.4990   15.0891 C   0  0  0  0  0  0  0  0  0  0  0  0
   -2.5627    7.4423   13.9841 C   0  0  0  0  0  0  0  0  0  0  0  0
   -2.1838    8.3311   14.9823 C   0  0  0  0  0  0  0  0  0  0  0  0
   -1.8060    9.6274   14.6524 C   0  0  0  0  0  0  0  0  0  0  0  0
   -1.8070   10.0347   13.3228 C   0  0  0  0  0  0  0  0  0  0  0  0
   -2.1861    9.1450   12.3242 C   0  0  0  0  0  0  0  0  0  0  0  0
   -2.5633    7.8483   12.6546 C   0  0  0  0  0  0  0  0  0  0  0  0
   -2.1884    9.5487   11.0045 N   0  0  0  0  0  0  0  0  0  0  0  0
   -1.9213   10.4668   10.7700 H   0  0  0  0  0  0  0  0  0  0  0  0
   -2.4571    8.9185   10.2974 H   0  0  0  0  0  0  0  0  0  0  0  0
   -4.2002    1.8110   15.4168 S   0  0  0  0  0  0  0  0  0  0  0  0
   -4.3153    0.9755   14.0451 N   0  0  0  0  0  0  0  0  0  0  0  0
   -3.1336    1.2319   16.1850 O   0  0  0  0  0  0  0  0  0  0  0  0
   -5.5147    1.8756   15.9917 O   0  0  0  0  0  0  0  0  0  0  0  0
   -5.0664    1.3620   13.4735 H   0  0  0  0  0  0  0  0  0  0  0  0
   -4.5181   -0.0012   14.2579 H   0  0  0  0  0  0  0  0  0  0  0  0
 13 11  1  0  0  0
 11 10  2  0  0  0
 11 12  1  0  0  0
 10  9  1  0  0  0
 12  7  2  0  0  0
  9  8  2  0  0  0
  7  8  1  0  0  0
  7  4  1  0  0  0
  4  5  2  0  0  0
  4  3  1  0  0  0
  5  6  1  0  0  0
  3  2  2  0  0  0
  6  1  2  0  0  0
  2  1  1  0  0  0
  1 16  1  0  0  0
 17 16  1  0  0  0
 19 16  2  0  0  0
 16 18  2  0  0  0
 17 20  1  0  0  0
 17 21  1  0  0  0
 13 14  1  0  0  0
 13 15  1  0  0  0
M  END
> <minimizedAffinity>
-6.76021

$$$$
5E2K_BX4_A_302


 21 22  0  0  0  0  0  0  0  0999 V2000
   -2.6368    2.5072   11.8464 C   0  0  0  0  0  0  0  0  0  0  0  0
   -2.6959    3.5021   12.8158 C   0  0  0  0  0  0  0  0  0  0  0  0
   -3.4745    3.3199   13.9523 C   0  0  0  0  0  0  0  0  0  0  0  0
   -4.1932    2.1426   14.1210 C   0  0  0  0  0  0  0  0  0  0  0  0
   -4.1340    1.1476   13.1516 C   0  0  0  0  0  0  0  0  0  0  0  0
   -3.3564    1.3300   12.0150 C   0  0  0  0  0  0  0  0  0  0  0  0
   -5.0270    1.9467   15.3368 C   0  0  0  0  0  0  0  0  0  0  0  0
   -5.0009    0.7310   16.0083 C   0  0  0  0  0  0  0  0  0  0  0  0
   -5.7788    0.5478   17.1456 C   0  0  0  0  0  0  0  0  0  0  0  0
   -6.5834    1.5821   17.6113 C   0  0  0  0  0  0  0  0  0  0  0  0
   -6.6092    2.7986   16.9392 C   0  0  0  0  0  0  0  0  0  0  0  0
   -5.8303    2.9814   15.8020 C   0  0  0  0  0  0  0  0  0  0  0  0
   -7.4080    3.8252   17.4001 N   0  0  0  0  0  0  0  0  0  0  0  0
   -7.9597    3.6961   18.2053 H   0  0  0  0  0  0  0  0  0  0  0  0
   -7.4263    4.6866   16.9238 H   0  0  0  0  0  0  0  0  0  0  0  0
   -1.6452    2.7403   10.3992 S   0  0  0  0  0  0  0  0  0  0  0  0
   -2.3553    3.8733    9.5020 N   0  0  0  0  0  0  0  0  0  0  0  0
   -0.3752    3.2606   10.8230 O   0  0  0  0  0  0  0  0  0  0  0  0
   -1.6791    1.5156    9.6501 O   0  0  0  0  0  0  0  0  0  0  0  0
   -3.2633    3.5351    9.1833 H   0  0  0  0  0  0  0  0  0  0  0  0
   -1.7688    4.0848    8.6947 H   0  0  0  0  0  0  0  0  0  0  0  0
 13 11  1  0  0  0
 11 10  2  0  0  0
 11 12  1  0  0  0
 10  9  1  0  0  0
 12  7  2  0  0  0
  9  8  2  0  0  0
  7  8  1  0  0  0
  7  4  1  0  0  0
  4  5  2  0  0  0
  4  3  1  0  0  0
  5  6  1  0  0  0
  3  2  2  0  0  0
  6  1  2  0  0  0
  2  1  1  0  0  0
  1 16  1  0  0  0
 17 16  1  0  0  0
 19 16  2  0  0  0
 16 18  2  0  0  0
 17 20  1  0  0  0
 17 21  1  0  0  0
 13 14  1  0  0  0
 13 15  1  0  0  0
M  END
> <minimizedAffinity>
-6.74125

$$$$
5E2K_BX4_A_302


 21 22  0  0  0  0  0  0  0  0999 V2000
   -5.6129    1.8941   15.7369 C   0  0  0  0  0  0  0  0  0  0  0  0
   -5.9332    3.1412   15.2125 C   0  0  0  0  0  0  0  0  0  0  0  0
   -5.3069    3.5909   14.0564 C   0  0  0  0  0  0  0  0  0  0  0  0
   -4.3612    2.7935   13.4232 C   0  0  0  0  0  0  0  0  0  0  0  0
   -4.0409    1.5464   13.9477 C   0  0  0  0  0  0  0  0  0  0  0  0
   -4.6663    1.0971   15.1039 C   0  0  0  0  0  0  0  0  0  0  0  0
   -3.6901    3.2740   12.1861 C   0  0  0  0  0  0  0  0  0  0  0  0
   -2.4909    2.7025   11.7799 C   0  0  0  0  0  0  0  0  0  0  0  0
   -1.8639    3.1500   10.6228 C   0  0  0  0  0  0  0  0  0  0  0  0
   -2.4375    4.1701    9.8716 C   0  0  0  0  0  0  0  0  0  0  0  0
   -3.6375    4.7417   10.2783 C   0  0  0  0  0  0  0  0  0  0  0  0
   -4.2646    4.2932   11.4354 C   0  0  0  0  0  0  0  0  0  0  0  0
   -4.2069    5.7548    9.5340 N   0  0  0  0  0  0  0  0  0  0  0  0
   -3.7632    6.0727    8.7146 H   0  0  0  0  0  0  0  0  0  0  0  0
   -5.0567    6.1596    9.8223 H   0  0  0  0  0  0  0  0  0  0  0  0
   -6.4108    1.3225   17.2096 S   0  0  0  0  0  0  0  0  0  0  0  0
   -5.6783   -0.0385   17.6613 N   0  0  0  0  0  0  0  0  0  0  0  0
   -6.1760    2.2987   18.2368 O   0  0  0  0  0  0  0  0  0  0  0  0
   -7.7644    0.9878   16.8657 O   0  0  0  0  0  0  0  0  0  0  0  0
   -5.8257   -0.7558   16.9512 H   0  0  0  0  0  0  0  0  0  0  0  0
   -6.0665   -0.3548   18.5499 H   0  0  0  0  0  0  0  0  0  0  0  0
 13 11  1  0  0  0
 11 10  2  0  0  0
 11 12  1  0  0  0
 10  9  1  0  0  0
 12  7  2  0  0  0
  9  8  2  0  0  0
  7  8  1  0  0  0
  7  4  1  0  0  0
  4  5  2  0  0  0
  4  3  1  0  0  0
  5  6  1  0  0  0
  3  2  2  0  0  0
  6  1  2  0  0  0
  2  1  1  0  0  0
  1 16  1  0  0  0
 17 16  1  0  0  0
 19 16  2  0  0  0
 16 18  2  0  0  0
 17 20  1  0  0  0
 17 21  1  0  0  0
 13 14  1  0  0  0
 13 15  1  0  0  0
M  END
> <minimizedAffinity>
-6.54673

$$$$
5E2K_BX4_A_302


 21 22  0  0  0  0  0  0  0  0999 V2000
   -3.7205    3.0750   12.2092 C   0  0  0  0  0  0  0  0  0  0  0  0
   -4.4058    3.7630   13.2041 C   0  0  0  0  0  0  0  0  0  0  0  0
   -3.8932    4.9533   13.7056 C   0  0  0  0  0  0  0  0  0  0  0  0
   -2.6960    5.4571   13.2116 C   0  0  0  0  0  0  0  0  0  0  0  0
   -2.0106    4.7691   12.2167 C   0  0  0  0  0  0  0  0  0  0  0  0
   -2.5226    3.5786   11.7160 C   0  0  0  0  0  0  0  0  0  0  0  0
   -2.1463    6.7307   13.7478 C   0  0  0  0  0  0  0  0  0  0  0  0
   -2.7397    7.3340   14.8495 C   0  0  0  0  0  0  0  0  0  0  0  0
   -2.2256    8.5235   15.3520 C   0  0  0  0  0  0  0  0  0  0  0  0
   -1.1166    9.1099   14.7518 C   0  0  0  0  0  0  0  0  0  0  0  0
   -0.5229    8.5060   13.6495 C   0  0  0  0  0  0  0  0  0  0  0  0
   -1.0372    7.3157   13.1476 C   0  0  0  0  0  0  0  0  0  0  0  0
    0.5771    9.0877   13.0526 N   0  0  0  0  0  0  0  0  0  0  0  0
    0.9416    9.9305   13.4077 H   0  0  0  0  0  0  0  0  0  0  0  0
    0.9973    8.6599   12.2718 H   0  0  0  0  0  0  0  0  0  0  0  0
   -4.3740    1.5589   11.5716 S   0  0  0  0  0  0  0  0  0  0  0  0
   -5.8517    1.8658   11.0101 N   0  0  0  0  0  0  0  0  0  0  0  0
   -3.5604    1.1726   10.4527 O   0  0  0  0  0  0  0  0  0  0  0  0
   -4.5140    0.6506   12.6751 O   0  0  0  0  0  0  0  0  0  0  0  0
   -6.4577    2.1441   11.7819 H   0  0  0  0  0  0  0  0  0  0  0  0
   -6.2281    1.0274   10.5676 H   0  0  0  0  0  0  0  0  0  0  0  0
 13 11  1  0  0  0
 11 10  2  0  0  0
 11 12  1  0  0  0
 10  9  1  0  0  0
 12  7  2  0  0  0
  9  8  2  0  0  0
  7  8  1  0  0  0
  7  4  1  0  0  0
  4  5  2  0  0  0
  4  3  1  0  0  0
  5  6  1  0  0  0
  3  2  2  0  0  0
  6  1  2  0  0  0
  2  1  1  0  0  0
  1 16  1  0  0  0
 17 16  1  0  0  0
 19 16  2  0  0  0
 16 18  2  0  0  0
 17 20  1  0  0  0
 17 21  1  0  0  0
 13 14  1  0  0  0
 13 15  1  0  0  0
M  END
> <minimizedAffinity>
-6.30302

$$$$
5E2K_BX4_A_302


 21 22  0  0  0  0  0  0  0  0999 V2000
   -1.6946    6.7792   13.5493 C   0  0  0  0  0  0  0  0  0  0  0  0
   -1.4295    5.4294   13.3471 C   0  0  0  0  0  0  0  0  0  0  0  0
   -2.2936    4.4674   13.8558 C   0  0  0  0  0  0  0  0  0  0  0  0
   -3.4239    4.8543   14.5657 C   0  0  0  0  0  0  0  0  0  0  0  0
   -3.6890    6.2041   14.7679 C   0  0  0  0  0  0  0  0  0  0  0  0
   -2.8247    7.1658   14.2601 C   0  0  0  0  0  0  0  0  0  0  0  0
   -4.3492    3.8255   15.1110 C   0  0  0  0  0  0  0  0  0  0  0  0
   -5.6592    4.1658   15.4240 C   0  0  0  0  0  0  0  0  0  0  0  0
   -6.5249    3.2044   15.9322 C   0  0  0  0  0  0  0  0  0  0  0  0
   -6.0796    1.9015   16.1271 C   0  0  0  0  0  0  0  0  0  0  0  0
   -4.7687    1.5613   15.8136 C   0  0  0  0  0  0  0  0  0  0  0  0
   -3.9033    2.5232   15.3047 C   0  0  0  0  0  0  0  0  0  0  0  0
   -4.3257    0.2688   16.0077 N   0  0  0  0  0  0  0  0  0  0  0  0
   -4.9381   -0.4126   16.3680 H   0  0  0  0  0  0  0  0  0  0  0  0
   -3.3972    0.0281   15.7858 H   0  0  0  0  0  0  0  0  0  0  0  0
   -0.5932    8.0035   12.9012 S   0  0  0  0  0  0  0  0  0  0  0  0
   -1.3535    8.7495   11.6936 N   0  0  0  0  0  0  0  0  0  0  0  0
   -0.3694    8.9759   13.9345 O   0  0  0  0  0  0  0  0  0  0  0  0
    0.5350    7.3156   12.3386 O   0  0  0  0  0  0  0  0  0  0  0  0
   -1.5285    8.0849   10.9399 H   0  0  0  0  0  0  0  0  0  0  0  0
   -0.7727    9.5126   11.3460 H   0  0  0  0  0  0  0  0  0  0  0  0
 13 11  1  0  0  0
 11 10  2  0  0  0
 11 12  1  0  0  0
 10  9  1  0  0  0
 12  7  2  0  0  0
  9  8  2  0  0  0
  7  8  1  0  0  0
  7  4  1  0  0  0
  4  5  2  0  0  0
  4  3  1  0  0  0
  5  6  1  0  0  0
  3  2  2  0  0  0
  6  1  2  0  0  0
  2  1  1  0  0  0
  1 16  1  0  0  0
 17 16  1  0  0  0
 19 16  2  0  0  0
 16 18  2  0  0  0
 17 20  1  0  0  0
 17 21  1  0  0  0
 13 14  1  0  0  0
 13 15  1  0  0  0
M  END
> <minimizedAffinity>
-6.25898

$$$$
