1ELE_0QN_E_256


 32 32  0  0  0  0  0  0  0  0999 V2000
   39.1884   21.0465   37.1211 C   0  0  0  0  0  0  0  0  0  0  0  0
   38.4294   21.4150   38.0208 O   0  0  0  0  0  0  0  0  0  0  0  0
   38.7345   20.4544   35.9962 N   0  0  0  0  0  0  0  0  0  0  0  0
   39.3460   20.3162   35.2371 H   0  0  0  0  0  0  0  0  0  0  0  0
   37.3404   20.0154   35.8939 C   0  0  0  0  0  0  0  0  0  0  0  0
   36.9853   19.4579   34.5110 C   0  0  0  0  0  0  0  0  0  0  0  0
   37.1929   18.8851   36.9038 C   0  0  0  0  0  0  0  0  0  0  0  0
   37.8017   17.8093   36.7791 O   0  0  0  0  0  0  0  0  0  0  0  0
   36.4257   19.3415   37.9175 N   0  0  0  0  0  0  0  0  0  0  0  0
   36.0438   20.2455   37.8383 H   0  0  0  0  0  0  0  0  0  0  0  0
   36.1504   18.6294   39.0367 C   0  0  0  0  0  0  0  0  0  0  0  0
   37.2174   18.2956   39.8489 C   0  0  0  0  0  0  0  0  0  0  0  0
   37.0297   17.5367   40.9693 C   0  0  0  0  0  0  0  0  0  0  0  0
   35.7547   17.0852   41.3076 C   0  0  0  0  0  0  0  0  0  0  0  0
   34.6779   17.4330   40.4957 C   0  0  0  0  0  0  0  0  0  0  0  0
   34.8725   18.1952   39.3747 C   0  0  0  0  0  0  0  0  0  0  0  0
   35.5474   16.1412   42.5573 C   0  0  0  0  0  0  0  0  0  0  0  0
   36.2358   14.9515   42.6260 F   0  0  0  0  0  0  0  0  0  0  0  0
   35.8999   16.8099   43.6555 F   0  0  0  0  0  0  0  0  0  0  0  0
   34.2517   15.8499   42.7254 F   0  0  0  0  0  0  0  0  0  0  0  0
   40.6741   21.4247   37.1371 C   0  0  0  0  0  0  0  0  0  0  0  0
   40.8269   23.8041   37.7452 C   0  0  0  0  0  0  0  0  0  0  0  0
   40.5578   24.1649   36.5822 O   0  0  0  0  0  0  0  0  0  0  0  0
   40.8236   22.4943   38.0862 N   0  0  0  0  0  0  0  0  0  0  0  0
   40.9293   22.2610   39.0368 H   0  0  0  0  0  0  0  0  0  0  0  0
   41.0691   24.8366   38.9121 C   0  0  0  0  0  0  0  0  0  0  0  0
   41.5940   26.0336   38.5689 F   0  0  0  0  0  0  0  0  0  0  0  0
   39.9348   25.1528   39.5680 F   0  0  0  0  0  0  0  0  0  0  0  0
   41.8926   24.3031   39.8150 F   0  0  0  0  0  0  0  0  0  0  0  0
   41.7285   20.3466   37.6296 C   0  0  0  0  0  0  0  0  0  0  0  0
   41.1299   19.3346   38.5676 C   0  0  0  0  0  0  0  0  0  0  0  0
   42.3439   19.6778   36.4178 C   0  0  0  0  0  0  0  0  0  0  0  0
 22 26  1  0  0  0
 22 23  2  0  0  0
 26 27  1  0  0  0
 26 28  1  0  0  0
 26 29  1  0  0  0
 24 21  1  0  0  0
 21  1  1  0  0  0
 21 30  1  0  0  0
  1  2  2  0  0  0
 30 31  1  0  0  0
 30 32  1  0  0  0
  3  5  1  0  0  0
  5  7  1  0  0  0
  5  6  1  0  0  0
  7  8  2  0  0  0
  9 11  1  0  0  0
 11 12  2  0  0  0
 11 16  1  0  0  0
 12 13  1  0  0  0
 13 14  2  0  0  0
 14 15  1  0  0  0
 14 17  1  0  0  0
 15 16  2  0  0  0
 17 18  1  0  0  0
 17 19  1  0  0  0
 17 20  1  0  0  0
 22 24  1  0  0  0
  1  3  1  0  0  0
  7  9  1  0  0  0
 24 25  1  0  0  0
  3  4  1  0  0  0
  9 10  1  0  0  0
M  END
> <minimizedAffinity>
-7.72243

$$$$
1ELE_0QN_E_256


 32 32  0  0  0  0  0  0  0  0999 V2000
   39.3560   21.1386   37.0793 C   0  0  0  0  0  0  0  0  0  0  0  0
   38.7452   21.3487   38.1300 O   0  0  0  0  0  0  0  0  0  0  0  0
   38.7551   20.6089   35.9927 N   0  0  0  0  0  0  0  0  0  0  0  0
   39.2284   20.6001   35.1295 H   0  0  0  0  0  0  0  0  0  0  0  0
   37.4052   20.0471   36.0858 C   0  0  0  0  0  0  0  0  0  0  0  0
   36.5570   20.3097   34.8365 C   0  0  0  0  0  0  0  0  0  0  0  0
   37.5971   18.5415   36.2105 C   0  0  0  0  0  0  0  0  0  0  0  0
   37.6848   17.8056   35.2133 O   0  0  0  0  0  0  0  0  0  0  0  0
   37.7593   18.2583   37.5212 N   0  0  0  0  0  0  0  0  0  0  0  0
   37.6716   18.9951   38.1683 H   0  0  0  0  0  0  0  0  0  0  0  0
   38.0354   17.0207   37.9985 C   0  0  0  0  0  0  0  0  0  0  0  0
   36.9860   16.3095   38.5484 C   0  0  0  0  0  0  0  0  0  0  0  0
   37.1921   15.0749   39.0961 C   0  0  0  0  0  0  0  0  0  0  0  0
   38.4693   14.5157   39.1097 C   0  0  0  0  0  0  0  0  0  0  0  0
   39.5240   15.2276   38.5437 C   0  0  0  0  0  0  0  0  0  0  0  0
   39.3105   16.4641   37.9950 C   0  0  0  0  0  0  0  0  0  0  0  0
   38.7245   13.1247   39.8138 C   0  0  0  0  0  0  0  0  0  0  0  0
   39.9997   12.6080   39.8453 F   0  0  0  0  0  0  0  0  0  0  0  0
   38.3589   13.2244   41.0921 F   0  0  0  0  0  0  0  0  0  0  0  0
   37.9344   12.1761   39.2965 F   0  0  0  0  0  0  0  0  0  0  0  0
   40.7850   21.6570   36.8795 C   0  0  0  0  0  0  0  0  0  0  0  0
   40.7879   23.9663   37.7292 C   0  0  0  0  0  0  0  0  0  0  0  0
   40.2193   24.3919   36.7041 O   0  0  0  0  0  0  0  0  0  0  0  0
   41.0187   22.6435   37.8990 N   0  0  0  0  0  0  0  0  0  0  0  0
   41.3659   22.3400   38.7688 H   0  0  0  0  0  0  0  0  0  0  0  0
   41.1655   24.9092   38.9353 C   0  0  0  0  0  0  0  0  0  0  0  0
   40.1412   25.4426   39.6369 F   0  0  0  0  0  0  0  0  0  0  0  0
   41.9104   24.2837   39.8684 F   0  0  0  0  0  0  0  0  0  0  0  0
   41.8965   25.9314   38.4897 F   0  0  0  0  0  0  0  0  0  0  0  0
   41.9938   20.6461   37.0626 C   0  0  0  0  0  0  0  0  0  0  0  0
   41.6266   19.4452   37.8903 C   0  0  0  0  0  0  0  0  0  0  0  0
   42.4993   20.2380   35.6942 C   0  0  0  0  0  0  0  0  0  0  0  0
 22 26  1  0  0  0
 22 23  2  0  0  0
 26 27  1  0  0  0
 26 28  1  0  0  0
 26 29  1  0  0  0
 24 21  1  0  0  0
 21  1  1  0  0  0
 21 30  1  0  0  0
  1  2  2  0  0  0
 30 31  1  0  0  0
 30 32  1  0  0  0
  3  5  1  0  0  0
  5  7  1  0  0  0
  5  6  1  0  0  0
  7  8  2  0  0  0
  9 11  1  0  0  0
 11 12  2  0  0  0
 11 16  1  0  0  0
 12 13  1  0  0  0
 13 14  2  0  0  0
 14 15  1  0  0  0
 14 17  1  0  0  0
 15 16  2  0  0  0
 17 18  1  0  0  0
 17 19  1  0  0  0
 17 20  1  0  0  0
 22 24  1  0  0  0
  1  3  1  0  0  0
  7  9  1  0  0  0
 24 25  1  0  0  0
  3  4  1  0  0  0
  9 10  1  0  0  0
M  END
> <minimizedAffinity>
-7.11004

$$$$
1ELE_0QN_E_256


 32 32  0  0  0  0  0  0  0  0999 V2000
   36.5962   18.6667   37.7931 C   0  0  0  0  0  0  0  0  0  0  0  0
   35.9640   19.2406   36.9030 O   0  0  0  0  0  0  0  0  0  0  0  0
   37.8795   18.9754   38.0758 N   0  0  0  0  0  0  0  0  0  0  0  0
   38.3010   18.6114   38.8877 H   0  0  0  0  0  0  0  0  0  0  0  0
   38.6512   19.8468   37.1860 C   0  0  0  0  0  0  0  0  0  0  0  0
   38.6034   21.3221   37.5991 C   0  0  0  0  0  0  0  0  0  0  0  0
   40.0947   19.3764   37.3046 C   0  0  0  0  0  0  0  0  0  0  0  0
   41.0431   20.1763   37.3693 O   0  0  0  0  0  0  0  0  0  0  0  0
   40.0759   18.0323   37.4371 N   0  0  0  0  0  0  0  0  0  0  0  0
   39.2071   17.5733   37.3767 H   0  0  0  0  0  0  0  0  0  0  0  0
   41.1816   17.2781   37.6483 C   0  0  0  0  0  0  0  0  0  0  0  0
   41.8373   16.7960   36.5316 C   0  0  0  0  0  0  0  0  0  0  0  0
   42.9308   15.9871   36.6606 C   0  0  0  0  0  0  0  0  0  0  0  0
   43.3994   15.6343   37.9255 C   0  0  0  0  0  0  0  0  0  0  0  0
   42.7458   16.1312   39.0504 C   0  0  0  0  0  0  0  0  0  0  0  0
   41.6511   16.9427   38.9143 C   0  0  0  0  0  0  0  0  0  0  0  0
   44.6137   14.6350   38.0771 C   0  0  0  0  0  0  0  0  0  0  0  0
   45.8800   15.0556   37.7400 F   0  0  0  0  0  0  0  0  0  0  0  0
   44.6998   14.2650   39.3551 F   0  0  0  0  0  0  0  0  0  0  0  0
   44.3876   13.5032   37.3993 F   0  0  0  0  0  0  0  0  0  0  0  0
   35.8974   17.7111   38.7674 C   0  0  0  0  0  0  0  0  0  0  0  0
   36.7237   15.3969   38.6379 C   0  0  0  0  0  0  0  0  0  0  0  0
   35.8501   15.0840   37.8048 O   0  0  0  0  0  0  0  0  0  0  0  0
   36.8389   16.6707   39.0808 N   0  0  0  0  0  0  0  0  0  0  0  0
   37.6102   16.8973   39.6491 H   0  0  0  0  0  0  0  0  0  0  0  0
   37.8153   14.3745   39.1374 C   0  0  0  0  0  0  0  0  0  0  0  0
   37.7346   13.9767   40.4263 F   0  0  0  0  0  0  0  0  0  0  0  0
   37.8045   13.2223   38.4381 F   0  0  0  0  0  0  0  0  0  0  0  0
   39.0283   14.9041   38.9762 F   0  0  0  0  0  0  0  0  0  0  0  0
   35.4667   18.2584   40.1927 C   0  0  0  0  0  0  0  0  0  0  0  0
   33.9779   18.2227   40.4033 C   0  0  0  0  0  0  0  0  0  0  0  0
   36.1928   17.4647   41.2593 C   0  0  0  0  0  0  0  0  0  0  0  0
 22 26  1  0  0  0
 22 23  2  0  0  0
 26 27  1  0  0  0
 26 28  1  0  0  0
 26 29  1  0  0  0
 24 21  1  0  0  0
 21  1  1  0  0  0
 21 30  1  0  0  0
  1  2  2  0  0  0
 30 31  1  0  0  0
 30 32  1  0  0  0
  3  5  1  0  0  0
  5  7  1  0  0  0
  5  6  1  0  0  0
  7  8  2  0  0  0
  9 11  1  0  0  0
 11 12  2  0  0  0
 11 16  1  0  0  0
 12 13  1  0  0  0
 13 14  2  0  0  0
 14 15  1  0  0  0
 14 17  1  0  0  0
 15 16  2  0  0  0
 17 18  1  0  0  0
 17 19  1  0  0  0
 17 20  1  0  0  0
 22 24  1  0  0  0
  1  3  1  0  0  0
  7  9  1  0  0  0
 24 25  1  0  0  0
  3  4  1  0  0  0
  9 10  1  0  0  0
M  END
> <minimizedAffinity>
-6.75240

$$$$
1ELE_0QN_E_256


 32 32  0  0  0  0  0  0  0  0999 V2000
   40.5277   19.2925   35.5454 C   0  0  0  0  0  0  0  0  0  0  0  0
   40.1931   20.0253   34.6114 O   0  0  0  0  0  0  0  0  0  0  0  0
   39.9940   18.0653   35.7222 N   0  0  0  0  0  0  0  0  0  0  0  0
   40.3927   17.4503   36.3795 H   0  0  0  0  0  0  0  0  0  0  0  0
   38.8269   17.6398   34.9453 C   0  0  0  0  0  0  0  0  0  0  0  0
   39.0091   16.2664   34.2897 C   0  0  0  0  0  0  0  0  0  0  0  0
   37.6865   17.5295   35.9486 C   0  0  0  0  0  0  0  0  0  0  0  0
   36.5026   17.4204   35.5879 O   0  0  0  0  0  0  0  0  0  0  0  0
   38.2336   17.4577   37.1814 N   0  0  0  0  0  0  0  0  0  0  0  0
   39.2109   17.5465   37.2601 H   0  0  0  0  0  0  0  0  0  0  0  0
   37.5174   17.2708   38.3163 C   0  0  0  0  0  0  0  0  0  0  0  0
   37.2498   18.3887   39.0832 C   0  0  0  0  0  0  0  0  0  0  0  0
   36.5765   18.2770   40.2667 C   0  0  0  0  0  0  0  0  0  0  0  0
   36.1513   17.0286   40.7191 C   0  0  0  0  0  0  0  0  0  0  0  0
   36.4100   15.9040   39.9393 C   0  0  0  0  0  0  0  0  0  0  0  0
   37.0841   16.0229   38.7531 C   0  0  0  0  0  0  0  0  0  0  0  0
   35.4441   16.8869   42.1246 C   0  0  0  0  0  0  0  0  0  0  0  0
   34.8719   15.6850   42.4742 F   0  0  0  0  0  0  0  0  0  0  0  0
   36.3437   17.1330   43.0774 F   0  0  0  0  0  0  0  0  0  0  0  0
   34.5023   17.8251   42.2815 F   0  0  0  0  0  0  0  0  0  0  0  0
   41.7186   19.6504   36.4423 C   0  0  0  0  0  0  0  0  0  0  0  0
   43.6205   20.8430   35.4346 C   0  0  0  0  0  0  0  0  0  0  0  0
   44.3033   19.8010   35.3809 O   0  0  0  0  0  0  0  0  0  0  0  0
   42.3391   20.8141   35.8696 N   0  0  0  0  0  0  0  0  0  0  0  0
   41.8022   21.6354   35.7892 H   0  0  0  0  0  0  0  0  0  0  0  0
   44.1520   22.2266   34.8964 C   0  0  0  0  0  0  0  0  0  0  0  0
   45.4649   22.4891   35.0797 F   0  0  0  0  0  0  0  0  0  0  0  0
   43.9722   22.3695   33.5683 F   0  0  0  0  0  0  0  0  0  0  0  0
   43.4790   23.2193   35.4789 F   0  0  0  0  0  0  0  0  0  0  0  0
   41.4382   20.0844   37.9422 C   0  0  0  0  0  0  0  0  0  0  0  0
   40.0851   20.7162   38.1211 C   0  0  0  0  0  0  0  0  0  0  0  0
   41.6038   18.8745   38.8386 C   0  0  0  0  0  0  0  0  0  0  0  0
 22 26  1  0  0  0
 22 23  2  0  0  0
 26 27  1  0  0  0
 26 28  1  0  0  0
 26 29  1  0  0  0
 24 21  1  0  0  0
 21  1  1  0  0  0
 21 30  1  0  0  0
  1  2  2  0  0  0
 30 31  1  0  0  0
 30 32  1  0  0  0
  3  5  1  0  0  0
  5  7  1  0  0  0
  5  6  1  0  0  0
  7  8  2  0  0  0
  9 11  1  0  0  0
 11 12  2  0  0  0
 11 16  1  0  0  0
 12 13  1  0  0  0
 13 14  2  0  0  0
 14 15  1  0  0  0
 14 17  1  0  0  0
 15 16  2  0  0  0
 17 18  1  0  0  0
 17 19  1  0  0  0
 17 20  1  0  0  0
 22 24  1  0  0  0
  1  3  1  0  0  0
  7  9  1  0  0  0
 24 25  1  0  0  0
  3  4  1  0  0  0
  9 10  1  0  0  0
M  END
> <minimizedAffinity>
-6.67684

$$$$
1ELE_0QN_E_256


 32 32  0  0  0  0  0  0  0  0999 V2000
   38.0171   14.4965   38.0759 C   0  0  0  0  0  0  0  0  0  0  0  0
   37.2569   14.5284   37.1051 O   0  0  0  0  0  0  0  0  0  0  0  0
   37.6909   15.0523   39.2621 N   0  0  0  0  0  0  0  0  0  0  0  0
   38.2484   14.8741   40.0537 H   0  0  0  0  0  0  0  0  0  0  0  0
   36.5152   15.9181   39.3826 C   0  0  0  0  0  0  0  0  0  0  0  0
   35.7126   15.6677   40.6642 C   0  0  0  0  0  0  0  0  0  0  0  0
   37.0590   17.3393   39.4438 C   0  0  0  0  0  0  0  0  0  0  0  0
   36.9350   18.0470   40.4573 O   0  0  0  0  0  0  0  0  0  0  0  0
   37.7430   17.5636   38.3008 N   0  0  0  0  0  0  0  0  0  0  0  0
   37.7396   16.8589   37.6134 H   0  0  0  0  0  0  0  0  0  0  0  0
   38.4334   18.7008   38.0441 C   0  0  0  0  0  0  0  0  0  0  0  0
   39.7489   18.7471   38.4647 C   0  0  0  0  0  0  0  0  0  0  0  0
   40.4977   19.8761   38.2880 C   0  0  0  0  0  0  0  0  0  0  0  0
   39.9414   21.0013   37.6810 C   0  0  0  0  0  0  0  0  0  0  0  0
   38.6195   20.9494   37.2456 C   0  0  0  0  0  0  0  0  0  0  0  0
   37.8746   19.8142   37.4245 C   0  0  0  0  0  0  0  0  0  0  0  0
   40.7798   22.3337   37.5483 C   0  0  0  0  0  0  0  0  0  0  0  0
   41.0078   23.1019   38.6672 F   0  0  0  0  0  0  0  0  0  0  0  0
   41.9918   22.0263   37.0857 F   0  0  0  0  0  0  0  0  0  0  0  0
   40.2471   23.1426   36.6244 F   0  0  0  0  0  0  0  0  0  0  0  0
   39.2918   13.6449   38.0530 C   0  0  0  0  0  0  0  0  0  0  0  0
   41.4954   14.6995   38.3478 C   0  0  0  0  0  0  0  0  0  0  0  0
   41.7786   14.5491   37.1427 O   0  0  0  0  0  0  0  0  0  0  0  0
   40.2790   14.3482   38.8263 N   0  0  0  0  0  0  0  0  0  0  0  0
   40.0579   14.5877   39.7553 H   0  0  0  0  0  0  0  0  0  0  0  0
   42.4745   15.4081   39.3606 C   0  0  0  0  0  0  0  0  0  0  0  0
   42.3644   16.7498   39.4785 F   0  0  0  0  0  0  0  0  0  0  0  0
   42.3311   14.9560   40.6222 F   0  0  0  0  0  0  0  0  0  0  0  0
   43.7361   15.1578   39.0095 F   0  0  0  0  0  0  0  0  0  0  0  0
   39.2581   12.2066   38.7213 C   0  0  0  0  0  0  0  0  0  0  0  0
   37.8750   11.6172   38.7625 C   0  0  0  0  0  0  0  0  0  0  0  0
   40.2203   11.3019   37.9795 C   0  0  0  0  0  0  0  0  0  0  0  0
 22 26  1  0  0  0
 22 23  2  0  0  0
 26 27  1  0  0  0
 26 28  1  0  0  0
 26 29  1  0  0  0
 24 21  1  0  0  0
 21  1  1  0  0  0
 21 30  1  0  0  0
  1  2  2  0  0  0
 30 31  1  0  0  0
 30 32  1  0  0  0
  3  5  1  0  0  0
  5  7  1  0  0  0
  5  6  1  0  0  0
  7  8  2  0  0  0
  9 11  1  0  0  0
 11 12  2  0  0  0
 11 16  1  0  0  0
 12 13  1  0  0  0
 13 14  2  0  0  0
 14 15  1  0  0  0
 14 17  1  0  0  0
 15 16  2  0  0  0
 17 18  1  0  0  0
 17 19  1  0  0  0
 17 20  1  0  0  0
 22 24  1  0  0  0
  1  3  1  0  0  0
  7  9  1  0  0  0
 24 25  1  0  0  0
  3  4  1  0  0  0
  9 10  1  0  0  0
M  END
> <minimizedAffinity>
-6.60230

$$$$
1ELE_0QN_E_256


 32 32  0  0  0  0  0  0  0  0999 V2000
   40.3602   19.3342   34.7811 C   0  0  0  0  0  0  0  0  0  0  0  0
   40.1504   20.1182   33.8523 O   0  0  0  0  0  0  0  0  0  0  0  0
   39.4517   18.4109   35.1608 N   0  0  0  0  0  0  0  0  0  0  0  0
   39.7104   17.7047   35.7961 H   0  0  0  0  0  0  0  0  0  0  0  0
   38.0841   18.4495   34.6364 C   0  0  0  0  0  0  0  0  0  0  0  0
   37.7139   17.2001   33.8294 C   0  0  0  0  0  0  0  0  0  0  0  0
   37.1787   18.4990   35.8599 C   0  0  0  0  0  0  0  0  0  0  0  0
   36.0673   19.0535   35.8326 O   0  0  0  0  0  0  0  0  0  0  0  0
   37.7632   17.7625   36.8297 N   0  0  0  0  0  0  0  0  0  0  0  0
   38.6528   17.3816   36.6490 H   0  0  0  0  0  0  0  0  0  0  0  0
   37.1980   17.5167   38.0363 C   0  0  0  0  0  0  0  0  0  0  0  0
   37.2989   18.5091   38.9925 C   0  0  0  0  0  0  0  0  0  0  0  0
   36.7987   18.3190   40.2496 C   0  0  0  0  0  0  0  0  0  0  0  0
   36.1801   17.1156   40.5860 C   0  0  0  0  0  0  0  0  0  0  0  0
   36.0672   16.1209   39.6178 C   0  0  0  0  0  0  0  0  0  0  0  0
   36.5694   16.3182   38.3591 C   0  0  0  0  0  0  0  0  0  0  0  0
   35.6732   16.8632   42.0609 C   0  0  0  0  0  0  0  0  0  0  0  0
   36.4982   17.1679   43.1194 F   0  0  0  0  0  0  0  0  0  0  0  0
   34.5720   17.5881   42.2594 F   0  0  0  0  0  0  0  0  0  0  0  0
   35.2890   15.5912   42.2221 F   0  0  0  0  0  0  0  0  0  0  0  0
   41.7472   19.2268   35.4256 C   0  0  0  0  0  0  0  0  0  0  0  0
   41.5575   19.1601   37.8780 C   0  0  0  0  0  0  0  0  0  0  0  0
   41.5517   20.4046   37.9563 O   0  0  0  0  0  0  0  0  0  0  0  0
   41.5756   18.5382   36.6760 N   0  0  0  0  0  0  0  0  0  0  0  0
   41.4651   17.5601   36.6568 H   0  0  0  0  0  0  0  0  0  0  0  0
   41.4255   18.2359   39.1488 C   0  0  0  0  0  0  0  0  0  0  0  0
   40.4652   17.2858   39.1155 F   0  0  0  0  0  0  0  0  0  0  0  0
   42.5558   17.5497   39.4100 F   0  0  0  0  0  0  0  0  0  0  0  0
   41.1819   18.9877   40.2228 F   0  0  0  0  0  0  0  0  0  0  0  0
   42.8650   18.3762   34.6882 C   0  0  0  0  0  0  0  0  0  0  0  0
   44.2447   18.9461   34.8722 C   0  0  0  0  0  0  0  0  0  0  0  0
   42.7907   16.9448   35.1783 C   0  0  0  0  0  0  0  0  0  0  0  0
 22 26  1  0  0  0
 22 23  2  0  0  0
 26 27  1  0  0  0
 26 28  1  0  0  0
 26 29  1  0  0  0
 24 21  1  0  0  0
 21  1  1  0  0  0
 21 30  1  0  0  0
  1  2  2  0  0  0
 30 31  1  0  0  0
 30 32  1  0  0  0
  3  5  1  0  0  0
  5  7  1  0  0  0
  5  6  1  0  0  0
  7  8  2  0  0  0
  9 11  1  0  0  0
 11 12  2  0  0  0
 11 16  1  0  0  0
 12 13  1  0  0  0
 13 14  2  0  0  0
 14 15  1  0  0  0
 14 17  1  0  0  0
 15 16  2  0  0  0
 17 18  1  0  0  0
 17 19  1  0  0  0
 17 20  1  0  0  0
 22 24  1  0  0  0
  1  3  1  0  0  0
  7  9  1  0  0  0
 24 25  1  0  0  0
  3  4  1  0  0  0
  9 10  1  0  0  0
M  END
> <minimizedAffinity>
-6.50934

$$$$
1ELE_0QN_E_256


 32 32  0  0  0  0  0  0  0  0999 V2000
   40.0227   19.8268   37.4713 C   0  0  0  0  0  0  0  0  0  0  0  0
   40.0225   20.9842   37.8976 O   0  0  0  0  0  0  0  0  0  0  0  0
   38.8810   19.1701   37.1758 N   0  0  0  0  0  0  0  0  0  0  0  0
   38.9225   18.3124   36.6943 H   0  0  0  0  0  0  0  0  0  0  0  0
   37.5805   19.7214   37.5650 C   0  0  0  0  0  0  0  0  0  0  0  0
   36.8469   20.4068   36.4068 C   0  0  0  0  0  0  0  0  0  0  0  0
   36.7449   18.5262   38.0036 C   0  0  0  0  0  0  0  0  0  0  0  0
   36.6670   17.4925   37.3190 O   0  0  0  0  0  0  0  0  0  0  0  0
   36.2707   18.7921   39.2401 N   0  0  0  0  0  0  0  0  0  0  0  0
   36.4600   19.6768   39.6282 H   0  0  0  0  0  0  0  0  0  0  0  0
   35.5501   17.9136   39.9782 C   0  0  0  0  0  0  0  0  0  0  0  0
   34.2135   18.2041   40.1746 C   0  0  0  0  0  0  0  0  0  0  0  0
   33.4307   17.3946   40.9482 C   0  0  0  0  0  0  0  0  0  0  0  0
   33.9731   16.2619   41.5540 C   0  0  0  0  0  0  0  0  0  0  0  0
   35.3171   15.9627   41.3450 C   0  0  0  0  0  0  0  0  0  0  0  0
   36.0960   16.7775   40.5672 C   0  0  0  0  0  0  0  0  0  0  0  0
   33.0906   15.3695   42.5134 C   0  0  0  0  0  0  0  0  0  0  0  0
   33.6120   14.9531   43.7171 F   0  0  0  0  0  0  0  0  0  0  0  0
   31.9888   16.0504   42.8296 F   0  0  0  0  0  0  0  0  0  0  0  0
   32.6553   14.2739   41.8794 F   0  0  0  0  0  0  0  0  0  0  0  0
   41.3285   19.1380   37.0576 C   0  0  0  0  0  0  0  0  0  0  0  0
   42.5062   20.4663   35.3536 C   0  0  0  0  0  0  0  0  0  0  0  0
   41.8637   19.9317   34.4282 O   0  0  0  0  0  0  0  0  0  0  0  0
   42.2368   20.1744   36.6475 N   0  0  0  0  0  0  0  0  0  0  0  0
   42.6877   20.7008   37.3466 H   0  0  0  0  0  0  0  0  0  0  0  0
   43.5797   21.5914   35.0928 C   0  0  0  0  0  0  0  0  0  0  0  0
   43.9144   21.8290   33.8053 F   0  0  0  0  0  0  0  0  0  0  0  0
   43.1915   22.7957   35.5573 F   0  0  0  0  0  0  0  0  0  0  0  0
   44.7097   21.2855   35.7310 F   0  0  0  0  0  0  0  0  0  0  0  0
   42.1507   18.3428   38.1568 C   0  0  0  0  0  0  0  0  0  0  0  0
   41.6172   18.5539   39.5472 C   0  0  0  0  0  0  0  0  0  0  0  0
   42.1622   16.8735   37.7886 C   0  0  0  0  0  0  0  0  0  0  0  0
 22 26  1  0  0  0
 22 23  2  0  0  0
 26 27  1  0  0  0
 26 28  1  0  0  0
 26 29  1  0  0  0
 24 21  1  0  0  0
 21  1  1  0  0  0
 21 30  1  0  0  0
  1  2  2  0  0  0
 30 31  1  0  0  0
 30 32  1  0  0  0
  3  5  1  0  0  0
  5  7  1  0  0  0
  5  6  1  0  0  0
  7  8  2  0  0  0
  9 11  1  0  0  0
 11 12  2  0  0  0
 11 16  1  0  0  0
 12 13  1  0  0  0
 13 14  2  0  0  0
 14 15  1  0  0  0
 14 17  1  0  0  0
 15 16  2  0  0  0
 17 18  1  0  0  0
 17 19  1  0  0  0
 17 20  1  0  0  0
 22 24  1  0  0  0
  1  3  1  0  0  0
  7  9  1  0  0  0
 24 25  1  0  0  0
  3  4  1  0  0  0
  9 10  1  0  0  0
M  END
> <minimizedAffinity>
-6.50587

$$$$
1ELE_0QN_E_256


 32 32  0  0  0  0  0  0  0  0999 V2000
   41.5395   18.2891   35.9786 C   0  0  0  0  0  0  0  0  0  0  0  0
   41.9562   17.5742   35.0640 O   0  0  0  0  0  0  0  0  0  0  0  0
   41.4310   17.8416   37.2475 N   0  0  0  0  0  0  0  0  0  0  0  0
   41.2455   18.4785   37.9750 H   0  0  0  0  0  0  0  0  0  0  0  0
   41.5865   16.4170   37.5526 C   0  0  0  0  0  0  0  0  0  0  0  0
   42.7712   16.1265   38.4808 C   0  0  0  0  0  0  0  0  0  0  0  0
   40.3125   16.0142   38.2832 C   0  0  0  0  0  0  0  0  0  0  0  0
   40.2561   14.9958   38.9926 O   0  0  0  0  0  0  0  0  0  0  0  0
   39.4054   16.9967   38.0928 N   0  0  0  0  0  0  0  0  0  0  0  0
   39.6503   17.7447   37.5014 H   0  0  0  0  0  0  0  0  0  0  0  0
   38.1785   17.0142   38.6674 C   0  0  0  0  0  0  0  0  0  0  0  0
   37.9235   18.0230   39.5767 C   0  0  0  0  0  0  0  0  0  0  0  0
   36.7284   18.0811   40.2363 C   0  0  0  0  0  0  0  0  0  0  0  0
   35.7479   17.1181   40.0014 C   0  0  0  0  0  0  0  0  0  0  0  0
   36.0006   16.1092   39.0752 C   0  0  0  0  0  0  0  0  0  0  0  0
   37.2001   16.0574   38.4164 C   0  0  0  0  0  0  0  0  0  0  0  0
   34.3976   17.1369   40.8213 C   0  0  0  0  0  0  0  0  0  0  0  0
   33.2460   17.5845   40.2150 F   0  0  0  0  0  0  0  0  0  0  0  0
   34.1227   15.8921   41.2119 F   0  0  0  0  0  0  0  0  0  0  0  0
   34.5369   17.8366   41.9539 F   0  0  0  0  0  0  0  0  0  0  0  0
   41.3141   19.7908   35.7669 C   0  0  0  0  0  0  0  0  0  0  0  0
   38.8563   19.9041   35.8073 C   0  0  0  0  0  0  0  0  0  0  0  0
   38.7649   19.2737   34.7352 O   0  0  0  0  0  0  0  0  0  0  0  0
   40.0597   20.1175   36.3889 N   0  0  0  0  0  0  0  0  0  0  0  0
   40.0770   20.5187   37.2878 H   0  0  0  0  0  0  0  0  0  0  0  0
   37.5884   20.3866   36.6110 C   0  0  0  0  0  0  0  0  0  0  0  0
   36.8350   21.3522   36.0401 F   0  0  0  0  0  0  0  0  0  0  0  0
   36.7149   19.3880   36.8489 F   0  0  0  0  0  0  0  0  0  0  0  0
   37.9664   20.8511   37.8022 F   0  0  0  0  0  0  0  0  0  0  0  0
   42.3299   20.8136   36.4292 C   0  0  0  0  0  0  0  0  0  0  0  0
   43.0273   21.6786   35.4155 C   0  0  0  0  0  0  0  0  0  0  0  0
   41.5839   21.6510   37.4475 C   0  0  0  0  0  0  0  0  0  0  0  0
 22 26  1  0  0  0
 22 23  2  0  0  0
 26 27  1  0  0  0
 26 28  1  0  0  0
 26 29  1  0  0  0
 24 21  1  0  0  0
 21  1  1  0  0  0
 21 30  1  0  0  0
  1  2  2  0  0  0
 30 31  1  0  0  0
 30 32  1  0  0  0
  3  5  1  0  0  0
  5  7  1  0  0  0
  5  6  1  0  0  0
  7  8  2  0  0  0
  9 11  1  0  0  0
 11 12  2  0  0  0
 11 16  1  0  0  0
 12 13  1  0  0  0
 13 14  2  0  0  0
 14 15  1  0  0  0
 14 17  1  0  0  0
 15 16  2  0  0  0
 17 18  1  0  0  0
 17 19  1  0  0  0
 17 20  1  0  0  0
 22 24  1  0  0  0
  1  3  1  0  0  0
  7  9  1  0  0  0
 24 25  1  0  0  0
  3  4  1  0  0  0
  9 10  1  0  0  0
M  END
> <minimizedAffinity>
-6.49945

$$$$
1ELE_0QN_E_256


 32 32  0  0  0  0  0  0  0  0999 V2000
   39.8870   19.2200   35.9675 C   0  0  0  0  0  0  0  0  0  0  0  0
   38.9880   19.8941   35.4588 O   0  0  0  0  0  0  0  0  0  0  0  0
   39.9416   17.8779   35.8340 N   0  0  0  0  0  0  0  0  0  0  0  0
   40.7498   17.3922   36.1171 H   0  0  0  0  0  0  0  0  0  0  0  0
   38.8096   17.1370   35.2717 C   0  0  0  0  0  0  0  0  0  0  0  0
   39.0975   15.6420   35.0948 C   0  0  0  0  0  0  0  0  0  0  0  0
   37.6842   17.2775   36.2881 C   0  0  0  0  0  0  0  0  0  0  0  0
   36.5337   17.6056   35.9531 O   0  0  0  0  0  0  0  0  0  0  0  0
   38.1638   16.8765   37.4855 N   0  0  0  0  0  0  0  0  0  0  0  0
   39.1156   16.6321   37.5446 H   0  0  0  0  0  0  0  0  0  0  0  0
   37.4129   16.7906   38.6100 C   0  0  0  0  0  0  0  0  0  0  0  0
   37.3151   17.9271   39.3899 C   0  0  0  0  0  0  0  0  0  0  0  0
   36.6178   17.9082   40.5647 C   0  0  0  0  0  0  0  0  0  0  0  0
   35.9957   16.7368   40.9946 C   0  0  0  0  0  0  0  0  0  0  0  0
   36.0838   15.5954   40.2016 C   0  0  0  0  0  0  0  0  0  0  0  0
   36.7831   15.6213   39.0244 C   0  0  0  0  0  0  0  0  0  0  0  0
   35.2573   16.6909   42.3906 C   0  0  0  0  0  0  0  0  0  0  0  0
   34.0499   17.3349   42.5369 F   0  0  0  0  0  0  0  0  0  0  0  0
   35.0104   15.4169   42.6965 F   0  0  0  0  0  0  0  0  0  0  0  0
   36.0560   17.1372   43.3676 F   0  0  0  0  0  0  0  0  0  0  0  0
   41.1086   19.8886   36.6089 C   0  0  0  0  0  0  0  0  0  0  0  0
   41.4968   22.3142   36.7529 C   0  0  0  0  0  0  0  0  0  0  0  0
   42.5615   22.2274   36.1095 O   0  0  0  0  0  0  0  0  0  0  0  0
   40.7175   21.2270   36.9593 N   0  0  0  0  0  0  0  0  0  0  0  0
   39.8337   21.3601   37.3723 H   0  0  0  0  0  0  0  0  0  0  0  0
   40.9308   23.6952   37.2617 C   0  0  0  0  0  0  0  0  0  0  0  0
   41.8062   24.7215   37.3415 F   0  0  0  0  0  0  0  0  0  0  0  0
   39.9412   24.1695   36.4790 F   0  0  0  0  0  0  0  0  0  0  0  0
   40.4100   23.5417   38.4794 F   0  0  0  0  0  0  0  0  0  0  0  0
   41.6696   19.3012   37.9716 C   0  0  0  0  0  0  0  0  0  0  0  0
   40.5895   19.0678   38.9921 C   0  0  0  0  0  0  0  0  0  0  0  0
   42.4321   18.0263   37.6755 C   0  0  0  0  0  0  0  0  0  0  0  0
 22 26  1  0  0  0
 22 23  2  0  0  0
 26 27  1  0  0  0
 26 28  1  0  0  0
 26 29  1  0  0  0
 24 21  1  0  0  0
 21  1  1  0  0  0
 21 30  1  0  0  0
  1  2  2  0  0  0
 30 31  1  0  0  0
 30 32  1  0  0  0
  3  5  1  0  0  0
  5  7  1  0  0  0
  5  6  1  0  0  0
  7  8  2  0  0  0
  9 11  1  0  0  0
 11 12  2  0  0  0
 11 16  1  0  0  0
 12 13  1  0  0  0
 13 14  2  0  0  0
 14 15  1  0  0  0
 14 17  1  0  0  0
 15 16  2  0  0  0
 17 18  1  0  0  0
 17 19  1  0  0  0
 17 20  1  0  0  0
 22 24  1  0  0  0
  1  3  1  0  0  0
  7  9  1  0  0  0
 24 25  1  0  0  0
  3  4  1  0  0  0
  9 10  1  0  0  0
M  END
> <minimizedAffinity>
-6.49201

$$$$
1ELE_0QN_E_256


 32 32  0  0  0  0  0  0  0  0999 V2000
   39.7669   20.5741   37.5147 C   0  0  0  0  0  0  0  0  0  0  0  0
   39.4646   21.6745   37.9826 O   0  0  0  0  0  0  0  0  0  0  0  0
   38.8507   19.7547   36.9567 N   0  0  0  0  0  0  0  0  0  0  0  0
   39.1475   18.9601   36.4569 H   0  0  0  0  0  0  0  0  0  0  0  0
   37.4189   20.0365   37.0878 C   0  0  0  0  0  0  0  0  0  0  0  0
   36.7536   20.4023   35.7563 C   0  0  0  0  0  0  0  0  0  0  0  0
   36.7910   18.7399   37.5816 C   0  0  0  0  0  0  0  0  0  0  0  0
   36.8646   17.6846   36.9301 O   0  0  0  0  0  0  0  0  0  0  0  0
   36.3040   18.9688   38.8205 N   0  0  0  0  0  0  0  0  0  0  0  0
   36.3584   19.8847   39.1774 H   0  0  0  0  0  0  0  0  0  0  0  0
   35.7453   18.0129   39.6014 C   0  0  0  0  0  0  0  0  0  0  0  0
   34.4987   18.2834   40.1328 C   0  0  0  0  0  0  0  0  0  0  0  0
   33.8897   17.3921   40.9702 C   0  0  0  0  0  0  0  0  0  0  0  0
   34.5217   16.1945   41.3027 C   0  0  0  0  0  0  0  0  0  0  0  0
   35.7722   15.9168   40.7564 C   0  0  0  0  0  0  0  0  0  0  0  0
   36.3767   16.8138   39.9165 C   0  0  0  0  0  0  0  0  0  0  0  0
   33.8556   15.1995   42.3333 C   0  0  0  0  0  0  0  0  0  0  0  0
   33.8729   13.8480   42.0743 F   0  0  0  0  0  0  0  0  0  0  0  0
   34.4692   15.3353   43.5091 F   0  0  0  0  0  0  0  0  0  0  0  0
   32.5801   15.5340   42.5632 F   0  0  0  0  0  0  0  0  0  0  0  0
   41.2345   20.1603   37.3547 C   0  0  0  0  0  0  0  0  0  0  0  0
   41.5725   18.1444   38.7246 C   0  0  0  0  0  0  0  0  0  0  0  0
   41.6665   18.8165   39.7709 O   0  0  0  0  0  0  0  0  0  0  0  0
   41.2904   18.7357   37.5403 N   0  0  0  0  0  0  0  0  0  0  0  0
   41.1135   18.1582   36.7628 H   0  0  0  0  0  0  0  0  0  0  0  0
   41.6558   16.5698   38.7252 C   0  0  0  0  0  0  0  0  0  0  0  0
   40.5213   15.8987   39.0229 F   0  0  0  0  0  0  0  0  0  0  0  0
   42.0272   16.0701   37.5298 F   0  0  0  0  0  0  0  0  0  0  0  0
   42.5763   16.1728   39.6043 F   0  0  0  0  0  0  0  0  0  0  0  0
   41.9368   20.3754   35.9486 C   0  0  0  0  0  0  0  0  0  0  0  0
   42.8110   21.5989   35.9168 C   0  0  0  0  0  0  0  0  0  0  0  0
   42.7227   19.1280   35.6005 C   0  0  0  0  0  0  0  0  0  0  0  0
 22 26  1  0  0  0
 22 23  2  0  0  0
 26 27  1  0  0  0
 26 28  1  0  0  0
 26 29  1  0  0  0
 24 21  1  0  0  0
 21  1  1  0  0  0
 21 30  1  0  0  0
  1  2  2  0  0  0
 30 31  1  0  0  0
 30 32  1  0  0  0
  3  5  1  0  0  0
  5  7  1  0  0  0
  5  6  1  0  0  0
  7  8  2  0  0  0
  9 11  1  0  0  0
 11 12  2  0  0  0
 11 16  1  0  0  0
 12 13  1  0  0  0
 13 14  2  0  0  0
 14 15  1  0  0  0
 14 17  1  0  0  0
 15 16  2  0  0  0
 17 18  1  0  0  0
 17 19  1  0  0  0
 17 20  1  0  0  0
 22 24  1  0  0  0
  1  3  1  0  0  0
  7  9  1  0  0  0
 24 25  1  0  0  0
  3  4  1  0  0  0
  9 10  1  0  0  0
M  END
> <minimizedAffinity>
-6.49052

$$$$
