4XIP_40W_A_301


 24 26  0  0  0  0  0  0  0  0999 V2000
    6.1508  -12.0421  -24.1816 C   0  0  0  0  0  0  0  0  0  0  0  0
    7.2687  -12.9653  -24.4341 C   0  0  0  0  0  0  0  0  0  0  0  0
    6.9453  -14.4186  -24.7068 C   0  0  0  0  0  0  0  0  0  0  0  0
    5.6163  -14.6678  -25.4408 C   0  0  0  0  0  0  0  0  0  0  0  0
    4.5016  -13.9347  -24.6868 C   0  0  0  0  0  0  0  0  0  0  0  0
    5.7088  -14.1588  -26.8833 C   0  0  0  0  0  0  0  0  0  0  0  0
    3.9840  -11.4917  -24.0113 N   0  0  0  0  0  0  0  0  0  0  0  0
    4.7330  -10.3584  -23.7480 C   0  0  0  0  0  0  0  0  0  0  0  0
    4.8621  -12.5341  -24.2859 C   0  0  0  0  0  0  0  0  0  0  0  0
    5.3046  -16.1616  -25.4728 C   0  0  0  0  0  0  0  0  0  0  0  0
    8.4270  -12.5665  -24.4842 O   0  0  0  0  0  0  0  0  0  0  0  0
    6.0575  -10.6476  -23.8399 C   0  0  0  0  0  0  0  0  0  0  0  0
    7.1769   -9.6611  -23.6332 C   0  0  0  0  0  0  0  0  0  0  0  0
    0.4339  -12.5383  -23.6075 C   0  0  0  0  0  0  0  0  0  0  0  0
    0.5008  -10.5229  -24.9330 C   0  0  0  0  0  0  0  0  0  0  0  0
   -0.2426  -11.5285  -24.3053 C   0  0  0  0  0  0  0  0  0  0  0  0
    1.8168  -12.5367  -23.5213 C   0  0  0  0  0  0  0  0  0  0  0  0
    1.8838  -10.5200  -24.8593 C   0  0  0  0  0  0  0  0  0  0  0  0
    2.5495  -11.5213  -24.1389 C   0  0  0  0  0  0  0  0  0  0  0  0
   -2.2984  -11.2670  -25.5037 N   0  0  0  0  0  0  0  0  0  0  0  0
   -1.7356  -11.5172  -24.3522 C   0  0  0  0  0  0  0  0  0  0  0  0
   -2.3933  -11.7683  -23.3125 O   0  0  0  0  0  0  0  0  0  0  0  0
   -1.7414  -11.0752  -26.2926 H   0  0  0  0  0  0  0  0  0  0  0  0
   -3.2797  -11.2700  -25.5830 H   0  0  0  0  0  0  0  0  0  0  0  0
  6  4  1  0  0  0
 20 21  1  0  0  0
 10  4  1  0  0  0
  4  5  1  0  0  0
  4  3  1  0  0  0
 14 17  2  0  0  0
 14 16  1  0  0  0
 21 16  1  0  0  0
 21 22  2  0  0  0
 17 19  1  0  0  0
  5  9  1  0  0  0
 16 15  2  0  0  0
  3  2  1  0  0  0
  2 11  2  0  0  0
  2  1  1  0  0  0
  9  1  2  0  0  0
  9  7  1  0  0  0
 19  7  1  0  0  0
 19 18  2  0  0  0
  1 12  1  0  0  0
 15 18  1  0  0  0
  7  8  1  0  0  0
 12  8  2  0  0  0
 12 13  1  0  0  0
 20 23  1  0  0  0
 20 24  1  0  0  0
M  END
> <minimizedAffinity>
-11.89937

$$$$
4XIP_40W_A_301


 24 26  0  0  0  0  0  0  0  0999 V2000
    6.0592  -12.7775  -24.5520 C   0  0  0  0  0  0  0  0  0  0  0  0
    7.3563  -12.0944  -24.4231 C   0  0  0  0  0  0  0  0  0  0  0  0
    7.3541  -10.5991  -24.1888 C   0  0  0  0  0  0  0  0  0  0  0  0
    6.1666  -10.0657  -23.3688 C   0  0  0  0  0  0  0  0  0  0  0  0
    4.8698  -10.5767  -24.0057 C   0  0  0  0  0  0  0  0  0  0  0  0
    6.2727  -10.5447  -21.9170 C   0  0  0  0  0  0  0  0  0  0  0  0
    3.8196  -12.8806  -24.5365 N   0  0  0  0  0  0  0  0  0  0  0  0
    4.3021  -14.1490  -24.8067 C   0  0  0  0  0  0  0  0  0  0  0  0
    4.9082  -12.0315  -24.3727 C   0  0  0  0  0  0  0  0  0  0  0  0
    6.1643   -8.5395  -23.3769 C   0  0  0  0  0  0  0  0  0  0  0  0
    8.4113  -12.7188  -24.4427 O   0  0  0  0  0  0  0  0  0  0  0  0
    5.6607  -14.1326  -24.8263 C   0  0  0  0  0  0  0  0  0  0  0  0
    6.5390  -15.3310  -25.0741 C   0  0  0  0  0  0  0  0  0  0  0  0
    0.6137  -10.9900  -24.4397 C   0  0  0  0  0  0  0  0  0  0  0  0
    0.2213  -13.2219  -23.6105 C   0  0  0  0  0  0  0  0  0  0  0  0
   -0.2720  -11.9549  -23.9409 C   0  0  0  0  0  0  0  0  0  0  0  0
    1.9550  -11.2853  -24.6225 C   0  0  0  0  0  0  0  0  0  0  0  0
    1.5627  -13.5215  -23.7815 C   0  0  0  0  0  0  0  0  0  0  0  0
    2.4354  -12.5568  -24.3034 C   0  0  0  0  0  0  0  0  0  0  0  0
   -2.2723  -10.8876  -24.7093 N   0  0  0  0  0  0  0  0  0  0  0  0
   -1.7239  -11.6374  -23.7914 C   0  0  0  0  0  0  0  0  0  0  0  0
   -2.3685  -12.1105  -22.8233 O   0  0  0  0  0  0  0  0  0  0  0  0
   -1.7265  -10.5388  -25.4508 H   0  0  0  0  0  0  0  0  0  0  0  0
   -3.2314  -10.6711  -24.6599 H   0  0  0  0  0  0  0  0  0  0  0  0
  6  4  1  0  0  0
 20 21  1  0  0  0
 10  4  1  0  0  0
  4  5  1  0  0  0
  4  3  1  0  0  0
 14 17  2  0  0  0
 14 16  1  0  0  0
 21 16  1  0  0  0
 21 22  2  0  0  0
 17 19  1  0  0  0
  5  9  1  0  0  0
 16 15  2  0  0  0
  3  2  1  0  0  0
  2 11  2  0  0  0
  2  1  1  0  0  0
  9  1  2  0  0  0
  9  7  1  0  0  0
 19  7  1  0  0  0
 19 18  2  0  0  0
  1 12  1  0  0  0
 15 18  1  0  0  0
  7  8  1  0  0  0
 12  8  2  0  0  0
 12 13  1  0  0  0
 20 23  1  0  0  0
 20 24  1  0  0  0
M  END
> <minimizedAffinity>
-10.59717

$$$$
4XIP_40W_A_301


 24 26  0  0  0  0  0  0  0  0999 V2000
    5.8468  -11.6449  -23.9784 C   0  0  0  0  0  0  0  0  0  0  0  0
    6.9278  -12.6401  -24.0603 C   0  0  0  0  0  0  0  0  0  0  0  0
    6.5585  -14.0672  -24.4037 C   0  0  0  0  0  0  0  0  0  0  0  0
    5.3532  -14.2234  -25.3471 C   0  0  0  0  0  0  0  0  0  0  0  0
    4.1812  -13.4202  -24.7728 C   0  0  0  0  0  0  0  0  0  0  0  0
    5.7125  -13.7157  -26.7477 C   0  0  0  0  0  0  0  0  0  0  0  0
    3.7221  -10.9508  -24.1533 N   0  0  0  0  0  0  0  0  0  0  0  0
    4.4910   -9.8716  -23.7551 C   0  0  0  0  0  0  0  0  0  0  0  0
    4.5628  -12.0487  -24.2976 C   0  0  0  0  0  0  0  0  0  0  0  0
    4.9536  -15.6927  -25.4518 C   0  0  0  0  0  0  0  0  0  0  0  0
    8.1026  -12.3198  -23.9160 O   0  0  0  0  0  0  0  0  0  0  0  0
    5.7909  -10.2488  -23.6354 C   0  0  0  0  0  0  0  0  0  0  0  0
    6.9241   -9.3406  -23.2351 C   0  0  0  0  0  0  0  0  0  0  0  0
    0.6129  -10.2782  -26.0878 C   0  0  0  0  0  0  0  0  0  0  0  0
    0.0204  -11.4038  -24.0371 C   0  0  0  0  0  0  0  0  0  0  0  0
   -0.3674  -10.8359  -25.2557 C   0  0  0  0  0  0  0  0  0  0  0  0
    1.9495  -10.3019  -25.7236 C   0  0  0  0  0  0  0  0  0  0  0  0
    1.3535  -11.4226  -23.6620 C   0  0  0  0  0  0  0  0  0  0  0  0
    2.3286  -10.8834  -24.5123 C   0  0  0  0  0  0  0  0  0  0  0  0
   -2.0469  -11.0081  -26.9529 N   0  0  0  0  0  0  0  0  0  0  0  0
   -1.7993  -10.8440  -25.6812 C   0  0  0  0  0  0  0  0  0  0  0  0
   -2.7054  -10.7215  -24.8208 O   0  0  0  0  0  0  0  0  0  0  0  0
   -1.3032  -11.0999  -27.5914 H   0  0  0  0  0  0  0  0  0  0  0  0
   -2.9773  -11.0401  -27.2731 H   0  0  0  0  0  0  0  0  0  0  0  0
  6  4  1  0  0  0
 20 21  1  0  0  0
 10  4  1  0  0  0
  4  5  1  0  0  0
  4  3  1  0  0  0
 14 17  2  0  0  0
 14 16  1  0  0  0
 21 16  1  0  0  0
 21 22  2  0  0  0
 17 19  1  0  0  0
  5  9  1  0  0  0
 16 15  2  0  0  0
  3  2  1  0  0  0
  2 11  2  0  0  0
  2  1  1  0  0  0
  9  1  2  0  0  0
  9  7  1  0  0  0
 19  7  1  0  0  0
 19 18  2  0  0  0
  1 12  1  0  0  0
 15 18  1  0  0  0
  7  8  1  0  0  0
 12  8  2  0  0  0
 12 13  1  0  0  0
 20 23  1  0  0  0
 20 24  1  0  0  0
M  END
> <minimizedAffinity>
-9.69072

$$$$
4XIP_40W_A_301


 24 26  0  0  0  0  0  0  0  0999 V2000
    1.2850  -11.0870  -24.3891 C   0  0  0  0  0  0  0  0  0  0  0  0
    0.3323   -9.9793  -24.5659 C   0  0  0  0  0  0  0  0  0  0  0  0
    0.8885   -8.5916  -24.8019 C   0  0  0  0  0  0  0  0  0  0  0  0
    2.2154   -8.5406  -25.5791 C   0  0  0  0  0  0  0  0  0  0  0  0
    3.2139   -9.4806  -24.8950 C   0  0  0  0  0  0  0  0  0  0  0  0
    1.9899   -8.9687  -27.0331 C   0  0  0  0  0  0  0  0  0  0  0  0
    3.3313  -12.0009  -24.3234 N   0  0  0  0  0  0  0  0  0  0  0  0
    2.4100  -13.0014  -24.0692 C   0  0  0  0  0  0  0  0  0  0  0  0
    2.6343  -10.8154  -24.5276 C   0  0  0  0  0  0  0  0  0  0  0  0
    2.7749   -7.1206  -25.5729 C   0  0  0  0  0  0  0  0  0  0  0  0
   -0.8779  -10.1751  -24.5837 O   0  0  0  0  0  0  0  0  0  0  0  0
    1.1515  -12.4898  -24.0987 C   0  0  0  0  0  0  0  0  0  0  0  0
   -0.1117  -13.2812  -23.8814 C   0  0  0  0  0  0  0  0  0  0  0  0
    6.5572  -13.2656  -25.6857 C   0  0  0  0  0  0  0  0  0  0  0  0
    7.0277  -11.6606  -23.9463 C   0  0  0  0  0  0  0  0  0  0  0  0
    7.4897  -12.5424  -24.9295 C   0  0  0  0  0  0  0  0  0  0  0  0
    5.1968  -13.1011  -25.4802 C   0  0  0  0  0  0  0  0  0  0  0  0
    5.6696  -11.4979  -23.7287 C   0  0  0  0  0  0  0  0  0  0  0  0
    4.7450  -12.2083  -24.5066 C   0  0  0  0  0  0  0  0  0  0  0  0
    9.3120  -13.5701  -26.0931 N   0  0  0  0  0  0  0  0  0  0  0  0
    8.9521  -12.6958  -25.1922 C   0  0  0  0  0  0  0  0  0  0  0  0
    9.7749  -11.9780  -24.5723 O   0  0  0  0  0  0  0  0  0  0  0  0
    8.6306  -14.1111  -26.5538 H   0  0  0  0  0  0  0  0  0  0  0  0
   10.2646  -13.6882  -26.3115 H   0  0  0  0  0  0  0  0  0  0  0  0
  6  4  1  0  0  0
 20 21  1  0  0  0
 10  4  1  0  0  0
  4  5  1  0  0  0
  4  3  1  0  0  0
 14 17  2  0  0  0
 14 16  1  0  0  0
 21 16  1  0  0  0
 21 22  2  0  0  0
 17 19  1  0  0  0
  5  9  1  0  0  0
 16 15  2  0  0  0
  3  2  1  0  0  0
  2 11  2  0  0  0
  2  1  1  0  0  0
  9  1  2  0  0  0
  9  7  1  0  0  0
 19  7  1  0  0  0
 19 18  2  0  0  0
  1 12  1  0  0  0
 15 18  1  0  0  0
  7  8  1  0  0  0
 12  8  2  0  0  0
 12 13  1  0  0  0
 20 23  1  0  0  0
 20 24  1  0  0  0
M  END
> <minimizedAffinity>
-8.99644

$$$$
