5NKB_8ZT_A_1001


 37 41  0  0  0  0  0  0  0  0999 V2000
  -86.5984  -16.0542    5.3599 N   0  0  0  0  0  0  0  0  0  0  0  0
  -86.6688  -15.6792    4.4523 H   0  0  0  0  0  0  0  0  0  0  0  0
  -83.0059  -16.4828    5.5426 C   0  0  0  0  0  0  0  0  0  0  0  0
  -84.3201  -16.4200    5.0598 C   0  0  0  0  0  0  0  0  0  0  0  0
  -82.7705  -16.1758    6.8692 C   0  0  0  0  0  0  0  0  0  0  0  0
  -83.7807  -15.7988    7.7465 C   0  0  0  0  0  0  0  0  0  0  0  0
  -85.0766  -15.7515    7.2746 C   0  0  0  0  0  0  0  0  0  0  0  0
  -85.3646  -16.0712    5.9505 C   0  0  0  0  0  0  0  0  0  0  0  0
  -81.9208  -16.2863    3.3647 C   0  0  0  0  0  0  0  0  0  0  0  0
  -80.9549  -17.0594    2.4508 C   0  0  0  0  0  0  0  0  0  0  0  0
  -79.6748  -17.0865    3.1170 O   0  0  0  0  0  0  0  0  0  0  0  0
  -79.8393  -18.0282    4.2137 C   0  0  0  0  0  0  0  0  0  0  0  0
  -80.7266  -17.3780    5.2863 C   0  0  0  0  0  0  0  0  0  0  0  0
  -81.9537  -16.7927    4.7138 N   0  0  0  0  0  0  0  0  0  0  0  0
  -83.5458  -15.5123    9.0505 N   0  0  0  0  0  0  0  0  0  0  0  0
  -84.6671  -15.4324    9.9737 C   0  0  0  0  0  0  0  0  0  0  0  0
  -84.2505  -15.4440   11.4047 C   0  0  0  0  0  0  0  0  0  0  0  0
  -83.1448  -14.5437   11.5994 O   0  0  0  0  0  0  0  0  0  0  0  0
  -81.9589  -14.9918   10.8907 C   0  0  0  0  0  0  0  0  0  0  0  0
  -82.2191  -15.0044    9.3901 C   0  0  0  0  0  0  0  0  0  0  0  0
  -87.7193  -16.5151    5.9368 C   0  0  0  0  0  0  0  0  0  0  0  0
  -87.8917  -17.3963    7.4071 S   0  0  0  0  0  0  0  0  0  0  0  0
  -88.9586  -16.2482    5.4708 N   0  0  0  0  0  0  0  0  0  0  0  0
  -89.9485  -16.7727    6.2444 C   0  0  0  0  0  0  0  0  0  0  0  0
  -89.5825  -17.4457    7.3739 C   0  0  0  0  0  0  0  0  0  0  0  0
  -90.3297  -18.0807    8.3525 C   0  0  0  0  0  0  0  0  0  0  0  0
  -89.8201  -18.2127    9.4699 O   0  0  0  0  0  0  0  0  0  0  0  0
  -91.5990  -18.5141    8.1189 N   0  0  0  0  0  0  0  0  0  0  0  0
  -91.9945  -18.3998    7.2246 H   0  0  0  0  0  0  0  0  0  0  0  0
  -92.3511  -19.1217    9.1359 C   0  0  0  0  0  0  0  0  0  0  0  0
  -93.0963  -18.3650   10.0332 C   0  0  0  0  0  0  0  0  0  0  0  0
  -93.1014  -16.6229   10.0078 Cl  0  0  0  0  0  0  0  0  0  0  0  0
  -93.8450  -19.0353   11.0142 C   0  0  0  0  0  0  0  0  0  0  0  0
  -93.8542  -20.4303   11.1018 C   0  0  0  0  0  0  0  0  0  0  0  0
  -93.1395  -21.2101   10.1701 C   0  0  0  0  0  0  0  0  0  0  0  0
  -92.3863  -20.5157    9.2019 C   0  0  0  0  0  0  0  0  0  0  0  0
  -91.6562  -21.2570    8.2519 C   0  0  0  0  0  0  0  0  0  0  0  0
 10 11  1  0  0  0
 10  9  1  0  0  0
 11 12  1  0  0  0
  9 14  1  0  0  0
 12 13  1  0  0  0
 14 13  1  0  0  0
 14  3  1  0  0  0
  4  3  2  0  0  0
  4  8  1  0  0  0
  3  5  1  0  0  0
  1  8  1  0  0  0
  1 21  1  0  0  0
 23 21  2  0  0  0
 23 24  1  0  0  0
  8  7  2  0  0  0
 21 22  1  0  0  0
 24 25  2  0  0  0
  5  6  2  0  0  0
  7  6  1  0  0  0
 25 22  1  0  0  0
 25 26  1  0  0  0
  6 15  1  0  0  0
 37 36  1  0  0  0
 28 26  1  0  0  0
 28 30  1  0  0  0
 26 27  2  0  0  0
 15 16  1  0  0  0
 15 20  1  0  0  0
 36 30  2  0  0  0
 36 35  1  0  0  0
 30 31  1  0  0  0
 16 17  1  0  0  0
 20 19  1  0  0  0
 35 34  2  0  0  0
 31 32  1  0  0  0
 31 33  2  0  0  0
 17 18  1  0  0  0
 19 18  1  0  0  0
 34 33  1  0  0  0
  1  2  1  0  0  0
 28 29  1  0  0  0
M  END
> <minimizedAffinity>
-10.13026

$$$$
5NKB_8ZT_A_1001


 37 41  0  0  0  0  0  0  0  0999 V2000
  -86.6498  -15.9190    5.3420 N   0  0  0  0  0  0  0  0  0  0  0  0
  -86.7492  -15.4410    4.4871 H   0  0  0  0  0  0  0  0  0  0  0  0
  -84.1012  -15.7947    7.9134 C   0  0  0  0  0  0  0  0  0  0  0  0
  -85.3351  -15.7276    7.2524 C   0  0  0  0  0  0  0  0  0  0  0  0
  -82.9842  -16.1800    7.1969 C   0  0  0  0  0  0  0  0  0  0  0  0
  -83.0314  -16.5126    5.8481 C   0  0  0  0  0  0  0  0  0  0  0  0
  -84.2439  -16.4321    5.1939 C   0  0  0  0  0  0  0  0  0  0  0  0
  -85.3927  -16.0300    5.8699 C   0  0  0  0  0  0  0  0  0  0  0  0
  -82.7650  -15.0181    9.8030 C   0  0  0  0  0  0  0  0  0  0  0  0
  -82.6507  -15.2028   11.3257 C   0  0  0  0  0  0  0  0  0  0  0  0
  -83.8484  -14.6472   11.9089 O   0  0  0  0  0  0  0  0  0  0  0  0
  -84.9013  -15.5986   11.5881 C   0  0  0  0  0  0  0  0  0  0  0  0
  -85.2155  -15.4913   10.0879 C   0  0  0  0  0  0  0  0  0  0  0  0
  -83.9959  -15.5346    9.2592 N   0  0  0  0  0  0  0  0  0  0  0  0
  -81.9299  -16.8765    5.1469 N   0  0  0  0  0  0  0  0  0  0  0  0
  -82.0273  -17.0400    3.7047 C   0  0  0  0  0  0  0  0  0  0  0  0
  -80.6995  -17.1105    3.0314 C   0  0  0  0  0  0  0  0  0  0  0  0
  -79.8292  -17.9966    3.7583 O   0  0  0  0  0  0  0  0  0  0  0  0
  -79.5197  -17.4779    5.0791 C   0  0  0  0  0  0  0  0  0  0  0  0
  -80.7904  -17.3753    5.9124 C   0  0  0  0  0  0  0  0  0  0  0  0
  -87.7567  -16.4192    5.9133 C   0  0  0  0  0  0  0  0  0  0  0  0
  -87.9101  -17.2759    7.4001 S   0  0  0  0  0  0  0  0  0  0  0  0
  -88.9999  -16.2202    5.4244 N   0  0  0  0  0  0  0  0  0  0  0  0
  -89.9759  -16.7736    6.1955 C   0  0  0  0  0  0  0  0  0  0  0  0
  -89.5961  -17.4046    7.3444 C   0  0  0  0  0  0  0  0  0  0  0  0
  -90.3277  -18.0527    8.3263 C   0  0  0  0  0  0  0  0  0  0  0  0
  -89.8041  -18.1910    9.4364 O   0  0  0  0  0  0  0  0  0  0  0  0
  -91.5970  -18.4921    8.1039 N   0  0  0  0  0  0  0  0  0  0  0  0
  -92.0037  -18.3727    7.2154 H   0  0  0  0  0  0  0  0  0  0  0  0
  -92.3332  -19.1132    9.1245 C   0  0  0  0  0  0  0  0  0  0  0  0
  -93.0836  -18.3697   10.0283 C   0  0  0  0  0  0  0  0  0  0  0  0
  -93.1152  -16.6278   10.0069 Cl  0  0  0  0  0  0  0  0  0  0  0  0
  -93.8157  -19.0533   11.0127 C   0  0  0  0  0  0  0  0  0  0  0  0
  -93.8034  -20.4484   11.0972 C   0  0  0  0  0  0  0  0  0  0  0  0
  -93.0832  -21.2154   10.1591 C   0  0  0  0  0  0  0  0  0  0  0  0
  -92.3470  -20.5077    9.1875 C   0  0  0  0  0  0  0  0  0  0  0  0
  -91.6121  -21.2359    8.2311 C   0  0  0  0  0  0  0  0  0  0  0  0
 10 11  1  0  0  0
 10  9  1  0  0  0
 11 12  1  0  0  0
  9 14  1  0  0  0
 12 13  1  0  0  0
 14 13  1  0  0  0
 14  3  1  0  0  0
  4  3  2  0  0  0
  4  8  1  0  0  0
  3  5  1  0  0  0
  1  8  1  0  0  0
  1 21  1  0  0  0
 23 21  2  0  0  0
 23 24  1  0  0  0
  8  7  2  0  0  0
 21 22  1  0  0  0
 24 25  2  0  0  0
  5  6  2  0  0  0
  7  6  1  0  0  0
 25 22  1  0  0  0
 25 26  1  0  0  0
  6 15  1  0  0  0
 37 36  1  0  0  0
 28 26  1  0  0  0
 28 30  1  0  0  0
 26 27  2  0  0  0
 15 16  1  0  0  0
 15 20  1  0  0  0
 36 30  2  0  0  0
 36 35  1  0  0  0
 30 31  1  0  0  0
 16 17  1  0  0  0
 20 19  1  0  0  0
 35 34  2  0  0  0
 31 32  1  0  0  0
 31 33  2  0  0  0
 17 18  1  0  0  0
 19 18  1  0  0  0
 34 33  1  0  0  0
  1  2  1  0  0  0
 28 29  1  0  0  0
M  END
> <minimizedAffinity>
-10.02757

$$$$
5NKB_8ZT_A_1001


 37 41  0  0  0  0  0  0  0  0999 V2000
  -86.4017  -15.9331    5.5306 N   0  0  0  0  0  0  0  0  0  0  0  0
  -86.4711  -15.4140    4.6970 H   0  0  0  0  0  0  0  0  0  0  0  0
  -82.8438  -16.6114    5.5989 C   0  0  0  0  0  0  0  0  0  0  0  0
  -84.1586  -16.4223    5.1518 C   0  0  0  0  0  0  0  0  0  0  0  0
  -82.5665  -16.4316    6.9406 C   0  0  0  0  0  0  0  0  0  0  0  0
  -83.5343  -16.0628    7.8677 C   0  0  0  0  0  0  0  0  0  0  0  0
  -84.8317  -15.8911    7.4298 C   0  0  0  0  0  0  0  0  0  0  0  0
  -85.1623  -16.0804    6.0906 C   0  0  0  0  0  0  0  0  0  0  0  0
  -82.1016  -17.0532    3.3157 C   0  0  0  0  0  0  0  0  0  0  0  0
  -81.0058  -17.8199    2.5560 C   0  0  0  0  0  0  0  0  0  0  0  0
  -79.7497  -17.1821    2.8703 O   0  0  0  0  0  0  0  0  0  0  0  0
  -79.4631  -17.5679    4.2434 C   0  0  0  0  0  0  0  0  0  0  0  0
  -80.4273  -16.8154    5.1733 C   0  0  0  0  0  0  0  0  0  0  0  0
  -81.8288  -16.9203    4.7248 N   0  0  0  0  0  0  0  0  0  0  0  0
  -83.2593  -15.9014    9.1852 N   0  0  0  0  0  0  0  0  0  0  0  0
  -84.1332  -15.0685    9.9969 C   0  0  0  0  0  0  0  0  0  0  0  0
  -83.9163  -15.2435   11.4611 C   0  0  0  0  0  0  0  0  0  0  0  0
  -82.5068  -15.2337   11.7511 O   0  0  0  0  0  0  0  0  0  0  0  0
  -81.8315  -16.3770   11.1628 C   0  0  0  0  0  0  0  0  0  0  0  0
  -81.9388  -16.3243    9.6445 C   0  0  0  0  0  0  0  0  0  0  0  0
  -87.5294  -16.4501    6.0432 C   0  0  0  0  0  0  0  0  0  0  0  0
  -87.7427  -17.3342    7.5064 S   0  0  0  0  0  0  0  0  0  0  0  0
  -88.7511  -16.2498    5.5032 N   0  0  0  0  0  0  0  0  0  0  0  0
  -89.7565  -16.8228    6.2203 C   0  0  0  0  0  0  0  0  0  0  0  0
  -89.4237  -17.4719    7.3737 C   0  0  0  0  0  0  0  0  0  0  0  0
  -90.1936  -18.1418    8.3105 C   0  0  0  0  0  0  0  0  0  0  0  0
  -89.6291  -18.5575    9.3275 O   0  0  0  0  0  0  0  0  0  0  0  0
  -91.5352  -18.3094    8.1503 N   0  0  0  0  0  0  0  0  0  0  0  0
  -91.9733  -17.9704    7.3364 H   0  0  0  0  0  0  0  0  0  0  0  0
  -92.3019  -18.9590    9.1298 C   0  0  0  0  0  0  0  0  0  0  0  0
  -92.2874  -20.3432    9.2576 C   0  0  0  0  0  0  0  0  0  0  0  0
  -91.3805  -21.3716    8.1826 Cl  0  0  0  0  0  0  0  0  0  0  0  0
  -93.0601  -20.9301   10.2729 C   0  0  0  0  0  0  0  0  0  0  0  0
  -93.8316  -20.1569   11.1450 C   0  0  0  0  0  0  0  0  0  0  0  0
  -93.8193  -18.7503   11.0550 C   0  0  0  0  0  0  0  0  0  0  0  0
  -93.0458  -18.1841   10.0215 C   0  0  0  0  0  0  0  0  0  0  0  0
  -93.0064  -16.7814    9.8953 C   0  0  0  0  0  0  0  0  0  0  0  0
 10 11  1  0  0  0
 10  9  1  0  0  0
 11 12  1  0  0  0
  9 14  1  0  0  0
 12 13  1  0  0  0
 14 13  1  0  0  0
 14  3  1  0  0  0
  4  3  2  0  0  0
  4  8  1  0  0  0
  3  5  1  0  0  0
  1  8  1  0  0  0
  1 21  1  0  0  0
 23 21  2  0  0  0
 23 24  1  0  0  0
  8  7  2  0  0  0
 21 22  1  0  0  0
 24 25  2  0  0  0
  5  6  2  0  0  0
  7  6  1  0  0  0
 25 22  1  0  0  0
 25 26  1  0  0  0
  6 15  1  0  0  0
 37 36  1  0  0  0
 28 26  1  0  0  0
 28 30  1  0  0  0
 26 27  2  0  0  0
 15 16  1  0  0  0
 15 20  1  0  0  0
 36 30  2  0  0  0
 36 35  1  0  0  0
 30 31  1  0  0  0
 16 17  1  0  0  0
 20 19  1  0  0  0
 35 34  2  0  0  0
 31 32  1  0  0  0
 31 33  2  0  0  0
 17 18  1  0  0  0
 19 18  1  0  0  0
 34 33  1  0  0  0
  1  2  1  0  0  0
 28 29  1  0  0  0
M  END
> <minimizedAffinity>
-9.83522

$$$$
5NKB_8ZT_A_1001


 37 41  0  0  0  0  0  0  0  0999 V2000
  -86.4486  -15.7052    5.6053 N   0  0  0  0  0  0  0  0  0  0  0  0
  -86.5598  -15.0200    4.9072 H   0  0  0  0  0  0  0  0  0  0  0  0
  -83.7590  -16.1955    7.9820 C   0  0  0  0  0  0  0  0  0  0  0  0
  -85.0180  -15.9296    7.4266 C   0  0  0  0  0  0  0  0  0  0  0  0
  -82.7199  -16.5379    7.1378 C   0  0  0  0  0  0  0  0  0  0  0  0
  -82.8700  -16.6384    5.7596 C   0  0  0  0  0  0  0  0  0  0  0  0
  -84.1061  -16.3620    5.2117 C   0  0  0  0  0  0  0  0  0  0  0  0
  -85.1777  -15.9940    6.0209 C   0  0  0  0  0  0  0  0  0  0  0  0
  -82.2185  -16.1450    9.8750 C   0  0  0  0  0  0  0  0  0  0  0  0
  -82.1472  -16.5647   11.3530 C   0  0  0  0  0  0  0  0  0  0  0  0
  -83.0979  -15.7487   12.0695 O   0  0  0  0  0  0  0  0  0  0  0  0
  -84.4030  -16.2690   11.6916 C   0  0  0  0  0  0  0  0  0  0  0  0
  -84.6881  -15.8625   10.2376 C   0  0  0  0  0  0  0  0  0  0  0  0
  -83.5573  -16.1701    9.3416 N   0  0  0  0  0  0  0  0  0  0  0  0
  -81.8436  -16.9611    4.9350 N   0  0  0  0  0  0  0  0  0  0  0  0
  -82.0919  -17.0884    3.5073 C   0  0  0  0  0  0  0  0  0  0  0  0
  -80.8427  -17.1140    2.6948 C   0  0  0  0  0  0  0  0  0  0  0  0
  -79.8844  -18.0012    3.2994 O   0  0  0  0  0  0  0  0  0  0  0  0
  -79.4444  -17.5115    4.5940 C   0  0  0  0  0  0  0  0  0  0  0  0
  -80.6203  -17.4569    5.5604 C   0  0  0  0  0  0  0  0  0  0  0  0
  -87.5540  -16.2950    6.0869 C   0  0  0  0  0  0  0  0  0  0  0  0
  -87.7728  -17.1152    7.5860 S   0  0  0  0  0  0  0  0  0  0  0  0
  -88.7552  -16.2366    5.4721 N   0  0  0  0  0  0  0  0  0  0  0  0
  -89.7460  -16.8600    6.1674 C   0  0  0  0  0  0  0  0  0  0  0  0
  -89.4245  -17.4132    7.3728 C   0  0  0  0  0  0  0  0  0  0  0  0
  -90.1853  -18.0996    8.3052 C   0  0  0  0  0  0  0  0  0  0  0  0
  -89.6132  -18.5223    9.3150 O   0  0  0  0  0  0  0  0  0  0  0  0
  -91.5262  -18.2758    8.1487 N   0  0  0  0  0  0  0  0  0  0  0  0
  -91.9703  -17.9310    7.3405 H   0  0  0  0  0  0  0  0  0  0  0  0
  -92.2836  -18.9422    9.1240 C   0  0  0  0  0  0  0  0  0  0  0  0
  -92.2425  -20.3262    9.2490 C   0  0  0  0  0  0  0  0  0  0  0  0
  -91.3117  -21.3344    8.1753 Cl  0  0  0  0  0  0  0  0  0  0  0  0
  -93.0074  -20.9302   10.2602 C   0  0  0  0  0  0  0  0  0  0  0  0
  -93.7971  -20.1741   11.1310 C   0  0  0  0  0  0  0  0  0  0  0  0
  -93.8120  -18.7673   11.0439 C   0  0  0  0  0  0  0  0  0  0  0  0
  -93.0459  -18.1840   10.0145 C   0  0  0  0  0  0  0  0  0  0  0  0
  -93.0335  -16.7805    9.8913 C   0  0  0  0  0  0  0  0  0  0  0  0
 10 11  1  0  0  0
 10  9  1  0  0  0
 11 12  1  0  0  0
  9 14  1  0  0  0
 12 13  1  0  0  0
 14 13  1  0  0  0
 14  3  1  0  0  0
  4  3  2  0  0  0
  4  8  1  0  0  0
  3  5  1  0  0  0
  1  8  1  0  0  0
  1 21  1  0  0  0
 23 21  2  0  0  0
 23 24  1  0  0  0
  8  7  2  0  0  0
 21 22  1  0  0  0
 24 25  2  0  0  0
  5  6  2  0  0  0
  7  6  1  0  0  0
 25 22  1  0  0  0
 25 26  1  0  0  0
  6 15  1  0  0  0
 37 36  1  0  0  0
 28 26  1  0  0  0
 28 30  1  0  0  0
 26 27  2  0  0  0
 15 16  1  0  0  0
 15 20  1  0  0  0
 36 30  2  0  0  0
 36 35  1  0  0  0
 30 31  1  0  0  0
 16 17  1  0  0  0
 20 19  1  0  0  0
 35 34  2  0  0  0
 31 32  1  0  0  0
 31 33  2  0  0  0
 17 18  1  0  0  0
 19 18  1  0  0  0
 34 33  1  0  0  0
  1  2  1  0  0  0
 28 29  1  0  0  0
M  END
> <minimizedAffinity>
-9.65088

$$$$
5NKB_8ZT_A_1001


 37 41  0  0  0  0  0  0  0  0999 V2000
  -86.1534  -16.4366    6.1111 N   0  0  0  0  0  0  0  0  0  0  0  0
  -85.8747  -16.4382    5.1668 H   0  0  0  0  0  0  0  0  0  0  0  0
  -82.8173  -15.9268    7.4279 C   0  0  0  0  0  0  0  0  0  0  0  0
  -83.8826  -16.1940    6.5573 C   0  0  0  0  0  0  0  0  0  0  0  0
  -83.0987  -15.6017    8.7411 C   0  0  0  0  0  0  0  0  0  0  0  0
  -84.3949  -15.5198    9.2365 C   0  0  0  0  0  0  0  0  0  0  0  0
  -85.4429  -15.7975    8.3827 C   0  0  0  0  0  0  0  0  0  0  0  0
  -85.2073  -16.1486    7.0562 C   0  0  0  0  0  0  0  0  0  0  0  0
  -80.5663  -14.9864    7.5163 C   0  0  0  0  0  0  0  0  0  0  0  0
  -79.3182  -14.8215    6.6327 C   0  0  0  0  0  0  0  0  0  0  0  0
  -78.7866  -16.1435    6.4028 O   0  0  0  0  0  0  0  0  0  0  0  0
  -79.7124  -16.7660    5.4690 C   0  0  0  0  0  0  0  0  0  0  0  0
  -81.0160  -17.0879    6.2157 C   0  0  0  0  0  0  0  0  0  0  0  0
  -81.5150  -15.9341    6.9877 N   0  0  0  0  0  0  0  0  0  0  0  0
  -84.6644  -15.2140   10.5293 N   0  0  0  0  0  0  0  0  0  0  0  0
  -83.5670  -15.1080   11.4782 C   0  0  0  0  0  0  0  0  0  0  0  0
  -83.9592  -14.4517   12.7576 C   0  0  0  0  0  0  0  0  0  0  0  0
  -85.2088  -14.9938   13.2220 O   0  0  0  0  0  0  0  0  0  0  0  0
  -86.3002  -14.6714   12.3196 C   0  0  0  0  0  0  0  0  0  0  0  0
  -86.0580  -15.3069   10.9569 C   0  0  0  0  0  0  0  0  0  0  0  0
  -87.4367  -16.7172    6.3868 C   0  0  0  0  0  0  0  0  0  0  0  0
  -88.0871  -17.5889    7.7229 S   0  0  0  0  0  0  0  0  0  0  0  0
  -88.4735  -16.2382    5.6657 N   0  0  0  0  0  0  0  0  0  0  0  0
  -89.6876  -16.6075    6.1588 C   0  0  0  0  0  0  0  0  0  0  0  0
  -89.7085  -17.3560    7.2997 C   0  0  0  0  0  0  0  0  0  0  0  0
  -90.7556  -17.8789    8.0410 C   0  0  0  0  0  0  0  0  0  0  0  0
  -91.8867  -17.4268    7.8367 O   0  0  0  0  0  0  0  0  0  0  0  0
  -90.5679  -18.8850    8.9388 N   0  0  0  0  0  0  0  0  0  0  0  0
  -89.6615  -19.2385    9.0898 H   0  0  0  0  0  0  0  0  0  0  0  0
  -91.6492  -19.4249    9.6519 C   0  0  0  0  0  0  0  0  0  0  0  0
  -92.2004  -18.7592   10.7408 C   0  0  0  0  0  0  0  0  0  0  0  0
  -91.5578  -17.2545   11.3395 Cl  0  0  0  0  0  0  0  0  0  0  0  0
  -93.2958  -19.3429   11.3980 C   0  0  0  0  0  0  0  0  0  0  0  0
  -93.8338  -20.5636   10.9811 C   0  0  0  0  0  0  0  0  0  0  0  0
  -93.3132  -21.2260    9.8509 C   0  0  0  0  0  0  0  0  0  0  0  0
  -92.2070  -20.6276    9.2144 C   0  0  0  0  0  0  0  0  0  0  0  0
  -91.6549  -21.2573    8.0814 C   0  0  0  0  0  0  0  0  0  0  0  0
 10 11  1  0  0  0
 10  9  1  0  0  0
 11 12  1  0  0  0
  9 14  1  0  0  0
 12 13  1  0  0  0
 14 13  1  0  0  0
 14  3  1  0  0  0
  4  3  2  0  0  0
  4  8  1  0  0  0
  3  5  1  0  0  0
  1  8  1  0  0  0
  1 21  1  0  0  0
 23 21  2  0  0  0
 23 24  1  0  0  0
  8  7  2  0  0  0
 21 22  1  0  0  0
 24 25  2  0  0  0
  5  6  2  0  0  0
  7  6  1  0  0  0
 25 22  1  0  0  0
 25 26  1  0  0  0
  6 15  1  0  0  0
 37 36  1  0  0  0
 28 26  1  0  0  0
 28 30  1  0  0  0
 26 27  2  0  0  0
 15 16  1  0  0  0
 15 20  1  0  0  0
 36 30  2  0  0  0
 36 35  1  0  0  0
 30 31  1  0  0  0
 16 17  1  0  0  0
 20 19  1  0  0  0
 35 34  2  0  0  0
 31 32  1  0  0  0
 31 33  2  0  0  0
 17 18  1  0  0  0
 19 18  1  0  0  0
 34 33  1  0  0  0
  1  2  1  0  0  0
 28 29  1  0  0  0
M  END
> <minimizedAffinity>
-9.15804

$$$$
5NKB_8ZT_A_1001


 37 41  0  0  0  0  0  0  0  0999 V2000
  -86.3540  -16.4975    5.7878 N   0  0  0  0  0  0  0  0  0  0  0  0
  -86.1312  -16.5051    4.8289 H   0  0  0  0  0  0  0  0  0  0  0  0
  -84.8434  -15.9559    9.0356 C   0  0  0  0  0  0  0  0  0  0  0  0
  -85.7749  -16.2338    8.0260 C   0  0  0  0  0  0  0  0  0  0  0  0
  -83.5327  -15.7032    8.6783 C   0  0  0  0  0  0  0  0  0  0  0  0
  -83.0941  -15.7202    7.3594 C   0  0  0  0  0  0  0  0  0  0  0  0
  -84.0146  -15.9791    6.3645 C   0  0  0  0  0  0  0  0  0  0  0  0
  -85.3503  -16.2203    6.6750 C   0  0  0  0  0  0  0  0  0  0  0  0
  -85.4213  -17.2383   11.0308 C   0  0  0  0  0  0  0  0  0  0  0  0
  -86.2264  -17.0989   12.3339 C   0  0  0  0  0  0  0  0  0  0  0  0
  -85.5618  -16.0992   13.1353 O   0  0  0  0  0  0  0  0  0  0  0  0
  -85.8596  -14.8331   12.4835 C   0  0  0  0  0  0  0  0  0  0  0  0
  -85.0573  -14.7570   11.1755 C   0  0  0  0  0  0  0  0  0  0  0  0
  -85.1992  -15.9802   10.3633 N   0  0  0  0  0  0  0  0  0  0  0  0
  -81.8099  -15.4578    7.0137 N   0  0  0  0  0  0  0  0  0  0  0  0
  -80.8447  -15.1387    8.0543 C   0  0  0  0  0  0  0  0  0  0  0  0
  -79.4321  -15.2017    7.5832 C   0  0  0  0  0  0  0  0  0  0  0  0
  -79.3094  -14.5330    6.3148 O   0  0  0  0  0  0  0  0  0  0  0  0
  -80.0519  -15.2211    5.2733 C   0  0  0  0  0  0  0  0  0  0  0  0
  -81.5396  -15.2142    5.5991 C   0  0  0  0  0  0  0  0  0  0  0  0
  -87.6227  -16.7598    6.1391 C   0  0  0  0  0  0  0  0  0  0  0  0
  -88.2052  -17.6228    7.5116 S   0  0  0  0  0  0  0  0  0  0  0  0
  -88.6933  -16.2655    5.4806 N   0  0  0  0  0  0  0  0  0  0  0  0
  -89.8812  -16.6176    6.0447 C   0  0  0  0  0  0  0  0  0  0  0  0
  -89.8454  -17.3664    7.1851 C   0  0  0  0  0  0  0  0  0  0  0  0
  -90.8541  -17.8746    7.9872 C   0  0  0  0  0  0  0  0  0  0  0  0
  -91.9806  -17.3800    7.8770 O   0  0  0  0  0  0  0  0  0  0  0  0
  -90.6376  -18.9106    8.8436 N   0  0  0  0  0  0  0  0  0  0  0  0
  -89.7356  -19.2978    8.9194 H   0  0  0  0  0  0  0  0  0  0  0  0
  -91.6831  -19.4339    9.6197 C   0  0  0  0  0  0  0  0  0  0  0  0
  -92.1520  -18.7650   10.7446 C   0  0  0  0  0  0  0  0  0  0  0  0
  -91.4430  -17.2775   11.3107 Cl  0  0  0  0  0  0  0  0  0  0  0  0
  -93.2159  -19.3314   11.4655 C   0  0  0  0  0  0  0  0  0  0  0  0
  -93.8034  -20.5383   11.0760 C   0  0  0  0  0  0  0  0  0  0  0  0
  -93.3676  -21.2030    9.9118 C   0  0  0  0  0  0  0  0  0  0  0  0
  -92.2913  -20.6222    9.2110 C   0  0  0  0  0  0  0  0  0  0  0  0
  -91.8237  -21.2548    8.0422 C   0  0  0  0  0  0  0  0  0  0  0  0
 10 11  1  0  0  0
 10  9  1  0  0  0
 11 12  1  0  0  0
  9 14  1  0  0  0
 12 13  1  0  0  0
 14 13  1  0  0  0
 14  3  1  0  0  0
  4  3  2  0  0  0
  4  8  1  0  0  0
  3  5  1  0  0  0
  1  8  1  0  0  0
  1 21  1  0  0  0
 23 21  2  0  0  0
 23 24  1  0  0  0
  8  7  2  0  0  0
 21 22  1  0  0  0
 24 25  2  0  0  0
  5  6  2  0  0  0
  7  6  1  0  0  0
 25 22  1  0  0  0
 25 26  1  0  0  0
  6 15  1  0  0  0
 37 36  1  0  0  0
 28 26  1  0  0  0
 28 30  1  0  0  0
 26 27  2  0  0  0
 15 16  1  0  0  0
 15 20  1  0  0  0
 36 30  2  0  0  0
 36 35  1  0  0  0
 30 31  1  0  0  0
 16 17  1  0  0  0
 20 19  1  0  0  0
 35 34  2  0  0  0
 31 32  1  0  0  0
 31 33  2  0  0  0
 17 18  1  0  0  0
 19 18  1  0  0  0
 34 33  1  0  0  0
  1  2  1  0  0  0
 28 29  1  0  0  0
M  END
> <minimizedAffinity>
-8.75891

$$$$
5NKB_8ZT_A_1001


 37 41  0  0  0  0  0  0  0  0999 V2000
  -84.3651  -16.9932    7.7251 N   0  0  0  0  0  0  0  0  0  0  0  0
  -83.9107  -17.5689    7.0683 H   0  0  0  0  0  0  0  0  0  0  0  0
  -81.8054  -14.4715    8.1860 C   0  0  0  0  0  0  0  0  0  0  0  0
  -82.6532  -15.4220    7.6012 C   0  0  0  0  0  0  0  0  0  0  0  0
  -81.9472  -14.1944    9.5323 C   0  0  0  0  0  0  0  0  0  0  0  0
  -82.9011  -14.8120   10.3328 C   0  0  0  0  0  0  0  0  0  0  0  0
  -83.7259  -15.7586    9.7600 C   0  0  0  0  0  0  0  0  0  0  0  0
  -83.6068  -16.0849    8.4117 C   0  0  0  0  0  0  0  0  0  0  0  0
  -80.9574  -12.3476    7.3322 C   0  0  0  0  0  0  0  0  0  0  0  0
  -80.1631  -11.7842    6.1416 C   0  0  0  0  0  0  0  0  0  0  0  0
  -78.8229  -12.3106    6.2419 O   0  0  0  0  0  0  0  0  0  0  0  0
  -78.9379  -13.7114    5.8662 C   0  0  0  0  0  0  0  0  0  0  0  0
  -79.6463  -14.4648    7.0024 C   0  0  0  0  0  0  0  0  0  0  0  0
  -80.8797  -13.7829    7.4384 N   0  0  0  0  0  0  0  0  0  0  0  0
  -83.0264  -14.5463   11.6561 N   0  0  0  0  0  0  0  0  0  0  0  0
  -81.8949  -13.9865   12.3789 C   0  0  0  0  0  0  0  0  0  0  0  0
  -82.2646  -13.4412   13.7158 C   0  0  0  0  0  0  0  0  0  0  0  0
  -83.1172  -14.3734   14.4053 O   0  0  0  0  0  0  0  0  0  0  0  0
  -84.3939  -14.5303   13.7310 C   0  0  0  0  0  0  0  0  0  0  0  0
  -84.1836  -15.1165   12.3411 C   0  0  0  0  0  0  0  0  0  0  0  0
  -85.6881  -17.1510    7.8882 C   0  0  0  0  0  0  0  0  0  0  0  0
  -86.5262  -18.0519    9.0939 S   0  0  0  0  0  0  0  0  0  0  0  0
  -86.6108  -16.5017    7.1458 N   0  0  0  0  0  0  0  0  0  0  0  0
  -87.8910  -16.7729    7.5215 C   0  0  0  0  0  0  0  0  0  0  0  0
  -88.0772  -17.6059    8.5863 C   0  0  0  0  0  0  0  0  0  0  0  0
  -89.2268  -18.0683    9.2059 C   0  0  0  0  0  0  0  0  0  0  0  0
  -89.2964  -17.9705   10.4353 O   0  0  0  0  0  0  0  0  0  0  0  0
  -90.2701  -18.5786    8.4955 N   0  0  0  0  0  0  0  0  0  0  0  0
  -90.2029  -18.6479    7.5158 H   0  0  0  0  0  0  0  0  0  0  0  0
  -91.4400  -19.0069    9.1412 C   0  0  0  0  0  0  0  0  0  0  0  0
  -92.4393  -18.1080    9.4962 C   0  0  0  0  0  0  0  0  0  0  0  0
  -92.2902  -16.3923    9.2315 Cl  0  0  0  0  0  0  0  0  0  0  0  0
  -93.5955  -18.6041   10.1203 C   0  0  0  0  0  0  0  0  0  0  0  0
  -93.7565  -19.9668   10.3858 C   0  0  0  0  0  0  0  0  0  0  0  0
  -92.7711  -20.8938    9.9899 C   0  0  0  0  0  0  0  0  0  0  0  0
  -91.6146  -20.3720    9.3758 C   0  0  0  0  0  0  0  0  0  0  0  0
  -90.6043  -21.2641    8.9654 C   0  0  0  0  0  0  0  0  0  0  0  0
 10 11  1  0  0  0
 10  9  1  0  0  0
 11 12  1  0  0  0
  9 14  1  0  0  0
 12 13  1  0  0  0
 14 13  1  0  0  0
 14  3  1  0  0  0
  4  3  2  0  0  0
  4  8  1  0  0  0
  3  5  1  0  0  0
  1  8  1  0  0  0
  1 21  1  0  0  0
 23 21  2  0  0  0
 23 24  1  0  0  0
  8  7  2  0  0  0
 21 22  1  0  0  0
 24 25  2  0  0  0
  5  6  2  0  0  0
  7  6  1  0  0  0
 25 22  1  0  0  0
 25 26  1  0  0  0
  6 15  1  0  0  0
 37 36  1  0  0  0
 28 26  1  0  0  0
 28 30  1  0  0  0
 26 27  2  0  0  0
 15 16  1  0  0  0
 15 20  1  0  0  0
 36 30  2  0  0  0
 36 35  1  0  0  0
 30 31  1  0  0  0
 16 17  1  0  0  0
 20 19  1  0  0  0
 35 34  2  0  0  0
 31 32  1  0  0  0
 31 33  2  0  0  0
 17 18  1  0  0  0
 19 18  1  0  0  0
 34 33  1  0  0  0
  1  2  1  0  0  0
 28 29  1  0  0  0
M  END
> <minimizedAffinity>
-8.58849

$$$$
5NKB_8ZT_A_1001


 37 41  0  0  0  0  0  0  0  0999 V2000
  -85.9815  -16.0419    5.6501 N   0  0  0  0  0  0  0  0  0  0  0  0
  -86.4624  -15.6092    4.9080 H   0  0  0  0  0  0  0  0  0  0  0  0
  -82.5594  -16.3356    6.8019 C   0  0  0  0  0  0  0  0  0  0  0  0
  -83.9543  -16.2009    6.7813 C   0  0  0  0  0  0  0  0  0  0  0  0
  -81.8884  -16.4776    5.6023 C   0  0  0  0  0  0  0  0  0  0  0  0
  -82.5376  -16.5009    4.3734 C   0  0  0  0  0  0  0  0  0  0  0  0
  -83.9095  -16.3534    4.3525 C   0  0  0  0  0  0  0  0  0  0  0  0
  -84.6262  -16.1879    5.5347 C   0  0  0  0  0  0  0  0  0  0  0  0
  -80.4440  -16.1235    8.0015 C   0  0  0  0  0  0  0  0  0  0  0  0
  -79.7499  -16.6367    9.2745 C   0  0  0  0  0  0  0  0  0  0  0  0
  -80.4734  -16.0917   10.3982 O   0  0  0  0  0  0  0  0  0  0  0  0
  -81.7232  -16.8353   10.4396 C   0  0  0  0  0  0  0  0  0  0  0  0
  -82.6008  -16.3806    9.2633 C   0  0  0  0  0  0  0  0  0  0  0  0
  -81.8626  -16.3784    7.9862 N   0  0  0  0  0  0  0  0  0  0  0  0
  -81.8727  -16.6265    3.1988 N   0  0  0  0  0  0  0  0  0  0  0  0
  -81.1727  -17.8680    2.9075 C   0  0  0  0  0  0  0  0  0  0  0  0
  -80.7767  -17.9962    1.4764 C   0  0  0  0  0  0  0  0  0  0  0  0
  -80.1923  -16.7634    1.0186 O   0  0  0  0  0  0  0  0  0  0  0  0
  -81.1613  -15.6815    1.0133 C   0  0  0  0  0  0  0  0  0  0  0  0
  -81.6453  -15.4052    2.4307 C   0  0  0  0  0  0  0  0  0  0  0  0
  -86.6986  -16.4502    6.7088 C   0  0  0  0  0  0  0  0  0  0  0  0
  -88.2372  -17.2247    6.7354 S   0  0  0  0  0  0  0  0  0  0  0  0
  -86.2415  -16.4020    7.9789 N   0  0  0  0  0  0  0  0  0  0  0  0
  -87.1164  -16.9187    8.8851 C   0  0  0  0  0  0  0  0  0  0  0  0
  -88.2872  -17.4372    8.4131 C   0  0  0  0  0  0  0  0  0  0  0  0
  -89.3619  -18.0265    9.0588 C   0  0  0  0  0  0  0  0  0  0  0  0
  -89.3046  -18.1361   10.2878 O   0  0  0  0  0  0  0  0  0  0  0  0
  -90.4685  -18.4392    8.3815 N   0  0  0  0  0  0  0  0  0  0  0  0
  -90.5026  -18.3431    7.4023 H   0  0  0  0  0  0  0  0  0  0  0  0
  -91.5611  -18.9997    9.0606 C   0  0  0  0  0  0  0  0  0  0  0  0
  -92.5586  -18.2005    9.6074 C   0  0  0  0  0  0  0  0  0  0  0  0
  -92.4971  -16.4601    9.5520 Cl  0  0  0  0  0  0  0  0  0  0  0  0
  -93.6369  -18.8248   10.2553 C   0  0  0  0  0  0  0  0  0  0  0  0
  -93.7233  -20.2161   10.3573 C   0  0  0  0  0  0  0  0  0  0  0  0
  -92.7422  -21.0387    9.7677 C   0  0  0  0  0  0  0  0  0  0  0  0
  -91.6637  -20.3901    9.1329 C   0  0  0  0  0  0  0  0  0  0  0  0
  -90.6602  -21.1751    8.5312 C   0  0  0  0  0  0  0  0  0  0  0  0
 10 11  1  0  0  0
 10  9  1  0  0  0
 11 12  1  0  0  0
  9 14  1  0  0  0
 12 13  1  0  0  0
 14 13  1  0  0  0
 14  3  1  0  0  0
  4  3  2  0  0  0
  4  8  1  0  0  0
  3  5  1  0  0  0
  1  8  1  0  0  0
  1 21  1  0  0  0
 23 21  2  0  0  0
 23 24  1  0  0  0
  8  7  2  0  0  0
 21 22  1  0  0  0
 24 25  2  0  0  0
  5  6  2  0  0  0
  7  6  1  0  0  0
 25 22  1  0  0  0
 25 26  1  0  0  0
  6 15  1  0  0  0
 37 36  1  0  0  0
 28 26  1  0  0  0
 28 30  1  0  0  0
 26 27  2  0  0  0
 15 16  1  0  0  0
 15 20  1  0  0  0
 36 30  2  0  0  0
 36 35  1  0  0  0
 30 31  1  0  0  0
 16 17  1  0  0  0
 20 19  1  0  0  0
 35 34  2  0  0  0
 31 32  1  0  0  0
 31 33  2  0  0  0
 17 18  1  0  0  0
 19 18  1  0  0  0
 34 33  1  0  0  0
  1  2  1  0  0  0
 28 29  1  0  0  0
M  END
> <minimizedAffinity>
-8.40156

$$$$
5NKB_8ZT_A_1001


 37 41  0  0  0  0  0  0  0  0999 V2000
  -87.8730  -16.9808    7.4649 N   0  0  0  0  0  0  0  0  0  0  0  0
  -88.3948  -16.8587    6.6391 H   0  0  0  0  0  0  0  0  0  0  0  0
  -90.3227  -18.5563    9.6190 C   0  0  0  0  0  0  0  0  0  0  0  0
  -89.5425  -18.2260    8.5026 C   0  0  0  0  0  0  0  0  0  0  0  0
  -90.0864  -17.8999   10.8118 C   0  0  0  0  0  0  0  0  0  0  0  0
  -89.1014  -16.9298   10.9562 C   0  0  0  0  0  0  0  0  0  0  0  0
  -88.3434  -16.5943    9.8530 C   0  0  0  0  0  0  0  0  0  0  0  0
  -88.5585  -17.2149    8.6254 C   0  0  0  0  0  0  0  0  0  0  0  0
  -91.1447  -20.6183    8.6032 C   0  0  0  0  0  0  0  0  0  0  0  0
  -92.4636  -21.3687    8.3521 C   0  0  0  0  0  0  0  0  0  0  0  0
  -92.9737  -21.7682    9.6419 O   0  0  0  0  0  0  0  0  0  0  0  0
  -93.4600  -20.5407   10.2527 C   0  0  0  0  0  0  0  0  0  0  0  0
  -92.2502  -19.6838   10.6562 C   0  0  0  0  0  0  0  0  0  0  0  0
  -91.2741  -19.5469    9.5587 N   0  0  0  0  0  0  0  0  0  0  0  0
  -88.8834  -16.2792   12.1253 N   0  0  0  0  0  0  0  0  0  0  0  0
  -88.3815  -14.9142   12.0962 C   0  0  0  0  0  0  0  0  0  0  0  0
  -88.5034  -14.2164   13.4075 C   0  0  0  0  0  0  0  0  0  0  0  0
  -88.0552  -15.0825   14.4658 O   0  0  0  0  0  0  0  0  0  0  0  0
  -88.9181  -16.2419   14.6098 C   0  0  0  0  0  0  0  0  0  0  0  0
  -88.8768  -17.0860   13.3429 C   0  0  0  0  0  0  0  0  0  0  0  0
  -86.5355  -16.9068    7.3785 C   0  0  0  0  0  0  0  0  0  0  0  0
  -85.5744  -16.0646    6.2231 S   0  0  0  0  0  0  0  0  0  0  0  0
  -85.7012  -17.4297    8.3030 N   0  0  0  0  0  0  0  0  0  0  0  0
  -84.3875  -17.1885    8.0394 C   0  0  0  0  0  0  0  0  0  0  0  0
  -84.0877  -16.4433    6.9362 C   0  0  0  0  0  0  0  0  0  0  0  0
  -82.8778  -16.0273    6.4047 C   0  0  0  0  0  0  0  0  0  0  0  0
  -82.8513  -15.7169    5.2094 O   0  0  0  0  0  0  0  0  0  0  0  0
  -81.7564  -15.9199    7.1691 N   0  0  0  0  0  0  0  0  0  0  0  0
  -81.7921  -16.1675    8.1213 H   0  0  0  0  0  0  0  0  0  0  0  0
  -80.5503  -15.4609    6.6179 C   0  0  0  0  0  0  0  0  0  0  0  0
  -79.7159  -16.3093    5.8990 C   0  0  0  0  0  0  0  0  0  0  0  0
  -80.0645  -18.0031    5.6860 Cl  0  0  0  0  0  0  0  0  0  0  0  0
  -78.5336  -15.7822    5.3543 C   0  0  0  0  0  0  0  0  0  0  0  0
  -78.1872  -14.4383    5.5196 C   0  0  0  0  0  0  0  0  0  0  0  0
  -79.0466  -13.5576    6.2072 C   0  0  0  0  0  0  0  0  0  0  0  0
  -80.2216  -14.1110    6.7549 C   0  0  0  0  0  0  0  0  0  0  0  0
  -81.1081  -13.2657    7.4510 C   0  0  0  0  0  0  0  0  0  0  0  0
 10 11  1  0  0  0
 10  9  1  0  0  0
 11 12  1  0  0  0
  9 14  1  0  0  0
 12 13  1  0  0  0
 14 13  1  0  0  0
 14  3  1  0  0  0
  4  3  2  0  0  0
  4  8  1  0  0  0
  3  5  1  0  0  0
  1  8  1  0  0  0
  1 21  1  0  0  0
 23 21  2  0  0  0
 23 24  1  0  0  0
  8  7  2  0  0  0
 21 22  1  0  0  0
 24 25  2  0  0  0
  5  6  2  0  0  0
  7  6  1  0  0  0
 25 22  1  0  0  0
 25 26  1  0  0  0
  6 15  1  0  0  0
 37 36  1  0  0  0
 28 26  1  0  0  0
 28 30  1  0  0  0
 26 27  2  0  0  0
 15 16  1  0  0  0
 15 20  1  0  0  0
 36 30  2  0  0  0
 36 35  1  0  0  0
 30 31  1  0  0  0
 16 17  1  0  0  0
 20 19  1  0  0  0
 35 34  2  0  0  0
 31 32  1  0  0  0
 31 33  2  0  0  0
 17 18  1  0  0  0
 19 18  1  0  0  0
 34 33  1  0  0  0
  1  2  1  0  0  0
 28 29  1  0  0  0
M  END
> <minimizedAffinity>
-8.34310

$$$$
5NKB_8ZT_A_1001


 37 41  0  0  0  0  0  0  0  0999 V2000
  -83.7331  -17.2671    8.1629 N   0  0  0  0  0  0  0  0  0  0  0  0
  -83.2982  -18.1052    7.8842 H   0  0  0  0  0  0  0  0  0  0  0  0
  -82.2723  -14.7441   10.3132 C   0  0  0  0  0  0  0  0  0  0  0  0
  -83.0370  -15.8233    9.8497 C   0  0  0  0  0  0  0  0  0  0  0  0
  -81.4188  -14.1081    9.4319 C   0  0  0  0  0  0  0  0  0  0  0  0
  -81.2786  -14.4971    8.1048 C   0  0  0  0  0  0  0  0  0  0  0  0
  -82.0425  -15.5503    7.6449 C   0  0  0  0  0  0  0  0  0  0  0  0
  -82.9306  -16.2090    8.4911 C   0  0  0  0  0  0  0  0  0  0  0  0
  -81.3754  -13.3794   12.1276 C   0  0  0  0  0  0  0  0  0  0  0  0
  -81.2658  -13.3760   13.6618 C   0  0  0  0  0  0  0  0  0  0  0  0
  -82.6054  -13.2336   14.1800 O   0  0  0  0  0  0  0  0  0  0  0  0
  -83.2401  -14.5216   13.9458 C   0  0  0  0  0  0  0  0  0  0  0  0
  -83.5101  -14.6660   12.4402 C   0  0  0  0  0  0  0  0  0  0  0  0
  -82.3210  -14.3457   11.6280 N   0  0  0  0  0  0  0  0  0  0  0  0
  -80.4500  -13.8606    7.2412 N   0  0  0  0  0  0  0  0  0  0  0  0
  -79.2476  -14.5375    6.7803 C   0  0  0  0  0  0  0  0  0  0  0  0
  -78.6168  -13.8759    5.6031 C   0  0  0  0  0  0  0  0  0  0  0  0
  -78.5567  -12.4538    5.8156 O   0  0  0  0  0  0  0  0  0  0  0  0
  -79.8831  -11.8650    5.8732 C   0  0  0  0  0  0  0  0  0  0  0  0
  -80.6538  -12.4255    7.0612 C   0  0  0  0  0  0  0  0  0  0  0  0
  -85.0746  -17.2375    8.1959 C   0  0  0  0  0  0  0  0  0  0  0  0
  -86.1334  -17.7318    9.4620 S   0  0  0  0  0  0  0  0  0  0  0  0
  -85.8299  -16.6860    7.2215 N   0  0  0  0  0  0  0  0  0  0  0  0
  -87.1640  -16.7204    7.4906 C   0  0  0  0  0  0  0  0  0  0  0  0
  -87.5574  -17.2530    8.6840 C   0  0  0  0  0  0  0  0  0  0  0  0
  -88.8107  -17.4285    9.2476 C   0  0  0  0  0  0  0  0  0  0  0  0
  -89.1056  -16.7300   10.2227 O   0  0  0  0  0  0  0  0  0  0  0  0
  -89.7135  -18.3074    8.7318 N   0  0  0  0  0  0  0  0  0  0  0  0
  -89.4668  -18.8558    7.9523 H   0  0  0  0  0  0  0  0  0  0  0  0
  -90.9910  -18.4421    9.2966 C   0  0  0  0  0  0  0  0  0  0  0  0
  -92.0504  -17.6414    8.8852 C   0  0  0  0  0  0  0  0  0  0  0  0
  -91.8621  -16.3786    7.6996 Cl  0  0  0  0  0  0  0  0  0  0  0  0
  -93.3093  -17.8416    9.4747 C   0  0  0  0  0  0  0  0  0  0  0  0
  -93.5123  -18.8189   10.4531 C   0  0  0  0  0  0  0  0  0  0  0  0
  -92.4575  -19.6674   10.8459 C   0  0  0  0  0  0  0  0  0  0  0  0
  -91.2007  -19.4406   10.2495 C   0  0  0  0  0  0  0  0  0  0  0  0
  -90.1186  -20.2658   10.6147 C   0  0  0  0  0  0  0  0  0  0  0  0
 10 11  1  0  0  0
 10  9  1  0  0  0
 11 12  1  0  0  0
  9 14  1  0  0  0
 12 13  1  0  0  0
 14 13  1  0  0  0
 14  3  1  0  0  0
  4  3  2  0  0  0
  4  8  1  0  0  0
  3  5  1  0  0  0
  1  8  1  0  0  0
  1 21  1  0  0  0
 23 21  2  0  0  0
 23 24  1  0  0  0
  8  7  2  0  0  0
 21 22  1  0  0  0
 24 25  2  0  0  0
  5  6  2  0  0  0
  7  6  1  0  0  0
 25 22  1  0  0  0
 25 26  1  0  0  0
  6 15  1  0  0  0
 37 36  1  0  0  0
 28 26  1  0  0  0
 28 30  1  0  0  0
 26 27  2  0  0  0
 15 16  1  0  0  0
 15 20  1  0  0  0
 36 30  2  0  0  0
 36 35  1  0  0  0
 30 31  1  0  0  0
 16 17  1  0  0  0
 20 19  1  0  0  0
 35 34  2  0  0  0
 31 32  1  0  0  0
 31 33  2  0  0  0
 17 18  1  0  0  0
 19 18  1  0  0  0
 34 33  1  0  0  0
  1  2  1  0  0  0
 28 29  1  0  0  0
M  END
> <minimizedAffinity>
-8.30143

$$$$
