2HA6_SCK_A_901


 20 19  0  0  0  0  0  0  0  0999 V2000
   30.1756   22.6173   10.9239 C   0  0  0  0  0  0  0  0  0  0  0  0
   29.0532   23.8135   12.6645 O   0  0  0  0  0  0  0  0  0  0  0  0
   29.7278   22.8280   12.3573 C   0  0  0  0  0  0  0  0  0  0  0  0
   30.0998   21.8932   13.4200 O   0  0  0  0  0  0  0  0  0  0  0  0
   29.6461   21.9651   14.7755 C   0  0  0  0  0  0  0  0  0  0  0  0
   30.8290   21.7913   15.7446 C   0  0  0  0  0  0  0  0  0  0  0  0
   31.4429   23.0709   16.1257 N   0  0  0  0  0  0  0  0  0  0  0  0
   32.0055   22.9699   17.4951 C   0  0  0  0  0  0  0  0  0  0  0  0
   32.5492   23.3660   15.1927 C   0  0  0  0  0  0  0  0  0  0  0  0
   30.3937   24.1101   16.1027 C   0  0  0  0  0  0  0  0  0  0  0  0
   29.3877   21.4777   10.2453 C   0  0  0  0  0  0  0  0  0  0  0  0
   29.9101   20.1533   10.7317 C   0  0  0  0  0  0  0  0  0  0  0  0
   31.0716   19.8589   10.4702 O   0  0  0  0  0  0  0  0  0  0  0  0
   29.0429   19.2336   11.4621 O   0  0  0  0  0  0  0  0  0  0  0  0
   27.7810   19.6823   12.0074 C   0  0  0  0  0  0  0  0  0  0  0  0
   27.0951   18.6682   12.9382 C   0  0  0  0  0  0  0  0  0  0  0  0
   26.4181   19.2845   14.0981 N   0  0  0  0  0  0  0  0  0  0  0  0
   25.0984   18.6675   14.2591 C   0  0  0  0  0  0  0  0  0  0  0  0
   27.2124   19.1037   15.3210 C   0  0  0  0  0  0  0  0  0  0  0  0
   26.2567   20.7236   13.8588 C   0  0  0  0  0  0  0  0  0  0  0  0
  2  3  2  0  0  0
  3  4  1  0  0  0
  3  1  1  0  0  0
  4  5  1  0  0  0
  5  6  1  0  0  0
  6  7  1  0  0  0
  7  8  1  0  0  0
  7  9  1  0  0  0
  7 10  1  0  0  0
  1 11  1  0  0  0
 11 12  1  0  0  0
 12 13  2  0  0  0
 12 14  1  0  0  0
 14 15  1  0  0  0
 15 16  1  0  0  0
 16 17  1  0  0  0
 17 18  1  0  0  0
 17 19  1  0  0  0
 17 20  1  0  0  0
M  CHG 1   7   1
M  CHG 1  17   1
M  END
> <minimizedAffinity>
-6.38666

$$$$
2HA6_SCK_A_901


 20 19  0  0  0  0  0  0  0  0999 V2000
   28.9266   21.1173   10.9464 C   0  0  0  0  0  0  0  0  0  0  0  0
   30.7991   19.6292   10.9457 O   0  0  0  0  0  0  0  0  0  0  0  0
   29.6061   19.7883   11.2144 C   0  0  0  0  0  0  0  0  0  0  0  0
   28.8707   18.6516   11.7699 O   0  0  0  0  0  0  0  0  0  0  0  0
   28.5246   18.4899   13.1491 C   0  0  0  0  0  0  0  0  0  0  0  0
   27.0076   18.2775   13.2978 C   0  0  0  0  0  0  0  0  0  0  0  0
   26.4133   19.1358   14.3319 N   0  0  0  0  0  0  0  0  0  0  0  0
   25.1772   18.5056   14.8584 C   0  0  0  0  0  0  0  0  0  0  0  0
   27.3722   19.2736   15.4468 C   0  0  0  0  0  0  0  0  0  0  0  0
   26.0761   20.4345   13.7147 C   0  0  0  0  0  0  0  0  0  0  0  0
   29.7924   22.3028   11.4206 C   0  0  0  0  0  0  0  0  0  0  0  0
   29.2830   22.7907   12.7495 C   0  0  0  0  0  0  0  0  0  0  0  0
   29.0070   23.9805   12.8612 O   0  0  0  0  0  0  0  0  0  0  0  0
   29.1577   21.8759   13.8804 O   0  0  0  0  0  0  0  0  0  0  0  0
   30.3321   21.3432   14.5347 C   0  0  0  0  0  0  0  0  0  0  0  0
   30.4864   21.7661   16.0053 C   0  0  0  0  0  0  0  0  0  0  0  0
   31.2514   23.0167   16.1904 N   0  0  0  0  0  0  0  0  0  0  0  0
   31.9878   22.9387   17.4552 C   0  0  0  0  0  0  0  0  0  0  0  0
   32.1848   23.2258   15.0750 C   0  0  0  0  0  0  0  0  0  0  0  0
   30.3229   24.1524   16.2369 C   0  0  0  0  0  0  0  0  0  0  0  0
  2  3  2  0  0  0
  3  4  1  0  0  0
  3  1  1  0  0  0
  4  5  1  0  0  0
  5  6  1  0  0  0
  6  7  1  0  0  0
  7  8  1  0  0  0
  7  9  1  0  0  0
  7 10  1  0  0  0
  1 11  1  0  0  0
 11 12  1  0  0  0
 12 13  2  0  0  0
 12 14  1  0  0  0
 14 15  1  0  0  0
 15 16  1  0  0  0
 16 17  1  0  0  0
 17 18  1  0  0  0
 17 19  1  0  0  0
 17 20  1  0  0  0
M  CHG 1   7   1
M  CHG 1  17   1
M  END
> <minimizedAffinity>
-6.24126

$$$$
2HA6_SCK_A_901


 20 19  0  0  0  0  0  0  0  0999 V2000
   29.2736   21.5194   10.2718 C   0  0  0  0  0  0  0  0  0  0  0  0
   31.2243   20.1498   10.0723 O   0  0  0  0  0  0  0  0  0  0  0  0
   30.6045   21.1316    9.6568 C   0  0  0  0  0  0  0  0  0  0  0  0
   31.2064   21.9167    8.5786 O   0  0  0  0  0  0  0  0  0  0  0  0
   32.4909   22.5452    8.6362 C   0  0  0  0  0  0  0  0  0  0  0  0
   33.2927   22.2402    7.3585 C   0  0  0  0  0  0  0  0  0  0  0  0
   34.1831   21.0811    7.5106 N   0  0  0  0  0  0  0  0  0  0  0  0
   33.5338   19.8715    6.9474 C   0  0  0  0  0  0  0  0  0  0  0  0
   35.4266   21.3321    6.7542 C   0  0  0  0  0  0  0  0  0  0  0  0
   34.4316   20.8772    8.9521 C   0  0  0  0  0  0  0  0  0  0  0  0
   28.7739   20.4488   11.2638 C   0  0  0  0  0  0  0  0  0  0  0  0
   28.9103   20.9699   12.6686 C   0  0  0  0  0  0  0  0  0  0  0  0
   29.9928   20.8407   13.2304 O   0  0  0  0  0  0  0  0  0  0  0  0
   27.7720   21.5782   13.3510 O   0  0  0  0  0  0  0  0  0  0  0  0
   26.7096   20.7595   13.8915 C   0  0  0  0  0  0  0  0  0  0  0  0
   27.1526   19.8023   15.0108 C   0  0  0  0  0  0  0  0  0  0  0  0
   26.5661   18.4499   14.9073 N   0  0  0  0  0  0  0  0  0  0  0  0
   26.8697   17.7069   16.1337 C   0  0  0  0  0  0  0  0  0  0  0  0
   25.1120   18.5267   14.7106 C   0  0  0  0  0  0  0  0  0  0  0  0
   27.1532   17.7519   13.7574 C   0  0  0  0  0  0  0  0  0  0  0  0
  2  3  2  0  0  0
  3  4  1  0  0  0
  3  1  1  0  0  0
  4  5  1  0  0  0
  5  6  1  0  0  0
  6  7  1  0  0  0
  7  8  1  0  0  0
  7  9  1  0  0  0
  7 10  1  0  0  0
  1 11  1  0  0  0
 11 12  1  0  0  0
 12 13  2  0  0  0
 12 14  1  0  0  0
 14 15  1  0  0  0
 15 16  1  0  0  0
 16 17  1  0  0  0
 17 18  1  0  0  0
 17 19  1  0  0  0
 17 20  1  0  0  0
M  CHG 1   7   1
M  CHG 1  17   1
M  END
> <minimizedAffinity>
-6.21528

$$$$
2HA6_SCK_A_901


 20 19  0  0  0  0  0  0  0  0999 V2000
   29.9628   22.0365   10.1514 C   0  0  0  0  0  0  0  0  0  0  0  0
   30.9297   21.7516    7.9825 O   0  0  0  0  0  0  0  0  0  0  0  0
   31.0075   21.5063    9.1885 C   0  0  0  0  0  0  0  0  0  0  0  0
   32.1175   20.6710    9.6483 O   0  0  0  0  0  0  0  0  0  0  0  0
   33.4113   20.6132    9.0392 C   0  0  0  0  0  0  0  0  0  0  0  0
   34.2012   21.8994    9.3397 C   0  0  0  0  0  0  0  0  0  0  0  0
   34.8222   22.4772    8.1397 N   0  0  0  0  0  0  0  0  0  0  0  0
   36.1734   22.9927    8.4721 C   0  0  0  0  0  0  0  0  0  0  0  0
   34.9700   21.4175    7.1216 C   0  0  0  0  0  0  0  0  0  0  0  0
   33.9736   23.5924    7.6735 C   0  0  0  0  0  0  0  0  0  0  0  0
   30.5709   23.0424   11.1505 C   0  0  0  0  0  0  0  0  0  0  0  0
   29.8218   22.9647   12.4530 C   0  0  0  0  0  0  0  0  0  0  0  0
   29.0666   23.8871   12.7412 O   0  0  0  0  0  0  0  0  0  0  0  0
   30.0205   21.8382   13.3601 O   0  0  0  0  0  0  0  0  0  0  0  0
   29.0148   20.8074   13.4910 C   0  0  0  0  0  0  0  0  0  0  0  0
   29.5647   19.3725   13.4305 C   0  0  0  0  0  0  0  0  0  0  0  0
   29.0289   18.5741   12.3085 N   0  0  0  0  0  0  0  0  0  0  0  0
   30.1135   18.3007   11.3613 C   0  0  0  0  0  0  0  0  0  0  0  0
   28.4539   17.3125   12.7952 C   0  0  0  0  0  0  0  0  0  0  0  0
   27.9717   19.3346   11.6316 C   0  0  0  0  0  0  0  0  0  0  0  0
  2  3  2  0  0  0
  3  4  1  0  0  0
  3  1  1  0  0  0
  4  5  1  0  0  0
  5  6  1  0  0  0
  6  7  1  0  0  0
  7  8  1  0  0  0
  7  9  1  0  0  0
  7 10  1  0  0  0
  1 11  1  0  0  0
 11 12  1  0  0  0
 12 13  2  0  0  0
 12 14  1  0  0  0
 14 15  1  0  0  0
 15 16  1  0  0  0
 16 17  1  0  0  0
 17 18  1  0  0  0
 17 19  1  0  0  0
 17 20  1  0  0  0
M  CHG 1   7   1
M  CHG 1  17   1
M  END
> <minimizedAffinity>
-6.15739

$$$$
2HA6_SCK_A_901


 20 19  0  0  0  0  0  0  0  0999 V2000
   28.0133   19.4989   16.1674 C   0  0  0  0  0  0  0  0  0  0  0  0
   29.3518   19.4541   18.1491 O   0  0  0  0  0  0  0  0  0  0  0  0
   29.2568   19.8179   16.9747 C   0  0  0  0  0  0  0  0  0  0  0  0
   30.3642   20.5845   16.4025 O   0  0  0  0  0  0  0  0  0  0  0  0
   30.3796   22.0051   16.2304 C   0  0  0  0  0  0  0  0  0  0  0  0
   30.7092   22.3629   14.7702 C   0  0  0  0  0  0  0  0  0  0  0  0
   29.6069   23.0614   14.0945 N   0  0  0  0  0  0  0  0  0  0  0  0
   28.3843   22.2211   14.1281 C   0  0  0  0  0  0  0  0  0  0  0  0
   29.3237   24.3177   14.8176 C   0  0  0  0  0  0  0  0  0  0  0  0
   30.0019   23.2956   12.6908 C   0  0  0  0  0  0  0  0  0  0  0  0
   27.3750   18.1666   16.6119 C   0  0  0  0  0  0  0  0  0  0  0  0
   26.7671   17.4832   15.4173 C   0  0  0  0  0  0  0  0  0  0  0  0
   25.5679   17.6371   15.2116 O   0  0  0  0  0  0  0  0  0  0  0  0
   27.5798   16.6329   14.5524 O   0  0  0  0  0  0  0  0  0  0  0  0
   27.7240   16.9321   13.1450 C   0  0  0  0  0  0  0  0  0  0  0  0
   27.8474   18.4311   12.8240 C   0  0  0  0  0  0  0  0  0  0  0  0
   29.1061   18.7941   12.1402 N   0  0  0  0  0  0  0  0  0  0  0  0
   29.6091   17.6210   11.4197 C   0  0  0  0  0  0  0  0  0  0  0  0
   28.8883   19.9060   11.2046 C   0  0  0  0  0  0  0  0  0  0  0  0
   30.0974   19.2148   13.1374 C   0  0  0  0  0  0  0  0  0  0  0  0
  2  3  2  0  0  0
  3  4  1  0  0  0
  3  1  1  0  0  0
  4  5  1  0  0  0
  5  6  1  0  0  0
  6  7  1  0  0  0
  7  8  1  0  0  0
  7  9  1  0  0  0
  7 10  1  0  0  0
  1 11  1  0  0  0
 11 12  1  0  0  0
 12 13  2  0  0  0
 12 14  1  0  0  0
 14 15  1  0  0  0
 15 16  1  0  0  0
 16 17  1  0  0  0
 17 18  1  0  0  0
 17 19  1  0  0  0
 17 20  1  0  0  0
M  CHG 1   7   1
M  CHG 1  17   1
M  END
> <minimizedAffinity>
-6.12984

$$$$
2HA6_SCK_A_901


 20 19  0  0  0  0  0  0  0  0999 V2000
   30.2583   22.8951   10.9816 C   0  0  0  0  0  0  0  0  0  0  0  0
   29.0484   23.7944   12.8385 O   0  0  0  0  0  0  0  0  0  0  0  0
   29.7431   22.8711   12.4077 C   0  0  0  0  0  0  0  0  0  0  0  0
   30.0717   21.7761   13.3212 O   0  0  0  0  0  0  0  0  0  0  0  0
   29.1294   21.0770   14.1406 C   0  0  0  0  0  0  0  0  0  0  0  0
   28.7349   19.7432   13.4819 C   0  0  0  0  0  0  0  0  0  0  0  0
   27.2991   19.6625   13.1796 N   0  0  0  0  0  0  0  0  0  0  0  0
   27.0883   19.7565   11.7137 C   0  0  0  0  0  0  0  0  0  0  0  0
   26.7880   18.3543   13.6366 C   0  0  0  0  0  0  0  0  0  0  0  0
   26.6240   20.7951   13.8451 C   0  0  0  0  0  0  0  0  0  0  0  0
   29.6319   21.7692   10.1332 C   0  0  0  0  0  0  0  0  0  0  0  0
   30.6917   20.7591    9.7865 C   0  0  0  0  0  0  0  0  0  0  0  0
   30.9307   19.8706   10.5974 O   0  0  0  0  0  0  0  0  0  0  0  0
   31.4361   20.8608    8.5347 O   0  0  0  0  0  0  0  0  0  0  0  0
   32.8575   20.5977    8.4957 C   0  0  0  0  0  0  0  0  0  0  0  0
   33.7234   21.6899    9.1457 C   0  0  0  0  0  0  0  0  0  0  0  0
   34.6848   22.3213    8.2180 N   0  0  0  0  0  0  0  0  0  0  0  0
   34.0122   23.4148    7.5108 C   0  0  0  0  0  0  0  0  0  0  0  0
   35.8521   22.8347    8.9479 C   0  0  0  0  0  0  0  0  0  0  0  0
   35.1480   21.3247    7.2451 C   0  0  0  0  0  0  0  0  0  0  0  0
  2  3  2  0  0  0
  3  4  1  0  0  0
  3  1  1  0  0  0
  4  5  1  0  0  0
  5  6  1  0  0  0
  6  7  1  0  0  0
  7  8  1  0  0  0
  7  9  1  0  0  0
  7 10  1  0  0  0
  1 11  1  0  0  0
 11 12  1  0  0  0
 12 13  2  0  0  0
 12 14  1  0  0  0
 14 15  1  0  0  0
 15 16  1  0  0  0
 16 17  1  0  0  0
 17 18  1  0  0  0
 17 19  1  0  0  0
 17 20  1  0  0  0
M  CHG 1   7   1
M  CHG 1  17   1
M  END
> <minimizedAffinity>
-6.10980

$$$$
2HA6_SCK_A_901


 20 19  0  0  0  0  0  0  0  0999 V2000
   29.6950   21.6877   10.1820 C   0  0  0  0  0  0  0  0  0  0  0  0
   30.7282   19.6463   10.8788 O   0  0  0  0  0  0  0  0  0  0  0  0
   30.6619   20.5305   10.0217 C   0  0  0  0  0  0  0  0  0  0  0  0
   31.5600   20.4381    8.8701 O   0  0  0  0  0  0  0  0  0  0  0  0
   32.9404   20.8155    8.8705 C   0  0  0  0  0  0  0  0  0  0  0  0
   33.5602   20.5757    7.4824 C   0  0  0  0  0  0  0  0  0  0  0  0
   34.0921   21.8053    6.8785 N   0  0  0  0  0  0  0  0  0  0  0  0
   33.6009   22.9870    7.6297 C   0  0  0  0  0  0  0  0  0  0  0  0
   35.5662   21.7816    6.9676 C   0  0  0  0  0  0  0  0  0  0  0  0
   33.6128   21.8779    5.4834 C   0  0  0  0  0  0  0  0  0  0  0  0
   30.3063   22.8247   11.0267 C   0  0  0  0  0  0  0  0  0  0  0  0
   29.6543   22.8430   12.3825 C   0  0  0  0  0  0  0  0  0  0  0  0
   29.0791   23.8678   12.7334 O   0  0  0  0  0  0  0  0  0  0  0  0
   29.7390   21.6832   13.2651 O   0  0  0  0  0  0  0  0  0  0  0  0
   29.6358   21.8359   14.6994 C   0  0  0  0  0  0  0  0  0  0  0  0
   30.9768   21.7402   15.4461 C   0  0  0  0  0  0  0  0  0  0  0  0
   31.4751   23.0376   15.9483 N   0  0  0  0  0  0  0  0  0  0  0  0
   30.3872   24.0180   15.8885 C   0  0  0  0  0  0  0  0  0  0  0  0
   31.9634   22.9089   17.3281 C   0  0  0  0  0  0  0  0  0  0  0  0
   32.5864   23.4916   15.1038 C   0  0  0  0  0  0  0  0  0  0  0  0
  2  3  2  0  0  0
  3  4  1  0  0  0
  3  1  1  0  0  0
  4  5  1  0  0  0
  5  6  1  0  0  0
  6  7  1  0  0  0
  7  8  1  0  0  0
  7  9  1  0  0  0
  7 10  1  0  0  0
  1 11  1  0  0  0
 11 12  1  0  0  0
 12 13  2  0  0  0
 12 14  1  0  0  0
 14 15  1  0  0  0
 15 16  1  0  0  0
 16 17  1  0  0  0
 17 18  1  0  0  0
 17 19  1  0  0  0
 17 20  1  0  0  0
M  CHG 1   7   1
M  CHG 1  17   1
M  END
> <minimizedAffinity>
-6.10428

$$$$
2HA6_SCK_A_901


 20 19  0  0  0  0  0  0  0  0999 V2000
   28.8503   20.7406   11.1405 C   0  0  0  0  0  0  0  0  0  0  0  0
   30.0132   20.9595   13.2190 O   0  0  0  0  0  0  0  0  0  0  0  0
   28.9491   21.0969   12.6112 C   0  0  0  0  0  0  0  0  0  0  0  0
   27.7900   21.5850   13.3593 O   0  0  0  0  0  0  0  0  0  0  0  0
   26.7114   20.7705   13.8297 C   0  0  0  0  0  0  0  0  0  0  0  0
   27.1930   19.8497   14.9650 C   0  0  0  0  0  0  0  0  0  0  0  0
   26.6358   18.4932   14.8703 N   0  0  0  0  0  0  0  0  0  0  0  0
   26.8975   17.7536   16.1298 C   0  0  0  0  0  0  0  0  0  0  0  0
   25.1734   18.5899   14.6869 C   0  0  0  0  0  0  0  0  0  0  0  0
   27.3000   17.7998   13.7481 C   0  0  0  0  0  0  0  0  0  0  0  0
   29.4207   21.8606   10.2461 C   0  0  0  0  0  0  0  0  0  0  0  0
   30.6052   21.3332    9.4828 C   0  0  0  0  0  0  0  0  0  0  0  0
   31.2682   20.4362    9.9924 O   0  0  0  0  0  0  0  0  0  0  0  0
   30.9708   21.9025    8.1891 O   0  0  0  0  0  0  0  0  0  0  0  0
   32.0610   21.3475    7.4181 C   0  0  0  0  0  0  0  0  0  0  0  0
   33.3258   22.2218    7.3864 C   0  0  0  0  0  0  0  0  0  0  0  0
   34.5788   21.4680    7.5997 N   0  0  0  0  0  0  0  0  0  0  0  0
   35.5865   22.3730    8.1597 C   0  0  0  0  0  0  0  0  0  0  0  0
   34.3565   20.3354    8.5090 C   0  0  0  0  0  0  0  0  0  0  0  0
   35.0558   20.9438    6.3144 C   0  0  0  0  0  0  0  0  0  0  0  0
  2  3  2  0  0  0
  3  4  1  0  0  0
  3  1  1  0  0  0
  4  5  1  0  0  0
  5  6  1  0  0  0
  6  7  1  0  0  0
  7  8  1  0  0  0
  7  9  1  0  0  0
  7 10  1  0  0  0
  1 11  1  0  0  0
 11 12  1  0  0  0
 12 13  2  0  0  0
 12 14  1  0  0  0
 14 15  1  0  0  0
 15 16  1  0  0  0
 16 17  1  0  0  0
 17 18  1  0  0  0
 17 19  1  0  0  0
 17 20  1  0  0  0
M  CHG 1   7   1
M  CHG 1  17   1
M  END
> <minimizedAffinity>
-6.08374

$$$$
2HA6_SCK_A_901


 20 19  0  0  0  0  0  0  0  0999 V2000
   29.3795   21.2767   10.6957 C   0  0  0  0  0  0  0  0  0  0  0  0
   30.8189   19.3867   10.9723 O   0  0  0  0  0  0  0  0  0  0  0  0
   30.4963   20.3451   10.2664 C   0  0  0  0  0  0  0  0  0  0  0  0
   31.2409   20.5644    9.0258 O   0  0  0  0  0  0  0  0  0  0  0  0
   32.6244   20.9221    8.9485 C   0  0  0  0  0  0  0  0  0  0  0  0
   32.8664   21.8656    7.7569 C   0  0  0  0  0  0  0  0  0  0  0  0
   33.9147   21.3770    6.8502 N   0  0  0  0  0  0  0  0  0  0  0  0
   33.7598   19.9156    6.6446 C   0  0  0  0  0  0  0  0  0  0  0  0
   33.7639   22.0458    5.5421 C   0  0  0  0  0  0  0  0  0  0  0  0
   35.2258   21.6475    7.4739 C   0  0  0  0  0  0  0  0  0  0  0  0
   29.9188   22.6712   11.0757 C   0  0  0  0  0  0  0  0  0  0  0  0
   29.6803   22.9146   12.5411 C   0  0  0  0  0  0  0  0  0  0  0  0
   29.0829   23.9347   12.8679 O   0  0  0  0  0  0  0  0  0  0  0  0
   30.1803   21.9773   13.5426 O   0  0  0  0  0  0  0  0  0  0  0  0
   29.4474   21.7421   14.7668 C   0  0  0  0  0  0  0  0  0  0  0  0
   29.3271   20.2602   15.1600 C   0  0  0  0  0  0  0  0  0  0  0  0
   28.0944   19.6098   14.6691 N   0  0  0  0  0  0  0  0  0  0  0  0
   27.5594   18.7486   15.7275 C   0  0  0  0  0  0  0  0  0  0  0  0
   27.0945   20.6145   14.2821 C   0  0  0  0  0  0  0  0  0  0  0  0
   28.4113   18.7936   13.4911 C   0  0  0  0  0  0  0  0  0  0  0  0
  2  3  2  0  0  0
  3  4  1  0  0  0
  3  1  1  0  0  0
  4  5  1  0  0  0
  5  6  1  0  0  0
  6  7  1  0  0  0
  7  8  1  0  0  0
  7  9  1  0  0  0
  7 10  1  0  0  0
  1 11  1  0  0  0
 11 12  1  0  0  0
 12 13  2  0  0  0
 12 14  1  0  0  0
 14 15  1  0  0  0
 15 16  1  0  0  0
 16 17  1  0  0  0
 17 18  1  0  0  0
 17 19  1  0  0  0
 17 20  1  0  0  0
M  CHG 1   7   1
M  CHG 1  17   1
M  END
> <minimizedAffinity>
-6.07685

$$$$
2HA6_SCK_A_901


 20 19  0  0  0  0  0  0  0  0999 V2000
   29.5223   21.6564   10.1044 C   0  0  0  0  0  0  0  0  0  0  0  0
   31.2980   23.0719   10.8556 O   0  0  0  0  0  0  0  0  0  0  0  0
   30.1188   22.7357   10.9871 C   0  0  0  0  0  0  0  0  0  0  0  0
   29.3317   23.3899   12.0330 O   0  0  0  0  0  0  0  0  0  0  0  0
   29.3733   23.0567   13.4242 C   0  0  0  0  0  0  0  0  0  0  0  0
   30.8220   23.1033   13.9416 C   0  0  0  0  0  0  0  0  0  0  0  0
   30.9013   23.0838   15.4089 N   0  0  0  0  0  0  0  0  0  0  0  0
   32.3117   23.2534   15.8380 C   0  0  0  0  0  0  0  0  0  0  0  0
   30.1166   24.2148   15.9442 C   0  0  0  0  0  0  0  0  0  0  0  0
   30.3999   21.7768   15.8799 C   0  0  0  0  0  0  0  0  0  0  0  0
   28.7090   20.6361   10.9274 C   0  0  0  0  0  0  0  0  0  0  0  0
   29.6505   19.7850   11.7354 C   0  0  0  0  0  0  0  0  0  0  0  0
   30.6480   19.3385   11.1789 O   0  0  0  0  0  0  0  0  0  0  0  0
   29.3603   19.4734   13.1319 O   0  0  0  0  0  0  0  0  0  0  0  0
   28.0433   19.7035   13.6829 C   0  0  0  0  0  0  0  0  0  0  0  0
   27.8351   19.1256   15.0928 C   0  0  0  0  0  0  0  0  0  0  0  0
   26.7780   18.0956   15.1663 N   0  0  0  0  0  0  0  0  0  0  0  0
   27.0529   17.0624   14.1638 C   0  0  0  0  0  0  0  0  0  0  0  0
   26.7269   17.4970   16.5072 C   0  0  0  0  0  0  0  0  0  0  0  0
   25.4768   18.7133   14.8846 C   0  0  0  0  0  0  0  0  0  0  0  0
  2  3  2  0  0  0
  3  4  1  0  0  0
  3  1  1  0  0  0
  4  5  1  0  0  0
  5  6  1  0  0  0
  6  7  1  0  0  0
  7  8  1  0  0  0
  7  9  1  0  0  0
  7 10  1  0  0  0
  1 11  1  0  0  0
 11 12  1  0  0  0
 12 13  2  0  0  0
 12 14  1  0  0  0
 14 15  1  0  0  0
 15 16  1  0  0  0
 16 17  1  0  0  0
 17 18  1  0  0  0
 17 19  1  0  0  0
 17 20  1  0  0  0
M  CHG 1   7   1
M  CHG 1  17   1
M  END
> <minimizedAffinity>
-6.07102

$$$$
