4WT2_3UD_A_201


 52 56  0  0  0  0  0  0  0  0999 V2000
    8.3607  -25.6488   -2.4624 C   0  0  0  0  0  0  0  0  0  0  0  0
    9.4274  -24.9509   -1.6083 C   0  0  0  0  0  0  0  0  0  0  0  0
    7.2428  -26.1527   -1.5348 C   0  0  0  0  0  0  0  0  0  0  0  0
    7.7014  -24.6563   -3.4323 C   0  0  0  0  0  0  0  0  0  0  0  0
    6.6356  -24.9775   -3.9534 O   0  0  0  0  0  0  0  0  0  0  0  0
    8.2977  -23.4345   -3.7735 N   0  0  0  0  0  0  0  0  0  0  0  0
    9.5588  -22.9675   -3.1730 C   0  0  0  0  0  0  0  0  0  0  0  0
   10.3587  -24.1094   -2.4824 C   0  0  0  0  0  0  0  0  0  0  0  0
   10.4922  -22.2907   -4.2089 C   0  0  0  0  0  0  0  0  0  0  0  0
   10.7275  -20.9186   -4.1825 C   0  0  0  0  0  0  0  0  0  0  0  0
   11.5547  -20.3646   -5.1453 C   0  0  0  0  0  0  0  0  0  0  0  0
   11.7727  -19.0436   -5.0755 F   0  0  0  0  0  0  0  0  0  0  0  0
   12.1317  -21.1551   -6.1354 C   0  0  0  0  0  0  0  0  0  0  0  0
   13.1303  -20.4555   -7.3714 Cl  0  0  0  0  0  0  0  0  0  0  0  0
   11.8958  -22.5166   -6.1728 C   0  0  0  0  0  0  0  0  0  0  0  0
   11.0684  -23.0761   -5.1995 C   0  0  0  0  0  0  0  0  0  0  0  0
   11.5210  -23.4541   -1.6825 C   0  0  0  0  0  0  0  0  0  0  0  0
   12.8253  -23.4795   -2.1919 C   0  0  0  0  0  0  0  0  0  0  0  0
   13.8613  -22.8834   -1.4936 C   0  0  0  0  0  0  0  0  0  0  0  0
   15.4620  -22.9307   -2.1522 Cl  0  0  0  0  0  0  0  0  0  0  0  0
   13.6258  -22.2428   -0.2887 C   0  0  0  0  0  0  0  0  0  0  0  0
   12.3384  -22.2157    0.2281 C   0  0  0  0  0  0  0  0  0  0  0  0
   11.2851  -22.8152   -0.4655 C   0  0  0  0  0  0  0  0  0  0  0  0
    8.9532  -26.7980   -3.2607 C   0  0  0  0  0  0  0  0  0  0  0  0
   10.1201  -28.3310   -1.7965 N   0  0  0  0  0  0  0  0  0  0  0  0
    9.0079  -28.1492   -2.5248 C   0  0  0  0  0  0  0  0  0  0  0  0
    8.0778  -28.9412   -2.6406 O   0  0  0  0  0  0  0  0  0  0  0  0
   10.7972  -27.6179   -1.8435 H   0  0  0  0  0  0  0  0  0  0  0  0
   11.2460  -31.6345   -0.5487 C   0  0  0  0  0  0  0  0  0  0  0  0
   10.9923  -30.5875   -1.4478 C   0  0  0  0  0  0  0  0  0  0  0  0
   10.9154  -31.4805    0.7984 C   0  0  0  0  0  0  0  0  0  0  0  0
   10.3369  -30.2982    1.2443 C   0  0  0  0  0  0  0  0  0  0  0  0
   10.0868  -29.2627    0.3456 C   0  0  0  0  0  0  0  0  0  0  0  0
   10.4115  -29.3895   -1.0037 C   0  0  0  0  0  0  0  0  0  0  0  0
   11.1824  -32.6065    1.7958 C   0  0  0  0  0  0  0  0  0  0  0  0
   12.3716  -32.8836    2.0524 O   0  0  0  0  0  0  0  0  0  0  0  0
   10.1938  -33.1819    2.2961 O   0  0  0  0  0  0  0  0  0  0  0  0
   13.0637  -32.4075    1.6372 H   0  0  0  0  0  0  0  0  0  0  0  0
   13.1299  -32.7509   -1.4672 C   0  0  0  0  0  0  0  0  0  0  0  0
   11.8117  -32.8179   -0.9429 O   0  0  0  0  0  0  0  0  0  0  0  0
    7.5566  -22.4479   -4.5861 C   0  0  0  0  0  0  0  0  0  0  0  0
    7.2690  -22.9177   -6.0092 C   0  0  0  0  0  0  0  0  0  0  0  0
    6.9679  -21.7714   -6.9801 C   0  0  0  0  0  0  0  0  0  0  0  0
    8.2960  -22.5198   -7.0677 C   0  0  0  0  0  0  0  0  0  0  0  0
    6.2517  -22.1031   -3.8387 C   0  0  0  0  0  0  0  0  0  0  0  0
    6.4400  -20.8960   -2.4808 S   0  0  0  0  0  0  0  0  0  0  0  0
    5.4112  -19.8376   -2.6487 O   0  0  0  0  0  0  0  0  0  0  0  0
    7.8304  -20.3379   -2.4514 O   0  0  0  0  0  0  0  0  0  0  0  0
    6.1952  -21.7618   -0.8972 C   0  0  0  0  0  0  0  0  0  0  0  0
    5.4137  -23.0458   -1.1745 C   0  0  0  0  0  0  0  0  0  0  0  0
    7.5866  -22.0587   -0.3230 C   0  0  0  0  0  0  0  0  0  0  0  0
    5.3955  -20.8389    0.0323 C   0  0  0  0  0  0  0  0  0  0  0  0
 12 11  1  0  0  0
 14 13  1  0  0  0
 44 43  1  0  0  0
 44 42  1  0  0  0
 43 42  1  0  0  0
 11 13  2  0  0  0
 11 10  1  0  0  0
 13 15  1  0  0  0
 42 41  1  0  0  0
 10  9  2  0  0  0
 15 16  2  0  0  0
 41  6  1  0  0  0
 41 45  1  0  0  0
  9 16  1  0  0  0
  9  7  1  0  0  0
  5  4  2  0  0  0
  6  4  1  0  0  0
  6  7  1  0  0  0
 45 46  1  0  0  0
 24 26  1  0  0  0
 24  1  1  0  0  0
  4  1  1  0  0  0
  7  8  1  0  0  0
 25 26  1  0  0  0
 25 34  1  0  0  0
 26 27  2  0  0  0
 33 34  2  0  0  0
 33 32  1  0  0  0
  8 17  1  0  0  0
  8  2  1  0  0  0
  1  2  1  0  0  0
  1  3  1  0  0  0
 34 30  1  0  0  0
 20 19  1  0  0  0
 18 17  2  0  0  0
 18 19  1  0  0  0
 32 31  2  0  0  0
 47 46  2  0  0  0
 50 49  1  0  0  0
 30 29  2  0  0  0
 46 49  1  0  0  0
 46 48  2  0  0  0
 37 35  2  0  0  0
 17 23  1  0  0  0
 31 29  1  0  0  0
 31 35  1  0  0  0
 19 21  2  0  0  0
 29 40  1  0  0  0
 35 36  1  0  0  0
 49 51  1  0  0  0
 49 52  1  0  0  0
 40 39  1  0  0  0
 23 22  2  0  0  0
 21 22  1  0  0  0
 36 38  1  0  0  0
 25 28  1  0  0  0
M  END
> <minimizedAffinity>
-10.71983

$$$$
4WT2_3UD_A_201


 52 56  0  0  0  0  0  0  0  0999 V2000
    8.2756  -25.4701   -2.1278 C   0  0  0  0  0  0  0  0  0  0  0  0
    9.3958  -24.7909   -1.3288 C   0  0  0  0  0  0  0  0  0  0  0  0
    7.2104  -25.9791   -1.1428 C   0  0  0  0  0  0  0  0  0  0  0  0
    7.5679  -24.4602   -3.0441 C   0  0  0  0  0  0  0  0  0  0  0  0
    6.4710  -24.7673   -3.5059 O   0  0  0  0  0  0  0  0  0  0  0  0
    8.1522  -23.2380   -3.4038 N   0  0  0  0  0  0  0  0  0  0  0  0
    9.4498  -22.7875   -2.8723 C   0  0  0  0  0  0  0  0  0  0  0  0
   10.2804  -23.9439   -2.2449 C   0  0  0  0  0  0  0  0  0  0  0  0
   10.3258  -22.1029   -3.9524 C   0  0  0  0  0  0  0  0  0  0  0  0
   10.8833  -22.8314   -4.9998 C   0  0  0  0  0  0  0  0  0  0  0  0
   11.6745  -22.1711   -5.9252 C   0  0  0  0  0  0  0  0  0  0  0  0
   12.1777  -22.9024   -6.9299 F   0  0  0  0  0  0  0  0  0  0  0  0
   11.9266  -20.8070   -5.8089 C   0  0  0  0  0  0  0  0  0  0  0  0
   12.9569  -19.9869   -6.9405 Cl  0  0  0  0  0  0  0  0  0  0  0  0
   11.3833  -20.0790   -4.7669 C   0  0  0  0  0  0  0  0  0  0  0  0
   10.5810  -20.7421   -3.8386 C   0  0  0  0  0  0  0  0  0  0  0  0
   11.4924  -23.3072   -1.5063 C   0  0  0  0  0  0  0  0  0  0  0  0
   12.7741  -23.3837   -2.0654 C   0  0  0  0  0  0  0  0  0  0  0  0
   13.8543  -22.8044   -1.4219 C   0  0  0  0  0  0  0  0  0  0  0  0
   15.4255  -22.9151   -2.1410 Cl  0  0  0  0  0  0  0  0  0  0  0  0
   13.6859  -22.1308   -0.2237 C   0  0  0  0  0  0  0  0  0  0  0  0
   12.4214  -22.0530    0.3420 C   0  0  0  0  0  0  0  0  0  0  0  0
   11.3241  -22.6350   -0.2961 C   0  0  0  0  0  0  0  0  0  0  0  0
    8.8117  -26.6123   -2.9745 C   0  0  0  0  0  0  0  0  0  0  0  0
    8.5741  -29.0149   -2.8102 N   0  0  0  0  0  0  0  0  0  0  0  0
    9.0792  -27.9240   -2.2141 C   0  0  0  0  0  0  0  0  0  0  0  0
    9.7077  -27.8971   -1.1605 O   0  0  0  0  0  0  0  0  0  0  0  0
    8.0523  -28.8647   -3.6314 H   0  0  0  0  0  0  0  0  0  0  0  0
    9.9420  -32.2342   -1.5844 C   0  0  0  0  0  0  0  0  0  0  0  0
    9.9056  -30.8873   -1.9761 C   0  0  0  0  0  0  0  0  0  0  0  0
    8.7724  -32.9945   -1.6231 C   0  0  0  0  0  0  0  0  0  0  0  0
    7.5807  -32.4203   -2.0490 C   0  0  0  0  0  0  0  0  0  0  0  0
    7.5517  -31.0821   -2.4376 C   0  0  0  0  0  0  0  0  0  0  0  0
    8.7047  -30.3002   -2.4039 C   0  0  0  0  0  0  0  0  0  0  0  0
    8.7877  -34.4628   -1.2013 C   0  0  0  0  0  0  0  0  0  0  0  0
    9.0769  -34.7221   -0.0155 O   0  0  0  0  0  0  0  0  0  0  0  0
    8.5084  -35.3162   -2.0686 O   0  0  0  0  0  0  0  0  0  0  0  0
    9.2760  -34.0274    0.5809 H   0  0  0  0  0  0  0  0  0  0  0  0
   11.7274  -32.2834   -0.0194 C   0  0  0  0  0  0  0  0  0  0  0  0
   11.0934  -32.8430   -1.1603 O   0  0  0  0  0  0  0  0  0  0  0  0
    7.3720  -22.2356   -4.1584 C   0  0  0  0  0  0  0  0  0  0  0  0
    6.9135  -22.7214   -5.5304 C   0  0  0  0  0  0  0  0  0  0  0  0
    7.3559  -21.8090   -6.6789 C   0  0  0  0  0  0  0  0  0  0  0  0
    8.0170  -23.1719   -6.4860 C   0  0  0  0  0  0  0  0  0  0  0  0
    6.1709  -21.8155   -3.2861 C   0  0  0  0  0  0  0  0  0  0  0  0
    6.6097  -20.9347   -1.7472 S   0  0  0  0  0  0  0  0  0  0  0  0
    7.5138  -19.8080   -2.0937 O   0  0  0  0  0  0  0  0  0  0  0  0
    7.2243  -21.8718   -0.7523 O   0  0  0  0  0  0  0  0  0  0  0  0
    5.0814  -20.3000   -0.9863 C   0  0  0  0  0  0  0  0  0  0  0  0
    4.9885  -20.8629    0.4318 C   0  0  0  0  0  0  0  0  0  0  0  0
    5.1788  -18.7689   -0.9825 C   0  0  0  0  0  0  0  0  0  0  0  0
    3.8933  -20.7795   -1.8311 C   0  0  0  0  0  0  0  0  0  0  0  0
 12 11  1  0  0  0
 14 13  1  0  0  0
 44 43  1  0  0  0
 44 42  1  0  0  0
 43 42  1  0  0  0
 11 13  2  0  0  0
 11 10  1  0  0  0
 13 15  1  0  0  0
 42 41  1  0  0  0
 10  9  2  0  0  0
 15 16  2  0  0  0
 41  6  1  0  0  0
 41 45  1  0  0  0
  9 16  1  0  0  0
  9  7  1  0  0  0
  5  4  2  0  0  0
  6  4  1  0  0  0
  6  7  1  0  0  0
 45 46  1  0  0  0
 24 26  1  0  0  0
 24  1  1  0  0  0
  4  1  1  0  0  0
  7  8  1  0  0  0
 25 26  1  0  0  0
 25 34  1  0  0  0
 26 27  2  0  0  0
 33 34  2  0  0  0
 33 32  1  0  0  0
  8 17  1  0  0  0
  8  2  1  0  0  0
  1  2  1  0  0  0
  1  3  1  0  0  0
 34 30  1  0  0  0
 20 19  1  0  0  0
 18 17  2  0  0  0
 18 19  1  0  0  0
 32 31  2  0  0  0
 47 46  2  0  0  0
 50 49  1  0  0  0
 30 29  2  0  0  0
 46 49  1  0  0  0
 46 48  2  0  0  0
 37 35  2  0  0  0
 17 23  1  0  0  0
 31 29  1  0  0  0
 31 35  1  0  0  0
 19 21  2  0  0  0
 29 40  1  0  0  0
 35 36  1  0  0  0
 49 51  1  0  0  0
 49 52  1  0  0  0
 40 39  1  0  0  0
 23 22  2  0  0  0
 21 22  1  0  0  0
 36 38  1  0  0  0
 25 28  1  0  0  0
M  END
> <minimizedAffinity>
-9.99866

$$$$
4WT2_3UD_A_201


 52 56  0  0  0  0  0  0  0  0999 V2000
    8.3280  -25.5494   -2.3205 C   0  0  0  0  0  0  0  0  0  0  0  0
    9.4100  -24.8331   -1.5015 C   0  0  0  0  0  0  0  0  0  0  0  0
    7.2023  -25.9868   -1.3690 C   0  0  0  0  0  0  0  0  0  0  0  0
    7.6864  -24.5909   -3.3355 C   0  0  0  0  0  0  0  0  0  0  0  0
    6.6134  -24.9153   -3.8397 O   0  0  0  0  0  0  0  0  0  0  0  0
    8.3059  -23.3987   -3.7347 N   0  0  0  0  0  0  0  0  0  0  0  0
    9.5772  -22.9288   -3.1582 C   0  0  0  0  0  0  0  0  0  0  0  0
   10.3559  -24.0524   -2.4153 C   0  0  0  0  0  0  0  0  0  0  0  0
   10.5216  -22.3202   -4.2260 C   0  0  0  0  0  0  0  0  0  0  0  0
   10.7947  -20.9552   -4.2562 C   0  0  0  0  0  0  0  0  0  0  0  0
   11.6301  -20.4633   -5.2454 C   0  0  0  0  0  0  0  0  0  0  0  0
   11.8846  -19.1471   -5.2301 F   0  0  0  0  0  0  0  0  0  0  0  0
   12.1784  -21.3086   -6.2060 C   0  0  0  0  0  0  0  0  0  0  0  0
   13.1872  -20.6870   -7.4750 Cl  0  0  0  0  0  0  0  0  0  0  0  0
   11.9051  -22.6635   -6.1871 C   0  0  0  0  0  0  0  0  0  0  0  0
   11.0693  -23.1603   -5.1873 C   0  0  0  0  0  0  0  0  0  0  0  0
   11.5325  -23.3832   -1.6486 C   0  0  0  0  0  0  0  0  0  0  0  0
   12.8335  -23.4507   -2.1622 C   0  0  0  0  0  0  0  0  0  0  0  0
   13.8825  -22.8428   -1.4939 C   0  0  0  0  0  0  0  0  0  0  0  0
   15.4788  -22.9431   -2.1569 Cl  0  0  0  0  0  0  0  0  0  0  0  0
   13.6632  -22.1490   -0.3156 C   0  0  0  0  0  0  0  0  0  0  0  0
   12.3791  -22.0797    0.2052 C   0  0  0  0  0  0  0  0  0  0  0  0
   11.3129  -22.6906   -0.4582 C   0  0  0  0  0  0  0  0  0  0  0  0
    8.8961  -26.7464   -3.0644 C   0  0  0  0  0  0  0  0  0  0  0  0
    7.9322  -28.9056   -2.5501 N   0  0  0  0  0  0  0  0  0  0  0  0
    8.9338  -28.0602   -2.2626 C   0  0  0  0  0  0  0  0  0  0  0  0
    9.8326  -28.2488   -1.4487 O   0  0  0  0  0  0  0  0  0  0  0  0
    7.2606  -28.5874   -3.1957 H   0  0  0  0  0  0  0  0  0  0  0  0
    6.9121  -31.7644   -0.4230 C   0  0  0  0  0  0  0  0  0  0  0  0
    7.0416  -30.4403   -0.8690 C   0  0  0  0  0  0  0  0  0  0  0  0
    7.4909  -32.7989   -1.1595 C   0  0  0  0  0  0  0  0  0  0  0  0
    8.1923  -32.5175   -2.3258 C   0  0  0  0  0  0  0  0  0  0  0  0
    8.3179  -31.1999   -2.7626 C   0  0  0  0  0  0  0  0  0  0  0  0
    7.7456  -30.1494   -2.0478 C   0  0  0  0  0  0  0  0  0  0  0  0
    7.3629  -34.2482   -0.6936 C   0  0  0  0  0  0  0  0  0  0  0  0
    6.2202  -34.7484   -0.6630 O   0  0  0  0  0  0  0  0  0  0  0  0
    8.4104  -34.8466   -0.3721 O   0  0  0  0  0  0  0  0  0  0  0  0
    5.4780  -34.2372   -0.9196 H   0  0  0  0  0  0  0  0  0  0  0  0
    6.8542  -31.7451    1.9509 C   0  0  0  0  0  0  0  0  0  0  0  0
    6.2327  -32.0889    0.7212 O   0  0  0  0  0  0  0  0  0  0  0  0
    7.5827  -22.4370   -4.5921 C   0  0  0  0  0  0  0  0  0  0  0  0
    7.2938  -22.9631   -5.9951 C   0  0  0  0  0  0  0  0  0  0  0  0
    6.9306  -21.8616   -6.9961 C   0  0  0  0  0  0  0  0  0  0  0  0
    8.2874  -22.5568   -7.0820 C   0  0  0  0  0  0  0  0  0  0  0  0
    6.2802  -22.0414   -3.8662 C   0  0  0  0  0  0  0  0  0  0  0  0
    6.4910  -20.8305   -2.5149 S   0  0  0  0  0  0  0  0  0  0  0  0
    5.5529  -19.7022   -2.7463 O   0  0  0  0  0  0  0  0  0  0  0  0
    7.9159  -20.3756   -2.4230 O   0  0  0  0  0  0  0  0  0  0  0  0
    6.1059  -21.6514   -0.9353 C   0  0  0  0  0  0  0  0  0  0  0  0
    5.3476  -20.6568   -0.0565 C   0  0  0  0  0  0  0  0  0  0  0  0
    5.2527  -22.8841   -1.2612 C   0  0  0  0  0  0  0  0  0  0  0  0
    7.4299  -22.0516   -0.2705 C   0  0  0  0  0  0  0  0  0  0  0  0
 12 11  1  0  0  0
 14 13  1  0  0  0
 44 43  1  0  0  0
 44 42  1  0  0  0
 43 42  1  0  0  0
 11 13  2  0  0  0
 11 10  1  0  0  0
 13 15  1  0  0  0
 42 41  1  0  0  0
 10  9  2  0  0  0
 15 16  2  0  0  0
 41  6  1  0  0  0
 41 45  1  0  0  0
  9 16  1  0  0  0
  9  7  1  0  0  0
  5  4  2  0  0  0
  6  4  1  0  0  0
  6  7  1  0  0  0
 45 46  1  0  0  0
 24 26  1  0  0  0
 24  1  1  0  0  0
  4  1  1  0  0  0
  7  8  1  0  0  0
 25 26  1  0  0  0
 25 34  1  0  0  0
 26 27  2  0  0  0
 33 34  2  0  0  0
 33 32  1  0  0  0
  8 17  1  0  0  0
  8  2  1  0  0  0
  1  2  1  0  0  0
  1  3  1  0  0  0
 34 30  1  0  0  0
 20 19  1  0  0  0
 18 17  2  0  0  0
 18 19  1  0  0  0
 32 31  2  0  0  0
 47 46  2  0  0  0
 50 49  1  0  0  0
 30 29  2  0  0  0
 46 49  1  0  0  0
 46 48  2  0  0  0
 37 35  2  0  0  0
 17 23  1  0  0  0
 31 29  1  0  0  0
 31 35  1  0  0  0
 19 21  2  0  0  0
 29 40  1  0  0  0
 35 36  1  0  0  0
 49 51  1  0  0  0
 49 52  1  0  0  0
 40 39  1  0  0  0
 23 22  2  0  0  0
 21 22  1  0  0  0
 36 38  1  0  0  0
 25 28  1  0  0  0
M  END
> <minimizedAffinity>
-9.96318

$$$$
4WT2_3UD_A_201


 52 56  0  0  0  0  0  0  0  0999 V2000
    8.7733  -26.1441   -1.6095 C   0  0  0  0  0  0  0  0  0  0  0  0
    9.7436  -25.2306   -0.8488 C   0  0  0  0  0  0  0  0  0  0  0  0
    7.7195  -26.6707   -0.6214 C   0  0  0  0  0  0  0  0  0  0  0  0
    8.0042  -25.3543   -2.6795 C   0  0  0  0  0  0  0  0  0  0  0  0
    6.9876  -25.8585   -3.1520 O   0  0  0  0  0  0  0  0  0  0  0  0
    8.4505  -24.1162   -3.1617 N   0  0  0  0  0  0  0  0  0  0  0  0
    9.6429  -23.4358   -2.6285 C   0  0  0  0  0  0  0  0  0  0  0  0
   10.5711  -24.3874   -1.8202 C   0  0  0  0  0  0  0  0  0  0  0  0
   10.4932  -22.7730   -3.7422 C   0  0  0  0  0  0  0  0  0  0  0  0
   10.6000  -21.3884   -3.8432 C   0  0  0  0  0  0  0  0  0  0  0  0
   11.3571  -20.8506   -4.8707 C   0  0  0  0  0  0  0  0  0  0  0  0
   11.4520  -19.5143   -4.9236 F   0  0  0  0  0  0  0  0  0  0  0  0
   11.9901  -21.6714   -5.7999 C   0  0  0  0  0  0  0  0  0  0  0  0
   12.9001  -20.9982   -7.1164 Cl  0  0  0  0  0  0  0  0  0  0  0  0
   11.8817  -23.0466   -5.7107 C   0  0  0  0  0  0  0  0  0  0  0  0
   11.1249  -23.5889   -4.6724 C   0  0  0  0  0  0  0  0  0  0  0  0
   11.6417  -23.5107   -1.1094 C   0  0  0  0  0  0  0  0  0  0  0  0
   12.9563  -23.4801   -1.5911 C   0  0  0  0  0  0  0  0  0  0  0  0
   13.9099  -22.6889   -0.9738 C   0  0  0  0  0  0  0  0  0  0  0  0
   15.5258  -22.6721   -1.5957 Cl  0  0  0  0  0  0  0  0  0  0  0  0
   13.5797  -21.9067    0.1202 C   0  0  0  0  0  0  0  0  0  0  0  0
   12.2815  -21.9329    0.6092 C   0  0  0  0  0  0  0  0  0  0  0  0
   11.3109  -22.7285   -0.0033 C   0  0  0  0  0  0  0  0  0  0  0  0
    9.5042  -27.2964   -2.2779 C   0  0  0  0  0  0  0  0  0  0  0  0
    7.4576  -28.5877   -2.2811 N   0  0  0  0  0  0  0  0  0  0  0  0
    8.5998  -28.3495   -2.9438 C   0  0  0  0  0  0  0  0  0  0  0  0
    8.9576  -28.8826   -3.9896 O   0  0  0  0  0  0  0  0  0  0  0  0
    7.3372  -28.1110   -1.4282 H   0  0  0  0  0  0  0  0  0  0  0  0
    4.4134  -29.9891   -3.8643 C   0  0  0  0  0  0  0  0  0  0  0  0
    5.4189  -29.0649   -3.5422 C   0  0  0  0  0  0  0  0  0  0  0  0
    4.4434  -31.2645   -3.2985 C   0  0  0  0  0  0  0  0  0  0  0  0
    5.4622  -31.6146   -2.4205 C   0  0  0  0  0  0  0  0  0  0  0  0
    6.4573  -30.6914   -2.1042 C   0  0  0  0  0  0  0  0  0  0  0  0
    6.4526  -29.4131   -2.6590 C   0  0  0  0  0  0  0  0  0  0  0  0
    3.3595  -32.2874   -3.6344 C   0  0  0  0  0  0  0  0  0  0  0  0
    3.3728  -32.7924   -4.7754 O   0  0  0  0  0  0  0  0  0  0  0  0
    2.5252  -32.5583   -2.7460 O   0  0  0  0  0  0  0  0  0  0  0  0
    4.0317  -32.5399   -5.3918 H   0  0  0  0  0  0  0  0  0  0  0  0
    3.1120  -28.3099   -4.9252 C   0  0  0  0  0  0  0  0  0  0  0  0
    3.3889  -29.6879   -4.7220 O   0  0  0  0  0  0  0  0  0  0  0  0
    7.6000  -23.3243   -4.0741 C   0  0  0  0  0  0  0  0  0  0  0  0
    7.5506  -23.8729   -5.4972 C   0  0  0  0  0  0  0  0  0  0  0  0
    6.7966  -22.9652   -6.4743 C   0  0  0  0  0  0  0  0  0  0  0  0
    8.3177  -23.0759   -6.5507 C   0  0  0  0  0  0  0  0  0  0  0  0
    6.1879  -23.2465   -3.4576 C   0  0  0  0  0  0  0  0  0  0  0  0
    5.6235  -21.5601   -3.0403 S   0  0  0  0  0  0  0  0  0  0  0  0
    4.1491  -21.5903   -2.8615 O   0  0  0  0  0  0  0  0  0  0  0  0
    6.0490  -20.5795   -4.0905 O   0  0  0  0  0  0  0  0  0  0  0  0
    6.4319  -21.0447   -1.4916 C   0  0  0  0  0  0  0  0  0  0  0  0
    6.7104  -22.2980   -0.6622 C   0  0  0  0  0  0  0  0  0  0  0  0
    7.7285  -20.3205   -1.8763 C   0  0  0  0  0  0  0  0  0  0  0  0
    5.4738  -20.1090   -0.7421 C   0  0  0  0  0  0  0  0  0  0  0  0
 12 11  1  0  0  0
 14 13  1  0  0  0
 44 43  1  0  0  0
 44 42  1  0  0  0
 43 42  1  0  0  0
 11 13  2  0  0  0
 11 10  1  0  0  0
 13 15  1  0  0  0
 42 41  1  0  0  0
 10  9  2  0  0  0
 15 16  2  0  0  0
 41  6  1  0  0  0
 41 45  1  0  0  0
  9 16  1  0  0  0
  9  7  1  0  0  0
  5  4  2  0  0  0
  6  4  1  0  0  0
  6  7  1  0  0  0
 45 46  1  0  0  0
 24 26  1  0  0  0
 24  1  1  0  0  0
  4  1  1  0  0  0
  7  8  1  0  0  0
 25 26  1  0  0  0
 25 34  1  0  0  0
 26 27  2  0  0  0
 33 34  2  0  0  0
 33 32  1  0  0  0
  8 17  1  0  0  0
  8  2  1  0  0  0
  1  2  1  0  0  0
  1  3  1  0  0  0
 34 30  1  0  0  0
 20 19  1  0  0  0
 18 17  2  0  0  0
 18 19  1  0  0  0
 32 31  2  0  0  0
 47 46  2  0  0  0
 50 49  1  0  0  0
 30 29  2  0  0  0
 46 49  1  0  0  0
 46 48  2  0  0  0
 37 35  2  0  0  0
 17 23  1  0  0  0
 31 29  1  0  0  0
 31 35  1  0  0  0
 19 21  2  0  0  0
 29 40  1  0  0  0
 35 36  1  0  0  0
 49 51  1  0  0  0
 49 52  1  0  0  0
 40 39  1  0  0  0
 23 22  2  0  0  0
 21 22  1  0  0  0
 36 38  1  0  0  0
 25 28  1  0  0  0
M  END
> <minimizedAffinity>
-8.93410

$$$$
4WT2_3UD_A_201


 52 56  0  0  0  0  0  0  0  0999 V2000
    7.7639  -26.8661   -2.6113 C   0  0  0  0  0  0  0  0  0  0  0  0
    6.4300  -26.5177   -3.2849 C   0  0  0  0  0  0  0  0  0  0  0  0
    8.3934  -28.0547   -3.3563 C   0  0  0  0  0  0  0  0  0  0  0  0
    8.7597  -25.7029   -2.7361 C   0  0  0  0  0  0  0  0  0  0  0  0
    9.9490  -25.9344   -2.5296 O   0  0  0  0  0  0  0  0  0  0  0  0
    8.3498  -24.3940   -3.0247 N   0  0  0  0  0  0  0  0  0  0  0  0
    6.9484  -24.0419   -3.3099 C   0  0  0  0  0  0  0  0  0  0  0  0
    5.9438  -25.1356   -2.8458 C   0  0  0  0  0  0  0  0  0  0  0  0
    6.5301  -22.7012   -2.6541 C   0  0  0  0  0  0  0  0  0  0  0  0
    6.2851  -22.6106   -1.2864 C   0  0  0  0  0  0  0  0  0  0  0  0
    5.8945  -21.3916   -0.7576 C   0  0  0  0  0  0  0  0  0  0  0  0
    5.6866  -21.3392    0.5658 F   0  0  0  0  0  0  0  0  0  0  0  0
    5.7313  -20.2757   -1.5737 C   0  0  0  0  0  0  0  0  0  0  0  0
    5.1956  -18.7589   -0.9203 Cl  0  0  0  0  0  0  0  0  0  0  0  0
    5.9647  -20.3603   -2.9336 C   0  0  0  0  0  0  0  0  0  0  0  0
    6.3646  -21.5859   -3.4656 C   0  0  0  0  0  0  0  0  0  0  0  0
    4.5465  -24.7677   -3.4220 C   0  0  0  0  0  0  0  0  0  0  0  0
    3.4322  -24.7070   -2.5758 C   0  0  0  0  0  0  0  0  0  0  0  0
    2.1891  -24.3635   -3.0788 C   0  0  0  0  0  0  0  0  0  0  0  0
    0.8321  -24.2955   -2.0054 Cl  0  0  0  0  0  0  0  0  0  0  0  0
    2.0274  -24.0630   -4.4209 C   0  0  0  0  0  0  0  0  0  0  0  0
    3.1233  -24.1247   -5.2696 C   0  0  0  0  0  0  0  0  0  0  0  0
    4.3822  -24.4720   -4.7750 C   0  0  0  0  0  0  0  0  0  0  0  0
    7.5735  -27.1960   -1.1403 C   0  0  0  0  0  0  0  0  0  0  0  0
    9.5258  -28.4960   -0.5450 N   0  0  0  0  0  0  0  0  0  0  0  0
    8.1914  -28.5293   -0.6811 C   0  0  0  0  0  0  0  0  0  0  0  0
    7.4641  -29.4963   -0.4759 O   0  0  0  0  0  0  0  0  0  0  0  0
    9.9718  -27.6544   -0.7939 H   0  0  0  0  0  0  0  0  0  0  0  0
   11.5211  -30.7667    1.5999 C   0  0  0  0  0  0  0  0  0  0  0  0
   10.6742  -29.7071    1.2407 C   0  0  0  0  0  0  0  0  0  0  0  0
   12.0206  -31.6148    0.6105 C   0  0  0  0  0  0  0  0  0  0  0  0
   11.6820  -31.4086   -0.7215 C   0  0  0  0  0  0  0  0  0  0  0  0
   10.8411  -30.3536   -1.0714 C   0  0  0  0  0  0  0  0  0  0  0  0
   10.3254  -29.4953   -0.1022 C   0  0  0  0  0  0  0  0  0  0  0  0
   12.9441  -32.7751    0.9777 C   0  0  0  0  0  0  0  0  0  0  0  0
   12.4771  -33.6830    1.6949 O   0  0  0  0  0  0  0  0  0  0  0  0
   14.1118  -32.7462    0.5367 O   0  0  0  0  0  0  0  0  0  0  0  0
   11.5887  -33.6371    1.9895 H   0  0  0  0  0  0  0  0  0  0  0  0
   11.3500  -30.1318    3.8817 C   0  0  0  0  0  0  0  0  0  0  0  0
   11.8838  -31.0067    2.8987 O   0  0  0  0  0  0  0  0  0  0  0  0
    9.3537  -23.3423   -3.2873 C   0  0  0  0  0  0  0  0  0  0  0  0
   10.3071  -23.0997   -2.1207 C   0  0  0  0  0  0  0  0  0  0  0  0
   10.3725  -21.6332   -1.6820 C   0  0  0  0  0  0  0  0  0  0  0  0
    9.6622  -22.6631   -0.8065 C   0  0  0  0  0  0  0  0  0  0  0  0
   10.1250  -23.7320   -4.5653 C   0  0  0  0  0  0  0  0  0  0  0  0
   10.2444  -22.4125   -5.8229 S   0  0  0  0  0  0  0  0  0  0  0  0
    9.0933  -21.4905   -5.6454 O   0  0  0  0  0  0  0  0  0  0  0  0
   10.3000  -22.9937   -7.2030 O   0  0  0  0  0  0  0  0  0  0  0  0
   11.8098  -21.5150   -5.5748 C   0  0  0  0  0  0  0  0  0  0  0  0
   12.5742  -21.5199   -6.8985 C   0  0  0  0  0  0  0  0  0  0  0  0
   11.4504  -20.0902   -5.1338 C   0  0  0  0  0  0  0  0  0  0  0  0
   12.6125  -22.2467   -4.4907 C   0  0  0  0  0  0  0  0  0  0  0  0
 12 11  1  0  0  0
 14 13  1  0  0  0
 44 43  1  0  0  0
 44 42  1  0  0  0
 43 42  1  0  0  0
 11 13  2  0  0  0
 11 10  1  0  0  0
 13 15  1  0  0  0
 42 41  1  0  0  0
 10  9  2  0  0  0
 15 16  2  0  0  0
 41  6  1  0  0  0
 41 45  1  0  0  0
  9 16  1  0  0  0
  9  7  1  0  0  0
  5  4  2  0  0  0
  6  4  1  0  0  0
  6  7  1  0  0  0
 45 46  1  0  0  0
 24 26  1  0  0  0
 24  1  1  0  0  0
  4  1  1  0  0  0
  7  8  1  0  0  0
 25 26  1  0  0  0
 25 34  1  0  0  0
 26 27  2  0  0  0
 33 34  2  0  0  0
 33 32  1  0  0  0
  8 17  1  0  0  0
  8  2  1  0  0  0
  1  2  1  0  0  0
  1  3  1  0  0  0
 34 30  1  0  0  0
 20 19  1  0  0  0
 18 17  2  0  0  0
 18 19  1  0  0  0
 32 31  2  0  0  0
 47 46  2  0  0  0
 50 49  1  0  0  0
 30 29  2  0  0  0
 46 49  1  0  0  0
 46 48  2  0  0  0
 37 35  2  0  0  0
 17 23  1  0  0  0
 31 29  1  0  0  0
 31 35  1  0  0  0
 19 21  2  0  0  0
 29 40  1  0  0  0
 35 36  1  0  0  0
 49 51  1  0  0  0
 49 52  1  0  0  0
 40 39  1  0  0  0
 23 22  2  0  0  0
 21 22  1  0  0  0
 36 38  1  0  0  0
 25 28  1  0  0  0
M  END
> <minimizedAffinity>
-7.91985

$$$$
