1QY1_PRZ_A_300


 12 12  0  0  0  0  0  0  0  0999 V2000
   50.9207   25.1900   39.1722 N   0  0  0  0  0  0  0  0  0  0  0  0
   50.3796   24.6125   40.2659 C   0  0  0  0  0  0  0  0  0  0  0  0
   50.9657   23.4386   40.7484 C   0  0  0  0  0  0  0  0  0  0  0  0
   52.0438   22.9265   40.1208 N   0  0  0  0  0  0  0  0  0  0  0  0
   52.5615   23.5043   39.0462 C   0  0  0  0  0  0  0  0  0  0  0  0
   51.9787   24.6732   38.5565 C   0  0  0  0  0  0  0  0  0  0  0  0
   50.3680   22.8309   41.8077 O   0  0  0  0  0  0  0  0  0  0  0  0
   51.2943   22.2565   42.7226 C   0  0  0  0  0  0  0  0  0  0  0  0
   49.1735   25.3017   40.9391 C   0  0  0  0  0  0  0  0  0  0  0  0
   48.0086   25.4570   39.9502 C   0  0  0  0  0  0  0  0  0  0  0  0
   46.8972   26.2832   40.6018 C   0  0  0  0  0  0  0  0  0  0  0  0
   47.4737   24.0904   39.5038 C   0  0  0  0  0  0  0  0  0  0  0  0
  1  2  2  0  0  0
  1  6  1  0  0  0
  2  3  1  0  0  0
  2  9  1  0  0  0
  3  4  2  0  0  0
  3  7  1  0  0  0
  4  5  1  0  0  0
  5  6  2  0  0  0
  9 10  1  0  0  0
 10 11  1  0  0  0
 10 12  1  0  0  0
  7  8  1  0  0  0
M  END
> <minimizedAffinity>
-5.98229

$$$$
1QY1_PRZ_A_300


 12 12  0  0  0  0  0  0  0  0999 V2000
   49.7562   25.6468   39.6344 N   0  0  0  0  0  0  0  0  0  0  0  0
   48.6623   25.0698   40.1759 C   0  0  0  0  0  0  0  0  0  0  0  0
   48.7730   23.7556   40.6397 C   0  0  0  0  0  0  0  0  0  0  0  0
   49.9539   23.1122   40.5409 N   0  0  0  0  0  0  0  0  0  0  0  0
   51.0180   23.6920   40.0041 C   0  0  0  0  0  0  0  0  0  0  0  0
   50.9135   25.0014   39.5347 C   0  0  0  0  0  0  0  0  0  0  0  0
   47.6458   23.1644   41.1181 O   0  0  0  0  0  0  0  0  0  0  0  0
   47.3300   21.9420   40.4614 C   0  0  0  0  0  0  0  0  0  0  0  0
   47.3695   25.9060   40.2852 C   0  0  0  0  0  0  0  0  0  0  0  0
   47.5855   27.1350   41.1805 C   0  0  0  0  0  0  0  0  0  0  0  0
   47.8746   26.6754   42.6114 C   0  0  0  0  0  0  0  0  0  0  0  0
   46.3665   28.0658   41.1488 C   0  0  0  0  0  0  0  0  0  0  0  0
  1  2  2  0  0  0
  1  6  1  0  0  0
  2  3  1  0  0  0
  2  9  1  0  0  0
  3  4  2  0  0  0
  3  7  1  0  0  0
  4  5  1  0  0  0
  5  6  2  0  0  0
  9 10  1  0  0  0
 10 11  1  0  0  0
 10 12  1  0  0  0
  7  8  1  0  0  0
M  END
> <minimizedAffinity>
-5.85054

$$$$
1QY1_PRZ_A_300


 12 12  0  0  0  0  0  0  0  0999 V2000
   50.1963   23.7446   41.6669 N   0  0  0  0  0  0  0  0  0  0  0  0
   50.4266   24.3543   40.4846 C   0  0  0  0  0  0  0  0  0  0  0  0
   51.5060   23.9109   39.7147 C   0  0  0  0  0  0  0  0  0  0  0  0
   52.2724   22.8969   40.1649 N   0  0  0  0  0  0  0  0  0  0  0  0
   52.0347   22.3105   41.3295 C   0  0  0  0  0  0  0  0  0  0  0  0
   50.9622   22.7510   42.1051 C   0  0  0  0  0  0  0  0  0  0  0  0
   51.7674   24.5802   38.5603 O   0  0  0  0  0  0  0  0  0  0  0  0
   52.8368   24.0137   37.8117 C   0  0  0  0  0  0  0  0  0  0  0  0
   49.4641   25.4751   40.0371 C   0  0  0  0  0  0  0  0  0  0  0  0
   48.0209   25.1582   40.4559 C   0  0  0  0  0  0  0  0  0  0  0  0
   47.4016   24.1880   39.4471 C   0  0  0  0  0  0  0  0  0  0  0  0
   47.1800   26.4368   40.5607 C   0  0  0  0  0  0  0  0  0  0  0  0
  1  2  2  0  0  0
  1  6  1  0  0  0
  2  3  1  0  0  0
  2  9  1  0  0  0
  3  4  2  0  0  0
  3  7  1  0  0  0
  4  5  1  0  0  0
  5  6  2  0  0  0
  9 10  1  0  0  0
 10 11  1  0  0  0
 10 12  1  0  0  0
  7  8  1  0  0  0
M  END
> <minimizedAffinity>
-5.76256

$$$$
1QY1_PRZ_A_300


 12 12  0  0  0  0  0  0  0  0999 V2000
   49.7258   23.9844   42.0645 N   0  0  0  0  0  0  0  0  0  0  0  0
   49.3105   24.6957   40.9949 C   0  0  0  0  0  0  0  0  0  0  0  0
   50.1112   24.6889   39.8489 C   0  0  0  0  0  0  0  0  0  0  0  0
   51.2564   23.9770   39.8414 N   0  0  0  0  0  0  0  0  0  0  0  0
   51.6516   23.2858   40.9010 C   0  0  0  0  0  0  0  0  0  0  0  0
   50.8600   23.2921   42.0495 C   0  0  0  0  0  0  0  0  0  0  0  0
   49.7156   25.4654   38.8051 O   0  0  0  0  0  0  0  0  0  0  0  0
   50.7998   25.9426   38.0166 C   0  0  0  0  0  0  0  0  0  0  0  0
   47.9616   25.4405   41.0876 C   0  0  0  0  0  0  0  0  0  0  0  0
   47.8466   26.2033   42.4156 C   0  0  0  0  0  0  0  0  0  0  0  0
   46.3978   26.6531   42.6181 C   0  0  0  0  0  0  0  0  0  0  0  0
   48.7950   27.4085   42.4472 C   0  0  0  0  0  0  0  0  0  0  0  0
  1  2  2  0  0  0
  1  6  1  0  0  0
  2  3  1  0  0  0
  2  9  1  0  0  0
  3  4  2  0  0  0
  3  7  1  0  0  0
  4  5  1  0  0  0
  5  6  2  0  0  0
  9 10  1  0  0  0
 10 11  1  0  0  0
 10 12  1  0  0  0
  7  8  1  0  0  0
M  END
> <minimizedAffinity>
-5.60177

$$$$
1QY1_PRZ_A_300


 12 12  0  0  0  0  0  0  0  0999 V2000
   48.7596   22.7001   40.9401 N   0  0  0  0  0  0  0  0  0  0  0  0
   49.6576   23.6936   40.7695 C   0  0  0  0  0  0  0  0  0  0  0  0
   49.3194   24.7466   39.9143 C   0  0  0  0  0  0  0  0  0  0  0  0
   48.1203   24.7441   39.2975 N   0  0  0  0  0  0  0  0  0  0  0  0
   47.2506   23.7595   39.4735 C   0  0  0  0  0  0  0  0  0  0  0  0
   47.5835   22.7032   40.3217 C   0  0  0  0  0  0  0  0  0  0  0  0
   50.2609   25.7036   39.6981 O   0  0  0  0  0  0  0  0  0  0  0  0
   50.8436   25.6363   38.4016 C   0  0  0  0  0  0  0  0  0  0  0  0
   50.9840   23.6272   41.5561 C   0  0  0  0  0  0  0  0  0  0  0  0
   51.1793   22.2399   42.1855 C   0  0  0  0  0  0  0  0  0  0  0  0
   51.2755   22.3821   43.7064 C   0  0  0  0  0  0  0  0  0  0  0  0
   52.4303   21.5488   41.6282 C   0  0  0  0  0  0  0  0  0  0  0  0
  1  2  2  0  0  0
  1  6  1  0  0  0
  2  3  1  0  0  0
  2  9  1  0  0  0
  3  4  2  0  0  0
  3  7  1  0  0  0
  4  5  1  0  0  0
  5  6  2  0  0  0
  9 10  1  0  0  0
 10 11  1  0  0  0
 10 12  1  0  0  0
  7  8  1  0  0  0
M  END
> <minimizedAffinity>
-5.48252

$$$$
1QY1_PRZ_A_300


 12 12  0  0  0  0  0  0  0  0999 V2000
   48.0410   24.6212   41.7052 N   0  0  0  0  0  0  0  0  0  0  0  0
   48.8589   24.3921   40.6558 C   0  0  0  0  0  0  0  0  0  0  0  0
   48.9374   25.3676   39.6574 C   0  0  0  0  0  0  0  0  0  0  0  0
   48.2094   26.4969   39.7717 N   0  0  0  0  0  0  0  0  0  0  0  0
   47.4089   26.7055   40.8073 C   0  0  0  0  0  0  0  0  0  0  0  0
   47.3221   25.7343   41.8047 C   0  0  0  0  0  0  0  0  0  0  0  0
   49.7109   25.0922   38.5736 O   0  0  0  0  0  0  0  0  0  0  0  0
   50.8537   25.9338   38.4698 C   0  0  0  0  0  0  0  0  0  0  0  0
   49.6851   23.0884   40.6401 C   0  0  0  0  0  0  0  0  0  0  0  0
   51.0967   23.3270   41.1962 C   0  0  0  0  0  0  0  0  0  0  0  0
   52.1317   22.8811   40.1607 C   0  0  0  0  0  0  0  0  0  0  0  0
   51.3043   22.5827   42.5214 C   0  0  0  0  0  0  0  0  0  0  0  0
  1  2  2  0  0  0
  1  6  1  0  0  0
  2  3  1  0  0  0
  2  9  1  0  0  0
  3  4  2  0  0  0
  3  7  1  0  0  0
  4  5  1  0  0  0
  5  6  2  0  0  0
  9 10  1  0  0  0
 10 11  1  0  0  0
 10 12  1  0  0  0
  7  8  1  0  0  0
M  END
> <minimizedAffinity>
-5.38420

$$$$
1QY1_PRZ_A_300


 12 12  0  0  0  0  0  0  0  0999 V2000
   49.2013   25.2653   39.1551 N   0  0  0  0  0  0  0  0  0  0  0  0
   50.2652   24.8474   39.8735 C   0  0  0  0  0  0  0  0  0  0  0  0
   50.0250   24.1164   41.0407 C   0  0  0  0  0  0  0  0  0  0  0  0
   48.7557   23.8471   41.4079 N   0  0  0  0  0  0  0  0  0  0  0  0
   47.7218   24.2670   40.6928 C   0  0  0  0  0  0  0  0  0  0  0  0
   47.9541   25.0011   39.5296 C   0  0  0  0  0  0  0  0  0  0  0  0
   51.1031   23.7628   41.7901 O   0  0  0  0  0  0  0  0  0  0  0  0
   51.0831   22.3990   42.1958 C   0  0  0  0  0  0  0  0  0  0  0  0
   51.6796   25.1676   39.3446 C   0  0  0  0  0  0  0  0  0  0  0  0
   52.2629   23.9704   38.5795 C   0  0  0  0  0  0  0  0  0  0  0  0
   53.4101   23.3615   39.3891 C   0  0  0  0  0  0  0  0  0  0  0  0
   52.7482   24.3862   37.1849 C   0  0  0  0  0  0  0  0  0  0  0  0
  1  2  2  0  0  0
  1  6  1  0  0  0
  2  3  1  0  0  0
  2  9  1  0  0  0
  3  4  2  0  0  0
  3  7  1  0  0  0
  4  5  1  0  0  0
  5  6  2  0  0  0
  9 10  1  0  0  0
 10 11  1  0  0  0
 10 12  1  0  0  0
  7  8  1  0  0  0
M  END
> <minimizedAffinity>
-5.29091

$$$$
1QY1_PRZ_A_300


 12 12  0  0  0  0  0  0  0  0999 V2000
   49.4082   25.5124   40.7402 N   0  0  0  0  0  0  0  0  0  0  0  0
   49.4035   24.1899   41.0117 C   0  0  0  0  0  0  0  0  0  0  0  0
   48.2732   23.4488   40.6543 C   0  0  0  0  0  0  0  0  0  0  0  0
   47.2366   24.0652   40.0512 N   0  0  0  0  0  0  0  0  0  0  0  0
   47.2557   25.3653   39.7941 C   0  0  0  0  0  0  0  0  0  0  0  0
   48.3783   26.1118   40.1523 C   0  0  0  0  0  0  0  0  0  0  0  0
   48.2542   22.1330   40.9968 O   0  0  0  0  0  0  0  0  0  0  0  0
   47.0440   21.4760   40.6381 C   0  0  0  0  0  0  0  0  0  0  0  0
   50.6580   23.5699   41.6633 C   0  0  0  0  0  0  0  0  0  0  0  0
   51.5097   22.8316   40.6201 C   0  0  0  0  0  0  0  0  0  0  0  0
   52.4346   21.8404   41.3303 C   0  0  0  0  0  0  0  0  0  0  0  0
   52.3239   23.8161   39.7712 C   0  0  0  0  0  0  0  0  0  0  0  0
  1  2  2  0  0  0
  1  6  1  0  0  0
  2  3  1  0  0  0
  2  9  1  0  0  0
  3  4  2  0  0  0
  3  7  1  0  0  0
  4  5  1  0  0  0
  5  6  2  0  0  0
  9 10  1  0  0  0
 10 11  1  0  0  0
 10 12  1  0  0  0
  7  8  1  0  0  0
M  END
> <minimizedAffinity>
-5.21552

$$$$
1QY1_PRZ_A_300


 12 12  0  0  0  0  0  0  0  0999 V2000
   51.5510   24.0474   39.5998 N   0  0  0  0  0  0  0  0  0  0  0  0
   50.3922   23.9592   40.2869 C   0  0  0  0  0  0  0  0  0  0  0  0
   49.3591   24.8389   39.9505 C   0  0  0  0  0  0  0  0  0  0  0  0
   49.5436   25.7340   38.9590 N   0  0  0  0  0  0  0  0  0  0  0  0
   50.6886   25.8096   38.2956 C   0  0  0  0  0  0  0  0  0  0  0  0
   51.7254   24.9381   38.6293 C   0  0  0  0  0  0  0  0  0  0  0  0
   48.2240   24.7851   40.6972 O   0  0  0  0  0  0  0  0  0  0  0  0
   47.1795   25.6094   40.1928 C   0  0  0  0  0  0  0  0  0  0  0  0
   50.2642   22.8701   41.3733 C   0  0  0  0  0  0  0  0  0  0  0  0
   51.5553   22.7643   42.1984 C   0  0  0  0  0  0  0  0  0  0  0  0
   52.3473   21.5356   41.7452 C   0  0  0  0  0  0  0  0  0  0  0  0
   51.2496   22.6854   43.6995 C   0  0  0  0  0  0  0  0  0  0  0  0
  1  2  2  0  0  0
  1  6  1  0  0  0
  2  3  1  0  0  0
  2  9  1  0  0  0
  3  4  2  0  0  0
  3  7  1  0  0  0
  4  5  1  0  0  0
  5  6  2  0  0  0
  9 10  1  0  0  0
 10 11  1  0  0  0
 10 12  1  0  0  0
  7  8  1  0  0  0
M  END
> <minimizedAffinity>
-5.05306

$$$$
1QY1_PRZ_A_300


 12 12  0  0  0  0  0  0  0  0999 V2000
   49.6374   25.4554   41.3560 N   0  0  0  0  0  0  0  0  0  0  0  0
   49.5426   24.2562   40.7431 C   0  0  0  0  0  0  0  0  0  0  0  0
   48.2753   23.6795   40.6179 C   0  0  0  0  0  0  0  0  0  0  0  0
   47.1973   24.3305   41.1002 N   0  0  0  0  0  0  0  0  0  0  0  0
   47.3076   25.5062   41.7020 C   0  0  0  0  0  0  0  0  0  0  0  0
   48.5698   26.0852   41.8346 C   0  0  0  0  0  0  0  0  0  0  0  0
   48.2041   22.4409   40.0614 O   0  0  0  0  0  0  0  0  0  0  0  0
   47.1492   21.6462   40.5911 C   0  0  0  0  0  0  0  0  0  0  0  0
   50.8302   23.6136   40.1846 C   0  0  0  0  0  0  0  0  0  0  0  0
   51.7049   24.6612   39.4801 C   0  0  0  0  0  0  0  0  0  0  0  0
   50.8962   25.3307   38.3664 C   0  0  0  0  0  0  0  0  0  0  0  0
   52.9817   24.0276   38.9134 C   0  0  0  0  0  0  0  0  0  0  0  0
  1  2  2  0  0  0
  1  6  1  0  0  0
  2  3  1  0  0  0
  2  9  1  0  0  0
  3  4  2  0  0  0
  3  7  1  0  0  0
  4  5  1  0  0  0
  5  6  2  0  0  0
  9 10  1  0  0  0
 10 11  1  0  0  0
 10 12  1  0  0  0
  7  8  1  0  0  0
M  END
> <minimizedAffinity>
-5.01978

$$$$
