3LIW_RUP_A_1


 42 46  0  0  0  0  0  0  0  0999 V2000
   21.6574   28.2928   22.0579 C   0  0  0  0  0  0  0  0  0  0  0  0
   20.9328   31.7009   20.7456 N   0  0  0  0  0  0  0  0  0  0  0  0
   21.1036   30.3499   20.7579 C   0  0  0  0  0  0  0  0  0  0  0  0
   21.1142   29.6983   19.7128 O   0  0  0  0  0  0  0  0  0  0  0  0
   21.3133   29.7405   21.9635 N   0  0  0  0  0  0  0  0  0  0  0  0
   20.9344   32.1896   21.6003 H   0  0  0  0  0  0  0  0  0  0  0  0
   21.2352   30.2704   22.7896 H   0  0  0  0  0  0  0  0  0  0  0  0
   19.3031   32.7473   17.3652 C   0  0  0  0  0  0  0  0  0  0  0  0
   19.4982   31.9124   18.6860 C   0  0  0  0  0  0  0  0  0  0  0  0
   20.7445   32.4594   19.4844 C   0  0  0  0  0  0  0  0  0  0  0  0
   20.5077   33.9821   19.8434 C   0  0  0  0  0  0  0  0  0  0  0  0
   22.0585   32.3049   18.5764 C   0  0  0  0  0  0  0  0  0  0  0  0
   21.8500   33.1595   17.2492 C   0  0  0  0  0  0  0  0  0  0  0  0
   20.5849   32.6284   16.4575 C   0  0  0  0  0  0  0  0  0  0  0  0
   21.6050   34.6738   17.6291 C   0  0  0  0  0  0  0  0  0  0  0  0
   19.0678   34.2624   17.7390 C   0  0  0  0  0  0  0  0  0  0  0  0
   20.3202   34.8130   18.5211 C   0  0  0  0  0  0  0  0  0  0  0  0
   23.1641   28.2616   21.7013 C   0  0  0  0  0  0  0  0  0  0  0  0
   23.4331   27.5607   20.7292 O   0  0  0  0  0  0  0  0  0  0  0  0
   24.2221   28.8784   22.2973 N   0  0  0  0  0  0  0  0  0  0  0  0
   25.0923   28.6795   21.8820 H   0  0  0  0  0  0  0  0  0  0  0  0
   24.2964   29.7807   23.4405 C   0  0  0  0  0  0  0  0  0  0  0  0
   25.5154   30.7552   23.4259 C   0  0  0  0  0  0  0  0  0  0  0  0
   25.1570   32.2263   23.1019 C   0  0  0  0  0  0  0  0  0  0  0  0
   25.8989   33.3698   23.5428 C   0  0  0  0  0  0  0  0  0  0  0  0
   25.5064   34.6890   23.1722 C   0  0  0  0  0  0  0  0  0  0  0  0
   24.3629   34.8853   22.3519 C   0  0  0  0  0  0  0  0  0  0  0  0
   23.6160   33.7611   21.9073 C   0  0  0  0  0  0  0  0  0  0  0  0
   24.0158   32.4483   22.2812 C   0  0  0  0  0  0  0  0  0  0  0  0
   21.4926   27.7845   23.5290 C   0  0  0  0  0  0  0  0  0  0  0  0
   20.0400   27.5735   24.0498 C   0  0  0  0  0  0  0  0  0  0  0  0
   19.0730   26.7194   23.4186 C   0  0  0  0  0  0  0  0  0  0  0  0
   17.7609   26.5930   23.9711 C   0  0  0  0  0  0  0  0  0  0  0  0
   17.4010   27.3090   25.1507 C   0  0  0  0  0  0  0  0  0  0  0  0
   18.3580   28.1582   25.7863 C   0  0  0  0  0  0  0  0  0  0  0  0
   19.6599   28.2765   25.2252 C   0  0  0  0  0  0  0  0  0  0  0  0
   18.0186   28.9357   27.0483 C   0  0  0  0  0  0  0  0  0  0  0  0
   16.7906   28.8948   27.4998 N   0  0  0  0  0  0  0  0  0  0  0  0
   18.9351   29.6415   27.6599 N   0  0  0  0  0  0  0  0  0  0  0  0
   16.1109   28.3597   27.0298 H   0  0  0  0  0  0  0  0  0  0  0  0
   16.5467   29.3992   28.3093 H   0  0  0  0  0  0  0  0  0  0  0  0
   19.8548   29.6634   27.3095 H   0  0  0  0  0  0  0  0  0  0  0  0
  8  9  1  0  0  0
  8 14  1  0  0  0
  8 16  1  0  0  0
  9 10  1  0  0  0
 10  2  1  0  0  0
 10 11  1  0  0  0
 10 12  1  0  0  0
  2  3  1  0  0  0
  3  4  2  0  0  0
  3  5  1  0  0  0
  5  1  1  0  0  0
  1 18  1  0  0  0
  1 30  1  0  0  0
 18 19  2  0  0  0
 18 20  1  0  0  0
 20 22  1  0  0  0
 22 23  1  0  0  0
 23 24  1  0  0  0
 24 25  2  0  0  0
 24 29  1  0  0  0
 25 26  1  0  0  0
 26 27  2  0  0  0
 27 28  1  0  0  0
 28 29  2  0  0  0
 30 31  1  0  0  0
 31 32  2  0  0  0
 31 36  1  0  0  0
 32 33  1  0  0  0
 33 34  2  0  0  0
 34 35  1  0  0  0
 35 37  1  0  0  0
 35 36  2  0  0  0
 37 38  1  0  0  0
 37 39  2  0  0  0
 11 17  1  0  0  0
 12 13  1  0  0  0
 13 14  1  0  0  0
 13 15  1  0  0  0
 15 17  1  0  0  0
 16 17  1  0  0  0
  2  6  1  0  0  0
  5  7  1  0  0  0
 20 21  1  0  0  0
 38 40  1  0  0  0
 38 41  1  0  0  0
 39 42  1  0  0  0
M  END
> <minimizedAffinity>
-11.02280

$$$$
3LIW_RUP_A_1


 42 46  0  0  0  0  0  0  0  0999 V2000
   21.5756   28.3014   22.0202 C   0  0  0  0  0  0  0  0  0  0  0  0
   20.9527   31.7312   20.7124 N   0  0  0  0  0  0  0  0  0  0  0  0
   21.0757   30.3750   20.7247 C   0  0  0  0  0  0  0  0  0  0  0  0
   21.0477   29.7221   19.6807 O   0  0  0  0  0  0  0  0  0  0  0  0
   21.2816   29.7602   21.9282 N   0  0  0  0  0  0  0  0  0  0  0  0
   20.9843   32.2207   21.5660 H   0  0  0  0  0  0  0  0  0  0  0  0
   21.2347   30.2937   22.7543 H   0  0  0  0  0  0  0  0  0  0  0  0
   21.7923   33.0980   17.1620 C   0  0  0  0  0  0  0  0  0  0  0  0
   22.0164   32.3004   18.5011 C   0  0  0  0  0  0  0  0  0  0  0  0
   20.7726   32.4942   19.4526 C   0  0  0  0  0  0  0  0  0  0  0  0
   19.4709   31.9650   18.7253 C   0  0  0  0  0  0  0  0  0  0  0  0
   20.6152   34.0530   19.7996 C   0  0  0  0  0  0  0  0  0  0  0  0
   20.3822   34.8451   18.4382 C   0  0  0  0  0  0  0  0  0  0  0  0
   21.6184   34.6327   17.4708 C   0  0  0  0  0  0  0  0  0  0  0  0
   19.0846   34.2955   17.7227 C   0  0  0  0  0  0  0  0  0  0  0  0
   20.4919   32.5593   16.4484 C   0  0  0  0  0  0  0  0  0  0  0  0
   19.2475   32.7690   17.3921 C   0  0  0  0  0  0  0  0  0  0  0  0
   23.0705   28.2145   21.6247 C   0  0  0  0  0  0  0  0  0  0  0  0
   23.2909   27.4848   20.6617 O   0  0  0  0  0  0  0  0  0  0  0  0
   24.1631   28.8096   22.1787 N   0  0  0  0  0  0  0  0  0  0  0  0
   25.0150   28.5742   21.7451 H   0  0  0  0  0  0  0  0  0  0  0  0
   24.2966   29.7332   23.2993 C   0  0  0  0  0  0  0  0  0  0  0  0
   25.3937   30.8281   23.1167 C   0  0  0  0  0  0  0  0  0  0  0  0
   24.9761   32.0094   22.2070 C   0  0  0  0  0  0  0  0  0  0  0  0
   24.0096   33.0099   22.5498 C   0  0  0  0  0  0  0  0  0  0  0  0
   23.7076   34.0780   21.6557 C   0  0  0  0  0  0  0  0  0  0  0  0
   24.3702   34.1628   20.4015 C   0  0  0  0  0  0  0  0  0  0  0  0
   25.3307   33.1775   20.0465 C   0  0  0  0  0  0  0  0  0  0  0  0
   25.6263   32.1158   20.9456 C   0  0  0  0  0  0  0  0  0  0  0  0
   21.4312   27.8047   23.4975 C   0  0  0  0  0  0  0  0  0  0  0  0
   19.9862   27.5836   24.0350 C   0  0  0  0  0  0  0  0  0  0  0  0
   19.0207   26.7164   23.4198 C   0  0  0  0  0  0  0  0  0  0  0  0
   17.7157   26.5814   23.9870 C   0  0  0  0  0  0  0  0  0  0  0  0
   17.3616   27.3018   25.1657 C   0  0  0  0  0  0  0  0  0  0  0  0
   18.3173   28.1641   25.7855 C   0  0  0  0  0  0  0  0  0  0  0  0
   19.6120   28.2908   25.2098 C   0  0  0  0  0  0  0  0  0  0  0  0
   17.9839   28.9467   27.0459 C   0  0  0  0  0  0  0  0  0  0  0  0
   18.9356   29.6280   27.6321 N   0  0  0  0  0  0  0  0  0  0  0  0
   16.7722   28.9258   27.5394 N   0  0  0  0  0  0  0  0  0  0  0  0
   19.8429   29.6352   27.2501 H   0  0  0  0  0  0  0  0  0  0  0  0
   18.7440   30.1334   28.4550 H   0  0  0  0  0  0  0  0  0  0  0  0
   16.0659   28.4092   27.0883 H   0  0  0  0  0  0  0  0  0  0  0  0
  8  9  1  0  0  0
  8 14  1  0  0  0
  8 16  1  0  0  0
  9 10  1  0  0  0
 10  2  1  0  0  0
 10 11  1  0  0  0
 10 12  1  0  0  0
  2  3  1  0  0  0
  3  4  2  0  0  0
  3  5  1  0  0  0
  5  1  1  0  0  0
  1 18  1  0  0  0
  1 30  1  0  0  0
 18 19  2  0  0  0
 18 20  1  0  0  0
 20 22  1  0  0  0
 22 23  1  0  0  0
 23 24  1  0  0  0
 24 25  2  0  0  0
 24 29  1  0  0  0
 25 26  1  0  0  0
 26 27  2  0  0  0
 27 28  1  0  0  0
 28 29  2  0  0  0
 30 31  1  0  0  0
 31 32  2  0  0  0
 31 36  1  0  0  0
 32 33  1  0  0  0
 33 34  2  0  0  0
 34 35  1  0  0  0
 35 37  1  0  0  0
 35 36  2  0  0  0
 37 38  1  0  0  0
 37 39  2  0  0  0
 11 17  1  0  0  0
 12 13  1  0  0  0
 13 14  1  0  0  0
 13 15  1  0  0  0
 15 17  1  0  0  0
 16 17  1  0  0  0
  2  6  1  0  0  0
  5  7  1  0  0  0
 20 21  1  0  0  0
 38 40  1  0  0  0
 38 41  1  0  0  0
 39 42  1  0  0  0
M  END
> <minimizedAffinity>
-10.84311

$$$$
3LIW_RUP_A_1


 42 46  0  0  0  0  0  0  0  0999 V2000
   21.6854   28.2830   22.0305 C   0  0  0  0  0  0  0  0  0  0  0  0
   21.3004   31.7329   20.6844 N   0  0  0  0  0  0  0  0  0  0  0  0
   21.1901   30.3781   20.7682 C   0  0  0  0  0  0  0  0  0  0  0  0
   20.7506   29.7141   19.8286 O   0  0  0  0  0  0  0  0  0  0  0  0
   21.6288   29.7680   21.9102 N   0  0  0  0  0  0  0  0  0  0  0  0
   21.6605   32.2305   21.4537 H   0  0  0  0  0  0  0  0  0  0  0  0
   21.9144   30.3227   22.6718 H   0  0  0  0  0  0  0  0  0  0  0  0
   19.1475   32.7030   17.5856 C   0  0  0  0  0  0  0  0  0  0  0  0
   19.5720   31.8775   18.8576 C   0  0  0  0  0  0  0  0  0  0  0  0
   20.8947   32.4823   19.4697 C   0  0  0  0  0  0  0  0  0  0  0  0
   20.6423   33.9920   19.8706 C   0  0  0  0  0  0  0  0  0  0  0  0
   22.0678   32.3902   18.3786 C   0  0  0  0  0  0  0  0  0  0  0  0
   21.6281   33.2347   17.1023 C   0  0  0  0  0  0  0  0  0  0  0  0
   20.2871   32.6450   16.4998 C   0  0  0  0  0  0  0  0  0  0  0  0
   21.3711   34.7356   17.5250 C   0  0  0  0  0  0  0  0  0  0  0  0
   18.8991   34.2051   18.0008 C   0  0  0  0  0  0  0  0  0  0  0  0
   20.2253   34.8137   18.5959 C   0  0  0  0  0  0  0  0  0  0  0  0
   23.1305   27.9453   21.5876 C   0  0  0  0  0  0  0  0  0  0  0  0
   23.9871   28.2251   22.4220 O   0  0  0  0  0  0  0  0  0  0  0  0
   23.5902   27.3998   20.4273 N   0  0  0  0  0  0  0  0  0  0  0  0
   24.5690   27.3023   20.3865 H   0  0  0  0  0  0  0  0  0  0  0  0
   22.8918   26.9344   19.2348 C   0  0  0  0  0  0  0  0  0  0  0  0
   23.7963   26.7560   17.9755 C   0  0  0  0  0  0  0  0  0  0  0  0
   23.3496   27.5795   16.7427 C   0  0  0  0  0  0  0  0  0  0  0  0
   23.2765   27.0795   15.4021 C   0  0  0  0  0  0  0  0  0  0  0  0
   22.8277   27.9069   14.3318 C   0  0  0  0  0  0  0  0  0  0  0  0
   22.4433   29.2510   14.5867 C   0  0  0  0  0  0  0  0  0  0  0  0
   22.5113   29.7619   15.9110 C   0  0  0  0  0  0  0  0  0  0  0  0
   22.9593   28.9285   16.9729 C   0  0  0  0  0  0  0  0  0  0  0  0
   21.5174   27.8467   23.5242 C   0  0  0  0  0  0  0  0  0  0  0  0
   20.0652   27.6184   24.0390 C   0  0  0  0  0  0  0  0  0  0  0  0
   19.1035   26.7712   23.3908 C   0  0  0  0  0  0  0  0  0  0  0  0
   17.7915   26.6276   23.9391 C   0  0  0  0  0  0  0  0  0  0  0  0
   17.4263   27.3196   25.1314 C   0  0  0  0  0  0  0  0  0  0  0  0
   18.3782   28.1617   25.7840 C   0  0  0  0  0  0  0  0  0  0  0  0
   19.6801   28.2973   25.2268 C   0  0  0  0  0  0  0  0  0  0  0  0
   18.0332   28.9138   27.0598 C   0  0  0  0  0  0  0  0  0  0  0  0
   16.7883   28.9257   27.4645 N   0  0  0  0  0  0  0  0  0  0  0  0
   18.9623   29.5467   27.7292 N   0  0  0  0  0  0  0  0  0  0  0  0
   16.0992   28.4452   26.9512 H   0  0  0  0  0  0  0  0  0  0  0  0
   16.5413   29.4153   28.2821 H   0  0  0  0  0  0  0  0  0  0  0  0
   19.8947   29.5295   27.4136 H   0  0  0  0  0  0  0  0  0  0  0  0
  8  9  1  0  0  0
  8 14  1  0  0  0
  8 16  1  0  0  0
  9 10  1  0  0  0
 10  2  1  0  0  0
 10 11  1  0  0  0
 10 12  1  0  0  0
  2  3  1  0  0  0
  3  4  2  0  0  0
  3  5  1  0  0  0
  5  1  1  0  0  0
  1 18  1  0  0  0
  1 30  1  0  0  0
 18 19  2  0  0  0
 18 20  1  0  0  0
 20 22  1  0  0  0
 22 23  1  0  0  0
 23 24  1  0  0  0
 24 25  2  0  0  0
 24 29  1  0  0  0
 25 26  1  0  0  0
 26 27  2  0  0  0
 27 28  1  0  0  0
 28 29  2  0  0  0
 30 31  1  0  0  0
 31 32  2  0  0  0
 31 36  1  0  0  0
 32 33  1  0  0  0
 33 34  2  0  0  0
 34 35  1  0  0  0
 35 37  1  0  0  0
 35 36  2  0  0  0
 37 38  1  0  0  0
 37 39  2  0  0  0
 11 17  1  0  0  0
 12 13  1  0  0  0
 13 14  1  0  0  0
 13 15  1  0  0  0
 15 17  1  0  0  0
 16 17  1  0  0  0
  2  6  1  0  0  0
  5  7  1  0  0  0
 20 21  1  0  0  0
 38 40  1  0  0  0
 38 41  1  0  0  0
 39 42  1  0  0  0
M  END
> <minimizedAffinity>
-10.74472

$$$$
3LIW_RUP_A_1


 42 46  0  0  0  0  0  0  0  0999 V2000
   20.0607   27.6731   22.9999 C   0  0  0  0  0  0  0  0  0  0  0  0
   23.6591   26.9094   23.5744 N   0  0  0  0  0  0  0  0  0  0  0  0
   22.5077   27.6315   23.4881 C   0  0  0  0  0  0  0  0  0  0  0  0
   22.5173   28.8604   23.5704 O   0  0  0  0  0  0  0  0  0  0  0  0
   21.3421   26.9556   23.2571 N   0  0  0  0  0  0  0  0  0  0  0  0
   23.6137   25.9288   23.4997 H   0  0  0  0  0  0  0  0  0  0  0  0
   21.3490   25.9712   23.2606 H   0  0  0  0  0  0  0  0  0  0  0  0
   26.6797   29.2649   22.8635 C   0  0  0  0  0  0  0  0  0  0  0  0
   25.2863   28.5753   22.6141 C   0  0  0  0  0  0  0  0  0  0  0  0
   24.9798   27.5544   23.7776 C   0  0  0  0  0  0  0  0  0  0  0  0
   24.9554   28.3274   25.1580 C   0  0  0  0  0  0  0  0  0  0  0  0
   26.1193   26.4247   23.7983 C   0  0  0  0  0  0  0  0  0  0  0  0
   27.5203   27.1353   24.0585 C   0  0  0  0  0  0  0  0  0  0  0  0
   27.8196   28.1787   22.9048 C   0  0  0  0  0  0  0  0  0  0  0  0
   27.4722   27.9095   25.4354 C   0  0  0  0  0  0  0  0  0  0  0  0
   26.6400   30.0315   24.2424 C   0  0  0  0  0  0  0  0  0  0  0  0
   26.3512   29.0087   25.4059 C   0  0  0  0  0  0  0  0  0  0  0  0
   19.7995   27.4066   21.4968 C   0  0  0  0  0  0  0  0  0  0  0  0
   19.1992   26.3590   21.2720 O   0  0  0  0  0  0  0  0  0  0  0  0
   20.1358   28.1429   20.4015 N   0  0  0  0  0  0  0  0  0  0  0  0
   19.8657   27.7397   19.5449 H   0  0  0  0  0  0  0  0  0  0  0  0
   20.8245   29.4217   20.2706 C   0  0  0  0  0  0  0  0  0  0  0  0
   20.5718   30.1651   18.9219 C   0  0  0  0  0  0  0  0  0  0  0  0
   20.3726   31.6944   19.0596 C   0  0  0  0  0  0  0  0  0  0  0  0
   21.1317   32.5482   19.9241 C   0  0  0  0  0  0  0  0  0  0  0  0
   20.8937   33.9529   19.9649 C   0  0  0  0  0  0  0  0  0  0  0  0
   19.8903   34.5272   19.1388 C   0  0  0  0  0  0  0  0  0  0  0  0
   19.1281   33.6934   18.2766 C   0  0  0  0  0  0  0  0  0  0  0  0
   19.3734   32.2928   18.2418 C   0  0  0  0  0  0  0  0  0  0  0  0
   18.8954   27.0263   23.8207 C   0  0  0  0  0  0  0  0  0  0  0  0
   18.3698   27.8186   25.0543 C   0  0  0  0  0  0  0  0  0  0  0  0
   19.2111   28.5407   25.9673 C   0  0  0  0  0  0  0  0  0  0  0  0
   18.6342   29.2363   27.0747 C   0  0  0  0  0  0  0  0  0  0  0  0
   17.2234   29.2221   27.2820 C   0  0  0  0  0  0  0  0  0  0  0  0
   16.3793   28.5088   26.3765 C   0  0  0  0  0  0  0  0  0  0  0  0
   16.9664   27.8192   25.2794 C   0  0  0  0  0  0  0  0  0  0  0  0
   14.8699   28.4715   26.5567 C   0  0  0  0  0  0  0  0  0  0  0  0
   14.3816   28.4981   27.7709 N   0  0  0  0  0  0  0  0  0  0  0  0
   14.0788   28.4002   25.5169 N   0  0  0  0  0  0  0  0  0  0  0  0
   14.9884   28.5519   28.5444 H   0  0  0  0  0  0  0  0  0  0  0  0
   13.4077   28.4643   27.9107 H   0  0  0  0  0  0  0  0  0  0  0  0
   14.4594   28.3810   24.6091 H   0  0  0  0  0  0  0  0  0  0  0  0
  8  9  1  0  0  0
  8 14  1  0  0  0
  8 16  1  0  0  0
  9 10  1  0  0  0
 10  2  1  0  0  0
 10 11  1  0  0  0
 10 12  1  0  0  0
  2  3  1  0  0  0
  3  4  2  0  0  0
  3  5  1  0  0  0
  5  1  1  0  0  0
  1 18  1  0  0  0
  1 30  1  0  0  0
 18 19  2  0  0  0
 18 20  1  0  0  0
 20 22  1  0  0  0
 22 23  1  0  0  0
 23 24  1  0  0  0
 24 25  2  0  0  0
 24 29  1  0  0  0
 25 26  1  0  0  0
 26 27  2  0  0  0
 27 28  1  0  0  0
 28 29  2  0  0  0
 30 31  1  0  0  0
 31 32  2  0  0  0
 31 36  1  0  0  0
 32 33  1  0  0  0
 33 34  2  0  0  0
 34 35  1  0  0  0
 35 37  1  0  0  0
 35 36  2  0  0  0
 37 38  1  0  0  0
 37 39  2  0  0  0
 11 17  1  0  0  0
 12 13  1  0  0  0
 13 14  1  0  0  0
 13 15  1  0  0  0
 15 17  1  0  0  0
 16 17  1  0  0  0
  2  6  1  0  0  0
  5  7  1  0  0  0
 20 21  1  0  0  0
 38 40  1  0  0  0
 38 41  1  0  0  0
 39 42  1  0  0  0
M  END
> <minimizedAffinity>
-10.37430

$$$$
3LIW_RUP_A_1


 42 46  0  0  0  0  0  0  0  0999 V2000
   21.9075   28.2815   22.2223 C   0  0  0  0  0  0  0  0  0  0  0  0
   21.1682   31.6867   20.9107 N   0  0  0  0  0  0  0  0  0  0  0  0
   21.3033   30.3318   20.9340 C   0  0  0  0  0  0  0  0  0  0  0  0
   21.2103   29.6631   19.9038 O   0  0  0  0  0  0  0  0  0  0  0  0
   21.5955   29.7365   22.1295 N   0  0  0  0  0  0  0  0  0  0  0  0
   21.2533   32.1890   21.7531 H   0  0  0  0  0  0  0  0  0  0  0  0
   21.6001   30.2819   22.9492 H   0  0  0  0  0  0  0  0  0  0  0  0
   20.4082   34.7337   18.6050 C   0  0  0  0  0  0  0  0  0  0  0  0
   20.6696   33.9624   19.9527 C   0  0  0  0  0  0  0  0  0  0  0  0
   20.8967   32.4294   19.6552 C   0  0  0  0  0  0  0  0  0  0  0  0
   22.1413   32.2627   18.6925 C   0  0  0  0  0  0  0  0  0  0  0  0
   19.5797   31.8286   18.9629 C   0  0  0  0  0  0  0  0  0  0  0  0
   19.3322   32.6124   17.5991 C   0  0  0  0  0  0  0  0  0  0  0  0
   19.1282   34.1556   17.8921 C   0  0  0  0  0  0  0  0  0  0  0  0
   20.5894   32.4423   16.6566 C   0  0  0  0  0  0  0  0  0  0  0  0
   21.6571   34.5588   17.6562 C   0  0  0  0  0  0  0  0  0  0  0  0
   21.8727   33.0291   17.3455 C   0  0  0  0  0  0  0  0  0  0  0  0
   23.4329   28.2276   21.9597 C   0  0  0  0  0  0  0  0  0  0  0  0
   23.7376   27.7081   20.8893 O   0  0  0  0  0  0  0  0  0  0  0  0
   24.4733   28.6558   22.7272 N   0  0  0  0  0  0  0  0  0  0  0  0
   25.3607   28.4870   22.3358 H   0  0  0  0  0  0  0  0  0  0  0  0
   24.5078   29.3197   24.0252 C   0  0  0  0  0  0  0  0  0  0  0  0
   25.1841   28.4941   25.1638 C   0  0  0  0  0  0  0  0  0  0  0  0
   26.6933   28.2220   24.9497 C   0  0  0  0  0  0  0  0  0  0  0  0
   27.7340   29.1950   25.1003 C   0  0  0  0  0  0  0  0  0  0  0  0
   29.1020   28.8449   24.9068 C   0  0  0  0  0  0  0  0  0  0  0  0
   29.4515   27.5122   24.5593 C   0  0  0  0  0  0  0  0  0  0  0  0
   28.4305   26.5358   24.4052 C   0  0  0  0  0  0  0  0  0  0  0  0
   27.0681   26.8940   24.6014 C   0  0  0  0  0  0  0  0  0  0  0  0
   21.6422   27.7548   23.6721 C   0  0  0  0  0  0  0  0  0  0  0  0
   20.1563   27.5646   24.0984 C   0  0  0  0  0  0  0  0  0  0  0  0
   19.2144   26.7399   23.3945 C   0  0  0  0  0  0  0  0  0  0  0  0
   17.8685   26.6309   23.8626 C   0  0  0  0  0  0  0  0  0  0  0  0
   17.4495   27.3353   25.0297 C   0  0  0  0  0  0  0  0  0  0  0  0
   18.3811   28.1552   25.7375 C   0  0  0  0  0  0  0  0  0  0  0  0
   19.7173   28.2564   25.2599 C   0  0  0  0  0  0  0  0  0  0  0  0
   17.9788   28.9193   26.9890 C   0  0  0  0  0  0  0  0  0  0  0  0
   18.8899   29.6167   27.6191 N   0  0  0  0  0  0  0  0  0  0  0  0
   16.7486   28.8671   27.4320 N   0  0  0  0  0  0  0  0  0  0  0  0
   19.8117   29.6473   27.2748 H   0  0  0  0  0  0  0  0  0  0  0  0
   18.6534   30.1105   28.4373 H   0  0  0  0  0  0  0  0  0  0  0  0
   16.0733   28.3388   26.9483 H   0  0  0  0  0  0  0  0  0  0  0  0
  8  9  1  0  0  0
  8 14  1  0  0  0
  8 16  1  0  0  0
  9 10  1  0  0  0
 10  2  1  0  0  0
 10 11  1  0  0  0
 10 12  1  0  0  0
  2  3  1  0  0  0
  3  4  2  0  0  0
  3  5  1  0  0  0
  5  1  1  0  0  0
  1 18  1  0  0  0
  1 30  1  0  0  0
 18 19  2  0  0  0
 18 20  1  0  0  0
 20 22  1  0  0  0
 22 23  1  0  0  0
 23 24  1  0  0  0
 24 25  2  0  0  0
 24 29  1  0  0  0
 25 26  1  0  0  0
 26 27  2  0  0  0
 27 28  1  0  0  0
 28 29  2  0  0  0
 30 31  1  0  0  0
 31 32  2  0  0  0
 31 36  1  0  0  0
 32 33  1  0  0  0
 33 34  2  0  0  0
 34 35  1  0  0  0
 35 37  1  0  0  0
 35 36  2  0  0  0
 37 38  1  0  0  0
 37 39  2  0  0  0
 11 17  1  0  0  0
 12 13  1  0  0  0
 13 14  1  0  0  0
 13 15  1  0  0  0
 15 17  1  0  0  0
 16 17  1  0  0  0
  2  6  1  0  0  0
  5  7  1  0  0  0
 20 21  1  0  0  0
 38 40  1  0  0  0
 38 41  1  0  0  0
 39 42  1  0  0  0
M  END
> <minimizedAffinity>
-10.20499

$$$$
3LIW_RUP_A_1


 42 46  0  0  0  0  0  0  0  0999 V2000
   21.8823   28.1774   22.2083 C   0  0  0  0  0  0  0  0  0  0  0  0
   21.5508   31.6270   20.8471 N   0  0  0  0  0  0  0  0  0  0  0  0
   21.3887   30.2793   20.9566 C   0  0  0  0  0  0  0  0  0  0  0  0
   20.8550   29.6256   20.0594 O   0  0  0  0  0  0  0  0  0  0  0  0
   21.8812   29.6622   22.0727 N   0  0  0  0  0  0  0  0  0  0  0  0
   21.9860   32.1162   21.5823 H   0  0  0  0  0  0  0  0  0  0  0  0
   22.2440   30.2116   22.8046 H   0  0  0  0  0  0  0  0  0  0  0  0
   21.6609   33.1162   17.2488 C   0  0  0  0  0  0  0  0  0  0  0  0
   22.1792   32.3315   18.5118 C   0  0  0  0  0  0  0  0  0  0  0  0
   21.0920   32.3810   19.6544 C   0  0  0  0  0  0  0  0  0  0  0  0
   19.7515   31.7249   19.1290 C   0  0  0  0  0  0  0  0  0  0  0  0
   20.8330   33.9101   20.0664 C   0  0  0  0  0  0  0  0  0  0  0  0
   20.3028   34.6887   18.7826 C   0  0  0  0  0  0  0  0  0  0  0  0
   21.3819   34.6201   17.6250 C   0  0  0  0  0  0  0  0  0  0  0  0
   18.9705   34.0125   18.2676 C   0  0  0  0  0  0  0  0  0  0  0  0
   20.3249   32.4506   16.7364 C   0  0  0  0  0  0  0  0  0  0  0  0
   19.2342   32.5160   17.8719 C   0  0  0  0  0  0  0  0  0  0  0  0
   23.3370   27.7885   21.8462 C   0  0  0  0  0  0  0  0  0  0  0  0
   24.1044   27.7762   22.8051 O   0  0  0  0  0  0  0  0  0  0  0  0
   23.8886   27.4697   20.6424 N   0  0  0  0  0  0  0  0  0  0  0  0
   24.8530   27.2751   20.6786 H   0  0  0  0  0  0  0  0  0  0  0  0
   23.3062   27.3651   19.3096 C   0  0  0  0  0  0  0  0  0  0  0  0
   24.2624   26.7828   18.2223 C   0  0  0  0  0  0  0  0  0  0  0  0
   23.6520   26.7143   16.8010 C   0  0  0  0  0  0  0  0  0  0  0  0
   23.6940   27.7723   15.8359 C   0  0  0  0  0  0  0  0  0  0  0  0
   23.1255   27.6082   14.5392 C   0  0  0  0  0  0  0  0  0  0  0  0
   22.5049   26.3796   14.1865 C   0  0  0  0  0  0  0  0  0  0  0  0
   22.4542   25.3210   15.1332 C   0  0  0  0  0  0  0  0  0  0  0  0
   23.0252   25.4934   16.4244 C   0  0  0  0  0  0  0  0  0  0  0  0
   21.6208   27.7621   23.6946 C   0  0  0  0  0  0  0  0  0  0  0  0
   20.1369   27.5788   24.1309 C   0  0  0  0  0  0  0  0  0  0  0  0
   19.1859   26.7602   23.4320 C   0  0  0  0  0  0  0  0  0  0  0  0
   17.8427   26.6575   23.9093 C   0  0  0  0  0  0  0  0  0  0  0  0
   17.4355   27.3620   25.0804 C   0  0  0  0  0  0  0  0  0  0  0  0
   18.3762   28.1758   25.7831 C   0  0  0  0  0  0  0  0  0  0  0  0
   19.7096   28.2709   25.2965 C   0  0  0  0  0  0  0  0  0  0  0  0
   17.9864   28.9399   27.0387 C   0  0  0  0  0  0  0  0  0  0  0  0
   18.8969   29.6602   27.6435 N   0  0  0  0  0  0  0  0  0  0  0  0
   16.7680   28.8652   27.5100 N   0  0  0  0  0  0  0  0  0  0  0  0
   19.8098   29.7076   27.2780 H   0  0  0  0  0  0  0  0  0  0  0  0
   18.6687   30.1545   28.4637 H   0  0  0  0  0  0  0  0  0  0  0  0
   16.0930   28.3197   27.0451 H   0  0  0  0  0  0  0  0  0  0  0  0
  8  9  1  0  0  0
  8 14  1  0  0  0
  8 16  1  0  0  0
  9 10  1  0  0  0
 10  2  1  0  0  0
 10 11  1  0  0  0
 10 12  1  0  0  0
  2  3  1  0  0  0
  3  4  2  0  0  0
  3  5  1  0  0  0
  5  1  1  0  0  0
  1 18  1  0  0  0
  1 30  1  0  0  0
 18 19  2  0  0  0
 18 20  1  0  0  0
 20 22  1  0  0  0
 22 23  1  0  0  0
 23 24  1  0  0  0
 24 25  2  0  0  0
 24 29  1  0  0  0
 25 26  1  0  0  0
 26 27  2  0  0  0
 27 28  1  0  0  0
 28 29  2  0  0  0
 30 31  1  0  0  0
 31 32  2  0  0  0
 31 36  1  0  0  0
 32 33  1  0  0  0
 33 34  2  0  0  0
 34 35  1  0  0  0
 35 37  1  0  0  0
 35 36  2  0  0  0
 37 38  1  0  0  0
 37 39  2  0  0  0
 11 17  1  0  0  0
 12 13  1  0  0  0
 13 14  1  0  0  0
 13 15  1  0  0  0
 15 17  1  0  0  0
 16 17  1  0  0  0
  2  6  1  0  0  0
  5  7  1  0  0  0
 20 21  1  0  0  0
 38 40  1  0  0  0
 38 41  1  0  0  0
 39 42  1  0  0  0
M  END
> <minimizedAffinity>
-10.04356

$$$$
3LIW_RUP_A_1


 42 46  0  0  0  0  0  0  0  0999 V2000
   21.8571   28.9483   22.6710 C   0  0  0  0  0  0  0  0  0  0  0  0
   24.7434   31.2760   23.0072 N   0  0  0  0  0  0  0  0  0  0  0  0
   23.5435   30.7860   22.5891 C   0  0  0  0  0  0  0  0  0  0  0  0
   22.9101   31.3338   21.6859 O   0  0  0  0  0  0  0  0  0  0  0  0
   23.0830   29.6363   23.1678 N   0  0  0  0  0  0  0  0  0  0  0  0
   25.2238   30.8093   23.7287 H   0  0  0  0  0  0  0  0  0  0  0  0
   23.5727   29.2534   23.9313 H   0  0  0  0  0  0  0  0  0  0  0  0
   26.4220   33.5225   20.3028 C   0  0  0  0  0  0  0  0  0  0  0  0
   25.8056   32.2137   20.9245 C   0  0  0  0  0  0  0  0  0  0  0  0
   25.3493   32.4914   22.4093 C   0  0  0  0  0  0  0  0  0  0  0  0
   24.2693   33.6477   22.4164 C   0  0  0  0  0  0  0  0  0  0  0  0
   26.6267   32.9244   23.2785 C   0  0  0  0  0  0  0  0  0  0  0  0
   27.2344   34.2519   22.6432 C   0  0  0  0  0  0  0  0  0  0  0  0
   27.6711   33.9831   21.1446 C   0  0  0  0  0  0  0  0  0  0  0  0
   26.1384   35.3905   22.6501 C   0  0  0  0  0  0  0  0  0  0  0  0
   25.3341   34.6657   20.3164 C   0  0  0  0  0  0  0  0  0  0  0  0
   24.8916   34.9546   21.8010 C   0  0  0  0  0  0  0  0  0  0  0  0
   22.2671   28.4690   21.2565 C   0  0  0  0  0  0  0  0  0  0  0  0
   23.2086   27.6804   21.2495 O   0  0  0  0  0  0  0  0  0  0  0  0
   21.7547   28.7900   20.0361 N   0  0  0  0  0  0  0  0  0  0  0  0
   22.2112   28.3564   19.2793 H   0  0  0  0  0  0  0  0  0  0  0  0
   20.6507   29.6612   19.6501 C   0  0  0  0  0  0  0  0  0  0  0  0
   20.9555   30.6088   18.4481 C   0  0  0  0  0  0  0  0  0  0  0  0
   20.4539   32.0619   18.6333 C   0  0  0  0  0  0  0  0  0  0  0  0
   21.1544   33.0895   19.3447 C   0  0  0  0  0  0  0  0  0  0  0  0
   20.6249   34.4093   19.4412 C   0  0  0  0  0  0  0  0  0  0  0  0
   19.3834   34.7229   18.8253 C   0  0  0  0  0  0  0  0  0  0  0  0
   18.6760   33.7142   18.1170 C   0  0  0  0  0  0  0  0  0  0  0  0
   19.2127   32.4002   18.0251 C   0  0  0  0  0  0  0  0  0  0  0  0
   21.5446   27.6866   23.5430 C   0  0  0  0  0  0  0  0  0  0  0  0
   20.0771   27.5072   24.0333 C   0  0  0  0  0  0  0  0  0  0  0  0
   19.1017   26.6839   23.3748 C   0  0  0  0  0  0  0  0  0  0  0  0
   17.7763   26.5853   23.9004 C   0  0  0  0  0  0  0  0  0  0  0  0
   17.4112   27.2985   25.0801 C   0  0  0  0  0  0  0  0  0  0  0  0
   18.3766   28.1170   25.7429 C   0  0  0  0  0  0  0  0  0  0  0  0
   19.6918   28.2080   25.2083 C   0  0  0  0  0  0  0  0  0  0  0  0
   18.0320   28.8904   27.0059 C   0  0  0  0  0  0  0  0  0  0  0  0
   18.9913   29.5140   27.6418 N   0  0  0  0  0  0  0  0  0  0  0  0
   16.8024   28.9181   27.4528 N   0  0  0  0  0  0  0  0  0  0  0  0
   19.9120   29.4850   27.2945 H   0  0  0  0  0  0  0  0  0  0  0  0
   18.7921   30.0120   28.4673 H   0  0  0  0  0  0  0  0  0  0  0  0
   16.0905   28.4447   26.9646 H   0  0  0  0  0  0  0  0  0  0  0  0
  8  9  1  0  0  0
  8 14  1  0  0  0
  8 16  1  0  0  0
  9 10  1  0  0  0
 10  2  1  0  0  0
 10 11  1  0  0  0
 10 12  1  0  0  0
  2  3  1  0  0  0
  3  4  2  0  0  0
  3  5  1  0  0  0
  5  1  1  0  0  0
  1 18  1  0  0  0
  1 30  1  0  0  0
 18 19  2  0  0  0
 18 20  1  0  0  0
 20 22  1  0  0  0
 22 23  1  0  0  0
 23 24  1  0  0  0
 24 25  2  0  0  0
 24 29  1  0  0  0
 25 26  1  0  0  0
 26 27  2  0  0  0
 27 28  1  0  0  0
 28 29  2  0  0  0
 30 31  1  0  0  0
 31 32  2  0  0  0
 31 36  1  0  0  0
 32 33  1  0  0  0
 33 34  2  0  0  0
 34 35  1  0  0  0
 35 37  1  0  0  0
 35 36  2  0  0  0
 37 38  1  0  0  0
 37 39  2  0  0  0
 11 17  1  0  0  0
 12 13  1  0  0  0
 13 14  1  0  0  0
 13 15  1  0  0  0
 15 17  1  0  0  0
 16 17  1  0  0  0
  2  6  1  0  0  0
  5  7  1  0  0  0
 20 21  1  0  0  0
 38 40  1  0  0  0
 38 41  1  0  0  0
 39 42  1  0  0  0
M  END
> <minimizedAffinity>
-10.02748

$$$$
3LIW_RUP_A_1


 42 46  0  0  0  0  0  0  0  0999 V2000
   22.6740   28.7012   22.3636 C   0  0  0  0  0  0  0  0  0  0  0  0
   21.7690   31.9677   20.8231 N   0  0  0  0  0  0  0  0  0  0  0  0
   21.8304   30.6200   21.0091 C   0  0  0  0  0  0  0  0  0  0  0  0
   21.4013   29.8382   20.1596 O   0  0  0  0  0  0  0  0  0  0  0  0
   22.4289   30.1559   22.1472 N   0  0  0  0  0  0  0  0  0  0  0  0
   22.1261   32.5623   21.5218 H   0  0  0  0  0  0  0  0  0  0  0  0
   22.7047   30.7978   22.8408 H   0  0  0  0  0  0  0  0  0  0  0  0
   19.2695   32.4447   17.8729 C   0  0  0  0  0  0  0  0  0  0  0  0
   19.8900   31.7759   19.1564 C   0  0  0  0  0  0  0  0  0  0  0  0
   21.1807   32.5679   19.6003 C   0  0  0  0  0  0  0  0  0  0  0  0
   20.7905   34.0689   19.9139 C   0  0  0  0  0  0  0  0  0  0  0  0
   22.2620   32.5151   18.4159 C   0  0  0  0  0  0  0  0  0  0  0  0
   21.6240   33.2009   17.1282 C   0  0  0  0  0  0  0  0  0  0  0  0
   20.3143   32.4226   16.6944 C   0  0  0  0  0  0  0  0  0  0  0  0
   21.2321   34.6945   17.4646 C   0  0  0  0  0  0  0  0  0  0  0  0
   18.8854   33.9398   18.2010 C   0  0  0  0  0  0  0  0  0  0  0  0
   20.1776   34.7346   18.6274 C   0  0  0  0  0  0  0  0  0  0  0  0
   24.2112   28.5750   22.2230 C   0  0  0  0  0  0  0  0  0  0  0  0
   24.5966   27.4413   21.9500 O   0  0  0  0  0  0  0  0  0  0  0  0
   25.1872   29.5148   22.3612 N   0  0  0  0  0  0  0  0  0  0  0  0
   26.1009   29.1700   22.2362 H   0  0  0  0  0  0  0  0  0  0  0  0
   25.1210   30.9403   22.6613 C   0  0  0  0  0  0  0  0  0  0  0  0
   25.3338   31.8776   21.4318 C   0  0  0  0  0  0  0  0  0  0  0  0
   25.3341   33.3888   21.7693 C   0  0  0  0  0  0  0  0  0  0  0  0
   24.7723   33.9672   22.9535 C   0  0  0  0  0  0  0  0  0  0  0  0
   24.8427   35.3707   23.1913 C   0  0  0  0  0  0  0  0  0  0  0  0
   25.4786   36.2199   22.2460 C   0  0  0  0  0  0  0  0  0  0  0  0
   26.0398   35.6614   21.0659 C   0  0  0  0  0  0  0  0  0  0  0  0
   25.9657   34.2595   20.8376 C   0  0  0  0  0  0  0  0  0  0  0  0
   22.2811   28.2895   23.8216 C   0  0  0  0  0  0  0  0  0  0  0  0
   20.8049   27.8561   24.0645 C   0  0  0  0  0  0  0  0  0  0  0  0
   20.1086   26.8834   23.2695 C   0  0  0  0  0  0  0  0  0  0  0  0
   18.7506   26.5537   23.5693 C   0  0  0  0  0  0  0  0  0  0  0  0
   18.0769   27.1830   24.6572 C   0  0  0  0  0  0  0  0  0  0  0  0
   18.7634   28.1492   25.4548 C   0  0  0  0  0  0  0  0  0  0  0  0
   20.1143   28.4697   25.1447 C   0  0  0  0  0  0  0  0  0  0  0  0
   18.0853   28.8406   26.6272 C   0  0  0  0  0  0  0  0  0  0  0  0
   18.8314   29.3260   27.5869 N   0  0  0  0  0  0  0  0  0  0  0  0
   16.7811   28.9340   26.6788 N   0  0  0  0  0  0  0  0  0  0  0  0
   19.8115   29.2489   27.5353 H   0  0  0  0  0  0  0  0  0  0  0  0
   18.4125   29.7683   28.3603 H   0  0  0  0  0  0  0  0  0  0  0  0
   16.2319   28.5645   25.9501 H   0  0  0  0  0  0  0  0  0  0  0  0
  8  9  1  0  0  0
  8 14  1  0  0  0
  8 16  1  0  0  0
  9 10  1  0  0  0
 10  2  1  0  0  0
 10 11  1  0  0  0
 10 12  1  0  0  0
  2  3  1  0  0  0
  3  4  2  0  0  0
  3  5  1  0  0  0
  5  1  1  0  0  0
  1 18  1  0  0  0
  1 30  1  0  0  0
 18 19  2  0  0  0
 18 20  1  0  0  0
 20 22  1  0  0  0
 22 23  1  0  0  0
 23 24  1  0  0  0
 24 25  2  0  0  0
 24 29  1  0  0  0
 25 26  1  0  0  0
 26 27  2  0  0  0
 27 28  1  0  0  0
 28 29  2  0  0  0
 30 31  1  0  0  0
 31 32  2  0  0  0
 31 36  1  0  0  0
 32 33  1  0  0  0
 33 34  2  0  0  0
 34 35  1  0  0  0
 35 37  1  0  0  0
 35 36  2  0  0  0
 37 38  1  0  0  0
 37 39  2  0  0  0
 11 17  1  0  0  0
 12 13  1  0  0  0
 13 14  1  0  0  0
 13 15  1  0  0  0
 15 17  1  0  0  0
 16 17  1  0  0  0
  2  6  1  0  0  0
  5  7  1  0  0  0
 20 21  1  0  0  0
 38 40  1  0  0  0
 38 41  1  0  0  0
 39 42  1  0  0  0
M  END
> <minimizedAffinity>
-9.83234

$$$$
3LIW_RUP_A_1


 42 46  0  0  0  0  0  0  0  0999 V2000
   22.7019   28.0838   22.6546 C   0  0  0  0  0  0  0  0  0  0  0  0
   21.9598   31.4460   21.2382 N   0  0  0  0  0  0  0  0  0  0  0  0
   21.9754   30.0898   21.3599 C   0  0  0  0  0  0  0  0  0  0  0  0
   21.5649   29.3628   20.4543 O   0  0  0  0  0  0  0  0  0  0  0  0
   22.5073   29.5538   22.4995 N   0  0  0  0  0  0  0  0  0  0  0  0
   22.3002   31.9954   21.9808 H   0  0  0  0  0  0  0  0  0  0  0  0
   22.7681   30.1531   23.2358 H   0  0  0  0  0  0  0  0  0  0  0  0
   20.7318   34.3657   18.9697 C   0  0  0  0  0  0  0  0  0  0  0  0
   21.2537   33.6663   20.2804 C   0  0  0  0  0  0  0  0  0  0  0  0
   21.4457   32.1216   20.0212 C   0  0  0  0  0  0  0  0  0  0  0  0
   22.4904   31.9141   18.8511 C   0  0  0  0  0  0  0  0  0  0  0  0
   20.0322   31.4772   19.6192 C   0  0  0  0  0  0  0  0  0  0  0  0
   19.5209   32.1884   18.2895 C   0  0  0  0  0  0  0  0  0  0  0  0
   19.3504   33.7432   18.5394 C   0  0  0  0  0  0  0  0  0  0  0  0
   20.5817   31.9786   17.1369 C   0  0  0  0  0  0  0  0  0  0  0  0
   21.7834   34.1507   17.8128 C   0  0  0  0  0  0  0  0  0  0  0  0
   21.9617   32.6085   17.5425 C   0  0  0  0  0  0  0  0  0  0  0  0
   24.2426   27.9264   22.6456 C   0  0  0  0  0  0  0  0  0  0  0  0
   24.6556   27.0120   23.3540 O   0  0  0  0  0  0  0  0  0  0  0  0
   25.1962   28.6418   21.9869 N   0  0  0  0  0  0  0  0  0  0  0  0
   26.1183   28.3472   22.1660 H   0  0  0  0  0  0  0  0  0  0  0  0
   25.0954   29.7663   21.0639 C   0  0  0  0  0  0  0  0  0  0  0  0
   25.7675   31.0836   21.5628 C   0  0  0  0  0  0  0  0  0  0  0  0
   25.5901   32.2939   20.6134 C   0  0  0  0  0  0  0  0  0  0  0  0
   24.9814   33.5397   20.9739 C   0  0  0  0  0  0  0  0  0  0  0  0
   24.8851   34.6097   20.0372 C   0  0  0  0  0  0  0  0  0  0  0  0
   25.3982   34.4500   18.7218 C   0  0  0  0  0  0  0  0  0  0  0  0
   26.0040   33.2198   18.3487 C   0  0  0  0  0  0  0  0  0  0  0  0
   26.0966   32.1580   19.2905 C   0  0  0  0  0  0  0  0  0  0  0  0
   22.1696   27.6036   24.0459 C   0  0  0  0  0  0  0  0  0  0  0  0
   20.6289   27.4324   24.1970 C   0  0  0  0  0  0  0  0  0  0  0  0
   19.8201   26.6141   23.3375 C   0  0  0  0  0  0  0  0  0  0  0  0
   18.4104   26.5229   23.5547 C   0  0  0  0  0  0  0  0  0  0  0  0
   17.7958   27.2389   24.6239 C   0  0  0  0  0  0  0  0  0  0  0  0
   18.5938   28.0527   25.4854 C   0  0  0  0  0  0  0  0  0  0  0  0
   19.9954   28.1361   25.2571 C   0  0  0  0  0  0  0  0  0  0  0  0
   17.9808   28.8288   26.6404 C   0  0  0  0  0  0  0  0  0  0  0  0
   16.6908   29.0512   26.6331 N   0  0  0  0  0  0  0  0  0  0  0  0
   18.7331   29.2759   27.6133 N   0  0  0  0  0  0  0  0  0  0  0  0
   16.1365   28.7090   25.8949 H   0  0  0  0  0  0  0  0  0  0  0  0
   16.2750   29.5606   27.3658 H   0  0  0  0  0  0  0  0  0  0  0  0
   19.7020   29.1014   27.6063 H   0  0  0  0  0  0  0  0  0  0  0  0
  8  9  1  0  0  0
  8 14  1  0  0  0
  8 16  1  0  0  0
  9 10  1  0  0  0
 10  2  1  0  0  0
 10 11  1  0  0  0
 10 12  1  0  0  0
  2  3  1  0  0  0
  3  4  2  0  0  0
  3  5  1  0  0  0
  5  1  1  0  0  0
  1 18  1  0  0  0
  1 30  1  0  0  0
 18 19  2  0  0  0
 18 20  1  0  0  0
 20 22  1  0  0  0
 22 23  1  0  0  0
 23 24  1  0  0  0
 24 25  2  0  0  0
 24 29  1  0  0  0
 25 26  1  0  0  0
 26 27  2  0  0  0
 27 28  1  0  0  0
 28 29  2  0  0  0
 30 31  1  0  0  0
 31 32  2  0  0  0
 31 36  1  0  0  0
 32 33  1  0  0  0
 33 34  2  0  0  0
 34 35  1  0  0  0
 35 37  1  0  0  0
 35 36  2  0  0  0
 37 38  1  0  0  0
 37 39  2  0  0  0
 11 17  1  0  0  0
 12 13  1  0  0  0
 13 14  1  0  0  0
 13 15  1  0  0  0
 15 17  1  0  0  0
 16 17  1  0  0  0
  2  6  1  0  0  0
  5  7  1  0  0  0
 20 21  1  0  0  0
 38 40  1  0  0  0
 38 41  1  0  0  0
 39 42  1  0  0  0
M  END
> <minimizedAffinity>
-9.71876

$$$$
3LIW_RUP_A_1


 42 46  0  0  0  0  0  0  0  0999 V2000
   24.2320   30.3640   22.3630 C   0  0  0  0  0  0  0  0  0  0  0  0
   21.8482   32.7703   20.8174 N   0  0  0  0  0  0  0  0  0  0  0  0
   22.6220   31.6593   20.9637 C   0  0  0  0  0  0  0  0  0  0  0  0
   22.7895   30.8709   20.0323 O   0  0  0  0  0  0  0  0  0  0  0  0
   23.2505   31.4683   22.1626 N   0  0  0  0  0  0  0  0  0  0  0  0
   21.7405   33.3806   21.5824 H   0  0  0  0  0  0  0  0  0  0  0  0
   23.0501   32.0746   22.9119 H   0  0  0  0  0  0  0  0  0  0  0  0
   19.6486   34.7663   18.2963 C   0  0  0  0  0  0  0  0  0  0  0  0
   20.3470   34.4349   19.6681 C   0  0  0  0  0  0  0  0  0  0  0  0
   21.1622   33.0897   19.5411 C   0  0  0  0  0  0  0  0  0  0  0  0
   22.2551   33.2461   18.4077 C   0  0  0  0  0  0  0  0  0  0  0  0
   20.1532   31.8974   19.1735 C   0  0  0  0  0  0  0  0  0  0  0  0
   19.4605   32.2424   17.7819 C   0  0  0  0  0  0  0  0  0  0  0  0
   18.6613   33.6050   17.8991 C   0  0  0  0  0  0  0  0  0  0  0  0
   20.5683   32.4046   16.6664 C   0  0  0  0  0  0  0  0  0  0  0  0
   20.7503   34.9196   17.1767 C   0  0  0  0  0  0  0  0  0  0  0  0
   21.5524   33.5703   17.0383 C   0  0  0  0  0  0  0  0  0  0  0  0
   25.4428   31.0782   23.0130 C   0  0  0  0  0  0  0  0  0  0  0  0
   25.1387   32.0420   23.7110 O   0  0  0  0  0  0  0  0  0  0  0  0
   26.7748   30.8087   22.9239 N   0  0  0  0  0  0  0  0  0  0  0  0
   27.3479   31.4321   23.4261 H   0  0  0  0  0  0  0  0  0  0  0  0
   27.5040   29.7617   22.2177 C   0  0  0  0  0  0  0  0  0  0  0  0
   28.0486   28.6168   23.1277 C   0  0  0  0  0  0  0  0  0  0  0  0
   26.9540   27.7127   23.7458 C   0  0  0  0  0  0  0  0  0  0  0  0
   26.3055   26.6279   23.0712 C   0  0  0  0  0  0  0  0  0  0  0  0
   25.3246   25.8321   23.7315 C   0  0  0  0  0  0  0  0  0  0  0  0
   24.9766   26.1094   25.0810 C   0  0  0  0  0  0  0  0  0  0  0  0
   25.6102   27.1828   25.7635 C   0  0  0  0  0  0  0  0  0  0  0  0
   26.5887   27.9708   25.0968 C   0  0  0  0  0  0  0  0  0  0  0  0
   23.6772   29.3154   23.3841 C   0  0  0  0  0  0  0  0  0  0  0  0
   22.3018   28.6624   23.0558 C   0  0  0  0  0  0  0  0  0  0  0  0
   21.9479   28.1310   21.7693 C   0  0  0  0  0  0  0  0  0  0  0  0
   20.6569   27.5529   21.5642 C   0  0  0  0  0  0  0  0  0  0  0  0
   19.7122   27.4962   22.6310 C   0  0  0  0  0  0  0  0  0  0  0  0
   20.0578   28.0198   23.9146 C   0  0  0  0  0  0  0  0  0  0  0  0
   21.3453   28.5942   24.1048 C   0  0  0  0  0  0  0  0  0  0  0  0
   19.0834   27.9755   25.0811 C   0  0  0  0  0  0  0  0  0  0  0  0
   18.1183   27.0914   25.0599 N   0  0  0  0  0  0  0  0  0  0  0  0
   19.2022   28.8151   26.0777 N   0  0  0  0  0  0  0  0  0  0  0  0
   18.0405   26.4656   24.3039 H   0  0  0  0  0  0  0  0  0  0  0  0
   17.4701   27.0523   25.7999 H   0  0  0  0  0  0  0  0  0  0  0  0
   19.9328   29.4750   26.0810 H   0  0  0  0  0  0  0  0  0  0  0  0
  8  9  1  0  0  0
  8 14  1  0  0  0
  8 16  1  0  0  0
  9 10  1  0  0  0
 10  2  1  0  0  0
 10 11  1  0  0  0
 10 12  1  0  0  0
  2  3  1  0  0  0
  3  4  2  0  0  0
  3  5  1  0  0  0
  5  1  1  0  0  0
  1 18  1  0  0  0
  1 30  1  0  0  0
 18 19  2  0  0  0
 18 20  1  0  0  0
 20 22  1  0  0  0
 22 23  1  0  0  0
 23 24  1  0  0  0
 24 25  2  0  0  0
 24 29  1  0  0  0
 25 26  1  0  0  0
 26 27  2  0  0  0
 27 28  1  0  0  0
 28 29  2  0  0  0
 30 31  1  0  0  0
 31 32  2  0  0  0
 31 36  1  0  0  0
 32 33  1  0  0  0
 33 34  2  0  0  0
 34 35  1  0  0  0
 35 37  1  0  0  0
 35 36  2  0  0  0
 37 38  1  0  0  0
 37 39  2  0  0  0
 11 17  1  0  0  0
 12 13  1  0  0  0
 13 14  1  0  0  0
 13 15  1  0  0  0
 15 17  1  0  0  0
 16 17  1  0  0  0
  2  6  1  0  0  0
  5  7  1  0  0  0
 20 21  1  0  0  0
 38 40  1  0  0  0
 38 41  1  0  0  0
 39 42  1  0  0  0
M  END
> <minimizedAffinity>
-9.65103

$$$$
