6HAI_FWW_A_302


 70 75  0  0  0  0  0  0  0  0999 V2000
   -4.8581   88.5278   57.1510 C   0  0  0  0  0  0  0  0  0  0  0  0
   -3.6640   90.5501   56.4680 C   0  0  0  0  0  0  0  0  0  0  0  0
   -5.9756   88.8521   56.3917 C   0  0  0  0  0  0  0  0  0  0  0  0
   -3.7548   89.3379   57.1775 C   0  0  0  0  0  0  0  0  0  0  0  0
   -4.7803   90.8686   55.7329 C   0  0  0  0  0  0  0  0  0  0  0  0
   -5.9059   90.0541   55.6896 C   0  0  0  0  0  0  0  0  0  0  0  0
   -9.3511   87.2010   56.8729 C   0  0  0  0  0  0  0  0  0  0  0  0
   -8.2942   88.3051   57.0501 C   0  0  0  0  0  0  0  0  0  0  0  0
   -8.6399   86.2278   55.9787 C   0  0  0  0  0  0  0  0  0  0  0  0
   -7.2746   86.8085   55.7325 C   0  0  0  0  0  0  0  0  0  0  0  0
   -7.1148   88.0581   56.3842 N   0  0  0  0  0  0  0  0  0  0  0  0
   -6.4023   86.2706   55.0566 O   0  0  0  0  0  0  0  0  0  0  0  0
   -8.5008   89.3374   57.6849 O   0  0  0  0  0  0  0  0  0  0  0  0
  -11.0635   87.5560   55.0766 C   0  0  0  0  0  0  0  0  0  0  0  0
  -10.5022   87.8659   56.3232 N   0  0  0  0  0  0  0  0  0  0  0  0
  -10.5481   86.6580   54.4089 O   0  0  0  0  0  0  0  0  0  0  0  0
  -10.9208   88.5814   56.8543 H   0  0  0  0  0  0  0  0  0  0  0  0
  -12.8629   87.8460   53.3756 C   0  0  0  0  0  0  0  0  0  0  0  0
  -14.5646   89.5994   53.4593 C   0  0  0  0  0  0  0  0  0  0  0  0
  -13.9732   88.4933   52.8494 C   0  0  0  0  0  0  0  0  0  0  0  0
  -12.2345   88.2462   54.5424 C   0  0  0  0  0  0  0  0  0  0  0  0
  -12.8069   89.3629   55.1620 C   0  0  0  0  0  0  0  0  0  0  0  0
  -13.9164   90.0204   54.6422 C   0  0  0  0  0  0  0  0  0  0  0  0
  -17.0116   89.7946   52.7176 C   0  0  0  0  0  0  0  0  0  0  0  0
  -15.7057   90.2732   52.8871 N   0  0  0  0  0  0  0  0  0  0  0  0
  -17.2317   88.6529   53.0877 O   0  0  0  0  0  0  0  0  0  0  0  0
  -15.5448   91.1925   52.5739 H   0  0  0  0  0  0  0  0  0  0  0  0
  -18.8934   90.2156   50.9892 C   0  0  0  0  0  0  0  0  0  0  0  0
  -18.1801   90.5163   52.0842 C   0  0  0  0  0  0  0  0  0  0  0  0
  -18.6360   91.6771   52.7994 C   0  0  0  0  0  0  0  0  0  0  0  0
  -22.2550   92.4884   49.4085 C   0  0  0  0  0  0  0  0  0  0  0  0
  -21.1272   92.2613   48.6330 C   0  0  0  0  0  0  0  0  0  0  0  0
  -20.0642   91.5323   49.1546 C   0  0  0  0  0  0  0  0  0  0  0  0
  -20.0611   90.9862   50.4467 C   0  0  0  0  0  0  0  0  0  0  0  0
  -21.2115   91.2482   51.1977 C   0  0  0  0  0  0  0  0  0  0  0  0
  -22.2944   91.9762   50.7046 C   0  0  0  0  0  0  0  0  0  0  0  0
  -23.3112   93.2017   48.9182 O   0  0  0  0  0  0  0  0  0  0  0  0
  -24.0667   93.3475   49.4529 H   0  0  0  0  0  0  0  0  0  0  0  0
   -2.4473   91.3442   56.5862 C   0  0  0  0  0  0  0  0  0  0  0  0
   -1.2175   90.8697   56.1882 N   0  0  0  0  0  0  0  0  0  0  0  0
   -2.5244   92.4379   57.1174 O   0  0  0  0  0  0  0  0  0  0  0  0
   -1.2311   89.9729   55.7823 H   0  0  0  0  0  0  0  0  0  0  0  0
    0.0358   91.4539   56.2682 C   0  0  0  0  0  0  0  0  0  0  0  0
    0.1699   92.7841   56.7117 C   0  0  0  0  0  0  0  0  0  0  0  0
    1.3913   93.4281   56.8331 C   0  0  0  0  0  0  0  0  0  0  0  0
    2.5969   92.8213   56.5444 C   0  0  0  0  0  0  0  0  0  0  0  0
    2.4638   91.4706   56.1168 C   0  0  0  0  0  0  0  0  0  0  0  0
    1.2336   90.8104   55.9883 C   0  0  0  0  0  0  0  0  0  0  0  0
    3.5721   90.7367   55.7977 O   0  0  0  0  0  0  0  0  0  0  0  0
    3.4802   89.8476   55.5166 H   0  0  0  0  0  0  0  0  0  0  0  0
    3.9319   93.4843   56.6727 C   0  0  0  0  0  0  0  0  0  0  0  0
    4.9741   93.2330   55.8068 N   0  0  0  0  0  0  0  0  0  0  0  0
    4.0764   94.2721   57.6181 O   0  0  0  0  0  0  0  0  0  0  0  0
    4.7655   92.5927   55.0887 H   0  0  0  0  0  0  0  0  0  0  0  0
    6.3096   93.7481   55.7775 C   0  0  0  0  0  0  0  0  0  0  0  0
    6.6160   95.0741   56.1131 C   0  0  0  0  0  0  0  0  0  0  0  0
    7.9244   95.5696   56.0909 C   0  0  0  0  0  0  0  0  0  0  0  0
    9.0142   94.7740   55.7434 C   0  0  0  0  0  0  0  0  0  0  0  0
    8.7185   93.4522   55.4142 C   0  0  0  0  0  0  0  0  0  0  0  0
    7.4131   92.9439   55.4295 C   0  0  0  0  0  0  0  0  0  0  0  0
    9.7258   92.6006   55.0575 O   0  0  0  0  0  0  0  0  0  0  0  0
    9.5310   91.7114   54.8356 H   0  0  0  0  0  0  0  0  0  0  0  0
   10.4605   95.3145   55.7194 C   0  0  0  0  0  0  0  0  0  0  0  0
   11.2970   94.6723   55.0507 O   0  0  0  0  0  0  0  0  0  0  0  0
   10.6673   96.3565   56.3640 O   0  0  0  0  0  0  0  0  0  0  0  0
   11.0374   93.8937   54.5987 H   0  0  0  0  0  0  0  0  0  0  0  0
    6.9449   91.4088   53.6960 C   0  0  0  0  0  0  0  0  0  0  0  0
    7.1414   91.6347   55.0936 O   0  0  0  0  0  0  0  0  0  0  0  0
    1.4733   88.4564   56.5796 C   0  0  0  0  0  0  0  0  0  0  0  0
    1.1546   89.5047   55.5599 O   0  0  0  0  0  0  0  0  0  0  0  0
 37 31  1  0  0  0
 36 31  2  0  0  0
 36 35  1  0  0  0
 31 32  1  0  0  0
 35 34  2  0  0  0
 32 33  2  0  0  0
 34 33  1  0  0  0
 34 28  1  0  0  0
 28 29  2  0  0  0
 29 24  1  0  0  0
 29 30  1  0  0  0
 25 24  1  0  0  0
 25 19  1  0  0  0
 23 19  2  0  0  0
 23 22  1  0  0  0
 24 26  2  0  0  0
 19 20  1  0  0  0
 22 21  2  0  0  0
 20 18  2  0  0  0
 65 63  2  0  0  0
 61 59  1  0  0  0
 21 18  1  0  0  0
 21 14  1  0  0  0
 68 60  1  0  0  0
 68 67  1  0  0  0
 16 14  2  0  0  0
 59 60  2  0  0  0
 59 58  1  0  0  0
 60 55  1  0  0  0
 70 48  1  0  0  0
 70 69  1  0  0  0
 14 15  1  0  0  0
 49 47  1  0  0  0
 63 58  1  0  0  0
 63 64  1  0  0  0
 58 57  2  0  0  0
 55 52  1  0  0  0
 55 56  2  0  0  0
  5  6  2  0  0  0
  5  2  1  0  0  0
 52 51  1  0  0  0
 48 47  2  0  0  0
 48 43  1  0  0  0
 47 46  1  0  0  0
  6  3  1  0  0  0
 57 56  1  0  0  0
 41 39  2  0  0  0
 12 10  2  0  0  0
 39 40  1  0  0  0
 39  2  1  0  0  0
 43 40  1  0  0  0
 43 44  2  0  0  0
 46 51  1  0  0  0
 46 45  2  0  0  0
 51 53  2  0  0  0
  2  4  2  0  0  0
 10 11  1  0  0  0
 10  9  1  0  0  0
 44 45  1  0  0  0
  3 11  1  0  0  0
  3  1  2  0  0  0
 15  7  1  0  0  0
 11  8  1  0  0  0
  9  7  1  0  0  0
  4  1  1  0  0  0
  8  7  1  0  0  0
  8 13  2  0  0  0
 25 27  1  0  0  0
 15 17  1  0  0  0
 40 42  1  0  0  0
 52 54  1  0  0  0
 37 38  1  0  0  0
 64 66  1  0  0  0
 61 62  1  0  0  0
 49 50  1  0  0  0
M  END
> <minimizedAffinity>
-16.06083

$$$$
6HAI_FWW_A_302


 70 75  0  0  0  0  0  0  0  0999 V2000
   -4.9938   87.5684   55.6737 C   0  0  0  0  0  0  0  0  0  0  0  0
   -2.8697   88.6452   56.2312 C   0  0  0  0  0  0  0  0  0  0  0  0
   -5.4121   87.5589   56.9986 C   0  0  0  0  0  0  0  0  0  0  0  0
   -3.7829   88.0951   55.3123 C   0  0  0  0  0  0  0  0  0  0  0  0
   -3.2868   88.6166   57.5402 C   0  0  0  0  0  0  0  0  0  0  0  0
   -4.5157   88.0919   57.9232 C   0  0  0  0  0  0  0  0  0  0  0  0
   -8.9173   86.7481   58.1852 C   0  0  0  0  0  0  0  0  0  0  0  0
   -7.7564   87.6703   57.7734 C   0  0  0  0  0  0  0  0  0  0  0  0
   -8.3225   85.3855   57.9796 C   0  0  0  0  0  0  0  0  0  0  0  0
   -6.9142   85.6128   57.5031 C   0  0  0  0  0  0  0  0  0  0  0  0
   -6.6215   86.9954   57.3836 N   0  0  0  0  0  0  0  0  0  0  0  0
   -6.1127   84.7174   57.2518 O   0  0  0  0  0  0  0  0  0  0  0  0
   -7.8493   88.8957   57.7450 O   0  0  0  0  0  0  0  0  0  0  0  0
   -9.9407   87.1224   55.9275 C   0  0  0  0  0  0  0  0  0  0  0  0
  -10.0123   87.1146   57.3275 N   0  0  0  0  0  0  0  0  0  0  0  0
   -8.8810   86.7919   55.3932 O   0  0  0  0  0  0  0  0  0  0  0  0
  -10.8629   87.3756   57.7489 H   0  0  0  0  0  0  0  0  0  0  0  0
  -11.9914   88.4592   55.4553 C   0  0  0  0  0  0  0  0  0  0  0  0
  -13.3200   88.2638   53.4123 C   0  0  0  0  0  0  0  0  0  0  0  0
  -13.0734   88.8248   54.6652 C   0  0  0  0  0  0  0  0  0  0  0  0
  -11.0690   87.4977   55.0795 C   0  0  0  0  0  0  0  0  0  0  0  0
  -11.3075   86.9147   53.8298 C   0  0  0  0  0  0  0  0  0  0  0  0
  -12.3894   87.2707   53.0322 C   0  0  0  0  0  0  0  0  0  0  0  0
  -15.4772   89.5577   52.9141 C   0  0  0  0  0  0  0  0  0  0  0  0
  -14.4617   88.6404   52.6135 N   0  0  0  0  0  0  0  0  0  0  0  0
  -15.4112   90.1165   53.9968 O   0  0  0  0  0  0  0  0  0  0  0  0
  -14.5370   88.1925   51.7400 H   0  0  0  0  0  0  0  0  0  0  0  0
  -17.9891   89.7604   52.3180 C   0  0  0  0  0  0  0  0  0  0  0  0
  -16.6801   89.9078   52.0667 C   0  0  0  0  0  0  0  0  0  0  0  0
  -16.3758   90.5527   50.8184 C   0  0  0  0  0  0  0  0  0  0  0  0
  -21.2425   90.9316   49.6707 C   0  0  0  0  0  0  0  0  0  0  0  0
  -20.4856   89.7998   49.4040 C   0  0  0  0  0  0  0  0  0  0  0  0
  -19.4515   89.4411   50.2614 C   0  0  0  0  0  0  0  0  0  0  0  0
  -19.1203   90.1626   51.4178 C   0  0  0  0  0  0  0  0  0  0  0  0
  -19.9002   91.3016   51.6429 C   0  0  0  0  0  0  0  0  0  0  0  0
  -20.9437   91.6892   50.8023 C   0  0  0  0  0  0  0  0  0  0  0  0
  -22.2628   91.3040   48.8431 O   0  0  0  0  0  0  0  0  0  0  0  0
  -22.7659   92.0708   49.0353 H   0  0  0  0  0  0  0  0  0  0  0  0
   -1.5986   89.1594   55.7367 C   0  0  0  0  0  0  0  0  0  0  0  0
   -0.6657   89.7383   56.5679 N   0  0  0  0  0  0  0  0  0  0  0  0
   -1.3948   89.1294   54.5359 O   0  0  0  0  0  0  0  0  0  0  0  0
   -0.9063   89.7404   57.5225 H   0  0  0  0  0  0  0  0  0  0  0  0
    0.5574   90.3179   56.2739 C   0  0  0  0  0  0  0  0  0  0  0  0
    1.5408   89.5842   55.5822 C   0  0  0  0  0  0  0  0  0  0  0  0
    2.7795   90.1032   55.2395 C   0  0  0  0  0  0  0  0  0  0  0  0
    3.1630   91.3966   55.5310 C   0  0  0  0  0  0  0  0  0  0  0  0
    2.1620   92.1453   56.2109 C   0  0  0  0  0  0  0  0  0  0  0  0
    0.9071   91.6297   56.5643 C   0  0  0  0  0  0  0  0  0  0  0  0
    2.3949   93.4453   56.5639 O   0  0  0  0  0  0  0  0  0  0  0  0
    1.7332   93.9350   57.0115 H   0  0  0  0  0  0  0  0  0  0  0  0
    4.4876   91.9903   55.1681 C   0  0  0  0  0  0  0  0  0  0  0  0
    5.3029   92.6104   56.0900 N   0  0  0  0  0  0  0  0  0  0  0  0
    4.8252   91.9189   53.9782 O   0  0  0  0  0  0  0  0  0  0  0  0
    4.9503   92.6195   57.0091 H   0  0  0  0  0  0  0  0  0  0  0  0
    6.5773   93.2438   55.9337 C   0  0  0  0  0  0  0  0  0  0  0  0
    6.7314   94.6368   55.9099 C   0  0  0  0  0  0  0  0  0  0  0  0
    7.9807   95.2503   55.7654 C   0  0  0  0  0  0  0  0  0  0  0  0
    9.1591   94.5165   55.6459 C   0  0  0  0  0  0  0  0  0  0  0  0
    9.0151   93.1304   55.6748 C   0  0  0  0  0  0  0  0  0  0  0  0
    7.7703   92.5032   55.8160 C   0  0  0  0  0  0  0  0  0  0  0  0
   10.1177   92.3315   55.5607 O   0  0  0  0  0  0  0  0  0  0  0  0
   10.0248   91.3993   55.5797 H   0  0  0  0  0  0  0  0  0  0  0  0
   10.5408   95.1878   55.4886 C   0  0  0  0  0  0  0  0  0  0  0  0
   10.7379   96.2415   56.1292 O   0  0  0  0  0  0  0  0  0  0  0  0
   11.3485   94.6117   54.7403 O   0  0  0  0  0  0  0  0  0  0  0  0
   10.0586   96.5958   56.6687 H   0  0  0  0  0  0  0  0  0  0  0  0
    7.8416   90.4990   54.5673 C   0  0  0  0  0  0  0  0  0  0  0  0
    7.6490   91.1300   55.8352 O   0  0  0  0  0  0  0  0  0  0  0  0
   -1.3371   92.5843   56.5370 C   0  0  0  0  0  0  0  0  0  0  0  0
   -0.0257   92.3904   57.2320 O   0  0  0  0  0  0  0  0  0  0  0  0
 37 31  1  0  0  0
 36 31  2  0  0  0
 36 35  1  0  0  0
 31 32  1  0  0  0
 35 34  2  0  0  0
 32 33  2  0  0  0
 34 33  1  0  0  0
 34 28  1  0  0  0
 28 29  2  0  0  0
 29 24  1  0  0  0
 29 30  1  0  0  0
 25 24  1  0  0  0
 25 19  1  0  0  0
 23 19  2  0  0  0
 23 22  1  0  0  0
 24 26  2  0  0  0
 19 20  1  0  0  0
 22 21  2  0  0  0
 20 18  2  0  0  0
 65 63  2  0  0  0
 61 59  1  0  0  0
 21 18  1  0  0  0
 21 14  1  0  0  0
 68 60  1  0  0  0
 68 67  1  0  0  0
 16 14  2  0  0  0
 59 60  2  0  0  0
 59 58  1  0  0  0
 60 55  1  0  0  0
 70 48  1  0  0  0
 70 69  1  0  0  0
 14 15  1  0  0  0
 49 47  1  0  0  0
 63 58  1  0  0  0
 63 64  1  0  0  0
 58 57  2  0  0  0
 55 52  1  0  0  0
 55 56  2  0  0  0
  5  6  2  0  0  0
  5  2  1  0  0  0
 52 51  1  0  0  0
 48 47  2  0  0  0
 48 43  1  0  0  0
 47 46  1  0  0  0
  6  3  1  0  0  0
 57 56  1  0  0  0
 41 39  2  0  0  0
 12 10  2  0  0  0
 39 40  1  0  0  0
 39  2  1  0  0  0
 43 40  1  0  0  0
 43 44  2  0  0  0
 46 51  1  0  0  0
 46 45  2  0  0  0
 51 53  2  0  0  0
  2  4  2  0  0  0
 10 11  1  0  0  0
 10  9  1  0  0  0
 44 45  1  0  0  0
  3 11  1  0  0  0
  3  1  2  0  0  0
 15  7  1  0  0  0
 11  8  1  0  0  0
  9  7  1  0  0  0
  4  1  1  0  0  0
  8  7  1  0  0  0
  8 13  2  0  0  0
 25 27  1  0  0  0
 15 17  1  0  0  0
 40 42  1  0  0  0
 52 54  1  0  0  0
 37 38  1  0  0  0
 64 66  1  0  0  0
 61 62  1  0  0  0
 49 50  1  0  0  0
M  END
> <minimizedAffinity>
-14.99557

$$$$
6HAI_FWW_A_302


 70 75  0  0  0  0  0  0  0  0999 V2000
  -11.0503   86.8215   53.8806 C   0  0  0  0  0  0  0  0  0  0  0  0
  -12.7844   88.4949   53.4627 C   0  0  0  0  0  0  0  0  0  0  0  0
  -10.6946   87.3975   55.0940 C   0  0  0  0  0  0  0  0  0  0  0  0
  -12.0536   87.3449   53.1100 C   0  0  0  0  0  0  0  0  0  0  0  0
  -12.4142   89.0652   54.6567 C   0  0  0  0  0  0  0  0  0  0  0  0
  -11.4026   88.5428   55.4543 C   0  0  0  0  0  0  0  0  0  0  0  0
   -7.4805   86.0071   56.5388 C   0  0  0  0  0  0  0  0  0  0  0  0
   -8.3855   86.5862   55.4373 C   0  0  0  0  0  0  0  0  0  0  0  0
   -8.3924   86.0179   57.7308 C   0  0  0  0  0  0  0  0  0  0  0  0
   -9.7079   86.5612   57.2446 C   0  0  0  0  0  0  0  0  0  0  0  0
   -9.6552   86.8985   55.8680 N   0  0  0  0  0  0  0  0  0  0  0  0
  -10.7067   86.6941   57.9459 O   0  0  0  0  0  0  0  0  0  0  0  0
   -7.9962   86.7991   54.2909 O   0  0  0  0  0  0  0  0  0  0  0  0
   -5.1325   86.6295   55.9189 C   0  0  0  0  0  0  0  0  0  0  0  0
   -6.3390   86.8811   56.5869 N   0  0  0  0  0  0  0  0  0  0  0  0
   -5.0391   85.6027   55.2445 O   0  0  0  0  0  0  0  0  0  0  0  0
   -6.4092   87.7052   57.1209 H   0  0  0  0  0  0  0  0  0  0  0  0
   -3.0137   87.5695   55.0009 C   0  0  0  0  0  0  0  0  0  0  0  0
   -1.7051   89.3265   56.0860 C   0  0  0  0  0  0  0  0  0  0  0  0
   -1.9162   88.4192   55.0481 C   0  0  0  0  0  0  0  0  0  0  0  0
   -3.9884   87.5351   55.9834 C   0  0  0  0  0  0  0  0  0  0  0  0
   -3.7865   88.4306   57.0397 C   0  0  0  0  0  0  0  0  0  0  0  0
   -2.6897   89.2832   57.0986 C   0  0  0  0  0  0  0  0  0  0  0  0
    0.8051   89.8332   56.2211 C   0  0  0  0  0  0  0  0  0  0  0  0
   -0.5474   90.1875   56.1298 N   0  0  0  0  0  0  0  0  0  0  0  0
    1.0588   88.6413   56.2835 O   0  0  0  0  0  0  0  0  0  0  0  0
   -0.7331   91.1535   56.0901 H   0  0  0  0  0  0  0  0  0  0  0  0
    2.0581   92.0994   56.2069 C   0  0  0  0  0  0  0  0  0  0  0  0
    1.9957   90.7629   56.2965 C   0  0  0  0  0  0  0  0  0  0  0  0
    3.2528   90.1183   56.5634 C   0  0  0  0  0  0  0  0  0  0  0  0
    5.6660   94.5139   56.5499 C   0  0  0  0  0  0  0  0  0  0  0  0
    5.6683   93.3390   55.8121 C   0  0  0  0  0  0  0  0  0  0  0  0
    4.5063   92.5819   55.7131 C   0  0  0  0  0  0  0  0  0  0  0  0
    3.2937   92.9436   56.3184 C   0  0  0  0  0  0  0  0  0  0  0  0
    3.3384   94.1278   57.0612 C   0  0  0  0  0  0  0  0  0  0  0  0
    4.4875   94.9096   57.1810 C   0  0  0  0  0  0  0  0  0  0  0  0
    6.7950   95.2739   56.6618 O   0  0  0  0  0  0  0  0  0  0  0  0
    6.7792   96.0652   57.1633 H   0  0  0  0  0  0  0  0  0  0  0  0
  -13.8183   88.9763   52.5549 C   0  0  0  0  0  0  0  0  0  0  0  0
  -15.1587   88.9059   52.8627 N   0  0  0  0  0  0  0  0  0  0  0  0
  -13.4754   89.3925   51.4624 O   0  0  0  0  0  0  0  0  0  0  0  0
  -15.3600   88.5444   53.7560 H   0  0  0  0  0  0  0  0  0  0  0  0
  -16.2685   89.2631   52.1150 C   0  0  0  0  0  0  0  0  0  0  0  0
  -16.5988   88.5436   50.9500 C   0  0  0  0  0  0  0  0  0  0  0  0
  -17.7021   88.8325   50.1622 C   0  0  0  0  0  0  0  0  0  0  0  0
  -18.5928   89.8460   50.4528 C   0  0  0  0  0  0  0  0  0  0  0  0
  -18.2717   90.5596   51.6412 C   0  0  0  0  0  0  0  0  0  0  0  0
  -17.1575   90.2773   52.4440 C   0  0  0  0  0  0  0  0  0  0  0  0
  -19.0647   91.5910   52.0609 O   0  0  0  0  0  0  0  0  0  0  0  0
  -18.8499   92.0584   52.8441 H   0  0  0  0  0  0  0  0  0  0  0  0
  -19.7969   90.1784   49.6292 C   0  0  0  0  0  0  0  0  0  0  0  0
  -20.7587   89.2456   49.3067 N   0  0  0  0  0  0  0  0  0  0  0  0
  -19.8915   91.3450   49.2227 O   0  0  0  0  0  0  0  0  0  0  0  0
  -20.5972   88.3462   49.6731 H   0  0  0  0  0  0  0  0  0  0  0  0
  -21.9536   89.3666   48.5275 C   0  0  0  0  0  0  0  0  0  0  0  0
  -22.0139   89.0049   47.1747 C   0  0  0  0  0  0  0  0  0  0  0  0
  -23.1870   89.1174   46.4203 C   0  0  0  0  0  0  0  0  0  0  0  0
  -24.3793   89.5874   46.9669 C   0  0  0  0  0  0  0  0  0  0  0  0
  -24.3293   89.9436   48.3136 C   0  0  0  0  0  0  0  0  0  0  0  0
  -23.1611   89.8387   49.0797 C   0  0  0  0  0  0  0  0  0  0  0  0
  -25.4517   90.4181   48.9317 O   0  0  0  0  0  0  0  0  0  0  0  0
  -25.4220   90.6585   49.8368 H   0  0  0  0  0  0  0  0  0  0  0  0
  -25.6776   89.7115   46.1402 C   0  0  0  0  0  0  0  0  0  0  0  0
  -25.6479   90.4629   45.1432 O   0  0  0  0  0  0  0  0  0  0  0  0
  -26.6454   89.0393   46.5347 O   0  0  0  0  0  0  0  0  0  0  0  0
  -24.8630   90.9285   44.9307 H   0  0  0  0  0  0  0  0  0  0  0  0
  -23.0168   91.6095   50.6368 C   0  0  0  0  0  0  0  0  0  0  0  0
  -23.1311   90.2031   50.4090 O   0  0  0  0  0  0  0  0  0  0  0  0
  -17.6234   90.5995   54.8163 C   0  0  0  0  0  0  0  0  0  0  0  0
  -16.8819   91.0035   53.5804 O   0  0  0  0  0  0  0  0  0  0  0  0
 37 31  1  0  0  0
 36 31  2  0  0  0
 36 35  1  0  0  0
 31 32  1  0  0  0
 35 34  2  0  0  0
 32 33  2  0  0  0
 34 33  1  0  0  0
 34 28  1  0  0  0
 28 29  2  0  0  0
 29 24  1  0  0  0
 29 30  1  0  0  0
 25 24  1  0  0  0
 25 19  1  0  0  0
 23 19  2  0  0  0
 23 22  1  0  0  0
 24 26  2  0  0  0
 19 20  1  0  0  0
 22 21  2  0  0  0
 20 18  2  0  0  0
 65 63  2  0  0  0
 61 59  1  0  0  0
 21 18  1  0  0  0
 21 14  1  0  0  0
 68 60  1  0  0  0
 68 67  1  0  0  0
 16 14  2  0  0  0
 59 60  2  0  0  0
 59 58  1  0  0  0
 60 55  1  0  0  0
 70 48  1  0  0  0
 70 69  1  0  0  0
 14 15  1  0  0  0
 49 47  1  0  0  0
 63 58  1  0  0  0
 63 64  1  0  0  0
 58 57  2  0  0  0
 55 52  1  0  0  0
 55 56  2  0  0  0
  5  6  2  0  0  0
  5  2  1  0  0  0
 52 51  1  0  0  0
 48 47  2  0  0  0
 48 43  1  0  0  0
 47 46  1  0  0  0
  6  3  1  0  0  0
 57 56  1  0  0  0
 41 39  2  0  0  0
 12 10  2  0  0  0
 39 40  1  0  0  0
 39  2  1  0  0  0
 43 40  1  0  0  0
 43 44  2  0  0  0
 46 51  1  0  0  0
 46 45  2  0  0  0
 51 53  2  0  0  0
  2  4  2  0  0  0
 10 11  1  0  0  0
 10  9  1  0  0  0
 44 45  1  0  0  0
  3 11  1  0  0  0
  3  1  2  0  0  0
 15  7  1  0  0  0
 11  8  1  0  0  0
  9  7  1  0  0  0
  4  1  1  0  0  0
  8  7  1  0  0  0
  8 13  2  0  0  0
 25 27  1  0  0  0
 15 17  1  0  0  0
 40 42  1  0  0  0
 52 54  1  0  0  0
 37 38  1  0  0  0
 64 66  1  0  0  0
 61 62  1  0  0  0
 49 50  1  0  0  0
M  END
> <minimizedAffinity>
-14.02537

$$$$
6HAI_FWW_A_302


 70 75  0  0  0  0  0  0  0  0999 V2000
   -4.4507   87.8613   57.8778 C   0  0  0  0  0  0  0  0  0  0  0  0
   -3.3789   89.5860   56.5144 C   0  0  0  0  0  0  0  0  0  0  0  0
   -5.6572   87.9818   57.1993 C   0  0  0  0  0  0  0  0  0  0  0  0
   -3.3645   88.6239   57.5415 C   0  0  0  0  0  0  0  0  0  0  0  0
   -4.5812   89.7077   55.8603 C   0  0  0  0  0  0  0  0  0  0  0  0
   -5.6915   88.9367   56.1846 C   0  0  0  0  0  0  0  0  0  0  0  0
   -9.0101   86.6433   58.3472 C   0  0  0  0  0  0  0  0  0  0  0  0
   -7.9861   87.7344   57.9888 C   0  0  0  0  0  0  0  0  0  0  0  0
   -8.2433   85.3866   58.0551 C   0  0  0  0  0  0  0  0  0  0  0  0
   -6.8832   85.8269   57.5880 C   0  0  0  0  0  0  0  0  0  0  0  0
   -6.7769   87.2408   57.5534 N   0  0  0  0  0  0  0  0  0  0  0  0
   -5.9737   85.0626   57.2785 O   0  0  0  0  0  0  0  0  0  0  0  0
   -8.2402   88.9362   58.0368 O   0  0  0  0  0  0  0  0  0  0  0  0
  -10.0969   87.0411   56.1234 C   0  0  0  0  0  0  0  0  0  0  0  0
  -10.1542   86.9132   57.5182 N   0  0  0  0  0  0  0  0  0  0  0  0
   -9.0052   86.9107   55.5673 O   0  0  0  0  0  0  0  0  0  0  0  0
  -11.0299   87.0141   57.9566 H   0  0  0  0  0  0  0  0  0  0  0  0
  -12.3783   87.9912   55.7954 C   0  0  0  0  0  0  0  0  0  0  0  0
  -13.6294   87.8713   53.6983 C   0  0  0  0  0  0  0  0  0  0  0  0
  -13.5095   88.2547   55.0339 C   0  0  0  0  0  0  0  0  0  0  0  0
  -11.2751   87.3140   55.3046 C   0  0  0  0  0  0  0  0  0  0  0  0
  -11.3826   86.9105   53.9689 C   0  0  0  0  0  0  0  0  0  0  0  0
  -12.5116   87.1660   53.1986 C   0  0  0  0  0  0  0  0  0  0  0  0
  -15.6678   89.2499   52.9770 C   0  0  0  0  0  0  0  0  0  0  0  0
  -14.8212   88.1346   52.9278 N   0  0  0  0  0  0  0  0  0  0  0  0
  -15.3820   90.1228   53.7803 O   0  0  0  0  0  0  0  0  0  0  0  0
  -15.0731   87.4367   52.2807 H   0  0  0  0  0  0  0  0  0  0  0  0
  -17.1170   89.5302   50.8493 C   0  0  0  0  0  0  0  0  0  0  0  0
  -16.9298   89.4821   52.1763 C   0  0  0  0  0  0  0  0  0  0  0  0
  -18.1286   89.6157   52.9585 C   0  0  0  0  0  0  0  0  0  0  0  0
  -20.9230   90.1679   48.8312 C   0  0  0  0  0  0  0  0  0  0  0  0
  -20.2411   91.2298   49.4078 C   0  0  0  0  0  0  0  0  0  0  0  0
  -19.0265   91.0068   50.0469 C   0  0  0  0  0  0  0  0  0  0  0  0
  -18.4222   89.7444   50.1405 C   0  0  0  0  0  0  0  0  0  0  0  0
  -19.1480   88.7011   49.5565 C   0  0  0  0  0  0  0  0  0  0  0  0
  -20.3688   88.8910   48.9089 C   0  0  0  0  0  0  0  0  0  0  0  0
  -22.1174   90.3622   48.1986 O   0  0  0  0  0  0  0  0  0  0  0  0
  -22.5672   89.6360   47.8135 H   0  0  0  0  0  0  0  0  0  0  0  0
   -2.1689   90.3567   56.2562 C   0  0  0  0  0  0  0  0  0  0  0  0
   -0.9740   89.7599   55.9213 N   0  0  0  0  0  0  0  0  0  0  0  0
   -2.2133   91.5645   56.4096 O   0  0  0  0  0  0  0  0  0  0  0  0
   -1.0114   88.7803   55.8306 H   0  0  0  0  0  0  0  0  0  0  0  0
    0.2722   90.3190   55.6917 C   0  0  0  0  0  0  0  0  0  0  0  0
    0.6748   91.4672   56.4014 C   0  0  0  0  0  0  0  0  0  0  0  0
    1.9114   92.0711   56.2367 C   0  0  0  0  0  0  0  0  0  0  0  0
    2.8747   91.5953   55.3702 C   0  0  0  0  0  0  0  0  0  0  0  0
    2.4769   90.4230   54.6685 C   0  0  0  0  0  0  0  0  0  0  0  0
    1.2281   89.8055   54.8258 C   0  0  0  0  0  0  0  0  0  0  0  0
    3.3275   89.8325   53.7760 O   0  0  0  0  0  0  0  0  0  0  0  0
    3.0618   89.0606   53.3160 H   0  0  0  0  0  0  0  0  0  0  0  0
    4.2212   92.2176   55.1750 C   0  0  0  0  0  0  0  0  0  0  0  0
    4.9240   92.8087   56.2026 N   0  0  0  0  0  0  0  0  0  0  0  0
    4.6850   92.1981   54.0263 O   0  0  0  0  0  0  0  0  0  0  0  0
    4.4751   92.7767   57.0782 H   0  0  0  0  0  0  0  0  0  0  0  0
    6.1981   93.4618   56.2088 C   0  0  0  0  0  0  0  0  0  0  0  0
    6.3332   94.8548   56.2848 C   0  0  0  0  0  0  0  0  0  0  0  0
    7.5814   95.4871   56.2991 C   0  0  0  0  0  0  0  0  0  0  0  0
    8.7765   94.7725   56.2493 C   0  0  0  0  0  0  0  0  0  0  0  0
    8.6508   93.3860   56.1797 C   0  0  0  0  0  0  0  0  0  0  0  0
    7.4076   92.7404   56.1618 C   0  0  0  0  0  0  0  0  0  0  0  0
    9.7709   92.6055   56.1241 O   0  0  0  0  0  0  0  0  0  0  0  0
    9.6904   91.6731   56.0772 H   0  0  0  0  0  0  0  0  0  0  0  0
   10.1569   95.4644   56.2672 C   0  0  0  0  0  0  0  0  0  0  0  0
   10.2658   96.4996   56.9571 O   0  0  0  0  0  0  0  0  0  0  0  0
   11.0512   94.9215   55.5967 O   0  0  0  0  0  0  0  0  0  0  0  0
    9.5256   96.8289   57.4279 H   0  0  0  0  0  0  0  0  0  0  0  0
    7.5096   90.8286   54.7776 C   0  0  0  0  0  0  0  0  0  0  0  0
    7.3052   91.3676   56.0856 O   0  0  0  0  0  0  0  0  0  0  0  0
   -0.4879   88.6678   53.5183 C   0  0  0  0  0  0  0  0  0  0  0  0
    0.8843   88.6774   54.1159 O   0  0  0  0  0  0  0  0  0  0  0  0
 37 31  1  0  0  0
 36 31  2  0  0  0
 36 35  1  0  0  0
 31 32  1  0  0  0
 35 34  2  0  0  0
 32 33  2  0  0  0
 34 33  1  0  0  0
 34 28  1  0  0  0
 28 29  2  0  0  0
 29 24  1  0  0  0
 29 30  1  0  0  0
 25 24  1  0  0  0
 25 19  1  0  0  0
 23 19  2  0  0  0
 23 22  1  0  0  0
 24 26  2  0  0  0
 19 20  1  0  0  0
 22 21  2  0  0  0
 20 18  2  0  0  0
 65 63  2  0  0  0
 61 59  1  0  0  0
 21 18  1  0  0  0
 21 14  1  0  0  0
 68 60  1  0  0  0
 68 67  1  0  0  0
 16 14  2  0  0  0
 59 60  2  0  0  0
 59 58  1  0  0  0
 60 55  1  0  0  0
 70 48  1  0  0  0
 70 69  1  0  0  0
 14 15  1  0  0  0
 49 47  1  0  0  0
 63 58  1  0  0  0
 63 64  1  0  0  0
 58 57  2  0  0  0
 55 52  1  0  0  0
 55 56  2  0  0  0
  5  6  2  0  0  0
  5  2  1  0  0  0
 52 51  1  0  0  0
 48 47  2  0  0  0
 48 43  1  0  0  0
 47 46  1  0  0  0
  6  3  1  0  0  0
 57 56  1  0  0  0
 41 39  2  0  0  0
 12 10  2  0  0  0
 39 40  1  0  0  0
 39  2  1  0  0  0
 43 40  1  0  0  0
 43 44  2  0  0  0
 46 51  1  0  0  0
 46 45  2  0  0  0
 51 53  2  0  0  0
  2  4  2  0  0  0
 10 11  1  0  0  0
 10  9  1  0  0  0
 44 45  1  0  0  0
  3 11  1  0  0  0
  3  1  2  0  0  0
 15  7  1  0  0  0
 11  8  1  0  0  0
  9  7  1  0  0  0
  4  1  1  0  0  0
  8  7  1  0  0  0
  8 13  2  0  0  0
 25 27  1  0  0  0
 15 17  1  0  0  0
 40 42  1  0  0  0
 52 54  1  0  0  0
 37 38  1  0  0  0
 64 66  1  0  0  0
 61 62  1  0  0  0
 49 50  1  0  0  0
M  END
> <minimizedAffinity>
-13.99759

$$$$
