5A6K_NSG_A_1627


 18 19  0  0  0  0  0  0  0  0999 V2000
  -21.1166  -32.4347   13.2939 C   0  0  0  0  0  0  0  0  0  0  0  0
  -21.5237  -32.7229   11.5774 S   0  0  0  0  0  0  0  0  0  0  0  0
  -22.4821  -32.2214   13.9433 C   0  0  0  0  0  0  0  0  0  0  0  0
  -23.3034  -33.2926   13.3385 N   0  0  0  0  0  0  0  0  0  0  0  0
  -23.0681  -30.7880   13.6962 C   0  0  0  0  0  0  0  0  0  0  0  0
  -24.2620  -30.5459   14.4678 O   0  0  0  0  0  0  0  0  0  0  0  0
  -22.0288  -29.6654   13.9559 C   0  0  0  0  0  0  0  0  0  0  0  0
  -21.8343  -29.4835   15.3538 O   0  0  0  0  0  0  0  0  0  0  0  0
  -20.7395  -30.0353   13.1868 C   0  0  0  0  0  0  0  0  0  0  0  0
  -20.2507  -31.2958   13.5864 O   0  0  0  0  0  0  0  0  0  0  0  0
  -23.2199  -33.1830   11.8788 C   0  0  0  0  0  0  0  0  0  0  0  0
  -23.6672  -34.4442   11.1302 C   0  0  0  0  0  0  0  0  0  0  0  0
  -24.2738  -33.1898   13.6353 H   0  0  0  0  0  0  0  0  0  0  0  0
  -24.0459  -30.5671   15.4132 H   0  0  0  0  0  0  0  0  0  0  0  0
  -21.5216  -30.3130   15.7474 H   0  0  0  0  0  0  0  0  0  0  0  0
  -19.5537  -29.0542   13.3523 C   0  0  0  0  0  0  0  0  0  0  0  0
  -18.8161  -29.2874   14.5455 O   0  0  0  0  0  0  0  0  0  0  0  0
  -19.3944  -29.1586   15.3136 H   0  0  0  0  0  0  0  0  0  0  0  0
  1  2  1  0  0  0
  1  3  1  0  0  0
  1 10  1  0  0  0
  2 11  1  0  0  0
  3  4  1  0  0  0
  3  5  1  0  0  0
  4 11  1  0  0  0
  5  6  1  0  0  0
  5  7  1  0  0  0
  7  8  1  0  0  0
  7  9  1  0  0  0
  9 10  1  0  0  0
  9 16  1  0  0  0
 16 17  1  0  0  0
 11 12  1  0  0  0
  4 13  1  0  0  0
  6 14  1  0  0  0
  8 15  1  0  0  0
 17 18  1  0  0  0
M  END
> <minimizedAffinity>
-7.59954

$$$$
5A6K_NSG_A_1627


 18 19  0  0  0  0  0  0  0  0999 V2000
  -20.5506  -30.6863   12.8594 C   0  0  0  0  0  0  0  0  0  0  0  0
  -19.1225  -31.4845   13.5797 S   0  0  0  0  0  0  0  0  0  0  0  0
  -21.3701  -30.2737   14.0801 C   0  0  0  0  0  0  0  0  0  0  0  0
  -20.3444  -29.7220   14.9919 N   0  0  0  0  0  0  0  0  0  0  0  0
  -22.1774  -31.4595   14.7135 C   0  0  0  0  0  0  0  0  0  0  0  0
  -23.0838  -31.0143   15.7429 O   0  0  0  0  0  0  0  0  0  0  0  0
  -22.9436  -32.2937   13.6530 C   0  0  0  0  0  0  0  0  0  0  0  0
  -24.0922  -31.5858   13.2005 O   0  0  0  0  0  0  0  0  0  0  0  0
  -21.9444  -32.6507   12.5283 C   0  0  0  0  0  0  0  0  0  0  0  0
  -21.3763  -31.4908   11.9630 O   0  0  0  0  0  0  0  0  0  0  0  0
  -19.2956  -30.7282   15.1852 C   0  0  0  0  0  0  0  0  0  0  0  0
  -17.9876  -30.1667   15.7553 C   0  0  0  0  0  0  0  0  0  0  0  0
  -20.7708  -29.4940   15.8900 H   0  0  0  0  0  0  0  0  0  0  0  0
  -23.7569  -30.4351   15.3527 H   0  0  0  0  0  0  0  0  0  0  0  0
  -23.8187  -30.7398   12.8128 H   0  0  0  0  0  0  0  0  0  0  0  0
  -22.5285  -33.4530   11.3404 C   0  0  0  0  0  0  0  0  0  0  0  0
  -23.6887  -34.1924   11.7003 O   0  0  0  0  0  0  0  0  0  0  0  0
  -23.4607  -34.8374   12.3879 H   0  0  0  0  0  0  0  0  0  0  0  0
  1  2  1  0  0  0
  1  3  1  0  0  0
  1 10  1  0  0  0
  2 11  1  0  0  0
  3  4  1  0  0  0
  3  5  1  0  0  0
  4 11  1  0  0  0
  5  6  1  0  0  0
  5  7  1  0  0  0
  7  8  1  0  0  0
  7  9  1  0  0  0
  9 10  1  0  0  0
  9 16  1  0  0  0
 16 17  1  0  0  0
 11 12  1  0  0  0
  4 13  1  0  0  0
  6 14  1  0  0  0
  8 15  1  0  0  0
 17 18  1  0  0  0
M  END
> <minimizedAffinity>
-6.53335

$$$$
5A6K_NSG_A_1627


 18 19  0  0  0  0  0  0  0  0999 V2000
  -21.4338  -31.5491   14.7763 C   0  0  0  0  0  0  0  0  0  0  0  0
  -20.8184  -29.8850   14.5592 S   0  0  0  0  0  0  0  0  0  0  0  0
  -20.9074  -32.2776   13.5417 C   0  0  0  0  0  0  0  0  0  0  0  0
  -19.5123  -31.7956   13.4470 N   0  0  0  0  0  0  0  0  0  0  0  0
  -21.7442  -31.9869   12.2476 C   0  0  0  0  0  0  0  0  0  0  0  0
  -21.3478  -32.8234   11.1419 O   0  0  0  0  0  0  0  0  0  0  0  0
  -23.2728  -32.1070   12.4857 C   0  0  0  0  0  0  0  0  0  0  0  0
  -23.6541  -33.4749   12.5785 O   0  0  0  0  0  0  0  0  0  0  0  0
  -23.6168  -31.2740   13.7421 C   0  0  0  0  0  0  0  0  0  0  0  0
  -22.8823  -31.7130   14.8625 O   0  0  0  0  0  0  0  0  0  0  0  0
  -19.5210  -30.3297   13.4196 C   0  0  0  0  0  0  0  0  0  0  0  0
  -18.1642  -29.6900   13.7376 C   0  0  0  0  0  0  0  0  0  0  0  0
  -19.0834  -32.1521   12.5929 H   0  0  0  0  0  0  0  0  0  0  0  0
  -21.5336  -33.7512   11.3555 H   0  0  0  0  0  0  0  0  0  0  0  0
  -23.1772  -33.8945   13.3116 H   0  0  0  0  0  0  0  0  0  0  0  0
  -25.1017  -31.2986   14.1785 C   0  0  0  0  0  0  0  0  0  0  0  0
  -25.9229  -32.0289   13.2759 O   0  0  0  0  0  0  0  0  0  0  0  0
  -25.8955  -31.6090   12.4019 H   0  0  0  0  0  0  0  0  0  0  0  0
  1  2  1  0  0  0
  1  3  1  0  0  0
  1 10  1  0  0  0
  2 11  1  0  0  0
  3  4  1  0  0  0
  3  5  1  0  0  0
  4 11  1  0  0  0
  5  6  1  0  0  0
  5  7  1  0  0  0
  7  8  1  0  0  0
  7  9  1  0  0  0
  9 10  1  0  0  0
  9 16  1  0  0  0
 16 17  1  0  0  0
 11 12  1  0  0  0
  4 13  1  0  0  0
  6 14  1  0  0  0
  8 15  1  0  0  0
 17 18  1  0  0  0
M  END
> <minimizedAffinity>
-6.21815

$$$$
5A6K_NSG_A_1627


 18 19  0  0  0  0  0  0  0  0999 V2000
  -22.6321  -30.9387   13.4217 C   0  0  0  0  0  0  0  0  0  0  0  0
  -23.4003  -32.5469   13.2854 S   0  0  0  0  0  0  0  0  0  0  0  0
  -21.2549  -31.1582   12.7995 C   0  0  0  0  0  0  0  0  0  0  0  0
  -21.5643  -31.9533   11.5913 N   0  0  0  0  0  0  0  0  0  0  0  0
  -20.2475  -31.8764   13.7631 C   0  0  0  0  0  0  0  0  0  0  0  0
  -18.9083  -31.9062   13.2290 O   0  0  0  0  0  0  0  0  0  0  0  0
  -20.2400  -31.2593   15.1867 C   0  0  0  0  0  0  0  0  0  0  0  0
  -19.5483  -30.0157   15.1844 O   0  0  0  0  0  0  0  0  0  0  0  0
  -21.7086  -31.1586   15.6600 C   0  0  0  0  0  0  0  0  0  0  0  0
  -22.4812  -30.3893   14.7663 O   0  0  0  0  0  0  0  0  0  0  0  0
  -22.3271  -33.1401   11.9908 C   0  0  0  0  0  0  0  0  0  0  0  0
  -23.0636  -33.8284   10.8355 C   0  0  0  0  0  0  0  0  0  0  0  0
  -20.6968  -32.2398   11.1377 H   0  0  0  0  0  0  0  0  0  0  0  0
  -18.5723  -30.9999   13.1479 H   0  0  0  0  0  0  0  0  0  0  0  0
  -19.9825  -29.4053   14.5680 H   0  0  0  0  0  0  0  0  0  0  0  0
  -21.9228  -30.5219   17.0545 C   0  0  0  0  0  0  0  0  0  0  0  0
  -22.3400  -31.4705   18.0283 O   0  0  0  0  0  0  0  0  0  0  0  0
  -23.1905  -31.8539   17.7626 H   0  0  0  0  0  0  0  0  0  0  0  0
  1  2  1  0  0  0
  1  3  1  0  0  0
  1 10  1  0  0  0
  2 11  1  0  0  0
  3  4  1  0  0  0
  3  5  1  0  0  0
  4 11  1  0  0  0
  5  6  1  0  0  0
  5  7  1  0  0  0
  7  8  1  0  0  0
  7  9  1  0  0  0
  9 10  1  0  0  0
  9 16  1  0  0  0
 16 17  1  0  0  0
 11 12  1  0  0  0
  4 13  1  0  0  0
  6 14  1  0  0  0
  8 15  1  0  0  0
 17 18  1  0  0  0
M  END
> <minimizedAffinity>
-6.10960

$$$$
5A6K_NSG_A_1627


 18 19  0  0  0  0  0  0  0  0999 V2000
  -20.8561  -30.2465   14.7986 C   0  0  0  0  0  0  0  0  0  0  0  0
  -21.1998  -31.9670   14.4567 S   0  0  0  0  0  0  0  0  0  0  0  0
  -19.9321  -29.8427   13.6518 C   0  0  0  0  0  0  0  0  0  0  0  0
  -20.5845  -30.4556   12.4743 N   0  0  0  0  0  0  0  0  0  0  0  0
  -18.4525  -30.3230   13.8504 C   0  0  0  0  0  0  0  0  0  0  0  0
  -17.5629  -29.7754   12.8563 O   0  0  0  0  0  0  0  0  0  0  0  0
  -17.9127  -30.0205   15.2733 C   0  0  0  0  0  0  0  0  0  0  0  0
  -17.6153  -28.6353   15.4068 O   0  0  0  0  0  0  0  0  0  0  0  0
  -18.9575  -30.5378   16.2891 C   0  0  0  0  0  0  0  0  0  0  0  0
  -20.2164  -29.9405   16.0752 O   0  0  0  0  0  0  0  0  0  0  0  0
  -20.7666  -31.8880   12.7289 C   0  0  0  0  0  0  0  0  0  0  0  0
  -21.7812  -32.5645   11.7992 C   0  0  0  0  0  0  0  0  0  0  0  0
  -19.9973  -30.3255   11.6504 H   0  0  0  0  0  0  0  0  0  0  0  0
  -17.5265  -28.8107   12.9512 H   0  0  0  0  0  0  0  0  0  0  0  0
  -18.4183  -28.1153   15.2467 H   0  0  0  0  0  0  0  0  0  0  0  0
  -18.6242  -30.2906   17.7803 C   0  0  0  0  0  0  0  0  0  0  0  0
  -18.5226  -28.9073   18.0939 O   0  0  0  0  0  0  0  0  0  0  0  0
  -17.8036  -28.5107   17.5776 H   0  0  0  0  0  0  0  0  0  0  0  0
  1  2  1  0  0  0
  1  3  1  0  0  0
  1 10  1  0  0  0
  2 11  1  0  0  0
  3  4  1  0  0  0
  3  5  1  0  0  0
  4 11  1  0  0  0
  5  6  1  0  0  0
  5  7  1  0  0  0
  7  8  1  0  0  0
  7  9  1  0  0  0
  9 10  1  0  0  0
  9 16  1  0  0  0
 16 17  1  0  0  0
 11 12  1  0  0  0
  4 13  1  0  0  0
  6 14  1  0  0  0
  8 15  1  0  0  0
 17 18  1  0  0  0
M  END
> <minimizedAffinity>
-5.96238

$$$$
5A6K_NSG_A_1627


 18 19  0  0  0  0  0  0  0  0999 V2000
  -20.2438  -31.7843   15.7122 C   0  0  0  0  0  0  0  0  0  0  0  0
  -19.9986  -30.5703   17.0012 S   0  0  0  0  0  0  0  0  0  0  0  0
  -19.1555  -31.4384   14.6983 C   0  0  0  0  0  0  0  0  0  0  0  0
  -17.9731  -31.2017   15.5548 N   0  0  0  0  0  0  0  0  0  0  0  0
  -19.5163  -30.2052   13.7992 C   0  0  0  0  0  0  0  0  0  0  0  0
  -18.5664  -30.0116   12.7316 O   0  0  0  0  0  0  0  0  0  0  0  0
  -20.9552  -30.2863   13.2242 C   0  0  0  0  0  0  0  0  0  0  0  0
  -21.0135  -31.2360   12.1660 O   0  0  0  0  0  0  0  0  0  0  0  0
  -21.9109  -30.5979   14.3991 C   0  0  0  0  0  0  0  0  0  0  0  0
  -21.5457  -31.7935   15.0508 O   0  0  0  0  0  0  0  0  0  0  0  0
  -18.3138  -30.1891   16.5589 C   0  0  0  0  0  0  0  0  0  0  0  0
  -17.3508  -30.1417   17.7512 C   0  0  0  0  0  0  0  0  0  0  0  0
  -17.1963  -30.8701   14.9830 H   0  0  0  0  0  0  0  0  0  0  0  0
  -18.5941  -30.7736   12.1320 H   0  0  0  0  0  0  0  0  0  0  0  0
  -20.7469  -32.1074   12.4985 H   0  0  0  0  0  0  0  0  0  0  0  0
  -23.4037  -30.7637   14.0249 C   0  0  0  0  0  0  0  0  0  0  0  0
  -23.9371  -32.0110   14.4514 O   0  0  0  0  0  0  0  0  0  0  0  0
  -23.4581  -32.7334   14.0160 H   0  0  0  0  0  0  0  0  0  0  0  0
  1  2  1  0  0  0
  1  3  1  0  0  0
  1 10  1  0  0  0
  2 11  1  0  0  0
  3  4  1  0  0  0
  3  5  1  0  0  0
  4 11  1  0  0  0
  5  6  1  0  0  0
  5  7  1  0  0  0
  7  8  1  0  0  0
  7  9  1  0  0  0
  9 10  1  0  0  0
  9 16  1  0  0  0
 16 17  1  0  0  0
 11 12  1  0  0  0
  4 13  1  0  0  0
  6 14  1  0  0  0
  8 15  1  0  0  0
 17 18  1  0  0  0
M  END
> <minimizedAffinity>
-5.77846

$$$$
5A6K_NSG_A_1627


 18 19  0  0  0  0  0  0  0  0999 V2000
  -19.2704  -30.7832   13.6066 C   0  0  0  0  0  0  0  0  0  0  0  0
  -20.7863  -29.9226   14.0025 S   0  0  0  0  0  0  0  0  0  0  0  0
  -19.3892  -32.0800   14.4043 C   0  0  0  0  0  0  0  0  0  0  0  0
  -20.7911  -32.4852   14.1639 N   0  0  0  0  0  0  0  0  0  0  0  0
  -19.0560  -31.9032   15.9265 C   0  0  0  0  0  0  0  0  0  0  0  0
  -18.9920  -33.1652   16.6213 O   0  0  0  0  0  0  0  0  0  0  0  0
  -17.7507  -31.0981   16.1622 C   0  0  0  0  0  0  0  0  0  0  0  0
  -16.6129  -31.9034   15.8762 O   0  0  0  0  0  0  0  0  0  0  0  0
  -17.8363  -29.8097   15.3115 C   0  0  0  0  0  0  0  0  0  0  0  0
  -18.0195  -30.1107   13.9465 O   0  0  0  0  0  0  0  0  0  0  0  0
  -21.6731  -31.3746   14.5360 C   0  0  0  0  0  0  0  0  0  0  0  0
  -23.0921  -31.4844   13.9652 C   0  0  0  0  0  0  0  0  0  0  0  0
  -21.0134  -33.3042   14.7298 H   0  0  0  0  0  0  0  0  0  0  0  0
  -18.2601  -33.6932   16.2659 H   0  0  0  0  0  0  0  0  0  0  0  0
  -16.6499  -32.1992   14.9531 H   0  0  0  0  0  0  0  0  0  0  0  0
  -16.6001  -28.8804   15.3735 C   0  0  0  0  0  0  0  0  0  0  0  0
  -15.5995  -29.2408   14.4295 O   0  0  0  0  0  0  0  0  0  0  0  0
  -15.2841  -30.1383   14.6193 H   0  0  0  0  0  0  0  0  0  0  0  0
  1  2  1  0  0  0
  1  3  1  0  0  0
  1 10  1  0  0  0
  2 11  1  0  0  0
  3  4  1  0  0  0
  3  5  1  0  0  0
  4 11  1  0  0  0
  5  6  1  0  0  0
  5  7  1  0  0  0
  7  8  1  0  0  0
  7  9  1  0  0  0
  9 10  1  0  0  0
  9 16  1  0  0  0
 16 17  1  0  0  0
 11 12  1  0  0  0
  4 13  1  0  0  0
  6 14  1  0  0  0
  8 15  1  0  0  0
 17 18  1  0  0  0
M  END
> <minimizedAffinity>
-5.56729

$$$$
5A6K_NSG_A_1627


 18 19  0  0  0  0  0  0  0  0999 V2000
  -18.4081  -30.3837   16.6259 C   0  0  0  0  0  0  0  0  0  0  0  0
  -17.6177  -31.9858   16.5640 S   0  0  0  0  0  0  0  0  0  0  0  0
  -19.6290  -30.6329   17.5087 C   0  0  0  0  0  0  0  0  0  0  0  0
  -19.0758  -31.4519   18.6091 N   0  0  0  0  0  0  0  0  0  0  0  0
  -20.8062  -31.3403   16.7518 C   0  0  0  0  0  0  0  0  0  0  0  0
  -22.0090  -31.3975   17.5452 O   0  0  0  0  0  0  0  0  0  0  0  0
  -21.1063  -30.6909   15.3749 C   0  0  0  0  0  0  0  0  0  0  0  0
  -21.7911  -29.4555   15.5480 O   0  0  0  0  0  0  0  0  0  0  0  0
  -19.7649  -30.5627   14.6165 C   0  0  0  0  0  0  0  0  0  0  0  0
  -18.8321  -29.8054   15.3538 O   0  0  0  0  0  0  0  0  0  0  0  0
  -18.4022  -32.6205   18.0341 C   0  0  0  0  0  0  0  0  0  0  0  0
  -17.4422  -33.3267   18.9989 C   0  0  0  0  0  0  0  0  0  0  0  0
  -19.8314  -31.7585   19.2218 H   0  0  0  0  0  0  0  0  0  0  0  0
  -22.3274  -30.4971   17.7150 H   0  0  0  0  0  0  0  0  0  0  0  0
  -21.2449  -28.8546   16.0785 H   0  0  0  0  0  0  0  0  0  0  0  0
  -19.8421  -29.8919   13.2237 C   0  0  0  0  0  0  0  0  0  0  0  0
  -19.8854  -28.4727   13.3041 O   0  0  0  0  0  0  0  0  0  0  0  0
  -20.6797  -28.2004   13.7897 H   0  0  0  0  0  0  0  0  0  0  0  0
  1  2  1  0  0  0
  1  3  1  0  0  0
  1 10  1  0  0  0
  2 11  1  0  0  0
  3  4  1  0  0  0
  3  5  1  0  0  0
  4 11  1  0  0  0
  5  6  1  0  0  0
  5  7  1  0  0  0
  7  8  1  0  0  0
  7  9  1  0  0  0
  9 10  1  0  0  0
  9 16  1  0  0  0
 16 17  1  0  0  0
 11 12  1  0  0  0
  4 13  1  0  0  0
  6 14  1  0  0  0
  8 15  1  0  0  0
 17 18  1  0  0  0
M  END
> <minimizedAffinity>
-5.35764

$$$$
5A6K_NSG_A_1627


 18 19  0  0  0  0  0  0  0  0999 V2000
  -19.2565  -31.5928   16.2720 C   0  0  0  0  0  0  0  0  0  0  0  0
  -18.8616  -30.4843   17.6175 S   0  0  0  0  0  0  0  0  0  0  0  0
  -18.2263  -31.2257   15.2062 C   0  0  0  0  0  0  0  0  0  0  0  0
  -16.9764  -31.1025   15.9874 N   0  0  0  0  0  0  0  0  0  0  0  0
  -18.5878  -29.9177   14.4203 C   0  0  0  0  0  0  0  0  0  0  0  0
  -17.7068  -29.6922   13.3011 O   0  0  0  0  0  0  0  0  0  0  0  0
  -20.0658  -29.8941   13.9484 C   0  0  0  0  0  0  0  0  0  0  0  0
  -20.2452  -30.7637   12.8364 O   0  0  0  0  0  0  0  0  0  0  0  0
  -20.9509  -30.2443   15.1669 C   0  0  0  0  0  0  0  0  0  0  0  0
  -20.6005  -31.4976   15.7089 O   0  0  0  0  0  0  0  0  0  0  0  0
  -17.1952  -30.1485   17.0792 C   0  0  0  0  0  0  0  0  0  0  0  0
  -16.1497  -30.2277   18.1980 C   0  0  0  0  0  0  0  0  0  0  0  0
  -16.2262  -30.7666   15.3836 H   0  0  0  0  0  0  0  0  0  0  0  0
  -17.8142  -30.4083   12.6557 H   0  0  0  0  0  0  0  0  0  0  0  0
  -19.9994  -31.6672   13.0895 H   0  0  0  0  0  0  0  0  0  0  0  0
  -22.4727  -30.3167   14.8931 C   0  0  0  0  0  0  0  0  0  0  0  0
  -22.9149  -29.3007   14.0017 O   0  0  0  0  0  0  0  0  0  0  0  0
  -22.7426  -28.4300   14.3929 H   0  0  0  0  0  0  0  0  0  0  0  0
  1  2  1  0  0  0
  1  3  1  0  0  0
  1 10  1  0  0  0
  2 11  1  0  0  0
  3  4  1  0  0  0
  3  5  1  0  0  0
  4 11  1  0  0  0
  5  6  1  0  0  0
  5  7  1  0  0  0
  7  8  1  0  0  0
  7  9  1  0  0  0
  9 10  1  0  0  0
  9 16  1  0  0  0
 16 17  1  0  0  0
 11 12  1  0  0  0
  4 13  1  0  0  0
  6 14  1  0  0  0
  8 15  1  0  0  0
 17 18  1  0  0  0
M  END
> <minimizedAffinity>
-5.18444

$$$$
5A6K_NSG_A_1627


 18 19  0  0  0  0  0  0  0  0999 V2000
  -21.6769  -32.1995   13.9121 C   0  0  0  0  0  0  0  0  0  0  0  0
  -22.9093  -31.7401   12.7016 S   0  0  0  0  0  0  0  0  0  0  0  0
  -22.0860  -31.3974   15.1455 C   0  0  0  0  0  0  0  0  0  0  0  0
  -23.5535  -31.5785   15.1820 N   0  0  0  0  0  0  0  0  0  0  0  0
  -21.6572  -29.8907   15.0744 C   0  0  0  0  0  0  0  0  0  0  0  0
  -21.8850  -29.1991   16.3191 O   0  0  0  0  0  0  0  0  0  0  0  0
  -20.1826  -29.7103   14.6266 C   0  0  0  0  0  0  0  0  0  0  0  0
  -19.2972  -30.0440   15.6895 O   0  0  0  0  0  0  0  0  0  0  0  0
  -19.9753  -30.5567   13.3493 C   0  0  0  0  0  0  0  0  0  0  0  0
  -20.2840  -31.9128   13.5800 O   0  0  0  0  0  0  0  0  0  0  0  0
  -24.1110  -31.1696   13.8890 C   0  0  0  0  0  0  0  0  0  0  0  0
  -25.5339  -31.6800   13.6318 C   0  0  0  0  0  0  0  0  0  0  0  0
  -23.9517  -31.0036   15.9245 H   0  0  0  0  0  0  0  0  0  0  0  0
  -21.3250  -29.5850   17.0107 H   0  0  0  0  0  0  0  0  0  0  0  0
  -19.4452  -30.9646   15.9566 H   0  0  0  0  0  0  0  0  0  0  0  0
  -18.5432  -30.5469   12.7620 C   0  0  0  0  0  0  0  0  0  0  0  0
  -17.6633  -29.6957   13.4856 O   0  0  0  0  0  0  0  0  0  0  0  0
  -17.9889  -28.7829   13.4431 H   0  0  0  0  0  0  0  0  0  0  0  0
  1  2  1  0  0  0
  1  3  1  0  0  0
  1 10  1  0  0  0
  2 11  1  0  0  0
  3  4  1  0  0  0
  3  5  1  0  0  0
  4 11  1  0  0  0
  5  6  1  0  0  0
  5  7  1  0  0  0
  7  8  1  0  0  0
  7  9  1  0  0  0
  9 10  1  0  0  0
  9 16  1  0  0  0
 16 17  1  0  0  0
 11 12  1  0  0  0
  4 13  1  0  0  0
  6 14  1  0  0  0
  8 15  1  0  0  0
 17 18  1  0  0  0
M  END
> <minimizedAffinity>
-4.90496

$$$$
