5WYX_CU8_A_916


 21 23  0  0  0  0  0  0  0  0999 V2000
   60.5897  -30.8509   37.5179 C   0  0  0  0  0  0  0  0  0  0  0  0
   61.4398  -30.7061   36.3460 C   0  0  0  0  0  0  0  0  0  0  0  0
   60.6485  -30.1495   35.5133 N   0  0  0  0  0  0  0  0  0  0  0  0
   59.3942  -29.9097   35.9877 N   0  0  0  0  0  0  0  0  0  0  0  0
   59.3558  -30.3464   37.2323 C   0  0  0  0  0  0  0  0  0  0  0  0
   62.7030  -31.0463   36.1085 N   0  0  0  0  0  0  0  0  0  0  0  0
   63.2278  -30.7782   34.9363 C   0  0  0  0  0  0  0  0  0  0  0  0
   62.4092  -30.1705   34.0108 C   0  0  0  0  0  0  0  0  0  0  0  0
   61.1055  -29.8637   34.3118 C   0  0  0  0  0  0  0  0  0  0  0  0
   60.2475  -29.1998   33.3163 C   0  0  0  0  0  0  0  0  0  0  0  0
   59.5710  -28.0717   33.6965 C   0  0  0  0  0  0  0  0  0  0  0  0
   58.7482  -27.3967   32.8408 C   0  0  0  0  0  0  0  0  0  0  0  0
   58.6219  -27.8365   31.5653 C   0  0  0  0  0  0  0  0  0  0  0  0
   59.2969  -28.9425   31.1562 C   0  0  0  0  0  0  0  0  0  0  0  0
   59.1290  -29.3857   29.7487 C   0  0  0  0  0  0  0  0  0  0  0  0
   60.1158  -29.6320   32.0205 C   0  0  0  0  0  0  0  0  0  0  0  0
   60.4106  -31.9267   39.5094 O   0  0  0  0  0  0  0  0  0  0  0  0
   61.1444  -31.4521   38.7291 C   0  0  0  0  0  0  0  0  0  0  0  0
   62.4110  -31.4180   38.9656 N   0  0  0  0  0  0  0  0  0  0  0  0
   62.7698  -31.8274   39.7859 H   0  0  0  0  0  0  0  0  0  0  0  0
   63.0196  -30.9826   38.3259 H   0  0  0  0  0  0  0  0  0  0  0  0
 17 18  2  0  0  0
 19 18  1  0  0  0
 18  1  1  0  0  0
  1  5  1  0  0  0
  1  2  2  0  0  0
  5  4  2  0  0  0
  6  2  1  0  0  0
  6  7  2  0  0  0
  2  3  1  0  0  0
  4  3  1  0  0  0
  3  9  1  0  0  0
  7  8  1  0  0  0
  9  8  2  0  0  0
  9 10  1  0  0  0
 11 10  2  0  0  0
 11 12  1  0  0  0
 10 16  1  0  0  0
 12 13  2  0  0  0
 16 14  2  0  0  0
 13 14  1  0  0  0
 14 15  1  0  0  0
 19 20  1  0  0  0
 19 21  1  0  0  0
M  END
> <minimizedAffinity>
-11.32633

$$$$
5WYX_CU8_A_916


 21 23  0  0  0  0  0  0  0  0999 V2000
   60.5924  -30.8229   36.6788 C   0  0  0  0  0  0  0  0  0  0  0  0
   61.3605  -30.4771   35.4925 C   0  0  0  0  0  0  0  0  0  0  0  0
   60.4644  -29.9733   34.7356 N   0  0  0  0  0  0  0  0  0  0  0  0
   59.2127  -29.9426   35.2724 N   0  0  0  0  0  0  0  0  0  0  0  0
   59.2904  -30.4715   36.4788 C   0  0  0  0  0  0  0  0  0  0  0  0
   62.6453  -30.6234   35.1833 N   0  0  0  0  0  0  0  0  0  0  0  0
   63.0748  -30.2000   34.0182 C   0  0  0  0  0  0  0  0  0  0  0  0
   62.1406  -29.6428   33.1740 C   0  0  0  0  0  0  0  0  0  0  0  0
   60.8231  -29.5397   33.5451 C   0  0  0  0  0  0  0  0  0  0  0  0
   59.8392  -28.9270   32.6371 C   0  0  0  0  0  0  0  0  0  0  0  0
   59.0728  -27.8979   33.1149 C   0  0  0  0  0  0  0  0  0  0  0  0
   58.1313  -27.2769   32.3448 C   0  0  0  0  0  0  0  0  0  0  0  0
   57.9723  -27.6678   31.0572 C   0  0  0  0  0  0  0  0  0  0  0  0
   58.7332  -28.6738   30.5519 C   0  0  0  0  0  0  0  0  0  0  0  0
   58.5250  -29.0665   29.1348 C   0  0  0  0  0  0  0  0  0  0  0  0
   59.6728  -29.3100   31.3299 C   0  0  0  0  0  0  0  0  0  0  0  0
   62.2195  -32.0982   37.6175 O   0  0  0  0  0  0  0  0  0  0  0  0
   61.2777  -31.4310   37.8176 C   0  0  0  0  0  0  0  0  0  0  0  0
   60.8293  -31.2829   39.0169 N   0  0  0  0  0  0  0  0  0  0  0  0
   61.3019  -31.6986   39.7739 H   0  0  0  0  0  0  0  0  0  0  0  0
   60.0142  -30.7542   39.1759 H   0  0  0  0  0  0  0  0  0  0  0  0
 17 18  2  0  0  0
 19 18  1  0  0  0
 18  1  1  0  0  0
  1  5  1  0  0  0
  1  2  2  0  0  0
  5  4  2  0  0  0
  6  2  1  0  0  0
  6  7  2  0  0  0
  2  3  1  0  0  0
  4  3  1  0  0  0
  3  9  1  0  0  0
  7  8  1  0  0  0
  9  8  2  0  0  0
  9 10  1  0  0  0
 11 10  2  0  0  0
 11 12  1  0  0  0
 10 16  1  0  0  0
 12 13  2  0  0  0
 16 14  2  0  0  0
 13 14  1  0  0  0
 14 15  1  0  0  0
 19 20  1  0  0  0
 19 21  1  0  0  0
M  END
> <minimizedAffinity>
-10.84864

$$$$
5WYX_CU8_A_916


 21 23  0  0  0  0  0  0  0  0999 V2000
   58.8971  -29.3663   32.2244 C   0  0  0  0  0  0  0  0  0  0  0  0
   60.2382  -29.5453   32.7597 C   0  0  0  0  0  0  0  0  0  0  0  0
   59.9972  -29.8973   33.9628 N   0  0  0  0  0  0  0  0  0  0  0  0
   58.6753  -29.9740   34.2831 N   0  0  0  0  0  0  0  0  0  0  0  0
   57.9908  -29.6429   33.2046 C   0  0  0  0  0  0  0  0  0  0  0  0
   61.4446  -29.3910   32.2228 N   0  0  0  0  0  0  0  0  0  0  0  0
   62.5060  -29.6396   32.9529 C   0  0  0  0  0  0  0  0  0  0  0  0
   62.2894  -30.0297   34.2555 C   0  0  0  0  0  0  0  0  0  0  0  0
   61.0171  -30.1500   34.7565 C   0  0  0  0  0  0  0  0  0  0  0  0
   60.8020  -30.5833   36.1471 C   0  0  0  0  0  0  0  0  0  0  0  0
   59.5213  -30.5868   36.6316 C   0  0  0  0  0  0  0  0  0  0  0  0
   59.2312  -30.9664   37.9110 C   0  0  0  0  0  0  0  0  0  0  0  0
   60.2368  -31.3845   38.7173 C   0  0  0  0  0  0  0  0  0  0  0  0
   61.5145  -31.4091   38.2557 C   0  0  0  0  0  0  0  0  0  0  0  0
   62.5831  -31.8770   39.1748 C   0  0  0  0  0  0  0  0  0  0  0  0
   61.8109  -31.0142   36.9714 C   0  0  0  0  0  0  0  0  0  0  0  0
   57.9770  -28.1101   30.5719 O   0  0  0  0  0  0  0  0  0  0  0  0
   58.7362  -28.9647   30.8284 C   0  0  0  0  0  0  0  0  0  0  0  0
   59.3752  -29.5701   29.8869 N   0  0  0  0  0  0  0  0  0  0  0  0
   59.2565  -29.2881   28.9511 H   0  0  0  0  0  0  0  0  0  0  0  0
   59.9821  -30.3144   30.1035 H   0  0  0  0  0  0  0  0  0  0  0  0
 17 18  2  0  0  0
 19 18  1  0  0  0
 18  1  1  0  0  0
  1  5  1  0  0  0
  1  2  2  0  0  0
  5  4  2  0  0  0
  6  2  1  0  0  0
  6  7  2  0  0  0
  2  3  1  0  0  0
  4  3  1  0  0  0
  3  9  1  0  0  0
  7  8  1  0  0  0
  9  8  2  0  0  0
  9 10  1  0  0  0
 11 10  2  0  0  0
 11 12  1  0  0  0
 10 16  1  0  0  0
 12 13  2  0  0  0
 16 14  2  0  0  0
 13 14  1  0  0  0
 14 15  1  0  0  0
 19 20  1  0  0  0
 19 21  1  0  0  0
M  END
> <minimizedAffinity>
-9.87059

$$$$
5WYX_CU8_A_916


 21 23  0  0  0  0  0  0  0  0999 V2000
   57.2057  -29.5652   32.0323 C   0  0  0  0  0  0  0  0  0  0  0  0
   58.6315  -29.2755   32.0181 C   0  0  0  0  0  0  0  0  0  0  0  0
   59.0047  -29.7321   33.1503 N   0  0  0  0  0  0  0  0  0  0  0  0
   58.0108  -30.2839   33.9009 N   0  0  0  0  0  0  0  0  0  0  0  0
   56.8925  -30.1795   33.2084 C   0  0  0  0  0  0  0  0  0  0  0  0
   59.4165  -28.6846   31.1224 N   0  0  0  0  0  0  0  0  0  0  0  0
   60.6984  -28.5661   31.3748 C   0  0  0  0  0  0  0  0  0  0  0  0
   61.1437  -29.0531   32.5833 C   0  0  0  0  0  0  0  0  0  0  0  0
   60.2771  -29.6344   33.4752 C   0  0  0  0  0  0  0  0  0  0  0  0
   60.7716  -30.1643   34.7568 C   0  0  0  0  0  0  0  0  0  0  0  0
   62.0891  -30.5277   34.8400 C   0  0  0  0  0  0  0  0  0  0  0  0
   62.6302  -31.0351   35.9867 C   0  0  0  0  0  0  0  0  0  0  0  0
   61.8486  -31.1522   37.0873 C   0  0  0  0  0  0  0  0  0  0  0  0
   60.5424  -30.7811   37.0377 C   0  0  0  0  0  0  0  0  0  0  0  0
   59.7252  -30.9257   38.2694 C   0  0  0  0  0  0  0  0  0  0  0  0
   59.9917  -30.2825   35.8797 C   0  0  0  0  0  0  0  0  0  0  0  0
   55.3407  -29.6945   30.7438 O   0  0  0  0  0  0  0  0  0  0  0  0
   56.3938  -29.1981   30.8738 C   0  0  0  0  0  0  0  0  0  0  0  0
   56.8430  -28.3842   29.9810 N   0  0  0  0  0  0  0  0  0  0  0  0
   56.2842  -28.1463   29.2061 H   0  0  0  0  0  0  0  0  0  0  0  0
   57.7448  -28.0004   30.0739 H   0  0  0  0  0  0  0  0  0  0  0  0
 17 18  2  0  0  0
 19 18  1  0  0  0
 18  1  1  0  0  0
  1  5  1  0  0  0
  1  2  2  0  0  0
  5  4  2  0  0  0
  6  2  1  0  0  0
  6  7  2  0  0  0
  2  3  1  0  0  0
  4  3  1  0  0  0
  3  9  1  0  0  0
  7  8  1  0  0  0
  9  8  2  0  0  0
  9 10  1  0  0  0
 11 10  2  0  0  0
 11 12  1  0  0  0
 10 16  1  0  0  0
 12 13  2  0  0  0
 16 14  2  0  0  0
 13 14  1  0  0  0
 14 15  1  0  0  0
 19 20  1  0  0  0
 19 21  1  0  0  0
M  END
> <minimizedAffinity>
-9.33847

$$$$
5WYX_CU8_A_916


 21 23  0  0  0  0  0  0  0  0999 V2000
   62.2207  -30.3450   34.3226 C   0  0  0  0  0  0  0  0  0  0  0  0
   60.8451  -30.2711   34.7909 C   0  0  0  0  0  0  0  0  0  0  0  0
   60.2333  -29.8608   33.7483 N   0  0  0  0  0  0  0  0  0  0  0  0
   61.0279  -29.6592   32.6603 N   0  0  0  0  0  0  0  0  0  0  0  0
   62.2629  -29.9581   33.0161 C   0  0  0  0  0  0  0  0  0  0  0  0
   60.2856  -30.5250   35.9699 N   0  0  0  0  0  0  0  0  0  0  0  0
   58.9889  -30.3799   36.1068 C   0  0  0  0  0  0  0  0  0  0  0  0
   58.2899  -29.9458   35.0028 C   0  0  0  0  0  0  0  0  0  0  0  0
   58.9308  -29.6804   33.8183 C   0  0  0  0  0  0  0  0  0  0  0  0
   58.1668  -29.2318   32.6423 C   0  0  0  0  0  0  0  0  0  0  0  0
   58.5100  -28.0380   32.0662 C   0  0  0  0  0  0  0  0  0  0  0  0
   57.8509  -27.5421   30.9778 C   0  0  0  0  0  0  0  0  0  0  0  0
   56.8473  -28.2686   30.4290 C   0  0  0  0  0  0  0  0  0  0  0  0
   56.4989  -29.4657   30.9692 C   0  0  0  0  0  0  0  0  0  0  0  0
   55.3944  -30.2274   30.3324 C   0  0  0  0  0  0  0  0  0  0  0  0
   57.1526  -29.9608   32.0740 C   0  0  0  0  0  0  0  0  0  0  0  0
   64.3436  -30.9722   34.8278 O   0  0  0  0  0  0  0  0  0  0  0  0
   63.2617  -30.7993   35.2425 C   0  0  0  0  0  0  0  0  0  0  0  0
   62.9899  -31.0567   36.4758 N   0  0  0  0  0  0  0  0  0  0  0  0
   63.7018  -31.3619   37.0835 H   0  0  0  0  0  0  0  0  0  0  0  0
   62.0703  -30.9482   36.8102 H   0  0  0  0  0  0  0  0  0  0  0  0
 17 18  2  0  0  0
 19 18  1  0  0  0
 18  1  1  0  0  0
  1  5  1  0  0  0
  1  2  2  0  0  0
  5  4  2  0  0  0
  6  2  1  0  0  0
  6  7  2  0  0  0
  2  3  1  0  0  0
  4  3  1  0  0  0
  3  9  1  0  0  0
  7  8  1  0  0  0
  9  8  2  0  0  0
  9 10  1  0  0  0
 11 10  2  0  0  0
 11 12  1  0  0  0
 10 16  1  0  0  0
 12 13  2  0  0  0
 16 14  2  0  0  0
 13 14  1  0  0  0
 14 15  1  0  0  0
 19 20  1  0  0  0
 19 21  1  0  0  0
M  END
> <minimizedAffinity>
-8.63829

$$$$
