3B1M_KRC_A_1


 41 45  0  0  0  0  0  0  0  0999 V2000
   15.4767   50.1308   64.9819 C   0  0  0  0  0  0  0  0  0  0  0  0
   15.7642   50.8708   63.9154 C   0  0  0  0  0  0  0  0  0  0  0  0
   15.5049   50.3546   62.5511 C   0  0  0  0  0  0  0  0  0  0  0  0
   14.7416   49.2728   62.3716 C   0  0  0  0  0  0  0  0  0  0  0  0
   14.6278   48.2228   63.4831 C   0  0  0  0  0  0  0  0  0  0  0  0
   14.6088   48.9351   64.8451 C   0  0  0  0  0  0  0  0  0  0  0  0
   13.9460   48.7830   61.4178 O   0  0  0  0  0  0  0  0  0  0  0  0
   12.9900   47.9095   61.8674 C   0  0  0  0  0  0  0  0  0  0  0  0
   13.3268   47.4992   63.1747 C   0  0  0  0  0  0  0  0  0  0  0  0
   11.8430   47.4180   61.2609 C   0  0  0  0  0  0  0  0  0  0  0  0
   11.0205   46.5265   61.9471 C   0  0  0  0  0  0  0  0  0  0  0  0
   11.3506   46.1262   63.2363 C   0  0  0  0  0  0  0  0  0  0  0  0
   12.4953   46.6085   63.8496 C   0  0  0  0  0  0  0  0  0  0  0  0
   13.9649   48.5165   65.8037 O   0  0  0  0  0  0  0  0  0  0  0  0
   12.8098   46.1997   65.1274 O   0  0  0  0  0  0  0  0  0  0  0  0
   15.8202   47.2710   63.4194 C   0  0  0  0  0  0  0  0  0  0  0  0
   16.3154   52.0988   64.0707 O   0  0  0  0  0  0  0  0  0  0  0  0
   13.5832   46.5235   65.5458 H   0  0  0  0  0  0  0  0  0  0  0  0
   16.4824   52.4321   64.9304 H   0  0  0  0  0  0  0  0  0  0  0  0
   11.4906   47.8369   59.8963 C   0  0  0  0  0  0  0  0  0  0  0  0
   10.9326   46.9298   59.0763 N   0  0  0  0  0  0  0  0  0  0  0  0
   11.7178   48.9820   59.5233 O   0  0  0  0  0  0  0  0  0  0  0  0
   10.7601   46.0158   59.3989 H   0  0  0  0  0  0  0  0  0  0  0  0
   10.5832   47.2971   57.7128 C   0  0  0  0  0  0  0  0  0  0  0  0
    9.1548   47.7693   57.6682 C   0  0  0  0  0  0  0  0  0  0  0  0
    8.8505   49.1102   57.3829 C   0  0  0  0  0  0  0  0  0  0  0  0
    7.5178   49.5382   57.3488 C   0  0  0  0  0  0  0  0  0  0  0  0
    6.4813   48.6326   57.5979 C   0  0  0  0  0  0  0  0  0  0  0  0
    6.7740   47.3142   57.8787 C   0  0  0  0  0  0  0  0  0  0  0  0
    8.1095   46.8741   57.9153 C   0  0  0  0  0  0  0  0  0  0  0  0
    5.7382   46.4336   58.1231 C   0  0  0  0  0  0  0  0  0  0  0  0
    6.0153   45.0908   58.4089 C   0  0  0  0  0  0  0  0  0  0  0  0
    7.3406   44.6461   58.4463 C   0  0  0  0  0  0  0  0  0  0  0  0
    8.3889   45.5432   58.1980 C   0  0  0  0  0  0  0  0  0  0  0  0
    9.9564   50.0903   57.1138 C   0  0  0  0  0  0  0  0  0  0  0  0
   10.1372   50.3381   55.6152 C   0  0  0  0  0  0  0  0  0  0  0  0
   16.0402   50.4746   66.3026 C   0  0  0  0  0  0  0  0  0  0  0  0
   17.2286   49.6840   66.8577 C   0  0  0  0  0  0  0  0  0  0  0  0
   15.5571   51.3895   66.9532 O   0  0  0  0  0  0  0  0  0  0  0  0
    9.8801   46.0339   61.3471 O   0  0  0  0  0  0  0  0  0  0  0  0
    8.6175   45.7709   61.9154 C   0  0  0  0  0  0  0  0  0  0  0  0
  1  2  2  0  0  0
  1  6  1  0  0  0
  1 37  1  0  0  0
  2  3  1  0  0  0
  2 17  1  0  0  0
  3  4  2  0  0  0
  4  5  1  0  0  0
  4  7  1  0  0  0
  5  6  1  0  0  0
  5  9  1  0  0  0
  5 16  1  0  0  0
  6 14  2  0  0  0
  7  8  1  0  0  0
  8  9  2  0  0  0
  8 10  1  0  0  0
  9 13  1  0  0  0
 10 11  2  0  0  0
 10 20  1  0  0  0
 11 12  1  0  0  0
 11 40  1  0  0  0
 12 13  2  0  0  0
 13 15  1  0  0  0
 40 41  1  0  0  0
 20 21  1  0  0  0
 20 22  2  0  0  0
 21 24  1  0  0  0
 37 38  1  0  0  0
 37 39  2  0  0  0
 24 25  1  0  0  0
 25 26  2  0  0  0
 25 30  1  0  0  0
 26 27  1  0  0  0
 26 35  1  0  0  0
 27 28  2  0  0  0
 28 29  1  0  0  0
 29 30  2  0  0  0
 29 31  1  0  0  0
 30 34  1  0  0  0
 31 32  2  0  0  0
 32 33  1  0  0  0
 33 34  2  0  0  0
 35 36  1  0  0  0
 15 18  1  0  0  0
 21 23  1  0  0  0
 17 19  1  0  0  0
M  END
> <minimizedAffinity>
-11.28889

$$$$
3B1M_KRC_A_1


 41 45  0  0  0  0  0  0  0  0999 V2000
   17.3600   52.0366   61.6694 C   0  0  0  0  0  0  0  0  0  0  0  0
   17.4975   52.0174   60.3471 C   0  0  0  0  0  0  0  0  0  0  0  0
   17.0433   50.8462   59.5617 C   0  0  0  0  0  0  0  0  0  0  0  0
   16.2552   49.9227   60.1197 C   0  0  0  0  0  0  0  0  0  0  0  0
   16.2941   49.6978   61.6358 C   0  0  0  0  0  0  0  0  0  0  0  0
   16.4738   51.0528   62.3390 C   0  0  0  0  0  0  0  0  0  0  0  0
   15.3289   49.0512   59.7138 O   0  0  0  0  0  0  0  0  0  0  0  0
   14.4410   48.6705   60.6863 C   0  0  0  0  0  0  0  0  0  0  0  0
   14.9578   49.0421   61.9455 C   0  0  0  0  0  0  0  0  0  0  0  0
   13.2162   48.0239   60.6036 C   0  0  0  0  0  0  0  0  0  0  0  0
   12.4940   47.7503   61.7637 C   0  0  0  0  0  0  0  0  0  0  0  0
   13.0018   48.1206   63.0032 C   0  0  0  0  0  0  0  0  0  0  0  0
   14.2252   48.7636   63.0969 C   0  0  0  0  0  0  0  0  0  0  0  0
   15.9703   51.3058   63.4304 O   0  0  0  0  0  0  0  0  0  0  0  0
   14.7158   49.1218   64.3337 O   0  0  0  0  0  0  0  0  0  0  0  0
   17.4592   48.7772   61.9923 C   0  0  0  0  0  0  0  0  0  0  0  0
   18.0731   53.0657   59.7099 O   0  0  0  0  0  0  0  0  0  0  0  0
   15.5429   49.5569   64.4016 H   0  0  0  0  0  0  0  0  0  0  0  0
   18.3629   53.8100   60.1998 H   0  0  0  0  0  0  0  0  0  0  0  0
   12.6759   47.6283   59.2946 C   0  0  0  0  0  0  0  0  0  0  0  0
   11.3929   47.9212   59.0210 N   0  0  0  0  0  0  0  0  0  0  0  0
   13.3824   47.0348   58.4881 O   0  0  0  0  0  0  0  0  0  0  0  0
   10.8451   48.3985   59.6852 H   0  0  0  0  0  0  0  0  0  0  0  0
   10.8131   47.5337   57.7444 C   0  0  0  0  0  0  0  0  0  0  0  0
    9.3783   47.9845   57.6849 C   0  0  0  0  0  0  0  0  0  0  0  0
    9.0569   49.3196   57.3911 C   0  0  0  0  0  0  0  0  0  0  0  0
    7.7184   49.7278   57.3432 C   0  0  0  0  0  0  0  0  0  0  0  0
    6.6932   48.8080   57.5868 C   0  0  0  0  0  0  0  0  0  0  0  0
    7.0027   47.4953   57.8758 C   0  0  0  0  0  0  0  0  0  0  0  0
    8.3441   47.0750   57.9264 C   0  0  0  0  0  0  0  0  0  0  0  0
    5.9777   46.6006   58.1147 C   0  0  0  0  0  0  0  0  0  0  0  0
    6.2719   45.2632   58.4088 C   0  0  0  0  0  0  0  0  0  0  0  0
    7.6033   44.8382   58.4600 C   0  0  0  0  0  0  0  0  0  0  0  0
    8.6404   45.7496   58.2173 C   0  0  0  0  0  0  0  0  0  0  0  0
   10.1507   50.3148   57.1277 C   0  0  0  0  0  0  0  0  0  0  0  0
   10.2644   50.6460   55.6387 C   0  0  0  0  0  0  0  0  0  0  0  0
   18.1080   53.0154   62.4833 C   0  0  0  0  0  0  0  0  0  0  0  0
   19.0194   52.5329   63.6155 C   0  0  0  0  0  0  0  0  0  0  0  0
   17.9986   54.2109   62.2539 O   0  0  0  0  0  0  0  0  0  0  0  0
   11.2767   47.1059   61.6860 O   0  0  0  0  0  0  0  0  0  0  0  0
   10.5983   46.3622   62.6725 C   0  0  0  0  0  0  0  0  0  0  0  0
  1  2  2  0  0  0
  1  6  1  0  0  0
  1 37  1  0  0  0
  2  3  1  0  0  0
  2 17  1  0  0  0
  3  4  2  0  0  0
  4  5  1  0  0  0
  4  7  1  0  0  0
  5  6  1  0  0  0
  5  9  1  0  0  0
  5 16  1  0  0  0
  6 14  2  0  0  0
  7  8  1  0  0  0
  8  9  2  0  0  0
  8 10  1  0  0  0
  9 13  1  0  0  0
 10 11  2  0  0  0
 10 20  1  0  0  0
 11 12  1  0  0  0
 11 40  1  0  0  0
 12 13  2  0  0  0
 13 15  1  0  0  0
 40 41  1  0  0  0
 20 21  1  0  0  0
 20 22  2  0  0  0
 21 24  1  0  0  0
 37 38  1  0  0  0
 37 39  2  0  0  0
 24 25  1  0  0  0
 25 26  2  0  0  0
 25 30  1  0  0  0
 26 27  1  0  0  0
 26 35  1  0  0  0
 27 28  2  0  0  0
 28 29  1  0  0  0
 29 30  2  0  0  0
 29 31  1  0  0  0
 30 34  1  0  0  0
 31 32  2  0  0  0
 32 33  1  0  0  0
 33 34  2  0  0  0
 35 36  1  0  0  0
 15 18  1  0  0  0
 21 23  1  0  0  0
 17 19  1  0  0  0
M  END
> <minimizedAffinity>
-11.28645

$$$$
3B1M_KRC_A_1


 41 45  0  0  0  0  0  0  0  0999 V2000
   16.0529   50.8594   63.4863 C   0  0  0  0  0  0  0  0  0  0  0  0
   16.2820   51.3038   62.2544 C   0  0  0  0  0  0  0  0  0  0  0  0
   15.9316   50.4729   61.0790 C   0  0  0  0  0  0  0  0  0  0  0  0
   15.1456   49.4015   61.2189 C   0  0  0  0  0  0  0  0  0  0  0  0
   15.0890   48.6633   62.5615 C   0  0  0  0  0  0  0  0  0  0  0  0
   15.1639   49.6912   63.7020 C   0  0  0  0  0  0  0  0  0  0  0  0
   14.2860   48.7124   60.4647 O   0  0  0  0  0  0  0  0  0  0  0  0
   13.3496   48.0040   61.1720 C   0  0  0  0  0  0  0  0  0  0  0  0
   13.7626   47.9215   62.5187 C   0  0  0  0  0  0  0  0  0  0  0  0
   12.1611   47.4089   60.7743 C   0  0  0  0  0  0  0  0  0  0  0  0
   11.3725   46.7380   61.7072 C   0  0  0  0  0  0  0  0  0  0  0  0
   11.7779   46.6610   63.0342 C   0  0  0  0  0  0  0  0  0  0  0  0
   12.9644   47.2488   63.4409 C   0  0  0  0  0  0  0  0  0  0  0  0
   14.5763   49.5410   64.7701 O   0  0  0  0  0  0  0  0  0  0  0  0
   13.3534   47.1612   64.7599 O   0  0  0  0  0  0  0  0  0  0  0  0
   16.2636   47.6934   62.6682 C   0  0  0  0  0  0  0  0  0  0  0  0
   16.8566   52.5166   62.0669 O   0  0  0  0  0  0  0  0  0  0  0  0
   14.1553   47.5574   65.0392 H   0  0  0  0  0  0  0  0  0  0  0  0
   17.0810   53.0479   62.8053 H   0  0  0  0  0  0  0  0  0  0  0  0
   11.7290   47.4859   59.3710 C   0  0  0  0  0  0  0  0  0  0  0  0
   10.4635   47.8592   59.1144 N   0  0  0  0  0  0  0  0  0  0  0  0
   12.5072   47.2010   58.4682 O   0  0  0  0  0  0  0  0  0  0  0  0
    9.8568   48.0830   59.8567 H   0  0  0  0  0  0  0  0  0  0  0  0
    9.9894   47.9330   57.7411 C   0  0  0  0  0  0  0  0  0  0  0  0
    8.4848   47.9706   57.7286 C   0  0  0  0  0  0  0  0  0  0  0  0
    7.7360   46.7914   57.8731 C   0  0  0  0  0  0  0  0  0  0  0  0
    6.3368   46.8389   57.8552 C   0  0  0  0  0  0  0  0  0  0  0  0
    5.6762   48.0613   57.6941 C   0  0  0  0  0  0  0  0  0  0  0  0
    6.4064   49.2229   57.5519 C   0  0  0  0  0  0  0  0  0  0  0  0
    7.8124   49.1860   57.5685 C   0  0  0  0  0  0  0  0  0  0  0  0
    5.7378   50.4211   57.3929 C   0  0  0  0  0  0  0  0  0  0  0  0
    6.4617   51.6114   57.2480 C   0  0  0  0  0  0  0  0  0  0  0  0
    7.8598   51.5823   57.2642 C   0  0  0  0  0  0  0  0  0  0  0  0
    8.5343   50.3640   57.4254 C   0  0  0  0  0  0  0  0  0  0  0  0
    8.4361   45.4739   58.0468 C   0  0  0  0  0  0  0  0  0  0  0  0
    7.4903   44.4006   58.5884 C   0  0  0  0  0  0  0  0  0  0  0  0
   16.7022   51.5044   64.6450 C   0  0  0  0  0  0  0  0  0  0  0  0
   17.9253   50.8539   65.2980 C   0  0  0  0  0  0  0  0  0  0  0  0
   16.2624   52.5570   65.0837 O   0  0  0  0  0  0  0  0  0  0  0  0
   10.1909   46.1433   61.3155 O   0  0  0  0  0  0  0  0  0  0  0  0
    9.7817   44.8015   61.4509 C   0  0  0  0  0  0  0  0  0  0  0  0
  1  2  2  0  0  0
  1  6  1  0  0  0
  1 37  1  0  0  0
  2  3  1  0  0  0
  2 17  1  0  0  0
  3  4  2  0  0  0
  4  5  1  0  0  0
  4  7  1  0  0  0
  5  6  1  0  0  0
  5  9  1  0  0  0
  5 16  1  0  0  0
  6 14  2  0  0  0
  7  8  1  0  0  0
  8  9  2  0  0  0
  8 10  1  0  0  0
  9 13  1  0  0  0
 10 11  2  0  0  0
 10 20  1  0  0  0
 11 12  1  0  0  0
 11 40  1  0  0  0
 12 13  2  0  0  0
 13 15  1  0  0  0
 40 41  1  0  0  0
 20 21  1  0  0  0
 20 22  2  0  0  0
 21 24  1  0  0  0
 37 38  1  0  0  0
 37 39  2  0  0  0
 24 25  1  0  0  0
 25 26  2  0  0  0
 25 30  1  0  0  0
 26 27  1  0  0  0
 26 35  1  0  0  0
 27 28  2  0  0  0
 28 29  1  0  0  0
 29 30  2  0  0  0
 29 31  1  0  0  0
 30 34  1  0  0  0
 31 32  2  0  0  0
 32 33  1  0  0  0
 33 34  2  0  0  0
 35 36  1  0  0  0
 15 18  1  0  0  0
 21 23  1  0  0  0
 17 19  1  0  0  0
M  END
> <minimizedAffinity>
-10.15793

$$$$
3B1M_KRC_A_1


 41 45  0  0  0  0  0  0  0  0999 V2000
   15.9777   49.0619   64.0199 C   0  0  0  0  0  0  0  0  0  0  0  0
   14.7640   48.5370   63.8817 C   0  0  0  0  0  0  0  0  0  0  0  0
   14.0880   48.5449   62.5634 C   0  0  0  0  0  0  0  0  0  0  0  0
   14.7759   48.8251   61.4528 C   0  0  0  0  0  0  0  0  0  0  0  0
   16.0323   49.7004   61.5306 C   0  0  0  0  0  0  0  0  0  0  0  0
   16.7975   49.3651   62.8209 C   0  0  0  0  0  0  0  0  0  0  0  0
   14.7019   48.5265   60.1537 O   0  0  0  0  0  0  0  0  0  0  0  0
   15.8916   48.6217   59.4794 C   0  0  0  0  0  0  0  0  0  0  0  0
   16.8078   49.3445   60.2723 C   0  0  0  0  0  0  0  0  0  0  0  0
   16.2766   48.1483   58.2333 C   0  0  0  0  0  0  0  0  0  0  0  0
   17.5706   48.3798   57.7704 C   0  0  0  0  0  0  0  0  0  0  0  0
   18.4738   49.0880   58.5539 C   0  0  0  0  0  0  0  0  0  0  0  0
   18.0983   49.5679   59.7980 C   0  0  0  0  0  0  0  0  0  0  0  0
   18.0230   49.4025   62.8941 O   0  0  0  0  0  0  0  0  0  0  0  0
   19.0050   50.2705   60.5614 O   0  0  0  0  0  0  0  0  0  0  0  0
   15.6355   51.1750   61.5389 C   0  0  0  0  0  0  0  0  0  0  0  0
   14.1286   48.0063   64.9544 O   0  0  0  0  0  0  0  0  0  0  0  0
   18.7551   50.5968   61.4035 H   0  0  0  0  0  0  0  0  0  0  0  0
   14.5497   47.9977   65.7914 H   0  0  0  0  0  0  0  0  0  0  0  0
   15.3239   47.4002   57.3998 C   0  0  0  0  0  0  0  0  0  0  0  0
   14.0136   47.6669   57.5357 N   0  0  0  0  0  0  0  0  0  0  0  0
   15.7252   46.5483   56.6156 O   0  0  0  0  0  0  0  0  0  0  0  0
   13.7155   48.3558   58.1727 H   0  0  0  0  0  0  0  0  0  0  0  0
   13.0354   46.9388   56.7426 C   0  0  0  0  0  0  0  0  0  0  0  0
   12.0694   47.9095   56.1182 C   0  0  0  0  0  0  0  0  0  0  0  0
   11.0296   48.4743   56.8746 C   0  0  0  0  0  0  0  0  0  0  0  0
   10.1346   49.3727   56.2810 C   0  0  0  0  0  0  0  0  0  0  0  0
   10.2711   49.7137   54.9314 C   0  0  0  0  0  0  0  0  0  0  0  0
   11.2904   49.1622   54.1834 C   0  0  0  0  0  0  0  0  0  0  0  0
   12.1949   48.2587   54.7702 C   0  0  0  0  0  0  0  0  0  0  0  0
   11.4098   49.5093   52.8518 C   0  0  0  0  0  0  0  0  0  0  0  0
   12.4390   48.9607   52.0763 C   0  0  0  0  0  0  0  0  0  0  0  0
   13.3423   48.0623   52.6531 C   0  0  0  0  0  0  0  0  0  0  0  0
   13.2172   47.7124   54.0048 C   0  0  0  0  0  0  0  0  0  0  0  0
   10.8749   48.1147   58.3247 C   0  0  0  0  0  0  0  0  0  0  0  0
    9.8420   47.0039   58.5225 C   0  0  0  0  0  0  0  0  0  0  0  0
   16.5075   49.3736   65.3623 C   0  0  0  0  0  0  0  0  0  0  0  0
   16.8024   50.8252   65.7514 C   0  0  0  0  0  0  0  0  0  0  0  0
   16.7118   48.4726   66.1625 O   0  0  0  0  0  0  0  0  0  0  0  0
   17.9569   47.9124   56.5312 O   0  0  0  0  0  0  0  0  0  0  0  0
   18.6243   48.5912   55.4919 C   0  0  0  0  0  0  0  0  0  0  0  0
  1  2  2  0  0  0
  1  6  1  0  0  0
  1 37  1  0  0  0
  2  3  1  0  0  0
  2 17  1  0  0  0
  3  4  2  0  0  0
  4  5  1  0  0  0
  4  7  1  0  0  0
  5  6  1  0  0  0
  5  9  1  0  0  0
  5 16  1  0  0  0
  6 14  2  0  0  0
  7  8  1  0  0  0
  8  9  2  0  0  0
  8 10  1  0  0  0
  9 13  1  0  0  0
 10 11  2  0  0  0
 10 20  1  0  0  0
 11 12  1  0  0  0
 11 40  1  0  0  0
 12 13  2  0  0  0
 13 15  1  0  0  0
 40 41  1  0  0  0
 20 21  1  0  0  0
 20 22  2  0  0  0
 21 24  1  0  0  0
 37 38  1  0  0  0
 37 39  2  0  0  0
 24 25  1  0  0  0
 25 26  2  0  0  0
 25 30  1  0  0  0
 26 27  1  0  0  0
 26 35  1  0  0  0
 27 28  2  0  0  0
 28 29  1  0  0  0
 29 30  2  0  0  0
 29 31  1  0  0  0
 30 34  1  0  0  0
 31 32  2  0  0  0
 32 33  1  0  0  0
 33 34  2  0  0  0
 35 36  1  0  0  0
 15 18  1  0  0  0
 21 23  1  0  0  0
 17 19  1  0  0  0
M  END
> <minimizedAffinity>
-9.72986

$$$$
3B1M_KRC_A_1


 41 45  0  0  0  0  0  0  0  0999 V2000
   18.8888   49.7486   61.4220 C   0  0  0  0  0  0  0  0  0  0  0  0
   19.2667   50.1497   62.6319 C   0  0  0  0  0  0  0  0  0  0  0  0
   18.2558   50.4829   63.6624 C   0  0  0  0  0  0  0  0  0  0  0  0
   16.9773   50.1340   63.4927 C   0  0  0  0  0  0  0  0  0  0  0  0
   16.4125   49.9597   62.0780 C   0  0  0  0  0  0  0  0  0  0  0  0
   17.4879   49.3214   61.1842 C   0  0  0  0  0  0  0  0  0  0  0  0
   15.9306   49.8423   64.2684 O   0  0  0  0  0  0  0  0  0  0  0  0
   14.9763   49.0633   63.6670 C   0  0  0  0  0  0  0  0  0  0  0  0
   15.1980   49.0663   62.2736 C   0  0  0  0  0  0  0  0  0  0  0  0
   13.9167   48.3424   64.1984 C   0  0  0  0  0  0  0  0  0  0  0  0
   13.0779   47.6150   63.3560 C   0  0  0  0  0  0  0  0  0  0  0  0
   13.2996   47.6149   61.9841 C   0  0  0  0  0  0  0  0  0  0  0  0
   14.3527   48.3342   61.4431 C   0  0  0  0  0  0  0  0  0  0  0  0
   17.2171   48.5441   60.2725 O   0  0  0  0  0  0  0  0  0  0  0  0
   14.5573   48.3257   60.0805 O   0  0  0  0  0  0  0  0  0  0  0  0
   16.0145   51.3197   61.5088 C   0  0  0  0  0  0  0  0  0  0  0  0
   20.5840   50.2741   62.9244 O   0  0  0  0  0  0  0  0  0  0  0  0
   15.2684   48.8109   59.7105 H   0  0  0  0  0  0  0  0  0  0  0  0
   21.2292   50.0652   62.2779 H   0  0  0  0  0  0  0  0  0  0  0  0
   13.6769   48.3411   65.6491 C   0  0  0  0  0  0  0  0  0  0  0  0
   13.6331   49.5229   66.2878 N   0  0  0  0  0  0  0  0  0  0  0  0
   13.5364   47.2831   66.2513 O   0  0  0  0  0  0  0  0  0  0  0  0
   13.7490   50.3597   65.7823 H   0  0  0  0  0  0  0  0  0  0  0  0
   13.4145   49.5669   67.7253 C   0  0  0  0  0  0  0  0  0  0  0  0
   14.5183   50.3540   68.3792 C   0  0  0  0  0  0  0  0  0  0  0  0
   14.4384   51.7522   68.4835 C   0  0  0  0  0  0  0  0  0  0  0  0
   15.4739   52.4736   69.0899 C   0  0  0  0  0  0  0  0  0  0  0  0
   16.5939   51.8060   69.5962 C   0  0  0  0  0  0  0  0  0  0  0  0
   16.6780   50.4328   69.4967 C   0  0  0  0  0  0  0  0  0  0  0  0
   15.6431   49.6987   68.8894 C   0  0  0  0  0  0  0  0  0  0  0  0
   17.7916   49.7899   70.0013 C   0  0  0  0  0  0  0  0  0  0  0  0
   17.8947   48.3960   69.9107 C   0  0  0  0  0  0  0  0  0  0  0  0
   16.8694   47.6597   69.3087 C   0  0  0  0  0  0  0  0  0  0  0  0
   15.7411   48.3163   68.7976 C   0  0  0  0  0  0  0  0  0  0  0  0
   13.2397   52.4782   67.9431 C   0  0  0  0  0  0  0  0  0  0  0  0
   13.6469   53.6467   67.0439 C   0  0  0  0  0  0  0  0  0  0  0  0
   19.8495   49.7521   60.3007 C   0  0  0  0  0  0  0  0  0  0  0  0
   19.7957   50.8643   59.2494 C   0  0  0  0  0  0  0  0  0  0  0  0
   20.6869   48.8664   60.2114 O   0  0  0  0  0  0  0  0  0  0  0  0
   12.0221   46.8983   63.8801 O   0  0  0  0  0  0  0  0  0  0  0  0
   10.8099   46.5222   63.2674 C   0  0  0  0  0  0  0  0  0  0  0  0
  1  2  2  0  0  0
  1  6  1  0  0  0
  1 37  1  0  0  0
  2  3  1  0  0  0
  2 17  1  0  0  0
  3  4  2  0  0  0
  4  5  1  0  0  0
  4  7  1  0  0  0
  5  6  1  0  0  0
  5  9  1  0  0  0
  5 16  1  0  0  0
  6 14  2  0  0  0
  7  8  1  0  0  0
  8  9  2  0  0  0
  8 10  1  0  0  0
  9 13  1  0  0  0
 10 11  2  0  0  0
 10 20  1  0  0  0
 11 12  1  0  0  0
 11 40  1  0  0  0
 12 13  2  0  0  0
 13 15  1  0  0  0
 40 41  1  0  0  0
 20 21  1  0  0  0
 20 22  2  0  0  0
 21 24  1  0  0  0
 37 38  1  0  0  0
 37 39  2  0  0  0
 24 25  1  0  0  0
 25 26  2  0  0  0
 25 30  1  0  0  0
 26 27  1  0  0  0
 26 35  1  0  0  0
 27 28  2  0  0  0
 28 29  1  0  0  0
 29 30  2  0  0  0
 29 31  1  0  0  0
 30 34  1  0  0  0
 31 32  2  0  0  0
 32 33  1  0  0  0
 33 34  2  0  0  0
 35 36  1  0  0  0
 15 18  1  0  0  0
 21 23  1  0  0  0
 17 19  1  0  0  0
M  END
> <minimizedAffinity>
-8.92924

$$$$
3B1M_KRC_A_1


 41 45  0  0  0  0  0  0  0  0999 V2000
   16.1213   51.2502   68.7595 C   0  0  0  0  0  0  0  0  0  0  0  0
   15.2434   50.2701   68.5693 C   0  0  0  0  0  0  0  0  0  0  0  0
   14.6039   50.0809   67.2463 C   0  0  0  0  0  0  0  0  0  0  0  0
   15.0871   50.7028   66.1670 C   0  0  0  0  0  0  0  0  0  0  0  0
   15.8536   52.0215   66.3221 C   0  0  0  0  0  0  0  0  0  0  0  0
   16.7124   51.9552   67.5953 C   0  0  0  0  0  0  0  0  0  0  0  0
   15.1231   50.4916   64.8493 O   0  0  0  0  0  0  0  0  0  0  0  0
   16.1469   51.1298   64.1985 C   0  0  0  0  0  0  0  0  0  0  0  0
   16.6836   52.1170   65.0519 C   0  0  0  0  0  0  0  0  0  0  0  0
   16.6736   50.9523   62.9273 C   0  0  0  0  0  0  0  0  0  0  0  0
   17.7379   51.7433   62.4983 C   0  0  0  0  0  0  0  0  0  0  0  0
   18.2687   52.7124   63.3411 C   0  0  0  0  0  0  0  0  0  0  0  0
   17.7479   52.8999   64.6109 C   0  0  0  0  0  0  0  0  0  0  0  0
   17.8070   52.5050   67.6866 O   0  0  0  0  0  0  0  0  0  0  0  0
   18.2840   53.8668   65.4334 O   0  0  0  0  0  0  0  0  0  0  0  0
   14.8681   53.1831   66.4290 C   0  0  0  0  0  0  0  0  0  0  0  0
   14.9135   49.4469   69.5939 O   0  0  0  0  0  0  0  0  0  0  0  0
   17.9346   53.9970   66.2930 H   0  0  0  0  0  0  0  0  0  0  0  0
   15.3137   49.5604   70.4335 H   0  0  0  0  0  0  0  0  0  0  0  0
   16.1140   49.9297   62.0312 C   0  0  0  0  0  0  0  0  0  0  0  0
   16.0058   48.6713   62.4909 N   0  0  0  0  0  0  0  0  0  0  0  0
   15.7719   50.2262   60.8924 O   0  0  0  0  0  0  0  0  0  0  0  0
   16.2876   48.4574   63.4096 H   0  0  0  0  0  0  0  0  0  0  0  0
   15.4727   47.6249   61.6323 C   0  0  0  0  0  0  0  0  0  0  0  0
   13.9767   47.5609   61.7851 C   0  0  0  0  0  0  0  0  0  0  0  0
   13.1350   47.6848   60.6679 C   0  0  0  0  0  0  0  0  0  0  0  0
   11.7447   47.6281   60.8237 C   0  0  0  0  0  0  0  0  0  0  0  0
   11.1857   47.4469   62.0929 C   0  0  0  0  0  0  0  0  0  0  0  0
   12.0074   47.3246   63.1941 C   0  0  0  0  0  0  0  0  0  0  0  0
   13.4053   47.3801   63.0484 C   0  0  0  0  0  0  0  0  0  0  0  0
   11.4383   47.1471   64.4402 C   0  0  0  0  0  0  0  0  0  0  0  0
   12.2561   47.0198   65.5701 C   0  0  0  0  0  0  0  0  0  0  0  0
   13.6468   47.0734   65.4327 C   0  0  0  0  0  0  0  0  0  0  0  0
   14.2201   47.2540   64.1662 C   0  0  0  0  0  0  0  0  0  0  0  0
   13.7257   47.8793   59.3006 C   0  0  0  0  0  0  0  0  0  0  0  0
   12.8710   47.2176   58.2183 C   0  0  0  0  0  0  0  0  0  0  0  0
   16.4930   51.6642   70.1272 C   0  0  0  0  0  0  0  0  0  0  0  0
   15.9284   52.9606   70.7153 C   0  0  0  0  0  0  0  0  0  0  0  0
   17.2525   50.9724   70.7893 O   0  0  0  0  0  0  0  0  0  0  0  0
   18.2634   51.5712   61.2344 O   0  0  0  0  0  0  0  0  0  0  0  0
   19.5755   51.2234   60.8553 C   0  0  0  0  0  0  0  0  0  0  0  0
  1  2  2  0  0  0
  1  6  1  0  0  0
  1 37  1  0  0  0
  2  3  1  0  0  0
  2 17  1  0  0  0
  3  4  2  0  0  0
  4  5  1  0  0  0
  4  7  1  0  0  0
  5  6  1  0  0  0
  5  9  1  0  0  0
  5 16  1  0  0  0
  6 14  2  0  0  0
  7  8  1  0  0  0
  8  9  2  0  0  0
  8 10  1  0  0  0
  9 13  1  0  0  0
 10 11  2  0  0  0
 10 20  1  0  0  0
 11 12  1  0  0  0
 11 40  1  0  0  0
 12 13  2  0  0  0
 13 15  1  0  0  0
 40 41  1  0  0  0
 20 21  1  0  0  0
 20 22  2  0  0  0
 21 24  1  0  0  0
 37 38  1  0  0  0
 37 39  2  0  0  0
 24 25  1  0  0  0
 25 26  2  0  0  0
 25 30  1  0  0  0
 26 27  1  0  0  0
 26 35  1  0  0  0
 27 28  2  0  0  0
 28 29  1  0  0  0
 29 30  2  0  0  0
 29 31  1  0  0  0
 30 34  1  0  0  0
 31 32  2  0  0  0
 32 33  1  0  0  0
 33 34  2  0  0  0
 35 36  1  0  0  0
 15 18  1  0  0  0
 21 23  1  0  0  0
 17 19  1  0  0  0
M  END
> <minimizedAffinity>
-8.69467

$$$$
3B1M_KRC_A_1


 41 45  0  0  0  0  0  0  0  0999 V2000
   18.4526   52.6469   64.2403 C   0  0  0  0  0  0  0  0  0  0  0  0
   17.2322   52.2302   64.5635 C   0  0  0  0  0  0  0  0  0  0  0  0
   16.2812   51.8027   63.5108 C   0  0  0  0  0  0  0  0  0  0  0  0
   16.7097   51.5713   62.2666 C   0  0  0  0  0  0  0  0  0  0  0  0
   17.9626   52.2833   61.7433 C   0  0  0  0  0  0  0  0  0  0  0  0
   18.9903   52.3903   62.8814 C   0  0  0  0  0  0  0  0  0  0  0  0
   16.3464   50.8104   61.2315 O   0  0  0  0  0  0  0  0  0  0  0  0
   17.3584   50.5256   60.3519 C   0  0  0  0  0  0  0  0  0  0  0  0
   18.4361   51.4022   60.5984 C   0  0  0  0  0  0  0  0  0  0  0  0
   17.4523   49.5792   59.3417 C   0  0  0  0  0  0  0  0  0  0  0  0
   18.6145   49.4898   58.5777 C   0  0  0  0  0  0  0  0  0  0  0  0
   19.6772   50.3508   58.8241 C   0  0  0  0  0  0  0  0  0  0  0  0
   19.5922   51.3015   59.8280 C   0  0  0  0  0  0  0  0  0  0  0  0
   20.2021   52.3329   62.6887 O   0  0  0  0  0  0  0  0  0  0  0  0
   20.6539   52.1493   60.0579 O   0  0  0  0  0  0  0  0  0  0  0  0
   17.5955   53.6817   61.2516 C   0  0  0  0  0  0  0  0  0  0  0  0
   16.8435   52.2116   65.8614 O   0  0  0  0  0  0  0  0  0  0  0  0
   20.6005   52.7937   60.7359 H   0  0  0  0  0  0  0  0  0  0  0  0
   17.4392   52.4805   66.5328 H   0  0  0  0  0  0  0  0  0  0  0  0
   16.3298   48.6675   59.0759 C   0  0  0  0  0  0  0  0  0  0  0  0
   15.3296   48.6115   59.9721 N   0  0  0  0  0  0  0  0  0  0  0  0
   16.3245   47.9714   58.0673 O   0  0  0  0  0  0  0  0  0  0  0  0
   15.3565   49.1805   60.7751 H   0  0  0  0  0  0  0  0  0  0  0  0
   14.2074   47.7113   59.7567 C   0  0  0  0  0  0  0  0  0  0  0  0
   13.3271   47.7022   60.9775 C   0  0  0  0  0  0  0  0  0  0  0  0
   11.9287   47.7410   60.8543 C   0  0  0  0  0  0  0  0  0  0  0  0
   11.1205   47.7367   61.9978 C   0  0  0  0  0  0  0  0  0  0  0  0
   11.7011   47.6929   63.2695 C   0  0  0  0  0  0  0  0  0  0  0  0
   13.0740   47.6546   63.3968 C   0  0  0  0  0  0  0  0  0  0  0  0
   13.8948   47.6585   62.2545 C   0  0  0  0  0  0  0  0  0  0  0  0
   13.6305   47.6126   64.6604 C   0  0  0  0  0  0  0  0  0  0  0  0
   15.0224   47.5722   64.8100 C   0  0  0  0  0  0  0  0  0  0  0  0
   15.8446   47.5752   63.6787 C   0  0  0  0  0  0  0  0  0  0  0  0
   15.2757   47.6183   62.3982 C   0  0  0  0  0  0  0  0  0  0  0  0
   11.2957   47.7878   59.4930 C   0  0  0  0  0  0  0  0  0  0  0  0
   10.3862   46.5817   59.2528 C   0  0  0  0  0  0  0  0  0  0  0  0
   19.2701   53.3920   65.2184 C   0  0  0  0  0  0  0  0  0  0  0  0
   19.4529   54.9051   65.0695 C   0  0  0  0  0  0  0  0  0  0  0  0
   19.8019   52.8004   66.1463 O   0  0  0  0  0  0  0  0  0  0  0  0
   18.7114   48.5514   57.5711 O   0  0  0  0  0  0  0  0  0  0  0  0
   18.8061   48.7460   56.1785 C   0  0  0  0  0  0  0  0  0  0  0  0
  1  2  2  0  0  0
  1  6  1  0  0  0
  1 37  1  0  0  0
  2  3  1  0  0  0
  2 17  1  0  0  0
  3  4  2  0  0  0
  4  5  1  0  0  0
  4  7  1  0  0  0
  5  6  1  0  0  0
  5  9  1  0  0  0
  5 16  1  0  0  0
  6 14  2  0  0  0
  7  8  1  0  0  0
  8  9  2  0  0  0
  8 10  1  0  0  0
  9 13  1  0  0  0
 10 11  2  0  0  0
 10 20  1  0  0  0
 11 12  1  0  0  0
 11 40  1  0  0  0
 12 13  2  0  0  0
 13 15  1  0  0  0
 40 41  1  0  0  0
 20 21  1  0  0  0
 20 22  2  0  0  0
 21 24  1  0  0  0
 37 38  1  0  0  0
 37 39  2  0  0  0
 24 25  1  0  0  0
 25 26  2  0  0  0
 25 30  1  0  0  0
 26 27  1  0  0  0
 26 35  1  0  0  0
 27 28  2  0  0  0
 28 29  1  0  0  0
 29 30  2  0  0  0
 29 31  1  0  0  0
 30 34  1  0  0  0
 31 32  2  0  0  0
 32 33  1  0  0  0
 33 34  2  0  0  0
 35 36  1  0  0  0
 15 18  1  0  0  0
 21 23  1  0  0  0
 17 19  1  0  0  0
M  END
> <minimizedAffinity>
-8.44767

$$$$
