3S2V_3HU_A_258


 30 32  0  0  0  0  0  0  0  0999 V2000
   43.4500   58.7157    2.6960 O   0  0  0  0  0  0  0  0  0  0  0  0
   46.0979   56.7989    5.8651 O   0  0  0  0  0  0  0  0  0  0  0  0
   45.1278   57.8333    0.6825 C   0  0  0  0  0  0  0  0  0  0  0  0
   47.1816   56.4814    1.2706 C   0  0  0  0  0  0  0  0  0  0  0  0
   46.4123   57.0962   -0.0936 S   0  0  0  0  0  0  0  0  0  0  0  0
   44.4491   58.0628    2.9913 C   0  0  0  0  0  0  0  0  0  0  0  0
   45.8488   57.0505    4.6850 C   0  0  0  0  0  0  0  0  0  0  0  0
   45.2944   57.6106    1.9883 C   0  0  0  0  0  0  0  0  0  0  0  0
   46.4507   56.8486    2.3302 C   0  0  0  0  0  0  0  0  0  0  0  0
   44.7043   57.7836    4.3236 N   0  0  0  0  0  0  0  0  0  0  0  0
   46.7082   56.5680    3.6864 N   0  0  0  0  0  0  0  0  0  0  0  0
   47.9036   55.7825    4.1117 C   0  0  0  0  0  0  0  0  0  0  0  0
   50.2647   56.1324    3.5697 N   0  0  0  0  0  0  0  0  0  0  0  0
   49.1163   56.7024    4.3060 C   0  0  0  0  0  0  0  0  0  0  0  0
   51.0788   56.7349    3.6904 H   0  0  0  0  0  0  0  0  0  0  0  0
   50.0342   56.0670    2.5782 H   0  0  0  0  0  0  0  0  0  0  0  0
   49.4652   56.8598    5.7921 C   0  0  0  0  0  0  0  0  0  0  0  0
   48.9453   57.8071    6.4064 O   0  0  0  0  0  0  0  0  0  0  0  0
   50.1650   55.9623    6.3151 O   0  0  0  0  0  0  0  0  0  0  0  0
   48.4334   58.4410    5.9436 H   0  0  0  0  0  0  0  0  0  0  0  0
   43.7665   58.3582    5.3025 C   0  0  0  0  0  0  0  0  0  0  0  0
   45.4848   61.3555    6.6491 C   0  0  0  0  0  0  0  0  0  0  0  0
   45.1592   60.4271    5.7323 C   0  0  0  0  0  0  0  0  0  0  0  0
   44.6175   60.9777    8.0553 S   0  0  0  0  0  0  0  0  0  0  0  0
   44.2749   59.4943    6.1455 C   0  0  0  0  0  0  0  0  0  0  0  0
   43.8510   59.6525    7.4654 C   0  0  0  0  0  0  0  0  0  0  0  0
   41.6471   58.8891    8.1513 O   0  0  0  0  0  0  0  0  0  0  0  0
   43.4132   57.9498    9.0659 O   0  0  0  0  0  0  0  0  0  0  0  0
   42.8852   58.7615    8.2800 C   0  0  0  0  0  0  0  0  0  0  0  0
   44.3467   57.8938    9.1242 H   0  0  0  0  0  0  0  0  0  0  0  0
 14 17  1  0  0  0
 17 19  2  0  0  0
 17 18  1  0  0  0
 13 14  1  0  0  0
 12 14  1  0  0  0
 11 12  1  0  0  0
 29 27  2  0  0  0
  1  6  2  0  0  0
  7  2  2  0  0  0
 29 28  1  0  0  0
 22 23  2  0  0  0
 22 24  1  0  0  0
 23 25  1  0  0  0
  3  5  1  0  0  0
  3  8  2  0  0  0
  5  4  1  0  0  0
  4  9  2  0  0  0
 10 21  1  0  0  0
 25 21  1  0  0  0
 24 26  1  0  0  0
 26 29  1  0  0  0
 25 26  2  0  0  0
  8  6  1  0  0  0
  6 10  1  0  0  0
 10  7  1  0  0  0
 11  7  1  0  0  0
  8  9  1  0  0  0
  9 11  1  0  0  0
 13 15  1  0  0  0
 13 16  1  0  0  0
 18 20  1  0  0  0
 28 30  1  0  0  0
M  END
> <minimizedAffinity>
-7.99176

$$$$
3S2V_3HU_A_258


 30 32  0  0  0  0  0  0  0  0999 V2000
   45.9844   55.6429    2.0493 O   0  0  0  0  0  0  0  0  0  0  0  0
   45.7932   58.0670    5.8984 O   0  0  0  0  0  0  0  0  0  0  0  0
   43.3160   56.1524    1.5318 C   0  0  0  0  0  0  0  0  0  0  0  0
   41.9809   57.5746    3.1401 C   0  0  0  0  0  0  0  0  0  0  0  0
   41.7581   56.7362    1.6984 S   0  0  0  0  0  0  0  0  0  0  0  0
   45.3414   56.3317    2.8391 C   0  0  0  0  0  0  0  0  0  0  0  0
   45.2524   57.6154    4.8878 C   0  0  0  0  0  0  0  0  0  0  0  0
   44.0035   56.5979    2.5860 C   0  0  0  0  0  0  0  0  0  0  0  0
   43.2587   57.4013    3.4994 C   0  0  0  0  0  0  0  0  0  0  0  0
   45.9723   56.8369    3.9638 N   0  0  0  0  0  0  0  0  0  0  0  0
   43.9030   57.9121    4.6432 N   0  0  0  0  0  0  0  0  0  0  0  0
   43.1795   58.7530    5.6413 C   0  0  0  0  0  0  0  0  0  0  0  0
   41.8356   57.0080    6.7090 N   0  0  0  0  0  0  0  0  0  0  0  0
   42.9363   57.9682    6.9374 C   0  0  0  0  0  0  0  0  0  0  0  0
   41.6632   56.4788    7.5638 H   0  0  0  0  0  0  0  0  0  0  0  0
   42.0938   56.3671    5.9586 H   0  0  0  0  0  0  0  0  0  0  0  0
   42.5882   58.9062    8.1010 C   0  0  0  0  0  0  0  0  0  0  0  0
   43.5308   59.4528    8.6992 O   0  0  0  0  0  0  0  0  0  0  0  0
   41.3751   59.1439    8.3029 O   0  0  0  0  0  0  0  0  0  0  0  0
   44.4146   59.2212    8.4916 H   0  0  0  0  0  0  0  0  0  0  0  0
   47.3791   56.4465    4.1543 C   0  0  0  0  0  0  0  0  0  0  0  0
   49.2523   59.6087    3.6623 C   0  0  0  0  0  0  0  0  0  0  0  0
   48.2028   58.7711    3.5866 C   0  0  0  0  0  0  0  0  0  0  0  0
   50.4962   58.7626    4.4428 S   0  0  0  0  0  0  0  0  0  0  0  0
   48.4008   57.5488    4.1247 C   0  0  0  0  0  0  0  0  0  0  0  0
   49.6726   57.3615    4.6670 C   0  0  0  0  0  0  0  0  0  0  0  0
   51.0923   55.3883    4.7059 O   0  0  0  0  0  0  0  0  0  0  0  0
   49.8456   55.8173    6.4665 O   0  0  0  0  0  0  0  0  0  0  0  0
   50.2622   56.0919    5.3235 C   0  0  0  0  0  0  0  0  0  0  0  0
   49.2230   56.3783    6.8856 H   0  0  0  0  0  0  0  0  0  0  0  0
 14 17  1  0  0  0
 17 19  2  0  0  0
 17 18  1  0  0  0
 13 14  1  0  0  0
 12 14  1  0  0  0
 11 12  1  0  0  0
 29 27  2  0  0  0
  1  6  2  0  0  0
  7  2  2  0  0  0
 29 28  1  0  0  0
 22 23  2  0  0  0
 22 24  1  0  0  0
 23 25  1  0  0  0
  3  5  1  0  0  0
  3  8  2  0  0  0
  5  4  1  0  0  0
  4  9  2  0  0  0
 10 21  1  0  0  0
 25 21  1  0  0  0
 24 26  1  0  0  0
 26 29  1  0  0  0
 25 26  2  0  0  0
  8  6  1  0  0  0
  6 10  1  0  0  0
 10  7  1  0  0  0
 11  7  1  0  0  0
  8  9  1  0  0  0
  9 11  1  0  0  0
 13 15  1  0  0  0
 13 16  1  0  0  0
 18 20  1  0  0  0
 28 30  1  0  0  0
M  END
> <minimizedAffinity>
-7.84593

$$$$
3S2V_3HU_A_258


 30 32  0  0  0  0  0  0  0  0999 V2000
   46.9671   60.0077    5.5497 O   0  0  0  0  0  0  0  0  0  0  0  0
   42.9657   57.9342    4.9032 O   0  0  0  0  0  0  0  0  0  0  0  0
   48.1458   58.4662    3.5793 C   0  0  0  0  0  0  0  0  0  0  0  0
   46.7606   56.7562    2.3351 C   0  0  0  0  0  0  0  0  0  0  0  0
   48.3422   57.3292    2.3694 S   0  0  0  0  0  0  0  0  0  0  0  0
   46.2871   59.1752    4.9528 C   0  0  0  0  0  0  0  0  0  0  0  0
   44.1559   58.0797    4.6204 C   0  0  0  0  0  0  0  0  0  0  0  0
   46.8675   58.4006    3.9587 C   0  0  0  0  0  0  0  0  0  0  0  0
   46.0776   57.4384    3.2624 C   0  0  0  0  0  0  0  0  0  0  0  0
   44.9488   59.0354    5.2805 N   0  0  0  0  0  0  0  0  0  0  0  0
   44.7171   57.2977    3.5996 N   0  0  0  0  0  0  0  0  0  0  0  0
   43.8378   56.3054    2.9147 C   0  0  0  0  0  0  0  0  0  0  0  0
   42.0345   57.7612    2.1277 N   0  0  0  0  0  0  0  0  0  0  0  0
   43.1727   56.9301    1.6811 C   0  0  0  0  0  0  0  0  0  0  0  0
   41.5826   58.1832    1.3165 H   0  0  0  0  0  0  0  0  0  0  0  0
   42.3731   58.4961    2.7488 H   0  0  0  0  0  0  0  0  0  0  0  0
   42.6894   55.8523    0.7014 C   0  0  0  0  0  0  0  0  0  0  0  0
   42.2357   54.8003    1.1837 O   0  0  0  0  0  0  0  0  0  0  0  0
   42.6836   56.1451   -0.5163 O   0  0  0  0  0  0  0  0  0  0  0  0
   42.2766   54.6529    2.1082 H   0  0  0  0  0  0  0  0  0  0  0  0
   44.4560   59.8745    6.3855 C   0  0  0  0  0  0  0  0  0  0  0  0
   45.6566   58.7249    9.7002 C   0  0  0  0  0  0  0  0  0  0  0  0
   45.7516   59.2653    8.4724 C   0  0  0  0  0  0  0  0  0  0  0  0
   44.0334   58.2878    9.9165 S   0  0  0  0  0  0  0  0  0  0  0  0
   44.5964   59.3198    7.7756 C   0  0  0  0  0  0  0  0  0  0  0  0
   43.4943   58.7973    8.4531 C   0  0  0  0  0  0  0  0  0  0  0  0
   41.1897   59.5383    8.2294 O   0  0  0  0  0  0  0  0  0  0  0  0
   41.7700   57.6271    7.3085 O   0  0  0  0  0  0  0  0  0  0  0  0
   42.0364   58.6582    7.9575 C   0  0  0  0  0  0  0  0  0  0  0  0
   42.4418   56.9982    7.1317 H   0  0  0  0  0  0  0  0  0  0  0  0
 14 17  1  0  0  0
 17 19  2  0  0  0
 17 18  1  0  0  0
 13 14  1  0  0  0
 12 14  1  0  0  0
 11 12  1  0  0  0
 29 27  2  0  0  0
  1  6  2  0  0  0
  7  2  2  0  0  0
 29 28  1  0  0  0
 22 23  2  0  0  0
 22 24  1  0  0  0
 23 25  1  0  0  0
  3  5  1  0  0  0
  3  8  2  0  0  0
  5  4  1  0  0  0
  4  9  2  0  0  0
 10 21  1  0  0  0
 25 21  1  0  0  0
 24 26  1  0  0  0
 26 29  1  0  0  0
 25 26  2  0  0  0
  8  6  1  0  0  0
  6 10  1  0  0  0
 10  7  1  0  0  0
 11  7  1  0  0  0
  8  9  1  0  0  0
  9 11  1  0  0  0
 13 15  1  0  0  0
 13 16  1  0  0  0
 18 20  1  0  0  0
 28 30  1  0  0  0
M  END
> <minimizedAffinity>
-7.61431

$$$$
3S2V_3HU_A_258


 30 32  0  0  0  0  0  0  0  0999 V2000
   46.2000   57.7547    1.5252 O   0  0  0  0  0  0  0  0  0  0  0  0
   45.7614   59.7601    5.5890 O   0  0  0  0  0  0  0  0  0  0  0  0
   43.5700   56.9030    1.6009 C   0  0  0  0  0  0  0  0  0  0  0  0
   42.1245   57.4873    3.5910 C   0  0  0  0  0  0  0  0  0  0  0  0
   42.0052   56.6536    2.1344 S   0  0  0  0  0  0  0  0  0  0  0  0
   45.5055   58.0394    2.4990 C   0  0  0  0  0  0  0  0  0  0  0  0
   45.2859   59.1072    4.6586 C   0  0  0  0  0  0  0  0  0  0  0  0
   44.1831   57.6217    2.5443 C   0  0  0  0  0  0  0  0  0  0  0  0
   43.3756   57.9563    3.6714 C   0  0  0  0  0  0  0  0  0  0  0  0
   46.0580   58.7823    3.5289 N   0  0  0  0  0  0  0  0  0  0  0  0
   43.9414   58.7106    4.7181 N   0  0  0  0  0  0  0  0  0  0  0  0
   43.1534   59.0879    5.9279 C   0  0  0  0  0  0  0  0  0  0  0  0
   41.7313   57.6111    7.2649 N   0  0  0  0  0  0  0  0  0  0  0  0
   43.1370   57.9388    6.9448 C   0  0  0  0  0  0  0  0  0  0  0  0
   41.7056   56.8477    7.9408 H   0  0  0  0  0  0  0  0  0  0  0  0
   41.2459   57.3280    6.4136 H   0  0  0  0  0  0  0  0  0  0  0  0
   43.8979   58.3141    8.2235 C   0  0  0  0  0  0  0  0  0  0  0  0
   45.1399   58.2846    8.1818 O   0  0  0  0  0  0  0  0  0  0  0  0
   43.2216   58.7292    9.1925 O   0  0  0  0  0  0  0  0  0  0  0  0
   45.5754   57.9587    7.4188 H   0  0  0  0  0  0  0  0  0  0  0  0
   47.4835   59.1254    3.3949 C   0  0  0  0  0  0  0  0  0  0  0  0
   49.8342   56.2847    3.7890 C   0  0  0  0  0  0  0  0  0  0  0  0
   48.9555   57.0808    3.1544 C   0  0  0  0  0  0  0  0  0  0  0  0
   50.0123   56.9063    5.3557 S   0  0  0  0  0  0  0  0  0  0  0  0
   48.4766   58.1095    3.8862 C   0  0  0  0  0  0  0  0  0  0  0  0
   48.9763   58.1673    5.1876 C   0  0  0  0  0  0  0  0  0  0  0  0
   49.0162   60.3588    6.2394 O   0  0  0  0  0  0  0  0  0  0  0  0
   47.9697   58.7210    7.2692 O   0  0  0  0  0  0  0  0  0  0  0  0
   48.6267   59.1718    6.3097 C   0  0  0  0  0  0  0  0  0  0  0  0
   47.7020   57.8231    7.2729 H   0  0  0  0  0  0  0  0  0  0  0  0
 14 17  1  0  0  0
 17 19  2  0  0  0
 17 18  1  0  0  0
 13 14  1  0  0  0
 12 14  1  0  0  0
 11 12  1  0  0  0
 29 27  2  0  0  0
  1  6  2  0  0  0
  7  2  2  0  0  0
 29 28  1  0  0  0
 22 23  2  0  0  0
 22 24  1  0  0  0
 23 25  1  0  0  0
  3  5  1  0  0  0
  3  8  2  0  0  0
  5  4  1  0  0  0
  4  9  2  0  0  0
 10 21  1  0  0  0
 25 21  1  0  0  0
 24 26  1  0  0  0
 26 29  1  0  0  0
 25 26  2  0  0  0
  8  6  1  0  0  0
  6 10  1  0  0  0
 10  7  1  0  0  0
 11  7  1  0  0  0
  8  9  1  0  0  0
  9 11  1  0  0  0
 13 15  1  0  0  0
 13 16  1  0  0  0
 18 20  1  0  0  0
 28 30  1  0  0  0
M  END
> <minimizedAffinity>
-7.37473

$$$$
3S2V_3HU_A_258


 30 32  0  0  0  0  0  0  0  0999 V2000
   46.2602   59.8623    0.6892 O   0  0  0  0  0  0  0  0  0  0  0  0
   47.0675   55.8153    2.6123 O   0  0  0  0  0  0  0  0  0  0  0  0
   48.7340   60.7998    1.4953 C   0  0  0  0  0  0  0  0  0  0  0  0
   50.2864   59.2785    2.7864 C   0  0  0  0  0  0  0  0  0  0  0  0
   50.2531   60.8520    2.1917 S   0  0  0  0  0  0  0  0  0  0  0  0
   47.0071   59.1172    1.3206 C   0  0  0  0  0  0  0  0  0  0  0  0
   47.4230   56.9631    2.3402 C   0  0  0  0  0  0  0  0  0  0  0  0
   48.2525   59.5760    1.7250 C   0  0  0  0  0  0  0  0  0  0  0  0
   49.1212   58.7100    2.4530 C   0  0  0  0  0  0  0  0  0  0  0  0
   46.5907   57.8278    1.6070 N   0  0  0  0  0  0  0  0  0  0  0  0
   48.6938   57.3997    2.7441 N   0  0  0  0  0  0  0  0  0  0  0  0
   49.5510   56.4464    3.5078 C   0  0  0  0  0  0  0  0  0  0  0  0
   50.5802   56.4348    5.7285 N   0  0  0  0  0  0  0  0  0  0  0  0
   49.2926   56.5721    5.0151 C   0  0  0  0  0  0  0  0  0  0  0  0
   50.4228   56.5164    6.7329 H   0  0  0  0  0  0  0  0  0  0  0  0
   51.2180   57.1699    5.4234 H   0  0  0  0  0  0  0  0  0  0  0  0
   48.3008   55.5071    5.5022 C   0  0  0  0  0  0  0  0  0  0  0  0
   48.7366   54.3571    5.6829 O   0  0  0  0  0  0  0  0  0  0  0  0
   47.1431   55.8897    5.7886 O   0  0  0  0  0  0  0  0  0  0  0  0
   49.6172   54.1465    5.4419 H   0  0  0  0  0  0  0  0  0  0  0  0
   45.2304   57.4691    1.1725 C   0  0  0  0  0  0  0  0  0  0  0  0
   43.1107   58.2353    4.1169 C   0  0  0  0  0  0  0  0  0  0  0  0
   44.1919   58.3120    3.3209 C   0  0  0  0  0  0  0  0  0  0  0  0
   42.0390   57.1482    3.3806 S   0  0  0  0  0  0  0  0  0  0  0  0
   44.1423   57.5515    2.2063 C   0  0  0  0  0  0  0  0  0  0  0  0
   42.9698   56.8069    2.0734 C   0  0  0  0  0  0  0  0  0  0  0  0
   42.6090   56.1584   -0.2417 O   0  0  0  0  0  0  0  0  0  0  0  0
   42.2390   54.6689    1.3338 O   0  0  0  0  0  0  0  0  0  0  0  0
   42.5854   55.8068    0.9589 C   0  0  0  0  0  0  0  0  0  0  0  0
   42.2390   54.4560    2.2463 H   0  0  0  0  0  0  0  0  0  0  0  0
 14 17  1  0  0  0
 17 19  2  0  0  0
 17 18  1  0  0  0
 13 14  1  0  0  0
 12 14  1  0  0  0
 11 12  1  0  0  0
 29 27  2  0  0  0
  1  6  2  0  0  0
  7  2  2  0  0  0
 29 28  1  0  0  0
 22 23  2  0  0  0
 22 24  1  0  0  0
 23 25  1  0  0  0
  3  5  1  0  0  0
  3  8  2  0  0  0
  5  4  1  0  0  0
  4  9  2  0  0  0
 10 21  1  0  0  0
 25 21  1  0  0  0
 24 26  1  0  0  0
 26 29  1  0  0  0
 25 26  2  0  0  0
  8  6  1  0  0  0
  6 10  1  0  0  0
 10  7  1  0  0  0
 11  7  1  0  0  0
  8  9  1  0  0  0
  9 11  1  0  0  0
 13 15  1  0  0  0
 13 16  1  0  0  0
 18 20  1  0  0  0
 28 30  1  0  0  0
M  END
> <minimizedAffinity>
-7.33579

$$$$
3S2V_3HU_A_258


 30 32  0  0  0  0  0  0  0  0999 V2000
   48.0287   59.0997    7.6985 O   0  0  0  0  0  0  0  0  0  0  0  0
   44.0766   59.6456    5.5049 O   0  0  0  0  0  0  0  0  0  0  0  0
   49.0364   57.5822    5.6176 C   0  0  0  0  0  0  0  0  0  0  0  0
   47.6051   57.1504    3.5790 C   0  0  0  0  0  0  0  0  0  0  0  0
   49.1395   56.7742    4.1575 S   0  0  0  0  0  0  0  0  0  0  0  0
   47.3240   58.8908    6.7128 C   0  0  0  0  0  0  0  0  0  0  0  0
   45.2186   59.1865    5.5584 C   0  0  0  0  0  0  0  0  0  0  0  0
   47.8221   58.1353    5.6609 C   0  0  0  0  0  0  0  0  0  0  0  0
   47.0068   57.8972    4.5150 C   0  0  0  0  0  0  0  0  0  0  0  0
   46.0469   59.4247    6.6698 N   0  0  0  0  0  0  0  0  0  0  0  0
   45.7076   58.4403    4.4755 N   0  0  0  0  0  0  0  0  0  0  0  0
   44.8016   58.2227    3.3099 C   0  0  0  0  0  0  0  0  0  0  0  0
   44.1586   56.0247    2.4461 N   0  0  0  0  0  0  0  0  0  0  0  0
   43.9123   56.9928    3.5360 C   0  0  0  0  0  0  0  0  0  0  0  0
   43.5731   55.2010    2.5842 H   0  0  0  0  0  0  0  0  0  0  0  0
   45.1406   55.7486    2.4520 H   0  0  0  0  0  0  0  0  0  0  0  0
   42.4273   57.3776    3.5773 C   0  0  0  0  0  0  0  0  0  0  0  0
   41.8678   57.3876    4.6872 O   0  0  0  0  0  0  0  0  0  0  0  0
   41.9040   57.7604    2.5057 O   0  0  0  0  0  0  0  0  0  0  0  0
   42.3264   57.0842    5.4458 H   0  0  0  0  0  0  0  0  0  0  0  0
   45.6082   60.1652    7.8644 C   0  0  0  0  0  0  0  0  0  0  0  0
   45.7013   58.4435   11.1473 C   0  0  0  0  0  0  0  0  0  0  0  0
   46.1565   59.2173   10.1460 C   0  0  0  0  0  0  0  0  0  0  0  0
   44.1636   57.9014   10.6844 S   0  0  0  0  0  0  0  0  0  0  0  0
   45.3172   59.3561    9.0974 C   0  0  0  0  0  0  0  0  0  0  0  0
   44.1139   58.6629    9.2321 C   0  0  0  0  0  0  0  0  0  0  0  0
   42.7866   57.5216    7.5450 O   0  0  0  0  0  0  0  0  0  0  0  0
   42.2087   59.5617    8.1297 O   0  0  0  0  0  0  0  0  0  0  0  0
   42.9444   58.5593    8.2260 C   0  0  0  0  0  0  0  0  0  0  0  0
   42.3703   60.3145    8.6637 H   0  0  0  0  0  0  0  0  0  0  0  0
 14 17  1  0  0  0
 17 19  2  0  0  0
 17 18  1  0  0  0
 13 14  1  0  0  0
 12 14  1  0  0  0
 11 12  1  0  0  0
 29 27  2  0  0  0
  1  6  2  0  0  0
  7  2  2  0  0  0
 29 28  1  0  0  0
 22 23  2  0  0  0
 22 24  1  0  0  0
 23 25  1  0  0  0
  3  5  1  0  0  0
  3  8  2  0  0  0
  5  4  1  0  0  0
  4  9  2  0  0  0
 10 21  1  0  0  0
 25 21  1  0  0  0
 24 26  1  0  0  0
 26 29  1  0  0  0
 25 26  2  0  0  0
  8  6  1  0  0  0
  6 10  1  0  0  0
 10  7  1  0  0  0
 11  7  1  0  0  0
  8  9  1  0  0  0
  9 11  1  0  0  0
 13 15  1  0  0  0
 13 16  1  0  0  0
 18 20  1  0  0  0
 28 30  1  0  0  0
M  END
> <minimizedAffinity>
-7.01357

$$$$
3S2V_3HU_A_258


 30 32  0  0  0  0  0  0  0  0999 V2000
   48.7990   61.3572    5.8684 O   0  0  0  0  0  0  0  0  0  0  0  0
   46.3709   57.6556    6.9316 O   0  0  0  0  0  0  0  0  0  0  0  0
   46.9034   63.0012    7.0312 C   0  0  0  0  0  0  0  0  0  0  0  0
   44.8532   61.9812    8.1024 C   0  0  0  0  0  0  0  0  0  0  0  0
   45.5203   63.5010    7.8266 S   0  0  0  0  0  0  0  0  0  0  0  0
   47.8027   60.8530    6.3831 C   0  0  0  0  0  0  0  0  0  0  0  0
   46.5209   58.8784    6.9404 C   0  0  0  0  0  0  0  0  0  0  0  0
   46.8483   61.6686    6.9740 C   0  0  0  0  0  0  0  0  0  0  0  0
   45.6950   61.0835    7.5757 C   0  0  0  0  0  0  0  0  0  0  0  0
   47.6594   59.4755    6.3701 N   0  0  0  0  0  0  0  0  0  0  0  0
   45.5516   59.6822    7.5592 N   0  0  0  0  0  0  0  0  0  0  0  0
   44.3660   59.0079    8.1645 C   0  0  0  0  0  0  0  0  0  0  0  0
   41.9432   59.3557    8.1615 N   0  0  0  0  0  0  0  0  0  0  0  0
   43.1237   59.2015    7.2848 C   0  0  0  0  0  0  0  0  0  0  0  0
   41.1091   59.4853    7.5889 H   0  0  0  0  0  0  0  0  0  0  0  0
   42.0714   60.1682    8.7645 H   0  0  0  0  0  0  0  0  0  0  0  0
   42.9244   58.0156    6.3314 C   0  0  0  0  0  0  0  0  0  0  0  0
   42.1412   57.1185    6.6875 O   0  0  0  0  0  0  0  0  0  0  0  0
   43.4801   58.0809    5.2109 O   0  0  0  0  0  0  0  0  0  0  0  0
   41.7644   57.1386    7.5451 H   0  0  0  0  0  0  0  0  0  0  0  0
   48.7090   58.7163    5.6702 C   0  0  0  0  0  0  0  0  0  0  0  0
   47.7954   58.3027    2.1003 C   0  0  0  0  0  0  0  0  0  0  0  0
   48.0682   58.9706    3.2352 C   0  0  0  0  0  0  0  0  0  0  0  0
   47.9418   56.6526    2.4584 S   0  0  0  0  0  0  0  0  0  0  0  0
   48.3742   58.1981    4.2994 C   0  0  0  0  0  0  0  0  0  0  0  0
   48.3498   56.8279    4.0377 C   0  0  0  0  0  0  0  0  0  0  0  0
   49.7361   55.1263    5.0834 O   0  0  0  0  0  0  0  0  0  0  0  0
   47.6264   55.2760    5.6873 O   0  0  0  0  0  0  0  0  0  0  0  0
   48.6048   55.6563    5.0139 C   0  0  0  0  0  0  0  0  0  0  0  0
   46.7997   55.7078    5.5976 H   0  0  0  0  0  0  0  0  0  0  0  0
 14 17  1  0  0  0
 17 19  2  0  0  0
 17 18  1  0  0  0
 13 14  1  0  0  0
 12 14  1  0  0  0
 11 12  1  0  0  0
 29 27  2  0  0  0
  1  6  2  0  0  0
  7  2  2  0  0  0
 29 28  1  0  0  0
 22 23  2  0  0  0
 22 24  1  0  0  0
 23 25  1  0  0  0
  3  5  1  0  0  0
  3  8  2  0  0  0
  5  4  1  0  0  0
  4  9  2  0  0  0
 10 21  1  0  0  0
 25 21  1  0  0  0
 24 26  1  0  0  0
 26 29  1  0  0  0
 25 26  2  0  0  0
  8  6  1  0  0  0
  6 10  1  0  0  0
 10  7  1  0  0  0
 11  7  1  0  0  0
  8  9  1  0  0  0
  9 11  1  0  0  0
 13 15  1  0  0  0
 13 16  1  0  0  0
 18 20  1  0  0  0
 28 30  1  0  0  0
M  END
> <minimizedAffinity>
-6.81994

$$$$
3S2V_3HU_A_258


 30 32  0  0  0  0  0  0  0  0999 V2000
   42.8151   59.0705    5.8964 O   0  0  0  0  0  0  0  0  0  0  0  0
   47.3540   59.1676    6.2389 O   0  0  0  0  0  0  0  0  0  0  0  0
   42.9673   57.5539    3.5889 C   0  0  0  0  0  0  0  0  0  0  0  0
   45.2296   56.8782    2.6850 C   0  0  0  0  0  0  0  0  0  0  0  0
   43.6014   56.6946    2.3025 S   0  0  0  0  0  0  0  0  0  0  0  0
   43.9195   58.7502    5.4613 C   0  0  0  0  0  0  0  0  0  0  0  0
   46.3303   58.8110    5.6534 C   0  0  0  0  0  0  0  0  0  0  0  0
   44.0068   57.9848    4.3073 C   0  0  0  0  0  0  0  0  0  0  0  0
   45.2877   57.6086    3.8053 C   0  0  0  0  0  0  0  0  0  0  0  0
   45.0565   59.1541    6.1410 N   0  0  0  0  0  0  0  0  0  0  0  0
   46.4422   58.0226    4.4982 N   0  0  0  0  0  0  0  0  0  0  0  0
   47.8117   57.6691    4.0224 C   0  0  0  0  0  0  0  0  0  0  0  0
   47.2743   55.9249    5.6533 N   0  0  0  0  0  0  0  0  0  0  0  0
   48.3080   56.3861    4.7023 C   0  0  0  0  0  0  0  0  0  0  0  0
   47.5917   55.0714    6.1129 H   0  0  0  0  0  0  0  0  0  0  0  0
   46.4077   55.7373    5.1490 H   0  0  0  0  0  0  0  0  0  0  0  0
   49.6357   56.6205    5.4354 C   0  0  0  0  0  0  0  0  0  0  0  0
   49.9598   55.8006    6.3117 O   0  0  0  0  0  0  0  0  0  0  0  0
   50.3568   57.5606    5.0294 O   0  0  0  0  0  0  0  0  0  0  0  0
   49.3636   55.1227    6.5626 H   0  0  0  0  0  0  0  0  0  0  0  0
   44.8429   60.0052    7.3233 C   0  0  0  0  0  0  0  0  0  0  0  0
   44.0175   58.0167   10.3424 C   0  0  0  0  0  0  0  0  0  0  0  0
   43.8319   58.5284    9.1126 C   0  0  0  0  0  0  0  0  0  0  0  0
   45.5124   58.5965   10.8914 S   0  0  0  0  0  0  0  0  0  0  0  0
   44.8283   59.3197    8.6611 C   0  0  0  0  0  0  0  0  0  0  0  0
   45.8860   59.4757    9.5576 C   0  0  0  0  0  0  0  0  0  0  0  0
   47.1552   61.5439    9.7061 O   0  0  0  0  0  0  0  0  0  0  0  0
   48.1649   59.7476    8.9370 O   0  0  0  0  0  0  0  0  0  0  0  0
   47.1643   60.3309    9.3994 C   0  0  0  0  0  0  0  0  0  0  0  0
   48.1189   58.8364    8.7233 H   0  0  0  0  0  0  0  0  0  0  0  0
 14 17  1  0  0  0
 17 19  2  0  0  0
 17 18  1  0  0  0
 13 14  1  0  0  0
 12 14  1  0  0  0
 11 12  1  0  0  0
 29 27  2  0  0  0
  1  6  2  0  0  0
  7  2  2  0  0  0
 29 28  1  0  0  0
 22 23  2  0  0  0
 22 24  1  0  0  0
 23 25  1  0  0  0
  3  5  1  0  0  0
  3  8  2  0  0  0
  5  4  1  0  0  0
  4  9  2  0  0  0
 10 21  1  0  0  0
 25 21  1  0  0  0
 24 26  1  0  0  0
 26 29  1  0  0  0
 25 26  2  0  0  0
  8  6  1  0  0  0
  6 10  1  0  0  0
 10  7  1  0  0  0
 11  7  1  0  0  0
  8  9  1  0  0  0
  9 11  1  0  0  0
 13 15  1  0  0  0
 13 16  1  0  0  0
 18 20  1  0  0  0
 28 30  1  0  0  0
M  END
> <minimizedAffinity>
-6.81397

$$$$
3S2V_3HU_A_258


 30 32  0  0  0  0  0  0  0  0999 V2000
   47.8632   58.2757    6.6605 O   0  0  0  0  0  0  0  0  0  0  0  0
   43.6188   58.9126    5.1415 O   0  0  0  0  0  0  0  0  0  0  0  0
   48.7508   57.7063    4.1039 C   0  0  0  0  0  0  0  0  0  0  0  0
   47.1195   57.7638    2.1734 C   0  0  0  0  0  0  0  0  0  0  0  0
   48.7498   57.4542    2.4510 S   0  0  0  0  0  0  0  0  0  0  0  0
   47.0622   58.3015    5.7281 C   0  0  0  0  0  0  0  0  0  0  0  0
   44.8023   58.6406    4.9339 C   0  0  0  0  0  0  0  0  0  0  0  0
   47.4983   58.0227    4.4408 C   0  0  0  0  0  0  0  0  0  0  0  0
   46.5703   58.0577    3.3582 C   0  0  0  0  0  0  0  0  0  0  0  0
   45.7385   58.6191    5.9832 N   0  0  0  0  0  0  0  0  0  0  0  0
   45.2243   58.3794    3.6215 N   0  0  0  0  0  0  0  0  0  0  0  0
   44.2020   58.4263    2.5355 C   0  0  0  0  0  0  0  0  0  0  0  0
   43.8538   56.8063    0.7341 N   0  0  0  0  0  0  0  0  0  0  0  0
   43.7113   57.0138    2.1909 C   0  0  0  0  0  0  0  0  0  0  0  0
   43.5307   55.8699    0.4908 H   0  0  0  0  0  0  0  0  0  0  0  0
   44.8340   56.9069    0.4706 H   0  0  0  0  0  0  0  0  0  0  0  0
   42.2502   56.8117    2.6145 C   0  0  0  0  0  0  0  0  0  0  0  0
   41.7459   57.6671    3.3623 O   0  0  0  0  0  0  0  0  0  0  0  0
   41.6289   55.8570    2.0936 O   0  0  0  0  0  0  0  0  0  0  0  0
   42.2776   58.3536    3.7143 H   0  0  0  0  0  0  0  0  0  0  0  0
   45.3814   58.8456    7.3936 C   0  0  0  0  0  0  0  0  0  0  0  0
   45.6518   62.5246    7.7695 C   0  0  0  0  0  0  0  0  0  0  0  0
   45.5943   61.3518    7.1140 C   0  0  0  0  0  0  0  0  0  0  0  0
   45.5357   62.1661    9.4219 S   0  0  0  0  0  0  0  0  0  0  0  0
   45.4620   60.2597    7.8969 C   0  0  0  0  0  0  0  0  0  0  0  0
   45.4122   60.5378    9.2632 C   0  0  0  0  0  0  0  0  0  0  0  0
   46.3369   59.1618   11.0415 O   0  0  0  0  0  0  0  0  0  0  0  0
   44.1591   59.1524   10.7339 O   0  0  0  0  0  0  0  0  0  0  0  0
   45.3065   59.5461   10.4446 C   0  0  0  0  0  0  0  0  0  0  0  0
   43.4196   59.4716   10.2550 H   0  0  0  0  0  0  0  0  0  0  0  0
 14 17  1  0  0  0
 17 19  2  0  0  0
 17 18  1  0  0  0
 13 14  1  0  0  0
 12 14  1  0  0  0
 11 12  1  0  0  0
 29 27  2  0  0  0
  1  6  2  0  0  0
  7  2  2  0  0  0
 29 28  1  0  0  0
 22 23  2  0  0  0
 22 24  1  0  0  0
 23 25  1  0  0  0
  3  5  1  0  0  0
  3  8  2  0  0  0
  5  4  1  0  0  0
  4  9  2  0  0  0
 10 21  1  0  0  0
 25 21  1  0  0  0
 24 26  1  0  0  0
 26 29  1  0  0  0
 25 26  2  0  0  0
  8  6  1  0  0  0
  6 10  1  0  0  0
 10  7  1  0  0  0
 11  7  1  0  0  0
  8  9  1  0  0  0
  9 11  1  0  0  0
 13 15  1  0  0  0
 13 16  1  0  0  0
 18 20  1  0  0  0
 28 30  1  0  0  0
M  END
> <minimizedAffinity>
-6.75757

$$$$
3S2V_3HU_A_258


 30 32  0  0  0  0  0  0  0  0999 V2000
   46.2371   61.7227    3.8074 O   0  0  0  0  0  0  0  0  0  0  0  0
   48.0090   58.3899    6.3532 O   0  0  0  0  0  0  0  0  0  0  0  0
   48.2267   61.4071    1.9126 C   0  0  0  0  0  0  0  0  0  0  0  0
   50.0026   59.6394    2.2485 C   0  0  0  0  0  0  0  0  0  0  0  0
   49.5850   60.8253    1.1303 S   0  0  0  0  0  0  0  0  0  0  0  0
   47.0995   60.8636    3.9809 C   0  0  0  0  0  0  0  0  0  0  0  0
   48.0323   59.0959    5.3438 C   0  0  0  0  0  0  0  0  0  0  0  0
   48.0989   60.6935    3.0337 C   0  0  0  0  0  0  0  0  0  0  0  0
   49.0964   59.6934    3.2322 C   0  0  0  0  0  0  0  0  0  0  0  0
   47.0482   60.0749    5.1181 N   0  0  0  0  0  0  0  0  0  0  0  0
   49.0422   58.8942    4.3909 N   0  0  0  0  0  0  0  0  0  0  0  0
   50.0586   57.8357    4.6620 C   0  0  0  0  0  0  0  0  0  0  0  0
   48.2303   56.6428    3.5552 N   0  0  0  0  0  0  0  0  0  0  0  0
   49.5615   56.4684    4.1741 C   0  0  0  0  0  0  0  0  0  0  0  0
   47.8875   55.7403    3.2260 H   0  0  0  0  0  0  0  0  0  0  0  0
   48.3033   57.2866    2.7674 H   0  0  0  0  0  0  0  0  0  0  0  0
   49.4814   55.4595    5.3276 C   0  0  0  0  0  0  0  0  0  0  0  0
   49.8571   55.8398    6.4499 O   0  0  0  0  0  0  0  0  0  0  0  0
   48.9430   54.3546    5.0869 O   0  0  0  0  0  0  0  0  0  0  0  0
   50.2528   56.6832    6.5505 H   0  0  0  0  0  0  0  0  0  0  0  0
   45.9731   60.3802    6.0767 C   0  0  0  0  0  0  0  0  0  0  0  0
   43.0066   58.3237    5.2275 C   0  0  0  0  0  0  0  0  0  0  0  0
   44.0278   59.1693    5.0023 C   0  0  0  0  0  0  0  0  0  0  0  0
   43.0571   57.9256    6.8742 S   0  0  0  0  0  0  0  0  0  0  0  0
   44.7849   59.4594    6.0819 C   0  0  0  0  0  0  0  0  0  0  0  0
   44.3711   58.8305    7.2567 C   0  0  0  0  0  0  0  0  0  0  0  0
   44.3067   59.4959    9.5941 O   0  0  0  0  0  0  0  0  0  0  0  0
   46.1236   58.5176    8.8326 O   0  0  0  0  0  0  0  0  0  0  0  0
   44.9666   58.9568    8.6779 C   0  0  0  0  0  0  0  0  0  0  0  0
   46.5747   58.1222    8.1128 H   0  0  0  0  0  0  0  0  0  0  0  0
 14 17  1  0  0  0
 17 19  2  0  0  0
 17 18  1  0  0  0
 13 14  1  0  0  0
 12 14  1  0  0  0
 11 12  1  0  0  0
 29 27  2  0  0  0
  1  6  2  0  0  0
  7  2  2  0  0  0
 29 28  1  0  0  0
 22 23  2  0  0  0
 22 24  1  0  0  0
 23 25  1  0  0  0
  3  5  1  0  0  0
  3  8  2  0  0  0
  5  4  1  0  0  0
  4  9  2  0  0  0
 10 21  1  0  0  0
 25 21  1  0  0  0
 24 26  1  0  0  0
 26 29  1  0  0  0
 25 26  2  0  0  0
  8  6  1  0  0  0
  6 10  1  0  0  0
 10  7  1  0  0  0
 11  7  1  0  0  0
  8  9  1  0  0  0
  9 11  1  0  0  0
 13 15  1  0  0  0
 13 16  1  0  0  0
 18 20  1  0  0  0
 28 30  1  0  0  0
M  END
> <minimizedAffinity>
-6.75091

$$$$
