4RRG_A3T_A_501


 34 36  0  0  0  0  0  0  0  0999 V2000
   -3.7023    8.0634   44.8455 C   0  0  0  0  0  0  0  0  0  0  0  0
   -2.5578    7.6420   43.9278 C   0  0  0  0  0  0  0  0  0  0  0  0
   -1.4271    8.4690   44.2082 O   0  0  0  0  0  0  0  0  0  0  0  0
   -3.1446    7.9250   42.5546 C   0  0  0  0  0  0  0  0  0  0  0  0
   -4.0190    9.1716   42.7815 C   0  0  0  0  0  0  0  0  0  0  0  0
   -4.4672    9.1050   44.1569 O   0  0  0  0  0  0  0  0  0  0  0  0
   -1.6808    9.4018   44.1274 H   0  0  0  0  0  0  0  0  0  0  0  0
   -3.9991    3.8376   47.8418 N   0  0  0  0  0  0  0  0  0  0  0  0
   -2.9516    4.6380   47.6487 C   0  0  0  0  0  0  0  0  0  0  0  0
   -3.0429    5.6929   46.8320 N   0  0  0  0  0  0  0  0  0  0  0  0
   -4.1911    5.9735   46.1744 C   0  0  0  0  0  0  0  0  0  0  0  0
   -5.2977    5.1575   46.3587 C   0  0  0  0  0  0  0  0  0  0  0  0
   -5.1786    4.0674   47.2171 C   0  0  0  0  0  0  0  0  0  0  0  0
   -6.2286    3.2662   47.4117 N   0  0  0  0  0  0  0  0  0  0  0  0
   -6.2915    5.6438   45.6053 N   0  0  0  0  0  0  0  0  0  0  0  0
   -5.8390    6.7289   44.9778 C   0  0  0  0  0  0  0  0  0  0  0  0
   -4.5574    6.9294   45.3140 N   0  0  0  0  0  0  0  0  0  0  0  0
   -6.1527    2.4934   48.0169 H   0  0  0  0  0  0  0  0  0  0  0  0
   -7.0789    3.4481   46.9499 H   0  0  0  0  0  0  0  0  0  0  0  0
   -1.2696    7.3001   41.0827 C   0  0  0  0  0  0  0  0  0  0  0  0
   -1.2949    5.9718   41.3853 O   0  0  0  0  0  0  0  0  0  0  0  0
   -2.0743    8.2302   41.5945 N   0  0  0  0  0  0  0  0  0  0  0  0
   -1.9460    9.1660   41.3168 H   0  0  0  0  0  0  0  0  0  0  0  0
   -0.9014    8.5927   39.0627 N   0  0  0  0  0  0  0  0  0  0  0  0
   -0.2303    7.7800   40.0818 C   0  0  0  0  0  0  0  0  0  0  0  0
   -1.6197    8.0344   38.6013 H   0  0  0  0  0  0  0  0  0  0  0  0
   -0.2182    8.9051   38.3727 H   0  0  0  0  0  0  0  0  0  0  0  0
    0.8506    8.6061   40.7823 C   0  0  0  0  0  0  0  0  0  0  0  0
    0.6543    8.4446   42.1800 O   0  0  0  0  0  0  0  0  0  0  0  0
    0.8040   10.1008   40.4262 C   0  0  0  0  0  0  0  0  0  0  0  0
   -0.2250    8.7742   42.4232 H   0  0  0  0  0  0  0  0  0  0  0  0
   -5.2586    9.1919   41.8637 C   0  0  0  0  0  0  0  0  0  0  0  0
   -5.0523    8.3202   40.7433 O   0  0  0  0  0  0  0  0  0  0  0  0
   -4.2798    8.6195   40.2387 H   0  0  0  0  0  0  0  0  0  0  0  0
 20 21  2  0  0  0
 20 22  1  0  0  0
 20 25  1  0  0  0
 24 25  1  0  0  0
  8  9  2  0  0  0
  8 13  1  0  0  0
  9 10  1  0  0  0
 10 11  2  0  0  0
 11 12  1  0  0  0
 11 17  1  0  0  0
 12 13  2  0  0  0
 12 15  1  0  0  0
 13 14  1  0  0  0
 15 16  2  0  0  0
 16 17  1  0  0  0
 22  4  1  0  0  0
 17  1  1  0  0  0
 25 28  1  0  0  0
 28 29  1  0  0  0
 28 30  1  0  0  0
  1  2  1  0  0  0
  1  6  1  0  0  0
  2  3  1  0  0  0
  2  4  1  0  0  0
  4  5  1  0  0  0
  5  6  1  0  0  0
  5 32  1  0  0  0
 32 33  1  0  0  0
 24 26  1  0  0  0
 24 27  1  0  0  0
 14 18  1  0  0  0
 14 19  1  0  0  0
 22 23  1  0  0  0
 29 31  1  0  0  0
  3  7  1  0  0  0
 33 34  1  0  0  0
M  END
> <minimizedAffinity>
-9.85705

$$$$
4RRG_A3T_A_501


 34 36  0  0  0  0  0  0  0  0999 V2000
   -3.7308    7.9083   44.8221 C   0  0  0  0  0  0  0  0  0  0  0  0
   -2.4187    7.7848   44.0523 C   0  0  0  0  0  0  0  0  0  0  0  0
   -1.7402    9.0405   44.1131 O   0  0  0  0  0  0  0  0  0  0  0  0
   -2.9135    7.4714   42.6497 C   0  0  0  0  0  0  0  0  0  0  0  0
   -4.2251    8.2698   42.5388 C   0  0  0  0  0  0  0  0  0  0  0  0
   -4.7608    8.3539   43.8816 O   0  0  0  0  0  0  0  0  0  0  0  0
   -2.3279    9.7415   43.7904 H   0  0  0  0  0  0  0  0  0  0  0  0
   -7.6318    4.8667   46.3887 N   0  0  0  0  0  0  0  0  0  0  0  0
   -7.7017    6.0121   45.7116 C   0  0  0  0  0  0  0  0  0  0  0  0
   -6.5893    6.6799   45.3877 N   0  0  0  0  0  0  0  0  0  0  0  0
   -5.3674    6.2210   45.7424 C   0  0  0  0  0  0  0  0  0  0  0  0
   -5.2658    5.0299   46.4463 C   0  0  0  0  0  0  0  0  0  0  0  0
   -6.4384    4.3512   46.7684 C   0  0  0  0  0  0  0  0  0  0  0  0
   -6.3683    3.2029   47.4457 N   0  0  0  0  0  0  0  0  0  0  0  0
   -3.9666    4.8010   46.6726 N   0  0  0  0  0  0  0  0  0  0  0  0
   -3.2717    5.7983   46.1262 C   0  0  0  0  0  0  0  0  0  0  0  0
   -4.1205    6.6706   45.5657 N   0  0  0  0  0  0  0  0  0  0  0  0
   -7.1926    2.7169   47.6774 H   0  0  0  0  0  0  0  0  0  0  0  0
   -5.4923    2.8420   47.7135 H   0  0  0  0  0  0  0  0  0  0  0  0
   -1.0576    7.1529   41.0601 C   0  0  0  0  0  0  0  0  0  0  0  0
   -0.8893    5.8241   41.3106 O   0  0  0  0  0  0  0  0  0  0  0  0
   -1.9486    7.9490   41.6489 N   0  0  0  0  0  0  0  0  0  0  0  0
   -1.9614    8.9020   41.4023 H   0  0  0  0  0  0  0  0  0  0  0  0
   -0.9769    8.5599   39.0851 N   0  0  0  0  0  0  0  0  0  0  0  0
   -0.1489    7.8006   40.0271 C   0  0  0  0  0  0  0  0  0  0  0  0
   -1.6459    7.9328   38.6384 H   0  0  0  0  0  0  0  0  0  0  0  0
   -0.3811    8.9839   38.3740 H   0  0  0  0  0  0  0  0  0  0  0  0
    0.8600    8.7302   40.7049 C   0  0  0  0  0  0  0  0  0  0  0  0
    0.7370    8.5241   42.1051 O   0  0  0  0  0  0  0  0  0  0  0  0
    0.6342   10.2161   40.3824 C   0  0  0  0  0  0  0  0  0  0  0  0
   -0.1633    8.7493   42.3873 H   0  0  0  0  0  0  0  0  0  0  0  0
   -5.2639    7.5669   41.6409 C   0  0  0  0  0  0  0  0  0  0  0  0
   -6.4025    7.1780   42.4220 O   0  0  0  0  0  0  0  0  0  0  0  0
   -6.1218    6.5660   43.1203 H   0  0  0  0  0  0  0  0  0  0  0  0
 20 21  2  0  0  0
 20 22  1  0  0  0
 20 25  1  0  0  0
 24 25  1  0  0  0
  8  9  2  0  0  0
  8 13  1  0  0  0
  9 10  1  0  0  0
 10 11  2  0  0  0
 11 12  1  0  0  0
 11 17  1  0  0  0
 12 13  2  0  0  0
 12 15  1  0  0  0
 13 14  1  0  0  0
 15 16  2  0  0  0
 16 17  1  0  0  0
 22  4  1  0  0  0
 17  1  1  0  0  0
 25 28  1  0  0  0
 28 29  1  0  0  0
 28 30  1  0  0  0
  1  2  1  0  0  0
  1  6  1  0  0  0
  2  3  1  0  0  0
  2  4  1  0  0  0
  4  5  1  0  0  0
  5  6  1  0  0  0
  5 32  1  0  0  0
 32 33  1  0  0  0
 24 26  1  0  0  0
 24 27  1  0  0  0
 14 18  1  0  0  0
 14 19  1  0  0  0
 22 23  1  0  0  0
 29 31  1  0  0  0
  3  7  1  0  0  0
 33 34  1  0  0  0
M  END
> <minimizedAffinity>
-9.21830

$$$$
4RRG_A3T_A_501


 34 36  0  0  0  0  0  0  0  0999 V2000
   -3.6461    7.9440   44.8949 C   0  0  0  0  0  0  0  0  0  0  0  0
   -2.5946    7.4956   43.8835 C   0  0  0  0  0  0  0  0  0  0  0  0
   -1.3938    8.2308   44.1255 O   0  0  0  0  0  0  0  0  0  0  0  0
   -3.2471    7.8868   42.5677 C   0  0  0  0  0  0  0  0  0  0  0  0
   -4.0169    9.1751   42.9111 C   0  0  0  0  0  0  0  0  0  0  0  0
   -4.3796    9.0677   44.3090 O   0  0  0  0  0  0  0  0  0  0  0  0
   -1.5869    9.1811   44.1059 H   0  0  0  0  0  0  0  0  0  0  0  0
   -4.1071    3.7323   47.8903 N   0  0  0  0  0  0  0  0  0  0  0  0
   -3.0279    4.4885   47.6935 C   0  0  0  0  0  0  0  0  0  0  0  0
   -3.0784    5.5468   46.8776 N   0  0  0  0  0  0  0  0  0  0  0  0
   -4.2164    5.8754   46.2247 C   0  0  0  0  0  0  0  0  0  0  0  0
   -5.3554    5.1061   46.4131 C   0  0  0  0  0  0  0  0  0  0  0  0
   -5.2785    4.0115   47.2704 C   0  0  0  0  0  0  0  0  0  0  0  0
   -6.3602    3.2546   47.4687 N   0  0  0  0  0  0  0  0  0  0  0  0
   -6.3310    5.6340   45.6638 N   0  0  0  0  0  0  0  0  0  0  0  0
   -5.8361    6.6997   45.0350 C   0  0  0  0  0  0  0  0  0  0  0  0
   -4.5460    6.8463   45.3662 N   0  0  0  0  0  0  0  0  0  0  0  0
   -6.3142    2.4790   48.0733 H   0  0  0  0  0  0  0  0  0  0  0  0
   -7.2039    3.4722   47.0104 H   0  0  0  0  0  0  0  0  0  0  0  0
   -1.8192    7.2710   40.6560 C   0  0  0  0  0  0  0  0  0  0  0  0
   -2.2594    5.9846   40.5652 O   0  0  0  0  0  0  0  0  0  0  0  0
   -2.2218    8.1696   41.5531 N   0  0  0  0  0  0  0  0  0  0  0  0
   -1.8135    9.0653   41.5358 H   0  0  0  0  0  0  0  0  0  0  0  0
   -0.2450    6.5600   38.9522 N   0  0  0  0  0  0  0  0  0  0  0  0
   -0.7684    7.7331   39.6589 C   0  0  0  0  0  0  0  0  0  0  0  0
    0.1556    5.9077   39.6263 H   0  0  0  0  0  0  0  0  0  0  0  0
    0.4761    6.8536   38.2933 H   0  0  0  0  0  0  0  0  0  0  0  0
   -1.3728    8.7206   38.6585 C   0  0  0  0  0  0  0  0  0  0  0  0
   -1.7075    9.8942   39.3858 O   0  0  0  0  0  0  0  0  0  0  0  0
   -2.6251    8.1816   37.9484 C   0  0  0  0  0  0  0  0  0  0  0  0
   -2.3586    9.6754   40.0708 H   0  0  0  0  0  0  0  0  0  0  0  0
   -5.3082    9.3242   42.0808 C   0  0  0  0  0  0  0  0  0  0  0  0
   -4.9914    9.3409   40.6818 O   0  0  0  0  0  0  0  0  0  0  0  0
   -4.4047   10.0897   40.4921 H   0  0  0  0  0  0  0  0  0  0  0  0
 20 21  2  0  0  0
 20 22  1  0  0  0
 20 25  1  0  0  0
 24 25  1  0  0  0
  8  9  2  0  0  0
  8 13  1  0  0  0
  9 10  1  0  0  0
 10 11  2  0  0  0
 11 12  1  0  0  0
 11 17  1  0  0  0
 12 13  2  0  0  0
 12 15  1  0  0  0
 13 14  1  0  0  0
 15 16  2  0  0  0
 16 17  1  0  0  0
 22  4  1  0  0  0
 17  1  1  0  0  0
 25 28  1  0  0  0
 28 29  1  0  0  0
 28 30  1  0  0  0
  1  2  1  0  0  0
  1  6  1  0  0  0
  2  3  1  0  0  0
  2  4  1  0  0  0
  4  5  1  0  0  0
  5  6  1  0  0  0
  5 32  1  0  0  0
 32 33  1  0  0  0
 24 26  1  0  0  0
 24 27  1  0  0  0
 14 18  1  0  0  0
 14 19  1  0  0  0
 22 23  1  0  0  0
 29 31  1  0  0  0
  3  7  1  0  0  0
 33 34  1  0  0  0
M  END
> <minimizedAffinity>
-9.21249

$$$$
4RRG_A3T_A_501


 34 36  0  0  0  0  0  0  0  0999 V2000
   -4.9231    9.1209   42.0334 C   0  0  0  0  0  0  0  0  0  0  0  0
   -5.4418    7.8973   42.7841 C   0  0  0  0  0  0  0  0  0  0  0  0
   -6.5688    8.2933   43.5678 O   0  0  0  0  0  0  0  0  0  0  0  0
   -4.2447    7.5367   43.6486 C   0  0  0  0  0  0  0  0  0  0  0  0
   -3.6197    8.9007   43.9933 C   0  0  0  0  0  0  0  0  0  0  0  0
   -3.9274    9.7776   42.8827 O   0  0  0  0  0  0  0  0  0  0  0  0
   -6.3201    9.0366   44.1393 H   0  0  0  0  0  0  0  0  0  0  0  0
   -0.9041    9.4497   38.7680 N   0  0  0  0  0  0  0  0  0  0  0  0
   -0.9913    9.9100   40.0153 C   0  0  0  0  0  0  0  0  0  0  0  0
   -2.1124    9.7439   40.7249 N   0  0  0  0  0  0  0  0  0  0  0  0
   -3.1885    9.1151   40.1995 C   0  0  0  0  0  0  0  0  0  0  0  0
   -3.1241    8.6243   38.9035 C   0  0  0  0  0  0  0  0  0  0  0  0
   -1.9444    8.8065   38.1863 C   0  0  0  0  0  0  0  0  0  0  0  0
   -1.8565    8.3440   36.9370 N   0  0  0  0  0  0  0  0  0  0  0  0
   -4.3030    8.0546   38.6254 N   0  0  0  0  0  0  0  0  0  0  0  0
   -5.0794    8.1688   39.7026 C   0  0  0  0  0  0  0  0  0  0  0  0
   -4.4086    8.8216   40.6614 N   0  0  0  0  0  0  0  0  0  0  0  0
   -1.0261    8.4687   36.4232 H   0  0  0  0  0  0  0  0  0  0  0  0
   -2.6222    7.8782   36.5296 H   0  0  0  0  0  0  0  0  0  0  0  0
   -3.8833    6.0988   45.6170 C   0  0  0  0  0  0  0  0  0  0  0  0
   -2.5806    5.8115   45.3393 O   0  0  0  0  0  0  0  0  0  0  0  0
   -4.6866    6.8618   44.8773 N   0  0  0  0  0  0  0  0  0  0  0  0
   -5.6201    6.9790   45.1672 H   0  0  0  0  0  0  0  0  0  0  0  0
   -5.8828    5.1300   46.5916 N   0  0  0  0  0  0  0  0  0  0  0  0
   -4.4908    5.4942   46.8730 C   0  0  0  0  0  0  0  0  0  0  0  0
   -6.3994    5.9602   46.3013 H   0  0  0  0  0  0  0  0  0  0  0  0
   -6.3091    4.7410   47.4326 H   0  0  0  0  0  0  0  0  0  0  0  0
   -3.7037    4.2570   47.3100 C   0  0  0  0  0  0  0  0  0  0  0  0
   -4.6562    3.2652   47.6670 O   0  0  0  0  0  0  0  0  0  0  0  0
   -2.7643    4.5185   48.4983 C   0  0  0  0  0  0  0  0  0  0  0  0
   -5.2002    3.5890   48.4019 H   0  0  0  0  0  0  0  0  0  0  0  0
   -2.0866    8.8209   44.1431 C   0  0  0  0  0  0  0  0  0  0  0  0
   -1.5667    7.7781   43.3064 O   0  0  0  0  0  0  0  0  0  0  0  0
   -1.9552    6.9289   43.5690 H   0  0  0  0  0  0  0  0  0  0  0  0
 20 21  2  0  0  0
 20 22  1  0  0  0
 20 25  1  0  0  0
 24 25  1  0  0  0
  8  9  2  0  0  0
  8 13  1  0  0  0
  9 10  1  0  0  0
 10 11  2  0  0  0
 11 12  1  0  0  0
 11 17  1  0  0  0
 12 13  2  0  0  0
 12 15  1  0  0  0
 13 14  1  0  0  0
 15 16  2  0  0  0
 16 17  1  0  0  0
 22  4  1  0  0  0
 17  1  1  0  0  0
 25 28  1  0  0  0
 28 29  1  0  0  0
 28 30  1  0  0  0
  1  2  1  0  0  0
  1  6  1  0  0  0
  2  3  1  0  0  0
  2  4  1  0  0  0
  4  5  1  0  0  0
  5  6  1  0  0  0
  5 32  1  0  0  0
 32 33  1  0  0  0
 24 26  1  0  0  0
 24 27  1  0  0  0
 14 18  1  0  0  0
 14 19  1  0  0  0
 22 23  1  0  0  0
 29 31  1  0  0  0
  3  7  1  0  0  0
 33 34  1  0  0  0
M  END
> <minimizedAffinity>
-7.82044

$$$$
4RRG_A3T_A_501


 34 36  0  0  0  0  0  0  0  0999 V2000
   -2.5836    9.2388   40.9806 C   0  0  0  0  0  0  0  0  0  0  0  0
   -2.4216    8.4719   39.6709 C   0  0  0  0  0  0  0  0  0  0  0  0
   -1.6731    9.2825   38.7633 O   0  0  0  0  0  0  0  0  0  0  0  0
   -3.8669    8.3078   39.2298 C   0  0  0  0  0  0  0  0  0  0  0  0
   -4.5445    9.6035   39.7116 C   0  0  0  0  0  0  0  0  0  0  0  0
   -3.8136   10.0278   40.8875 O   0  0  0  0  0  0  0  0  0  0  0  0
   -2.1049   10.1461   38.6695 H   0  0  0  0  0  0  0  0  0  0  0  0
   -5.0950    7.6529   45.2351 N   0  0  0  0  0  0  0  0  0  0  0  0
   -5.4938    8.5429   44.3274 C   0  0  0  0  0  0  0  0  0  0  0  0
   -4.7159    8.8440   43.2823 N   0  0  0  0  0  0  0  0  0  0  0  0
   -3.5045    8.2647   43.1197 C   0  0  0  0  0  0  0  0  0  0  0  0
   -3.0654    7.3331   44.0491 C   0  0  0  0  0  0  0  0  0  0  0  0
   -3.8953    7.0338   45.1266 C   0  0  0  0  0  0  0  0  0  0  0  0
   -3.4962    6.1410   46.0354 N   0  0  0  0  0  0  0  0  0  0  0  0
   -1.8530    6.9159   43.6650 N   0  0  0  0  0  0  0  0  0  0  0  0
   -1.5398    7.5472   42.5338 C   0  0  0  0  0  0  0  0  0  0  0  0
   -2.5385    8.3765   42.2017 N   0  0  0  0  0  0  0  0  0  0  0  0
   -4.0770    5.9237   46.8001 H   0  0  0  0  0  0  0  0  0  0  0  0
   -2.6212    5.6998   45.9409 H   0  0  0  0  0  0  0  0  0  0  0  0
   -4.8679    7.4895   37.1320 C   0  0  0  0  0  0  0  0  0  0  0  0
   -5.8261    6.7248   37.7267 O   0  0  0  0  0  0  0  0  0  0  0  0
   -3.9465    8.2139   37.7651 N   0  0  0  0  0  0  0  0  0  0  0  0
   -3.2880    8.7097   37.2267 H   0  0  0  0  0  0  0  0  0  0  0  0
   -4.9380    6.1470   35.1122 N   0  0  0  0  0  0  0  0  0  0  0  0
   -4.8274    7.5208   35.6122 C   0  0  0  0  0  0  0  0  0  0  0  0
   -4.1713    5.5868   35.4848 H   0  0  0  0  0  0  0  0  0  0  0  0
   -4.8921    6.1513   34.0933 H   0  0  0  0  0  0  0  0  0  0  0  0
   -5.9725    8.3727   35.0606 C   0  0  0  0  0  0  0  0  0  0  0  0
   -6.5435    9.0629   36.1632 O   0  0  0  0  0  0  0  0  0  0  0  0
   -7.0596    7.5495   34.3508 C   0  0  0  0  0  0  0  0  0  0  0  0
   -6.8867    8.4206   36.8041 H   0  0  0  0  0  0  0  0  0  0  0  0
   -6.0190    9.3810   40.1061 C   0  0  0  0  0  0  0  0  0  0  0  0
   -6.8546    9.4632   38.9430 O   0  0  0  0  0  0  0  0  0  0  0  0
   -6.7634   10.3411   38.5407 H   0  0  0  0  0  0  0  0  0  0  0  0
 20 21  2  0  0  0
 20 22  1  0  0  0
 20 25  1  0  0  0
 24 25  1  0  0  0
  8  9  2  0  0  0
  8 13  1  0  0  0
  9 10  1  0  0  0
 10 11  2  0  0  0
 11 12  1  0  0  0
 11 17  1  0  0  0
 12 13  2  0  0  0
 12 15  1  0  0  0
 13 14  1  0  0  0
 15 16  2  0  0  0
 16 17  1  0  0  0
 22  4  1  0  0  0
 17  1  1  0  0  0
 25 28  1  0  0  0
 28 29  1  0  0  0
 28 30  1  0  0  0
  1  2  1  0  0  0
  1  6  1  0  0  0
  2  3  1  0  0  0
  2  4  1  0  0  0
  4  5  1  0  0  0
  5  6  1  0  0  0
  5 32  1  0  0  0
 32 33  1  0  0  0
 24 26  1  0  0  0
 24 27  1  0  0  0
 14 18  1  0  0  0
 14 19  1  0  0  0
 22 23  1  0  0  0
 29 31  1  0  0  0
  3  7  1  0  0  0
 33 34  1  0  0  0
M  END
> <minimizedAffinity>
-7.50441

$$$$
4RRG_A3T_A_501


 34 36  0  0  0  0  0  0  0  0999 V2000
   -6.5398    7.9200   42.6861 C   0  0  0  0  0  0  0  0  0  0  0  0
   -5.1121    8.4040   42.9245 C   0  0  0  0  0  0  0  0  0  0  0  0
   -5.0573    9.8035   42.6425 O   0  0  0  0  0  0  0  0  0  0  0  0
   -4.3359    7.5862   41.9051 C   0  0  0  0  0  0  0  0  0  0  0  0
   -5.3103    7.4612   40.7198 C   0  0  0  0  0  0  0  0  0  0  0  0
   -6.6423    7.5016   41.2866 O   0  0  0  0  0  0  0  0  0  0  0  0
   -5.3893    9.9658   41.7457 H   0  0  0  0  0  0  0  0  0  0  0  0
   -5.3258    5.0509   46.8355 N   0  0  0  0  0  0  0  0  0  0  0  0
   -4.5662    5.9420   46.1998 C   0  0  0  0  0  0  0  0  0  0  0  0
   -5.0351    6.5980   45.1331 N   0  0  0  0  0  0  0  0  0  0  0  0
   -6.2836    6.3728   44.6642 C   0  0  0  0  0  0  0  0  0  0  0  0
   -7.0965    5.4515   45.3083 C   0  0  0  0  0  0  0  0  0  0  0  0
   -6.5866    4.7840   46.4191 C   0  0  0  0  0  0  0  0  0  0  0  0
   -7.3484    3.8921   47.0568 N   0  0  0  0  0  0  0  0  0  0  0  0
   -8.2647    5.4141   44.6560 N   0  0  0  0  0  0  0  0  0  0  0  0
   -8.2008    6.2827   43.6473 C   0  0  0  0  0  0  0  0  0  0  0  0
   -6.9931    6.8632   43.6423 N   0  0  0  0  0  0  0  0  0  0  0  0
   -6.9954    3.4160   47.8429 H   0  0  0  0  0  0  0  0  0  0  0  0
   -8.2630    3.7106   46.7410 H   0  0  0  0  0  0  0  0  0  0  0  0
   -1.9046    7.9877   41.9128 C   0  0  0  0  0  0  0  0  0  0  0  0
   -1.6049    6.9960   42.7978 O   0  0  0  0  0  0  0  0  0  0  0  0
   -3.1255    8.3074   41.4864 N   0  0  0  0  0  0  0  0  0  0  0  0
   -3.2215    9.0621   40.8615 H   0  0  0  0  0  0  0  0  0  0  0  0
    0.4499    8.5261   42.1436 N   0  0  0  0  0  0  0  0  0  0  0  0
   -0.7559    8.8182   41.3623 C   0  0  0  0  0  0  0  0  0  0  0  0
    0.2804    8.7456   43.1252 H   0  0  0  0  0  0  0  0  0  0  0  0
    1.2247    9.0920   41.7975 H   0  0  0  0  0  0  0  0  0  0  0  0
   -0.5152    8.4931   39.8866 C   0  0  0  0  0  0  0  0  0  0  0  0
   -1.6106    9.0322   39.1600 O   0  0  0  0  0  0  0  0  0  0  0  0
   -0.4023    6.9865   39.6033 C   0  0  0  0  0  0  0  0  0  0  0  0
   -2.4340    8.6172   39.4612 H   0  0  0  0  0  0  0  0  0  0  0  0
   -5.1416    6.1285   39.9617 C   0  0  0  0  0  0  0  0  0  0  0  0
   -3.7580    5.7507   39.9378 O   0  0  0  0  0  0  0  0  0  0  0  0
   -3.2428    6.4384   39.4877 H   0  0  0  0  0  0  0  0  0  0  0  0
 20 21  2  0  0  0
 20 22  1  0  0  0
 20 25  1  0  0  0
 24 25  1  0  0  0
  8  9  2  0  0  0
  8 13  1  0  0  0
  9 10  1  0  0  0
 10 11  2  0  0  0
 11 12  1  0  0  0
 11 17  1  0  0  0
 12 13  2  0  0  0
 12 15  1  0  0  0
 13 14  1  0  0  0
 15 16  2  0  0  0
 16 17  1  0  0  0
 22  4  1  0  0  0
 17  1  1  0  0  0
 25 28  1  0  0  0
 28 29  1  0  0  0
 28 30  1  0  0  0
  1  2  1  0  0  0
  1  6  1  0  0  0
  2  3  1  0  0  0
  2  4  1  0  0  0
  4  5  1  0  0  0
  5  6  1  0  0  0
  5 32  1  0  0  0
 32 33  1  0  0  0
 24 26  1  0  0  0
 24 27  1  0  0  0
 14 18  1  0  0  0
 14 19  1  0  0  0
 22 23  1  0  0  0
 29 31  1  0  0  0
  3  7  1  0  0  0
 33 34  1  0  0  0
M  END
> <minimizedAffinity>
-7.45752

$$$$
4RRG_A3T_A_501


 34 36  0  0  0  0  0  0  0  0999 V2000
   -4.2742    9.4498   41.5722 C   0  0  0  0  0  0  0  0  0  0  0  0
   -5.4156    8.7602   42.3147 C   0  0  0  0  0  0  0  0  0  0  0  0
   -6.1319    9.7478   43.0578 O   0  0  0  0  0  0  0  0  0  0  0  0
   -4.6588    7.8026   43.2207 C   0  0  0  0  0  0  0  0  0  0  0  0
   -3.3748    8.5742   43.5755 C   0  0  0  0  0  0  0  0  0  0  0  0
   -3.1013    9.4419   42.4488 O   0  0  0  0  0  0  0  0  0  0  0  0
   -5.5164   10.2303   43.6316 H   0  0  0  0  0  0  0  0  0  0  0  0
   -6.1741    8.3557   36.8694 N   0  0  0  0  0  0  0  0  0  0  0  0
   -6.8125    8.8837   37.9129 C   0  0  0  0  0  0  0  0  0  0  0  0
   -6.1700    9.0991   39.0657 N   0  0  0  0  0  0  0  0  0  0  0  0
   -4.8631    8.7820   39.2101 C   0  0  0  0  0  0  0  0  0  0  0  0
   -4.1738    8.2326   38.1389 C   0  0  0  0  0  0  0  0  0  0  0  0
   -4.8640    8.0215   36.9479 C   0  0  0  0  0  0  0  0  0  0  0  0
   -4.2240    7.4937   35.9019 N   0  0  0  0  0  0  0  0  0  0  0  0
   -2.9146    8.0121   38.5357 N   0  0  0  0  0  0  0  0  0  0  0  0
   -2.8056    8.4146   39.8015 C   0  0  0  0  0  0  0  0  0  0  0  0
   -3.9918    8.8764   40.2201 N   0  0  0  0  0  0  0  0  0  0  0  0
   -4.7047    7.3412   35.0564 H   0  0  0  0  0  0  0  0  0  0  0  0
   -3.2712    7.2569   35.9761 H   0  0  0  0  0  0  0  0  0  0  0  0
   -6.4168    6.6328   44.4910 C   0  0  0  0  0  0  0  0  0  0  0  0
   -6.8584    5.8754   43.4480 O   0  0  0  0  0  0  0  0  0  0  0  0
   -5.4348    7.5314   44.4393 N   0  0  0  0  0  0  0  0  0  0  0  0
   -5.2186    8.0376   45.2555 H   0  0  0  0  0  0  0  0  0  0  0  0
   -8.4677    5.9730   45.6069 N   0  0  0  0  0  0  0  0  0  0  0  0
   -7.1024    6.4554   45.8367 C   0  0  0  0  0  0  0  0  0  0  0  0
   -8.9723    6.6439   45.0275 H   0  0  0  0  0  0  0  0  0  0  0  0
   -8.9464    5.8686   46.5015 H   0  0  0  0  0  0  0  0  0  0  0  0
   -6.3335    5.4576   46.7053 C   0  0  0  0  0  0  0  0  0  0  0  0
   -5.0337    5.3365   46.1450 O   0  0  0  0  0  0  0  0  0  0  0  0
   -6.9945    4.0715   46.7744 C   0  0  0  0  0  0  0  0  0  0  0  0
   -5.1028    5.0018   45.2372 H   0  0  0  0  0  0  0  0  0  0  0  0
   -2.1658    7.6376   43.7762 C   0  0  0  0  0  0  0  0  0  0  0  0
   -2.5339    6.5372   44.6196 O   0  0  0  0  0  0  0  0  0  0  0  0
   -2.8207    6.8735   45.4831 H   0  0  0  0  0  0  0  0  0  0  0  0
 20 21  2  0  0  0
 20 22  1  0  0  0
 20 25  1  0  0  0
 24 25  1  0  0  0
  8  9  2  0  0  0
  8 13  1  0  0  0
  9 10  1  0  0  0
 10 11  2  0  0  0
 11 12  1  0  0  0
 11 17  1  0  0  0
 12 13  2  0  0  0
 12 15  1  0  0  0
 13 14  1  0  0  0
 15 16  2  0  0  0
 16 17  1  0  0  0
 22  4  1  0  0  0
 17  1  1  0  0  0
 25 28  1  0  0  0
 28 29  1  0  0  0
 28 30  1  0  0  0
  1  2  1  0  0  0
  1  6  1  0  0  0
  2  3  1  0  0  0
  2  4  1  0  0  0
  4  5  1  0  0  0
  5  6  1  0  0  0
  5 32  1  0  0  0
 32 33  1  0  0  0
 24 26  1  0  0  0
 24 27  1  0  0  0
 14 18  1  0  0  0
 14 19  1  0  0  0
 22 23  1  0  0  0
 29 31  1  0  0  0
  3  7  1  0  0  0
 33 34  1  0  0  0
M  END
> <minimizedAffinity>
-7.37280

$$$$
4RRG_A3T_A_501


 34 36  0  0  0  0  0  0  0  0999 V2000
   -3.5997    8.6678   43.2265 C   0  0  0  0  0  0  0  0  0  0  0  0
   -5.0403    8.2846   42.8986 C   0  0  0  0  0  0  0  0  0  0  0  0
   -5.8749    9.4184   43.1410 O   0  0  0  0  0  0  0  0  0  0  0  0
   -5.2952    7.1655   43.8951 C   0  0  0  0  0  0  0  0  0  0  0  0
   -4.4862    7.5894   45.1343 C   0  0  0  0  0  0  0  0  0  0  0  0
   -3.3669    8.3637   44.6398 O   0  0  0  0  0  0  0  0  0  0  0  0
   -5.7417    9.7295   44.0500 H   0  0  0  0  0  0  0  0  0  0  0  0
   -1.9236    8.1223   38.3463 N   0  0  0  0  0  0  0  0  0  0  0  0
   -2.9888    8.7945   38.7807 C   0  0  0  0  0  0  0  0  0  0  0  0
   -3.2850    8.8312   40.0842 N   0  0  0  0  0  0  0  0  0  0  0  0
   -2.5226    8.1845   40.9952 C   0  0  0  0  0  0  0  0  0  0  0  0
   -1.4066    7.4785   40.5703 C   0  0  0  0  0  0  0  0  0  0  0  0
   -1.1170    7.4584   39.2083 C   0  0  0  0  0  0  0  0  0  0  0  0
   -0.0489    6.7860   38.7733 N   0  0  0  0  0  0  0  0  0  0  0  0
   -0.8324    6.9367   41.6513 N   0  0  0  0  0  0  0  0  0  0  0  0
   -1.5468    7.2925   42.7186 C   0  0  0  0  0  0  0  0  0  0  0  0
   -2.5826    8.0454   42.3239 N   0  0  0  0  0  0  0  0  0  0  0  0
    0.1628    6.7669   37.8120 H   0  0  0  0  0  0  0  0  0  0  0  0
    0.5271    6.3094   39.4137 H   0  0  0  0  0  0  0  0  0  0  0  0
   -7.5869    6.3189   43.5729 C   0  0  0  0  0  0  0  0  0  0  0  0
   -7.2904    5.5233   42.5072 O   0  0  0  0  0  0  0  0  0  0  0  0
   -6.7249    7.0943   44.2287 N   0  0  0  0  0  0  0  0  0  0  0  0
   -7.0613    7.6457   44.9718 H   0  0  0  0  0  0  0  0  0  0  0  0
   -9.9061    5.9779   42.9468 N   0  0  0  0  0  0  0  0  0  0  0  0
   -9.0266    6.3421   44.0619 C   0  0  0  0  0  0  0  0  0  0  0  0
   -9.7722    6.6361   42.1792 H   0  0  0  0  0  0  0  0  0  0  0  0
  -10.8776    6.0090   43.2558 H   0  0  0  0  0  0  0  0  0  0  0  0
   -9.2174    5.3619   45.2212 C   0  0  0  0  0  0  0  0  0  0  0  0
   -7.9435    4.7990   45.5014 O   0  0  0  0  0  0  0  0  0  0  0  0
  -10.2193    4.2376   44.9122 C   0  0  0  0  0  0  0  0  0  0  0  0
   -7.6190    4.3276   44.7182 H   0  0  0  0  0  0  0  0  0  0  0  0
   -3.9361    6.3789   45.9163 C   0  0  0  0  0  0  0  0  0  0  0  0
   -2.6816    5.9644   45.3575 O   0  0  0  0  0  0  0  0  0  0  0  0
   -2.8089    5.7108   44.4299 H   0  0  0  0  0  0  0  0  0  0  0  0
 20 21  2  0  0  0
 20 22  1  0  0  0
 20 25  1  0  0  0
 24 25  1  0  0  0
  8  9  2  0  0  0
  8 13  1  0  0  0
  9 10  1  0  0  0
 10 11  2  0  0  0
 11 12  1  0  0  0
 11 17  1  0  0  0
 12 13  2  0  0  0
 12 15  1  0  0  0
 13 14  1  0  0  0
 15 16  2  0  0  0
 16 17  1  0  0  0
 22  4  1  0  0  0
 17  1  1  0  0  0
 25 28  1  0  0  0
 28 29  1  0  0  0
 28 30  1  0  0  0
  1  2  1  0  0  0
  1  6  1  0  0  0
  2  3  1  0  0  0
  2  4  1  0  0  0
  4  5  1  0  0  0
  5  6  1  0  0  0
  5 32  1  0  0  0
 32 33  1  0  0  0
 24 26  1  0  0  0
 24 27  1  0  0  0
 14 18  1  0  0  0
 14 19  1  0  0  0
 22 23  1  0  0  0
 29 31  1  0  0  0
  3  7  1  0  0  0
 33 34  1  0  0  0
M  END
> <minimizedAffinity>
-7.02959

$$$$
4RRG_A3T_A_501


 34 36  0  0  0  0  0  0  0  0999 V2000
   -5.3329    8.4624   43.2803 C   0  0  0  0  0  0  0  0  0  0  0  0
   -4.0966    7.8215   42.6553 C   0  0  0  0  0  0  0  0  0  0  0  0
   -2.9405    8.5106   43.1344 O   0  0  0  0  0  0  0  0  0  0  0  0
   -4.3362    8.0706   41.1751 C   0  0  0  0  0  0  0  0  0  0  0  0
   -5.0462    9.4363   41.1454 C   0  0  0  0  0  0  0  0  0  0  0  0
   -5.7761    9.5386   42.3919 O   0  0  0  0  0  0  0  0  0  0  0  0
   -3.0322    9.4594   42.9551 H   0  0  0  0  0  0  0  0  0  0  0  0
   -6.9896    4.7639   46.5207 N   0  0  0  0  0  0  0  0  0  0  0  0
   -5.8346    5.4275   46.5502 C   0  0  0  0  0  0  0  0  0  0  0  0
   -5.5597    6.3560   45.6280 N   0  0  0  0  0  0  0  0  0  0  0  0
   -6.4359    6.6425   44.6383 C   0  0  0  0  0  0  0  0  0  0  0  0
   -7.6468    5.9678   44.5851 C   0  0  0  0  0  0  0  0  0  0  0  0
   -7.9113    5.0081   45.5589 C   0  0  0  0  0  0  0  0  0  0  0  0
   -9.0692    4.3442   45.5301 N   0  0  0  0  0  0  0  0  0  0  0  0
   -8.3229    6.4288   43.5258 N   0  0  0  0  0  0  0  0  0  0  0  0
   -7.5781    7.3644   42.9376 C   0  0  0  0  0  0  0  0  0  0  0  0
   -6.4238    7.4925   43.6060 N   0  0  0  0  0  0  0  0  0  0  0  0
   -9.2639    3.6642   46.2148 H   0  0  0  0  0  0  0  0  0  0  0  0
   -9.7284    4.5346   44.8241 H   0  0  0  0  0  0  0  0  0  0  0  0
   -2.9101    7.7848   39.1859 C   0  0  0  0  0  0  0  0  0  0  0  0
   -3.8857    7.2605   38.3923 O   0  0  0  0  0  0  0  0  0  0  0  0
   -3.0562    8.1542   40.4574 N   0  0  0  0  0  0  0  0  0  0  0  0
   -2.2700    8.4995   40.9390 H   0  0  0  0  0  0  0  0  0  0  0  0
   -1.1596    9.3784   38.6541 N   0  0  0  0  0  0  0  0  0  0  0  0
   -1.5245    7.9601   38.5846 C   0  0  0  0  0  0  0  0  0  0  0  0
   -1.8492    9.9322   38.1458 H   0  0  0  0  0  0  0  0  0  0  0  0
   -0.2394    9.5137   38.2354 H   0  0  0  0  0  0  0  0  0  0  0  0
   -0.4975    7.1173   39.3437 C   0  0  0  0  0  0  0  0  0  0  0  0
   -1.2083    6.0499   39.9549 O   0  0  0  0  0  0  0  0  0  0  0  0
    0.2670    7.9073   40.4182 C   0  0  0  0  0  0  0  0  0  0  0  0
   -1.8639    6.4098   40.5726 H   0  0  0  0  0  0  0  0  0  0  0  0
   -6.0504    9.5485   39.9800 C   0  0  0  0  0  0  0  0  0  0  0  0
   -6.4452    8.2394   39.5463 O   0  0  0  0  0  0  0  0  0  0  0  0
   -5.6642    7.7493   39.2452 H   0  0  0  0  0  0  0  0  0  0  0  0
 20 21  2  0  0  0
 20 22  1  0  0  0
 20 25  1  0  0  0
 24 25  1  0  0  0
  8  9  2  0  0  0
  8 13  1  0  0  0
  9 10  1  0  0  0
 10 11  2  0  0  0
 11 12  1  0  0  0
 11 17  1  0  0  0
 12 13  2  0  0  0
 12 15  1  0  0  0
 13 14  1  0  0  0
 15 16  2  0  0  0
 16 17  1  0  0  0
 22  4  1  0  0  0
 17  1  1  0  0  0
 25 28  1  0  0  0
 28 29  1  0  0  0
 28 30  1  0  0  0
  1  2  1  0  0  0
  1  6  1  0  0  0
  2  3  1  0  0  0
  2  4  1  0  0  0
  4  5  1  0  0  0
  5  6  1  0  0  0
  5 32  1  0  0  0
 32 33  1  0  0  0
 24 26  1  0  0  0
 24 27  1  0  0  0
 14 18  1  0  0  0
 14 19  1  0  0  0
 22 23  1  0  0  0
 29 31  1  0  0  0
  3  7  1  0  0  0
 33 34  1  0  0  0
M  END
> <minimizedAffinity>
-7.02628

$$$$
4RRG_A3T_A_501


 34 36  0  0  0  0  0  0  0  0999 V2000
   -4.1394    9.3400   43.4346 C   0  0  0  0  0  0  0  0  0  0  0  0
   -5.2259    8.7281   42.5544 C   0  0  0  0  0  0  0  0  0  0  0  0
   -6.3581    9.5993   42.5644 O   0  0  0  0  0  0  0  0  0  0  0  0
   -5.5064    7.4204   43.2766 C   0  0  0  0  0  0  0  0  0  0  0  0
   -5.3136    7.7755   44.7621 C   0  0  0  0  0  0  0  0  0  0  0  0
   -4.3360    8.8433   44.7979 O   0  0  0  0  0  0  0  0  0  0  0  0
   -6.6317    9.7634   43.4805 H   0  0  0  0  0  0  0  0  0  0  0  0
   -1.0073    9.2931   39.2980 N   0  0  0  0  0  0  0  0  0  0  0  0
   -2.3185    9.5269   39.3353 C   0  0  0  0  0  0  0  0  0  0  0  0
   -2.9823    9.4960   40.4957 N   0  0  0  0  0  0  0  0  0  0  0  0
   -2.3493    9.2200   41.6587 C   0  0  0  0  0  0  0  0  0  0  0  0
   -0.9840    8.9745   41.6487 C   0  0  0  0  0  0  0  0  0  0  0  0
   -0.3146    9.0161   40.4283 C   0  0  0  0  0  0  0  0  0  0  0  0
    0.9995    8.7832   40.3911 N   0  0  0  0  0  0  0  0  0  0  0  0
   -0.6055    8.7303   42.9092 N   0  0  0  0  0  0  0  0  0  0  0  0
   -1.6824    8.8275   43.6883 C   0  0  0  0  0  0  0  0  0  0  0  0
   -2.7490    9.1170   42.9307 N   0  0  0  0  0  0  0  0  0  0  0  0
    1.4802    8.8107   39.5324 H   0  0  0  0  0  0  0  0  0  0  0  0
    1.4878    8.5839   41.2224 H   0  0  0  0  0  0  0  0  0  0  0  0
   -7.2741    6.3438   41.9391 C   0  0  0  0  0  0  0  0  0  0  0  0
   -6.4708    6.0171   40.8881 O   0  0  0  0  0  0  0  0  0  0  0  0
   -6.8922    6.9922   43.0383 N   0  0  0  0  0  0  0  0  0  0  0  0
   -7.5700    7.1942   43.7232 H   0  0  0  0  0  0  0  0  0  0  0  0
   -9.1785    5.5070   43.1881 N   0  0  0  0  0  0  0  0  0  0  0  0
   -8.7405    5.9491   41.8605 C   0  0  0  0  0  0  0  0  0  0  0  0
   -8.6056    4.7189   43.4901 H   0  0  0  0  0  0  0  0  0  0  0  0
  -10.1563    5.2199   43.1454 H   0  0  0  0  0  0  0  0  0  0  0  0
   -9.5922    7.1319   41.3950 C   0  0  0  0  0  0  0  0  0  0  0  0
   -8.7002    8.2051   41.1289 O   0  0  0  0  0  0  0  0  0  0  0  0
  -10.6375    7.5772   42.4304 C   0  0  0  0  0  0  0  0  0  0  0  0
   -8.2239    8.4385   41.9410 H   0  0  0  0  0  0  0  0  0  0  0  0
   -4.7703    6.5873   45.5821 C   0  0  0  0  0  0  0  0  0  0  0  0
   -5.8239    5.6488   45.8408 O   0  0  0  0  0  0  0  0  0  0  0  0
   -6.5290    6.0850   46.3443 H   0  0  0  0  0  0  0  0  0  0  0  0
 20 21  2  0  0  0
 20 22  1  0  0  0
 20 25  1  0  0  0
 24 25  1  0  0  0
  8  9  2  0  0  0
  8 13  1  0  0  0
  9 10  1  0  0  0
 10 11  2  0  0  0
 11 12  1  0  0  0
 11 17  1  0  0  0
 12 13  2  0  0  0
 12 15  1  0  0  0
 13 14  1  0  0  0
 15 16  2  0  0  0
 16 17  1  0  0  0
 22  4  1  0  0  0
 17  1  1  0  0  0
 25 28  1  0  0  0
 28 29  1  0  0  0
 28 30  1  0  0  0
  1  2  1  0  0  0
  1  6  1  0  0  0
  2  3  1  0  0  0
  2  4  1  0  0  0
  4  5  1  0  0  0
  5  6  1  0  0  0
  5 32  1  0  0  0
 32 33  1  0  0  0
 24 26  1  0  0  0
 24 27  1  0  0  0
 14 18  1  0  0  0
 14 19  1  0  0  0
 22 23  1  0  0  0
 29 31  1  0  0  0
  3  7  1  0  0  0
 33 34  1  0  0  0
M  END
> <minimizedAffinity>
-6.91138

$$$$
