5OM2_DXT_B_501


 39 42  0  0  0  0  0  0  0  0999 V2000
    3.0275  -15.7657  -15.7913 C   0  0  0  0  0  0  0  0  0  0  0  0
    1.8652  -16.1332  -15.8648 O   0  0  0  0  0  0  0  0  0  0  0  0
    3.6788  -14.9332  -16.7721 C   0  0  0  0  0  0  0  0  0  0  0  0
    4.8899  -14.3745  -16.5969 C   0  0  0  0  0  0  0  0  0  0  0  0
    5.6667  -13.9366  -17.6009 O   0  0  0  0  0  0  0  0  0  0  0  0
    5.6666  -14.5316  -15.3183 C   0  0  0  0  0  0  0  0  0  0  0  0
    5.3843  -15.9425  -14.7345 C   0  0  0  0  0  0  0  0  0  0  0  0
    6.1412  -17.0401  -15.5326 C   0  0  0  0  0  0  0  0  0  0  0  0
    7.5065  -16.7330  -15.5727 O   0  0  0  0  0  0  0  0  0  0  0  0
    5.9344  -18.4444  -14.9101 C   0  0  0  0  0  0  0  0  0  0  0  0
    6.4305  -19.6227  -15.8076 C   0  0  0  0  0  0  0  0  0  0  0  0
    7.8695  -19.4096  -16.2692 C   0  0  0  0  0  0  0  0  0  0  0  0
    6.2129  -20.9544  -15.1152 C   0  0  0  0  0  0  0  0  0  0  0  0
    7.0728  -22.0360  -15.2767 C   0  0  0  0  0  0  0  0  0  0  0  0
    6.8421  -23.2485  -14.6379 C   0  0  0  0  0  0  0  0  0  0  0  0
    5.7522  -23.4272  -13.8205 C   0  0  0  0  0  0  0  0  0  0  0  0
    4.8826  -22.3408  -13.6456 C   0  0  0  0  0  0  0  0  0  0  0  0
    3.8204  -22.5657  -12.8178 O   0  0  0  0  0  0  0  0  0  0  0  0
    5.1078  -21.1237  -14.2848 C   0  0  0  0  0  0  0  0  0  0  0  0
    4.1797  -20.0452  -14.0499 C   0  0  0  0  0  0  0  0  0  0  0  0
    3.1301  -20.2487  -13.4283 O   0  0  0  0  0  0  0  0  0  0  0  0
    4.5033  -18.6913  -14.5220 C   0  0  0  0  0  0  0  0  0  0  0  0
    3.6314  -17.6888  -14.2388 C   0  0  0  0  0  0  0  0  0  0  0  0
    2.4262  -17.8131  -13.6689 O   0  0  0  0  0  0  0  0  0  0  0  0
    3.8496  -16.1960  -14.5592 C   0  0  0  0  0  0  0  0  0  0  0  0
    3.4304  -15.4501  -13.4600 O   0  0  0  0  0  0  0  0  0  0  0  0
    5.2991  -13.7982  -18.4516 H   0  0  0  0  0  0  0  0  0  0  0  0
    7.8604  -16.7146  -14.6698 H   0  0  0  0  0  0  0  0  0  0  0  0
    3.7125  -23.4028  -12.4109 H   0  0  0  0  0  0  0  0  0  0  0  0
    2.1183  -18.6573  -13.4033 H   0  0  0  0  0  0  0  0  0  0  0  0
    3.5595  -14.5060  -13.6416 H   0  0  0  0  0  0  0  0  0  0  0  0
    2.9930  -13.9097  -18.8385 O   0  0  0  0  0  0  0  0  0  0  0  0
    3.1136  -14.9204  -18.1594 C   0  0  0  0  0  0  0  0  0  0  0  0
    2.7265  -16.1644  -18.6398 N   0  0  0  0  0  0  0  0  0  0  0  0
    2.8325  -16.9645  -18.0761 H   0  0  0  0  0  0  0  0  0  0  0  0
    2.3460  -16.2462  -19.5441 H   0  0  0  0  0  0  0  0  0  0  0  0
    5.2440  -13.4067  -14.3274 N   0  0  0  0  0  0  0  0  0  0  0  0
    5.2879  -12.0583  -15.0253 C   0  0  0  0  0  0  0  0  0  0  0  0
    6.2212  -13.3110  -13.1578 C   0  0  0  0  0  0  0  0  0  0  0  0
  1 25  1  0  0  0
  1  2  2  0  0  0
  1  3  1  0  0  0
  3 33  1  0  0  0
  3  4  2  0  0  0
 32 33  2  0  0  0
 33 34  1  0  0  0
  4  5  1  0  0  0
  4  6  1  0  0  0
  6 37  1  0  0  0
  6  7  1  0  0  0
 37 38  1  0  0  0
 37 39  1  0  0  0
  7 25  1  0  0  0
  7  8  1  0  0  0
  8  9  1  0  0  0
  8 10  1  0  0  0
 10 22  1  0  0  0
 10 11  1  0  0  0
 11 13  1  0  0  0
 11 12  1  0  0  0
 13 19  1  0  0  0
 13 14  2  0  0  0
 14 15  1  0  0  0
 15 16  2  0  0  0
 16 17  1  0  0  0
 17 18  1  0  0  0
 17 19  2  0  0  0
 19 20  1  0  0  0
 20 21  2  0  0  0
 20 22  1  0  0  0
 22 23  2  0  0  0
 23 24  1  0  0  0
 23 25  1  0  0  0
 25 26  1  0  0  0
 34 35  1  0  0  0
 34 36  1  0  0  0
  5 27  1  0  0  0
  9 28  1  0  0  0
 18 29  1  0  0  0
 24 30  1  0  0  0
 26 31  1  0  0  0
M  END
> <minimizedAffinity>
-11.14006

$$$$
5OM2_DXT_B_501


 39 42  0  0  0  0  0  0  0  0999 V2000
    5.0930  -14.1976  -15.9291 C   0  0  0  0  0  0  0  0  0  0  0  0
    3.9261  -14.3578  -16.2513 O   0  0  0  0  0  0  0  0  0  0  0  0
    6.0214  -13.3512  -16.6369 C   0  0  0  0  0  0  0  0  0  0  0  0
    7.2427  -13.0265  -16.1756 C   0  0  0  0  0  0  0  0  0  0  0  0
    8.2445  -12.5825  -16.9518 O   0  0  0  0  0  0  0  0  0  0  0  0
    7.7395  -13.4869  -14.8325 C   0  0  0  0  0  0  0  0  0  0  0  0
    7.1665  -14.9018  -14.5479 C   0  0  0  0  0  0  0  0  0  0  0  0
    7.9041  -15.9831  -15.3852 C   0  0  0  0  0  0  0  0  0  0  0  0
    9.2817  -15.8987  -15.1505 O   0  0  0  0  0  0  0  0  0  0  0  0
    7.3982  -17.4092  -15.0495 C   0  0  0  0  0  0  0  0  0  0  0  0
    7.8897  -18.5132  -16.0394 C   0  0  0  0  0  0  0  0  0  0  0  0
    9.4048  -18.4727  -16.2183 C   0  0  0  0  0  0  0  0  0  0  0  0
    7.3699  -19.8765  -15.6253 C   0  0  0  0  0  0  0  0  0  0  0  0
    8.0915  -21.0492  -15.8242 C   0  0  0  0  0  0  0  0  0  0  0  0
    7.5851  -22.2864  -15.4444 C   0  0  0  0  0  0  0  0  0  0  0  0
    6.3481  -22.4002  -14.8570 C   0  0  0  0  0  0  0  0  0  0  0  0
    5.6153  -21.2231  -14.6459 C   0  0  0  0  0  0  0  0  0  0  0  0
    4.3972  -21.3879  -14.0517 O   0  0  0  0  0  0  0  0  0  0  0  0
    6.1171  -19.9805  -15.0262 C   0  0  0  0  0  0  0  0  0  0  0  0
    5.3151  -18.8102  -14.7675 C   0  0  0  0  0  0  0  0  0  0  0  0
    4.1505  -18.9269  -14.3682 O   0  0  0  0  0  0  0  0  0  0  0  0
    5.8999  -17.4736  -14.9464 C   0  0  0  0  0  0  0  0  0  0  0  0
    5.1334  -16.3934  -14.6445 C   0  0  0  0  0  0  0  0  0  0  0  0
    3.8376  -16.4003  -14.3074 O   0  0  0  0  0  0  0  0  0  0  0  0
    5.6061  -14.9256  -14.6696 C   0  0  0  0  0  0  0  0  0  0  0  0
    5.0938  -14.2849  -13.5438 O   0  0  0  0  0  0  0  0  0  0  0  0
    8.0636  -12.2673  -17.8154 H   0  0  0  0  0  0  0  0  0  0  0  0
    9.4606  -16.0661  -14.2119 H   0  0  0  0  0  0  0  0  0  0  0  0
    4.1040  -22.2456  -13.8142 H   0  0  0  0  0  0  0  0  0  0  0  0
    3.3750  -17.2125  -14.2411 H   0  0  0  0  0  0  0  0  0  0  0  0
    5.3802  -13.3582  -13.5408 H   0  0  0  0  0  0  0  0  0  0  0  0
    6.4194  -13.4434  -19.0077 O   0  0  0  0  0  0  0  0  0  0  0  0
    5.7311  -13.0505  -18.0754 C   0  0  0  0  0  0  0  0  0  0  0  0
    4.5975  -12.2777  -18.2894 N   0  0  0  0  0  0  0  0  0  0  0  0
    4.0583  -11.9724  -17.5244 H   0  0  0  0  0  0  0  0  0  0  0  0
    4.3330  -12.0350  -19.2061 H   0  0  0  0  0  0  0  0  0  0  0  0
    7.2951  -12.4603  -13.7488 N   0  0  0  0  0  0  0  0  0  0  0  0
    7.4875  -11.0452  -14.2661 C   0  0  0  0  0  0  0  0  0  0  0  0
    8.1614  -12.5756  -12.4965 C   0  0  0  0  0  0  0  0  0  0  0  0
  1 25  1  0  0  0
  1  2  2  0  0  0
  1  3  1  0  0  0
  3 33  1  0  0  0
  3  4  2  0  0  0
 32 33  2  0  0  0
 33 34  1  0  0  0
  4  5  1  0  0  0
  4  6  1  0  0  0
  6 37  1  0  0  0
  6  7  1  0  0  0
 37 38  1  0  0  0
 37 39  1  0  0  0
  7 25  1  0  0  0
  7  8  1  0  0  0
  8  9  1  0  0  0
  8 10  1  0  0  0
 10 22  1  0  0  0
 10 11  1  0  0  0
 11 13  1  0  0  0
 11 12  1  0  0  0
 13 19  1  0  0  0
 13 14  2  0  0  0
 14 15  1  0  0  0
 15 16  2  0  0  0
 16 17  1  0  0  0
 17 18  1  0  0  0
 17 19  2  0  0  0
 19 20  1  0  0  0
 20 21  2  0  0  0
 20 22  1  0  0  0
 22 23  2  0  0  0
 23 24  1  0  0  0
 23 25  1  0  0  0
 25 26  1  0  0  0
 34 35  1  0  0  0
 34 36  1  0  0  0
  5 27  1  0  0  0
  9 28  1  0  0  0
 18 29  1  0  0  0
 24 30  1  0  0  0
 26 31  1  0  0  0
M  END
> <minimizedAffinity>
-11.03169

$$$$
5OM2_DXT_B_501


 39 42  0  0  0  0  0  0  0  0999 V2000
    7.6744  -13.5022  -15.0180 C   0  0  0  0  0  0  0  0  0  0  0  0
    8.8454  -13.5097  -14.6717 O   0  0  0  0  0  0  0  0  0  0  0  0
    6.6428  -12.7272  -14.3743 C   0  0  0  0  0  0  0  0  0  0  0  0
    5.4019  -12.5709  -14.8700 C   0  0  0  0  0  0  0  0  0  0  0  0
    4.3414  -12.1994  -14.1348 O   0  0  0  0  0  0  0  0  0  0  0  0
    4.9867  -13.1620  -16.1893 C   0  0  0  0  0  0  0  0  0  0  0  0
    5.7212  -14.5166  -16.3812 C   0  0  0  0  0  0  0  0  0  0  0  0
    5.0939  -15.6244  -15.4902 C   0  0  0  0  0  0  0  0  0  0  0  0
    3.7204  -15.7111  -15.7474 O   0  0  0  0  0  0  0  0  0  0  0  0
    5.7639  -17.0008  -15.7332 C   0  0  0  0  0  0  0  0  0  0  0  0
    5.3807  -18.0941  -14.6854 C   0  0  0  0  0  0  0  0  0  0  0  0
    3.8675  -18.2160  -14.5289 C   0  0  0  0  0  0  0  0  0  0  0  0
    6.0589  -19.4112  -15.0103 C   0  0  0  0  0  0  0  0  0  0  0  0
    5.4704  -20.6449  -14.7508 C   0  0  0  0  0  0  0  0  0  0  0  0
    6.1204  -21.8363  -15.0493 C   0  0  0  0  0  0  0  0  0  0  0  0
    7.3737  -21.8427  -15.6127 C   0  0  0  0  0  0  0  0  0  0  0  0
    7.9731  -20.6041  -15.8845 C   0  0  0  0  0  0  0  0  0  0  0  0
    9.2134  -20.6635  -16.4520 O   0  0  0  0  0  0  0  0  0  0  0  0
    7.3270  -19.4066  -15.5859 C   0  0  0  0  0  0  0  0  0  0  0  0
    7.9968  -18.1697  -15.9038 C   0  0  0  0  0  0  0  0  0  0  0  0
    9.1747  -18.1762  -16.2804 O   0  0  0  0  0  0  0  0  0  0  0  0
    7.2616  -16.9002  -15.8129 C   0  0  0  0  0  0  0  0  0  0  0  0
    7.9072  -15.7593  -16.1691 C   0  0  0  0  0  0  0  0  0  0  0  0
    9.2019  -15.6383  -16.4884 O   0  0  0  0  0  0  0  0  0  0  0  0
    7.2716  -14.3557  -16.2381 C   0  0  0  0  0  0  0  0  0  0  0  0
    7.7304  -13.7274  -17.3936 O   0  0  0  0  0  0  0  0  0  0  0  0
    4.4686  -11.8160  -13.2893 H   0  0  0  0  0  0  0  0  0  0  0  0
    3.5800  -15.9519  -16.6765 H   0  0  0  0  0  0  0  0  0  0  0  0
    9.6061  -21.4946  -16.6338 H   0  0  0  0  0  0  0  0  0  0  0  0
    9.7543  -16.3950  -16.4999 H   0  0  0  0  0  0  0  0  0  0  0  0
    7.3413  -12.8410  -17.4559 H   0  0  0  0  0  0  0  0  0  0  0  0
    6.1361  -12.6267  -12.0246 O   0  0  0  0  0  0  0  0  0  0  0  0
    6.8690  -12.3124  -12.9527 C   0  0  0  0  0  0  0  0  0  0  0  0
    7.9969  -11.5284  -12.7495 N   0  0  0  0  0  0  0  0  0  0  0  0
    8.5726  -11.2874  -13.5109 H   0  0  0  0  0  0  0  0  0  0  0  0
    8.2208  -11.2134  -11.8440 H   0  0  0  0  0  0  0  0  0  0  0  0
    5.3337  -12.1562  -17.3268 N   0  0  0  0  0  0  0  0  0  0  0  0
    4.7607  -10.7878  -17.0007 C   0  0  0  0  0  0  0  0  0  0  0  0
    4.6944  -12.5802  -18.6473 C   0  0  0  0  0  0  0  0  0  0  0  0
  1 25  1  0  0  0
  1  2  2  0  0  0
  1  3  1  0  0  0
  3 33  1  0  0  0
  3  4  2  0  0  0
 32 33  2  0  0  0
 33 34  1  0  0  0
  4  5  1  0  0  0
  4  6  1  0  0  0
  6 37  1  0  0  0
  6  7  1  0  0  0
 37 38  1  0  0  0
 37 39  1  0  0  0
  7 25  1  0  0  0
  7  8  1  0  0  0
  8  9  1  0  0  0
  8 10  1  0  0  0
 10 22  1  0  0  0
 10 11  1  0  0  0
 11 13  1  0  0  0
 11 12  1  0  0  0
 13 19  1  0  0  0
 13 14  2  0  0  0
 14 15  1  0  0  0
 15 16  2  0  0  0
 16 17  1  0  0  0
 17 18  1  0  0  0
 17 19  2  0  0  0
 19 20  1  0  0  0
 20 21  2  0  0  0
 20 22  1  0  0  0
 22 23  2  0  0  0
 23 24  1  0  0  0
 23 25  1  0  0  0
 25 26  1  0  0  0
 34 35  1  0  0  0
 34 36  1  0  0  0
  5 27  1  0  0  0
  9 28  1  0  0  0
 18 29  1  0  0  0
 24 30  1  0  0  0
 26 31  1  0  0  0
M  END
> <minimizedAffinity>
-10.09287

$$$$
5OM2_DXT_B_501


 39 42  0  0  0  0  0  0  0  0999 V2000
    7.6654  -12.4307  -14.3605 C   0  0  0  0  0  0  0  0  0  0  0  0
    8.7806  -12.4734  -13.8646 O   0  0  0  0  0  0  0  0  0  0  0  0
    6.5480  -11.7238  -13.7852 C   0  0  0  0  0  0  0  0  0  0  0  0
    5.3815  -11.5180  -14.4229 C   0  0  0  0  0  0  0  0  0  0  0  0
    4.2286  -11.2217  -13.8014 O   0  0  0  0  0  0  0  0  0  0  0  0
    5.1515  -11.9735  -15.8379 C   0  0  0  0  0  0  0  0  0  0  0  0
    5.9222  -13.3024  -16.0646 C   0  0  0  0  0  0  0  0  0  0  0  0
    5.1973  -14.4937  -15.3794 C   0  0  0  0  0  0  0  0  0  0  0  0
    3.8710  -14.5536  -15.8236 O   0  0  0  0  0  0  0  0  0  0  0  0
    5.9112  -15.8390  -15.6673 C   0  0  0  0  0  0  0  0  0  0  0  0
    5.4073  -17.0319  -14.7936 C   0  0  0  0  0  0  0  0  0  0  0  0
    3.8884  -17.1682  -14.8519 C   0  0  0  0  0  0  0  0  0  0  0  0
    6.1394  -18.3100  -15.1552 C   0  0  0  0  0  0  0  0  0  0  0  0
    5.5377  -19.5632  -15.1002 C   0  0  0  0  0  0  0  0  0  0  0  0
    6.2368  -20.7190  -15.4270 C   0  0  0  0  0  0  0  0  0  0  0  0
    7.5533  -20.6692  -15.8172 C   0  0  0  0  0  0  0  0  0  0  0  0
    8.1673  -19.4099  -15.8825 C   0  0  0  0  0  0  0  0  0  0  0  0
    9.4723  -19.4125  -16.2837 O   0  0  0  0  0  0  0  0  0  0  0  0
    7.4721  -18.2481  -15.5544 C   0  0  0  0  0  0  0  0  0  0  0  0
    8.1620  -16.9858  -15.6560 C   0  0  0  0  0  0  0  0  0  0  0  0
    9.3793  -16.9550  -15.8720 O   0  0  0  0  0  0  0  0  0  0  0  0
    7.4049  -15.7315  -15.5374 C   0  0  0  0  0  0  0  0  0  0  0  0
    8.0770  -14.5609  -15.6896 C   0  0  0  0  0  0  0  0  0  0  0  0
    9.4009  -14.4090  -15.8209 O   0  0  0  0  0  0  0  0  0  0  0  0
    7.4380  -13.1573  -15.7021 C   0  0  0  0  0  0  0  0  0  0  0  0
    8.0370  -12.4163  -16.7182 O   0  0  0  0  0  0  0  0  0  0  0  0
    4.2382  -10.9253  -12.9126 H   0  0  0  0  0  0  0  0  0  0  0  0
    3.8574  -14.6998  -16.7824 H   0  0  0  0  0  0  0  0  0  0  0  0
    9.8963  -20.2213  -16.4937 H   0  0  0  0  0  0  0  0  0  0  0  0
    9.9597  -15.1610  -15.8344 H   0  0  0  0  0  0  0  0  0  0  0  0
    7.6482  -11.5280  -16.7429 H   0  0  0  0  0  0  0  0  0  0  0  0
    7.3560  -10.6744  -11.7768 O   0  0  0  0  0  0  0  0  0  0  0  0
    6.5794  -11.4540  -12.3120 C   0  0  0  0  0  0  0  0  0  0  0  0
    5.6427  -12.1633  -11.5721 N   0  0  0  0  0  0  0  0  0  0  0  0
    5.0276  -12.7855  -12.0235 H   0  0  0  0  0  0  0  0  0  0  0  0
    5.5938  -12.0441  -10.5960 H   0  0  0  0  0  0  0  0  0  0  0  0
    5.6325  -10.8587  -16.8135 N   0  0  0  0  0  0  0  0  0  0  0  0
    5.0134   -9.5274  -16.4243 C   0  0  0  0  0  0  0  0  0  0  0  0
    5.1681  -11.1415  -18.2406 C   0  0  0  0  0  0  0  0  0  0  0  0
  1 25  1  0  0  0
  1  2  2  0  0  0
  1  3  1  0  0  0
  3 33  1  0  0  0
  3  4  2  0  0  0
 32 33  2  0  0  0
 33 34  1  0  0  0
  4  5  1  0  0  0
  4  6  1  0  0  0
  6 37  1  0  0  0
  6  7  1  0  0  0
 37 38  1  0  0  0
 37 39  1  0  0  0
  7 25  1  0  0  0
  7  8  1  0  0  0
  8  9  1  0  0  0
  8 10  1  0  0  0
 10 22  1  0  0  0
 10 11  1  0  0  0
 11 13  1  0  0  0
 11 12  1  0  0  0
 13 19  1  0  0  0
 13 14  2  0  0  0
 14 15  1  0  0  0
 15 16  2  0  0  0
 16 17  1  0  0  0
 17 18  1  0  0  0
 17 19  2  0  0  0
 19 20  1  0  0  0
 20 21  2  0  0  0
 20 22  1  0  0  0
 22 23  2  0  0  0
 23 24  1  0  0  0
 23 25  1  0  0  0
 25 26  1  0  0  0
 34 35  1  0  0  0
 34 36  1  0  0  0
  5 27  1  0  0  0
  9 28  1  0  0  0
 18 29  1  0  0  0
 24 30  1  0  0  0
 26 31  1  0  0  0
M  END
> <minimizedAffinity>
-9.97485

$$$$
