6CVF_CDP_A_301


 32 33  0  0  0  0  0  0  0  0999 V2000
   -8.4477  -36.5761   23.2650 C   0  0  0  0  0  0  0  0  0  0  0  0
   -9.5154  -36.3661   24.3648 O   0  0  0  0  0  0  0  0  0  0  0  0
   -8.7948  -37.6376   22.6375 C   0  0  0  0  0  0  0  0  0  0  0  0
   -8.2710  -38.8009   23.3051 O   0  0  0  0  0  0  0  0  0  0  0  0
  -10.4221  -37.8132   22.8469 C   0  0  0  0  0  0  0  0  0  0  0  0
  -10.6923  -39.2359   22.6809 O   0  0  0  0  0  0  0  0  0  0  0  0
  -10.6112  -37.4460   24.0403 C   0  0  0  0  0  0  0  0  0  0  0  0
   -8.5997  -38.8256   24.2174 H   0  0  0  0  0  0  0  0  0  0  0  0
  -10.1319  -39.7444   23.2878 H   0  0  0  0  0  0  0  0  0  0  0  0
  -11.8948  -36.7320   24.1955 N   0  0  0  0  0  0  0  0  0  0  0  0
  -13.1621  -37.4966   24.4744 C   0  0  0  0  0  0  0  0  0  0  0  0
  -13.1426  -38.6598   24.5430 O   0  0  0  0  0  0  0  0  0  0  0  0
  -14.4345  -36.7533   24.6464 N   0  0  0  0  0  0  0  0  0  0  0  0
  -14.4646  -35.2999   24.5537 C   0  0  0  0  0  0  0  0  0  0  0  0
  -15.7136  -34.5950   24.7234 N   0  0  0  0  0  0  0  0  0  0  0  0
  -13.1912  -34.5324   24.2887 C   0  0  0  0  0  0  0  0  0  0  0  0
  -11.9039  -35.2688   24.1066 C   0  0  0  0  0  0  0  0  0  0  0  0
  -16.5426  -35.0971   24.8961 H   0  0  0  0  0  0  0  0  0  0  0  0
  -15.7359  -33.6124   24.6664 H   0  0  0  0  0  0  0  0  0  0  0  0
   -8.4088  -35.2986   22.3482 C   0  0  0  0  0  0  0  0  0  0  0  0
   -7.7616  -34.2322   22.9882 O   0  0  0  0  0  0  0  0  0  0  0  0
   -6.6425  -33.4731   22.0609 P   0  0  0  0  0  0  0  0  0  0  0  0
   -6.4419  -32.0561   22.5343 O   0  0  0  0  0  0  0  0  0  0  0  0
   -6.9770  -33.5184   20.5916 O   0  0  0  0  0  0  0  0  0  0  0  0
   -6.2872  -33.0577   20.0886 H   0  0  0  0  0  0  0  0  0  0  0  0
   -5.2878  -34.3706   22.3833 O   0  0  0  0  0  0  0  0  0  0  0  0
   -3.9315  -32.7877   20.9647 O   0  0  0  0  0  0  0  0  0  0  0  0
   -3.8012  -34.0641   21.7524 P   0  0  0  0  0  0  0  0  0  0  0  0
   -2.7890  -33.9551   22.8479 O   0  0  0  0  0  0  0  0  0  0  0  0
   -3.4381  -35.2200   20.8450 O   0  0  0  0  0  0  0  0  0  0  0  0
   -3.0747  -32.5626   20.5697 H   0  0  0  0  0  0  0  0  0  0  0  0
   -2.5624  -35.0646   20.4580 H   0  0  0  0  0  0  0  0  0  0  0  0
 27 28  1  0  0  0
 28 29  2  0  0  0
 28 30  1  0  0  0
 28 26  1  0  0  0
 26 22  1  0  0  0
 22 23  2  0  0  0
 22 24  1  0  0  0
 22 21  1  0  0  0
 21 20  1  0  0  0
 20  1  1  0  0  0
  1  2  1  0  0  0
  1  3  1  0  0  0
  2  7  1  0  0  0
  3  4  1  0  0  0
  3  5  1  0  0  0
  5  6  1  0  0  0
  5  7  1  0  0  0
  7 10  1  0  0  0
 10 11  1  0  0  0
 10 17  1  0  0  0
 11 12  2  0  0  0
 11 13  1  0  0  0
 13 14  2  0  0  0
 14 15  1  0  0  0
 14 16  1  0  0  0
 16 17  2  0  0  0
 27 31  1  0  0  0
 30 32  1  0  0  0
 24 25  1  0  0  0
  4  8  1  0  0  0
  6  9  1  0  0  0
 15 18  1  0  0  0
 15 19  1  0  0  0
M  END
> <minimizedAffinity>
-8.34068

$$$$
6CVF_CDP_A_301


 32 33  0  0  0  0  0  0  0  0999 V2000
   -8.6972  -36.8840   24.3723 C   0  0  0  0  0  0  0  0  0  0  0  0
   -9.9874  -36.5924   25.1748 O   0  0  0  0  0  0  0  0  0  0  0  0
   -8.9457  -37.9310   23.6773 C   0  0  0  0  0  0  0  0  0  0  0  0
   -8.6775  -39.1146   24.4521 O   0  0  0  0  0  0  0  0  0  0  0  0
  -10.5823  -38.0026   23.4784 C   0  0  0  0  0  0  0  0  0  0  0  0
  -10.8930  -39.4082   23.2492 O   0  0  0  0  0  0  0  0  0  0  0  0
  -11.0358  -37.6071   24.5887 C   0  0  0  0  0  0  0  0  0  0  0  0
   -9.2217  -39.1057   25.2551 H   0  0  0  0  0  0  0  0  0  0  0  0
  -10.5328  -39.9414   23.9750 H   0  0  0  0  0  0  0  0  0  0  0  0
  -12.2701  -36.8130   24.4232 N   0  0  0  0  0  0  0  0  0  0  0  0
  -13.6180  -37.4834   24.4669 C   0  0  0  0  0  0  0  0  0  0  0  0
  -13.6950  -38.6380   24.6050 O   0  0  0  0  0  0  0  0  0  0  0  0
  -14.8428  -36.6594   24.3185 N   0  0  0  0  0  0  0  0  0  0  0  0
  -14.7509  -35.2170   24.1380 C   0  0  0  0  0  0  0  0  0  0  0  0
  -15.9551  -34.4328   23.9945 N   0  0  0  0  0  0  0  0  0  0  0  0
  -13.3997  -34.5429   24.1089 C   0  0  0  0  0  0  0  0  0  0  0  0
  -12.1577  -35.3616   24.2503 C   0  0  0  0  0  0  0  0  0  0  0  0
  -16.8350  -34.8739   24.0137 H   0  0  0  0  0  0  0  0  0  0  0  0
  -15.8961  -33.4570   23.8776 H   0  0  0  0  0  0  0  0  0  0  0  0
   -8.3527  -35.6247   23.4949 C   0  0  0  0  0  0  0  0  0  0  0  0
   -7.9240  -35.9989   22.2135 O   0  0  0  0  0  0  0  0  0  0  0  0
   -6.2963  -35.9749   22.0173 P   0  0  0  0  0  0  0  0  0  0  0  0
   -5.9425  -36.0557   20.5541 O   0  0  0  0  0  0  0  0  0  0  0  0
   -5.5987  -37.0505   22.8105 O   0  0  0  0  0  0  0  0  0  0  0  0
   -4.6421  -36.9937   22.6607 H   0  0  0  0  0  0  0  0  0  0  0  0
   -5.9185  -34.4727   22.6048 O   0  0  0  0  0  0  0  0  0  0  0  0
   -6.9807  -33.3594   20.6075 O   0  0  0  0  0  0  0  0  0  0  0  0
   -6.0171  -33.0840   21.7309 P   0  0  0  0  0  0  0  0  0  0  0  0
   -6.4688  -31.9568   22.6038 O   0  0  0  0  0  0  0  0  0  0  0  0
   -4.6360  -32.7799   21.1910 O   0  0  0  0  0  0  0  0  0  0  0  0
   -7.0737  -32.5646   20.0591 H   0  0  0  0  0  0  0  0  0  0  0  0
   -4.6655  -31.9625   20.6695 H   0  0  0  0  0  0  0  0  0  0  0  0
 27 28  1  0  0  0
 28 29  2  0  0  0
 28 30  1  0  0  0
 28 26  1  0  0  0
 26 22  1  0  0  0
 22 23  2  0  0  0
 22 24  1  0  0  0
 22 21  1  0  0  0
 21 20  1  0  0  0
 20  1  1  0  0  0
  1  2  1  0  0  0
  1  3  1  0  0  0
  2  7  1  0  0  0
  3  4  1  0  0  0
  3  5  1  0  0  0
  5  6  1  0  0  0
  5  7  1  0  0  0
  7 10  1  0  0  0
 10 11  1  0  0  0
 10 17  1  0  0  0
 11 12  2  0  0  0
 11 13  1  0  0  0
 13 14  2  0  0  0
 14 15  1  0  0  0
 14 16  1  0  0  0
 16 17  2  0  0  0
 27 31  1  0  0  0
 30 32  1  0  0  0
 24 25  1  0  0  0
  4  8  1  0  0  0
  6  9  1  0  0  0
 15 18  1  0  0  0
 15 19  1  0  0  0
M  END
> <minimizedAffinity>
-8.26957

$$$$
6CVF_CDP_A_301


 32 33  0  0  0  0  0  0  0  0999 V2000
   -2.7343  -36.1788   20.5309 C   0  0  0  0  0  0  0  0  0  0  0  0
   -4.1664  -35.6181   20.3615 O   0  0  0  0  0  0  0  0  0  0  0  0
   -2.2188  -35.5336   21.5102 C   0  0  0  0  0  0  0  0  0  0  0  0
   -1.6337  -34.3048   21.0403 O   0  0  0  0  0  0  0  0  0  0  0  0
   -3.4671  -34.9952   22.4456 C   0  0  0  0  0  0  0  0  0  0  0  0
   -2.9581  -33.8260   23.1517 O   0  0  0  0  0  0  0  0  0  0  0  0
   -4.3534  -34.6744   21.6052 C   0  0  0  0  0  0  0  0  0  0  0  0
   -2.3143  -33.7687   20.6041 H   0  0  0  0  0  0  0  0  0  0  0  0
   -2.6064  -33.1888   22.5104 H   0  0  0  0  0  0  0  0  0  0  0  0
   -5.7115  -34.9768   22.1010 N   0  0  0  0  0  0  0  0  0  0  0  0
   -6.8967  -34.1946   21.5992 C   0  0  0  0  0  0  0  0  0  0  0  0
   -6.7465  -33.3269   20.8357 O   0  0  0  0  0  0  0  0  0  0  0  0
   -8.2523  -34.5325   22.0980 N   0  0  0  0  0  0  0  0  0  0  0  0
   -8.4436  -35.6111   23.0580 C   0  0  0  0  0  0  0  0  0  0  0  0
   -9.7715  -35.9239   23.5320 N   0  0  0  0  0  0  0  0  0  0  0  0
   -7.2569  -36.4052   23.5499 C   0  0  0  0  0  0  0  0  0  0  0  0
   -5.8850  -36.0711   23.0610 C   0  0  0  0  0  0  0  0  0  0  0  0
  -10.5439  -35.4052   23.2102 H   0  0  0  0  0  0  0  0  0  0  0  0
   -9.9043  -36.6558   24.1769 H   0  0  0  0  0  0  0  0  0  0  0  0
   -2.8256  -37.7278   20.7882 C   0  0  0  0  0  0  0  0  0  0  0  0
   -4.0083  -38.2630   20.2586 O   0  0  0  0  0  0  0  0  0  0  0  0
   -4.5983  -39.5438   21.0952 P   0  0  0  0  0  0  0  0  0  0  0  0
   -4.0968  -39.5187   22.5166 O   0  0  0  0  0  0  0  0  0  0  0  0
   -4.2958  -40.8625   20.4301 O   0  0  0  0  0  0  0  0  0  0  0  0
   -4.6644  -41.5850   20.9621 H   0  0  0  0  0  0  0  0  0  0  0  0
   -6.2250  -39.2309   21.0675 O   0  0  0  0  0  0  0  0  0  0  0  0
   -6.4698  -39.2629   18.5583 O   0  0  0  0  0  0  0  0  0  0  0  0
   -7.0228  -38.5852   19.7837 P   0  0  0  0  0  0  0  0  0  0  0  0
   -8.4958  -38.7955   19.9336 O   0  0  0  0  0  0  0  0  0  0  0  0
   -6.7267  -37.1010   19.7558 O   0  0  0  0  0  0  0  0  0  0  0  0
   -6.9118  -38.9138   17.7685 H   0  0  0  0  0  0  0  0  0  0  0  0
   -7.1867  -36.6935   19.0053 H   0  0  0  0  0  0  0  0  0  0  0  0
 27 28  1  0  0  0
 28 29  2  0  0  0
 28 30  1  0  0  0
 28 26  1  0  0  0
 26 22  1  0  0  0
 22 23  2  0  0  0
 22 24  1  0  0  0
 22 21  1  0  0  0
 21 20  1  0  0  0
 20  1  1  0  0  0
  1  2  1  0  0  0
  1  3  1  0  0  0
  2  7  1  0  0  0
  3  4  1  0  0  0
  3  5  1  0  0  0
  5  6  1  0  0  0
  5  7  1  0  0  0
  7 10  1  0  0  0
 10 11  1  0  0  0
 10 17  1  0  0  0
 11 12  2  0  0  0
 11 13  1  0  0  0
 13 14  2  0  0  0
 14 15  1  0  0  0
 14 16  1  0  0  0
 16 17  2  0  0  0
 27 31  1  0  0  0
 30 32  1  0  0  0
 24 25  1  0  0  0
  4  8  1  0  0  0
  6  9  1  0  0  0
 15 18  1  0  0  0
 15 19  1  0  0  0
M  END
> <minimizedAffinity>
-7.59776

$$$$
6CVF_CDP_A_301


 32 33  0  0  0  0  0  0  0  0999 V2000
   -3.8520  -37.2649   21.7509 C   0  0  0  0  0  0  0  0  0  0  0  0
   -5.2615  -37.5946   22.2973 O   0  0  0  0  0  0  0  0  0  0  0  0
   -3.4276  -38.3423   21.2030 C   0  0  0  0  0  0  0  0  0  0  0  0
   -2.7997  -39.1843   22.1878 O   0  0  0  0  0  0  0  0  0  0  0  0
   -4.7556  -39.2251   20.7787 C   0  0  0  0  0  0  0  0  0  0  0  0
   -4.3117  -40.6127   20.7335 O   0  0  0  0  0  0  0  0  0  0  0  0
   -5.5604  -39.0312   21.7324 C   0  0  0  0  0  0  0  0  0  0  0  0
   -3.4364  -39.3910   22.8898 H   0  0  0  0  0  0  0  0  0  0  0  0
   -3.9015  -40.8487   21.5803 H   0  0  0  0  0  0  0  0  0  0  0  0
   -6.9588  -38.9626   21.2619 N   0  0  0  0  0  0  0  0  0  0  0  0
   -7.7596  -40.2234   21.0687 C   0  0  0  0  0  0  0  0  0  0  0  0
   -7.2722  -41.2639   21.2638 O   0  0  0  0  0  0  0  0  0  0  0  0
   -9.1686  -40.1251   20.6149 N   0  0  0  0  0  0  0  0  0  0  0  0
   -9.7794  -38.8271   20.3626 C   0  0  0  0  0  0  0  0  0  0  0  0
  -11.1523  -38.7529   19.9206 N   0  0  0  0  0  0  0  0  0  0  0  0
   -8.9809  -37.5622   20.5705 C   0  0  0  0  0  0  0  0  0  0  0  0
   -7.5586  -37.6468   21.0207 C   0  0  0  0  0  0  0  0  0  0  0  0
  -11.6713  -39.5785   19.7856 H   0  0  0  0  0  0  0  0  0  0  0  0
  -11.5692  -37.8767   19.7542 H   0  0  0  0  0  0  0  0  0  0  0  0
   -3.9692  -36.0619   20.7443 C   0  0  0  0  0  0  0  0  0  0  0  0
   -3.0027  -35.0812   21.0085 O   0  0  0  0  0  0  0  0  0  0  0  0
   -3.6122  -33.6854   21.6157 P   0  0  0  0  0  0  0  0  0  0  0  0
   -3.8273  -32.6819   20.5114 O   0  0  0  0  0  0  0  0  0  0  0  0
   -2.7622  -33.1113   22.7206 O   0  0  0  0  0  0  0  0  0  0  0  0
   -3.1642  -32.2900   23.0442 H   0  0  0  0  0  0  0  0  0  0  0  0
   -5.0745  -34.1959   22.2039 O   0  0  0  0  0  0  0  0  0  0  0  0
   -6.2808  -31.9996   22.4834 O   0  0  0  0  0  0  0  0  0  0  0  0
   -6.4945  -33.4003   21.9747 P   0  0  0  0  0  0  0  0  0  0  0  0
   -6.8732  -33.4282   20.5282 O   0  0  0  0  0  0  0  0  0  0  0  0
   -7.5568  -34.1099   22.7866 O   0  0  0  0  0  0  0  0  0  0  0  0
   -7.0960  -31.4863   22.3695 H   0  0  0  0  0  0  0  0  0  0  0  0
   -8.4080  -33.6597   22.6693 H   0  0  0  0  0  0  0  0  0  0  0  0
 27 28  1  0  0  0
 28 29  2  0  0  0
 28 30  1  0  0  0
 28 26  1  0  0  0
 26 22  1  0  0  0
 22 23  2  0  0  0
 22 24  1  0  0  0
 22 21  1  0  0  0
 21 20  1  0  0  0
 20  1  1  0  0  0
  1  2  1  0  0  0
  1  3  1  0  0  0
  2  7  1  0  0  0
  3  4  1  0  0  0
  3  5  1  0  0  0
  5  6  1  0  0  0
  5  7  1  0  0  0
  7 10  1  0  0  0
 10 11  1  0  0  0
 10 17  1  0  0  0
 11 12  2  0  0  0
 11 13  1  0  0  0
 13 14  2  0  0  0
 14 15  1  0  0  0
 14 16  1  0  0  0
 16 17  2  0  0  0
 27 31  1  0  0  0
 30 32  1  0  0  0
 24 25  1  0  0  0
  4  8  1  0  0  0
  6  9  1  0  0  0
 15 18  1  0  0  0
 15 19  1  0  0  0
M  END
> <minimizedAffinity>
-7.53273

$$$$
6CVF_CDP_A_301


 32 33  0  0  0  0  0  0  0  0999 V2000
   -5.7013  -34.4184   21.3837 C   0  0  0  0  0  0  0  0  0  0  0  0
   -5.5986  -35.7177   20.5501 O   0  0  0  0  0  0  0  0  0  0  0  0
   -6.7932  -34.5126   22.0468 C   0  0  0  0  0  0  0  0  0  0  0  0
   -7.8969  -34.0375   21.2535 O   0  0  0  0  0  0  0  0  0  0  0  0
   -7.1318  -36.1208   22.1955 C   0  0  0  0  0  0  0  0  0  0  0  0
   -8.5748  -36.2068   22.3832 O   0  0  0  0  0  0  0  0  0  0  0  0
   -6.7840  -36.6036   21.0816 C   0  0  0  0  0  0  0  0  0  0  0  0
   -7.9534  -34.5553   20.4352 H   0  0  0  0  0  0  0  0  0  0  0  0
   -9.0233  -35.7469   21.6564 H   0  0  0  0  0  0  0  0  0  0  0  0
   -6.2030  -37.9536   21.2286 N   0  0  0  0  0  0  0  0  0  0  0  0
   -7.0465  -39.1764   20.9805 C   0  0  0  0  0  0  0  0  0  0  0  0
   -8.1714  -39.0656   20.6967 O   0  0  0  0  0  0  0  0  0  0  0  0
   -6.4326  -40.5202   21.1150 N   0  0  0  0  0  0  0  0  0  0  0  0
   -5.0290  -40.6633   21.4770 C   0  0  0  0  0  0  0  0  0  0  0  0
   -4.4505  -41.9805   21.6037 N   0  0  0  0  0  0  0  0  0  0  0  0
   -4.1795  -39.4368   21.7114 C   0  0  0  0  0  0  0  0  0  0  0  0
   -4.7867  -38.0773   21.5860 C   0  0  0  0  0  0  0  0  0  0  0  0
   -5.0058  -42.7788   21.4506 H   0  0  0  0  0  0  0  0  0  0  0  0
   -3.5008  -42.0800   21.8432 H   0  0  0  0  0  0  0  0  0  0  0  0
   -4.4275  -34.3038   22.2994 C   0  0  0  0  0  0  0  0  0  0  0  0
   -3.6924  -33.1464   22.0064 O   0  0  0  0  0  0  0  0  0  0  0  0
   -2.4995  -33.3709   20.9041 P   0  0  0  0  0  0  0  0  0  0  0  0
   -1.3238  -32.4797   21.2138 O   0  0  0  0  0  0  0  0  0  0  0  0
   -2.9742  -33.1796   19.4860 O   0  0  0  0  0  0  0  0  0  0  0  0
   -2.2343  -33.3228   18.8753 H   0  0  0  0  0  0  0  0  0  0  0  0
   -2.0934  -34.9532   21.1796 O   0  0  0  0  0  0  0  0  0  0  0  0
   -3.1502  -36.4815   19.4753 O   0  0  0  0  0  0  0  0  0  0  0  0
   -1.8031  -36.0554   19.9952 P   0  0  0  0  0  0  0  0  0  0  0  0
   -0.9470  -35.4515   18.9280 O   0  0  0  0  0  0  0  0  0  0  0  0
   -1.0753  -37.2252   20.6223 O   0  0  0  0  0  0  0  0  0  0  0  0
   -3.0320  -37.1362   18.7694 H   0  0  0  0  0  0  0  0  0  0  0  0
   -0.8908  -37.8928   19.9432 H   0  0  0  0  0  0  0  0  0  0  0  0
 27 28  1  0  0  0
 28 29  2  0  0  0
 28 30  1  0  0  0
 28 26  1  0  0  0
 26 22  1  0  0  0
 22 23  2  0  0  0
 22 24  1  0  0  0
 22 21  1  0  0  0
 21 20  1  0  0  0
 20  1  1  0  0  0
  1  2  1  0  0  0
  1  3  1  0  0  0
  2  7  1  0  0  0
  3  4  1  0  0  0
  3  5  1  0  0  0
  5  6  1  0  0  0
  5  7  1  0  0  0
  7 10  1  0  0  0
 10 11  1  0  0  0
 10 17  1  0  0  0
 11 12  2  0  0  0
 11 13  1  0  0  0
 13 14  2  0  0  0
 14 15  1  0  0  0
 14 16  1  0  0  0
 16 17  2  0  0  0
 27 31  1  0  0  0
 30 32  1  0  0  0
 24 25  1  0  0  0
  4  8  1  0  0  0
  6  9  1  0  0  0
 15 18  1  0  0  0
 15 19  1  0  0  0
M  END
> <minimizedAffinity>
-7.48302

$$$$
6CVF_CDP_A_301


 32 33  0  0  0  0  0  0  0  0999 V2000
   -6.3147  -37.6041   20.3881 C   0  0  0  0  0  0  0  0  0  0  0  0
   -5.1952  -36.6688   20.9036 O   0  0  0  0  0  0  0  0  0  0  0  0
   -5.8604  -38.7955   20.5108 C   0  0  0  0  0  0  0  0  0  0  0  0
   -5.0886  -39.1532   19.3491 O   0  0  0  0  0  0  0  0  0  0  0  0
   -4.7146  -38.7566   21.6977 C   0  0  0  0  0  0  0  0  0  0  0  0
   -3.8247  -39.8789   21.4269 O   0  0  0  0  0  0  0  0  0  0  0  0
   -4.1305  -37.6524   21.5129 C   0  0  0  0  0  0  0  0  0  0  0  0
   -4.3590  -38.5235   19.2393 H   0  0  0  0  0  0  0  0  0  0  0  0
   -3.4924  -39.8159   20.5178 H   0  0  0  0  0  0  0  0  0  0  0  0
   -3.7316  -37.0250   22.7892 N   0  0  0  0  0  0  0  0  0  0  0  0
   -2.9397  -35.7438   22.7927 C   0  0  0  0  0  0  0  0  0  0  0  0
   -2.6133  -35.2529   21.7874 O   0  0  0  0  0  0  0  0  0  0  0  0
   -2.5697  -35.1237   24.0887 N   0  0  0  0  0  0  0  0  0  0  0  0
   -2.9692  -35.7380   25.3475 C   0  0  0  0  0  0  0  0  0  0  0  0
   -2.5983  -35.1190   26.5985 N   0  0  0  0  0  0  0  0  0  0  0  0
   -3.7758  -37.0148   25.3437 C   0  0  0  0  0  0  0  0  0  0  0  0
   -4.1495  -37.6538   24.0458 C   0  0  0  0  0  0  0  0  0  0  0  0
   -2.0724  -34.2867   26.5990 H   0  0  0  0  0  0  0  0  0  0  0  0
   -2.8713  -35.5293   27.4508 H   0  0  0  0  0  0  0  0  0  0  0  0
   -7.6166  -37.3468   21.2326 C   0  0  0  0  0  0  0  0  0  0  0  0
   -7.3156  -36.7382   22.4593 O   0  0  0  0  0  0  0  0  0  0  0  0
   -7.8037  -35.1769   22.5709 P   0  0  0  0  0  0  0  0  0  0  0  0
   -8.5651  -34.9550   23.8530 O   0  0  0  0  0  0  0  0  0  0  0  0
   -8.6037  -34.7304   21.3736 O   0  0  0  0  0  0  0  0  0  0  0  0
   -8.8674  -33.8040   21.4882 H   0  0  0  0  0  0  0  0  0  0  0  0
   -6.3505  -34.3840   22.6357 O   0  0  0  0  0  0  0  0  0  0  0  0
   -4.5171  -32.8573   21.8201 O   0  0  0  0  0  0  0  0  0  0  0  0
   -6.0165  -32.9934   21.8253 P   0  0  0  0  0  0  0  0  0  0  0  0
   -6.5867  -33.0522   20.4441 O   0  0  0  0  0  0  0  0  0  0  0  0
   -6.6564  -31.8516   22.5857 O   0  0  0  0  0  0  0  0  0  0  0  0
   -4.2678  -32.0462   21.3502 H   0  0  0  0  0  0  0  0  0  0  0  0
   -6.4743  -31.0161   22.1278 H   0  0  0  0  0  0  0  0  0  0  0  0
 27 28  1  0  0  0
 28 29  2  0  0  0
 28 30  1  0  0  0
 28 26  1  0  0  0
 26 22  1  0  0  0
 22 23  2  0  0  0
 22 24  1  0  0  0
 22 21  1  0  0  0
 21 20  1  0  0  0
 20  1  1  0  0  0
  1  2  1  0  0  0
  1  3  1  0  0  0
  2  7  1  0  0  0
  3  4  1  0  0  0
  3  5  1  0  0  0
  5  6  1  0  0  0
  5  7  1  0  0  0
  7 10  1  0  0  0
 10 11  1  0  0  0
 10 17  1  0  0  0
 11 12  2  0  0  0
 11 13  1  0  0  0
 13 14  2  0  0  0
 14 15  1  0  0  0
 14 16  1  0  0  0
 16 17  2  0  0  0
 27 31  1  0  0  0
 30 32  1  0  0  0
 24 25  1  0  0  0
  4  8  1  0  0  0
  6  9  1  0  0  0
 15 18  1  0  0  0
 15 19  1  0  0  0
M  END
> <minimizedAffinity>
-7.27389

$$$$
6CVF_CDP_A_301


 32 33  0  0  0  0  0  0  0  0999 V2000
   -8.3289  -35.4746   24.5523 C   0  0  0  0  0  0  0  0  0  0  0  0
   -9.5567  -34.7441   25.1460 O   0  0  0  0  0  0  0  0  0  0  0  0
   -8.3813  -36.6722   25.0039 C   0  0  0  0  0  0  0  0  0  0  0  0
   -7.7439  -36.7436   26.2930 O   0  0  0  0  0  0  0  0  0  0  0  0
   -9.9596  -36.9817   25.3728 C   0  0  0  0  0  0  0  0  0  0  0  0
   -9.9320  -38.0258   26.3896 O   0  0  0  0  0  0  0  0  0  0  0  0
  -10.3752  -35.8882   25.8486 C   0  0  0  0  0  0  0  0  0  0  0  0
   -8.1832  -36.1327   26.9052 H   0  0  0  0  0  0  0  0  0  0  0  0
   -9.3739  -37.7412   27.1302 H   0  0  0  0  0  0  0  0  0  0  0  0
  -11.7792  -35.6267   25.4719 N   0  0  0  0  0  0  0  0  0  0  0  0
  -12.9057  -36.1431   26.3278 C   0  0  0  0  0  0  0  0  0  0  0  0
  -12.6772  -36.7757   27.2795 O   0  0  0  0  0  0  0  0  0  0  0  0
  -14.3064  -35.8487   25.9377 N   0  0  0  0  0  0  0  0  0  0  0  0
  -14.5967  -35.0649   24.7448 C   0  0  0  0  0  0  0  0  0  0  0  0
  -15.9672  -34.7899   24.3818 N   0  0  0  0  0  0  0  0  0  0  0  0
  -13.4667  -34.5347   23.8947 C   0  0  0  0  0  0  0  0  0  0  0  0
  -12.0513  -34.8294   24.2721 C   0  0  0  0  0  0  0  0  0  0  0  0
  -16.7026  -35.1364   24.9372 H   0  0  0  0  0  0  0  0  0  0  0  0
  -16.1662  -34.2561   23.5789 H   0  0  0  0  0  0  0  0  0  0  0  0
   -8.4066  -35.3996   22.9831 C   0  0  0  0  0  0  0  0  0  0  0  0
   -7.3547  -36.1093   22.3868 O   0  0  0  0  0  0  0  0  0  0  0  0
   -6.3702  -35.1896   21.4523 P   0  0  0  0  0  0  0  0  0  0  0  0
   -7.1054  -33.9707   20.9559 O   0  0  0  0  0  0  0  0  0  0  0  0
   -5.7599  -35.9642   20.3120 O   0  0  0  0  0  0  0  0  0  0  0  0
   -5.1887  -35.3776   19.7918 H   0  0  0  0  0  0  0  0  0  0  0  0
   -5.2092  -34.7394   22.5451 O   0  0  0  0  0  0  0  0  0  0  0  0
   -2.8026  -34.4747   23.2489 O   0  0  0  0  0  0  0  0  0  0  0  0
   -3.7483  -34.1058   22.1371 P   0  0  0  0  0  0  0  0  0  0  0  0
   -3.3058  -34.6418   20.8130 O   0  0  0  0  0  0  0  0  0  0  0  0
   -3.9072  -32.6033   22.0441 O   0  0  0  0  0  0  0  0  0  0  0  0
   -1.9206  -34.1212   23.0537 H   0  0  0  0  0  0  0  0  0  0  0  0
   -3.0571  -32.2026   21.8039 H   0  0  0  0  0  0  0  0  0  0  0  0
 27 28  1  0  0  0
 28 29  2  0  0  0
 28 30  1  0  0  0
 28 26  1  0  0  0
 26 22  1  0  0  0
 22 23  2  0  0  0
 22 24  1  0  0  0
 22 21  1  0  0  0
 21 20  1  0  0  0
 20  1  1  0  0  0
  1  2  1  0  0  0
  1  3  1  0  0  0
  2  7  1  0  0  0
  3  4  1  0  0  0
  3  5  1  0  0  0
  5  6  1  0  0  0
  5  7  1  0  0  0
  7 10  1  0  0  0
 10 11  1  0  0  0
 10 17  1  0  0  0
 11 12  2  0  0  0
 11 13  1  0  0  0
 13 14  2  0  0  0
 14 15  1  0  0  0
 14 16  1  0  0  0
 16 17  2  0  0  0
 27 31  1  0  0  0
 30 32  1  0  0  0
 24 25  1  0  0  0
  4  8  1  0  0  0
  6  9  1  0  0  0
 15 18  1  0  0  0
 15 19  1  0  0  0
M  END
> <minimizedAffinity>
-7.26693

$$$$
6CVF_CDP_A_301


 32 33  0  0  0  0  0  0  0  0999 V2000
   -8.2090  -37.3189   23.1923 C   0  0  0  0  0  0  0  0  0  0  0  0
   -7.2139  -36.2164   23.6258 O   0  0  0  0  0  0  0  0  0  0  0  0
   -8.9510  -36.7876   22.2933 C   0  0  0  0  0  0  0  0  0  0  0  0
  -10.0545  -36.0960   22.9075 O   0  0  0  0  0  0  0  0  0  0  0  0
   -8.0886  -35.5510   21.6227 C   0  0  0  0  0  0  0  0  0  0  0  0
   -9.0767  -34.6232   21.0865 O   0  0  0  0  0  0  0  0  0  0  0  0
   -7.4729  -35.0493   22.6046 C   0  0  0  0  0  0  0  0  0  0  0  0
   -9.7149  -35.4158   23.5099 H   0  0  0  0  0  0  0  0  0  0  0  0
   -9.6983  -34.3721   21.7876 H   0  0  0  0  0  0  0  0  0  0  0  0
   -6.1245  -34.5823   22.2232 N   0  0  0  0  0  0  0  0  0  0  0  0
   -5.8187  -33.1089   22.1604 C   0  0  0  0  0  0  0  0  0  0  0  0
   -6.6523  -32.3265   22.3865 O   0  0  0  0  0  0  0  0  0  0  0  0
   -4.4505  -32.6673   21.7946 N   0  0  0  0  0  0  0  0  0  0  0  0
   -3.4078  -33.6418   21.5038 C   0  0  0  0  0  0  0  0  0  0  0  0
   -2.0823  -33.1914   21.1488 N   0  0  0  0  0  0  0  0  0  0  0  0
   -3.7105  -35.1194   21.5811 C   0  0  0  0  0  0  0  0  0  0  0  0
   -5.0861  -35.5782   21.9416 C   0  0  0  0  0  0  0  0  0  0  0  0
   -1.8868  -32.2278   21.0988 H   0  0  0  0  0  0  0  0  0  0  0  0
   -1.3743  -33.8479   20.9567 H   0  0  0  0  0  0  0  0  0  0  0  0
   -7.3935  -38.5585   22.6702 C   0  0  0  0  0  0  0  0  0  0  0  0
   -7.8976  -39.0206   21.4462 O   0  0  0  0  0  0  0  0  0  0  0  0
   -6.8053  -39.0080   20.2234 P   0  0  0  0  0  0  0  0  0  0  0  0
   -5.4055  -38.8922   20.7709 O   0  0  0  0  0  0  0  0  0  0  0  0
   -7.0860  -37.9339   19.2036 O   0  0  0  0  0  0  0  0  0  0  0  0
   -6.4146  -37.9685   18.5044 H   0  0  0  0  0  0  0  0  0  0  0  0
   -7.0301  -40.5133   19.5689 O   0  0  0  0  0  0  0  0  0  0  0  0
   -5.4659  -40.0058   17.6576 O   0  0  0  0  0  0  0  0  0  0  0  0
   -6.0811  -41.1649   18.3956 P   0  0  0  0  0  0  0  0  0  0  0  0
   -5.0513  -42.0619   19.0048 O   0  0  0  0  0  0  0  0  0  0  0  0
   -6.9727  -41.9732   17.4774 O   0  0  0  0  0  0  0  0  0  0  0  0
   -4.8929  -40.3404   16.9501 H   0  0  0  0  0  0  0  0  0  0  0  0
   -6.4366  -42.3704   16.7734 H   0  0  0  0  0  0  0  0  0  0  0  0
 27 28  1  0  0  0
 28 29  2  0  0  0
 28 30  1  0  0  0
 28 26  1  0  0  0
 26 22  1  0  0  0
 22 23  2  0  0  0
 22 24  1  0  0  0
 22 21  1  0  0  0
 21 20  1  0  0  0
 20  1  1  0  0  0
  1  2  1  0  0  0
  1  3  1  0  0  0
  2  7  1  0  0  0
  3  4  1  0  0  0
  3  5  1  0  0  0
  5  6  1  0  0  0
  5  7  1  0  0  0
  7 10  1  0  0  0
 10 11  1  0  0  0
 10 17  1  0  0  0
 11 12  2  0  0  0
 11 13  1  0  0  0
 13 14  2  0  0  0
 14 15  1  0  0  0
 14 16  1  0  0  0
 16 17  2  0  0  0
 27 31  1  0  0  0
 30 32  1  0  0  0
 24 25  1  0  0  0
  4  8  1  0  0  0
  6  9  1  0  0  0
 15 18  1  0  0  0
 15 19  1  0  0  0
M  END
> <minimizedAffinity>
-7.14623

$$$$
6CVF_CDP_A_301


 32 33  0  0  0  0  0  0  0  0999 V2000
   -8.6681  -36.0589   25.4921 C   0  0  0  0  0  0  0  0  0  0  0  0
   -9.8757  -35.1309   25.7643 O   0  0  0  0  0  0  0  0  0  0  0  0
   -8.9558  -37.1793   26.0424 C   0  0  0  0  0  0  0  0  0  0  0  0
   -8.5724  -37.1622   27.4302 O   0  0  0  0  0  0  0  0  0  0  0  0
  -10.6013  -37.2661   26.1319 C   0  0  0  0  0  0  0  0  0  0  0  0
  -10.8913  -38.1748   27.2341 O   0  0  0  0  0  0  0  0  0  0  0  0
  -10.9482  -36.0836   26.4081 C   0  0  0  0  0  0  0  0  0  0  0  0
   -9.0298  -36.4365   27.8831 H   0  0  0  0  0  0  0  0  0  0  0  0
  -10.4413  -37.8649   28.0356 H   0  0  0  0  0  0  0  0  0  0  0  0
  -12.2167  -35.7175   25.7458 N   0  0  0  0  0  0  0  0  0  0  0  0
  -13.5356  -36.1132   26.3558 C   0  0  0  0  0  0  0  0  0  0  0  0
  -13.5635  -36.7346   27.3413 O   0  0  0  0  0  0  0  0  0  0  0  0
  -14.7952  -35.7150   25.6807 N   0  0  0  0  0  0  0  0  0  0  0  0
  -14.7648  -34.9449   24.4447 C   0  0  0  0  0  0  0  0  0  0  0  0
  -16.0022  -34.5678   23.8026 N   0  0  0  0  0  0  0  0  0  0  0  0
  -13.4424  -34.5356   23.8409 C   0  0  0  0  0  0  0  0  0  0  0  0
  -12.1659  -34.9358   24.5066 C   0  0  0  0  0  0  0  0  0  0  0  0
  -16.8633  -34.8356   24.1976 H   0  0  0  0  0  0  0  0  0  0  0  0
  -15.9846  -34.0429   22.9698 H   0  0  0  0  0  0  0  0  0  0  0  0
   -8.4555  -36.1682   23.9374 C   0  0  0  0  0  0  0  0  0  0  0  0
   -8.2613  -34.9053   23.3602 O   0  0  0  0  0  0  0  0  0  0  0  0
   -8.1419  -34.9266   21.7250 P   0  0  0  0  0  0  0  0  0  0  0  0
   -7.3226  -33.7566   21.2430 O   0  0  0  0  0  0  0  0  0  0  0  0
   -9.4861  -34.9726   21.0440 O   0  0  0  0  0  0  0  0  0  0  0  0
   -9.3611  -34.9837   20.0822 H   0  0  0  0  0  0  0  0  0  0  0  0
   -7.3085  -36.3368   21.4765 O   0  0  0  0  0  0  0  0  0  0  0  0
   -5.1405  -35.5675   22.5084 O   0  0  0  0  0  0  0  0  0  0  0  0
   -5.6699  -36.4447   21.4053 P   0  0  0  0  0  0  0  0  0  0  0  0
   -5.2403  -37.8692   21.5560 O   0  0  0  0  0  0  0  0  0  0  0  0
   -5.2322  -35.9277   20.0517 O   0  0  0  0  0  0  0  0  0  0  0  0
   -4.1709  -35.5975   22.5082 H   0  0  0  0  0  0  0  0  0  0  0  0
   -4.2661  -35.9802   19.9824 H   0  0  0  0  0  0  0  0  0  0  0  0
 27 28  1  0  0  0
 28 29  2  0  0  0
 28 30  1  0  0  0
 28 26  1  0  0  0
 26 22  1  0  0  0
 22 23  2  0  0  0
 22 24  1  0  0  0
 22 21  1  0  0  0
 21 20  1  0  0  0
 20  1  1  0  0  0
  1  2  1  0  0  0
  1  3  1  0  0  0
  2  7  1  0  0  0
  3  4  1  0  0  0
  3  5  1  0  0  0
  5  6  1  0  0  0
  5  7  1  0  0  0
  7 10  1  0  0  0
 10 11  1  0  0  0
 10 17  1  0  0  0
 11 12  2  0  0  0
 11 13  1  0  0  0
 13 14  2  0  0  0
 14 15  1  0  0  0
 14 16  1  0  0  0
 16 17  2  0  0  0
 27 31  1  0  0  0
 30 32  1  0  0  0
 24 25  1  0  0  0
  4  8  1  0  0  0
  6  9  1  0  0  0
 15 18  1  0  0  0
 15 19  1  0  0  0
M  END
> <minimizedAffinity>
-7.02956

$$$$
6CVF_CDP_A_301


 32 33  0  0  0  0  0  0  0  0999 V2000
   -5.7751  -35.1137   21.7086 C   0  0  0  0  0  0  0  0  0  0  0  0
   -6.0576  -36.3199   20.7818 O   0  0  0  0  0  0  0  0  0  0  0  0
   -6.9223  -34.6475   22.0367 C   0  0  0  0  0  0  0  0  0  0  0  0
   -7.3818  -33.7161   21.0394 O   0  0  0  0  0  0  0  0  0  0  0  0
   -8.0063  -35.8832   21.8919 C   0  0  0  0  0  0  0  0  0  0  0  0
   -9.3013  -35.2512   21.6722 O   0  0  0  0  0  0  0  0  0  0  0  0
   -7.6172  -36.5028   20.8626 C   0  0  0  0  0  0  0  0  0  0  0  0
   -7.4323  -34.1620   20.1794 H   0  0  0  0  0  0  0  0  0  0  0  0
   -9.2432  -34.6502   20.9131 H   0  0  0  0  0  0  0  0  0  0  0  0
   -7.8146  -37.9606   20.9951 N   0  0  0  0  0  0  0  0  0  0  0  0
   -7.6929  -38.8577   19.7915 C   0  0  0  0  0  0  0  0  0  0  0  0
   -7.4683  -38.4040   18.7418 O   0  0  0  0  0  0  0  0  0  0  0  0
   -7.8756  -40.3207   19.9562 N   0  0  0  0  0  0  0  0  0  0  0  0
   -8.1640  -40.8911   21.2651 C   0  0  0  0  0  0  0  0  0  0  0  0
   -8.3393  -42.3178   21.4042 N   0  0  0  0  0  0  0  0  0  0  0  0
   -8.2715  -39.9930   22.4745 C   0  0  0  0  0  0  0  0  0  0  0  0
   -8.0965  -38.5169   22.3219 C   0  0  0  0  0  0  0  0  0  0  0  0
   -8.2689  -42.9017   20.6146 H   0  0  0  0  0  0  0  0  0  0  0  0
   -8.5293  -42.7066   22.2885 H   0  0  0  0  0  0  0  0  0  0  0  0
   -4.9319  -35.6098   22.9403 C   0  0  0  0  0  0  0  0  0  0  0  0
   -3.7588  -34.8568   23.0906 O   0  0  0  0  0  0  0  0  0  0  0  0
   -2.4580  -35.4793   22.3103 P   0  0  0  0  0  0  0  0  0  0  0  0
   -2.5860  -36.9763   22.1876 O   0  0  0  0  0  0  0  0  0  0  0  0
   -1.1519  -35.0915   22.9557 O   0  0  0  0  0  0  0  0  0  0  0  0
   -0.4168  -35.4831   22.4586 H   0  0  0  0  0  0  0  0  0  0  0  0
   -2.6065  -34.7782   20.8166 O   0  0  0  0  0  0  0  0  0  0  0  0
   -3.1916  -32.4478   21.5811 O   0  0  0  0  0  0  0  0  0  0  0  0
   -2.4055  -33.1736   20.5218 P   0  0  0  0  0  0  0  0  0  0  0  0
   -0.9522  -32.8223   20.5516 O   0  0  0  0  0  0  0  0  0  0  0  0
   -2.9651  -32.8841   19.1454 O   0  0  0  0  0  0  0  0  0  0  0  0
   -3.1043  -31.4907   21.4496 H   0  0  0  0  0  0  0  0  0  0  0  0
   -2.8591  -31.9409   18.9452 H   0  0  0  0  0  0  0  0  0  0  0  0
 27 28  1  0  0  0
 28 29  2  0  0  0
 28 30  1  0  0  0
 28 26  1  0  0  0
 26 22  1  0  0  0
 22 23  2  0  0  0
 22 24  1  0  0  0
 22 21  1  0  0  0
 21 20  1  0  0  0
 20  1  1  0  0  0
  1  2  1  0  0  0
  1  3  1  0  0  0
  2  7  1  0  0  0
  3  4  1  0  0  0
  3  5  1  0  0  0
  5  6  1  0  0  0
  5  7  1  0  0  0
  7 10  1  0  0  0
 10 11  1  0  0  0
 10 17  1  0  0  0
 11 12  2  0  0  0
 11 13  1  0  0  0
 13 14  2  0  0  0
 14 15  1  0  0  0
 14 16  1  0  0  0
 16 17  2  0  0  0
 27 31  1  0  0  0
 30 32  1  0  0  0
 24 25  1  0  0  0
  4  8  1  0  0  0
  6  9  1  0  0  0
 15 18  1  0  0  0
 15 19  1  0  0  0
M  END
> <minimizedAffinity>
-6.87292

$$$$
