2C1P_FNZ_B_1215


 25 27  0  0  0  0  0  0  0  0999 V2000
   54.4517   39.7417   64.7964 C   0  0  0  0  0  0  0  0  0  0  0  0
   55.1269   40.9223   65.4994 C   0  0  0  0  0  0  0  0  0  0  0  0
   54.5366   42.1998   65.5489 C   0  0  0  0  0  0  0  0  0  0  0  0
   55.1400   43.2724   66.2465 C   0  0  0  0  0  0  0  0  0  0  0  0
   56.3641   43.0387   66.9092 C   0  0  0  0  0  0  0  0  0  0  0  0
   56.9903   41.7808   66.8473 C   0  0  0  0  0  0  0  0  0  0  0  0
   56.3582   40.7458   66.1379 C   0  0  0  0  0  0  0  0  0  0  0  0
   56.9902   44.0953   67.6659 C   0  0  0  0  0  0  0  0  0  0  0  0
   57.4818   44.9286   68.2699 N   0  0  0  0  0  0  0  0  0  0  0  0
   53.6956   36.6944   66.3225 C   0  0  0  0  0  0  0  0  0  0  0  0
   54.0590   38.5815   67.0781 C   0  0  0  0  0  0  0  0  0  0  0  0
   54.1507   38.6246   65.7233 N   0  0  0  0  0  0  0  0  0  0  0  0
   53.9143   37.3818   65.2289 N   0  0  0  0  0  0  0  0  0  0  0  0
   53.7509   37.3700   67.4561 N   0  0  0  0  0  0  0  0  0  0  0  0
   55.2554   39.1756   63.6134 C   0  0  0  0  0  0  0  0  0  0  0  0
   56.2982   38.3217   64.0996 O   0  0  0  0  0  0  0  0  0  0  0  0
   56.9010   38.8347   64.6604 H   0  0  0  0  0  0  0  0  0  0  0  0
   55.8663   40.3009   62.7736 C   0  0  0  0  0  0  0  0  0  0  0  0
   54.8053   40.9713   61.9374 C   0  0  0  0  0  0  0  0  0  0  0  0
   54.4897   42.3239   62.1261 C   0  0  0  0  0  0  0  0  0  0  0  0
   53.4733   42.9522   61.3772 C   0  0  0  0  0  0  0  0  0  0  0  0
   52.7896   42.2111   60.4252 C   0  0  0  0  0  0  0  0  0  0  0  0
   53.0909   40.8706   60.1990 C   0  0  0  0  0  0  0  0  0  0  0  0
   54.0974   40.2562   60.9670 C   0  0  0  0  0  0  0  0  0  0  0  0
   51.7988   42.8089   59.6921 F   0  0  0  0  0  0  0  0  0  0  0  0
  1 15  1  0  0  0
  1  2  1  0  0  0
  1 12  1  0  0  0
 15 18  1  0  0  0
 15 16  1  0  0  0
 18 19  1  0  0  0
 19 20  2  0  0  0
 19 24  1  0  0  0
 20 21  1  0  0  0
 21 22  2  0  0  0
 22 23  1  0  0  0
 22 25  1  0  0  0
 23 24  2  0  0  0
  2  3  2  0  0  0
  2  7  1  0  0  0
  3  4  1  0  0  0
  4  5  2  0  0  0
  5  6  1  0  0  0
  5  8  1  0  0  0
  6  7  2  0  0  0
  8  9  3  0  0  0
 10 13  2  0  0  0
 10 14  1  0  0  0
 11 12  1  0  0  0
 11 14  2  0  0  0
 12 13  1  0  0  0
 16 17  1  0  0  0
M  END
> <minimizedAffinity>
-8.89701

$$$$
2C1P_FNZ_B_1215


 25 27  0  0  0  0  0  0  0  0999 V2000
   54.1357   43.1253   66.1280 C   0  0  0  0  0  0  0  0  0  0  0  0
   55.5212   42.8477   66.7173 C   0  0  0  0  0  0  0  0  0  0  0  0
   56.3801   43.8849   67.1286 C   0  0  0  0  0  0  0  0  0  0  0  0
   57.6365   43.6200   67.7222 C   0  0  0  0  0  0  0  0  0  0  0  0
   58.0232   42.2749   67.9044 C   0  0  0  0  0  0  0  0  0  0  0  0
   57.1978   41.2212   67.4723 C   0  0  0  0  0  0  0  0  0  0  0  0
   55.9609   41.5307   66.8820 C   0  0  0  0  0  0  0  0  0  0  0  0
   59.2782   41.9632   68.5437 C   0  0  0  0  0  0  0  0  0  0  0  0
   60.2733   41.7225   69.0466 N   0  0  0  0  0  0  0  0  0  0  0  0
   51.1220   42.9493   67.8812 C   0  0  0  0  0  0  0  0  0  0  0  0
   53.0832   42.6257   68.4409 C   0  0  0  0  0  0  0  0  0  0  0  0
   53.0513   42.9684   67.1265 N   0  0  0  0  0  0  0  0  0  0  0  0
   51.7602   43.1778   66.7602 N   0  0  0  0  0  0  0  0  0  0  0  0
   51.8698   42.6342   68.9235 N   0  0  0  0  0  0  0  0  0  0  0  0
   53.7892   42.2549   64.9080 C   0  0  0  0  0  0  0  0  0  0  0  0
   53.4104   40.9425   65.3402 O   0  0  0  0  0  0  0  0  0  0  0  0
   54.1526   40.5295   65.8086 H   0  0  0  0  0  0  0  0  0  0  0  0
   54.9779   42.1535   63.9481 C   0  0  0  0  0  0  0  0  0  0  0  0
   54.5362   41.5977   62.6175 C   0  0  0  0  0  0  0  0  0  0  0  0
   53.8659   42.4050   61.6882 C   0  0  0  0  0  0  0  0  0  0  0  0
   53.4141   41.8871   60.4568 C   0  0  0  0  0  0  0  0  0  0  0  0
   53.6581   40.5542   60.1626 C   0  0  0  0  0  0  0  0  0  0  0  0
   54.3379   39.7294   61.0550 C   0  0  0  0  0  0  0  0  0  0  0  0
   54.7674   40.2595   62.2858 C   0  0  0  0  0  0  0  0  0  0  0  0
   53.2230   40.0382   58.9706 F   0  0  0  0  0  0  0  0  0  0  0  0
  1 15  1  0  0  0
  1  2  1  0  0  0
  1 12  1  0  0  0
 15 18  1  0  0  0
 15 16  1  0  0  0
 18 19  1  0  0  0
 19 20  2  0  0  0
 19 24  1  0  0  0
 20 21  1  0  0  0
 21 22  2  0  0  0
 22 23  1  0  0  0
 22 25  1  0  0  0
 23 24  2  0  0  0
  2  3  2  0  0  0
  2  7  1  0  0  0
  3  4  1  0  0  0
  4  5  2  0  0  0
  5  6  1  0  0  0
  5  8  1  0  0  0
  6  7  2  0  0  0
  8  9  3  0  0  0
 10 13  2  0  0  0
 10 14  1  0  0  0
 11 12  1  0  0  0
 11 14  2  0  0  0
 12 13  1  0  0  0
 16 17  1  0  0  0
M  END
> <minimizedAffinity>
-8.50635

$$$$
2C1P_FNZ_B_1215


 25 27  0  0  0  0  0  0  0  0999 V2000
   54.9445   41.1305   65.9079 C   0  0  0  0  0  0  0  0  0  0  0  0
   54.0267   40.2923   66.8017 C   0  0  0  0  0  0  0  0  0  0  0  0
   53.3118   40.8556   67.8762 C   0  0  0  0  0  0  0  0  0  0  0  0
   52.4238   40.0865   68.6643 C   0  0  0  0  0  0  0  0  0  0  0  0
   52.2574   38.7206   68.3499 C   0  0  0  0  0  0  0  0  0  0  0  0
   52.9847   38.1268   67.3027 C   0  0  0  0  0  0  0  0  0  0  0  0
   53.8604   38.9271   66.5498 C   0  0  0  0  0  0  0  0  0  0  0  0
   51.3300   37.9126   69.1035 C   0  0  0  0  0  0  0  0  0  0  0  0
   50.5922   37.2741   69.6941 N   0  0  0  0  0  0  0  0  0  0  0  0
   57.8069   42.0737   67.6697 C   0  0  0  0  0  0  0  0  0  0  0  0
   56.0962   43.0991   67.1346 C   0  0  0  0  0  0  0  0  0  0  0  0
   56.0069   41.8237   66.6749 N   0  0  0  0  0  0  0  0  0  0  0  0
   57.1344   41.1523   67.0255 N   0  0  0  0  0  0  0  0  0  0  0  0
   57.2208   43.2522   67.7806 N   0  0  0  0  0  0  0  0  0  0  0  0
   54.2047   42.1814   65.0627 C   0  0  0  0  0  0  0  0  0  0  0  0
   52.9434   41.6564   64.6310 O   0  0  0  0  0  0  0  0  0  0  0  0
   53.0912   40.8714   64.0807 H   0  0  0  0  0  0  0  0  0  0  0  0
   55.0335   42.5891   63.8414 C   0  0  0  0  0  0  0  0  0  0  0  0
   54.5378   41.8798   62.6062 C   0  0  0  0  0  0  0  0  0  0  0  0
   53.7834   42.5605   61.6406 C   0  0  0  0  0  0  0  0  0  0  0  0
   53.2818   41.8993   60.5005 C   0  0  0  0  0  0  0  0  0  0  0  0
   53.5608   40.5513   60.3330 C   0  0  0  0  0  0  0  0  0  0  0  0
   54.3232   39.8497   61.2632 C   0  0  0  0  0  0  0  0  0  0  0  0
   54.8019   40.5223   62.4028 C   0  0  0  0  0  0  0  0  0  0  0  0
   53.0781   39.8967   59.2308 F   0  0  0  0  0  0  0  0  0  0  0  0
  1 15  1  0  0  0
  1  2  1  0  0  0
  1 12  1  0  0  0
 15 18  1  0  0  0
 15 16  1  0  0  0
 18 19  1  0  0  0
 19 20  2  0  0  0
 19 24  1  0  0  0
 20 21  1  0  0  0
 21 22  2  0  0  0
 22 23  1  0  0  0
 22 25  1  0  0  0
 23 24  2  0  0  0
  2  3  2  0  0  0
  2  7  1  0  0  0
  3  4  1  0  0  0
  4  5  2  0  0  0
  5  6  1  0  0  0
  5  8  1  0  0  0
  6  7  2  0  0  0
  8  9  3  0  0  0
 10 13  2  0  0  0
 10 14  1  0  0  0
 11 12  1  0  0  0
 11 14  2  0  0  0
 12 13  1  0  0  0
 16 17  1  0  0  0
M  END
> <minimizedAffinity>
-7.63621

$$$$
2C1P_FNZ_B_1215


 25 27  0  0  0  0  0  0  0  0999 V2000
   54.1393   41.6427   66.2748 C   0  0  0  0  0  0  0  0  0  0  0  0
   53.1178   41.8142   67.4022 C   0  0  0  0  0  0  0  0  0  0  0  0
   52.3825   43.0033   67.5703 C   0  0  0  0  0  0  0  0  0  0  0  0
   51.4014   43.1356   68.5807 C   0  0  0  0  0  0  0  0  0  0  0  0
   51.1615   42.0359   69.4323 C   0  0  0  0  0  0  0  0  0  0  0  0
   51.9054   40.8489   69.3060 C   0  0  0  0  0  0  0  0  0  0  0  0
   52.8744   40.7637   68.2922 C   0  0  0  0  0  0  0  0  0  0  0  0
   50.1404   42.1167   70.4480 C   0  0  0  0  0  0  0  0  0  0  0  0
   49.3352   42.1747   71.2538 N   0  0  0  0  0  0  0  0  0  0  0  0
   57.1884   42.7233   67.5871 C   0  0  0  0  0  0  0  0  0  0  0  0
   56.5913   40.9432   66.7274 C   0  0  0  0  0  0  0  0  0  0  0  0
   55.5365   41.7994   66.7448 N   0  0  0  0  0  0  0  0  0  0  0  0
   55.9310   42.9682   67.3133 N   0  0  0  0  0  0  0  0  0  0  0  0
   57.6392   41.5317   67.2384 N   0  0  0  0  0  0  0  0  0  0  0  0
   53.9264   42.5974   65.0876 C   0  0  0  0  0  0  0  0  0  0  0  0
   52.7053   42.2691   64.4140 O   0  0  0  0  0  0  0  0  0  0  0  0
   52.7585   41.3632   64.0713 H   0  0  0  0  0  0  0  0  0  0  0  0
   55.0931   42.5160   64.0992 C   0  0  0  0  0  0  0  0  0  0  0  0
   54.6905   41.7407   62.8698 C   0  0  0  0  0  0  0  0  0  0  0  0
   54.8474   40.3489   62.8145 C   0  0  0  0  0  0  0  0  0  0  0  0
   54.5104   39.6175   61.6569 C   0  0  0  0  0  0  0  0  0  0  0  0
   53.9986   40.2976   60.5622 C   0  0  0  0  0  0  0  0  0  0  0  0
   53.8121   41.6771   60.5905 C   0  0  0  0  0  0  0  0  0  0  0  0
   54.1689   42.3925   61.7486 C   0  0  0  0  0  0  0  0  0  0  0  0
   53.6688   39.5991   59.4309 F   0  0  0  0  0  0  0  0  0  0  0  0
  1 15  1  0  0  0
  1  2  1  0  0  0
  1 12  1  0  0  0
 15 18  1  0  0  0
 15 16  1  0  0  0
 18 19  1  0  0  0
 19 20  2  0  0  0
 19 24  1  0  0  0
 20 21  1  0  0  0
 21 22  2  0  0  0
 22 23  1  0  0  0
 22 25  1  0  0  0
 23 24  2  0  0  0
  2  3  2  0  0  0
  2  7  1  0  0  0
  3  4  1  0  0  0
  4  5  2  0  0  0
  5  6  1  0  0  0
  5  8  1  0  0  0
  6  7  2  0  0  0
  8  9  3  0  0  0
 10 13  2  0  0  0
 10 14  1  0  0  0
 11 12  1  0  0  0
 11 14  2  0  0  0
 12 13  1  0  0  0
 16 17  1  0  0  0
M  END
> <minimizedAffinity>
-7.59115

$$$$
2C1P_FNZ_B_1215


 25 27  0  0  0  0  0  0  0  0999 V2000
   54.1962   40.2301   65.6319 C   0  0  0  0  0  0  0  0  0  0  0  0
   53.9081   40.9223   66.9667 C   0  0  0  0  0  0  0  0  0  0  0  0
   54.3890   40.4171   68.1899 C   0  0  0  0  0  0  0  0  0  0  0  0
   54.1652   41.0908   69.4134 C   0  0  0  0  0  0  0  0  0  0  0  0
   53.4425   42.3031   69.3904 C   0  0  0  0  0  0  0  0  0  0  0  0
   52.9235   42.8116   68.1861 C   0  0  0  0  0  0  0  0  0  0  0  0
   53.1647   42.1062   66.9953 C   0  0  0  0  0  0  0  0  0  0  0  0
   53.2291   43.0413   70.6111 C   0  0  0  0  0  0  0  0  0  0  0  0
   53.0623   43.6307   71.5733 N   0  0  0  0  0  0  0  0  0  0  0  0
   55.2545   36.9051   65.7384 C   0  0  0  0  0  0  0  0  0  0  0  0
   53.4411   37.8062   66.1428 C   0  0  0  0  0  0  0  0  0  0  0  0
   54.3338   38.7607   65.7715 N   0  0  0  0  0  0  0  0  0  0  0  0
   55.5264   38.1659   65.5089 N   0  0  0  0  0  0  0  0  0  0  0  0
   54.0140   36.6334   66.1016 N   0  0  0  0  0  0  0  0  0  0  0  0
   55.4475   40.7591   64.9104 C   0  0  0  0  0  0  0  0  0  0  0  0
   56.4435   41.1262   65.8726 O   0  0  0  0  0  0  0  0  0  0  0  0
   56.0986   41.8317   66.4420 H   0  0  0  0  0  0  0  0  0  0  0  0
   55.1091   41.9708   64.0374 C   0  0  0  0  0  0  0  0  0  0  0  0
   54.6016   41.5249   62.6890 C   0  0  0  0  0  0  0  0  0  0  0  0
   53.9001   42.4083   61.8570 C   0  0  0  0  0  0  0  0  0  0  0  0
   53.3875   41.9926   60.6108 C   0  0  0  0  0  0  0  0  0  0  0  0
   53.6021   40.6848   60.2027 C   0  0  0  0  0  0  0  0  0  0  0  0
   54.3112   39.7868   60.9961 C   0  0  0  0  0  0  0  0  0  0  0  0
   54.8016   40.2150   62.2437 C   0  0  0  0  0  0  0  0  0  0  0  0
   53.1080   40.2677   58.9951 F   0  0  0  0  0  0  0  0  0  0  0  0
  1 15  1  0  0  0
  1  2  1  0  0  0
  1 12  1  0  0  0
 15 18  1  0  0  0
 15 16  1  0  0  0
 18 19  1  0  0  0
 19 20  2  0  0  0
 19 24  1  0  0  0
 20 21  1  0  0  0
 21 22  2  0  0  0
 22 23  1  0  0  0
 22 25  1  0  0  0
 23 24  2  0  0  0
  2  3  2  0  0  0
  2  7  1  0  0  0
  3  4  1  0  0  0
  4  5  2  0  0  0
  5  6  1  0  0  0
  5  8  1  0  0  0
  6  7  2  0  0  0
  8  9  3  0  0  0
 10 13  2  0  0  0
 10 14  1  0  0  0
 11 12  1  0  0  0
 11 14  2  0  0  0
 12 13  1  0  0  0
 16 17  1  0  0  0
M  END
> <minimizedAffinity>
-7.53347

$$$$
2C1P_FNZ_B_1215


 25 27  0  0  0  0  0  0  0  0999 V2000
   55.7542   39.8173   64.3553 C   0  0  0  0  0  0  0  0  0  0  0  0
   56.0653   40.9550   65.3314 C   0  0  0  0  0  0  0  0  0  0  0  0
   56.9925   40.8071   66.3808 C   0  0  0  0  0  0  0  0  0  0  0  0
   57.3154   41.8789   67.2456 C   0  0  0  0  0  0  0  0  0  0  0  0
   56.6863   43.1248   67.0353 C   0  0  0  0  0  0  0  0  0  0  0  0
   55.7323   43.2891   66.0149 C   0  0  0  0  0  0  0  0  0  0  0  0
   55.4377   42.1956   65.1833 C   0  0  0  0  0  0  0  0  0  0  0  0
   57.0196   44.2535   67.8696 C   0  0  0  0  0  0  0  0  0  0  0  0
   57.2874   45.1482   68.5243 N   0  0  0  0  0  0  0  0  0  0  0  0
   54.1792   40.3859   61.2922 C   0  0  0  0  0  0  0  0  0  0  0  0
   55.7171   41.3550   62.2720 C   0  0  0  0  0  0  0  0  0  0  0  0
   55.2990   40.3105   63.0336 N   0  0  0  0  0  0  0  0  0  0  0  0
   54.2856   39.6766   62.3884 N   0  0  0  0  0  0  0  0  0  0  0  0
   55.0266   41.3909   61.1641 N   0  0  0  0  0  0  0  0  0  0  0  0
   54.7093   38.8153   64.8754 C   0  0  0  0  0  0  0  0  0  0  0  0
   53.5817   39.5220   65.4062 O   0  0  0  0  0  0  0  0  0  0  0  0
   53.8680   40.0770   66.1484 H   0  0  0  0  0  0  0  0  0  0  0  0
   55.3037   37.9128   65.9603 C   0  0  0  0  0  0  0  0  0  0  0  0
   54.2210   37.4152   66.8848 C   0  0  0  0  0  0  0  0  0  0  0  0
   53.4023   36.3380   66.5187 C   0  0  0  0  0  0  0  0  0  0  0  0
   52.3619   35.8882   67.3577 C   0  0  0  0  0  0  0  0  0  0  0  0
   52.1643   36.5215   68.5753 C   0  0  0  0  0  0  0  0  0  0  0  0
   52.9715   37.5821   68.9782 C   0  0  0  0  0  0  0  0  0  0  0  0
   53.9947   38.0276   68.1209 C   0  0  0  0  0  0  0  0  0  0  0  0
   51.1560   36.0955   69.3989 F   0  0  0  0  0  0  0  0  0  0  0  0
  1 15  1  0  0  0
  1  2  1  0  0  0
  1 12  1  0  0  0
 15 18  1  0  0  0
 15 16  1  0  0  0
 18 19  1  0  0  0
 19 20  2  0  0  0
 19 24  1  0  0  0
 20 21  1  0  0  0
 21 22  2  0  0  0
 22 23  1  0  0  0
 22 25  1  0  0  0
 23 24  2  0  0  0
  2  3  2  0  0  0
  2  7  1  0  0  0
  3  4  1  0  0  0
  4  5  2  0  0  0
  5  6  1  0  0  0
  5  8  1  0  0  0
  6  7  2  0  0  0
  8  9  3  0  0  0
 10 13  2  0  0  0
 10 14  1  0  0  0
 11 12  1  0  0  0
 11 14  2  0  0  0
 12 13  1  0  0  0
 16 17  1  0  0  0
M  END
> <minimizedAffinity>
-7.42770

$$$$
2C1P_FNZ_B_1215


 25 27  0  0  0  0  0  0  0  0999 V2000
   55.2529   41.3862   65.7289 C   0  0  0  0  0  0  0  0  0  0  0  0
   54.9606   40.9698   64.2850 C   0  0  0  0  0  0  0  0  0  0  0  0
   55.4105   39.7455   63.7544 C   0  0  0  0  0  0  0  0  0  0  0  0
   55.0909   39.3427   62.4366 C   0  0  0  0  0  0  0  0  0  0  0  0
   54.2950   40.1997   61.6465 C   0  0  0  0  0  0  0  0  0  0  0  0
   53.8607   41.4425   62.1419 C   0  0  0  0  0  0  0  0  0  0  0  0
   54.2069   41.8047   63.4544 C   0  0  0  0  0  0  0  0  0  0  0  0
   53.9127   39.8062   60.3124 C   0  0  0  0  0  0  0  0  0  0  0  0
   53.6097   39.4886   59.2596 N   0  0  0  0  0  0  0  0  0  0  0  0
   55.3683   38.9571   68.2335 C   0  0  0  0  0  0  0  0  0  0  0  0
   53.8815   39.5446   66.9265 C   0  0  0  0  0  0  0  0  0  0  0  0
   54.9899   40.2968   66.6992 N   0  0  0  0  0  0  0  0  0  0  0  0
   55.9652   39.9106   67.5620 N   0  0  0  0  0  0  0  0  0  0  0  0
   54.1255   38.6849   67.8788 N   0  0  0  0  0  0  0  0  0  0  0  0
   54.4770   42.6319   66.1898 C   0  0  0  0  0  0  0  0  0  0  0  0
   55.1553   43.8155   65.7519 O   0  0  0  0  0  0  0  0  0  0  0  0
   56.0412   43.8449   66.1459 H   0  0  0  0  0  0  0  0  0  0  0  0
   54.3339   42.6592   67.7141 C   0  0  0  0  0  0  0  0  0  0  0  0
   52.8808   42.7557   68.1063 C   0  0  0  0  0  0  0  0  0  0  0  0
   51.9042   43.1092   67.1650 C   0  0  0  0  0  0  0  0  0  0  0  0
   50.5479   43.2401   67.5280 C   0  0  0  0  0  0  0  0  0  0  0  0
   50.1814   42.9955   68.8428 C   0  0  0  0  0  0  0  0  0  0  0  0
   51.1231   42.6239   69.7988 C   0  0  0  0  0  0  0  0  0  0  0  0
   52.4744   42.5137   69.4218 C   0  0  0  0  0  0  0  0  0  0  0  0
   48.8674   43.1208   69.2090 F   0  0  0  0  0  0  0  0  0  0  0  0
  1 15  1  0  0  0
  1  2  1  0  0  0
  1 12  1  0  0  0
 15 18  1  0  0  0
 15 16  1  0  0  0
 18 19  1  0  0  0
 19 20  2  0  0  0
 19 24  1  0  0  0
 20 21  1  0  0  0
 21 22  2  0  0  0
 22 23  1  0  0  0
 22 25  1  0  0  0
 23 24  2  0  0  0
  2  3  2  0  0  0
  2  7  1  0  0  0
  3  4  1  0  0  0
  4  5  2  0  0  0
  5  6  1  0  0  0
  5  8  1  0  0  0
  6  7  2  0  0  0
  8  9  3  0  0  0
 10 13  2  0  0  0
 10 14  1  0  0  0
 11 12  1  0  0  0
 11 14  2  0  0  0
 12 13  1  0  0  0
 16 17  1  0  0  0
M  END
> <minimizedAffinity>
-7.24529

$$$$
2C1P_FNZ_B_1215


 25 27  0  0  0  0  0  0  0  0999 V2000
   55.6456   39.4650   65.1998 C   0  0  0  0  0  0  0  0  0  0  0  0
   55.0107   40.2046   64.0192 C   0  0  0  0  0  0  0  0  0  0  0  0
   55.0929   39.7175   62.7005 C   0  0  0  0  0  0  0  0  0  0  0  0
   54.4580   40.3771   61.6222 C   0  0  0  0  0  0  0  0  0  0  0  0
   53.7225   41.5512   61.8921 C   0  0  0  0  0  0  0  0  0  0  0  0
   53.6526   42.0761   63.1951 C   0  0  0  0  0  0  0  0  0  0  0  0
   54.3037   41.3914   64.2349 C   0  0  0  0  0  0  0  0  0  0  0  0
   53.0263   42.2297   60.8263 C   0  0  0  0  0  0  0  0  0  0  0  0
   52.4698   42.7650   59.9869 N   0  0  0  0  0  0  0  0  0  0  0  0
   53.2039   37.1618   66.1589 C   0  0  0  0  0  0  0  0  0  0  0  0
   55.2375   36.9901   65.8439 C   0  0  0  0  0  0  0  0  0  0  0  0
   54.8632   38.2756   65.6128 N   0  0  0  0  0  0  0  0  0  0  0  0
   53.5249   38.3852   65.8178 N   0  0  0  0  0  0  0  0  0  0  0  0
   54.1964   36.2916   66.2092 N   0  0  0  0  0  0  0  0  0  0  0  0
   55.8671   40.3443   66.4424 C   0  0  0  0  0  0  0  0  0  0  0  0
   54.6091   40.6273   67.0669 O   0  0  0  0  0  0  0  0  0  0  0  0
   54.0422   41.1124   66.4471 H   0  0  0  0  0  0  0  0  0  0  0  0
   56.5604   41.6582   66.0711 C   0  0  0  0  0  0  0  0  0  0  0  0
   56.9883   42.3987   67.3133 C   0  0  0  0  0  0  0  0  0  0  0  0
   56.8979   43.7957   67.3842 C   0  0  0  0  0  0  0  0  0  0  0  0
   57.3303   44.5025   68.5253 C   0  0  0  0  0  0  0  0  0  0  0  0
   57.8386   43.7891   69.6003 C   0  0  0  0  0  0  0  0  0  0  0  0
   57.9245   42.3997   69.5704 C   0  0  0  0  0  0  0  0  0  0  0  0
   57.5030   41.7125   68.4170 C   0  0  0  0  0  0  0  0  0  0  0  0
   58.2637   44.4637   70.7142 F   0  0  0  0  0  0  0  0  0  0  0  0
  1 15  1  0  0  0
  1  2  1  0  0  0
  1 12  1  0  0  0
 15 18  1  0  0  0
 15 16  1  0  0  0
 18 19  1  0  0  0
 19 20  2  0  0  0
 19 24  1  0  0  0
 20 21  1  0  0  0
 21 22  2  0  0  0
 22 23  1  0  0  0
 22 25  1  0  0  0
 23 24  2  0  0  0
  2  3  2  0  0  0
  2  7  1  0  0  0
  3  4  1  0  0  0
  4  5  2  0  0  0
  5  6  1  0  0  0
  5  8  1  0  0  0
  6  7  2  0  0  0
  8  9  3  0  0  0
 10 13  2  0  0  0
 10 14  1  0  0  0
 11 12  1  0  0  0
 11 14  2  0  0  0
 12 13  1  0  0  0
 16 17  1  0  0  0
M  END
> <minimizedAffinity>
-7.15501

$$$$
2C1P_FNZ_B_1215


 25 27  0  0  0  0  0  0  0  0999 V2000
   55.5252   40.6845   67.2620 C   0  0  0  0  0  0  0  0  0  0  0  0
   54.2180   41.1985   67.8709 C   0  0  0  0  0  0  0  0  0  0  0  0
   53.8512   42.5570   67.8162 C   0  0  0  0  0  0  0  0  0  0  0  0
   52.6171   43.0165   68.3327 C   0  0  0  0  0  0  0  0  0  0  0  0
   51.7387   42.0752   68.9113 C   0  0  0  0  0  0  0  0  0  0  0  0
   52.0959   40.7182   69.0076 C   0  0  0  0  0  0  0  0  0  0  0  0
   53.3343   40.3071   68.4868 C   0  0  0  0  0  0  0  0  0  0  0  0
   50.4533   42.4974   69.4117 C   0  0  0  0  0  0  0  0  0  0  0  0
   49.4386   42.8288   69.8135 N   0  0  0  0  0  0  0  0  0  0  0  0
   58.6442   42.0536   68.0262 C   0  0  0  0  0  0  0  0  0  0  0  0
   56.9601   41.6954   69.1661 C   0  0  0  0  0  0  0  0  0  0  0  0
   56.7226   41.2912   67.8909 N   0  0  0  0  0  0  0  0  0  0  0  0
   57.8306   41.5306   67.1426 N   0  0  0  0  0  0  0  0  0  0  0  0
   58.1785   42.1563   69.2579 N   0  0  0  0  0  0  0  0  0  0  0  0
   55.6301   40.8903   65.7412 C   0  0  0  0  0  0  0  0  0  0  0  0
   55.7779   42.2852   65.4495 O   0  0  0  0  0  0  0  0  0  0  0  0
   54.9991   42.7668   65.7695 H   0  0  0  0  0  0  0  0  0  0  0  0
   54.3906   40.3469   65.0249 C   0  0  0  0  0  0  0  0  0  0  0  0
   54.2994   40.9083   63.6281 C   0  0  0  0  0  0  0  0  0  0  0  0
   53.6313   42.1154   63.3809 C   0  0  0  0  0  0  0  0  0  0  0  0
   53.5063   42.6312   62.0743 C   0  0  0  0  0  0  0  0  0  0  0  0
   54.0743   41.9296   61.0218 C   0  0  0  0  0  0  0  0  0  0  0  0
   54.7613   40.7373   61.2346 C   0  0  0  0  0  0  0  0  0  0  0  0
   54.8622   40.2297   62.5432 C   0  0  0  0  0  0  0  0  0  0  0  0
   53.9586   42.4188   59.7475 F   0  0  0  0  0  0  0  0  0  0  0  0
  1 15  1  0  0  0
  1  2  1  0  0  0
  1 12  1  0  0  0
 15 18  1  0  0  0
 15 16  1  0  0  0
 18 19  1  0  0  0
 19 20  2  0  0  0
 19 24  1  0  0  0
 20 21  1  0  0  0
 21 22  2  0  0  0
 22 23  1  0  0  0
 22 25  1  0  0  0
 23 24  2  0  0  0
  2  3  2  0  0  0
  2  7  1  0  0  0
  3  4  1  0  0  0
  4  5  2  0  0  0
  5  6  1  0  0  0
  5  8  1  0  0  0
  6  7  2  0  0  0
  8  9  3  0  0  0
 10 13  2  0  0  0
 10 14  1  0  0  0
 11 12  1  0  0  0
 11 14  2  0  0  0
 12 13  1  0  0  0
 16 17  1  0  0  0
M  END
> <minimizedAffinity>
-6.88444

$$$$
2C1P_FNZ_B_1215


 25 27  0  0  0  0  0  0  0  0999 V2000
   55.5358   39.2417   65.5160 C   0  0  0  0  0  0  0  0  0  0  0  0
   55.0595   39.9770   64.2605 C   0  0  0  0  0  0  0  0  0  0  0  0
   55.2125   39.4314   62.9714 C   0  0  0  0  0  0  0  0  0  0  0  0
   54.7216   40.0912   61.8204 C   0  0  0  0  0  0  0  0  0  0  0  0
   54.0592   41.3266   61.9855 C   0  0  0  0  0  0  0  0  0  0  0  0
   53.9226   41.9084   63.2588 C   0  0  0  0  0  0  0  0  0  0  0  0
   54.4308   41.2208   64.3736 C   0  0  0  0  0  0  0  0  0  0  0  0
   53.5078   42.0104   60.8412 C   0  0  0  0  0  0  0  0  0  0  0  0
   53.0777   42.5500   59.9331 N   0  0  0  0  0  0  0  0  0  0  0  0
   53.1994   36.7022   66.0442 C   0  0  0  0  0  0  0  0  0  0  0  0
   55.2547   36.6885   65.8451 C   0  0  0  0  0  0  0  0  0  0  0  0
   54.8106   37.9680   65.7384 N   0  0  0  0  0  0  0  0  0  0  0  0
   53.4584   37.9740   65.8667 N   0  0  0  0  0  0  0  0  0  0  0  0
   54.2424   35.8918   66.0594 N   0  0  0  0  0  0  0  0  0  0  0  0
   55.4382   40.0765   66.8044 C   0  0  0  0  0  0  0  0  0  0  0  0
   56.5744   40.9431   66.9081 O   0  0  0  0  0  0  0  0  0  0  0  0
   57.3843   40.4109   66.9501 H   0  0  0  0  0  0  0  0  0  0  0  0
   55.3681   39.1755   68.0406 C   0  0  0  0  0  0  0  0  0  0  0  0
   54.0399   39.3365   68.7366 C   0  0  0  0  0  0  0  0  0  0  0  0
   53.2096   40.4305   68.4564 C   0  0  0  0  0  0  0  0  0  0  0  0
   51.9831   40.6125   69.1282 C   0  0  0  0  0  0  0  0  0  0  0  0
   51.5926   39.6745   70.0719 C   0  0  0  0  0  0  0  0  0  0  0  0
   52.3844   38.5662   70.3605 C   0  0  0  0  0  0  0  0  0  0  0  0
   53.6125   38.4095   69.6916 C   0  0  0  0  0  0  0  0  0  0  0  0
   50.4043   39.8404   70.7329 F   0  0  0  0  0  0  0  0  0  0  0  0
  1 15  1  0  0  0
  1  2  1  0  0  0
  1 12  1  0  0  0
 15 18  1  0  0  0
 15 16  1  0  0  0
 18 19  1  0  0  0
 19 20  2  0  0  0
 19 24  1  0  0  0
 20 21  1  0  0  0
 21 22  2  0  0  0
 22 23  1  0  0  0
 22 25  1  0  0  0
 23 24  2  0  0  0
  2  3  2  0  0  0
  2  7  1  0  0  0
  3  4  1  0  0  0
  4  5  2  0  0  0
  5  6  1  0  0  0
  5  8  1  0  0  0
  6  7  2  0  0  0
  8  9  3  0  0  0
 10 13  2  0  0  0
 10 14  1  0  0  0
 11 12  1  0  0  0
 11 14  2  0  0  0
 12 13  1  0  0  0
 16 17  1  0  0  0
M  END
> <minimizedAffinity>
-6.84425

$$$$
