5UMY_TNN_A_201


 41 46  0  0  0  0  0  0  0  0999 V2000
   -0.5632    6.0499  -14.4512 C   0  0  0  0  0  0  0  0  0  0  0  0
    0.0938    6.7826  -15.3712 O   0  0  0  0  0  0  0  0  0  0  0  0
   -0.0214    5.4334  -15.7370 C   0  0  0  0  0  0  0  0  0  0  0  0
   -0.9226    5.0630  -16.8307 C   0  0  0  0  0  0  0  0  0  0  0  0
   -0.4827    4.2568  -17.8969 C   0  0  0  0  0  0  0  0  0  0  0  0
   -1.3471    3.8950  -18.9214 C   0  0  0  0  0  0  0  0  0  0  0  0
   -0.9091    3.1198  -19.9468 O   0  0  0  0  0  0  0  0  0  0  0  0
   -2.6755    4.3040  -18.9514 C   0  0  0  0  0  0  0  0  0  0  0  0
   -3.5219    3.9064  -20.0133 C   0  0  0  0  0  0  0  0  0  0  0  0
   -3.0904    3.1988  -20.9152 O   0  0  0  0  0  0  0  0  0  0  0  0
   -4.8656    4.3088  -20.0226 C   0  0  0  0  0  0  0  0  0  0  0  0
   -5.7362    3.9190  -21.0753 C   0  0  0  0  0  0  0  0  0  0  0  0
   -7.0905    4.3316  -21.0868 C   0  0  0  0  0  0  0  0  0  0  0  0
   -7.5719    5.1247  -20.0200 C   0  0  0  0  0  0  0  0  0  0  0  0
   -6.7053    5.4973  -18.9809 C   0  0  0  0  0  0  0  0  0  0  0  0
   -7.2147    6.3173  -17.9874 O   0  0  0  0  0  0  0  0  0  0  0  0
   -5.3530    5.1069  -18.9519 C   0  0  0  0  0  0  0  0  0  0  0  0
   -4.5076    5.5226  -17.9094 C   0  0  0  0  0  0  0  0  0  0  0  0
   -4.9586    6.2497  -17.0097 O   0  0  0  0  0  0  0  0  0  0  0  0
   -3.1574    5.1106  -17.8893 C   0  0  0  0  0  0  0  0  0  0  0  0
   -2.2772    5.4766  -16.8411 C   0  0  0  0  0  0  0  0  0  0  0  0
   -2.7201    6.2672  -15.7730 N   0  0  0  0  0  0  0  0  0  0  0  0
   -2.1650    6.0555  -14.4081 C   0  0  0  0  0  0  0  0  0  0  0  0
   -2.6720    4.8180  -13.9125 C   0  0  0  0  0  0  0  0  0  0  0  0
   -2.7858    3.8173  -13.6344 C   0  0  0  0  0  0  0  0  0  0  0  0
   -2.7931    2.3846  -13.3155 C   0  0  0  0  0  0  0  0  0  0  0  0
   -1.7180    1.6217  -13.6705 C   0  0  0  0  0  0  0  0  0  0  0  0
   -0.6384    2.3966  -14.2963 C   0  0  0  0  0  0  0  0  0  0  0  0
    0.1138    3.1051  -14.7595 C   0  0  0  0  0  0  0  0  0  0  0  0
    0.9661    4.2706  -15.3117 C   0  0  0  0  0  0  0  0  0  0  0  0
    1.8597    3.9281  -16.2967 O   0  0  0  0  0  0  0  0  0  0  0  0
   -0.0203    2.8234  -19.9635 H   0  0  0  0  0  0  0  0  0  0  0  0
   -8.1152    6.5757  -18.0091 H   0  0  0  0  0  0  0  0  0  0  0  0
   -3.3992    6.9635  -15.9251 H   0  0  0  0  0  0  0  0  0  0  0  0
    1.3767    3.6035  -17.0728 H   0  0  0  0  0  0  0  0  0  0  0  0
    1.3309    6.9113  -12.9173 C   0  0  0  0  0  0  0  0  0  0  0  0
   -0.0289    6.1822  -13.0528 C   0  0  0  0  0  0  0  0  0  0  0  0
   -1.0086    6.8639  -12.1946 O   0  0  0  0  0  0  0  0  0  0  0  0
   -1.1352    7.7732  -12.5076 H   0  0  0  0  0  0  0  0  0  0  0  0
   -8.8355    5.6363  -19.8755 O   0  0  0  0  0  0  0  0  0  0  0  0
   -9.9750    4.7966  -19.5614 C   0  0  0  0  0  0  0  0  0  0  0  0
 36 37  1  0  0  0
 37 38  1  0  0  0
 37  1  1  0  0  0
  1  2  1  0  0  0
  1  3  1  0  0  0
  1 23  1  0  0  0
  2  3  1  0  0  0
  3  4  1  0  0  0
  3 30  1  0  0  0
  4  5  2  0  0  0
  4 21  1  0  0  0
  5  6  1  0  0  0
  6  7  1  0  0  0
  6  8  2  0  0  0
  8  9  1  0  0  0
  8 20  1  0  0  0
  9 10  2  0  0  0
  9 11  1  0  0  0
 11 12  2  0  0  0
 11 17  1  0  0  0
 12 13  1  0  0  0
 13 14  2  0  0  0
 14 40  1  0  0  0
 14 15  1  0  0  0
 40 41  1  0  0  0
 15 16  1  0  0  0
 15 17  2  0  0  0
 17 18  1  0  0  0
 18 19  2  0  0  0
 18 20  1  0  0  0
 20 21  2  0  0  0
 21 22  1  0  0  0
 22 23  1  0  0  0
 23 24  1  0  0  0
 25 26  1  0  0  0
 26 27  2  0  0  0
 27 28  1  0  0  0
 29 30  1  0  0  0
 30 31  1  0  0  0
 24 25  3  0  0  0
 28 29  3  0  0  0
 38 39  1  0  0  0
  7 32  1  0  0  0
 16 33  1  0  0  0
 22 34  1  0  0  0
 31 35  1  0  0  0
M  END
> <minimizedAffinity>
-14.97390

$$$$
