3BXE_13P_A_401


 13 12  0  0  0  0  0  0  0  0999 V2000
  -42.2820    2.0513    4.9992 O   0  0  0  0  0  0  0  0  0  0  0  0
  -41.7280    3.1897    6.0051 P   0  0  0  0  0  0  0  0  0  0  0  0
  -41.9587    4.4964    5.2688 O   0  0  0  0  0  0  0  0  0  0  0  0
  -42.5509    2.9769    7.2747 O   0  0  0  0  0  0  0  0  0  0  0  0
  -40.2504    2.8716    6.1712 O   0  0  0  0  0  0  0  0  0  0  0  0
  -42.2840    3.6249    7.9453 H   0  0  0  0  0  0  0  0  0  0  0  0
  -39.8452    3.5197    6.7684 H   0  0  0  0  0  0  0  0  0  0  0  0
  -41.5990    0.7750    4.9486 C   0  0  0  0  0  0  0  0  0  0  0  0
  -42.1026   -0.2072    5.9780 C   0  0  0  0  0  0  0  0  0  0  0  0
  -43.2130   -0.0788    6.4800 O   0  0  0  0  0  0  0  0  0  0  0  0
  -41.2149   -1.3619    6.3895 C   0  0  0  0  0  0  0  0  0  0  0  0
  -41.5448   -2.5482    5.6357 O   0  0  0  0  0  0  0  0  0  0  0  0
  -42.4678   -2.7931    5.8060 H   0  0  0  0  0  0  0  0  0  0  0  0
  2  3  2  0  0  0
  2  4  1  0  0  0
  2  5  1  0  0  0
  2  1  1  0  0  0
  1  8  1  0  0  0
  8  9  1  0  0  0
  9 10  2  0  0  0
  9 11  1  0  0  0
 11 12  1  0  0  0
  4  6  1  0  0  0
  5  7  1  0  0  0
 12 13  1  0  0  0
M  END
> <minimizedAffinity>
-6.55994

$$$$
3BXE_13P_A_401


 13 12  0  0  0  0  0  0  0  0999 V2000
  -39.7445   -1.3875    4.9522 O   0  0  0  0  0  0  0  0  0  0  0  0
  -40.8875   -1.6466    6.0662 P   0  0  0  0  0  0  0  0  0  0  0  0
  -41.7466   -0.3962    6.0312 O   0  0  0  0  0  0  0  0  0  0  0  0
  -41.5571   -2.9378    5.5986 O   0  0  0  0  0  0  0  0  0  0  0  0
  -40.1256   -1.7894    7.3744 O   0  0  0  0  0  0  0  0  0  0  0  0
  -42.2671   -3.1755    6.2152 H   0  0  0  0  0  0  0  0  0  0  0  0
  -40.7521   -1.9487    8.0976 H   0  0  0  0  0  0  0  0  0  0  0  0
  -39.5483   -2.3775    3.9131 C   0  0  0  0  0  0  0  0  0  0  0  0
  -39.6766   -1.8082    2.5212 C   0  0  0  0  0  0  0  0  0  0  0  0
  -40.2424   -0.7384    2.3285 O   0  0  0  0  0  0  0  0  0  0  0  0
  -39.0960   -2.5782    1.3547 C   0  0  0  0  0  0  0  0  0  0  0  0
  -37.7410   -2.1547    1.0922 O   0  0  0  0  0  0  0  0  0  0  0  0
  -37.7345   -1.2101    0.8718 H   0  0  0  0  0  0  0  0  0  0  0  0
  2  3  2  0  0  0
  2  4  1  0  0  0
  2  5  1  0  0  0
  2  1  1  0  0  0
  1  8  1  0  0  0
  8  9  1  0  0  0
  9 10  2  0  0  0
  9 11  1  0  0  0
 11 12  1  0  0  0
  4  6  1  0  0  0
  5  7  1  0  0  0
 12 13  1  0  0  0
M  END
> <minimizedAffinity>
-6.42412

$$$$
3BXE_13P_A_401


 13 12  0  0  0  0  0  0  0  0999 V2000
  -42.1481   -1.2461    5.5547 O   0  0  0  0  0  0  0  0  0  0  0  0
  -40.6742   -1.9094    5.6017 P   0  0  0  0  0  0  0  0  0  0  0  0
  -40.2571   -1.8125    7.0576 O   0  0  0  0  0  0  0  0  0  0  0  0
  -40.8986   -3.3192    5.0572 O   0  0  0  0  0  0  0  0  0  0  0  0
  -39.8264   -1.0297    4.6965 O   0  0  0  0  0  0  0  0  0  0  0  0
  -40.0562   -3.8000    5.0479 H   0  0  0  0  0  0  0  0  0  0  0  0
  -38.9180   -1.3693    4.6743 H   0  0  0  0  0  0  0  0  0  0  0  0
  -42.4047   -0.0630    6.3502 C   0  0  0  0  0  0  0  0  0  0  0  0
  -42.4729    1.2003    5.5272 C   0  0  0  0  0  0  0  0  0  0  0  0
  -41.8870    1.2849    4.4542 O   0  0  0  0  0  0  0  0  0  0  0  0
  -43.2777    2.3731    6.0446 C   0  0  0  0  0  0  0  0  0  0  0  0
  -42.7119    2.8722    7.2754 O   0  0  0  0  0  0  0  0  0  0  0  0
  -42.7245    2.1704    7.9450 H   0  0  0  0  0  0  0  0  0  0  0  0
  2  3  2  0  0  0
  2  4  1  0  0  0
  2  5  1  0  0  0
  2  1  1  0  0  0
  1  8  1  0  0  0
  8  9  1  0  0  0
  9 10  2  0  0  0
  9 11  1  0  0  0
 11 12  1  0  0  0
  4  6  1  0  0  0
  5  7  1  0  0  0
 12 13  1  0  0  0
M  END
> <minimizedAffinity>
-6.19407

$$$$
3BXE_13P_A_401


 13 12  0  0  0  0  0  0  0  0999 V2000
  -41.2066    1.0868    5.9576 O   0  0  0  0  0  0  0  0  0  0  0  0
  -41.9259    2.5290    5.8274 P   0  0  0  0  0  0  0  0  0  0  0  0
  -42.5952    2.5015    4.4658 O   0  0  0  0  0  0  0  0  0  0  0  0
  -42.8590    2.5742    7.0364 O   0  0  0  0  0  0  0  0  0  0  0  0
  -40.7876    3.5350    5.8930 O   0  0  0  0  0  0  0  0  0  0  0  0
  -43.3403    3.4163    7.0421 H   0  0  0  0  0  0  0  0  0  0  0  0
  -41.1457    4.4336    5.8205 H   0  0  0  0  0  0  0  0  0  0  0  0
  -42.0255   -0.1069    5.9031 C   0  0  0  0  0  0  0  0  0  0  0  0
  -41.3299   -1.2723    5.2429 C   0  0  0  0  0  0  0  0  0  0  0  0
  -41.4381   -2.4069    5.6930 O   0  0  0  0  0  0  0  0  0  0  0  0
  -40.4886   -1.0244    4.0094 C   0  0  0  0  0  0  0  0  0  0  0  0
  -41.1065   -0.0285    3.1664 O   0  0  0  0  0  0  0  0  0  0  0  0
  -41.9811   -0.3402    2.8855 H   0  0  0  0  0  0  0  0  0  0  0  0
  2  3  2  0  0  0
  2  4  1  0  0  0
  2  5  1  0  0  0
  2  1  1  0  0  0
  1  8  1  0  0  0
  8  9  1  0  0  0
  9 10  2  0  0  0
  9 11  1  0  0  0
 11 12  1  0  0  0
  4  6  1  0  0  0
  5  7  1  0  0  0
 12 13  1  0  0  0
M  END
> <minimizedAffinity>
-6.05117

$$$$
3BXE_13P_A_401


 13 12  0  0  0  0  0  0  0  0999 V2000
  -41.0741    0.3501    6.1070 O   0  0  0  0  0  0  0  0  0  0  0  0
  -40.7225   -1.1969    5.7943 P   0  0  0  0  0  0  0  0  0  0  0  0
  -42.0330   -1.7996    5.3229 O   0  0  0  0  0  0  0  0  0  0  0  0
  -39.6084   -1.1074    4.7527 O   0  0  0  0  0  0  0  0  0  0  0  0
  -40.2699   -1.7670    7.1293 O   0  0  0  0  0  0  0  0  0  0  0  0
  -39.3289   -2.0014    4.5006 H   0  0  0  0  0  0  0  0  0  0  0  0
  -40.0395   -2.7029    7.0198 H   0  0  0  0  0  0  0  0  0  0  0  0
  -42.0001    1.0433    5.2352 C   0  0  0  0  0  0  0  0  0  0  0  0
  -42.5161    2.3330    5.8254 C   0  0  0  0  0  0  0  0  0  0  0  0
  -43.6972    2.4592    6.1267 O   0  0  0  0  0  0  0  0  0  0  0  0
  -41.5530    3.4803    6.0424 C   0  0  0  0  0  0  0  0  0  0  0  0
  -41.8915    4.5943    5.1889 O   0  0  0  0  0  0  0  0  0  0  0  0
  -41.8379    4.3184    4.2605 H   0  0  0  0  0  0  0  0  0  0  0  0
  2  3  2  0  0  0
  2  4  1  0  0  0
  2  5  1  0  0  0
  2  1  1  0  0  0
  1  8  1  0  0  0
  8  9  1  0  0  0
  9 10  2  0  0  0
  9 11  1  0  0  0
 11 12  1  0  0  0
  4  6  1  0  0  0
  5  7  1  0  0  0
 12 13  1  0  0  0
M  END
> <minimizedAffinity>
-6.03562

$$$$
3BXE_13P_A_401


 13 12  0  0  0  0  0  0  0  0999 V2000
  -42.1884    0.7955    5.1902 O   0  0  0  0  0  0  0  0  0  0  0  0
  -41.2962   -0.5090    5.5321 P   0  0  0  0  0  0  0  0  0  0  0  0
  -42.1076   -1.2675    6.5661 O   0  0  0  0  0  0  0  0  0  0  0  0
  -41.1257   -1.1916    4.1759 O   0  0  0  0  0  0  0  0  0  0  0  0
  -40.0028    0.0479    6.1056 O   0  0  0  0  0  0  0  0  0  0  0  0
  -40.5952   -1.9965    4.2835 H   0  0  0  0  0  0  0  0  0  0  0  0
  -39.4100   -0.6842    6.3370 H   0  0  0  0  0  0  0  0  0  0  0  0
  -42.7535    1.5584    6.2841 C   0  0  0  0  0  0  0  0  0  0  0  0
  -42.4571    3.0354    6.1910 C   0  0  0  0  0  0  0  0  0  0  0  0
  -42.1103    3.6713    7.1795 O   0  0  0  0  0  0  0  0  0  0  0  0
  -42.5945    3.7307    4.8537 C   0  0  0  0  0  0  0  0  0  0  0  0
  -42.2240    5.1215    4.9652 O   0  0  0  0  0  0  0  0  0  0  0  0
  -42.8078    5.5615    5.6028 H   0  0  0  0  0  0  0  0  0  0  0  0
  2  3  2  0  0  0
  2  4  1  0  0  0
  2  5  1  0  0  0
  2  1  1  0  0  0
  1  8  1  0  0  0
  8  9  1  0  0  0
  9 10  2  0  0  0
  9 11  1  0  0  0
 11 12  1  0  0  0
  4  6  1  0  0  0
  5  7  1  0  0  0
 12 13  1  0  0  0
M  END
> <minimizedAffinity>
-5.92010

$$$$
3BXE_13P_A_401


 13 12  0  0  0  0  0  0  0  0999 V2000
  -41.5637    0.9328    5.0859 O   0  0  0  0  0  0  0  0  0  0  0  0
  -41.6858   -0.4816    5.8599 P   0  0  0  0  0  0  0  0  0  0  0  0
  -40.3390   -0.6665    6.5342 O   0  0  0  0  0  0  0  0  0  0  0  0
  -42.8824   -0.2796    6.7882 O   0  0  0  0  0  0  0  0  0  0  0  0
  -41.9281   -1.5034    4.7602 O   0  0  0  0  0  0  0  0  0  0  0  0
  -43.0340   -1.0888    7.3011 H   0  0  0  0  0  0  0  0  0  0  0  0
  -42.0128   -2.3865    5.1524 H   0  0  0  0  0  0  0  0  0  0  0  0
  -41.2830    2.1263    5.8572 C   0  0  0  0  0  0  0  0  0  0  0  0
  -42.0902    3.3217    5.4129 C   0  0  0  0  0  0  0  0  0  0  0  0
  -41.5666    4.4222    5.2844 O   0  0  0  0  0  0  0  0  0  0  0  0
  -43.5661    3.1477    5.1262 C   0  0  0  0  0  0  0  0  0  0  0  0
  -44.1896    2.3428    6.1496 O   0  0  0  0  0  0  0  0  0  0  0  0
  -43.7741    1.4665    6.1696 H   0  0  0  0  0  0  0  0  0  0  0  0
  2  3  2  0  0  0
  2  4  1  0  0  0
  2  5  1  0  0  0
  2  1  1  0  0  0
  1  8  1  0  0  0
  8  9  1  0  0  0
  9 10  2  0  0  0
  9 11  1  0  0  0
 11 12  1  0  0  0
  4  6  1  0  0  0
  5  7  1  0  0  0
 12 13  1  0  0  0
M  END
> <minimizedAffinity>
-5.84397

$$$$
3BXE_13P_A_401


 13 12  0  0  0  0  0  0  0  0999 V2000
  -41.5014    1.7815    5.6774 O   0  0  0  0  0  0  0  0  0  0  0  0
  -42.7266    2.8361    5.6410 P   0  0  0  0  0  0  0  0  0  0  0  0
  -42.2216    4.0366    6.4198 O   0  0  0  0  0  0  0  0  0  0  0  0
  -42.9673    3.0538    4.1480 O   0  0  0  0  0  0  0  0  0  0  0  0
  -43.8687    2.1249    6.3493 O   0  0  0  0  0  0  0  0  0  0  0  0
  -43.6963    3.6819    4.0263 H   0  0  0  0  0  0  0  0  0  0  0  0
  -44.6478    2.7024    6.3670 H   0  0  0  0  0  0  0  0  0  0  0  0
  -41.8020    0.3689    5.7896 C   0  0  0  0  0  0  0  0  0  0  0  0
  -41.1350   -0.4648    4.7229 C   0  0  0  0  0  0  0  0  0  0  0  0
  -41.1262   -0.1003    3.5530 O   0  0  0  0  0  0  0  0  0  0  0  0
  -40.4721   -1.7678    5.1147 C   0  0  0  0  0  0  0  0  0  0  0  0
  -41.4557   -2.7173    5.5786 O   0  0  0  0  0  0  0  0  0  0  0  0
  -41.9111   -2.3574    6.3557 H   0  0  0  0  0  0  0  0  0  0  0  0
  2  3  2  0  0  0
  2  4  1  0  0  0
  2  5  1  0  0  0
  2  1  1  0  0  0
  1  8  1  0  0  0
  8  9  1  0  0  0
  9 10  2  0  0  0
  9 11  1  0  0  0
 11 12  1  0  0  0
  4  6  1  0  0  0
  5  7  1  0  0  0
 12 13  1  0  0  0
M  END
> <minimizedAffinity>
-5.82494

$$$$
3BXE_13P_A_401


 13 12  0  0  0  0  0  0  0  0999 V2000
  -41.4167    0.4005    4.3950 O   0  0  0  0  0  0  0  0  0  0  0  0
  -40.6770   -0.9085    4.9899 P   0  0  0  0  0  0  0  0  0  0  0  0
  -39.7413   -1.3559    3.8822 O   0  0  0  0  0  0  0  0  0  0  0  0
  -40.0132   -0.3953    6.2667 O   0  0  0  0  0  0  0  0  0  0  0  0
  -41.7980   -1.9052    5.2390 O   0  0  0  0  0  0  0  0  0  0  0  0
  -39.5381   -1.1223    6.6988 H   0  0  0  0  0  0  0  0  0  0  0  0
  -41.4270   -2.7253    5.6005 H   0  0  0  0  0  0  0  0  0  0  0  0
  -42.3509    1.1162    5.2397 C   0  0  0  0  0  0  0  0  0  0  0  0
  -42.3085    2.6110    5.0352 C   0  0  0  0  0  0  0  0  0  0  0  0
  -43.0474    3.1564    4.2239 O   0  0  0  0  0  0  0  0  0  0  0  0
  -41.3352    3.4376    5.8476 C   0  0  0  0  0  0  0  0  0  0  0  0
  -40.1141    2.7023    6.0767 O   0  0  0  0  0  0  0  0  0  0  0  0
  -40.3133    1.8898    6.5678 H   0  0  0  0  0  0  0  0  0  0  0  0
  2  3  2  0  0  0
  2  4  1  0  0  0
  2  5  1  0  0  0
  2  1  1  0  0  0
  1  8  1  0  0  0
  8  9  1  0  0  0
  9 10  2  0  0  0
  9 11  1  0  0  0
 11 12  1  0  0  0
  4  6  1  0  0  0
  5  7  1  0  0  0
 12 13  1  0  0  0
M  END
> <minimizedAffinity>
-5.81662

$$$$
3BXE_13P_A_401


 13 12  0  0  0  0  0  0  0  0999 V2000
  -42.5642    2.3328    4.3944 O   0  0  0  0  0  0  0  0  0  0  0  0
  -41.7056    1.4837    5.4697 P   0  0  0  0  0  0  0  0  0  0  0  0
  -42.7018    1.1232    6.5562 O   0  0  0  0  0  0  0  0  0  0  0  0
  -41.1536    0.3197    4.6482 O   0  0  0  0  0  0  0  0  0  0  0  0
  -40.6382    2.4493    5.9599 O   0  0  0  0  0  0  0  0  0  0  0  0
  -40.6169   -0.2527    5.2185 H   0  0  0  0  0  0  0  0  0  0  0  0
  -40.0775    2.0059    6.6156 H   0  0  0  0  0  0  0  0  0  0  0  0
  -43.6184    3.2018    4.8757 C   0  0  0  0  0  0  0  0  0  0  0  0
  -43.2378    4.6622    4.8540 C   0  0  0  0  0  0  0  0  0  0  0  0
  -42.0657    5.0085    4.9430 O   0  0  0  0  0  0  0  0  0  0  0  0
  -44.3270    5.7046    4.7215 C   0  0  0  0  0  0  0  0  0  0  0  0
  -44.0472    6.8402    5.5678 O   0  0  0  0  0  0  0  0  0  0  0  0
  -44.0074    6.5519    6.4931 H   0  0  0  0  0  0  0  0  0  0  0  0
  2  3  2  0  0  0
  2  4  1  0  0  0
  2  5  1  0  0  0
  2  1  1  0  0  0
  1  8  1  0  0  0
  8  9  1  0  0  0
  9 10  2  0  0  0
  9 11  1  0  0  0
 11 12  1  0  0  0
  4  6  1  0  0  0
  5  7  1  0  0  0
 12 13  1  0  0  0
M  END
> <minimizedAffinity>
-5.70035

$$$$
