4BCO_T6Q_A_1299


 35 38  0  0  0  0  0  0  0  0999 V2000
   -4.2262   26.2812  -24.8522 N   0  0  0  0  0  0  0  0  0  0  0  0
   -4.0663   27.1062  -24.3393 H   0  0  0  0  0  0  0  0  0  0  0  0
   -3.7580   26.0685  -28.5191 C   0  0  0  0  0  0  0  0  0  0  0  0
   -4.3219   26.2374  -27.2988 N   0  0  0  0  0  0  0  0  0  0  0  0
   -3.5822   26.1218  -26.1555 C   0  0  0  0  0  0  0  0  0  0  0  0
   -2.2673   25.8568  -26.2028 N   0  0  0  0  0  0  0  0  0  0  0  0
   -1.6357   25.7046  -27.4079 C   0  0  0  0  0  0  0  0  0  0  0  0
   -2.3774   25.8242  -28.5843 C   0  0  0  0  0  0  0  0  0  0  0  0
   -5.8209   27.2522  -31.6794 C   0  0  0  0  0  0  0  0  0  0  0  0
   -5.7242   25.8989  -31.6833 N   0  0  0  0  0  0  0  0  0  0  0  0
   -5.0555   25.3391  -30.6580 C   0  0  0  0  0  0  0  0  0  0  0  0
   -4.9244   23.8258  -30.5943 C   0  0  0  0  0  0  0  0  0  0  0  0
   -4.5414   26.2456  -29.6944 C   0  0  0  0  0  0  0  0  0  0  0  0
   -5.0059   27.8063  -30.2541 S   0  0  0  0  0  0  0  0  0  0  0  0
   -6.6139   29.4859  -32.3954 C   0  0  0  0  0  0  0  0  0  0  0  0
   -6.4661   28.0578  -32.6478 N   0  0  0  0  0  0  0  0  0  0  0  0
   -6.8101   27.6595  -33.4799 H   0  0  0  0  0  0  0  0  0  0  0  0
   -1.6926   25.6772  -29.8726 C   0  0  0  0  0  0  0  0  0  0  0  0
   -1.1628   25.5551  -30.8751 N   0  0  0  0  0  0  0  0  0  0  0  0
   -5.0976   25.2571  -24.2883 C   0  0  0  0  0  0  0  0  0  0  0  0
   -6.4715   25.2303  -24.5756 C   0  0  0  0  0  0  0  0  0  0  0  0
   -7.2808   24.2364  -24.0231 C   0  0  0  0  0  0  0  0  0  0  0  0
   -6.7151   23.2467  -23.1638 C   0  0  0  0  0  0  0  0  0  0  0  0
   -5.3479   23.2748  -22.8857 C   0  0  0  0  0  0  0  0  0  0  0  0
   -4.5408   24.2740  -23.4376 C   0  0  0  0  0  0  0  0  0  0  0  0
   -4.7549   22.2551  -21.9983 N   0  0  0  0  0  0  0  0  0  0  0  0
   -4.6306   22.8643  -20.6968 C   0  0  0  0  0  0  0  0  0  0  0  0
   -5.2626   22.1104  -19.5840 C   0  0  0  0  0  0  0  0  0  0  0  0
   -6.6883   21.7463  -19.8262 C   0  0  0  0  0  0  0  0  0  0  0  0
   -6.8328   20.5729  -20.6195 N   0  0  0  0  0  0  0  0  0  0  0  0
   -7.6458   19.5027  -20.0615 C   0  0  0  0  0  0  0  0  0  0  0  0
   -7.8450   18.2189  -20.8356 C   0  0  0  0  0  0  0  0  0  0  0  0
   -8.1699   19.6378  -18.9580 O   0  0  0  0  0  0  0  0  0  0  0  0
   -6.2602   20.3130  -21.9083 C   0  0  0  0  0  0  0  0  0  0  0  0
   -4.8468   20.8206  -21.9957 C   0  0  0  0  0  0  0  0  0  0  0  0
 15 16  1  0  0  0
 16  9  1  0  0  0
  9 10  2  0  0  0
  9 14  1  0  0  0
 10 11  1  0  0  0
 11 12  1  0  0  0
 11 13  2  0  0  0
 13  3  1  0  0  0
 13 14  1  0  0  0
  3  4  1  0  0  0
  3  8  2  0  0  0
  4  5  2  0  0  0
  5  1  1  0  0  0
  5  6  1  0  0  0
  1 20  1  0  0  0
 20 21  1  0  0  0
 20 25  2  0  0  0
 21 22  2  0  0  0
 22 23  1  0  0  0
 23 24  2  0  0  0
 24 26  1  0  0  0
 24 25  1  0  0  0
 26 27  1  0  0  0
 26 35  1  0  0  0
 27 28  1  0  0  0
 28 29  1  0  0  0
 29 30  1  0  0  0
 30 31  1  0  0  0
 30 34  1  0  0  0
 31 32  1  0  0  0
 31 33  2  0  0  0
 34 35  1  0  0  0
  6  7  2  0  0  0
  7  8  1  0  0  0
  8 18  1  0  0  0
 18 19  3  0  0  0
 16 17  1  0  0  0
  1  2  1  0  0  0
M  END
> <minimizedAffinity>
-9.36971

$$$$
4BCO_T6Q_A_1299


 35 38  0  0  0  0  0  0  0  0999 V2000
   -7.4927   23.5462  -25.7077 N   0  0  0  0  0  0  0  0  0  0  0  0
   -7.8337   23.4617  -26.6273 H   0  0  0  0  0  0  0  0  0  0  0  0
   -7.9657   21.3768  -22.7446 C   0  0  0  0  0  0  0  0  0  0  0  0
   -7.3886   22.1061  -23.7298 N   0  0  0  0  0  0  0  0  0  0  0  0
   -8.1451   22.7914  -24.6384 C   0  0  0  0  0  0  0  0  0  0  0  0
   -9.4857   22.7820  -24.5741 N   0  0  0  0  0  0  0  0  0  0  0  0
  -10.1253   22.0865  -23.5832 C   0  0  0  0  0  0  0  0  0  0  0  0
   -9.3657   21.3852  -22.6455 C   0  0  0  0  0  0  0  0  0  0  0  0
   -5.5088   20.1921  -19.8802 C   0  0  0  0  0  0  0  0  0  0  0  0
   -6.1892   19.1225  -20.3636 N   0  0  0  0  0  0  0  0  0  0  0  0
   -7.0628   19.3630  -21.3589 C   0  0  0  0  0  0  0  0  0  0  0  0
   -7.8461   18.2049  -21.9561 C   0  0  0  0  0  0  0  0  0  0  0  0
   -7.1528   20.7150  -21.7813 C   0  0  0  0  0  0  0  0  0  0  0  0
   -6.0360   21.5705  -20.7884 S   0  0  0  0  0  0  0  0  0  0  0  0
   -3.4667   21.1610  -18.8690 C   0  0  0  0  0  0  0  0  0  0  0  0
   -4.5499   20.1858  -18.8392 N   0  0  0  0  0  0  0  0  0  0  0  0
   -4.6135   19.5323  -18.1056 H   0  0  0  0  0  0  0  0  0  0  0  0
  -10.0554   20.6561  -21.5763 C   0  0  0  0  0  0  0  0  0  0  0  0
  -10.5882   20.0941  -20.7392 N   0  0  0  0  0  0  0  0  0  0  0  0
   -6.3530   24.4200  -25.4548 C   0  0  0  0  0  0  0  0  0  0  0  0
   -6.0783   24.9051  -24.1664 C   0  0  0  0  0  0  0  0  0  0  0  0
   -4.9788   25.7381  -23.9540 C   0  0  0  0  0  0  0  0  0  0  0  0
   -4.1327   26.1007  -25.0452 C   0  0  0  0  0  0  0  0  0  0  0  0
   -4.4071   25.6114  -26.3229 C   0  0  0  0  0  0  0  0  0  0  0  0
   -5.5115   24.7804  -26.5329 C   0  0  0  0  0  0  0  0  0  0  0  0
   -3.5371   25.9813  -27.4566 N   0  0  0  0  0  0  0  0  0  0  0  0
   -2.9294   24.7598  -27.9246 C   0  0  0  0  0  0  0  0  0  0  0  0
   -3.1088   24.4799  -29.3723 C   0  0  0  0  0  0  0  0  0  0  0  0
   -4.5258   24.5366  -29.8335 C   0  0  0  0  0  0  0  0  0  0  0  0
   -4.9687   25.8633  -30.0995 N   0  0  0  0  0  0  0  0  0  0  0  0
   -5.5264   26.1139  -31.4200 C   0  0  0  0  0  0  0  0  0  0  0  0
   -6.0140   27.4974  -31.7875 C   0  0  0  0  0  0  0  0  0  0  0  0
   -5.5993   25.2026  -32.2416 O   0  0  0  0  0  0  0  0  0  0  0  0
   -4.9212   26.9938  -29.2185 C   0  0  0  0  0  0  0  0  0  0  0  0
   -3.6370   27.0289  -28.4357 C   0  0  0  0  0  0  0  0  0  0  0  0
 15 16  1  0  0  0
 16  9  1  0  0  0
  9 10  2  0  0  0
  9 14  1  0  0  0
 10 11  1  0  0  0
 11 12  1  0  0  0
 11 13  2  0  0  0
 13  3  1  0  0  0
 13 14  1  0  0  0
  3  4  1  0  0  0
  3  8  2  0  0  0
  4  5  2  0  0  0
  5  1  1  0  0  0
  5  6  1  0  0  0
  1 20  1  0  0  0
 20 21  1  0  0  0
 20 25  2  0  0  0
 21 22  2  0  0  0
 22 23  1  0  0  0
 23 24  2  0  0  0
 24 26  1  0  0  0
 24 25  1  0  0  0
 26 27  1  0  0  0
 26 35  1  0  0  0
 27 28  1  0  0  0
 28 29  1  0  0  0
 29 30  1  0  0  0
 30 31  1  0  0  0
 30 34  1  0  0  0
 31 32  1  0  0  0
 31 33  2  0  0  0
 34 35  1  0  0  0
  6  7  2  0  0  0
  7  8  1  0  0  0
  8 18  1  0  0  0
 18 19  3  0  0  0
 16 17  1  0  0  0
  1  2  1  0  0  0
M  END
> <minimizedAffinity>
-9.36204

$$$$
4BCO_T6Q_A_1299


 35 38  0  0  0  0  0  0  0  0999 V2000
   -7.8326   23.2728  -25.4347 N   0  0  0  0  0  0  0  0  0  0  0  0
   -8.2304   23.1446  -26.3261 H   0  0  0  0  0  0  0  0  0  0  0  0
   -7.9933   21.1882  -22.3788 C   0  0  0  0  0  0  0  0  0  0  0  0
   -7.5222   21.9149  -23.4207 N   0  0  0  0  0  0  0  0  0  0  0  0
   -8.3724   22.5191  -24.3036 C   0  0  0  0  0  0  0  0  0  0  0  0
   -9.7036   22.4304  -24.1576 N   0  0  0  0  0  0  0  0  0  0  0  0
  -10.2389   21.7338  -23.1074 C   0  0  0  0  0  0  0  0  0  0  0  0
   -9.3829   21.1148  -22.1951 C   0  0  0  0  0  0  0  0  0  0  0  0
   -5.3115   20.2611  -19.6233 C   0  0  0  0  0  0  0  0  0  0  0  0
   -5.9348   19.1324  -20.0457 N   0  0  0  0  0  0  0  0  0  0  0  0
   -6.8739   19.2825  -20.9983 C   0  0  0  0  0  0  0  0  0  0  0  0
   -7.5989   18.0552  -21.5268 C   0  0  0  0  0  0  0  0  0  0  0  0
   -7.0853   20.6129  -21.4455 C   0  0  0  0  0  0  0  0  0  0  0  0
   -5.9853   21.5731  -20.5329 S   0  0  0  0  0  0  0  0  0  0  0  0
   -3.1826   21.2602  -18.8485 C   0  0  0  0  0  0  0  0  0  0  0  0
   -4.3026   20.3519  -18.6349 N   0  0  0  0  0  0  0  0  0  0  0  0
   -4.3563   19.8094  -17.8151 H   0  0  0  0  0  0  0  0  0  0  0  0
   -9.9614   20.3845  -21.0626 C   0  0  0  0  0  0  0  0  0  0  0  0
  -10.4182   19.8211  -20.1827 N   0  0  0  0  0  0  0  0  0  0  0  0
   -6.7241   24.2080  -25.2841 C   0  0  0  0  0  0  0  0  0  0  0  0
   -6.2286   24.5528  -24.0166 C   0  0  0  0  0  0  0  0  0  0  0  0
   -5.1647   25.4491  -23.9033 C   0  0  0  0  0  0  0  0  0  0  0  0
   -4.5796   26.0190  -25.0741 C   0  0  0  0  0  0  0  0  0  0  0  0
   -5.0725   25.6688  -26.3318 C   0  0  0  0  0  0  0  0  0  0  0  0
   -6.1407   24.7737  -26.4416 C   0  0  0  0  0  0  0  0  0  0  0  0
   -4.4730   26.2533  -27.5475 N   0  0  0  0  0  0  0  0  0  0  0  0
   -3.7378   27.4197  -27.1238 C   0  0  0  0  0  0  0  0  0  0  0  0
   -2.3127   27.4536  -27.5412 C   0  0  0  0  0  0  0  0  0  0  0  0
   -1.5434   26.2268  -27.1849 C   0  0  0  0  0  0  0  0  0  0  0  0
   -1.7264   25.1680  -28.1190 N   0  0  0  0  0  0  0  0  0  0  0  0
   -0.5227   24.5998  -28.7071 C   0  0  0  0  0  0  0  0  0  0  0  0
   -0.6278   23.4763  -29.7139 C   0  0  0  0  0  0  0  0  0  0  0  0
    0.5826   25.0340  -28.3899 O   0  0  0  0  0  0  0  0  0  0  0  0
   -2.9652   24.5966  -28.5611 C   0  0  0  0  0  0  0  0  0  0  0  0
   -4.0155   25.6531  -28.7709 C   0  0  0  0  0  0  0  0  0  0  0  0
 15 16  1  0  0  0
 16  9  1  0  0  0
  9 10  2  0  0  0
  9 14  1  0  0  0
 10 11  1  0  0  0
 11 12  1  0  0  0
 11 13  2  0  0  0
 13  3  1  0  0  0
 13 14  1  0  0  0
  3  4  1  0  0  0
  3  8  2  0  0  0
  4  5  2  0  0  0
  5  1  1  0  0  0
  5  6  1  0  0  0
  1 20  1  0  0  0
 20 21  1  0  0  0
 20 25  2  0  0  0
 21 22  2  0  0  0
 22 23  1  0  0  0
 23 24  2  0  0  0
 24 26  1  0  0  0
 24 25  1  0  0  0
 26 27  1  0  0  0
 26 35  1  0  0  0
 27 28  1  0  0  0
 28 29  1  0  0  0
 29 30  1  0  0  0
 30 31  1  0  0  0
 30 34  1  0  0  0
 31 32  1  0  0  0
 31 33  2  0  0  0
 34 35  1  0  0  0
  6  7  2  0  0  0
  7  8  1  0  0  0
  8 18  1  0  0  0
 18 19  3  0  0  0
 16 17  1  0  0  0
  1  2  1  0  0  0
M  END
> <minimizedAffinity>
-9.29769

$$$$
4BCO_T6Q_A_1299


 35 38  0  0  0  0  0  0  0  0999 V2000
   -6.5036   25.4313  -25.0026 N   0  0  0  0  0  0  0  0  0  0  0  0
   -7.1248   26.1574  -24.7659 H   0  0  0  0  0  0  0  0  0  0  0  0
   -4.7603   25.9759  -28.2236 C   0  0  0  0  0  0  0  0  0  0  0  0
   -5.7302   25.7574  -27.3030 N   0  0  0  0  0  0  0  0  0  0  0  0
   -5.4389   25.6973  -25.9692 C   0  0  0  0  0  0  0  0  0  0  0  0
   -4.1851   25.8727  -25.5234 N   0  0  0  0  0  0  0  0  0  0  0  0
   -3.1675   26.1257  -26.4038 C   0  0  0  0  0  0  0  0  0  0  0  0
   -3.4506   26.1942  -27.7689 C   0  0  0  0  0  0  0  0  0  0  0  0
   -5.7520   26.9734  -31.9203 C   0  0  0  0  0  0  0  0  0  0  0  0
   -5.4364   25.6546  -31.8768 N   0  0  0  0  0  0  0  0  0  0  0  0
   -5.0860   25.1575  -30.6760 C   0  0  0  0  0  0  0  0  0  0  0  0
   -4.7358   23.6830  -30.5557 C   0  0  0  0  0  0  0  0  0  0  0  0
   -5.1003   26.0848  -29.6016 C   0  0  0  0  0  0  0  0  0  0  0  0
   -5.5920   27.5780  -30.3043 S   0  0  0  0  0  0  0  0  0  0  0  0
   -7.2683   28.6330  -32.9586 C   0  0  0  0  0  0  0  0  0  0  0  0
   -6.1416   27.7136  -33.0620 N   0  0  0  0  0  0  0  0  0  0  0  0
   -5.6587   27.6093  -33.9136 H   0  0  0  0  0  0  0  0  0  0  0  0
   -2.3599   26.4824  -28.7058 C   0  0  0  0  0  0  0  0  0  0  0  0
   -1.5063   26.7034  -29.4289 N   0  0  0  0  0  0  0  0  0  0  0  0
   -6.6742   24.1246  -24.3783 C   0  0  0  0  0  0  0  0  0  0  0  0
   -7.5895   23.1886  -24.8854 C   0  0  0  0  0  0  0  0  0  0  0  0
   -7.7298   21.9446  -24.2683 C   0  0  0  0  0  0  0  0  0  0  0  0
   -6.9457   21.6216  -23.1199 C   0  0  0  0  0  0  0  0  0  0  0  0
   -6.0336   22.5536  -22.6231 C   0  0  0  0  0  0  0  0  0  0  0  0
   -5.8984   23.8002  -23.2413 C   0  0  0  0  0  0  0  0  0  0  0  0
   -5.2188   22.2274  -21.4362 N   0  0  0  0  0  0  0  0  0  0  0  0
   -5.0979   20.7905  -21.4023 C   0  0  0  0  0  0  0  0  0  0  0  0
   -3.7063   20.2756  -21.3351 C   0  0  0  0  0  0  0  0  0  0  0  0
   -2.8015   20.8242  -22.3859 C   0  0  0  0  0  0  0  0  0  0  0  0
   -2.2769   22.1048  -22.0512 N   0  0  0  0  0  0  0  0  0  0  0  0
   -0.8286   22.2448  -22.0763 C   0  0  0  0  0  0  0  0  0  0  0  0
   -0.1884   23.5696  -21.7269 C   0  0  0  0  0  0  0  0  0  0  0  0
   -0.1216   21.2857  -22.3780 O   0  0  0  0  0  0  0  0  0  0  0  0
   -3.0100   23.2798  -21.6793 C   0  0  0  0  0  0  0  0  0  0  0  0
   -4.1642   22.9457  -20.7742 C   0  0  0  0  0  0  0  0  0  0  0  0
 15 16  1  0  0  0
 16  9  1  0  0  0
  9 10  2  0  0  0
  9 14  1  0  0  0
 10 11  1  0  0  0
 11 12  1  0  0  0
 11 13  2  0  0  0
 13  3  1  0  0  0
 13 14  1  0  0  0
  3  4  1  0  0  0
  3  8  2  0  0  0
  4  5  2  0  0  0
  5  1  1  0  0  0
  5  6  1  0  0  0
  1 20  1  0  0  0
 20 21  1  0  0  0
 20 25  2  0  0  0
 21 22  2  0  0  0
 22 23  1  0  0  0
 23 24  2  0  0  0
 24 26  1  0  0  0
 24 25  1  0  0  0
 26 27  1  0  0  0
 26 35  1  0  0  0
 27 28  1  0  0  0
 28 29  1  0  0  0
 29 30  1  0  0  0
 30 31  1  0  0  0
 30 34  1  0  0  0
 31 32  1  0  0  0
 31 33  2  0  0  0
 34 35  1  0  0  0
  6  7  2  0  0  0
  7  8  1  0  0  0
  8 18  1  0  0  0
 18 19  3  0  0  0
 16 17  1  0  0  0
  1  2  1  0  0  0
M  END
> <minimizedAffinity>
-9.27852

$$$$
4BCO_T6Q_A_1299


 35 38  0  0  0  0  0  0  0  0999 V2000
   -7.1158   24.0110  -25.3292 N   0  0  0  0  0  0  0  0  0  0  0  0
   -7.9596   24.1948  -25.8019 H   0  0  0  0  0  0  0  0  0  0  0  0
   -5.9507   21.8350  -22.5692 C   0  0  0  0  0  0  0  0  0  0  0  0
   -6.0274   22.8406  -23.4739 N   0  0  0  0  0  0  0  0  0  0  0  0
   -7.0765   22.9300  -24.3451 C   0  0  0  0  0  0  0  0  0  0  0  0
   -8.0773   22.0360  -24.3212 N   0  0  0  0  0  0  0  0  0  0  0  0
   -8.0698   21.0142  -23.4100 C   0  0  0  0  0  0  0  0  0  0  0  0
   -7.0070   20.9126  -22.5109 C   0  0  0  0  0  0  0  0  0  0  0  0
   -3.4239   22.0013  -19.5308 C   0  0  0  0  0  0  0  0  0  0  0  0
   -2.8399   21.3533  -20.5699 N   0  0  0  0  0  0  0  0  0  0  0  0
   -3.5747   21.2247  -21.6903 C   0  0  0  0  0  0  0  0  0  0  0  0
   -2.9731   20.5225  -22.8970 C   0  0  0  0  0  0  0  0  0  0  0  0
   -4.8731   21.7959  -21.6399 C   0  0  0  0  0  0  0  0  0  0  0  0
   -5.0048   22.4720  -20.0618 S   0  0  0  0  0  0  0  0  0  0  0  0
   -1.4026   22.2217  -18.1177 C   0  0  0  0  0  0  0  0  0  0  0  0
   -2.8532   22.2506  -18.2599 N   0  0  0  0  0  0  0  0  0  0  0  0
   -3.4274   22.4407  -17.4832 H   0  0  0  0  0  0  0  0  0  0  0  0
   -7.0126   19.8262  -21.5259 C   0  0  0  0  0  0  0  0  0  0  0  0
   -7.0095   18.9791  -20.7625 N   0  0  0  0  0  0  0  0  0  0  0  0
   -5.9448   24.8254  -25.6325 C   0  0  0  0  0  0  0  0  0  0  0  0
   -5.2700   25.5347  -24.6263 C   0  0  0  0  0  0  0  0  0  0  0  0
   -4.1504   26.3043  -24.9460 C   0  0  0  0  0  0  0  0  0  0  0  0
   -3.6902   26.3743  -26.2955 C   0  0  0  0  0  0  0  0  0  0  0  0
   -4.3615   25.6632  -27.2909 C   0  0  0  0  0  0  0  0  0  0  0  0
   -5.4849   24.8963  -26.9680 C   0  0  0  0  0  0  0  0  0  0  0  0
   -3.8920   25.7300  -28.6888 N   0  0  0  0  0  0  0  0  0  0  0  0
   -4.8770   25.0424  -29.4871 C   0  0  0  0  0  0  0  0  0  0  0  0
   -5.4274   25.8255  -30.6229 C   0  0  0  0  0  0  0  0  0  0  0  0
   -5.9495   27.1692  -30.2411 C   0  0  0  0  0  0  0  0  0  0  0  0
   -4.9253   28.1531  -30.1411 N   0  0  0  0  0  0  0  0  0  0  0  0
   -5.1005   29.3618  -30.9323 C   0  0  0  0  0  0  0  0  0  0  0  0
   -4.0559   30.4544  -30.8898 C   0  0  0  0  0  0  0  0  0  0  0  0
   -6.0963   29.4964  -31.6401 O   0  0  0  0  0  0  0  0  0  0  0  0
   -3.7270   28.0908  -29.3558 C   0  0  0  0  0  0  0  0  0  0  0  0
   -3.1165   26.7163  -29.3903 C   0  0  0  0  0  0  0  0  0  0  0  0
 15 16  1  0  0  0
 16  9  1  0  0  0
  9 10  2  0  0  0
  9 14  1  0  0  0
 10 11  1  0  0  0
 11 12  1  0  0  0
 11 13  2  0  0  0
 13  3  1  0  0  0
 13 14  1  0  0  0
  3  4  1  0  0  0
  3  8  2  0  0  0
  4  5  2  0  0  0
  5  1  1  0  0  0
  5  6  1  0  0  0
  1 20  1  0  0  0
 20 21  1  0  0  0
 20 25  2  0  0  0
 21 22  2  0  0  0
 22 23  1  0  0  0
 23 24  2  0  0  0
 24 26  1  0  0  0
 24 25  1  0  0  0
 26 27  1  0  0  0
 26 35  1  0  0  0
 27 28  1  0  0  0
 28 29  1  0  0  0
 29 30  1  0  0  0
 30 31  1  0  0  0
 30 34  1  0  0  0
 31 32  1  0  0  0
 31 33  2  0  0  0
 34 35  1  0  0  0
  6  7  2  0  0  0
  7  8  1  0  0  0
  8 18  1  0  0  0
 18 19  3  0  0  0
 16 17  1  0  0  0
  1  2  1  0  0  0
M  END
> <minimizedAffinity>
-9.19697

$$$$
4BCO_T6Q_A_1299


 35 38  0  0  0  0  0  0  0  0999 V2000
   -7.3994   24.4424  -24.3821 N   0  0  0  0  0  0  0  0  0  0  0  0
   -8.2305   24.9696  -24.4068 H   0  0  0  0  0  0  0  0  0  0  0  0
   -6.3437   21.6166  -22.2349 C   0  0  0  0  0  0  0  0  0  0  0  0
   -6.3812   22.8197  -22.8568 N   0  0  0  0  0  0  0  0  0  0  0  0
   -7.4026   23.1469  -23.7036 C   0  0  0  0  0  0  0  0  0  0  0  0
   -8.4146   22.2956  -23.9328 N   0  0  0  0  0  0  0  0  0  0  0  0
   -8.4467   21.0765  -23.3105 C   0  0  0  0  0  0  0  0  0  0  0  0
   -7.4124   20.7300  -22.4396 C   0  0  0  0  0  0  0  0  0  0  0  0
   -3.9249   20.8914  -19.1906 C   0  0  0  0  0  0  0  0  0  0  0  0
   -3.2742   20.6422  -20.3547 N   0  0  0  0  0  0  0  0  0  0  0  0
   -3.9659   20.8544  -21.4897 C   0  0  0  0  0  0  0  0  0  0  0  0
   -3.2894   20.6092  -22.8290 C   0  0  0  0  0  0  0  0  0  0  0  0
   -5.2948   21.3227  -21.3185 C   0  0  0  0  0  0  0  0  0  0  0  0
   -5.5123   21.4421  -19.6146 S   0  0  0  0  0  0  0  0  0  0  0  0
   -1.9641   20.6729  -17.6943 C   0  0  0  0  0  0  0  0  0  0  0  0
   -3.4084   20.7373  -17.8819 N   0  0  0  0  0  0  0  0  0  0  0  0
   -4.0156   20.6745  -17.1096 H   0  0  0  0  0  0  0  0  0  0  0  0
   -7.4607   19.4301  -21.7627 C   0  0  0  0  0  0  0  0  0  0  0  0
   -7.5063   18.4202  -21.2349 N   0  0  0  0  0  0  0  0  0  0  0  0
   -6.2043   24.9781  -25.0232 C   0  0  0  0  0  0  0  0  0  0  0  0
   -5.2044   25.6230  -24.2780 C   0  0  0  0  0  0  0  0  0  0  0  0
   -4.0701   26.1238  -24.9187 C   0  0  0  0  0  0  0  0  0  0  0  0
   -3.9244   25.9840  -26.3319 C   0  0  0  0  0  0  0  0  0  0  0  0
   -4.9187   25.3374  -27.0671 C   0  0  0  0  0  0  0  0  0  0  0  0
   -6.0555   24.8403  -26.4229 C   0  0  0  0  0  0  0  0  0  0  0  0
   -4.7757   25.1884  -28.5287 N   0  0  0  0  0  0  0  0  0  0  0  0
   -4.8959   26.5113  -29.0909 C   0  0  0  0  0  0  0  0  0  0  0  0
   -3.7727   26.9284  -29.9688 C   0  0  0  0  0  0  0  0  0  0  0  0
   -2.4248   26.7739  -29.3498 C   0  0  0  0  0  0  0  0  0  0  0  0
   -1.9217   25.4453  -29.4435 N   0  0  0  0  0  0  0  0  0  0  0  0
   -0.6108   25.2843  -30.0545 C   0  0  0  0  0  0  0  0  0  0  0  0
   -0.0056   23.9061  -30.1997 C   0  0  0  0  0  0  0  0  0  0  0  0
    0.0065   26.2678  -30.4575 O   0  0  0  0  0  0  0  0  0  0  0  0
   -2.5615   24.2359  -29.0139 C   0  0  0  0  0  0  0  0  0  0  0  0
   -4.0331   24.2504  -29.3256 C   0  0  0  0  0  0  0  0  0  0  0  0
 15 16  1  0  0  0
 16  9  1  0  0  0
  9 10  2  0  0  0
  9 14  1  0  0  0
 10 11  1  0  0  0
 11 12  1  0  0  0
 11 13  2  0  0  0
 13  3  1  0  0  0
 13 14  1  0  0  0
  3  4  1  0  0  0
  3  8  2  0  0  0
  4  5  2  0  0  0
  5  1  1  0  0  0
  5  6  1  0  0  0
  1 20  1  0  0  0
 20 21  1  0  0  0
 20 25  2  0  0  0
 21 22  2  0  0  0
 22 23  1  0  0  0
 23 24  2  0  0  0
 24 26  1  0  0  0
 24 25  1  0  0  0
 26 27  1  0  0  0
 26 35  1  0  0  0
 27 28  1  0  0  0
 28 29  1  0  0  0
 29 30  1  0  0  0
 30 31  1  0  0  0
 30 34  1  0  0  0
 31 32  1  0  0  0
 31 33  2  0  0  0
 34 35  1  0  0  0
  6  7  2  0  0  0
  7  8  1  0  0  0
  8 18  1  0  0  0
 18 19  3  0  0  0
 16 17  1  0  0  0
  1  2  1  0  0  0
M  END
> <minimizedAffinity>
-9.17260

$$$$
4BCO_T6Q_A_1299


 35 38  0  0  0  0  0  0  0  0999 V2000
   -3.9097   25.1128  -22.6027 N   0  0  0  0  0  0  0  0  0  0  0  0
   -3.8097   26.0668  -22.3808 H   0  0  0  0  0  0  0  0  0  0  0  0
   -1.3991   22.9454  -20.9567 C   0  0  0  0  0  0  0  0  0  0  0  0
   -2.4664   23.7535  -21.1655 N   0  0  0  0  0  0  0  0  0  0  0  0
   -2.7678   24.2187  -22.4145 C   0  0  0  0  0  0  0  0  0  0  0  0
   -2.0289   23.8749  -23.4809 N   0  0  0  0  0  0  0  0  0  0  0  0
   -0.9552   23.0376  -23.3370 C   0  0  0  0  0  0  0  0  0  0  0  0
   -0.6376   22.5511  -22.0678 C   0  0  0  0  0  0  0  0  0  0  0  0
   -1.2563   21.1323  -17.4444 C   0  0  0  0  0  0  0  0  0  0  0  0
   -0.1399   21.8849  -17.6106 N   0  0  0  0  0  0  0  0  0  0  0  0
   -0.0450   22.5774  -18.7609 C   0  0  0  0  0  0  0  0  0  0  0  0
    1.1740   23.4531  -19.0027 C   0  0  0  0  0  0  0  0  0  0  0  0
   -1.1390   22.4342  -19.6538 C   0  0  0  0  0  0  0  0  0  0  0  0
   -2.2270   21.3603  -18.8615 S   0  0  0  0  0  0  0  0  0  0  0  0
   -0.4906   19.6764  -15.5936 C   0  0  0  0  0  0  0  0  0  0  0  0
   -1.5722   20.3208  -16.3286 N   0  0  0  0  0  0  0  0  0  0  0  0
   -2.5086   20.1935  -16.0528 H   0  0  0  0  0  0  0  0  0  0  0  0
    0.5030   21.6410  -21.9221 C   0  0  0  0  0  0  0  0  0  0  0  0
    1.3849   20.9269  -21.8094 N   0  0  0  0  0  0  0  0  0  0  0  0
   -5.1916   24.6362  -23.1085 C   0  0  0  0  0  0  0  0  0  0  0  0
   -6.1407   25.5235  -23.6403 C   0  0  0  0  0  0  0  0  0  0  0  0
   -7.3585   25.0381  -24.1192 C   0  0  0  0  0  0  0  0  0  0  0  0
   -7.6432   23.6402  -24.0677 C   0  0  0  0  0  0  0  0  0  0  0  0
   -6.6942   22.7619  -23.5429 C   0  0  0  0  0  0  0  0  0  0  0  0
   -5.4769   23.2518  -23.0604 C   0  0  0  0  0  0  0  0  0  0  0  0
   -6.9806   21.3149  -23.4862 N   0  0  0  0  0  0  0  0  0  0  0  0
   -5.7977   20.6817  -22.9568 C   0  0  0  0  0  0  0  0  0  0  0  0
   -6.0219   19.8178  -21.7695 C   0  0  0  0  0  0  0  0  0  0  0  0
   -6.7648   20.4844  -20.6616 C   0  0  0  0  0  0  0  0  0  0  0  0
   -8.1752   20.4748  -20.8564 N   0  0  0  0  0  0  0  0  0  0  0  0
   -8.9797   19.9128  -19.7819 C   0  0  0  0  0  0  0  0  0  0  0  0
  -10.4854   19.8575  -19.9109 C   0  0  0  0  0  0  0  0  0  0  0  0
   -8.4374   19.4784  -18.7681 O   0  0  0  0  0  0  0  0  0  0  0  0
   -8.9031   20.9468  -21.9983 C   0  0  0  0  0  0  0  0  0  0  0  0
   -8.2053   20.5905  -23.2825 C   0  0  0  0  0  0  0  0  0  0  0  0
 15 16  1  0  0  0
 16  9  1  0  0  0
  9 10  2  0  0  0
  9 14  1  0  0  0
 10 11  1  0  0  0
 11 12  1  0  0  0
 11 13  2  0  0  0
 13  3  1  0  0  0
 13 14  1  0  0  0
  3  4  1  0  0  0
  3  8  2  0  0  0
  4  5  2  0  0  0
  5  1  1  0  0  0
  5  6  1  0  0  0
  1 20  1  0  0  0
 20 21  1  0  0  0
 20 25  2  0  0  0
 21 22  2  0  0  0
 22 23  1  0  0  0
 23 24  2  0  0  0
 24 26  1  0  0  0
 24 25  1  0  0  0
 26 27  1  0  0  0
 26 35  1  0  0  0
 27 28  1  0  0  0
 28 29  1  0  0  0
 29 30  1  0  0  0
 30 31  1  0  0  0
 30 34  1  0  0  0
 31 32  1  0  0  0
 31 33  2  0  0  0
 34 35  1  0  0  0
  6  7  2  0  0  0
  7  8  1  0  0  0
  8 18  1  0  0  0
 18 19  3  0  0  0
 16 17  1  0  0  0
  1  2  1  0  0  0
M  END
> <minimizedAffinity>
-8.93456

$$$$
4BCO_T6Q_A_1299


 35 38  0  0  0  0  0  0  0  0999 V2000
   -4.2365   25.6559  -23.1742 N   0  0  0  0  0  0  0  0  0  0  0  0
   -4.1113   26.5813  -22.8625 H   0  0  0  0  0  0  0  0  0  0  0  0
   -4.7570   22.6995  -21.0065 C   0  0  0  0  0  0  0  0  0  0  0  0
   -4.9737   23.7119  -21.8805 N   0  0  0  0  0  0  0  0  0  0  0  0
   -3.9640   24.5548  -22.2511 C   0  0  0  0  0  0  0  0  0  0  0  0
   -2.7181   24.3967  -21.7778 N   0  0  0  0  0  0  0  0  0  0  0  0
   -2.4315   23.3738  -20.9139 C   0  0  0  0  0  0  0  0  0  0  0  0
   -3.4517   22.5023  -20.5296 C   0  0  0  0  0  0  0  0  0  0  0  0
   -7.5646   19.9275  -20.7277 C   0  0  0  0  0  0  0  0  0  0  0  0
   -7.4632   20.5889  -19.5475 N   0  0  0  0  0  0  0  0  0  0  0  0
   -6.5517   21.5775  -19.4864 C   0  0  0  0  0  0  0  0  0  0  0  0
   -6.3988   22.3687  -18.1973 C   0  0  0  0  0  0  0  0  0  0  0  0
   -5.8150   21.8056  -20.6780 C   0  0  0  0  0  0  0  0  0  0  0  0
   -6.4170   20.6517  -21.8054 S   0  0  0  0  0  0  0  0  0  0  0  0
   -7.9016   17.6545  -21.6503 C   0  0  0  0  0  0  0  0  0  0  0  0
   -8.4405   18.8565  -21.0256 N   0  0  0  0  0  0  0  0  0  0  0  0
   -9.3998   18.9222  -20.8140 H   0  0  0  0  0  0  0  0  0  0  0  0
   -3.1355   21.3983  -19.6177 C   0  0  0  0  0  0  0  0  0  0  0  0
   -2.8960   20.5355  -18.9115 N   0  0  0  0  0  0  0  0  0  0  0  0
   -4.6878   25.4265  -24.5417 C   0  0  0  0  0  0  0  0  0  0  0  0
   -5.9414   24.8537  -24.8090 C   0  0  0  0  0  0  0  0  0  0  0  0
   -6.3477   24.6481  -26.1283 C   0  0  0  0  0  0  0  0  0  0  0  0
   -5.4902   25.0171  -27.2083 C   0  0  0  0  0  0  0  0  0  0  0  0
   -4.2474   25.5910  -26.9372 C   0  0  0  0  0  0  0  0  0  0  0  0
   -3.8418   25.7920  -25.6145 C   0  0  0  0  0  0  0  0  0  0  0  0
   -3.3548   25.9756  -28.0482 N   0  0  0  0  0  0  0  0  0  0  0  0
   -2.7914   24.7528  -28.5656 C   0  0  0  0  0  0  0  0  0  0  0  0
   -2.9701   24.5436  -30.0252 C   0  0  0  0  0  0  0  0  0  0  0  0
   -4.3802   24.6757  -30.4922 C   0  0  0  0  0  0  0  0  0  0  0  0
   -4.7691   26.0290  -30.7024 N   0  0  0  0  0  0  0  0  0  0  0  0
   -5.3063   26.3586  -32.0141 C   0  0  0  0  0  0  0  0  0  0  0  0
   -5.7370   27.7748  -32.3236 C   0  0  0  0  0  0  0  0  0  0  0  0
   -5.4081   25.4875  -32.8752 O   0  0  0  0  0  0  0  0  0  0  0  0
   -4.6847   27.1174  -29.7724 C   0  0  0  0  0  0  0  0  0  0  0  0
   -3.4063   27.0680  -28.9810 C   0  0  0  0  0  0  0  0  0  0  0  0
 15 16  1  0  0  0
 16  9  1  0  0  0
  9 10  2  0  0  0
  9 14  1  0  0  0
 10 11  1  0  0  0
 11 12  1  0  0  0
 11 13  2  0  0  0
 13  3  1  0  0  0
 13 14  1  0  0  0
  3  4  1  0  0  0
  3  8  2  0  0  0
  4  5  2  0  0  0
  5  1  1  0  0  0
  5  6  1  0  0  0
  1 20  1  0  0  0
 20 21  1  0  0  0
 20 25  2  0  0  0
 21 22  2  0  0  0
 22 23  1  0  0  0
 23 24  2  0  0  0
 24 26  1  0  0  0
 24 25  1  0  0  0
 26 27  1  0  0  0
 26 35  1  0  0  0
 27 28  1  0  0  0
 28 29  1  0  0  0
 29 30  1  0  0  0
 30 31  1  0  0  0
 30 34  1  0  0  0
 31 32  1  0  0  0
 31 33  2  0  0  0
 34 35  1  0  0  0
  6  7  2  0  0  0
  7  8  1  0  0  0
  8 18  1  0  0  0
 18 19  3  0  0  0
 16 17  1  0  0  0
  1  2  1  0  0  0
M  END
> <minimizedAffinity>
-8.81954

$$$$
4BCO_T6Q_A_1299


 35 38  0  0  0  0  0  0  0  0999 V2000
   -5.9089   25.6751  -25.0384 N   0  0  0  0  0  0  0  0  0  0  0  0
   -6.6999   26.2388  -24.8774 H   0  0  0  0  0  0  0  0  0  0  0  0
   -3.8043   26.7884  -27.8741 C   0  0  0  0  0  0  0  0  0  0  0  0
   -4.3916   26.7141  -26.6554 N   0  0  0  0  0  0  0  0  0  0  0  0
   -5.2693   25.7113  -26.3530 C   0  0  0  0  0  0  0  0  0  0  0  0
   -5.5644   24.7537  -27.2460 N   0  0  0  0  0  0  0  0  0  0  0  0
   -4.9800   24.7593  -28.4841 C   0  0  0  0  0  0  0  0  0  0  0  0
   -4.0782   25.7750  -28.8058 C   0  0  0  0  0  0  0  0  0  0  0  0
   -0.6936   29.1827  -28.3585 C   0  0  0  0  0  0  0  0  0  0  0  0
   -1.7883   29.7415  -28.9330 N   0  0  0  0  0  0  0  0  0  0  0  0
   -2.9379   29.0473  -28.8421 C   0  0  0  0  0  0  0  0  0  0  0  0
   -4.2052   29.6254  -29.4513 C   0  0  0  0  0  0  0  0  0  0  0  0
   -2.8550   27.8142  -28.1440 C   0  0  0  0  0  0  0  0  0  0  0  0
   -1.2085   27.6840  -27.6574 S   0  0  0  0  0  0  0  0  0  0  0  0
    1.5843   29.2737  -29.3252 C   0  0  0  0  0  0  0  0  0  0  0  0
    0.6156   29.7197  -28.3312 N   0  0  0  0  0  0  0  0  0  0  0  0
    0.8685   30.3848  -27.6508 H   0  0  0  0  0  0  0  0  0  0  0  0
   -3.4422   25.7666  -30.1271 C   0  0  0  0  0  0  0  0  0  0  0  0
   -2.9474   25.7517  -31.1544 N   0  0  0  0  0  0  0  0  0  0  0  0
   -5.4122   24.8306  -23.9583 C   0  0  0  0  0  0  0  0  0  0  0  0
   -4.5909   25.3507  -22.9454 C   0  0  0  0  0  0  0  0  0  0  0  0
   -4.1323   24.5188  -21.9229 C   0  0  0  0  0  0  0  0  0  0  0  0
   -4.4946   23.1381  -21.9051 C   0  0  0  0  0  0  0  0  0  0  0  0
   -5.3156   22.6275  -22.9114 C   0  0  0  0  0  0  0  0  0  0  0  0
   -5.7700   23.4625  -23.9364 C   0  0  0  0  0  0  0  0  0  0  0  0
   -5.6950   21.2010  -22.9003 N   0  0  0  0  0  0  0  0  0  0  0  0
   -4.8195   20.5496  -21.9571 C   0  0  0  0  0  0  0  0  0  0  0  0
   -5.5044   19.7716  -20.8933 C   0  0  0  0  0  0  0  0  0  0  0  0
   -6.5477   20.5379  -20.1530 C   0  0  0  0  0  0  0  0  0  0  0  0
   -7.7950   20.5791  -20.8383 N   0  0  0  0  0  0  0  0  0  0  0  0
   -8.9622   20.1210  -20.0997 C   0  0  0  0  0  0  0  0  0  0  0  0
  -10.3247   20.1250  -20.7557 C   0  0  0  0  0  0  0  0  0  0  0  0
   -8.8432   19.7263  -18.9418 O   0  0  0  0  0  0  0  0  0  0  0  0
   -8.0393   21.0116  -22.1835 C   0  0  0  0  0  0  0  0  0  0  0  0
   -6.9559   20.5458  -23.1175 C   0  0  0  0  0  0  0  0  0  0  0  0
 15 16  1  0  0  0
 16  9  1  0  0  0
  9 10  2  0  0  0
  9 14  1  0  0  0
 10 11  1  0  0  0
 11 12  1  0  0  0
 11 13  2  0  0  0
 13  3  1  0  0  0
 13 14  1  0  0  0
  3  4  1  0  0  0
  3  8  2  0  0  0
  4  5  2  0  0  0
  5  1  1  0  0  0
  5  6  1  0  0  0
  1 20  1  0  0  0
 20 21  1  0  0  0
 20 25  2  0  0  0
 21 22  2  0  0  0
 22 23  1  0  0  0
 23 24  2  0  0  0
 24 26  1  0  0  0
 24 25  1  0  0  0
 26 27  1  0  0  0
 26 35  1  0  0  0
 27 28  1  0  0  0
 28 29  1  0  0  0
 29 30  1  0  0  0
 30 31  1  0  0  0
 30 34  1  0  0  0
 31 32  1  0  0  0
 31 33  2  0  0  0
 34 35  1  0  0  0
  6  7  2  0  0  0
  7  8  1  0  0  0
  8 18  1  0  0  0
 18 19  3  0  0  0
 16 17  1  0  0  0
  1  2  1  0  0  0
M  END
> <minimizedAffinity>
-8.68835

$$$$
4BCO_T6Q_A_1299


 35 38  0  0  0  0  0  0  0  0999 V2000
   -4.0822   26.2487  -24.8034 N   0  0  0  0  0  0  0  0  0  0  0  0
   -3.9706   27.1058  -24.3319 H   0  0  0  0  0  0  0  0  0  0  0  0
   -3.5602   26.0777  -28.4652 C   0  0  0  0  0  0  0  0  0  0  0  0
   -4.1318   26.2681  -27.2516 N   0  0  0  0  0  0  0  0  0  0  0  0
   -3.4283   26.0627  -26.0982 C   0  0  0  0  0  0  0  0  0  0  0  0
   -2.1407   25.6847  -26.1279 N   0  0  0  0  0  0  0  0  0  0  0  0
   -1.5006   25.5047  -27.3247 C   0  0  0  0  0  0  0  0  0  0  0  0
   -2.2052   25.7150  -28.5111 C   0  0  0  0  0  0  0  0  0  0  0  0
   -5.4526   27.5082  -31.6301 C   0  0  0  0  0  0  0  0  0  0  0  0
   -5.4649   26.1522  -31.6704 N   0  0  0  0  0  0  0  0  0  0  0  0
   -4.8656   25.5129  -30.6486 C   0  0  0  0  0  0  0  0  0  0  0  0
   -4.8579   23.9928  -30.6253 C   0  0  0  0  0  0  0  0  0  0  0  0
   -4.3013   26.3489  -29.6500 C   0  0  0  0  0  0  0  0  0  0  0  0
   -4.6267   27.9564  -30.1742 S   0  0  0  0  0  0  0  0  0  0  0  0
   -5.4927   29.7485  -32.6842 C   0  0  0  0  0  0  0  0  0  0  0  0
   -6.0100   28.3889  -32.5877 N   0  0  0  0  0  0  0  0  0  0  0  0
   -6.7365   28.0878  -33.1799 H   0  0  0  0  0  0  0  0  0  0  0  0
   -1.5098   25.5374  -29.7900 C   0  0  0  0  0  0  0  0  0  0  0  0
   -0.9642   25.3935  -30.7810 N   0  0  0  0  0  0  0  0  0  0  0  0
   -4.8941   25.2052  -24.1886 C   0  0  0  0  0  0  0  0  0  0  0  0
   -6.2304   25.0029  -24.5684 C   0  0  0  0  0  0  0  0  0  0  0  0
   -6.9827   23.9945  -23.9640 C   0  0  0  0  0  0  0  0  0  0  0  0
   -6.3971   23.1686  -22.9576 C   0  0  0  0  0  0  0  0  0  0  0  0
   -5.0668   23.3705  -22.5876 C   0  0  0  0  0  0  0  0  0  0  0  0
   -4.3173   24.3839  -23.1922 C   0  0  0  0  0  0  0  0  0  0  0  0
   -4.4537   22.5207  -21.5480 N   0  0  0  0  0  0  0  0  0  0  0  0
   -4.5087   21.1656  -22.0389 C   0  0  0  0  0  0  0  0  0  0  0  0
   -3.2076   20.4495  -22.0627 C   0  0  0  0  0  0  0  0  0  0  0  0
   -2.1182   21.1870  -22.7650 C   0  0  0  0  0  0  0  0  0  0  0  0
   -1.4927   22.1661  -21.9422 N   0  0  0  0  0  0  0  0  0  0  0  0
   -0.0467   22.0776  -21.8049 C   0  0  0  0  0  0  0  0  0  0  0  0
    0.6960   23.0742  -20.9434 C   0  0  0  0  0  0  0  0  0  0  0  0
    0.5746   21.1904  -22.3860 O   0  0  0  0  0  0  0  0  0  0  0  0
   -2.1232   23.2315  -21.2182 C   0  0  0  0  0  0  0  0  0  0  0  0
   -3.4143   22.7824  -20.5902 C   0  0  0  0  0  0  0  0  0  0  0  0
 15 16  1  0  0  0
 16  9  1  0  0  0
  9 10  2  0  0  0
  9 14  1  0  0  0
 10 11  1  0  0  0
 11 12  1  0  0  0
 11 13  2  0  0  0
 13  3  1  0  0  0
 13 14  1  0  0  0
  3  4  1  0  0  0
  3  8  2  0  0  0
  4  5  2  0  0  0
  5  1  1  0  0  0
  5  6  1  0  0  0
  1 20  1  0  0  0
 20 21  1  0  0  0
 20 25  2  0  0  0
 21 22  2  0  0  0
 22 23  1  0  0  0
 23 24  2  0  0  0
 24 26  1  0  0  0
 24 25  1  0  0  0
 26 27  1  0  0  0
 26 35  1  0  0  0
 27 28  1  0  0  0
 28 29  1  0  0  0
 29 30  1  0  0  0
 30 31  1  0  0  0
 30 34  1  0  0  0
 31 32  1  0  0  0
 31 33  2  0  0  0
 34 35  1  0  0  0
  6  7  2  0  0  0
  7  8  1  0  0  0
  8 18  1  0  0  0
 18 19  3  0  0  0
 16 17  1  0  0  0
  1  2  1  0  0  0
M  END
> <minimizedAffinity>
-8.37264

$$$$
