1D3P_BT3_B_400


 40 45  0  0  0  0  0  0  0  0999 V2000
  -23.8322  -31.1337   23.6717 C   0  0  0  0  0  0  0  0  0  0  0  0
  -24.0632  -32.2694   22.6913 C   0  0  0  0  0  0  0  0  0  0  0  0
  -23.0803  -32.4949   21.6107 C   0  0  0  0  0  0  0  0  0  0  0  0
  -21.8825  -31.6091   21.4559 C   0  0  0  0  0  0  0  0  0  0  0  0
  -21.6722  -30.4970   22.3744 C   0  0  0  0  0  0  0  0  0  0  0  0
  -22.6381  -30.2464   23.5118 C   0  0  0  0  0  0  0  0  0  0  0  0
  -22.9949  -33.7443   20.4562 S   0  0  0  0  0  0  0  0  0  0  0  0
  -21.5603  -33.2173   19.7203 C   0  0  0  0  0  0  0  0  0  0  0  0
  -21.0340  -32.0634   20.4004 C   0  0  0  0  0  0  0  0  0  0  0  0
  -24.6258  -31.0102   24.7971 O   0  0  0  0  0  0  0  0  0  0  0  0
  -25.3753  -31.5621   24.9047 H   0  0  0  0  0  0  0  0  0  0  0  0
  -20.9307  -33.9471   18.5928 C   0  0  0  0  0  0  0  0  0  0  0  0
  -20.8074  -35.4256   18.5570 C   0  0  0  0  0  0  0  0  0  0  0  0
  -20.2895  -36.1173   17.3252 C   0  0  0  0  0  0  0  0  0  0  0  0
  -19.8648  -35.1872   16.1836 C   0  0  0  0  0  0  0  0  0  0  0  0
  -20.0217  -33.7806   16.2377 N   0  0  0  0  0  0  0  0  0  0  0  0
  -20.5269  -33.1671   17.3986 C   0  0  0  0  0  0  0  0  0  0  0  0
  -19.0160  -35.7026   15.2925 O   0  0  0  0  0  0  0  0  0  0  0  0
  -18.3329  -34.6236   14.5106 C   0  0  0  0  0  0  0  0  0  0  0  0
  -18.4605  -34.9872   13.0209 C   0  0  0  0  0  0  0  0  0  0  0  0
  -20.1081  -33.4874   12.5927 C   0  0  0  0  0  0  0  0  0  0  0  0
  -18.6084  -33.6233   12.3795 N   0  0  0  0  0  0  0  0  0  0  0  0
  -18.2297  -33.3232   10.9276 C   0  0  0  0  0  0  0  0  0  0  0  0
  -19.3419  -32.3349   10.5564 C   0  0  0  0  0  0  0  0  0  0  0  0
  -20.3293  -32.2571   11.7270 C   0  0  0  0  0  0  0  0  0  0  0  0
  -19.5648  -31.6046   20.2579 C   0  0  0  0  0  0  0  0  0  0  0  0
  -18.5783  -33.4549   22.0203 C   0  0  0  0  0  0  0  0  0  0  0  0
  -18.3953  -32.4493   20.9004 C   0  0  0  0  0  0  0  0  0  0  0  0
  -16.9850  -32.2827   20.3720 C   0  0  0  0  0  0  0  0  0  0  0  0
  -15.8547  -33.1594   20.8919 C   0  0  0  0  0  0  0  0  0  0  0  0
  -16.1476  -34.2203   21.9208 C   0  0  0  0  0  0  0  0  0  0  0  0
  -17.4758  -34.2846   22.5452 C   0  0  0  0  0  0  0  0  0  0  0  0
  -15.1742  -35.1795   22.1209 O   0  0  0  0  0  0  0  0  0  0  0  0
  -15.2133  -36.2692   23.0809 C   0  0  0  0  0  0  0  0  0  0  0  0
  -14.3935  -36.0573   24.3559 C   0  0  0  0  0  0  0  0  0  0  0  0
  -14.5888  -34.4220   27.4776 C   0  0  0  0  0  0  0  0  0  0  0  0
  -14.1534  -33.3524   26.5246 C   0  0  0  0  0  0  0  0  0  0  0  0
  -14.4589  -33.8204   25.0988 C   0  0  0  0  0  0  0  0  0  0  0  0
  -15.0696  -35.1652   25.3402 N   0  0  0  0  0  0  0  0  0  0  0  0
  -14.7698  -35.7048   26.7099 C   0  0  0  0  0  0  0  0  0  0  0  0
  1  2  2  0  0  0
  1  6  1  0  0  0
  1 10  1  0  0  0
  2  3  1  0  0  0
  3  4  2  0  0  0
  3  7  1  0  0  0
  4  5  1  0  0  0
  4  9  1  0  0  0
  5  6  2  0  0  0
  7  8  1  0  0  0
  8  9  2  0  0  0
  8 12  1  0  0  0
  9 26  1  0  0  0
 26 28  1  0  0  0
 12 13  2  0  0  0
 12 17  1  0  0  0
 13 14  1  0  0  0
 14 15  2  0  0  0
 15 16  1  0  0  0
 15 18  1  0  0  0
 16 17  2  0  0  0
 18 19  1  0  0  0
 19 20  1  0  0  0
 27 28  2  0  0  0
 27 32  1  0  0  0
 28 29  1  0  0  0
 29 30  2  0  0  0
 30 31  1  0  0  0
 31 32  2  0  0  0
 31 33  1  0  0  0
 33 34  1  0  0  0
 34 35  1  0  0  0
 36 37  1  0  0  0
 36 40  1  0  0  0
 37 38  1  0  0  0
 38 39  1  0  0  0
 39 40  1  0  0  0
 39 35  1  0  0  0
 21 22  1  0  0  0
 21 25  1  0  0  0
 22 23  1  0  0  0
 22 20  1  0  0  0
 23 24  1  0  0  0
 24 25  1  0  0  0
 10 11  1  0  0  0
M  END
> <minimizedAffinity>
-9.85734

$$$$
1D3P_BT3_B_400


 40 45  0  0  0  0  0  0  0  0999 V2000
  -23.9317  -31.4100   23.6306 C   0  0  0  0  0  0  0  0  0  0  0  0
  -24.1204  -32.5378   22.6322 C   0  0  0  0  0  0  0  0  0  0  0  0
  -23.1314  -32.7077   21.5470 C   0  0  0  0  0  0  0  0  0  0  0  0
  -21.9690  -31.7739   21.4053 C   0  0  0  0  0  0  0  0  0  0  0  0
  -21.8001  -30.6696   22.3414 C   0  0  0  0  0  0  0  0  0  0  0  0
  -22.7730  -30.4748   23.4838 C   0  0  0  0  0  0  0  0  0  0  0  0
  -22.9998  -33.9341   20.3723 S   0  0  0  0  0  0  0  0  0  0  0  0
  -21.5880  -33.3403   19.6435 C   0  0  0  0  0  0  0  0  0  0  0  0
  -21.1053  -32.1780   20.3416 C   0  0  0  0  0  0  0  0  0  0  0  0
  -24.7275  -31.3354   24.7587 O   0  0  0  0  0  0  0  0  0  0  0  0
  -25.4550  -31.9175   24.8582 H   0  0  0  0  0  0  0  0  0  0  0  0
  -20.9326  -34.0269   18.5036 C   0  0  0  0  0  0  0  0  0  0  0  0
  -20.7801  -35.5013   18.4293 C   0  0  0  0  0  0  0  0  0  0  0  0
  -20.2361  -36.1491   17.1850 C   0  0  0  0  0  0  0  0  0  0  0  0
  -19.8178  -35.1804   16.0736 C   0  0  0  0  0  0  0  0  0  0  0  0
  -20.0026  -33.7791   16.1639 N   0  0  0  0  0  0  0  0  0  0  0  0
  -20.5317  -33.2072   17.3354 C   0  0  0  0  0  0  0  0  0  0  0  0
  -18.9500  -35.6550   15.1782 O   0  0  0  0  0  0  0  0  0  0  0  0
  -18.4429  -34.5639   14.2868 C   0  0  0  0  0  0  0  0  0  0  0  0
  -18.2047  -35.1815   12.8976 C   0  0  0  0  0  0  0  0  0  0  0  0
  -16.9958  -34.5197   11.0954 C   0  0  0  0  0  0  0  0  0  0  0  0
  -16.7956  -34.7196   12.5897 N   0  0  0  0  0  0  0  0  0  0  0  0
  -15.5475  -35.5594   12.8700 C   0  0  0  0  0  0  0  0  0  0  0  0
  -14.6927  -35.1890   11.6520 C   0  0  0  0  0  0  0  0  0  0  0  0
  -15.5373  -34.3150   10.7170 C   0  0  0  0  0  0  0  0  0  0  0  0
  -19.6552  -31.6607   20.2050 C   0  0  0  0  0  0  0  0  0  0  0  0
  -17.0100  -32.3584   20.3408 C   0  0  0  0  0  0  0  0  0  0  0  0
  -18.4492  -32.4887   20.7997 C   0  0  0  0  0  0  0  0  0  0  0  0
  -18.7094  -33.4751   21.9202 C   0  0  0  0  0  0  0  0  0  0  0  0
  -17.5560  -34.2076   22.5903 C   0  0  0  0  0  0  0  0  0  0  0  0
  -16.1414  -33.9279   22.1535 C   0  0  0  0  0  0  0  0  0  0  0  0
  -15.8945  -33.0914   20.9715 C   0  0  0  0  0  0  0  0  0  0  0  0
  -15.1331  -34.3682   22.9885 O   0  0  0  0  0  0  0  0  0  0  0  0
  -15.1761  -35.5247   23.8666 C   0  0  0  0  0  0  0  0  0  0  0  0
  -13.8182  -36.0363   24.3536 C   0  0  0  0  0  0  0  0  0  0  0  0
  -13.9063  -33.7665   27.0550 C   0  0  0  0  0  0  0  0  0  0  0  0
  -14.9917  -34.7510   27.3617 C   0  0  0  0  0  0  0  0  0  0  0  0
  -14.7609  -36.0059   26.5147 C   0  0  0  0  0  0  0  0  0  0  0  0
  -13.5199  -35.6445   25.7604 N   0  0  0  0  0  0  0  0  0  0  0  0
  -13.2450  -34.1674   25.7628 C   0  0  0  0  0  0  0  0  0  0  0  0
  1  2  2  0  0  0
  1  6  1  0  0  0
  1 10  1  0  0  0
  2  3  1  0  0  0
  3  4  2  0  0  0
  3  7  1  0  0  0
  4  5  1  0  0  0
  4  9  1  0  0  0
  5  6  2  0  0  0
  7  8  1  0  0  0
  8  9  2  0  0  0
  8 12  1  0  0  0
  9 26  1  0  0  0
 26 28  1  0  0  0
 12 13  2  0  0  0
 12 17  1  0  0  0
 13 14  1  0  0  0
 14 15  2  0  0  0
 15 16  1  0  0  0
 15 18  1  0  0  0
 16 17  2  0  0  0
 18 19  1  0  0  0
 19 20  1  0  0  0
 27 28  2  0  0  0
 27 32  1  0  0  0
 28 29  1  0  0  0
 29 30  2  0  0  0
 30 31  1  0  0  0
 31 32  2  0  0  0
 31 33  1  0  0  0
 33 34  1  0  0  0
 34 35  1  0  0  0
 36 37  1  0  0  0
 36 40  1  0  0  0
 37 38  1  0  0  0
 38 39  1  0  0  0
 39 40  1  0  0  0
 39 35  1  0  0  0
 21 22  1  0  0  0
 21 25  1  0  0  0
 22 23  1  0  0  0
 22 20  1  0  0  0
 23 24  1  0  0  0
 24 25  1  0  0  0
 10 11  1  0  0  0
M  END
> <minimizedAffinity>
-9.56229

$$$$
1D3P_BT3_B_400


 40 45  0  0  0  0  0  0  0  0999 V2000
  -14.1794  -34.4525   26.9789 C   0  0  0  0  0  0  0  0  0  0  0  0
  -14.9692  -35.7485   27.0106 C   0  0  0  0  0  0  0  0  0  0  0  0
  -15.8546  -36.0765   25.8735 C   0  0  0  0  0  0  0  0  0  0  0  0
  -16.0015  -35.1428   24.7117 C   0  0  0  0  0  0  0  0  0  0  0  0
  -15.2708  -33.8818   24.6905 C   0  0  0  0  0  0  0  0  0  0  0  0
  -14.3320  -33.5183   25.8201 C   0  0  0  0  0  0  0  0  0  0  0  0
  -16.7528  -37.4899   25.5618 S   0  0  0  0  0  0  0  0  0  0  0  0
  -17.3731  -36.9876   24.0652 C   0  0  0  0  0  0  0  0  0  0  0  0
  -16.8406  -35.7016   23.6996 C   0  0  0  0  0  0  0  0  0  0  0  0
  -13.2075  -34.2034   27.9301 O   0  0  0  0  0  0  0  0  0  0  0  0
  -13.1055  -34.7836   28.6588 H   0  0  0  0  0  0  0  0  0  0  0  0
  -18.2633  -37.8453   23.2454 C   0  0  0  0  0  0  0  0  0  0  0  0
  -17.7906  -38.5919   22.0530 C   0  0  0  0  0  0  0  0  0  0  0  0
  -18.7041  -39.5565   21.3467 C   0  0  0  0  0  0  0  0  0  0  0  0
  -20.1246  -39.6463   21.9149 C   0  0  0  0  0  0  0  0  0  0  0  0
  -20.5368  -38.9416   23.0722 N   0  0  0  0  0  0  0  0  0  0  0  0
  -19.6510  -38.0612   23.7200 C   0  0  0  0  0  0  0  0  0  0  0  0
  -21.0582  -40.1195   21.0874 O   0  0  0  0  0  0  0  0  0  0  0  0
  -21.2279  -39.2263   19.8976 C   0  0  0  0  0  0  0  0  0  0  0  0
  -22.4124  -38.2898   20.1936 C   0  0  0  0  0  0  0  0  0  0  0  0
  -22.7614  -36.2420   19.2814 C   0  0  0  0  0  0  0  0  0  0  0  0
  -21.7450  -36.9304   20.1791 N   0  0  0  0  0  0  0  0  0  0  0  0
  -20.3185  -36.6911   19.6795 C   0  0  0  0  0  0  0  0  0  0  0  0
  -20.4932  -35.3248   19.0057 C   0  0  0  0  0  0  0  0  0  0  0  0
  -21.9824  -34.9601   19.0321 C   0  0  0  0  0  0  0  0  0  0  0  0
  -16.8653  -35.1658   22.2500 C   0  0  0  0  0  0  0  0  0  0  0  0
  -17.6372  -32.9338   20.8624 C   0  0  0  0  0  0  0  0  0  0  0  0
  -17.9242  -34.0777   21.8154 C   0  0  0  0  0  0  0  0  0  0  0  0
  -19.3382  -34.1644   22.3530 C   0  0  0  0  0  0  0  0  0  0  0  0
  -20.4109  -33.1989   21.8698 C   0  0  0  0  0  0  0  0  0  0  0  0
  -20.0690  -32.1663   20.8273 C   0  0  0  0  0  0  0  0  0  0  0  0
  -18.6712  -31.9791   20.4164 C   0  0  0  0  0  0  0  0  0  0  0  0
  -21.1283  -31.5377   20.2025 O   0  0  0  0  0  0  0  0  0  0  0  0
  -22.5141  -31.5320   20.6385 C   0  0  0  0  0  0  0  0  0  0  0  0
  -22.8597  -30.5171   21.7308 C   0  0  0  0  0  0  0  0  0  0  0  0
  -23.9848  -30.7831   25.0656 C   0  0  0  0  0  0  0  0  0  0  0  0
  -24.5656  -31.9813   24.3810 C   0  0  0  0  0  0  0  0  0  0  0  0
  -23.8003  -32.2111   23.0745 C   0  0  0  0  0  0  0  0  0  0  0  0
  -22.8014  -31.0970   23.1027 N   0  0  0  0  0  0  0  0  0  0  0  0
  -23.1730  -30.0043   24.0645 C   0  0  0  0  0  0  0  0  0  0  0  0
  1  2  2  0  0  0
  1  6  1  0  0  0
  1 10  1  0  0  0
  2  3  1  0  0  0
  3  4  2  0  0  0
  3  7  1  0  0  0
  4  5  1  0  0  0
  4  9  1  0  0  0
  5  6  2  0  0  0
  7  8  1  0  0  0
  8  9  2  0  0  0
  8 12  1  0  0  0
  9 26  1  0  0  0
 26 28  1  0  0  0
 12 13  2  0  0  0
 12 17  1  0  0  0
 13 14  1  0  0  0
 14 15  2  0  0  0
 15 16  1  0  0  0
 15 18  1  0  0  0
 16 17  2  0  0  0
 18 19  1  0  0  0
 19 20  1  0  0  0
 27 28  2  0  0  0
 27 32  1  0  0  0
 28 29  1  0  0  0
 29 30  2  0  0  0
 30 31  1  0  0  0
 31 32  2  0  0  0
 31 33  1  0  0  0
 33 34  1  0  0  0
 34 35  1  0  0  0
 36 37  1  0  0  0
 36 40  1  0  0  0
 37 38  1  0  0  0
 38 39  1  0  0  0
 39 40  1  0  0  0
 39 35  1  0  0  0
 21 22  1  0  0  0
 21 25  1  0  0  0
 22 23  1  0  0  0
 22 20  1  0  0  0
 23 24  1  0  0  0
 24 25  1  0  0  0
 10 11  1  0  0  0
M  END
> <minimizedAffinity>
-9.36785

$$$$
1D3P_BT3_B_400


 40 45  0  0  0  0  0  0  0  0999 V2000
  -23.9289  -31.5742   23.0427 C   0  0  0  0  0  0  0  0  0  0  0  0
  -23.4916  -30.9889   21.7121 C   0  0  0  0  0  0  0  0  0  0  0  0
  -22.5760  -31.7681   20.8522 C   0  0  0  0  0  0  0  0  0  0  0  0
  -22.0579  -33.1052   21.2843 C   0  0  0  0  0  0  0  0  0  0  0  0
  -22.4483  -33.6582   22.5752 C   0  0  0  0  0  0  0  0  0  0  0  0
  -23.4055  -32.9075   23.4751 C   0  0  0  0  0  0  0  0  0  0  0  0
  -22.0196  -31.4445   19.2753 S   0  0  0  0  0  0  0  0  0  0  0  0
  -21.1095  -32.8658   19.1058 C   0  0  0  0  0  0  0  0  0  0  0  0
  -21.2595  -33.7069   20.2639 C   0  0  0  0  0  0  0  0  0  0  0  0
  -24.9232  -30.9612   23.7824 O   0  0  0  0  0  0  0  0  0  0  0  0
  -25.2563  -30.1262   23.5183 H   0  0  0  0  0  0  0  0  0  0  0  0
  -20.3597  -33.1866   17.8669 C   0  0  0  0  0  0  0  0  0  0  0  0
  -20.3849  -34.5282   17.2328 C   0  0  0  0  0  0  0  0  0  0  0  0
  -19.7209  -34.7544   15.9017 C   0  0  0  0  0  0  0  0  0  0  0  0
  -18.9976  -33.5362   15.3172 C   0  0  0  0  0  0  0  0  0  0  0  0
  -19.0159  -32.2611   15.9334 N   0  0  0  0  0  0  0  0  0  0  0  0
  -19.6624  -32.0797   17.1697 C   0  0  0  0  0  0  0  0  0  0  0  0
  -18.0555  -33.7942   14.4083 O   0  0  0  0  0  0  0  0  0  0  0  0
  -18.0808  -35.2342   13.9982 C   0  0  0  0  0  0  0  0  0  0  0  0
  -17.9446  -35.2761   12.4660 C   0  0  0  0  0  0  0  0  0  0  0  0
  -16.8327  -34.1642   10.8306 C   0  0  0  0  0  0  0  0  0  0  0  0
  -16.5895  -34.6331   12.2567 N   0  0  0  0  0  0  0  0  0  0  0  0
  -15.2648  -35.3909   12.3684 C   0  0  0  0  0  0  0  0  0  0  0  0
  -14.4687  -34.7109   11.2480 C   0  0  0  0  0  0  0  0  0  0  0  0
  -15.4059  -33.7539   10.5017 C   0  0  0  0  0  0  0  0  0  0  0  0
  -20.9195  -35.2147   20.2541 C   0  0  0  0  0  0  0  0  0  0  0  0
  -19.4054  -37.2430   21.3010 C   0  0  0  0  0  0  0  0  0  0  0  0
  -19.7169  -35.7710   21.1132 C   0  0  0  0  0  0  0  0  0  0  0  0
  -18.7790  -34.7946   21.7936 C   0  0  0  0  0  0  0  0  0  0  0  0
  -17.5480  -35.2933   22.5367 C   0  0  0  0  0  0  0  0  0  0  0  0
  -17.2457  -36.7689   22.5718 C   0  0  0  0  0  0  0  0  0  0  0  0
  -18.2273  -37.7276   22.0471 C   0  0  0  0  0  0  0  0  0  0  0  0
  -15.9769  -37.1353   22.9762 O   0  0  0  0  0  0  0  0  0  0  0  0
  -15.0082  -36.2971   23.6615 C   0  0  0  0  0  0  0  0  0  0  0  0
  -14.7710  -36.6306   25.1363 C   0  0  0  0  0  0  0  0  0  0  0  0
  -13.9984  -33.9741   27.3281 C   0  0  0  0  0  0  0  0  0  0  0  0
  -14.3795  -33.2996   26.0469 C   0  0  0  0  0  0  0  0  0  0  0  0
  -15.1463  -34.3031   25.1806 C   0  0  0  0  0  0  0  0  0  0  0  0
  -15.1549  -35.5194   26.0526 N   0  0  0  0  0  0  0  0  0  0  0  0
  -14.1220  -35.4634   27.1423 C   0  0  0  0  0  0  0  0  0  0  0  0
  1  2  2  0  0  0
  1  6  1  0  0  0
  1 10  1  0  0  0
  2  3  1  0  0  0
  3  4  2  0  0  0
  3  7  1  0  0  0
  4  5  1  0  0  0
  4  9  1  0  0  0
  5  6  2  0  0  0
  7  8  1  0  0  0
  8  9  2  0  0  0
  8 12  1  0  0  0
  9 26  1  0  0  0
 26 28  1  0  0  0
 12 13  2  0  0  0
 12 17  1  0  0  0
 13 14  1  0  0  0
 14 15  2  0  0  0
 15 16  1  0  0  0
 15 18  1  0  0  0
 16 17  2  0  0  0
 18 19  1  0  0  0
 19 20  1  0  0  0
 27 28  2  0  0  0
 27 32  1  0  0  0
 28 29  1  0  0  0
 29 30  2  0  0  0
 30 31  1  0  0  0
 31 32  2  0  0  0
 31 33  1  0  0  0
 33 34  1  0  0  0
 34 35  1  0  0  0
 36 37  1  0  0  0
 36 40  1  0  0  0
 37 38  1  0  0  0
 38 39  1  0  0  0
 39 40  1  0  0  0
 39 35  1  0  0  0
 21 22  1  0  0  0
 21 25  1  0  0  0
 22 23  1  0  0  0
 22 20  1  0  0  0
 23 24  1  0  0  0
 24 25  1  0  0  0
 10 11  1  0  0  0
M  END
> <minimizedAffinity>
-8.85462

$$$$
1D3P_BT3_B_400


 40 45  0  0  0  0  0  0  0  0999 V2000
  -23.8697  -31.2675   23.6525 C   0  0  0  0  0  0  0  0  0  0  0  0
  -24.0731  -32.4631   22.7395 C   0  0  0  0  0  0  0  0  0  0  0  0
  -23.1062  -32.7045   21.6480 C   0  0  0  0  0  0  0  0  0  0  0  0
  -21.9523  -31.7782   21.4165 C   0  0  0  0  0  0  0  0  0  0  0  0
  -21.7699  -30.6103   22.2694 C   0  0  0  0  0  0  0  0  0  0  0  0
  -22.7196  -30.3401   23.4159 C   0  0  0  0  0  0  0  0  0  0  0  0
  -22.9925  -34.0095   20.5593 S   0  0  0  0  0  0  0  0  0  0  0  0
  -21.5997  -33.4623   19.7607 C   0  0  0  0  0  0  0  0  0  0  0  0
  -21.1090  -32.2521   20.3654 C   0  0  0  0  0  0  0  0  0  0  0  0
  -24.6420  -31.1174   24.7894 O   0  0  0  0  0  0  0  0  0  0  0  0
  -25.3640  -31.6941   24.9448 H   0  0  0  0  0  0  0  0  0  0  0  0
  -20.9646  -34.2243   18.6578 C   0  0  0  0  0  0  0  0  0  0  0  0
  -20.8899  -35.7065   18.6395 C   0  0  0  0  0  0  0  0  0  0  0  0
  -20.3624  -36.4277   17.4290 C   0  0  0  0  0  0  0  0  0  0  0  0
  -19.8761  -35.5242   16.2906 C   0  0  0  0  0  0  0  0  0  0  0  0
  -19.9873  -34.1127   16.3270 N   0  0  0  0  0  0  0  0  0  0  0  0
  -20.5029  -33.4707   17.4677 C   0  0  0  0  0  0  0  0  0  0  0  0
  -19.0214  -36.0768   15.4279 O   0  0  0  0  0  0  0  0  0  0  0  0
  -19.0796  -37.5717   15.4927 C   0  0  0  0  0  0  0  0  0  0  0  0
  -17.6425  -38.0936   15.3193 C   0  0  0  0  0  0  0  0  0  0  0  0
  -18.3956  -39.6187   13.8179 C   0  0  0  0  0  0  0  0  0  0  0  0
  -17.8624  -39.5900   15.2419 N   0  0  0  0  0  0  0  0  0  0  0  0
  -18.7828  -40.3621   16.1896 C   0  0  0  0  0  0  0  0  0  0  0  0
  -19.3654  -41.3961   15.2185 C   0  0  0  0  0  0  0  0  0  0  0  0
  -18.8735  -41.0621   13.8051 C   0  0  0  0  0  0  0  0  0  0  0  0
  -19.6650  -31.7396   20.1620 C   0  0  0  0  0  0  0  0  0  0  0  0
  -17.0074  -32.4026   20.1437 C   0  0  0  0  0  0  0  0  0  0  0  0
  -18.4320  -32.6149   20.6175 C   0  0  0  0  0  0  0  0  0  0  0  0
  -18.6484  -33.7391   21.6101 C   0  0  0  0  0  0  0  0  0  0  0  0
  -17.4673  -34.5301   22.1538 C   0  0  0  0  0  0  0  0  0  0  0  0
  -16.0689  -34.1729   21.7214 C   0  0  0  0  0  0  0  0  0  0  0  0
  -15.8653  -33.1898   20.6491 C   0  0  0  0  0  0  0  0  0  0  0  0
  -15.0327  -34.6973   22.4691 O   0  0  0  0  0  0  0  0  0  0  0  0
  -15.0613  -35.9180   23.2562 C   0  0  0  0  0  0  0  0  0  0  0  0
  -14.1013  -35.9594   24.4475 C   0  0  0  0  0  0  0  0  0  0  0  0
  -13.8170  -34.3091   27.5545 C   0  0  0  0  0  0  0  0  0  0  0  0
  -14.2524  -33.2379   26.6034 C   0  0  0  0  0  0  0  0  0  0  0  0
  -14.8276  -33.9062   25.3513 C   0  0  0  0  0  0  0  0  0  0  0  0
  -14.6808  -35.3584   25.6823 N   0  0  0  0  0  0  0  0  0  0  0  0
  -13.7062  -35.6068   26.7985 C   0  0  0  0  0  0  0  0  0  0  0  0
  1  2  2  0  0  0
  1  6  1  0  0  0
  1 10  1  0  0  0
  2  3  1  0  0  0
  3  4  2  0  0  0
  3  7  1  0  0  0
  4  5  1  0  0  0
  4  9  1  0  0  0
  5  6  2  0  0  0
  7  8  1  0  0  0
  8  9  2  0  0  0
  8 12  1  0  0  0
  9 26  1  0  0  0
 26 28  1  0  0  0
 12 13  2  0  0  0
 12 17  1  0  0  0
 13 14  1  0  0  0
 14 15  2  0  0  0
 15 16  1  0  0  0
 15 18  1  0  0  0
 16 17  2  0  0  0
 18 19  1  0  0  0
 19 20  1  0  0  0
 27 28  2  0  0  0
 27 32  1  0  0  0
 28 29  1  0  0  0
 29 30  2  0  0  0
 30 31  1  0  0  0
 31 32  2  0  0  0
 31 33  1  0  0  0
 33 34  1  0  0  0
 34 35  1  0  0  0
 36 37  1  0  0  0
 36 40  1  0  0  0
 37 38  1  0  0  0
 38 39  1  0  0  0
 39 40  1  0  0  0
 39 35  1  0  0  0
 21 22  1  0  0  0
 21 25  1  0  0  0
 22 23  1  0  0  0
 22 20  1  0  0  0
 23 24  1  0  0  0
 24 25  1  0  0  0
 10 11  1  0  0  0
M  END
> <minimizedAffinity>
-8.71839

$$$$
1D3P_BT3_B_400


 40 45  0  0  0  0  0  0  0  0999 V2000
  -11.4405  -35.4113   24.8701 C   0  0  0  0  0  0  0  0  0  0  0  0
  -12.1469  -36.6926   24.4655 C   0  0  0  0  0  0  0  0  0  0  0  0
  -13.6235  -36.7081   24.4024 C   0  0  0  0  0  0  0  0  0  0  0  0
  -14.4266  -35.4939   24.7543 C   0  0  0  0  0  0  0  0  0  0  0  0
  -13.7555  -34.2702   25.1749 C   0  0  0  0  0  0  0  0  0  0  0  0
  -12.2448  -34.2012   25.2269 C   0  0  0  0  0  0  0  0  0  0  0  0
  -14.6803  -37.9317   23.8664 S   0  0  0  0  0  0  0  0  0  0  0  0
  -16.1124  -37.0526   24.0978 C   0  0  0  0  0  0  0  0  0  0  0  0
  -15.8219  -35.7152   24.5427 C   0  0  0  0  0  0  0  0  0  0  0  0
  -10.0662  -35.3068   24.7604 O   0  0  0  0  0  0  0  0  0  0  0  0
   -9.5554  -36.0600   24.5374 H   0  0  0  0  0  0  0  0  0  0  0  0
  -17.4483  -37.6099   23.7739 C   0  0  0  0  0  0  0  0  0  0  0  0
  -17.8470  -38.0032   22.3995 C   0  0  0  0  0  0  0  0  0  0  0  0
  -19.1612  -38.6942   22.1559 C   0  0  0  0  0  0  0  0  0  0  0  0
  -20.0359  -38.8912   23.3987 C   0  0  0  0  0  0  0  0  0  0  0  0
  -19.6145  -38.5302   24.7019 N   0  0  0  0  0  0  0  0  0  0  0  0
  -18.3707  -37.9023   24.8969 C   0  0  0  0  0  0  0  0  0  0  0  0
  -21.3383  -39.0763   23.1757 O   0  0  0  0  0  0  0  0  0  0  0  0
  -21.6341  -39.1187   21.7084 C   0  0  0  0  0  0  0  0  0  0  0  0
  -23.1644  -39.0978   21.5493 C   0  0  0  0  0  0  0  0  0  0  0  0
  -22.4046  -38.0413   19.6908 C   0  0  0  0  0  0  0  0  0  0  0  0
  -23.3839  -37.7855   20.8259 N   0  0  0  0  0  0  0  0  0  0  0  0
  -23.1422  -36.4153   21.4627 C   0  0  0  0  0  0  0  0  0  0  0  0
  -22.5805  -35.6518   20.2573 C   0  0  0  0  0  0  0  0  0  0  0  0
  -22.4039  -36.6407   19.0988 C   0  0  0  0  0  0  0  0  0  0  0  0
  -16.8418  -34.5582   24.4410 C   0  0  0  0  0  0  0  0  0  0  0  0
  -18.7902  -34.6325   22.5172 C   0  0  0  0  0  0  0  0  0  0  0  0
  -17.4530  -34.1489   23.0435 C   0  0  0  0  0  0  0  0  0  0  0  0
  -16.6865  -33.1937   22.1513 C   0  0  0  0  0  0  0  0  0  0  0  0
  -17.2954  -32.6926   20.8496 C   0  0  0  0  0  0  0  0  0  0  0  0
  -18.6837  -33.1294   20.4597 C   0  0  0  0  0  0  0  0  0  0  0  0
  -19.3678  -34.1690   21.2400 C   0  0  0  0  0  0  0  0  0  0  0  0
  -19.3023  -32.4134   19.4536 O   0  0  0  0  0  0  0  0  0  0  0  0
  -20.6881  -32.5270   19.0330 C   0  0  0  0  0  0  0  0  0  0  0  0
  -21.6646  -31.5579   19.7038 C   0  0  0  0  0  0  0  0  0  0  0  0
  -22.5050  -30.4888   22.9608 C   0  0  0  0  0  0  0  0  0  0  0  0
  -23.6289  -31.3957   22.5661 C   0  0  0  0  0  0  0  0  0  0  0  0
  -23.1680  -32.2515   21.3826 C   0  0  0  0  0  0  0  0  0  0  0  0
  -21.7683  -31.7637   21.1764 N   0  0  0  0  0  0  0  0  0  0  0  0
  -21.5107  -30.4361   21.8310 C   0  0  0  0  0  0  0  0  0  0  0  0
  1  2  2  0  0  0
  1  6  1  0  0  0
  1 10  1  0  0  0
  2  3  1  0  0  0
  3  4  2  0  0  0
  3  7  1  0  0  0
  4  5  1  0  0  0
  4  9  1  0  0  0
  5  6  2  0  0  0
  7  8  1  0  0  0
  8  9  2  0  0  0
  8 12  1  0  0  0
  9 26  1  0  0  0
 26 28  1  0  0  0
 12 13  2  0  0  0
 12 17  1  0  0  0
 13 14  1  0  0  0
 14 15  2  0  0  0
 15 16  1  0  0  0
 15 18  1  0  0  0
 16 17  2  0  0  0
 18 19  1  0  0  0
 19 20  1  0  0  0
 27 28  2  0  0  0
 27 32  1  0  0  0
 28 29  1  0  0  0
 29 30  2  0  0  0
 30 31  1  0  0  0
 31 32  2  0  0  0
 31 33  1  0  0  0
 33 34  1  0  0  0
 34 35  1  0  0  0
 36 37  1  0  0  0
 36 40  1  0  0  0
 37 38  1  0  0  0
 38 39  1  0  0  0
 39 40  1  0  0  0
 39 35  1  0  0  0
 21 22  1  0  0  0
 21 25  1  0  0  0
 22 23  1  0  0  0
 22 20  1  0  0  0
 23 24  1  0  0  0
 24 25  1  0  0  0
 10 11  1  0  0  0
M  END
> <minimizedAffinity>
-8.54470

$$$$
1D3P_BT3_B_400


 40 45  0  0  0  0  0  0  0  0999 V2000
  -12.3244  -35.4085   25.1197 C   0  0  0  0  0  0  0  0  0  0  0  0
  -13.0174  -36.6758   24.6526 C   0  0  0  0  0  0  0  0  0  0  0  0
  -14.4817  -36.6601   24.4524 C   0  0  0  0  0  0  0  0  0  0  0  0
  -15.2878  -35.4280   24.7268 C   0  0  0  0  0  0  0  0  0  0  0  0
  -14.6327  -34.2176   25.2066 C   0  0  0  0  0  0  0  0  0  0  0  0
  -13.1323  -34.1805   25.3988 C   0  0  0  0  0  0  0  0  0  0  0  0
  -15.5101  -37.8627   23.8218 S   0  0  0  0  0  0  0  0  0  0  0  0
  -16.9383  -36.9527   23.9181 C   0  0  0  0  0  0  0  0  0  0  0  0
  -16.6619  -35.6203   24.3866 C   0  0  0  0  0  0  0  0  0  0  0  0
  -10.9439  -35.3335   25.1381 O   0  0  0  0  0  0  0  0  0  0  0  0
  -10.4309  -36.0981   24.9644 H   0  0  0  0  0  0  0  0  0  0  0  0
  -18.2500  -37.4824   23.4720 C   0  0  0  0  0  0  0  0  0  0  0  0
  -18.7204  -37.3942   22.0671 C   0  0  0  0  0  0  0  0  0  0  0  0
  -19.9945  -38.0749   21.6463 C   0  0  0  0  0  0  0  0  0  0  0  0
  -20.7568  -38.7865   22.7693 C   0  0  0  0  0  0  0  0  0  0  0  0
  -20.2667  -38.8770   24.0951 N   0  0  0  0  0  0  0  0  0  0  0  0
  -19.0616  -38.2443   24.4509 C   0  0  0  0  0  0  0  0  0  0  0  0
  -22.0550  -39.0034   22.5507 O   0  0  0  0  0  0  0  0  0  0  0  0
  -22.4123  -38.7445   21.1198 C   0  0  0  0  0  0  0  0  0  0  0  0
  -23.8561  -38.2130   21.0976 C   0  0  0  0  0  0  0  0  0  0  0  0
  -22.7703  -36.9956   19.5208 C   0  0  0  0  0  0  0  0  0  0  0  0
  -23.6457  -36.7562   20.7411 N   0  0  0  0  0  0  0  0  0  0  0  0
  -23.0063  -35.7358   21.6852 C   0  0  0  0  0  0  0  0  0  0  0  0
  -22.2124  -34.8953   20.6780 C   0  0  0  0  0  0  0  0  0  0  0  0
  -22.3259  -35.5583   19.3000 C   0  0  0  0  0  0  0  0  0  0  0  0
  -17.6429  -34.4423   24.1892 C   0  0  0  0  0  0  0  0  0  0  0  0
  -16.5422  -33.2381   21.9889 C   0  0  0  0  0  0  0  0  0  0  0  0
  -17.7380  -33.7030   22.7969 C   0  0  0  0  0  0  0  0  0  0  0  0
  -19.1011  -33.4422   22.1887 C   0  0  0  0  0  0  0  0  0  0  0  0
  -19.2255  -32.8322   20.7999 C   0  0  0  0  0  0  0  0  0  0  0  0
  -17.9814  -32.5109   20.0131 C   0  0  0  0  0  0  0  0  0  0  0  0
  -16.6642  -32.6192   20.6541 C   0  0  0  0  0  0  0  0  0  0  0  0
  -18.1445  -32.2623   18.6643 O   0  0  0  0  0  0  0  0  0  0  0  0
  -19.3138  -32.5714   17.8596 C   0  0  0  0  0  0  0  0  0  0  0  0
  -19.4434  -31.7864   16.5521 C   0  0  0  0  0  0  0  0  0  0  0  0
  -19.2771  -33.5291   13.4874 C   0  0  0  0  0  0  0  0  0  0  0  0
  -19.2846  -34.6063   14.5272 C   0  0  0  0  0  0  0  0  0  0  0  0
  -19.7935  -34.0073   15.8416 C   0  0  0  0  0  0  0  0  0  0  0  0
  -20.0535  -32.5859   15.4520 N   0  0  0  0  0  0  0  0  0  0  0  0
  -19.3596  -32.1937   14.1785 C   0  0  0  0  0  0  0  0  0  0  0  0
  1  2  2  0  0  0
  1  6  1  0  0  0
  1 10  1  0  0  0
  2  3  1  0  0  0
  3  4  2  0  0  0
  3  7  1  0  0  0
  4  5  1  0  0  0
  4  9  1  0  0  0
  5  6  2  0  0  0
  7  8  1  0  0  0
  8  9  2  0  0  0
  8 12  1  0  0  0
  9 26  1  0  0  0
 26 28  1  0  0  0
 12 13  2  0  0  0
 12 17  1  0  0  0
 13 14  1  0  0  0
 14 15  2  0  0  0
 15 16  1  0  0  0
 15 18  1  0  0  0
 16 17  2  0  0  0
 18 19  1  0  0  0
 19 20  1  0  0  0
 27 28  2  0  0  0
 27 32  1  0  0  0
 28 29  1  0  0  0
 29 30  2  0  0  0
 30 31  1  0  0  0
 31 32  2  0  0  0
 31 33  1  0  0  0
 33 34  1  0  0  0
 34 35  1  0  0  0
 36 37  1  0  0  0
 36 40  1  0  0  0
 37 38  1  0  0  0
 38 39  1  0  0  0
 39 40  1  0  0  0
 39 35  1  0  0  0
 21 22  1  0  0  0
 21 25  1  0  0  0
 22 23  1  0  0  0
 22 20  1  0  0  0
 23 24  1  0  0  0
 24 25  1  0  0  0
 10 11  1  0  0  0
M  END
> <minimizedAffinity>
-8.46682

$$$$
1D3P_BT3_B_400


 40 45  0  0  0  0  0  0  0  0999 V2000
  -24.0732  -31.3856   23.4058 C   0  0  0  0  0  0  0  0  0  0  0  0
  -23.7009  -30.6847   22.1117 C   0  0  0  0  0  0  0  0  0  0  0  0
  -22.8567  -31.3954   21.1284 C   0  0  0  0  0  0  0  0  0  0  0  0
  -22.3466  -32.7770   21.4008 C   0  0  0  0  0  0  0  0  0  0  0  0
  -22.6737  -33.4429   22.6554 C   0  0  0  0  0  0  0  0  0  0  0  0
  -23.5577  -32.7635   23.6784 C   0  0  0  0  0  0  0  0  0  0  0  0
  -22.3864  -30.9337   19.5578 S   0  0  0  0  0  0  0  0  0  0  0  0
  -21.5226  -32.3491   19.2007 C   0  0  0  0  0  0  0  0  0  0  0  0
  -21.6245  -33.2936   20.2817 C   0  0  0  0  0  0  0  0  0  0  0  0
  -25.0070  -30.8274   24.2588 O   0  0  0  0  0  0  0  0  0  0  0  0
  -25.3348  -29.9650   24.0950 H   0  0  0  0  0  0  0  0  0  0  0  0
  -20.8550  -32.5645   17.8937 C   0  0  0  0  0  0  0  0  0  0  0  0
  -20.2264  -33.8534   17.5113 C   0  0  0  0  0  0  0  0  0  0  0  0
  -19.6912  -34.0567   16.1199 C   0  0  0  0  0  0  0  0  0  0  0  0
  -19.7990  -32.8401   15.1942 C   0  0  0  0  0  0  0  0  0  0  0  0
  -20.4306  -31.6325   15.5803 N   0  0  0  0  0  0  0  0  0  0  0  0
  -20.9373  -31.4821   16.8841 C   0  0  0  0  0  0  0  0  0  0  0  0
  -18.9687  -32.8225   14.1500 O   0  0  0  0  0  0  0  0  0  0  0  0
  -19.7123  -33.0196   12.8654 C   0  0  0  0  0  0  0  0  0  0  0  0
  -19.0885  -32.0724   11.8254 C   0  0  0  0  0  0  0  0  0  0  0  0
  -21.0439  -32.8145   10.9462 C   0  0  0  0  0  0  0  0  0  0  0  0
  -19.5903  -32.6647   10.5250 N   0  0  0  0  0  0  0  0  0  0  0  0
  -19.0549  -33.9658    9.9232 C   0  0  0  0  0  0  0  0  0  0  0  0
  -20.3489  -34.5474    9.3413 C   0  0  0  0  0  0  0  0  0  0  0  0
  -21.5163  -33.6483    9.7656 C   0  0  0  0  0  0  0  0  0  0  0  0
  -21.3224  -34.7996   20.1098 C   0  0  0  0  0  0  0  0  0  0  0  0
  -18.9809  -34.6736   21.5255 C   0  0  0  0  0  0  0  0  0  0  0  0
  -20.0765  -35.4543   20.8261 C   0  0  0  0  0  0  0  0  0  0  0  0
  -19.9462  -36.9637   20.8524 C   0  0  0  0  0  0  0  0  0  0  0  0
  -18.8186  -37.6302   21.6274 C   0  0  0  0  0  0  0  0  0  0  0  0
  -17.8405  -36.7815   22.3974 C   0  0  0  0  0  0  0  0  0  0  0  0
  -17.8705  -35.3200   22.2526 C   0  0  0  0  0  0  0  0  0  0  0  0
  -17.0460  -37.4305   23.3222 O   0  0  0  0  0  0  0  0  0  0  0  0
  -16.7401  -36.9831   24.6701 C   0  0  0  0  0  0  0  0  0  0  0  0
  -15.4856  -36.1177   24.8110 C   0  0  0  0  0  0  0  0  0  0  0  0
  -14.4261  -34.1473   27.5409 C   0  0  0  0  0  0  0  0  0  0  0  0
  -14.1165  -33.3119   26.3377 C   0  0  0  0  0  0  0  0  0  0  0  0
  -14.9197  -33.8542   25.1518 C   0  0  0  0  0  0  0  0  0  0  0  0
  -15.6589  -34.9956   25.7767 N   0  0  0  0  0  0  0  0  0  0  0  0
  -15.0589  -35.4345   27.0822 C   0  0  0  0  0  0  0  0  0  0  0  0
  1  2  2  0  0  0
  1  6  1  0  0  0
  1 10  1  0  0  0
  2  3  1  0  0  0
  3  4  2  0  0  0
  3  7  1  0  0  0
  4  5  1  0  0  0
  4  9  1  0  0  0
  5  6  2  0  0  0
  7  8  1  0  0  0
  8  9  2  0  0  0
  8 12  1  0  0  0
  9 26  1  0  0  0
 26 28  1  0  0  0
 12 13  2  0  0  0
 12 17  1  0  0  0
 13 14  1  0  0  0
 14 15  2  0  0  0
 15 16  1  0  0  0
 15 18  1  0  0  0
 16 17  2  0  0  0
 18 19  1  0  0  0
 19 20  1  0  0  0
 27 28  2  0  0  0
 27 32  1  0  0  0
 28 29  1  0  0  0
 29 30  2  0  0  0
 30 31  1  0  0  0
 31 32  2  0  0  0
 31 33  1  0  0  0
 33 34  1  0  0  0
 34 35  1  0  0  0
 36 37  1  0  0  0
 36 40  1  0  0  0
 37 38  1  0  0  0
 38 39  1  0  0  0
 39 40  1  0  0  0
 39 35  1  0  0  0
 21 22  1  0  0  0
 21 25  1  0  0  0
 22 23  1  0  0  0
 22 20  1  0  0  0
 23 24  1  0  0  0
 24 25  1  0  0  0
 10 11  1  0  0  0
M  END
> <minimizedAffinity>
-8.39545

$$$$
1D3P_BT3_B_400


 40 45  0  0  0  0  0  0  0  0999 V2000
  -23.2885  -38.5838   21.0284 C   0  0  0  0  0  0  0  0  0  0  0  0
  -22.5677  -38.8994   19.7303 C   0  0  0  0  0  0  0  0  0  0  0  0
  -21.9995  -37.7891   18.9373 C   0  0  0  0  0  0  0  0  0  0  0  0
  -22.1466  -36.3661   19.3808 C   0  0  0  0  0  0  0  0  0  0  0  0
  -22.8657  -36.0540   20.6097 C   0  0  0  0  0  0  0  0  0  0  0  0
  -23.4394  -37.1612   21.4667 C   0  0  0  0  0  0  0  0  0  0  0  0
  -21.0397  -37.8318   17.5308 S   0  0  0  0  0  0  0  0  0  0  0  0
  -20.8317  -36.1535   17.3988 C   0  0  0  0  0  0  0  0  0  0  0  0
  -21.4515  -35.4755   18.5066 C   0  0  0  0  0  0  0  0  0  0  0  0
  -23.6667  -39.6028   21.8830 O   0  0  0  0  0  0  0  0  0  0  0  0
  -23.5754  -40.4963   21.6160 H   0  0  0  0  0  0  0  0  0  0  0  0
  -20.0259  -35.5351   16.3179 C   0  0  0  0  0  0  0  0  0  0  0  0
  -19.7399  -34.0800   16.2562 C   0  0  0  0  0  0  0  0  0  0  0  0
  -18.7996  -33.5319   15.2173 C   0  0  0  0  0  0  0  0  0  0  0  0
  -18.2366  -34.5653   14.2356 C   0  0  0  0  0  0  0  0  0  0  0  0
  -18.5065  -35.9518   14.3385 N   0  0  0  0  0  0  0  0  0  0  0  0
  -19.3761  -36.4335   15.3339 C   0  0  0  0  0  0  0  0  0  0  0  0
  -17.7833  -34.0859   13.0758 O   0  0  0  0  0  0  0  0  0  0  0  0
  -18.9036  -33.8696   12.1062 C   0  0  0  0  0  0  0  0  0  0  0  0
  -19.0792  -32.3499   11.9412 C   0  0  0  0  0  0  0  0  0  0  0  0
  -21.1963  -32.2000   12.7430 C   0  0  0  0  0  0  0  0  0  0  0  0
  -20.4897  -32.2571   11.3976 N   0  0  0  0  0  0  0  0  0  0  0  0
  -21.1201  -33.3154   10.4896 C   0  0  0  0  0  0  0  0  0  0  0  0
  -22.5615  -33.2969   11.0124 C   0  0  0  0  0  0  0  0  0  0  0  0
  -22.6194  -32.3755   12.2368 C   0  0  0  0  0  0  0  0  0  0  0  0
  -21.0949  -34.0259   18.9073 C   0  0  0  0  0  0  0  0  0  0  0  0
  -19.7063  -34.5628   21.2064 C   0  0  0  0  0  0  0  0  0  0  0  0
  -19.9468  -33.7428   19.9539 C   0  0  0  0  0  0  0  0  0  0  0  0
  -18.9900  -32.5932   19.7107 C   0  0  0  0  0  0  0  0  0  0  0  0
  -17.8072  -32.3604   20.6397 C   0  0  0  0  0  0  0  0  0  0  0  0
  -17.5711  -33.2985   21.7948 C   0  0  0  0  0  0  0  0  0  0  0  0
  -18.5757  -34.3184   22.1238 C   0  0  0  0  0  0  0  0  0  0  0  0
  -16.3335  -33.2359   22.4049 O   0  0  0  0  0  0  0  0  0  0  0  0
  -15.3813  -34.3234   22.5504 C   0  0  0  0  0  0  0  0  0  0  0  0
  -14.4507  -34.2302   23.7619 C   0  0  0  0  0  0  0  0  0  0  0  0
  -15.2689  -35.2505   27.0401 C   0  0  0  0  0  0  0  0  0  0  0  0
  -14.3143  -34.1133   27.2326 C   0  0  0  0  0  0  0  0  0  0  0  0
  -14.2385  -33.3181   25.9259 C   0  0  0  0  0  0  0  0  0  0  0  0
  -15.1860  -34.0752   25.0492 N   0  0  0  0  0  0  0  0  0  0  0  0
  -15.4800  -35.4560   25.5633 C   0  0  0  0  0  0  0  0  0  0  0  0
  1  2  2  0  0  0
  1  6  1  0  0  0
  1 10  1  0  0  0
  2  3  1  0  0  0
  3  4  2  0  0  0
  3  7  1  0  0  0
  4  5  1  0  0  0
  4  9  1  0  0  0
  5  6  2  0  0  0
  7  8  1  0  0  0
  8  9  2  0  0  0
  8 12  1  0  0  0
  9 26  1  0  0  0
 26 28  1  0  0  0
 12 13  2  0  0  0
 12 17  1  0  0  0
 13 14  1  0  0  0
 14 15  2  0  0  0
 15 16  1  0  0  0
 15 18  1  0  0  0
 16 17  2  0  0  0
 18 19  1  0  0  0
 19 20  1  0  0  0
 27 28  2  0  0  0
 27 32  1  0  0  0
 28 29  1  0  0  0
 29 30  2  0  0  0
 30 31  1  0  0  0
 31 32  2  0  0  0
 31 33  1  0  0  0
 33 34  1  0  0  0
 34 35  1  0  0  0
 36 37  1  0  0  0
 36 40  1  0  0  0
 37 38  1  0  0  0
 38 39  1  0  0  0
 39 40  1  0  0  0
 39 35  1  0  0  0
 21 22  1  0  0  0
 21 25  1  0  0  0
 22 23  1  0  0  0
 22 20  1  0  0  0
 23 24  1  0  0  0
 24 25  1  0  0  0
 10 11  1  0  0  0
M  END
> <minimizedAffinity>
-8.32401

$$$$
1D3P_BT3_B_400


 40 45  0  0  0  0  0  0  0  0999 V2000
  -12.3999  -37.1256   26.5350 C   0  0  0  0  0  0  0  0  0  0  0  0
  -13.0707  -35.7715   26.3901 C   0  0  0  0  0  0  0  0  0  0  0  0
  -13.9308  -35.5195   25.2149 C   0  0  0  0  0  0  0  0  0  0  0  0
  -14.1273  -36.5648   24.1604 C   0  0  0  0  0  0  0  0  0  0  0  0
  -13.4601  -37.8555   24.2773 C   0  0  0  0  0  0  0  0  0  0  0  0
  -12.5929  -38.1664   25.4776 C   0  0  0  0  0  0  0  0  0  0  0  0
  -14.9056  -34.1726   24.8444 S   0  0  0  0  0  0  0  0  0  0  0  0
  -15.5329  -34.7924   23.3954 C   0  0  0  0  0  0  0  0  0  0  0  0
  -15.0584  -36.1318   23.1674 C   0  0  0  0  0  0  0  0  0  0  0  0
  -11.7440  -37.4584   27.7057 O   0  0  0  0  0  0  0  0  0  0  0  0
  -11.6191  -36.8124   28.3727 H   0  0  0  0  0  0  0  0  0  0  0  0
  -16.5112  -34.0444   22.5686 C   0  0  0  0  0  0  0  0  0  0  0  0
  -17.9795  -34.1704   22.7442 C   0  0  0  0  0  0  0  0  0  0  0  0
  -18.9179  -33.2812   21.9744 C   0  0  0  0  0  0  0  0  0  0  0  0
  -18.2452  -32.3166   20.9918 C   0  0  0  0  0  0  0  0  0  0  0  0
  -16.8390  -32.2003   20.8679 N   0  0  0  0  0  0  0  0  0  0  0  0
  -15.9893  -33.0348   21.6168 C   0  0  0  0  0  0  0  0  0  0  0  0
  -19.0149  -31.8531   20.0055 O   0  0  0  0  0  0  0  0  0  0  0  0
  -20.3912  -31.5317   20.5002 C   0  0  0  0  0  0  0  0  0  0  0  0
  -21.3786  -31.9036   19.3802 C   0  0  0  0  0  0  0  0  0  0  0  0
  -22.5471  -30.9484   21.0742 C   0  0  0  0  0  0  0  0  0  0  0  0
  -22.6514  -32.1593   20.1601 N   0  0  0  0  0  0  0  0  0  0  0  0
  -22.9116  -33.4349   20.9643 C   0  0  0  0  0  0  0  0  0  0  0  0
  -23.6710  -32.8502   22.1613 C   0  0  0  0  0  0  0  0  0  0  0  0
  -23.6610  -31.3216   22.0397 C   0  0  0  0  0  0  0  0  0  0  0  0
  -15.7504  -37.1112   22.1922 C   0  0  0  0  0  0  0  0  0  0  0  0
  -17.9531  -37.6079   23.7427 C   0  0  0  0  0  0  0  0  0  0  0  0
  -16.9507  -38.0140   22.6801 C   0  0  0  0  0  0  0  0  0  0  0  0
  -17.1558  -39.3769   22.0503 C   0  0  0  0  0  0  0  0  0  0  0  0
  -18.3645  -40.2256   22.4174 C   0  0  0  0  0  0  0  0  0  0  0  0
  -19.3798  -39.6930   23.3949 C   0  0  0  0  0  0  0  0  0  0  0  0
  -19.1095  -38.4445   24.1202 C   0  0  0  0  0  0  0  0  0  0  0  0
  -20.5939  -40.3491   23.4514 O   0  0  0  0  0  0  0  0  0  0  0  0
  -21.8616  -39.8764   22.9223 C   0  0  0  0  0  0  0  0  0  0  0  0
  -21.9959  -39.9099   21.3980 C   0  0  0  0  0  0  0  0  0  0  0  0
  -20.9161  -36.5496   21.3886 C   0  0  0  0  0  0  0  0  0  0  0  0
  -19.9462  -37.2538   20.4914 C   0  0  0  0  0  0  0  0  0  0  0  0
  -20.5597  -38.5925   20.0707 C   0  0  0  0  0  0  0  0  0  0  0  0
  -21.8801  -38.5610   20.7744 N   0  0  0  0  0  0  0  0  0  0  0  0
  -21.9249  -37.5510   21.8859 C   0  0  0  0  0  0  0  0  0  0  0  0
  1  2  2  0  0  0
  1  6  1  0  0  0
  1 10  1  0  0  0
  2  3  1  0  0  0
  3  4  2  0  0  0
  3  7  1  0  0  0
  4  5  1  0  0  0
  4  9  1  0  0  0
  5  6  2  0  0  0
  7  8  1  0  0  0
  8  9  2  0  0  0
  8 12  1  0  0  0
  9 26  1  0  0  0
 26 28  1  0  0  0
 12 13  2  0  0  0
 12 17  1  0  0  0
 13 14  1  0  0  0
 14 15  2  0  0  0
 15 16  1  0  0  0
 15 18  1  0  0  0
 16 17  2  0  0  0
 18 19  1  0  0  0
 19 20  1  0  0  0
 27 28  2  0  0  0
 27 32  1  0  0  0
 28 29  1  0  0  0
 29 30  2  0  0  0
 30 31  1  0  0  0
 31 32  2  0  0  0
 31 33  1  0  0  0
 33 34  1  0  0  0
 34 35  1  0  0  0
 36 37  1  0  0  0
 36 40  1  0  0  0
 37 38  1  0  0  0
 38 39  1  0  0  0
 39 40  1  0  0  0
 39 35  1  0  0  0
 21 22  1  0  0  0
 21 25  1  0  0  0
 22 23  1  0  0  0
 22 20  1  0  0  0
 23 24  1  0  0  0
 24 25  1  0  0  0
 10 11  1  0  0  0
M  END
> <minimizedAffinity>
-8.25780

$$$$
