3I73_ADP_A_589


 34 36  0  0  0  0  0  0  0  0999 V2000
  -36.9092    4.8856   -0.6830 C   0  0  0  0  0  0  0  0  0  0  0  0
  -37.0810    5.1107    0.7399 O   0  0  0  0  0  0  0  0  0  0  0  0
  -37.2634    3.4181   -0.8726 C   0  0  0  0  0  0  0  0  0  0  0  0
  -36.3659    2.8031   -1.7648 O   0  0  0  0  0  0  0  0  0  0  0  0
  -37.0286    2.8337    0.4948 C   0  0  0  0  0  0  0  0  0  0  0  0
  -35.7928    2.1724    0.7008 O   0  0  0  0  0  0  0  0  0  0  0  0
  -36.5153    3.9483    1.3566 C   0  0  0  0  0  0  0  0  0  0  0  0
  -35.4592    2.9113   -1.4373 H   0  0  0  0  0  0  0  0  0  0  0  0
  -35.0637    2.7874    0.5246 H   0  0  0  0  0  0  0  0  0  0  0  0
  -37.0951    3.4413    2.5916 N   0  0  0  0  0  0  0  0  0  0  0  0
  -38.1215    2.6367    2.8417 C   0  0  0  0  0  0  0  0  0  0  0  0
  -38.2688    2.4396    4.1645 N   0  0  0  0  0  0  0  0  0  0  0  0
  -37.3104    3.1330    4.7660 C   0  0  0  0  0  0  0  0  0  0  0  0
  -36.8742    3.3708    6.1351 C   0  0  0  0  0  0  0  0  0  0  0  0
  -37.5429    2.7913    7.1271 N   0  0  0  0  0  0  0  0  0  0  0  0
  -35.8085    4.1782    6.3385 N   0  0  0  0  0  0  0  0  0  0  0  0
  -35.1556    4.7690    5.3213 C   0  0  0  0  0  0  0  0  0  0  0  0
  -35.4841    4.5952    4.0348 N   0  0  0  0  0  0  0  0  0  0  0  0
  -36.5347    3.7965    3.7198 C   0  0  0  0  0  0  0  0  0  0  0  0
  -38.3131    2.2111    6.9286 H   0  0  0  0  0  0  0  0  0  0  0  0
  -37.2679    2.9423    8.0603 H   0  0  0  0  0  0  0  0  0  0  0  0
  -37.5860    5.9143   -1.6114 C   0  0  0  0  0  0  0  0  0  0  0  0
  -38.8249    6.3793   -1.0449 O   0  0  0  0  0  0  0  0  0  0  0  0
  -39.2437    7.9524   -0.8802 P   0  0  0  0  0  0  0  0  0  0  0  0
  -38.0156    8.8125   -0.7094 O   0  0  0  0  0  0  0  0  0  0  0  0
  -40.2333    8.3072   -1.9620 O   0  0  0  0  0  0  0  0  0  0  0  0
  -40.4887    9.2388   -1.8737 H   0  0  0  0  0  0  0  0  0  0  0  0
  -40.0403    8.0446    0.5169 O   0  0  0  0  0  0  0  0  0  0  0  0
  -40.8276    6.7259    0.9971 P   0  0  0  0  0  0  0  0  0  0  0  0
  -41.8036    7.2125    2.0463 O   0  0  0  0  0  0  0  0  0  0  0  0
  -39.7705    5.8128    1.5691 O   0  0  0  0  0  0  0  0  0  0  0  0
  -41.4591    6.2278   -0.2844 O   0  0  0  0  0  0  0  0  0  0  0  0
  -40.1852    4.9925    1.8791 H   0  0  0  0  0  0  0  0  0  0  0  0
  -41.9663    5.4212   -0.1027 H   0  0  0  0  0  0  0  0  0  0  0  0
 29 30  2  0  0  0
 29 31  1  0  0  0
 29 32  1  0  0  0
 29 28  1  0  0  0
 24 25  2  0  0  0
 24 26  1  0  0  0
 24 28  1  0  0  0
 24 23  1  0  0  0
 23 22  1  0  0  0
 22  1  1  0  0  0
  1  2  1  0  0  0
  1  3  1  0  0  0
  2  7  1  0  0  0
  3  4  1  0  0  0
  3  5  1  0  0  0
  5  6  1  0  0  0
  5  7  1  0  0  0
  7 10  1  0  0  0
 10 11  1  0  0  0
 10 19  1  0  0  0
 11 12  2  0  0  0
 12 13  1  0  0  0
 13 14  1  0  0  0
 13 19  2  0  0  0
 14 15  1  0  0  0
 14 16  2  0  0  0
 16 17  1  0  0  0
 17 18  2  0  0  0
 18 19  1  0  0  0
 31 33  1  0  0  0
 32 34  1  0  0  0
 26 27  1  0  0  0
  4  8  1  0  0  0
  6  9  1  0  0  0
 15 20  1  0  0  0
 15 21  1  0  0  0
M  END
> <minimizedAffinity>
-6.99160

$$$$
3I73_ADP_A_589


 34 36  0  0  0  0  0  0  0  0999 V2000
  -54.5348   11.4852    1.5673 C   0  0  0  0  0  0  0  0  0  0  0  0
  -53.5868   10.4012    1.3910 O   0  0  0  0  0  0  0  0  0  0  0  0
  -55.1910   11.6308    0.2023 C   0  0  0  0  0  0  0  0  0  0  0  0
  -55.3474   12.9891   -0.1299 O   0  0  0  0  0  0  0  0  0  0  0  0
  -54.1665   11.0422   -0.7305 C   0  0  0  0  0  0  0  0  0  0  0  0
  -53.3181   11.9563   -1.4026 O   0  0  0  0  0  0  0  0  0  0  0  0
  -52.9899   10.6525    0.1135 C   0  0  0  0  0  0  0  0  0  0  0  0
  -54.4842   13.4306   -0.1006 H   0  0  0  0  0  0  0  0  0  0  0  0
  -52.8370   12.4900   -0.7510 H   0  0  0  0  0  0  0  0  0  0  0  0
  -52.5912    9.5294   -0.7220 N   0  0  0  0  0  0  0  0  0  0  0  0
  -53.2375    8.4524   -1.1529 C   0  0  0  0  0  0  0  0  0  0  0  0
  -52.4434    7.6908   -1.9272 N   0  0  0  0  0  0  0  0  0  0  0  0
  -51.2673    8.3022   -1.9911 C   0  0  0  0  0  0  0  0  0  0  0  0
  -49.9821    8.0632   -2.6333 C   0  0  0  0  0  0  0  0  0  0  0  0
  -49.8335    6.9703   -3.3752 N   0  0  0  0  0  0  0  0  0  0  0  0
  -48.9910    8.9630   -2.4413 N   0  0  0  0  0  0  0  0  0  0  0  0
  -49.1566   10.0547   -1.6724 C   0  0  0  0  0  0  0  0  0  0  0  0
  -50.3070   10.3544   -1.0561 N   0  0  0  0  0  0  0  0  0  0  0  0
  -51.3689    9.5205   -1.1901 C   0  0  0  0  0  0  0  0  0  0  0  0
  -50.5852    6.3442   -3.4855 H   0  0  0  0  0  0  0  0  0  0  0  0
  -48.9717    6.7869   -3.8145 H   0  0  0  0  0  0  0  0  0  0  0  0
  -55.4553   11.3775    2.7998 C   0  0  0  0  0  0  0  0  0  0  0  0
  -54.9554   12.1801    3.8851 O   0  0  0  0  0  0  0  0  0  0  0  0
  -53.9321   11.6477    5.0456 P   0  0  0  0  0  0  0  0  0  0  0  0
  -53.7418   10.1545    4.9396 O   0  0  0  0  0  0  0  0  0  0  0  0
  -52.7125   12.5352    5.0620 O   0  0  0  0  0  0  0  0  0  0  0  0
  -52.0984   12.2282    5.7472 H   0  0  0  0  0  0  0  0  0  0  0  0
  -54.6959   11.8936    6.4424 O   0  0  0  0  0  0  0  0  0  0  0  0
  -54.0528   11.2205    7.7549 P   0  0  0  0  0  0  0  0  0  0  0  0
  -54.4441   12.1344    8.8958 O   0  0  0  0  0  0  0  0  0  0  0  0
  -52.5634   11.2054    7.5101 O   0  0  0  0  0  0  0  0  0  0  0  0
  -54.6976    9.8519    7.7793 O   0  0  0  0  0  0  0  0  0  0  0  0
  -52.1144   10.8078    8.2724 H   0  0  0  0  0  0  0  0  0  0  0  0
  -54.3722    9.3548    8.5461 H   0  0  0  0  0  0  0  0  0  0  0  0
 29 30  2  0  0  0
 29 31  1  0  0  0
 29 32  1  0  0  0
 29 28  1  0  0  0
 24 25  2  0  0  0
 24 26  1  0  0  0
 24 28  1  0  0  0
 24 23  1  0  0  0
 23 22  1  0  0  0
 22  1  1  0  0  0
  1  2  1  0  0  0
  1  3  1  0  0  0
  2  7  1  0  0  0
  3  4  1  0  0  0
  3  5  1  0  0  0
  5  6  1  0  0  0
  5  7  1  0  0  0
  7 10  1  0  0  0
 10 11  1  0  0  0
 10 19  1  0  0  0
 11 12  2  0  0  0
 12 13  1  0  0  0
 13 14  1  0  0  0
 13 19  2  0  0  0
 14 15  1  0  0  0
 14 16  2  0  0  0
 16 17  1  0  0  0
 17 18  2  0  0  0
 18 19  1  0  0  0
 31 33  1  0  0  0
 32 34  1  0  0  0
 26 27  1  0  0  0
  4  8  1  0  0  0
  6  9  1  0  0  0
 15 20  1  0  0  0
 15 21  1  0  0  0
M  END
> <minimizedAffinity>
-6.50524

$$$$
3I73_ADP_A_589


 34 36  0  0  0  0  0  0  0  0999 V2000
  -37.8751    2.8485    1.5636 C   0  0  0  0  0  0  0  0  0  0  0  0
  -38.4177    4.1830    1.3919 O   0  0  0  0  0  0  0  0  0  0  0  0
  -36.5392    2.8941    0.8367 C   0  0  0  0  0  0  0  0  0  0  0  0
  -36.3347    1.7121    0.1013 O   0  0  0  0  0  0  0  0  0  0  0  0
  -36.7253    4.0215   -0.1434 C   0  0  0  0  0  0  0  0  0  0  0  0
  -37.0656    3.6613   -1.4706 O   0  0  0  0  0  0  0  0  0  0  0  0
  -38.1319    4.5124    0.0277 C   0  0  0  0  0  0  0  0  0  0  0  0
  -37.0719    1.5836   -0.5158 H   0  0  0  0  0  0  0  0  0  0  0  0
  -37.8893    3.1491   -1.4656 H   0  0  0  0  0  0  0  0  0  0  0  0
  -37.8365    5.8928   -0.3271 N   0  0  0  0  0  0  0  0  0  0  0  0
  -36.7112    6.5974   -0.3466 C   0  0  0  0  0  0  0  0  0  0  0  0
  -36.9367    7.8550   -0.7682 N   0  0  0  0  0  0  0  0  0  0  0  0
  -38.2353    7.9476   -1.0254 C   0  0  0  0  0  0  0  0  0  0  0  0
  -39.1501    8.9745   -1.5051 C   0  0  0  0  0  0  0  0  0  0  0  0
  -38.6644   10.1787   -1.7896 N   0  0  0  0  0  0  0  0  0  0  0  0
  -40.4587    8.6590   -1.6345 N   0  0  0  0  0  0  0  0  0  0  0  0
  -40.9333    7.4388   -1.3249 C   0  0  0  0  0  0  0  0  0  0  0  0
  -40.1601    6.4363   -0.8885 N   0  0  0  0  0  0  0  0  0  0  0  0
  -38.8287    6.6448   -0.7309 C   0  0  0  0  0  0  0  0  0  0  0  0
  -37.7031   10.3604   -1.6792 H   0  0  0  0  0  0  0  0  0  0  0  0
  -39.2659   10.8888   -2.1108 H   0  0  0  0  0  0  0  0  0  0  0  0
  -37.8914    2.2979    3.0040 C   0  0  0  0  0  0  0  0  0  0  0  0
  -37.3361    3.2546    3.9250 O   0  0  0  0  0  0  0  0  0  0  0  0
  -35.9257    3.0633    4.7323 P   0  0  0  0  0  0  0  0  0  0  0  0
  -35.0680    2.0194    4.0602 O   0  0  0  0  0  0  0  0  0  0  0  0
  -35.3335    4.4238    5.0043 O   0  0  0  0  0  0  0  0  0  0  0  0
  -34.4961    4.3220    5.4831 H   0  0  0  0  0  0  0  0  0  0  0  0
  -36.3270    2.4443    6.1644 O   0  0  0  0  0  0  0  0  0  0  0  0
  -36.8246    3.4775    7.2931 P   0  0  0  0  0  0  0  0  0  0  0  0
  -37.6912    2.6554    8.2223 O   0  0  0  0  0  0  0  0  0  0  0  0
  -37.6091    4.5338    6.5534 O   0  0  0  0  0  0  0  0  0  0  0  0
  -35.5255    3.9679    7.8941 O   0  0  0  0  0  0  0  0  0  0  0  0
  -37.9392    5.1925    7.1843 H   0  0  0  0  0  0  0  0  0  0  0  0
  -35.7160    4.6075    8.5980 H   0  0  0  0  0  0  0  0  0  0  0  0
 29 30  2  0  0  0
 29 31  1  0  0  0
 29 32  1  0  0  0
 29 28  1  0  0  0
 24 25  2  0  0  0
 24 26  1  0  0  0
 24 28  1  0  0  0
 24 23  1  0  0  0
 23 22  1  0  0  0
 22  1  1  0  0  0
  1  2  1  0  0  0
  1  3  1  0  0  0
  2  7  1  0  0  0
  3  4  1  0  0  0
  3  5  1  0  0  0
  5  6  1  0  0  0
  5  7  1  0  0  0
  7 10  1  0  0  0
 10 11  1  0  0  0
 10 19  1  0  0  0
 11 12  2  0  0  0
 12 13  1  0  0  0
 13 14  1  0  0  0
 13 19  2  0  0  0
 14 15  1  0  0  0
 14 16  2  0  0  0
 16 17  1  0  0  0
 17 18  2  0  0  0
 18 19  1  0  0  0
 31 33  1  0  0  0
 32 34  1  0  0  0
 26 27  1  0  0  0
  4  8  1  0  0  0
  6  9  1  0  0  0
 15 20  1  0  0  0
 15 21  1  0  0  0
M  END
> <minimizedAffinity>
-6.47187

$$$$
3I73_ADP_A_589


 34 36  0  0  0  0  0  0  0  0999 V2000
  -54.5037   10.0080    3.3870 C   0  0  0  0  0  0  0  0  0  0  0  0
  -54.5183    9.8156    1.9491 O   0  0  0  0  0  0  0  0  0  0  0  0
  -54.3112   11.5074    3.5594 C   0  0  0  0  0  0  0  0  0  0  0  0
  -53.4035   11.7738    4.6010 O   0  0  0  0  0  0  0  0  0  0  0  0
  -53.6614   11.9165    2.2646 C   0  0  0  0  0  0  0  0  0  0  0  0
  -52.2524   12.0633    2.2780 O   0  0  0  0  0  0  0  0  0  0  0  0
  -53.4701   10.6627    1.4644 C   0  0  0  0  0  0  0  0  0  0  0  0
  -52.5628   11.3252    4.4199 H   0  0  0  0  0  0  0  0  0  0  0  0
  -51.8428   11.2274    2.5509 H   0  0  0  0  0  0  0  0  0  0  0  0
  -53.6148   11.3075    0.1676 N   0  0  0  0  0  0  0  0  0  0  0  0
  -54.4883   12.1867   -0.3094 C   0  0  0  0  0  0  0  0  0  0  0  0
  -54.2030   12.5068   -1.5847 N   0  0  0  0  0  0  0  0  0  0  0  0
  -53.1207   11.8167   -1.9219 C   0  0  0  0  0  0  0  0  0  0  0  0
  -52.2784   11.6759   -3.1017 C   0  0  0  0  0  0  0  0  0  0  0  0
  -52.5829   12.3764   -4.1897 N   0  0  0  0  0  0  0  0  0  0  0  0
  -51.2238   10.8316   -3.0409 N   0  0  0  0  0  0  0  0  0  0  0  0
  -50.9427   10.1186   -1.9352 C   0  0  0  0  0  0  0  0  0  0  0  0
  -51.6582   10.1969   -0.8060 N   0  0  0  0  0  0  0  0  0  0  0  0
  -52.7342   11.0220   -0.7577 C   0  0  0  0  0  0  0  0  0  0  0  0
  -53.3615   12.9788   -4.1854 H   0  0  0  0  0  0  0  0  0  0  0  0
  -52.0297   12.2928   -4.9998 H   0  0  0  0  0  0  0  0  0  0  0  0
  -55.6533    9.3365    4.1653 C   0  0  0  0  0  0  0  0  0  0  0  0
  -55.1392    8.4470    5.1735 O   0  0  0  0  0  0  0  0  0  0  0  0
  -54.7451    8.8921    6.6979 P   0  0  0  0  0  0  0  0  0  0  0  0
  -55.6531    8.2191    7.6978 O   0  0  0  0  0  0  0  0  0  0  0  0
  -53.2522    8.7621    6.8711 O   0  0  0  0  0  0  0  0  0  0  0  0
  -53.0073    9.0238    7.7724 H   0  0  0  0  0  0  0  0  0  0  0  0
  -55.0813   10.4648    6.7905 O   0  0  0  0  0  0  0  0  0  0  0  0
  -54.4131   11.2843    8.0034 P   0  0  0  0  0  0  0  0  0  0  0  0
  -55.0756   12.6445    7.9692 O   0  0  0  0  0  0  0  0  0  0  0  0
  -52.9400   11.3498    7.6808 O   0  0  0  0  0  0  0  0  0  0  0  0
  -54.7534   10.4353    9.2086 O   0  0  0  0  0  0  0  0  0  0  0  0
  -52.4770   11.8361    8.3808 H   0  0  0  0  0  0  0  0  0  0  0  0
  -54.3901   10.8479   10.0078 H   0  0  0  0  0  0  0  0  0  0  0  0
 29 30  2  0  0  0
 29 31  1  0  0  0
 29 32  1  0  0  0
 29 28  1  0  0  0
 24 25  2  0  0  0
 24 26  1  0  0  0
 24 28  1  0  0  0
 24 23  1  0  0  0
 23 22  1  0  0  0
 22  1  1  0  0  0
  1  2  1  0  0  0
  1  3  1  0  0  0
  2  7  1  0  0  0
  3  4  1  0  0  0
  3  5  1  0  0  0
  5  6  1  0  0  0
  5  7  1  0  0  0
  7 10  1  0  0  0
 10 11  1  0  0  0
 10 19  1  0  0  0
 11 12  2  0  0  0
 12 13  1  0  0  0
 13 14  1  0  0  0
 13 19  2  0  0  0
 14 15  1  0  0  0
 14 16  2  0  0  0
 16 17  1  0  0  0
 17 18  2  0  0  0
 18 19  1  0  0  0
 31 33  1  0  0  0
 32 34  1  0  0  0
 26 27  1  0  0  0
  4  8  1  0  0  0
  6  9  1  0  0  0
 15 20  1  0  0  0
 15 21  1  0  0  0
M  END
> <minimizedAffinity>
-6.00696

$$$$
3I73_ADP_A_589


 34 36  0  0  0  0  0  0  0  0999 V2000
  -53.3251   11.0583   -0.7167 C   0  0  0  0  0  0  0  0  0  0  0  0
  -52.6118   10.8750    0.5332 O   0  0  0  0  0  0  0  0  0  0  0  0
  -54.4144   12.0655   -0.3787 C   0  0  0  0  0  0  0  0  0  0  0  0
  -55.6301   11.7035   -0.9878 O   0  0  0  0  0  0  0  0  0  0  0  0
  -54.5767   11.9023    1.1090 C   0  0  0  0  0  0  0  0  0  0  0  0
  -55.6488   11.0861    1.5467 O   0  0  0  0  0  0  0  0  0  0  0  0
  -53.6419   10.8064    1.5260 C   0  0  0  0  0  0  0  0  0  0  0  0
  -55.8758   10.8068   -0.7115 H   0  0  0  0  0  0  0  0  0  0  0  0
  -55.5524   10.1969    1.1712 H   0  0  0  0  0  0  0  0  0  0  0  0
  -53.3898   11.3432    2.8552 N   0  0  0  0  0  0  0  0  0  0  0  0
  -52.8073   12.4578    3.2815 C   0  0  0  0  0  0  0  0  0  0  0  0
  -52.8224   12.5265    4.6251 N   0  0  0  0  0  0  0  0  0  0  0  0
  -53.4324   11.4309    5.0596 C   0  0  0  0  0  0  0  0  0  0  0  0
  -53.7976   10.8621    6.3498 C   0  0  0  0  0  0  0  0  0  0  0  0
  -53.4828   11.5320    7.4540 N   0  0  0  0  0  0  0  0  0  0  0  0
  -54.4373    9.6709    6.3685 N   0  0  0  0  0  0  0  0  0  0  0  0
  -54.7317    9.0005    5.2398 C   0  0  0  0  0  0  0  0  0  0  0  0
  -54.4418    9.4568    4.0147 N   0  0  0  0  0  0  0  0  0  0  0  0
  -53.8064   10.6484    3.8832 C   0  0  0  0  0  0  0  0  0  0  0  0
  -53.0165   12.3966    7.3892 H   0  0  0  0  0  0  0  0  0  0  0  0
  -53.7161   11.1635    8.3366 H   0  0  0  0  0  0  0  0  0  0  0  0
  -52.4487   11.3357   -1.9549 C   0  0  0  0  0  0  0  0  0  0  0  0
  -51.0645   11.4701   -1.5836 O   0  0  0  0  0  0  0  0  0  0  0  0
  -49.9145   10.3349   -1.8408 P   0  0  0  0  0  0  0  0  0  0  0  0
  -50.5029    8.9498   -1.7284 O   0  0  0  0  0  0  0  0  0  0  0  0
  -49.1446   10.6972   -3.0864 O   0  0  0  0  0  0  0  0  0  0  0  0
  -48.4594   10.0300   -3.2486 H   0  0  0  0  0  0  0  0  0  0  0  0
  -48.8850   10.4744   -0.6097 O   0  0  0  0  0  0  0  0  0  0  0  0
  -48.8911   11.8690    0.1929 P   0  0  0  0  0  0  0  0  0  0  0  0
  -47.6125   11.8608    1.0024 O   0  0  0  0  0  0  0  0  0  0  0  0
  -50.1256   11.8281    1.0604 O   0  0  0  0  0  0  0  0  0  0  0  0
  -48.9399   12.8946   -0.9185 O   0  0  0  0  0  0  0  0  0  0  0  0
  -50.1870   12.6485    1.5743 H   0  0  0  0  0  0  0  0  0  0  0  0
  -48.9471   13.7859   -0.5358 H   0  0  0  0  0  0  0  0  0  0  0  0
 29 30  2  0  0  0
 29 31  1  0  0  0
 29 32  1  0  0  0
 29 28  1  0  0  0
 24 25  2  0  0  0
 24 26  1  0  0  0
 24 28  1  0  0  0
 24 23  1  0  0  0
 23 22  1  0  0  0
 22  1  1  0  0  0
  1  2  1  0  0  0
  1  3  1  0  0  0
  2  7  1  0  0  0
  3  4  1  0  0  0
  3  5  1  0  0  0
  5  6  1  0  0  0
  5  7  1  0  0  0
  7 10  1  0  0  0
 10 11  1  0  0  0
 10 19  1  0  0  0
 11 12  2  0  0  0
 12 13  1  0  0  0
 13 14  1  0  0  0
 13 19  2  0  0  0
 14 15  1  0  0  0
 14 16  2  0  0  0
 16 17  1  0  0  0
 17 18  2  0  0  0
 18 19  1  0  0  0
 31 33  1  0  0  0
 32 34  1  0  0  0
 26 27  1  0  0  0
  4  8  1  0  0  0
  6  9  1  0  0  0
 15 20  1  0  0  0
 15 21  1  0  0  0
M  END
> <minimizedAffinity>
-5.67483

$$$$
3I73_ADP_A_589


 34 36  0  0  0  0  0  0  0  0999 V2000
  -50.5929    8.6923   -2.1973 C   0  0  0  0  0  0  0  0  0  0  0  0
  -51.2035    9.5265   -1.1794 O   0  0  0  0  0  0  0  0  0  0  0  0
  -49.0980    8.8733   -1.9786 C   0  0  0  0  0  0  0  0  0  0  0  0
  -48.4282    8.9937   -3.2102 O   0  0  0  0  0  0  0  0  0  0  0  0
  -49.0170   10.2028   -1.2770 C   0  0  0  0  0  0  0  0  0  0  0  0
  -48.7056   11.3281   -2.0793 O   0  0  0  0  0  0  0  0  0  0  0  0
  -50.4194   10.7251   -1.1818 C   0  0  0  0  0  0  0  0  0  0  0  0
  -48.8066    9.7316   -3.7133 H   0  0  0  0  0  0  0  0  0  0  0  0
  -49.3677   11.4168   -2.7826 H   0  0  0  0  0  0  0  0  0  0  0  0
  -50.2105   11.4445    0.0662 N   0  0  0  0  0  0  0  0  0  0  0  0
  -49.1452   12.0283    0.6026 C   0  0  0  0  0  0  0  0  0  0  0  0
  -49.4478   12.5886    1.7878 N   0  0  0  0  0  0  0  0  0  0  0  0
  -50.7363   12.3573    2.0051 C   0  0  0  0  0  0  0  0  0  0  0  0
  -51.7076   12.6653    3.0458 C   0  0  0  0  0  0  0  0  0  0  0  0
  -51.3061   13.3552    4.1087 N   0  0  0  0  0  0  0  0  0  0  0  0
  -52.9780   12.2294    2.8879 N   0  0  0  0  0  0  0  0  0  0  0  0
  -53.3604   11.5176    1.8122 C   0  0  0  0  0  0  0  0  0  0  0  0
  -52.5348   11.2011    0.8065 N   0  0  0  0  0  0  0  0  0  0  0  0
  -51.2384   11.5976    0.8618 C   0  0  0  0  0  0  0  0  0  0  0  0
  -50.3697   13.6511    4.1785 H   0  0  0  0  0  0  0  0  0  0  0  0
  -51.9450   13.5703    4.8262 H   0  0  0  0  0  0  0  0  0  0  0  0
  -51.1354    7.2524   -2.2987 C   0  0  0  0  0  0  0  0  0  0  0  0
  -50.1062    6.3462   -2.7364 O   0  0  0  0  0  0  0  0  0  0  0  0
  -50.1826    4.7165   -2.6119 P   0  0  0  0  0  0  0  0  0  0  0  0
  -50.6818    4.3124   -1.2464 O   0  0  0  0  0  0  0  0  0  0  0  0
  -50.8813    4.1686   -3.8313 O   0  0  0  0  0  0  0  0  0  0  0  0
  -50.9322    3.2020   -3.7679 H   0  0  0  0  0  0  0  0  0  0  0  0
  -48.6573    4.2042   -2.6896 O   0  0  0  0  0  0  0  0  0  0  0  0
  -47.5250    5.1915   -2.1132 P   0  0  0  0  0  0  0  0  0  0  0  0
  -46.3534    4.2929   -1.7815 O   0  0  0  0  0  0  0  0  0  0  0  0
  -48.1325    5.8270   -0.8863 O   0  0  0  0  0  0  0  0  0  0  0  0
  -47.2953    6.1458   -3.2647 O   0  0  0  0  0  0  0  0  0  0  0  0
  -47.4933    6.4389   -0.4890 H   0  0  0  0  0  0  0  0  0  0  0  0
  -46.6178    6.7943   -3.0169 H   0  0  0  0  0  0  0  0  0  0  0  0
 29 30  2  0  0  0
 29 31  1  0  0  0
 29 32  1  0  0  0
 29 28  1  0  0  0
 24 25  2  0  0  0
 24 26  1  0  0  0
 24 28  1  0  0  0
 24 23  1  0  0  0
 23 22  1  0  0  0
 22  1  1  0  0  0
  1  2  1  0  0  0
  1  3  1  0  0  0
  2  7  1  0  0  0
  3  4  1  0  0  0
  3  5  1  0  0  0
  5  6  1  0  0  0
  5  7  1  0  0  0
  7 10  1  0  0  0
 10 11  1  0  0  0
 10 19  1  0  0  0
 11 12  2  0  0  0
 12 13  1  0  0  0
 13 14  1  0  0  0
 13 19  2  0  0  0
 14 15  1  0  0  0
 14 16  2  0  0  0
 16 17  1  0  0  0
 17 18  2  0  0  0
 18 19  1  0  0  0
 31 33  1  0  0  0
 32 34  1  0  0  0
 26 27  1  0  0  0
  4  8  1  0  0  0
  6  9  1  0  0  0
 15 20  1  0  0  0
 15 21  1  0  0  0
M  END
> <minimizedAffinity>
-5.65987

$$$$
3I73_ADP_A_589


 34 36  0  0  0  0  0  0  0  0999 V2000
  -54.5218    9.7344   -0.2407 C   0  0  0  0  0  0  0  0  0  0  0  0
  -54.2322    9.4604    1.1543 O   0  0  0  0  0  0  0  0  0  0  0  0
  -54.1649   11.2035   -0.4127 C   0  0  0  0  0  0  0  0  0  0  0  0
  -55.1268   11.8575   -1.2045 O   0  0  0  0  0  0  0  0  0  0  0  0
  -54.2741   11.7448    0.9877 C   0  0  0  0  0  0  0  0  0  0  0  0
  -55.4786   12.4123    1.3201 O   0  0  0  0  0  0  0  0  0  0  0  0
  -54.7272   10.6078    1.8542 C   0  0  0  0  0  0  0  0  0  0  0  0
  -56.0035   11.7484   -0.8041 H   0  0  0  0  0  0  0  0  0  0  0  0
  -56.2284   11.8115    1.1874 H   0  0  0  0  0  0  0  0  0  0  0  0
  -54.0373   11.0673    3.0506 N   0  0  0  0  0  0  0  0  0  0  0  0
  -53.2481   12.1075    3.2926 C   0  0  0  0  0  0  0  0  0  0  0  0
  -52.8530   12.1245    4.5786 N   0  0  0  0  0  0  0  0  0  0  0  0
  -53.4084   11.0718    5.1657 C   0  0  0  0  0  0  0  0  0  0  0  0
  -53.4237   10.4879    6.4999 C   0  0  0  0  0  0  0  0  0  0  0  0
  -52.7288   11.0829    7.4643 N   0  0  0  0  0  0  0  0  0  0  0  0
  -54.1412    9.3590    6.6987 N   0  0  0  0  0  0  0  0  0  0  0  0
  -54.8242    8.7626    5.7047 C   0  0  0  0  0  0  0  0  0  0  0  0
  -54.8718    9.2388    4.4541 N   0  0  0  0  0  0  0  0  0  0  0  0
  -54.1922   10.3728    4.1491 C   0  0  0  0  0  0  0  0  0  0  0  0
  -52.2214   11.9041    7.2706 H   0  0  0  0  0  0  0  0  0  0  0  0
  -52.7215   10.7024    8.3723 H   0  0  0  0  0  0  0  0  0  0  0  0
  -53.9408    8.7297   -1.2562 C   0  0  0  0  0  0  0  0  0  0  0  0
  -52.6141    8.3231   -0.8738 O   0  0  0  0  0  0  0  0  0  0  0  0
  -51.5425    7.5832   -1.8645 P   0  0  0  0  0  0  0  0  0  0  0  0
  -52.1916    7.2352   -3.1816 O   0  0  0  0  0  0  0  0  0  0  0  0
  -50.2612    8.3793   -1.8751 O   0  0  0  0  0  0  0  0  0  0  0  0
  -49.6181    7.9491   -2.4600 H   0  0  0  0  0  0  0  0  0  0  0  0
  -51.2010    6.1758   -1.1593 O   0  0  0  0  0  0  0  0  0  0  0  0
  -49.9463    5.3530   -1.7406 P   0  0  0  0  0  0  0  0  0  0  0  0
  -50.2340    3.9069   -1.3996 O   0  0  0  0  0  0  0  0  0  0  0  0
  -48.7398    5.8908   -1.0103 O   0  0  0  0  0  0  0  0  0  0  0  0
  -49.9841    5.6836   -3.2166 O   0  0  0  0  0  0  0  0  0  0  0  0
  -47.9435    5.4309   -1.3189 H   0  0  0  0  0  0  0  0  0  0  0  0
  -49.2558    5.2294   -3.6685 H   0  0  0  0  0  0  0  0  0  0  0  0
 29 30  2  0  0  0
 29 31  1  0  0  0
 29 32  1  0  0  0
 29 28  1  0  0  0
 24 25  2  0  0  0
 24 26  1  0  0  0
 24 28  1  0  0  0
 24 23  1  0  0  0
 23 22  1  0  0  0
 22  1  1  0  0  0
  1  2  1  0  0  0
  1  3  1  0  0  0
  2  7  1  0  0  0
  3  4  1  0  0  0
  3  5  1  0  0  0
  5  6  1  0  0  0
  5  7  1  0  0  0
  7 10  1  0  0  0
 10 11  1  0  0  0
 10 19  1  0  0  0
 11 12  2  0  0  0
 12 13  1  0  0  0
 13 14  1  0  0  0
 13 19  2  0  0  0
 14 15  1  0  0  0
 14 16  2  0  0  0
 16 17  1  0  0  0
 17 18  2  0  0  0
 18 19  1  0  0  0
 31 33  1  0  0  0
 32 34  1  0  0  0
 26 27  1  0  0  0
  4  8  1  0  0  0
  6  9  1  0  0  0
 15 20  1  0  0  0
 15 21  1  0  0  0
M  END
> <minimizedAffinity>
-5.53261

$$$$
3I73_ADP_A_589


 34 36  0  0  0  0  0  0  0  0999 V2000
  -49.2377   10.6561   -2.0261 C   0  0  0  0  0  0  0  0  0  0  0  0
  -49.1733    9.3410   -1.4169 O   0  0  0  0  0  0  0  0  0  0  0  0
  -49.9400   10.4164   -3.3544 C   0  0  0  0  0  0  0  0  0  0  0  0
  -49.3267   11.1591   -4.3802 O   0  0  0  0  0  0  0  0  0  0  0  0
  -49.6757    8.9581   -3.6188 C   0  0  0  0  0  0  0  0  0  0  0  0
  -48.6087    8.6540   -4.4997 O   0  0  0  0  0  0  0  0  0  0  0  0
  -48.8164    8.4656   -2.4929 C   0  0  0  0  0  0  0  0  0  0  0  0
  -48.3857   10.9286   -4.4279 H   0  0  0  0  0  0  0  0  0  0  0  0
  -47.7860    9.0348   -4.1546 H   0  0  0  0  0  0  0  0  0  0  0  0
  -49.3373    7.1066   -2.5108 N   0  0  0  0  0  0  0  0  0  0  0  0
  -50.5475    6.6080   -2.7345 C   0  0  0  0  0  0  0  0  0  0  0  0
  -50.5379    5.2649   -2.6565 N   0  0  0  0  0  0  0  0  0  0  0  0
  -49.2910    4.9043   -2.3804 C   0  0  0  0  0  0  0  0  0  0  0  0
  -48.5709    3.6562   -2.1684 C   0  0  0  0  0  0  0  0  0  0  0  0
  -49.2425    2.5116   -2.2457 N   0  0  0  0  0  0  0  0  0  0  0  0
  -47.2478    3.7165   -1.8953 N   0  0  0  0  0  0  0  0  0  0  0  0
  -46.5899    4.8865   -1.8046 C   0  0  0  0  0  0  0  0  0  0  0  0
  -47.1731    6.0767   -1.9958 N   0  0  0  0  0  0  0  0  0  0  0  0
  -48.4980    6.1283   -2.2837 C   0  0  0  0  0  0  0  0  0  0  0  0
  -50.2060    2.5189   -2.4474 H   0  0  0  0  0  0  0  0  0  0  0  0
  -48.7763    1.6566   -2.1011 H   0  0  0  0  0  0  0  0  0  0  0  0
  -49.7716   11.7876   -1.1245 C   0  0  0  0  0  0  0  0  0  0  0  0
  -50.6678   11.2675   -0.1254 O   0  0  0  0  0  0  0  0  0  0  0  0
  -52.2644   10.9930   -0.3557 P   0  0  0  0  0  0  0  0  0  0  0  0
  -53.0103   11.0754    0.9535 O   0  0  0  0  0  0  0  0  0  0  0  0
  -52.7392   11.8328   -1.5154 O   0  0  0  0  0  0  0  0  0  0  0  0
  -53.6856   11.6776   -1.6608 H   0  0  0  0  0  0  0  0  0  0  0  0
  -52.3761    9.4567   -0.8271 O   0  0  0  0  0  0  0  0  0  0  0  0
  -53.8454    8.8008   -0.8373 P   0  0  0  0  0  0  0  0  0  0  0  0
  -53.8015    7.7582   -1.9333 O   0  0  0  0  0  0  0  0  0  0  0  0
  -54.7896    9.9349   -1.1548 O   0  0  0  0  0  0  0  0  0  0  0  0
  -53.9762    8.2509    0.5662 O   0  0  0  0  0  0  0  0  0  0  0  0
  -55.7001    9.6013   -1.1757 H   0  0  0  0  0  0  0  0  0  0  0  0
  -54.8425    7.8266    0.6677 H   0  0  0  0  0  0  0  0  0  0  0  0
 29 30  2  0  0  0
 29 31  1  0  0  0
 29 32  1  0  0  0
 29 28  1  0  0  0
 24 25  2  0  0  0
 24 26  1  0  0  0
 24 28  1  0  0  0
 24 23  1  0  0  0
 23 22  1  0  0  0
 22  1  1  0  0  0
  1  2  1  0  0  0
  1  3  1  0  0  0
  2  7  1  0  0  0
  3  4  1  0  0  0
  3  5  1  0  0  0
  5  6  1  0  0  0
  5  7  1  0  0  0
  7 10  1  0  0  0
 10 11  1  0  0  0
 10 19  1  0  0  0
 11 12  2  0  0  0
 12 13  1  0  0  0
 13 14  1  0  0  0
 13 19  2  0  0  0
 14 15  1  0  0  0
 14 16  2  0  0  0
 16 17  1  0  0  0
 17 18  2  0  0  0
 18 19  1  0  0  0
 31 33  1  0  0  0
 32 34  1  0  0  0
 26 27  1  0  0  0
  4  8  1  0  0  0
  6  9  1  0  0  0
 15 20  1  0  0  0
 15 21  1  0  0  0
M  END
> <minimizedAffinity>
-5.44596

$$$$
3I73_ADP_A_589


 34 36  0  0  0  0  0  0  0  0999 V2000
  -37.3774    5.3721   -3.6736 C   0  0  0  0  0  0  0  0  0  0  0  0
  -38.4867    5.3924   -2.7386 O   0  0  0  0  0  0  0  0  0  0  0  0
  -36.5173    6.5555   -3.2555 C   0  0  0  0  0  0  0  0  0  0  0  0
  -36.0486    7.2510   -4.3853 O   0  0  0  0  0  0  0  0  0  0  0  0
  -37.4945    7.4472   -2.5369 C   0  0  0  0  0  0  0  0  0  0  0  0
  -38.0397    8.5232   -3.2799 O   0  0  0  0  0  0  0  0  0  0  0  0
  -38.8332    6.7774   -2.6250 C   0  0  0  0  0  0  0  0  0  0  0  0
  -36.8021    7.5321   -4.9276 H   0  0  0  0  0  0  0  0  0  0  0  0
  -38.4932    8.1773   -4.0645 H   0  0  0  0  0  0  0  0  0  0  0  0
  -39.3235    7.2891   -1.3537 N   0  0  0  0  0  0  0  0  0  0  0  0
  -38.8592    8.2043   -0.5111 C   0  0  0  0  0  0  0  0  0  0  0  0
  -39.6805    8.3490    0.5447 N   0  0  0  0  0  0  0  0  0  0  0  0
  -40.6910    7.5079    0.3642 C   0  0  0  0  0  0  0  0  0  0  0  0
  -41.9079    7.1446    1.0773 C   0  0  0  0  0  0  0  0  0  0  0  0
  -42.1778    7.7522    2.2284 N   0  0  0  0  0  0  0  0  0  0  0  0
  -42.7094    6.1978    0.5390 N   0  0  0  0  0  0  0  0  0  0  0  0
  -42.4095    5.5824   -0.6192 C   0  0  0  0  0  0  0  0  0  0  0  0
  -41.3183    5.8641   -1.3424 N   0  0  0  0  0  0  0  0  0  0  0  0
  -40.4503    6.8063   -0.8952 C   0  0  0  0  0  0  0  0  0  0  0  0
  -41.5630    8.4359    2.5802 H   0  0  0  0  0  0  0  0  0  0  0  0
  -42.9926    7.5185    2.7292 H   0  0  0  0  0  0  0  0  0  0  0  0
  -36.6821    4.0083   -3.8600 C   0  0  0  0  0  0  0  0  0  0  0  0
  -37.0983    3.0774   -2.8441 O   0  0  0  0  0  0  0  0  0  0  0  0
  -36.5999    3.1115   -1.2860 P   0  0  0  0  0  0  0  0  0  0  0  0
  -36.5037    1.7121   -0.7298 O   0  0  0  0  0  0  0  0  0  0  0  0
  -35.3993    4.0186   -1.1801 O   0  0  0  0  0  0  0  0  0  0  0  0
  -35.0952    4.0462   -0.2594 H   0  0  0  0  0  0  0  0  0  0  0  0
  -37.7880    3.8274   -0.4669 O   0  0  0  0  0  0  0  0  0  0  0  0
  -37.3847    4.5793    0.8973 P   0  0  0  0  0  0  0  0  0  0  0  0
  -36.6882    5.8477    0.4545 O   0  0  0  0  0  0  0  0  0  0  0  0
  -36.4578    3.6319    1.6195 O   0  0  0  0  0  0  0  0  0  0  0  0
  -38.7222    4.7849    1.5742 O   0  0  0  0  0  0  0  0  0  0  0  0
  -36.1765    4.0309    2.4577 H   0  0  0  0  0  0  0  0  0  0  0  0
  -38.5896    5.2389    2.4211 H   0  0  0  0  0  0  0  0  0  0  0  0
 29 30  2  0  0  0
 29 31  1  0  0  0
 29 32  1  0  0  0
 29 28  1  0  0  0
 24 25  2  0  0  0
 24 26  1  0  0  0
 24 28  1  0  0  0
 24 23  1  0  0  0
 23 22  1  0  0  0
 22  1  1  0  0  0
  1  2  1  0  0  0
  1  3  1  0  0  0
  2  7  1  0  0  0
  3  4  1  0  0  0
  3  5  1  0  0  0
  5  6  1  0  0  0
  5  7  1  0  0  0
  7 10  1  0  0  0
 10 11  1  0  0  0
 10 19  1  0  0  0
 11 12  2  0  0  0
 12 13  1  0  0  0
 13 14  1  0  0  0
 13 19  2  0  0  0
 14 15  1  0  0  0
 14 16  2  0  0  0
 16 17  1  0  0  0
 17 18  2  0  0  0
 18 19  1  0  0  0
 31 33  1  0  0  0
 32 34  1  0  0  0
 26 27  1  0  0  0
  4  8  1  0  0  0
  6  9  1  0  0  0
 15 20  1  0  0  0
 15 21  1  0  0  0
M  END
> <minimizedAffinity>
-5.36871

$$$$
3I73_ADP_A_589


 34 36  0  0  0  0  0  0  0  0999 V2000
  -51.2134   12.4868    2.8564 C   0  0  0  0  0  0  0  0  0  0  0  0
  -51.6470   11.8937    1.6054 O   0  0  0  0  0  0  0  0  0  0  0  0
  -50.0196   13.3457    2.4664 C   0  0  0  0  0  0  0  0  0  0  0  0
  -48.9890   13.2223    3.4165 O   0  0  0  0  0  0  0  0  0  0  0  0
  -49.5471   12.7081    1.1871 C   0  0  0  0  0  0  0  0  0  0  0  0
  -48.4553   11.8111    1.2884 O   0  0  0  0  0  0  0  0  0  0  0  0
  -50.4314   11.5212    0.9460 C   0  0  0  0  0  0  0  0  0  0  0  0
  -48.7421   12.2885    3.5061 H   0  0  0  0  0  0  0  0  0  0  0  0
  -48.6831   11.0920    1.8981 H   0  0  0  0  0  0  0  0  0  0  0  0
  -50.3561   11.5903   -0.5059 N   0  0  0  0  0  0  0  0  0  0  0  0
  -49.6744   12.3698   -1.3370 C   0  0  0  0  0  0  0  0  0  0  0  0
  -49.9225   12.0425   -2.6183 N   0  0  0  0  0  0  0  0  0  0  0  0
  -50.7789   11.0290   -2.5976 C   0  0  0  0  0  0  0  0  0  0  0  0
  -51.4554   10.1929   -3.5798 C   0  0  0  0  0  0  0  0  0  0  0  0
  -51.2314   10.4175   -4.8707 N   0  0  0  0  0  0  0  0  0  0  0  0
  -52.2890    9.2256   -3.1346 N   0  0  0  0  0  0  0  0  0  0  0  0
  -52.5152    9.0255   -1.8235 C   0  0  0  0  0  0  0  0  0  0  0  0
  -51.9268    9.7410   -0.8566 N   0  0  0  0  0  0  0  0  0  0  0  0
  -51.0648   10.7325   -1.1952 C   0  0  0  0  0  0  0  0  0  0  0  0
  -50.6151   11.1342   -5.1460 H   0  0  0  0  0  0  0  0  0  0  0  0
  -51.6819    9.8672   -5.5515 H   0  0  0  0  0  0  0  0  0  0  0  0
  -52.3206   13.1393    3.7088 C   0  0  0  0  0  0  0  0  0  0  0  0
  -52.6521   12.3121    4.8391 O   0  0  0  0  0  0  0  0  0  0  0  0
  -54.0604   11.4987    5.0195 P   0  0  0  0  0  0  0  0  0  0  0  0
  -55.0725   11.9590    3.9994 O   0  0  0  0  0  0  0  0  0  0  0  0
  -53.7591   10.0246    5.1287 O   0  0  0  0  0  0  0  0  0  0  0  0
  -54.5880    9.5323    5.2361 H   0  0  0  0  0  0  0  0  0  0  0  0
  -54.6432   11.9539    6.4506 O   0  0  0  0  0  0  0  0  0  0  0  0
  -54.0323   11.2305    7.7517 P   0  0  0  0  0  0  0  0  0  0  0  0
  -54.7025    9.8745    7.7971 O   0  0  0  0  0  0  0  0  0  0  0  0
  -54.4197   12.1070    8.9179 O   0  0  0  0  0  0  0  0  0  0  0  0
  -52.5491   11.2032    7.4540 O   0  0  0  0  0  0  0  0  0  0  0  0
  -54.0776   11.7215    9.7397 H   0  0  0  0  0  0  0  0  0  0  0  0
  -52.0794   10.7795    8.1894 H   0  0  0  0  0  0  0  0  0  0  0  0
 29 30  2  0  0  0
 29 31  1  0  0  0
 29 32  1  0  0  0
 29 28  1  0  0  0
 24 25  2  0  0  0
 24 26  1  0  0  0
 24 28  1  0  0  0
 24 23  1  0  0  0
 23 22  1  0  0  0
 22  1  1  0  0  0
  1  2  1  0  0  0
  1  3  1  0  0  0
  2  7  1  0  0  0
  3  4  1  0  0  0
  3  5  1  0  0  0
  5  6  1  0  0  0
  5  7  1  0  0  0
  7 10  1  0  0  0
 10 11  1  0  0  0
 10 19  1  0  0  0
 11 12  2  0  0  0
 12 13  1  0  0  0
 13 14  1  0  0  0
 13 19  2  0  0  0
 14 15  1  0  0  0
 14 16  2  0  0  0
 16 17  1  0  0  0
 17 18  2  0  0  0
 18 19  1  0  0  0
 31 33  1  0  0  0
 32 34  1  0  0  0
 26 27  1  0  0  0
  4  8  1  0  0  0
  6  9  1  0  0  0
 15 20  1  0  0  0
 15 21  1  0  0  0
M  END
> <minimizedAffinity>
-5.16865

$$$$
