5HZ8_65Z_A_200


 28 31  0  0  0  0  0  0  0  0999 V2000
    3.9571   -6.7621  -23.1548 C   0  0  0  0  0  0  0  0  0  0  0  0
    5.1639   -7.4880  -23.3289 C   0  0  0  0  0  0  0  0  0  0  0  0
    5.7983   -7.9941  -22.2246 C   0  0  0  0  0  0  0  0  0  0  0  0
    3.4462   -6.5274  -21.9162 C   0  0  0  0  0  0  0  0  0  0  0  0
    4.1112   -7.0218  -20.7663 C   0  0  0  0  0  0  0  0  0  0  0  0
    5.3226   -7.7561  -20.9286 C   0  0  0  0  0  0  0  0  0  0  0  0
    5.9936   -8.3246  -19.8932 N   0  0  0  0  0  0  0  0  0  0  0  0
    5.5636   -8.1507  -18.6612 C   0  0  0  0  0  0  0  0  0  0  0  0
    4.3437   -7.4063  -18.3848 C   0  0  0  0  0  0  0  0  0  0  0  0
    3.6616   -6.8318  -19.4469 C   0  0  0  0  0  0  0  0  0  0  0  0
    7.2169   -8.9350  -22.4523 Cl  0  0  0  0  0  0  0  0  0  0  0  0
    3.1295   -6.2101  -24.5578 Cl  0  0  0  0  0  0  0  0  0  0  0  0
    6.2944   -8.7175  -17.5938 N   0  0  0  0  0  0  0  0  0  0  0  0
    7.7593   -8.7677  -17.8234 C   0  0  0  0  0  0  0  0  0  0  0  0
    8.4618   -9.0483  -16.5217 C   0  0  0  0  0  0  0  0  0  0  0  0
    7.9469  -10.2041  -15.7912 C   0  0  0  0  0  0  0  0  0  0  0  0
    6.4701  -10.2766  -15.7716 C   0  0  0  0  0  0  0  0  0  0  0  0
    5.8673  -10.0232  -17.0914 C   0  0  0  0  0  0  0  0  0  0  0  0
    2.4813   -5.9878  -19.1925 C   0  0  0  0  0  0  0  0  0  0  0  0
    1.2261   -6.6120  -19.0109 C   0  0  0  0  0  0  0  0  0  0  0  0
    0.1512   -4.4519  -18.7711 C   0  0  0  0  0  0  0  0  0  0  0  0
    1.3877   -3.8078  -18.9343 C   0  0  0  0  0  0  0  0  0  0  0  0
    0.0892   -5.8534  -18.7750 C   0  0  0  0  0  0  0  0  0  0  0  0
    2.5434   -4.5865  -19.1909 C   0  0  0  0  0  0  0  0  0  0  0  0
    3.9980   -7.0925  -17.0004 C   0  0  0  0  0  0  0  0  0  0  0  0
    4.6530   -6.1286  -16.3718 O   0  0  0  0  0  0  0  0  0  0  0  0
    3.2255   -7.7949  -16.3909 O   0  0  0  0  0  0  0  0  0  0  0  0
    5.2518   -5.5841  -16.8439 H   0  0  0  0  0  0  0  0  0  0  0  0
 12  1  1  0  0  0
  2  1  2  0  0  0
  2  3  1  0  0  0
  1  4  1  0  0  0
 11  3  1  0  0  0
  3  6  2  0  0  0
  4  5  2  0  0  0
  6  5  1  0  0  0
  6  7  1  0  0  0
  5 10  1  0  0  0
  7  8  2  0  0  0
 20 23  2  0  0  0
 20 19  1  0  0  0
 10 19  1  0  0  0
 10  9  2  0  0  0
 23 21  1  0  0  0
 19 24  2  0  0  0
 21 22  2  0  0  0
 24 22  1  0  0  0
  8  9  1  0  0  0
  8 13  1  0  0  0
  9 25  1  0  0  0
 14 13  1  0  0  0
 14 15  1  0  0  0
 13 18  1  0  0  0
 25 27  2  0  0  0
 25 26  1  0  0  0
 18 17  1  0  0  0
 15 16  1  0  0  0
 16 17  1  0  0  0
 26 28  1  0  0  0
M  END
> <minimizedAffinity>
-10.80239

$$$$
5HZ8_65Z_A_200


 28 31  0  0  0  0  0  0  0  0999 V2000
    4.1981   -6.6474  -23.4893 C   0  0  0  0  0  0  0  0  0  0  0  0
    5.4420   -7.2958  -23.7038 C   0  0  0  0  0  0  0  0  0  0  0  0
    6.0940   -7.8500  -22.6333 C   0  0  0  0  0  0  0  0  0  0  0  0
    3.6671   -6.5322  -22.2423 C   0  0  0  0  0  0  0  0  0  0  0  0
    4.3487   -7.0766  -21.1252 C   0  0  0  0  0  0  0  0  0  0  0  0
    5.5976   -7.7340  -21.3284 C   0  0  0  0  0  0  0  0  0  0  0  0
    6.2899   -8.3432  -20.3309 N   0  0  0  0  0  0  0  0  0  0  0  0
    5.8429   -8.2839  -19.0941 C   0  0  0  0  0  0  0  0  0  0  0  0
    4.5842   -7.6254  -18.7763 C   0  0  0  0  0  0  0  0  0  0  0  0
    3.8808   -7.0088  -19.8003 C   0  0  0  0  0  0  0  0  0  0  0  0
    7.5608   -8.6977  -22.9149 Cl  0  0  0  0  0  0  0  0  0  0  0  0
    3.3529   -6.0352  -24.8564 Cl  0  0  0  0  0  0  0  0  0  0  0  0
    6.5945   -8.8908  -18.0638 N   0  0  0  0  0  0  0  0  0  0  0  0
    5.8484   -9.9176  -17.2956 C   0  0  0  0  0  0  0  0  0  0  0  0
    6.8152  -10.7358  -16.4815 C   0  0  0  0  0  0  0  0  0  0  0  0
    7.7354   -9.9502  -15.6625 C   0  0  0  0  0  0  0  0  0  0  0  0
    8.2961   -8.7782  -16.3686 C   0  0  0  0  0  0  0  0  0  0  0  0
    7.2774   -8.0162  -17.1108 C   0  0  0  0  0  0  0  0  0  0  0  0
    2.6567   -6.2474  -19.4967 C   0  0  0  0  0  0  0  0  0  0  0  0
    2.7077   -4.8353  -19.5356 C   0  0  0  0  0  0  0  0  0  0  0  0
    0.3827   -4.7013  -18.8608 C   0  0  0  0  0  0  0  0  0  0  0  0
    0.3014   -6.1023  -18.8285 C   0  0  0  0  0  0  0  0  0  0  0  0
    1.5792   -4.0812  -19.2506 C   0  0  0  0  0  0  0  0  0  0  0  0
    1.4612   -6.8679  -19.1049 C   0  0  0  0  0  0  0  0  0  0  0  0
    4.2132   -7.4339  -17.3763 C   0  0  0  0  0  0  0  0  0  0  0  0
    3.2987   -8.2236  -16.8348 O   0  0  0  0  0  0  0  0  0  0  0  0
    4.6286   -6.4799  -16.7608 O   0  0  0  0  0  0  0  0  0  0  0  0
    2.9765   -8.9631  -17.3117 H   0  0  0  0  0  0  0  0  0  0  0  0
 12  1  1  0  0  0
  2  1  2  0  0  0
  2  3  1  0  0  0
  1  4  1  0  0  0
 11  3  1  0  0  0
  3  6  2  0  0  0
  4  5  2  0  0  0
  6  5  1  0  0  0
  6  7  1  0  0  0
  5 10  1  0  0  0
  7  8  2  0  0  0
 20 23  2  0  0  0
 20 19  1  0  0  0
 10 19  1  0  0  0
 10  9  2  0  0  0
 23 21  1  0  0  0
 19 24  2  0  0  0
 21 22  2  0  0  0
 24 22  1  0  0  0
  8  9  1  0  0  0
  8 13  1  0  0  0
  9 25  1  0  0  0
 14 13  1  0  0  0
 14 15  1  0  0  0
 13 18  1  0  0  0
 25 27  2  0  0  0
 25 26  1  0  0  0
 18 17  1  0  0  0
 15 16  1  0  0  0
 16 17  1  0  0  0
 26 28  1  0  0  0
M  END
> <minimizedAffinity>
-8.73502

$$$$
5HZ8_65Z_A_200


 28 31  0  0  0  0  0  0  0  0999 V2000
    7.2523   -9.0442  -21.7288 C   0  0  0  0  0  0  0  0  0  0  0  0
    6.4103   -8.4212  -22.6862 C   0  0  0  0  0  0  0  0  0  0  0  0
    5.3561   -7.6630  -22.2482 C   0  0  0  0  0  0  0  0  0  0  0  0
    7.0073   -8.9354  -20.3953 C   0  0  0  0  0  0  0  0  0  0  0  0
    5.9020   -8.1774  -19.9340 C   0  0  0  0  0  0  0  0  0  0  0  0
    5.0509   -7.5433  -20.8862 C   0  0  0  0  0  0  0  0  0  0  0  0
    4.0092   -6.7437  -20.5384 N   0  0  0  0  0  0  0  0  0  0  0  0
    3.7065   -6.5801  -19.2677 C   0  0  0  0  0  0  0  0  0  0  0  0
    4.5038   -7.1941  -18.2159 C   0  0  0  0  0  0  0  0  0  0  0  0
    5.5682   -8.0060  -18.5782 C   0  0  0  0  0  0  0  0  0  0  0  0
    4.3887   -6.8520  -23.4128 Cl  0  0  0  0  0  0  0  0  0  0  0  0
    8.6205   -9.9191  -22.2949 Cl  0  0  0  0  0  0  0  0  0  0  0  0
    2.5974   -5.7754  -18.9255 N   0  0  0  0  0  0  0  0  0  0  0  0
    1.2857   -6.4433  -19.1112 C   0  0  0  0  0  0  0  0  0  0  0  0
    0.2169   -5.6561  -18.4006 C   0  0  0  0  0  0  0  0  0  0  0  0
    0.1961   -4.2316  -18.7244 C   0  0  0  0  0  0  0  0  0  0  0  0
    1.5417   -3.6203  -18.7731 C   0  0  0  0  0  0  0  0  0  0  0  0
    2.5155   -4.4393  -19.5151 C   0  0  0  0  0  0  0  0  0  0  0  0
    6.3318   -8.7229  -17.5424 C   0  0  0  0  0  0  0  0  0  0  0  0
    7.5355   -8.1527  -17.0689 C   0  0  0  0  0  0  0  0  0  0  0  0
    7.9006  -10.0555  -15.6112 C   0  0  0  0  0  0  0  0  0  0  0  0
    6.7020  -10.6369  -16.0540 C   0  0  0  0  0  0  0  0  0  0  0  0
    8.2874   -8.7982  -16.0985 C   0  0  0  0  0  0  0  0  0  0  0  0
    5.9458   -9.9811  -17.0571 C   0  0  0  0  0  0  0  0  0  0  0  0
    4.0337   -7.1281  -16.8342 C   0  0  0  0  0  0  0  0  0  0  0  0
    3.0665   -7.9417  -16.4397 O   0  0  0  0  0  0  0  0  0  0  0  0
    4.4206   -6.2489  -16.1002 O   0  0  0  0  0  0  0  0  0  0  0  0
    2.7664   -8.6233  -17.0084 H   0  0  0  0  0  0  0  0  0  0  0  0
 12  1  1  0  0  0
  2  1  2  0  0  0
  2  3  1  0  0  0
  1  4  1  0  0  0
 11  3  1  0  0  0
  3  6  2  0  0  0
  4  5  2  0  0  0
  6  5  1  0  0  0
  6  7  1  0  0  0
  5 10  1  0  0  0
  7  8  2  0  0  0
 20 23  2  0  0  0
 20 19  1  0  0  0
 10 19  1  0  0  0
 10  9  2  0  0  0
 23 21  1  0  0  0
 19 24  2  0  0  0
 21 22  2  0  0  0
 24 22  1  0  0  0
  8  9  1  0  0  0
  8 13  1  0  0  0
  9 25  1  0  0  0
 14 13  1  0  0  0
 14 15  1  0  0  0
 13 18  1  0  0  0
 25 27  2  0  0  0
 25 26  1  0  0  0
 18 17  1  0  0  0
 15 16  1  0  0  0
 16 17  1  0  0  0
 26 28  1  0  0  0
M  END
> <minimizedAffinity>
-8.68051

$$$$
5HZ8_65Z_A_200


 28 31  0  0  0  0  0  0  0  0999 V2000
    7.1620  -10.2620  -20.3372 C   0  0  0  0  0  0  0  0  0  0  0  0
    7.0379   -9.2155  -21.2875 C   0  0  0  0  0  0  0  0  0  0  0  0
    6.0617   -8.2704  -21.1091 C   0  0  0  0  0  0  0  0  0  0  0  0
    6.3082  -10.3643  -19.2833 C   0  0  0  0  0  0  0  0  0  0  0  0
    5.2769   -9.4080  -19.1071 C   0  0  0  0  0  0  0  0  0  0  0  0
    5.1445   -8.3495  -20.0531 C   0  0  0  0  0  0  0  0  0  0  0  0
    4.2312   -7.3511  -19.9312 N   0  0  0  0  0  0  0  0  0  0  0  0
    3.3697   -7.3712  -18.9361 C   0  0  0  0  0  0  0  0  0  0  0  0
    3.4104   -8.4150  -17.9223 C   0  0  0  0  0  0  0  0  0  0  0  0
    4.3479   -9.4289  -18.0510 C   0  0  0  0  0  0  0  0  0  0  0  0
    5.9684   -6.9664  -22.2230 Cl  0  0  0  0  0  0  0  0  0  0  0  0
    8.4475  -11.3882  -20.5299 Cl  0  0  0  0  0  0  0  0  0  0  0  0
    2.4030   -6.3455  -18.8457 N   0  0  0  0  0  0  0  0  0  0  0  0
    1.0629   -6.7315  -19.3517 C   0  0  0  0  0  0  0  0  0  0  0  0
    0.0440   -5.7217  -18.8944 C   0  0  0  0  0  0  0  0  0  0  0  0
    0.3962   -4.3327  -19.1792 C   0  0  0  0  0  0  0  0  0  0  0  0
    1.8120   -4.0151  -18.8944 C   0  0  0  0  0  0  0  0  0  0  0  0
    2.7415   -5.0371  -19.4053 C   0  0  0  0  0  0  0  0  0  0  0  0
    4.3496  -10.5537  -17.0997 C   0  0  0  0  0  0  0  0  0  0  0  0
    3.5911  -11.7059  -17.4084 C   0  0  0  0  0  0  0  0  0  0  0  0
    4.2333  -12.7304  -15.3068 C   0  0  0  0  0  0  0  0  0  0  0  0
    5.0056  -11.6040  -14.9826 C   0  0  0  0  0  0  0  0  0  0  0  0
    3.5612  -12.7845  -16.5370 C   0  0  0  0  0  0  0  0  0  0  0  0
    5.0201  -10.4983  -15.8687 C   0  0  0  0  0  0  0  0  0  0  0  0
    2.3340   -8.4951  -16.9377 C   0  0  0  0  0  0  0  0  0  0  0  0
    1.2490   -9.1994  -17.2203 O   0  0  0  0  0  0  0  0  0  0  0  0
    2.3694   -7.8142  -15.9394 O   0  0  0  0  0  0  0  0  0  0  0  0
    1.2213   -9.7272  -17.9940 H   0  0  0  0  0  0  0  0  0  0  0  0
 12  1  1  0  0  0
  2  1  2  0  0  0
  2  3  1  0  0  0
  1  4  1  0  0  0
 11  3  1  0  0  0
  3  6  2  0  0  0
  4  5  2  0  0  0
  6  5  1  0  0  0
  6  7  1  0  0  0
  5 10  1  0  0  0
  7  8  2  0  0  0
 20 23  2  0  0  0
 20 19  1  0  0  0
 10 19  1  0  0  0
 10  9  2  0  0  0
 23 21  1  0  0  0
 19 24  2  0  0  0
 21 22  2  0  0  0
 24 22  1  0  0  0
  8  9  1  0  0  0
  8 13  1  0  0  0
  9 25  1  0  0  0
 14 13  1  0  0  0
 14 15  1  0  0  0
 13 18  1  0  0  0
 25 27  2  0  0  0
 25 26  1  0  0  0
 18 17  1  0  0  0
 15 16  1  0  0  0
 16 17  1  0  0  0
 26 28  1  0  0  0
M  END
> <minimizedAffinity>
-8.48493

$$$$
5HZ8_65Z_A_200


 28 31  0  0  0  0  0  0  0  0999 V2000
    6.2270   -8.1118  -21.6499 C   0  0  0  0  0  0  0  0  0  0  0  0
    6.9915   -9.2672  -21.3431 C   0  0  0  0  0  0  0  0  0  0  0  0
    6.6159  -10.0480  -20.2812 C   0  0  0  0  0  0  0  0  0  0  0  0
    5.1606   -7.7474  -20.8882 C   0  0  0  0  0  0  0  0  0  0  0  0
    4.7825   -8.5327  -19.7704 C   0  0  0  0  0  0  0  0  0  0  0  0
    5.5406   -9.6983  -19.4543 C   0  0  0  0  0  0  0  0  0  0  0  0
    5.2154  -10.5474  -18.4450 N   0  0  0  0  0  0  0  0  0  0  0  0
    4.1935  -10.2717  -17.6623 C   0  0  0  0  0  0  0  0  0  0  0  0
    3.3617   -9.0992  -17.8905 C   0  0  0  0  0  0  0  0  0  0  0  0
    3.6972   -8.2386  -18.9251 C   0  0  0  0  0  0  0  0  0  0  0  0
    7.5025  -11.4844  -19.9646 Cl  0  0  0  0  0  0  0  0  0  0  0  0
    6.6611   -7.1934  -23.0377 Cl  0  0  0  0  0  0  0  0  0  0  0  0
    3.8924  -11.1460  -16.5947 N   0  0  0  0  0  0  0  0  0  0  0  0
    4.7735  -10.9824  -15.4123 C   0  0  0  0  0  0  0  0  0  0  0  0
    4.1628  -11.6872  -14.2304 C   0  0  0  0  0  0  0  0  0  0  0  0
    3.7786  -13.0740  -14.4829 C   0  0  0  0  0  0  0  0  0  0  0  0
    3.1068  -13.2698  -15.7856 C   0  0  0  0  0  0  0  0  0  0  0  0
    3.7884  -12.5747  -16.8909 C   0  0  0  0  0  0  0  0  0  0  0  0
    2.9378   -6.9914  -19.1196 C   0  0  0  0  0  0  0  0  0  0  0  0
    1.5546   -7.0746  -19.3989 C   0  0  0  0  0  0  0  0  0  0  0  0
    1.4134   -4.6607  -19.5779 C   0  0  0  0  0  0  0  0  0  0  0  0
    2.7824   -4.5495  -19.2882 C   0  0  0  0  0  0  0  0  0  0  0  0
    0.8046   -5.9244  -19.5943 C   0  0  0  0  0  0  0  0  0  0  0  0
    3.5474   -5.7281  -19.1051 C   0  0  0  0  0  0  0  0  0  0  0  0
    2.3488   -8.7398  -16.9009 C   0  0  0  0  0  0  0  0  0  0  0  0
    2.6821   -7.9530  -15.8894 O   0  0  0  0  0  0  0  0  0  0  0  0
    1.2605   -9.2658  -16.9241 O   0  0  0  0  0  0  0  0  0  0  0  0
    3.5255   -7.5453  -15.8712 H   0  0  0  0  0  0  0  0  0  0  0  0
 12  1  1  0  0  0
  2  1  2  0  0  0
  2  3  1  0  0  0
  1  4  1  0  0  0
 11  3  1  0  0  0
  3  6  2  0  0  0
  4  5  2  0  0  0
  6  5  1  0  0  0
  6  7  1  0  0  0
  5 10  1  0  0  0
  7  8  2  0  0  0
 20 23  2  0  0  0
 20 19  1  0  0  0
 10 19  1  0  0  0
 10  9  2  0  0  0
 23 21  1  0  0  0
 19 24  2  0  0  0
 21 22  2  0  0  0
 24 22  1  0  0  0
  8  9  1  0  0  0
  8 13  1  0  0  0
  9 25  1  0  0  0
 14 13  1  0  0  0
 14 15  1  0  0  0
 13 18  1  0  0  0
 25 27  2  0  0  0
 25 26  1  0  0  0
 18 17  1  0  0  0
 15 16  1  0  0  0
 16 17  1  0  0  0
 26 28  1  0  0  0
M  END
> <minimizedAffinity>
-8.47411

$$$$
5HZ8_65Z_A_200


 28 31  0  0  0  0  0  0  0  0999 V2000
    1.8038   -5.0488  -19.2626 C   0  0  0  0  0  0  0  0  0  0  0  0
    1.7661   -5.4533  -17.9029 C   0  0  0  0  0  0  0  0  0  0  0  0
    2.5481   -6.5050  -17.5023 C   0  0  0  0  0  0  0  0  0  0  0  0
    2.5662   -5.7091  -20.1753 C   0  0  0  0  0  0  0  0  0  0  0  0
    3.3556   -6.8164  -19.7759 C   0  0  0  0  0  0  0  0  0  0  0  0
    3.3293   -7.2300  -18.4116 C   0  0  0  0  0  0  0  0  0  0  0  0
    4.1009   -8.2356  -17.9229 N   0  0  0  0  0  0  0  0  0  0  0  0
    4.8723   -8.9232  -18.7384 C   0  0  0  0  0  0  0  0  0  0  0  0
    4.9627   -8.5909  -20.1527 C   0  0  0  0  0  0  0  0  0  0  0  0
    4.1751   -7.5606  -20.6440 C   0  0  0  0  0  0  0  0  0  0  0  0
    2.5524   -6.9381  -15.8404 Cl  0  0  0  0  0  0  0  0  0  0  0  0
    0.8831   -3.6728  -19.7283 Cl  0  0  0  0  0  0  0  0  0  0  0  0
    5.6395   -9.9896  -18.2198 N   0  0  0  0  0  0  0  0  0  0  0  0
    4.9248  -11.2894  -18.1889 C   0  0  0  0  0  0  0  0  0  0  0  0
    5.9149  -12.4010  -17.9634 C   0  0  0  0  0  0  0  0  0  0  0  0
    6.8051  -12.1986  -16.8227 C   0  0  0  0  0  0  0  0  0  0  0  0
    7.3295  -10.8195  -16.7240 C   0  0  0  0  0  0  0  0  0  0  0  0
    6.2890   -9.7962  -16.9236 C   0  0  0  0  0  0  0  0  0  0  0  0
    4.1668   -7.2656  -22.0873 C   0  0  0  0  0  0  0  0  0  0  0  0
    2.9235   -7.1471  -22.7494 C   0  0  0  0  0  0  0  0  0  0  0  0
    4.0495   -6.7728  -24.8639 C   0  0  0  0  0  0  0  0  0  0  0  0
    5.2970   -6.8718  -24.2280 C   0  0  0  0  0  0  0  0  0  0  0  0
    2.8718   -6.8758  -24.1086 C   0  0  0  0  0  0  0  0  0  0  0  0
    5.3446   -7.1648  -22.8425 C   0  0  0  0  0  0  0  0  0  0  0  0
    5.6942   -9.4827  -21.0493 C   0  0  0  0  0  0  0  0  0  0  0  0
    5.0432  -10.4555  -21.6683 O   0  0  0  0  0  0  0  0  0  0  0  0
    6.9000   -9.4246  -21.1164 O   0  0  0  0  0  0  0  0  0  0  0  0
    4.1087  -10.5007  -21.6164 H   0  0  0  0  0  0  0  0  0  0  0  0
 12  1  1  0  0  0
  2  1  2  0  0  0
  2  3  1  0  0  0
  1  4  1  0  0  0
 11  3  1  0  0  0
  3  6  2  0  0  0
  4  5  2  0  0  0
  6  5  1  0  0  0
  6  7  1  0  0  0
  5 10  1  0  0  0
  7  8  2  0  0  0
 20 23  2  0  0  0
 20 19  1  0  0  0
 10 19  1  0  0  0
 10  9  2  0  0  0
 23 21  1  0  0  0
 19 24  2  0  0  0
 21 22  2  0  0  0
 24 22  1  0  0  0
  8  9  1  0  0  0
  8 13  1  0  0  0
  9 25  1  0  0  0
 14 13  1  0  0  0
 14 15  1  0  0  0
 13 18  1  0  0  0
 25 27  2  0  0  0
 25 26  1  0  0  0
 18 17  1  0  0  0
 15 16  1  0  0  0
 16 17  1  0  0  0
 26 28  1  0  0  0
M  END
> <minimizedAffinity>
-8.27535

$$$$
5HZ8_65Z_A_200


 28 31  0  0  0  0  0  0  0  0999 V2000
    2.8716   -5.2971  -19.0701 C   0  0  0  0  0  0  0  0  0  0  0  0
    2.3153   -5.6673  -17.8182 C   0  0  0  0  0  0  0  0  0  0  0  0
    2.6494   -6.8813  -17.2773 C   0  0  0  0  0  0  0  0  0  0  0  0
    3.6918   -6.1384  -19.7553 C   0  0  0  0  0  0  0  0  0  0  0  0
    4.0194   -7.4082  -19.2174 C   0  0  0  0  0  0  0  0  0  0  0  0
    3.4698   -7.7901  -17.9583 C   0  0  0  0  0  0  0  0  0  0  0  0
    3.7784   -8.9562  -17.3336 N   0  0  0  0  0  0  0  0  0  0  0  0
    4.5700   -9.8255  -17.9257 C   0  0  0  0  0  0  0  0  0  0  0  0
    5.1739   -9.5391  -19.2188 C   0  0  0  0  0  0  0  0  0  0  0  0
    4.8575   -8.3449  -19.8491 C   0  0  0  0  0  0  0  0  0  0  0  0
    2.0308   -7.2875  -15.7275 Cl  0  0  0  0  0  0  0  0  0  0  0  0
    2.5103   -3.7345  -19.6912 Cl  0  0  0  0  0  0  0  0  0  0  0  0
    4.8504  -11.0491  -17.2782 N   0  0  0  0  0  0  0  0  0  0  0  0
    3.7259  -11.5744  -16.4654 C   0  0  0  0  0  0  0  0  0  0  0  0
    3.9886  -13.0156  -16.1179 C   0  0  0  0  0  0  0  0  0  0  0  0
    5.3013  -13.2680  -15.5281 C   0  0  0  0  0  0  0  0  0  0  0  0
    6.3985  -12.5430  -16.2041 C   0  0  0  0  0  0  0  0  0  0  0  0
    6.0704  -11.1330  -16.4757 C   0  0  0  0  0  0  0  0  0  0  0  0
    5.3704   -8.0694  -21.2023 C   0  0  0  0  0  0  0  0  0  0  0  0
    6.7413   -7.7628  -21.3598 C   0  0  0  0  0  0  0  0  0  0  0  0
    6.4314   -7.4572  -23.7450 C   0  0  0  0  0  0  0  0  0  0  0  0
    5.0693   -7.7723  -23.6181 C   0  0  0  0  0  0  0  0  0  0  0  0
    7.2631   -7.4915  -22.6159 C   0  0  0  0  0  0  0  0  0  0  0  0
    4.5380   -8.0331  -22.3307 C   0  0  0  0  0  0  0  0  0  0  0  0
    5.9036  -10.5962  -19.9148 C   0  0  0  0  0  0  0  0  0  0  0  0
    7.2146  -10.6912  -19.7554 O   0  0  0  0  0  0  0  0  0  0  0  0
    5.3432  -11.2852  -20.7351 O   0  0  0  0  0  0  0  0  0  0  0  0
    7.6492  -10.1573  -19.1198 H   0  0  0  0  0  0  0  0  0  0  0  0
 12  1  1  0  0  0
  2  1  2  0  0  0
  2  3  1  0  0  0
  1  4  1  0  0  0
 11  3  1  0  0  0
  3  6  2  0  0  0
  4  5  2  0  0  0
  6  5  1  0  0  0
  6  7  1  0  0  0
  5 10  1  0  0  0
  7  8  2  0  0  0
 20 23  2  0  0  0
 20 19  1  0  0  0
 10 19  1  0  0  0
 10  9  2  0  0  0
 23 21  1  0  0  0
 19 24  2  0  0  0
 21 22  2  0  0  0
 24 22  1  0  0  0
  8  9  1  0  0  0
  8 13  1  0  0  0
  9 25  1  0  0  0
 14 13  1  0  0  0
 14 15  1  0  0  0
 13 18  1  0  0  0
 25 27  2  0  0  0
 25 26  1  0  0  0
 18 17  1  0  0  0
 15 16  1  0  0  0
 16 17  1  0  0  0
 26 28  1  0  0  0
M  END
> <minimizedAffinity>
-8.23468

$$$$
