4XIQ_40Y_A_301


 27 30  0  0  0  0  0  0  0  0999 V2000
    5.9892  -11.8597  -24.2997 C   0  0  0  0  0  0  0  0  0  0  0  0
    7.1133  -12.7867  -24.5778 C   0  0  0  0  0  0  0  0  0  0  0  0
    6.8062  -14.2467  -24.8321 C   0  0  0  0  0  0  0  0  0  0  0  0
    5.4441  -14.5365  -25.4841 C   0  0  0  0  0  0  0  0  0  0  0  0
    4.3591  -13.8010  -24.6893 C   0  0  0  0  0  0  0  0  0  0  0  0
    5.4454  -14.0665  -26.9413 C   0  0  0  0  0  0  0  0  0  0  0  0
    0.2863  -12.3770  -23.5121 C   0  0  0  0  0  0  0  0  0  0  0  0
    0.3108  -10.4309  -24.9435 C   0  0  0  0  0  0  0  0  0  0  0  0
    2.9202   -8.3206  -24.7086 C   0  0  0  0  0  0  0  0  0  0  0  0
   -0.4018  -11.4280  -24.2744 C   0  0  0  0  0  0  0  0  0  0  0  0
    1.6698  -12.3527  -23.4234 C   0  0  0  0  0  0  0  0  0  0  0  0
    1.6934  -10.4082  -24.8626 C   0  0  0  0  0  0  0  0  0  0  0  0
    2.3670   -9.3921  -25.5194 O   0  0  0  0  0  0  0  0  0  0  0  0
    3.9673   -8.7960  -23.7202 C   0  0  0  0  0  0  0  0  0  0  0  0
    4.5304  -10.1777  -23.9098 C   0  0  0  0  0  0  0  0  0  0  0  0
    2.3849  -11.3701  -24.1150 C   0  0  0  0  0  0  0  0  0  0  0  0
    3.8236  -11.3624  -24.0964 N   0  0  0  0  0  0  0  0  0  0  0  0
    4.7116  -12.3866  -24.3392 C   0  0  0  0  0  0  0  0  0  0  0  0
    5.1608  -16.0348  -25.4549 C   0  0  0  0  0  0  0  0  0  0  0  0
    8.2761  -12.3921  -24.6453 O   0  0  0  0  0  0  0  0  0  0  0  0
    5.8691  -10.4421  -24.0254 C   0  0  0  0  0  0  0  0  0  0  0  0
    7.0279   -9.4859  -23.9425 C   0  0  0  0  0  0  0  0  0  0  0  0
   -2.4142  -11.2248  -25.6182 N   0  0  0  0  0  0  0  0  0  0  0  0
   -2.5908  -11.7525  -23.4491 O   0  0  0  0  0  0  0  0  0  0  0  0
   -1.8982  -11.4811  -24.4253 C   0  0  0  0  0  0  0  0  0  0  0  0
   -3.3896  -11.2517  -25.7488 H   0  0  0  0  0  0  0  0  0  0  0  0
   -1.8222  -11.0074  -26.3742 H   0  0  0  0  0  0  0  0  0  0  0  0
  6  4  1  0  0  0
 24 25  2  0  0  0
 19  4  1  0  0  0
 13 12  1  0  0  0
 13  9  1  0  0  0
  4  5  1  0  0  0
  4  3  1  0  0  0
  8 12  2  0  0  0
  8 10  1  0  0  0
 25 10  1  0  0  0
 25 23  1  0  0  0
 12 16  1  0  0  0
  5 18  1  0  0  0
 10  7  2  0  0  0
  3  2  1  0  0  0
  9 14  1  0  0  0
 18 17  1  0  0  0
 18  1  2  0  0  0
 16 17  1  0  0  0
 16 11  2  0  0  0
  2 20  2  0  0  0
  2  1  1  0  0  0
 17 15  1  0  0  0
  1 21  1  0  0  0
  7 11  1  0  0  0
 15 21  2  0  0  0
 15 14  1  0  0  0
 21 22  1  0  0  0
 23 26  1  0  0  0
 23 27  1  0  0  0
M  END
> <minimizedAffinity>
-12.61654

$$$$
4XIQ_40Y_A_301


 27 30  0  0  0  0  0  0  0  0999 V2000
    2.4637  -11.9291  -24.2628 C   0  0  0  0  0  0  0  0  0  0  0  0
    1.5434  -10.8003  -23.9817 C   0  0  0  0  0  0  0  0  0  0  0  0
    2.0990   -9.3924  -23.9781 C   0  0  0  0  0  0  0  0  0  0  0  0
    3.2905   -9.1448  -24.9181 C   0  0  0  0  0  0  0  0  0  0  0  0
    4.3427  -10.2304  -24.6644 C   0  0  0  0  0  0  0  0  0  0  0  0
    2.8289   -9.1835  -26.3774 C   0  0  0  0  0  0  0  0  0  0  0  0
    8.1526  -12.5340  -25.0881 C   0  0  0  0  0  0  0  0  0  0  0  0
    7.3440  -13.9755  -26.8502 C   0  0  0  0  0  0  0  0  0  0  0  0
    4.4654  -15.6408  -26.3431 C   0  0  0  0  0  0  0  0  0  0  0  0
    8.4032  -13.3265  -26.2125 C   0  0  0  0  0  0  0  0  0  0  0  0
    6.8634  -12.3694  -24.6051 C   0  0  0  0  0  0  0  0  0  0  0  0
    6.0540  -13.8074  -26.3745 C   0  0  0  0  0  0  0  0  0  0  0  0
    5.0304  -14.4838  -27.0164 O   0  0  0  0  0  0  0  0  0  0  0  0
    3.8247  -15.3054  -25.0102 C   0  0  0  0  0  0  0  0  0  0  0  0
    3.5575  -13.8562  -24.7089 C   0  0  0  0  0  0  0  0  0  0  0  0
    5.7995  -12.9980  -25.2597 C   0  0  0  0  0  0  0  0  0  0  0  0
    4.4449  -12.7897  -24.8218 N   0  0  0  0  0  0  0  0  0  0  0  0
    3.7778  -11.6148  -24.5554 C   0  0  0  0  0  0  0  0  0  0  0  0
    3.9013   -7.7762  -24.6355 C   0  0  0  0  0  0  0  0  0  0  0  0
    0.3412  -10.9770  -23.7923 O   0  0  0  0  0  0  0  0  0  0  0  0
    2.3255  -13.3679  -24.3636 C   0  0  0  0  0  0  0  0  0  0  0  0
    1.0376  -14.1195  -24.1626 C   0  0  0  0  0  0  0  0  0  0  0  0
   10.7583  -13.8665  -25.9700 N   0  0  0  0  0  0  0  0  0  0  0  0
    9.9846  -13.1969  -27.9620 O   0  0  0  0  0  0  0  0  0  0  0  0
    9.7903  -13.4637  -26.7798 C   0  0  0  0  0  0  0  0  0  0  0  0
   11.6763  -13.9660  -26.3115 H   0  0  0  0  0  0  0  0  0  0  0  0
   10.5596  -14.0664  -25.0267 H   0  0  0  0  0  0  0  0  0  0  0  0
  6  4  1  0  0  0
 24 25  2  0  0  0
 19  4  1  0  0  0
 13 12  1  0  0  0
 13  9  1  0  0  0
  4  5  1  0  0  0
  4  3  1  0  0  0
  8 12  2  0  0  0
  8 10  1  0  0  0
 25 10  1  0  0  0
 25 23  1  0  0  0
 12 16  1  0  0  0
  5 18  1  0  0  0
 10  7  2  0  0  0
  3  2  1  0  0  0
  9 14  1  0  0  0
 18 17  1  0  0  0
 18  1  2  0  0  0
 16 17  1  0  0  0
 16 11  2  0  0  0
  2 20  2  0  0  0
  2  1  1  0  0  0
 17 15  1  0  0  0
  1 21  1  0  0  0
  7 11  1  0  0  0
 15 21  2  0  0  0
 15 14  1  0  0  0
 21 22  1  0  0  0
 23 26  1  0  0  0
 23 27  1  0  0  0
M  END
> <minimizedAffinity>
-10.15674

$$$$
