2O4J_VD4_A_500


 33 35  0  0  0  0  0  0  0  0999 V2000
   62.7815    2.0464   -7.1853 C   0  0  0  0  0  0  0  0  0  0  0  0
   62.0757    0.8678   -7.7967 C   0  0  0  0  0  0  0  0  0  0  0  0
   62.0407    2.8907   -6.3993 C   0  0  0  0  0  0  0  0  0  0  0  0
   62.4823    4.1420   -5.6628 C   0  0  0  0  0  0  0  0  0  0  0  0
   63.2509    3.7402   -4.3735 C   0  0  0  0  0  0  0  0  0  0  0  0
   63.2602    5.2118   -6.4477 C   0  0  0  0  0  0  0  0  0  0  0  0
   63.3698    6.5538   -5.6515 C   0  0  0  0  0  0  0  0  0  0  0  0
   61.9870    7.0505   -5.1850 C   0  0  0  0  0  0  0  0  0  0  0  0
   60.5674    2.5876   -6.1251 C   0  0  0  0  0  0  0  0  0  0  0  0
   60.1399    3.5446   -4.9995 C   0  0  0  0  0  0  0  0  0  0  0  0
   61.0658    4.6919   -5.4183 C   0  0  0  0  0  0  0  0  0  0  0  0
   61.2390    5.8929   -4.5164 C   0  0  0  0  0  0  0  0  0  0  0  0
   60.8419    5.9076   -3.2154 C   0  0  0  0  0  0  0  0  0  0  0  0
   61.0102    7.0794   -2.3029 C   0  0  0  0  0  0  0  0  0  0  0  0
   61.2973    7.0149   -0.9735 C   0  0  0  0  0  0  0  0  0  0  0  0
   61.5322    5.6844   -0.2468 C   0  0  0  0  0  0  0  0  0  0  0  0
   60.8138    5.6468    1.1165 C   0  0  0  0  0  0  0  0  0  0  0  0
   61.1570    4.4518    1.8711 O   0  0  0  0  0  0  0  0  0  0  0  0
   61.4205    8.2925   -0.1588 C   0  0  0  0  0  0  0  0  0  0  0  0
   60.7685    8.1583    1.2275 C   0  0  0  0  0  0  0  0  0  0  0  0
   59.3309    8.1778    1.1068 O   0  0  0  0  0  0  0  0  0  0  0  0
   61.1666    6.8692    1.8932 C   0  0  0  0  0  0  0  0  0  0  0  0
   61.7547    6.8875    3.0780 C   0  0  0  0  0  0  0  0  0  0  0  0
   62.1108    4.4435    2.0474 H   0  0  0  0  0  0  0  0  0  0  0  0
   59.0414    7.4250    0.5680 H   0  0  0  0  0  0  0  0  0  0  0  0
   64.2669    2.2018   -7.4909 C   0  0  0  0  0  0  0  0  0  0  0  0
   65.0682    1.4479   -6.4044 C   0  0  0  0  0  0  0  0  0  0  0  0
   66.5183    1.0676   -6.7779 C   0  0  0  0  0  0  0  0  0  0  0  0
   65.5554   -1.0761   -7.1237 O   0  0  0  0  0  0  0  0  0  0  0  0
   66.7736   -0.4442   -6.7946 C   0  0  0  0  0  0  0  0  0  0  0  0
   67.7348   -0.8154   -7.9152 C   0  0  0  0  0  0  0  0  0  0  0  0
   67.2947   -0.9692   -5.4515 C   0  0  0  0  0  0  0  0  0  0  0  0
   65.2348   -0.7372   -7.9741 H   0  0  0  0  0  0  0  0  0  0  0  0
 29 30  1  0  0  0
 31 30  1  0  0  0
 26  1  1  0  0  0
 26 27  1  0  0  0
  2  1  1  0  0  0
 28 30  1  0  0  0
 28 27  1  0  0  0
 30 32  1  0  0  0
  1  3  2  0  0  0
  6  7  1  0  0  0
  6  4  1  0  0  0
  3  9  1  0  0  0
  3  4  1  0  0  0
  7  8  1  0  0  0
  9 10  1  0  0  0
  4 11  1  0  0  0
  4  5  1  0  0  0
  8 12  1  0  0  0
 11 10  1  0  0  0
 11 12  1  0  0  0
 12 13  2  0  0  0
 13 14  1  0  0  0
 14 15  2  0  0  0
 15 19  1  0  0  0
 15 16  1  0  0  0
 19 20  1  0  0  0
 16 17  1  0  0  0
 21 20  1  0  0  0
 20 22  1  0  0  0
 17 22  1  0  0  0
 17 18  1  0  0  0
 22 23  2  0  0  0
 29 33  1  0  0  0
 18 24  1  0  0  0
 21 25  1  0  0  0
M  END
> <minimizedAffinity>
-14.20340

$$$$
