4AP7_F47_A_2345


 25 28  0  0  0  0  0  0  0  0999 V2000
   18.4170   10.5362   39.2729 N   0  0  0  0  0  0  0  0  0  0  0  0
   17.9272   10.9593   37.2294 N   0  0  0  0  0  0  0  0  0  0  0  0
   18.0251   11.9767   41.1766 C   0  0  0  0  0  0  0  0  0  0  0  0
   17.4590   12.8992   40.2362 C   0  0  0  0  0  0  0  0  0  0  0  0
   17.8620   11.4788   38.4620 C   0  0  0  0  0  0  0  0  0  0  0  0
   17.3902   12.6376   38.9333 N   0  0  0  0  0  0  0  0  0  0  0  0
   18.7990    9.4984   38.5730 C   0  0  0  0  0  0  0  0  0  0  0  0
   18.5022   10.7951   40.6948 N   0  0  0  0  0  0  0  0  0  0  0  0
   18.5123    9.7386   37.3505 N   0  0  0  0  0  0  0  0  0  0  0  0
   18.3329   13.0902   46.7212 F   0  0  0  0  0  0  0  0  0  0  0  0
   18.1226   12.2606   42.6569 C   0  0  0  0  0  0  0  0  0  0  0  0
   18.6766   11.2881   43.5688 C   0  0  0  0  0  0  0  0  0  0  0  0
   18.7246   11.6184   44.9274 C   0  0  0  0  0  0  0  0  0  0  0  0
   17.6433   13.5091   43.1259 C   0  0  0  0  0  0  0  0  0  0  0  0
   17.6997   13.8220   44.4962 C   0  0  0  0  0  0  0  0  0  0  0  0
   18.2510   12.8412   45.3628 C   0  0  0  0  0  0  0  0  0  0  0  0
   19.4587    8.2569   39.1589 C   0  0  0  0  0  0  0  0  0  0  0  0
   20.8452    8.4143   39.6339 C   0  0  0  0  0  0  0  0  0  0  0  0
   22.5029    8.5477   41.4999 C   0  0  0  0  0  0  0  0  0  0  0  0
   23.2542    8.7476   39.1978 C   0  0  0  0  0  0  0  0  0  0  0  0
   21.1628    8.3925   41.0547 C   0  0  0  0  0  0  0  0  0  0  0  0
   23.5540    8.7252   40.6107 C   0  0  0  0  0  0  0  0  0  0  0  0
   24.8480    8.8743   41.1175 O   0  0  0  0  0  0  0  0  0  0  0  0
   21.9093    8.5941   38.6811 C   0  0  0  0  0  0  0  0  0  0  0  0
   24.9940    8.8530   42.0428 H   0  0  0  0  0  0  0  0  0  0  0  0
 10 16  1  0  0  0
 16 13  1  0  0  0
 16 15  2  0  0  0
 13 12  2  0  0  0
 12 11  1  0  0  0
 15 14  1  0  0  0
 14 11  2  0  0  0
 11  3  1  0  0  0
  3  4  1  0  0  0
  3  8  2  0  0  0
  4  6  2  0  0  0
  6  5  1  0  0  0
  8  1  1  0  0  0
  1  5  1  0  0  0
  1  7  1  0  0  0
  5  2  2  0  0  0
  2  9  1  0  0  0
  9  7  2  0  0  0
  7 17  1  0  0  0
 17 18  1  0  0  0
 18 21  1  0  0  0
 18 24  2  0  0  0
 21 19  2  0  0  0
 19 22  1  0  0  0
 22 23  1  0  0  0
 22 20  2  0  0  0
 20 24  1  0  0  0
 23 25  1  0  0  0
M  END
> <minimizedAffinity>
-11.42022

$$$$
4AP7_F47_A_2345


 25 28  0  0  0  0  0  0  0  0999 V2000
   18.3532   10.6131   39.2860 N   0  0  0  0  0  0  0  0  0  0  0  0
   17.8579   11.0255   37.2417 N   0  0  0  0  0  0  0  0  0  0  0  0
   17.9963   12.0770   41.1787 C   0  0  0  0  0  0  0  0  0  0  0  0
   17.4395   13.0000   40.2333 C   0  0  0  0  0  0  0  0  0  0  0  0
   17.8086   11.5571   38.4698 C   0  0  0  0  0  0  0  0  0  0  0  0
   17.3585   12.7277   38.9333 N   0  0  0  0  0  0  0  0  0  0  0  0
   18.7141    9.5629   38.5935 C   0  0  0  0  0  0  0  0  0  0  0  0
   18.4512   10.8835   40.7050 N   0  0  0  0  0  0  0  0  0  0  0  0
   18.4239    9.7966   37.3706 N   0  0  0  0  0  0  0  0  0  0  0  0
   18.4744   13.1418   46.7208 F   0  0  0  0  0  0  0  0  0  0  0  0
   18.1073   12.3727   42.6558 C   0  0  0  0  0  0  0  0  0  0  0  0
   17.5492   13.5787   43.2200 C   0  0  0  0  0  0  0  0  0  0  0  0
   17.7004   13.7885   44.5948 C   0  0  0  0  0  0  0  0  0  0  0  0
   18.7860   11.4330   43.4712 C   0  0  0  0  0  0  0  0  0  0  0  0
   18.9282   11.6627   44.8517 C   0  0  0  0  0  0  0  0  0  0  0  0
   18.3666   12.8594   45.3709 C   0  0  0  0  0  0  0  0  0  0  0  0
   19.3572    8.3161   39.1868 C   0  0  0  0  0  0  0  0  0  0  0  0
   20.7541    8.4510   39.6375 C   0  0  0  0  0  0  0  0  0  0  0  0
   22.4466    8.5538   41.4739 C   0  0  0  0  0  0  0  0  0  0  0  0
   23.1598    8.7487   39.1593 C   0  0  0  0  0  0  0  0  0  0  0  0
   21.0966    8.4204   41.0523 C   0  0  0  0  0  0  0  0  0  0  0  0
   23.4842    8.7177   40.5666 C   0  0  0  0  0  0  0  0  0  0  0  0
   24.7892    8.8457   41.0507 O   0  0  0  0  0  0  0  0  0  0  0  0
   21.8037    8.6172   38.6663 C   0  0  0  0  0  0  0  0  0  0  0  0
   24.9513    8.8195   41.9732 H   0  0  0  0  0  0  0  0  0  0  0  0
 10 16  1  0  0  0
 16 13  1  0  0  0
 16 15  2  0  0  0
 13 12  2  0  0  0
 12 11  1  0  0  0
 15 14  1  0  0  0
 14 11  2  0  0  0
 11  3  1  0  0  0
  3  4  1  0  0  0
  3  8  2  0  0  0
  4  6  2  0  0  0
  6  5  1  0  0  0
  8  1  1  0  0  0
  1  5  1  0  0  0
  1  7  1  0  0  0
  5  2  2  0  0  0
  2  9  1  0  0  0
  9  7  2  0  0  0
  7 17  1  0  0  0
 17 18  1  0  0  0
 18 21  1  0  0  0
 18 24  2  0  0  0
 21 19  2  0  0  0
 19 22  1  0  0  0
 22 23  1  0  0  0
 22 20  2  0  0  0
 20 24  1  0  0  0
 23 25  1  0  0  0
M  END
> <minimizedAffinity>
-11.40331

$$$$
4AP7_F47_A_2345


 25 28  0  0  0  0  0  0  0  0999 V2000
   18.3843   10.8573   39.9306 N   0  0  0  0  0  0  0  0  0  0  0  0
   17.6668   11.7660   38.1267 N   0  0  0  0  0  0  0  0  0  0  0  0
   18.3153   11.8133   42.1519 C   0  0  0  0  0  0  0  0  0  0  0  0
   17.6884   12.9466   41.5369 C   0  0  0  0  0  0  0  0  0  0  0  0
   17.7858   11.9790   39.4434 C   0  0  0  0  0  0  0  0  0  0  0  0
   17.4424   13.0039   40.2303 N   0  0  0  0  0  0  0  0  0  0  0  0
   18.6169   10.0063   38.9638 C   0  0  0  0  0  0  0  0  0  0  0  0
   18.6613   10.7685   41.3489 N   0  0  0  0  0  0  0  0  0  0  0  0
   18.1933   10.5373   37.8808 N   0  0  0  0  0  0  0  0  0  0  0  0
   19.3725   11.4720   47.7056 F   0  0  0  0  0  0  0  0  0  0  0  0
   18.6132   11.7346   43.6306 C   0  0  0  0  0  0  0  0  0  0  0  0
   19.9461   11.9606   44.1369 C   0  0  0  0  0  0  0  0  0  0  0  0
   20.1470   11.8606   45.5178 C   0  0  0  0  0  0  0  0  0  0  0  0
   17.5442   11.4216   44.5068 C   0  0  0  0  0  0  0  0  0  0  0  0
   17.7669   11.3248   45.8924 C   0  0  0  0  0  0  0  0  0  0  0  0
   19.0905   11.5535   46.3536 C   0  0  0  0  0  0  0  0  0  0  0  0
   19.2743    8.6451   39.1506 C   0  0  0  0  0  0  0  0  0  0  0  0
   20.6774    8.6519   39.6023 C   0  0  0  0  0  0  0  0  0  0  0  0
   23.1197    8.8521   39.1098 C   0  0  0  0  0  0  0  0  0  0  0  0
   22.3729    8.4704   41.3903 C   0  0  0  0  0  0  0  0  0  0  0  0
   21.7715    8.8500   38.6622 C   0  0  0  0  0  0  0  0  0  0  0  0
   23.4480    8.6669   40.4458 C   0  0  0  0  0  0  0  0  0  0  0  0
   24.7956    8.6777   40.8166 O   0  0  0  0  0  0  0  0  0  0  0  0
   20.9784    8.4587   40.9967 C   0  0  0  0  0  0  0  0  0  0  0  0
   25.4589    8.8089   40.1680 H   0  0  0  0  0  0  0  0  0  0  0  0
 10 16  1  0  0  0
 16 13  1  0  0  0
 16 15  2  0  0  0
 13 12  2  0  0  0
 12 11  1  0  0  0
 15 14  1  0  0  0
 14 11  2  0  0  0
 11  3  1  0  0  0
  3  4  1  0  0  0
  3  8  2  0  0  0
  4  6  2  0  0  0
  6  5  1  0  0  0
  8  1  1  0  0  0
  1  5  1  0  0  0
  1  7  1  0  0  0
  5  2  2  0  0  0
  2  9  1  0  0  0
  9  7  2  0  0  0
  7 17  1  0  0  0
 17 18  1  0  0  0
 18 21  1  0  0  0
 18 24  2  0  0  0
 21 19  2  0  0  0
 19 22  1  0  0  0
 22 23  1  0  0  0
 22 20  2  0  0  0
 20 24  1  0  0  0
 23 25  1  0  0  0
M  END
> <minimizedAffinity>
-10.37939

$$$$
4AP7_F47_A_2345


 25 28  0  0  0  0  0  0  0  0999 V2000
   22.0934    8.8421   41.2193 N   0  0  0  0  0  0  0  0  0  0  0  0
   22.1986    8.1101   39.2074 N   0  0  0  0  0  0  0  0  0  0  0  0
   23.9615    9.2812   42.6925 C   0  0  0  0  0  0  0  0  0  0  0  0
   24.7917    8.8511   41.6054 C   0  0  0  0  0  0  0  0  0  0  0  0
   22.9664    8.4510   40.2503 C   0  0  0  0  0  0  0  0  0  0  0  0
   24.2902    8.4564   40.4377 N   0  0  0  0  0  0  0  0  0  0  0  0
   20.8608    8.7459   40.7903 C   0  0  0  0  0  0  0  0  0  0  0  0
   22.6131    9.2782   42.4983 N   0  0  0  0  0  0  0  0  0  0  0  0
   20.9097    8.3093   39.5897 N   0  0  0  0  0  0  0  0  0  0  0  0
   26.0938   10.9242   47.6755 F   0  0  0  0  0  0  0  0  0  0  0  0
   24.5114    9.7216   44.0286 C   0  0  0  0  0  0  0  0  0  0  0  0
   23.7380   10.5582   44.9152 C   0  0  0  0  0  0  0  0  0  0  0  0
   24.3180   10.9339   46.1316 C   0  0  0  0  0  0  0  0  0  0  0  0
   25.8162    9.2959   44.3818 C   0  0  0  0  0  0  0  0  0  0  0  0
   26.3820    9.6852   45.6094 C   0  0  0  0  0  0  0  0  0  0  0  0
   25.5920   10.5080   46.4554 C   0  0  0  0  0  0  0  0  0  0  0  0
   19.6295    9.1031   41.6127 C   0  0  0  0  0  0  0  0  0  0  0  0
   18.9138   10.3307   41.2210 C   0  0  0  0  0  0  0  0  0  0  0  0
   17.7922   11.7335   39.4826 C   0  0  0  0  0  0  0  0  0  0  0  0
   17.9339   12.5304   41.7737 C   0  0  0  0  0  0  0  0  0  0  0  0
   18.4792   10.5449   39.8480 C   0  0  0  0  0  0  0  0  0  0  0  0
   17.5099   12.7296   40.4072 C   0  0  0  0  0  0  0  0  0  0  0  0
   16.8330   13.8749   39.9787 O   0  0  0  0  0  0  0  0  0  0  0  0
   18.6371   11.3407   42.2089 C   0  0  0  0  0  0  0  0  0  0  0  0
   16.5775   13.9599   39.0812 H   0  0  0  0  0  0  0  0  0  0  0  0
 10 16  1  0  0  0
 16 13  1  0  0  0
 16 15  2  0  0  0
 13 12  2  0  0  0
 12 11  1  0  0  0
 15 14  1  0  0  0
 14 11  2  0  0  0
 11  3  1  0  0  0
  3  4  1  0  0  0
  3  8  2  0  0  0
  4  6  2  0  0  0
  6  5  1  0  0  0
  8  1  1  0  0  0
  1  5  1  0  0  0
  1  7  1  0  0  0
  5  2  2  0  0  0
  2  9  1  0  0  0
  9  7  2  0  0  0
  7 17  1  0  0  0
 17 18  1  0  0  0
 18 21  1  0  0  0
 18 24  2  0  0  0
 21 19  2  0  0  0
 19 22  1  0  0  0
 22 23  1  0  0  0
 22 20  2  0  0  0
 20 24  1  0  0  0
 23 25  1  0  0  0
M  END
> <minimizedAffinity>
-9.54019

$$$$
4AP7_F47_A_2345


 25 28  0  0  0  0  0  0  0  0999 V2000
   18.2862   11.3370   41.8146 N   0  0  0  0  0  0  0  0  0  0  0  0
   17.7469   12.7139   40.2628 N   0  0  0  0  0  0  0  0  0  0  0  0
   18.3241   11.7871   44.1913 C   0  0  0  0  0  0  0  0  0  0  0  0
   17.8875   13.1087   43.8472 C   0  0  0  0  0  0  0  0  0  0  0  0
   17.8736   12.6154   41.5923 C   0  0  0  0  0  0  0  0  0  0  0  0
   17.6760   13.4850   42.5885 N   0  0  0  0  0  0  0  0  0  0  0  0
   18.4039   10.6910   40.6825 C   0  0  0  0  0  0  0  0  0  0  0  0
   18.5215   10.9014   43.1751 N   0  0  0  0  0  0  0  0  0  0  0  0
   18.0849   11.5025   39.7475 N   0  0  0  0  0  0  0  0  0  0  0  0
   19.2197   10.0907   49.5202 F   0  0  0  0  0  0  0  0  0  0  0  0
   18.5804   11.3449   45.6126 C   0  0  0  0  0  0  0  0  0  0  0  0
   19.9221   11.2668   46.1399 C   0  0  0  0  0  0  0  0  0  0  0  0
   20.0813   10.8391   47.4623 C   0  0  0  0  0  0  0  0  0  0  0  0
   17.4622   10.9986   46.4115 C   0  0  0  0  0  0  0  0  0  0  0  0
   17.6434   10.5699   47.7389 C   0  0  0  0  0  0  0  0  0  0  0  0
   18.9770   10.5056   48.2230 C   0  0  0  0  0  0  0  0  0  0  0  0
   18.8435    9.2380   40.5586 C   0  0  0  0  0  0  0  0  0  0  0  0
   20.2918    9.0015   40.4198 C   0  0  0  0  0  0  0  0  0  0  0  0
   22.5273    8.5392   41.4378 C   0  0  0  0  0  0  0  0  0  0  0  0
   22.3202    8.7713   39.0280 C   0  0  0  0  0  0  0  0  0  0  0  0
   21.1322    8.7635   41.5847 C   0  0  0  0  0  0  0  0  0  0  0  0
   23.1416    8.5379   40.1931 C   0  0  0  0  0  0  0  0  0  0  0  0
   24.5193    8.3131   40.1214 O   0  0  0  0  0  0  0  0  0  0  0  0
   20.8927    9.0055   39.1117 C   0  0  0  0  0  0  0  0  0  0  0  0
   25.0114    8.1663   40.9052 H   0  0  0  0  0  0  0  0  0  0  0  0
 10 16  1  0  0  0
 16 13  1  0  0  0
 16 15  2  0  0  0
 13 12  2  0  0  0
 12 11  1  0  0  0
 15 14  1  0  0  0
 14 11  2  0  0  0
 11  3  1  0  0  0
  3  4  1  0  0  0
  3  8  2  0  0  0
  4  6  2  0  0  0
  6  5  1  0  0  0
  8  1  1  0  0  0
  1  5  1  0  0  0
  1  7  1  0  0  0
  5  2  2  0  0  0
  2  9  1  0  0  0
  9  7  2  0  0  0
  7 17  1  0  0  0
 17 18  1  0  0  0
 18 21  1  0  0  0
 18 24  2  0  0  0
 21 19  2  0  0  0
 19 22  1  0  0  0
 22 23  1  0  0  0
 22 20  2  0  0  0
 20 24  1  0  0  0
 23 25  1  0  0  0
M  END
> <minimizedAffinity>
-9.15543

$$$$
4AP7_F47_A_2345


 25 28  0  0  0  0  0  0  0  0999 V2000
   19.0933   12.3566   45.0516 N   0  0  0  0  0  0  0  0  0  0  0  0
   18.2275   14.0325   46.0696 N   0  0  0  0  0  0  0  0  0  0  0  0
   18.6491   11.6664   42.7758 C   0  0  0  0  0  0  0  0  0  0  0  0
   17.7561   12.7866   42.7157 C   0  0  0  0  0  0  0  0  0  0  0  0
   18.2226   13.3914   44.8939 C   0  0  0  0  0  0  0  0  0  0  0  0
   17.5672   13.6045   43.7482 N   0  0  0  0  0  0  0  0  0  0  0  0
   19.6020   12.3667   46.2574 C   0  0  0  0  0  0  0  0  0  0  0  0
   19.3185   11.4531   43.9430 N   0  0  0  0  0  0  0  0  0  0  0  0
   19.0927   13.3629   46.8759 N   0  0  0  0  0  0  0  0  0  0  0  0
   19.4591    8.1770   38.3890 F   0  0  0  0  0  0  0  0  0  0  0  0
   18.8679   10.7205   41.6188 C   0  0  0  0  0  0  0  0  0  0  0  0
   19.6423    9.5125   41.7780 C   0  0  0  0  0  0  0  0  0  0  0  0
   19.8102    8.6908   40.6583 C   0  0  0  0  0  0  0  0  0  0  0  0
   18.2970   11.0604   40.3670 C   0  0  0  0  0  0  0  0  0  0  0  0
   18.4780   10.2211   39.2527 C   0  0  0  0  0  0  0  0  0  0  0  0
   19.2454    9.0420   39.4472 C   0  0  0  0  0  0  0  0  0  0  0  0
   20.6135   11.3532   46.7767 C   0  0  0  0  0  0  0  0  0  0  0  0
   20.0976   10.3281   47.7018 C   0  0  0  0  0  0  0  0  0  0  0  0
   20.4903    8.4812   49.3395 C   0  0  0  0  0  0  0  0  0  0  0  0
   18.2193    9.1462   48.7879 C   0  0  0  0  0  0  0  0  0  0  0  0
   21.0001    9.4670   48.4528 C   0  0  0  0  0  0  0  0  0  0  0  0
   19.1269    8.2982   49.5254 C   0  0  0  0  0  0  0  0  0  0  0  0
   18.6942    7.3076   50.4114 O   0  0  0  0  0  0  0  0  0  0  0  0
   18.6767   10.1696   47.8698 C   0  0  0  0  0  0  0  0  0  0  0  0
   19.3207    6.7814   50.8680 H   0  0  0  0  0  0  0  0  0  0  0  0
 10 16  1  0  0  0
 16 13  1  0  0  0
 16 15  2  0  0  0
 13 12  2  0  0  0
 12 11  1  0  0  0
 15 14  1  0  0  0
 14 11  2  0  0  0
 11  3  1  0  0  0
  3  4  1  0  0  0
  3  8  2  0  0  0
  4  6  2  0  0  0
  6  5  1  0  0  0
  8  1  1  0  0  0
  1  5  1  0  0  0
  1  7  1  0  0  0
  5  2  2  0  0  0
  2  9  1  0  0  0
  9  7  2  0  0  0
  7 17  1  0  0  0
 17 18  1  0  0  0
 18 21  1  0  0  0
 18 24  2  0  0  0
 21 19  2  0  0  0
 19 22  1  0  0  0
 22 23  1  0  0  0
 22 20  2  0  0  0
 20 24  1  0  0  0
 23 25  1  0  0  0
M  END
> <minimizedAffinity>
-8.85074

$$$$
4AP7_F47_A_2345


 25 28  0  0  0  0  0  0  0  0999 V2000
   18.7924   12.2856   45.0940 N   0  0  0  0  0  0  0  0  0  0  0  0
   18.0381   14.0890   45.9734 N   0  0  0  0  0  0  0  0  0  0  0  0
   18.6347   11.6416   42.7673 C   0  0  0  0  0  0  0  0  0  0  0  0
   17.9487   12.8855   42.5724 C   0  0  0  0  0  0  0  0  0  0  0  0
   18.1312   13.4405   44.8055 C   0  0  0  0  0  0  0  0  0  0  0  0
   17.7182   13.7368   43.5689 N   0  0  0  0  0  0  0  0  0  0  0  0
   19.0871   12.2333   46.3680 C   0  0  0  0  0  0  0  0  0  0  0  0
   19.0578   11.3431   44.0275 N   0  0  0  0  0  0  0  0  0  0  0  0
   18.6416   13.3046   46.9050 N   0  0  0  0  0  0  0  0  0  0  0  0
   19.6002    8.0069   38.5325 F   0  0  0  0  0  0  0  0  0  0  0  0
   18.8954   10.6576   41.6515 C   0  0  0  0  0  0  0  0  0  0  0  0
   19.7094    9.4846   41.8653 C   0  0  0  0  0  0  0  0  0  0  0  0
   19.9146    8.6244   40.7813 C   0  0  0  0  0  0  0  0  0  0  0  0
   18.3237   10.9264   40.3829 C   0  0  0  0  0  0  0  0  0  0  0  0
   18.5425   10.0493   39.3052 C   0  0  0  0  0  0  0  0  0  0  0  0
   19.3482    8.9063   39.5530 C   0  0  0  0  0  0  0  0  0  0  0  0
   19.8279   11.0828   47.0368 C   0  0  0  0  0  0  0  0  0  0  0  0
   21.3002   11.1517   47.0161 C   0  0  0  0  0  0  0  0  0  0  0  0
   23.4162   12.2289   46.2352 C   0  0  0  0  0  0  0  0  0  0  0  0
   23.5133   10.3005   47.7103 C   0  0  0  0  0  0  0  0  0  0  0  0
   21.9967   12.1746   46.2489 C   0  0  0  0  0  0  0  0  0  0  0  0
   24.1906   11.3202   46.9434 C   0  0  0  0  0  0  0  0  0  0  0  0
   25.5827   11.4300   46.8835 O   0  0  0  0  0  0  0  0  0  0  0  0
   22.0695   10.1928   47.7652 C   0  0  0  0  0  0  0  0  0  0  0  0
   25.9775   12.1087   46.3721 H   0  0  0  0  0  0  0  0  0  0  0  0
 10 16  1  0  0  0
 16 13  1  0  0  0
 16 15  2  0  0  0
 13 12  2  0  0  0
 12 11  1  0  0  0
 15 14  1  0  0  0
 14 11  2  0  0  0
 11  3  1  0  0  0
  3  4  1  0  0  0
  3  8  2  0  0  0
  4  6  2  0  0  0
  6  5  1  0  0  0
  8  1  1  0  0  0
  1  5  1  0  0  0
  1  7  1  0  0  0
  5  2  2  0  0  0
  2  9  1  0  0  0
  9  7  2  0  0  0
  7 17  1  0  0  0
 17 18  1  0  0  0
 18 21  1  0  0  0
 18 24  2  0  0  0
 21 19  2  0  0  0
 19 22  1  0  0  0
 22 23  1  0  0  0
 22 20  2  0  0  0
 20 24  1  0  0  0
 23 25  1  0  0  0
M  END
> <minimizedAffinity>
-8.45489

$$$$
