4ZW8_4T2_A_1102


 35 36  0  0  0  0  0  0  0  0999 V2000
   88.9357  120.3274  132.4539 C   0  0  0  0  0  0  0  0  0  0  0  0
   88.7561  119.2873  133.3623 C   0  0  0  0  0  0  0  0  0  0  0  0
   88.5401  119.5743  134.7079 C   0  0  0  0  0  0  0  0  0  0  0  0
   88.8897  121.6453  132.8881 C   0  0  0  0  0  0  0  0  0  0  0  0
   88.6770  121.9341  134.2285 C   0  0  0  0  0  0  0  0  0  0  0  0
   88.5072  120.8983  135.1362 C   0  0  0  0  0  0  0  0  0  0  0  0
   88.2826  121.2079  136.4714 C   0  0  0  0  0  0  0  0  0  0  0  0
   87.1049  120.7892  137.0725 C   0  0  0  0  0  0  0  0  0  0  0  0
   89.2100  121.9512  137.1913 C   0  0  0  0  0  0  0  0  0  0  0  0
   88.9688  122.2640  138.5241 C   0  0  0  0  0  0  0  0  0  0  0  0
   87.7941  121.8375  139.1296 C   0  0  0  0  0  0  0  0  0  0  0  0
   86.8640  121.1030  138.4026 C   0  0  0  0  0  0  0  0  0  0  0  0
   85.6894  120.6780  139.0036 C   0  0  0  0  0  0  0  0  0  0  0  0
   85.2441  119.4602  138.7122 N   0  0  0  0  0  0  0  0  0  0  0  0
   85.0708  121.5145  139.8474 N   0  0  0  0  0  0  0  0  0  0  0  0
   83.8364  121.0443  140.4794 O   0  0  0  0  0  0  0  0  0  0  0  0
   85.7436  118.8909  138.0832 H   0  0  0  0  0  0  0  0  0  0  0  0
   84.4148  119.1274  139.1253 H   0  0  0  0  0  0  0  0  0  0  0  0
   83.3743  121.6000  141.0757 H   0  0  0  0  0  0  0  0  0  0  0  0
   89.1373  120.0735  131.1008 C   0  0  0  0  0  0  0  0  0  0  0  0
   88.1869  120.8773  130.2181 C   0  0  0  0  0  0  0  0  0  0  0  0
   88.5898  121.4281  129.1967 O   0  0  0  0  0  0  0  0  0  0  0  0
   86.9287  120.9578  130.6739 N   0  0  0  0  0  0  0  0  0  0  0  0
   85.9978  121.7129  129.8859 O   0  0  0  0  0  0  0  0  0  0  0  0
   86.6560  120.5184  131.5116 H   0  0  0  0  0  0  0  0  0  0  0  0
   86.4489  122.0668  129.1034 H   0  0  0  0  0  0  0  0  0  0  0  0
   91.3289  119.5379  130.1407 C   0  0  0  0  0  0  0  0  0  0  0  0
   92.4844  119.8707  129.8920 O   0  0  0  0  0  0  0  0  0  0  0  0
   90.5236  120.4115  130.7557 N   0  0  0  0  0  0  0  0  0  0  0  0
   90.8699  121.3047  130.9829 H   0  0  0  0  0  0  0  0  0  0  0  0
   90.8582  118.2842  129.8485 O   0  0  0  0  0  0  0  0  0  0  0  0
   90.4073  116.5895  131.5590 C   0  0  0  0  0  0  0  0  0  0  0  0
   91.4032  117.1327  130.5270 C   0  0  0  0  0  0  0  0  0  0  0  0
   91.6485  116.0467  129.4772 C   0  0  0  0  0  0  0  0  0  0  0  0
   92.7346  117.4619  131.2068 C   0  0  0  0  0  0  0  0  0  0  0  0
 35 33  1  0  0  0
 34 33  1  0  0  0
 33 32  1  0  0  0
 33 31  1  0  0  0
 24 23  1  0  0  0
 31 27  1  0  0  0
 23 21  1  0  0  0
 22 21  2  0  0  0
 28 27  2  0  0  0
 21 20  1  0  0  0
 27 29  1  0  0  0
 29 20  1  0  0  0
 20  1  1  0  0  0
  1  2  2  0  0  0
  1  4  1  0  0  0
  2  3  1  0  0  0
  4  5  2  0  0  0
  3  6  2  0  0  0
  5  6  1  0  0  0
  6  7  1  0  0  0
  7  9  2  0  0  0
  7  8  1  0  0  0
  9 10  1  0  0  0
  8 12  2  0  0  0
 10 11  2  0  0  0
 12 11  1  0  0  0
 12 13  1  0  0  0
 13 15  2  0  0  0
 13 14  1  0  0  0
 15 16  1  0  0  0
 29 30  1  0  0  0
 23 25  1  0  0  0
 24 26  1  0  0  0
 14 17  1  0  0  0
 14 18  1  0  0  0
 16 19  1  0  0  0
M  END
> <minimizedAffinity>
-11.68998

$$$$
4ZW8_4T2_A_1102


 35 36  0  0  0  0  0  0  0  0999 V2000
   89.0094  120.1529  131.9608 C   0  0  0  0  0  0  0  0  0  0  0  0
   88.7199  121.4349  132.4210 C   0  0  0  0  0  0  0  0  0  0  0  0
   88.3708  121.6280  133.7554 C   0  0  0  0  0  0  0  0  0  0  0  0
   88.9593  119.0736  132.8327 C   0  0  0  0  0  0  0  0  0  0  0  0
   88.6095  119.2626  134.1620 C   0  0  0  0  0  0  0  0  0  0  0  0
   88.3117  120.5384  134.6196 C   0  0  0  0  0  0  0  0  0  0  0  0
   87.9764  120.7092  135.9565 C   0  0  0  0  0  0  0  0  0  0  0  0
   88.6403  121.6726  136.7012 C   0  0  0  0  0  0  0  0  0  0  0  0
   87.0090  119.9084  136.5514 C   0  0  0  0  0  0  0  0  0  0  0  0
   86.6898  120.0816  137.8933 C   0  0  0  0  0  0  0  0  0  0  0  0
   87.3475  121.0522  138.6376 C   0  0  0  0  0  0  0  0  0  0  0  0
   88.3223  121.8441  138.0410 C   0  0  0  0  0  0  0  0  0  0  0  0
   88.9822  122.8121  138.7820 C   0  0  0  0  0  0  0  0  0  0  0  0
   88.2482  123.6678  139.4857 N   0  0  0  0  0  0  0  0  0  0  0  0
   90.3213  122.8292  138.7524 N   0  0  0  0  0  0  0  0  0  0  0  0
   91.0006  123.8533  139.5487 O   0  0  0  0  0  0  0  0  0  0  0  0
   87.2658  123.6048  139.4674 H   0  0  0  0  0  0  0  0  0  0  0  0
   88.6867  124.3648  140.0254 H   0  0  0  0  0  0  0  0  0  0  0  0
   91.9365  123.8981  139.5542 H   0  0  0  0  0  0  0  0  0  0  0  0
   89.3769  119.9299  130.6375 C   0  0  0  0  0  0  0  0  0  0  0  0
   88.5093  120.7176  129.6601 C   0  0  0  0  0  0  0  0  0  0  0  0
   88.9813  121.1645  128.6178 O   0  0  0  0  0  0  0  0  0  0  0  0
   87.2429  120.9055  130.0577 N   0  0  0  0  0  0  0  0  0  0  0  0
   86.3884  121.6510  129.1792 O   0  0  0  0  0  0  0  0  0  0  0  0
   86.9142  120.5480  130.9141 H   0  0  0  0  0  0  0  0  0  0  0  0
   86.8878  121.9173  128.3914 H   0  0  0  0  0  0  0  0  0  0  0  0
   91.6593  119.5264  129.8377 C   0  0  0  0  0  0  0  0  0  0  0  0
   92.8254  119.8974  129.7361 O   0  0  0  0  0  0  0  0  0  0  0  0
   90.7816  120.3193  130.4629 N   0  0  0  0  0  0  0  0  0  0  0  0
   91.0858  121.1868  130.8151 H   0  0  0  0  0  0  0  0  0  0  0  0
   91.2452  118.3059  129.3712 O   0  0  0  0  0  0  0  0  0  0  0  0
   90.8705  116.6576  131.1443 C   0  0  0  0  0  0  0  0  0  0  0  0
   91.7537  117.0945  129.9692 C   0  0  0  0  0  0  0  0  0  0  0  0
   91.7139  115.9971  128.9035 C   0  0  0  0  0  0  0  0  0  0  0  0
   93.2009  117.2662  130.4372 C   0  0  0  0  0  0  0  0  0  0  0  0
 35 33  1  0  0  0
 34 33  1  0  0  0
 33 32  1  0  0  0
 33 31  1  0  0  0
 24 23  1  0  0  0
 31 27  1  0  0  0
 23 21  1  0  0  0
 22 21  2  0  0  0
 28 27  2  0  0  0
 21 20  1  0  0  0
 27 29  1  0  0  0
 29 20  1  0  0  0
 20  1  1  0  0  0
  1  2  2  0  0  0
  1  4  1  0  0  0
  2  3  1  0  0  0
  4  5  2  0  0  0
  3  6  2  0  0  0
  5  6  1  0  0  0
  6  7  1  0  0  0
  7  9  2  0  0  0
  7  8  1  0  0  0
  9 10  1  0  0  0
  8 12  2  0  0  0
 10 11  2  0  0  0
 12 11  1  0  0  0
 12 13  1  0  0  0
 13 15  2  0  0  0
 13 14  1  0  0  0
 15 16  1  0  0  0
 29 30  1  0  0  0
 23 25  1  0  0  0
 24 26  1  0  0  0
 14 17  1  0  0  0
 14 18  1  0  0  0
 16 19  1  0  0  0
M  END
> <minimizedAffinity>
-10.62601

$$$$
4ZW8_4T2_A_1102


 35 36  0  0  0  0  0  0  0  0999 V2000
   90.1797  118.4645  131.3382 C   0  0  0  0  0  0  0  0  0  0  0  0
   89.3386  118.3803  132.4449 C   0  0  0  0  0  0  0  0  0  0  0  0
   89.5981  117.4416  133.4404 C   0  0  0  0  0  0  0  0  0  0  0  0
   91.2780  117.6217  131.2341 C   0  0  0  0  0  0  0  0  0  0  0  0
   91.5375  116.6839  132.2232 C   0  0  0  0  0  0  0  0  0  0  0  0
   90.6948  116.5927  133.3219 C   0  0  0  0  0  0  0  0  0  0  0  0
   90.9786  115.6565  134.3078 C   0  0  0  0  0  0  0  0  0  0  0  0
   90.3220  115.7397  135.5267 C   0  0  0  0  0  0  0  0  0  0  0  0
   91.9276  114.6651  134.0903 C   0  0  0  0  0  0  0  0  0  0  0  0
   92.2107  113.7403  135.0889 C   0  0  0  0  0  0  0  0  0  0  0  0
   91.5473  113.8171  136.3064 C   0  0  0  0  0  0  0  0  0  0  0  0
   90.6061  114.8172  136.5236 C   0  0  0  0  0  0  0  0  0  0  0  0
   89.9440  114.8978  137.7388 C   0  0  0  0  0  0  0  0  0  0  0  0
   88.6275  115.0789  137.7217 N   0  0  0  0  0  0  0  0  0  0  0  0
   90.6651  114.7842  138.8620 N   0  0  0  0  0  0  0  0  0  0  0  0
   89.9468  114.8629  140.1356 O   0  0  0  0  0  0  0  0  0  0  0  0
   88.1523  115.1553  136.8629 H   0  0  0  0  0  0  0  0  0  0  0  0
   88.1275  115.1366  138.5678 H   0  0  0  0  0  0  0  0  0  0  0  0
   90.4157  114.7879  140.9433 H   0  0  0  0  0  0  0  0  0  0  0  0
   89.9563  119.4025  130.3351 C   0  0  0  0  0  0  0  0  0  0  0  0
   88.9099  120.4371  130.7391 C   0  0  0  0  0  0  0  0  0  0  0  0
   89.0804  121.1552  131.7211 O   0  0  0  0  0  0  0  0  0  0  0  0
   87.8094  120.4524  129.9738 N   0  0  0  0  0  0  0  0  0  0  0  0
   86.7891  121.3997  130.3193 O   0  0  0  0  0  0  0  0  0  0  0  0
   87.7061  119.8410  129.2091 H   0  0  0  0  0  0  0  0  0  0  0  0
   87.0704  121.9093  131.0953 H   0  0  0  0  0  0  0  0  0  0  0  0
   91.8190  119.9603  128.8414 C   0  0  0  0  0  0  0  0  0  0  0  0
   92.8845  120.5401  128.6507 O   0  0  0  0  0  0  0  0  0  0  0  0
   91.2211  120.0836  130.0318 N   0  0  0  0  0  0  0  0  0  0  0  0
   91.6402  120.6458  130.7228 H   0  0  0  0  0  0  0  0  0  0  0  0
   91.2522  119.1557  127.8874 O   0  0  0  0  0  0  0  0  0  0  0  0
   93.0711  117.5726  128.3191 C   0  0  0  0  0  0  0  0  0  0  0  0
   92.0053  118.0581  127.3292 C   0  0  0  0  0  0  0  0  0  0  0  0
   91.0295  116.9080  127.0704 C   0  0  0  0  0  0  0  0  0  0  0  0
   92.6615  118.4473  126.0022 C   0  0  0  0  0  0  0  0  0  0  0  0
 35 33  1  0  0  0
 34 33  1  0  0  0
 33 32  1  0  0  0
 33 31  1  0  0  0
 24 23  1  0  0  0
 31 27  1  0  0  0
 23 21  1  0  0  0
 22 21  2  0  0  0
 28 27  2  0  0  0
 21 20  1  0  0  0
 27 29  1  0  0  0
 29 20  1  0  0  0
 20  1  1  0  0  0
  1  2  2  0  0  0
  1  4  1  0  0  0
  2  3  1  0  0  0
  4  5  2  0  0  0
  3  6  2  0  0  0
  5  6  1  0  0  0
  6  7  1  0  0  0
  7  9  2  0  0  0
  7  8  1  0  0  0
  9 10  1  0  0  0
  8 12  2  0  0  0
 10 11  2  0  0  0
 12 11  1  0  0  0
 12 13  1  0  0  0
 13 15  2  0  0  0
 13 14  1  0  0  0
 15 16  1  0  0  0
 29 30  1  0  0  0
 23 25  1  0  0  0
 24 26  1  0  0  0
 14 17  1  0  0  0
 14 18  1  0  0  0
 16 19  1  0  0  0
M  END
> <minimizedAffinity>
-10.34553

$$$$
4ZW8_4T2_A_1102


 35 36  0  0  0  0  0  0  0  0999 V2000
   91.0676  115.6828  131.8007 C   0  0  0  0  0  0  0  0  0  0  0  0
   91.4697  116.7535  131.0062 C   0  0  0  0  0  0  0  0  0  0  0  0
   90.8737  118.0010  131.1742 C   0  0  0  0  0  0  0  0  0  0  0  0
   90.0830  115.8624  132.7629 C   0  0  0  0  0  0  0  0  0  0  0  0
   89.4859  117.1035  132.9308 C   0  0  0  0  0  0  0  0  0  0  0  0
   89.8791  118.1690  132.1334 C   0  0  0  0  0  0  0  0  0  0  0  0
   89.2787  119.4066  132.3253 C   0  0  0  0  0  0  0  0  0  0  0  0
   88.9428  119.8016  133.6117 C   0  0  0  0  0  0  0  0  0  0  0  0
   88.9910  120.2292  131.2430 C   0  0  0  0  0  0  0  0  0  0  0  0
   88.3800  121.4611  131.4470 C   0  0  0  0  0  0  0  0  0  0  0  0
   88.0515  121.8616  132.7355 C   0  0  0  0  0  0  0  0  0  0  0  0
   88.3316  121.0307  133.8146 C   0  0  0  0  0  0  0  0  0  0  0  0
   88.0026  121.4268  135.1017 C   0  0  0  0  0  0  0  0  0  0  0  0
   86.7752  121.1671  135.5403 N   0  0  0  0  0  0  0  0  0  0  0  0
   88.9394  122.0442  135.8335 N   0  0  0  0  0  0  0  0  0  0  0  0
   88.5759  122.4469  137.1936 O   0  0  0  0  0  0  0  0  0  0  0  0
   86.1297  120.7095  134.9545 H   0  0  0  0  0  0  0  0  0  0  0  0
   86.5116  121.4322  136.4510 H   0  0  0  0  0  0  0  0  0  0  0  0
   89.2035  122.8813  137.7371 H   0  0  0  0  0  0  0  0  0  0  0  0
   91.6551  114.4285  131.6680 C   0  0  0  0  0  0  0  0  0  0  0  0
   90.9652  113.5812  130.6029 C   0  0  0  0  0  0  0  0  0  0  0  0
   90.0000  112.8762  130.8864 O   0  0  0  0  0  0  0  0  0  0  0  0
   91.5229  113.6446  129.3855 N   0  0  0  0  0  0  0  0  0  0  0  0
   90.9184  112.8564  128.3505 O   0  0  0  0  0  0  0  0  0  0  0  0
   92.3118  114.2067  129.2097 H   0  0  0  0  0  0  0  0  0  0  0  0
   90.1589  112.3743  128.7131 H   0  0  0  0  0  0  0  0  0  0  0  0
   94.0539  114.2019  132.1224 C   0  0  0  0  0  0  0  0  0  0  0  0
   95.2177  114.3881  131.7780 O   0  0  0  0  0  0  0  0  0  0  0  0
   93.0685  114.6017  131.3106 N   0  0  0  0  0  0  0  0  0  0  0  0
   93.2972  115.0233  130.4508 H   0  0  0  0  0  0  0  0  0  0  0  0
   93.7384  113.6403  133.3323 O   0  0  0  0  0  0  0  0  0  0  0  0
   94.0838  115.8918  134.2337 C   0  0  0  0  0  0  0  0  0  0  0  0
   93.9094  114.4008  134.5472 C   0  0  0  0  0  0  0  0  0  0  0  0
   92.6404  114.2307  135.3853 C   0  0  0  0  0  0  0  0  0  0  0  0
   95.1021  113.8937  135.3616 C   0  0  0  0  0  0  0  0  0  0  0  0
 35 33  1  0  0  0
 34 33  1  0  0  0
 33 32  1  0  0  0
 33 31  1  0  0  0
 24 23  1  0  0  0
 31 27  1  0  0  0
 23 21  1  0  0  0
 22 21  2  0  0  0
 28 27  2  0  0  0
 21 20  1  0  0  0
 27 29  1  0  0  0
 29 20  1  0  0  0
 20  1  1  0  0  0
  1  2  2  0  0  0
  1  4  1  0  0  0
  2  3  1  0  0  0
  4  5  2  0  0  0
  3  6  2  0  0  0
  5  6  1  0  0  0
  6  7  1  0  0  0
  7  9  2  0  0  0
  7  8  1  0  0  0
  9 10  1  0  0  0
  8 12  2  0  0  0
 10 11  2  0  0  0
 12 11  1  0  0  0
 12 13  1  0  0  0
 13 15  2  0  0  0
 13 14  1  0  0  0
 15 16  1  0  0  0
 29 30  1  0  0  0
 23 25  1  0  0  0
 24 26  1  0  0  0
 14 17  1  0  0  0
 14 18  1  0  0  0
 16 19  1  0  0  0
M  END
> <minimizedAffinity>
-9.73663

$$$$
4ZW8_4T2_A_1102


 35 36  0  0  0  0  0  0  0  0999 V2000
   90.6300  118.2819  129.6228 C   0  0  0  0  0  0  0  0  0  0  0  0
   90.5913  118.6704  130.9595 C   0  0  0  0  0  0  0  0  0  0  0  0
   90.9653  117.7684  131.9526 C   0  0  0  0  0  0  0  0  0  0  0  0
   91.0494  117.0029  129.2825 C   0  0  0  0  0  0  0  0  0  0  0  0
   91.4202  116.1014  130.2699 C   0  0  0  0  0  0  0  0  0  0  0  0
   91.3732  116.4844  131.6029 C   0  0  0  0  0  0  0  0  0  0  0  0
   91.7607  115.5721  132.5759 C   0  0  0  0  0  0  0  0  0  0  0  0
   92.9907  115.7296  133.1972 C   0  0  0  0  0  0  0  0  0  0  0  0
   90.9425  114.4985  132.9055 C   0  0  0  0  0  0  0  0  0  0  0  0
   91.3463  113.5860  133.8733 C   0  0  0  0  0  0  0  0  0  0  0  0
   92.5736  113.7478  134.5026 C   0  0  0  0  0  0  0  0  0  0  0  0
   93.3939  114.8176  134.1622 C   0  0  0  0  0  0  0  0  0  0  0  0
   94.6206  114.9803  134.7869 C   0  0  0  0  0  0  0  0  0  0  0  0
   95.2820  113.8888  135.1578 N   0  0  0  0  0  0  0  0  0  0  0  0
   95.0740  116.2261  134.9779 N   0  0  0  0  0  0  0  0  0  0  0  0
   96.3758  116.3775  135.6312 O   0  0  0  0  0  0  0  0  0  0  0  0
   94.8963  112.9987  134.9899 H   0  0  0  0  0  0  0  0  0  0  0  0
   96.1575  113.9704  135.6005 H   0  0  0  0  0  0  0  0  0  0  0  0
   96.7273  117.2327  135.7827 H   0  0  0  0  0  0  0  0  0  0  0  0
   90.2781  119.1651  128.6069 C   0  0  0  0  0  0  0  0  0  0  0  0
   89.2377  120.1827  129.0657 C   0  0  0  0  0  0  0  0  0  0  0  0
   88.1226  119.8216  129.4335 O   0  0  0  0  0  0  0  0  0  0  0  0
   89.6297  121.4622  128.9871 N   0  0  0  0  0  0  0  0  0  0  0  0
   88.6832  122.4596  129.3959 O   0  0  0  0  0  0  0  0  0  0  0  0
   90.5269  121.7064  128.6635 H   0  0  0  0  0  0  0  0  0  0  0  0
   87.8622  122.0287  129.6809 H   0  0  0  0  0  0  0  0  0  0  0  0
   92.1495  119.4951  127.0574 C   0  0  0  0  0  0  0  0  0  0  0  0
   93.1602  120.1141  126.7365 O   0  0  0  0  0  0  0  0  0  0  0  0
   91.4824  119.8721  128.1541 N   0  0  0  0  0  0  0  0  0  0  0  0
   91.8079  120.6440  128.6713 H   0  0  0  0  0  0  0  0  0  0  0  0
   91.7149  118.4035  126.3515 O   0  0  0  0  0  0  0  0  0  0  0  0
   93.3761  117.8815  124.6285 C   0  0  0  0  0  0  0  0  0  0  0  0
   92.6619  117.4114  125.9016 C   0  0  0  0  0  0  0  0  0  0  0  0
   93.7092  117.2342  127.0032 C   0  0  0  0  0  0  0  0  0  0  0  0
   91.9834  116.0619  125.6536 C   0  0  0  0  0  0  0  0  0  0  0  0
 35 33  1  0  0  0
 34 33  1  0  0  0
 33 32  1  0  0  0
 33 31  1  0  0  0
 24 23  1  0  0  0
 31 27  1  0  0  0
 23 21  1  0  0  0
 22 21  2  0  0  0
 28 27  2  0  0  0
 21 20  1  0  0  0
 27 29  1  0  0  0
 29 20  1  0  0  0
 20  1  1  0  0  0
  1  2  2  0  0  0
  1  4  1  0  0  0
  2  3  1  0  0  0
  4  5  2  0  0  0
  3  6  2  0  0  0
  5  6  1  0  0  0
  6  7  1  0  0  0
  7  9  2  0  0  0
  7  8  1  0  0  0
  9 10  1  0  0  0
  8 12  2  0  0  0
 10 11  2  0  0  0
 12 11  1  0  0  0
 12 13  1  0  0  0
 13 15  2  0  0  0
 13 14  1  0  0  0
 15 16  1  0  0  0
 29 30  1  0  0  0
 23 25  1  0  0  0
 24 26  1  0  0  0
 14 17  1  0  0  0
 14 18  1  0  0  0
 16 19  1  0  0  0
M  END
> <minimizedAffinity>
-9.61764

$$$$
4ZW8_4T2_A_1102


 35 36  0  0  0  0  0  0  0  0999 V2000
   92.7432  117.3876  130.0902 C   0  0  0  0  0  0  0  0  0  0  0  0
   92.6997  118.7366  129.7474 C   0  0  0  0  0  0  0  0  0  0  0  0
   91.6548  119.5337  130.2087 C   0  0  0  0  0  0  0  0  0  0  0  0
   91.7533  116.8431  130.8971 C   0  0  0  0  0  0  0  0  0  0  0  0
   90.7099  117.6343  131.3561 C   0  0  0  0  0  0  0  0  0  0  0  0
   90.6604  118.9765  131.0074 C   0  0  0  0  0  0  0  0  0  0  0  0
   89.6151  119.7551  131.4874 C   0  0  0  0  0  0  0  0  0  0  0  0
   89.2291  119.6237  132.8131 C   0  0  0  0  0  0  0  0  0  0  0  0
   88.9438  120.6345  130.6468 C   0  0  0  0  0  0  0  0  0  0  0  0
   87.8919  121.4005  131.1362 C   0  0  0  0  0  0  0  0  0  0  0  0
   87.5106  121.2765  132.4658 C   0  0  0  0  0  0  0  0  0  0  0  0
   88.1782  120.3875  133.3007 C   0  0  0  0  0  0  0  0  0  0  0  0
   87.7981  120.2598  134.6277 C   0  0  0  0  0  0  0  0  0  0  0  0
   88.3723  119.3051  135.3524 N   0  0  0  0  0  0  0  0  0  0  0  0
   86.8782  121.1070  135.1076 N   0  0  0  0  0  0  0  0  0  0  0  0
   86.4963  120.9623  136.5138 O   0  0  0  0  0  0  0  0  0  0  0  0
   89.0430  118.7123  134.9428 H   0  0  0  0  0  0  0  0  0  0  0  0
   88.1268  119.1908  136.2990 H   0  0  0  0  0  0  0  0  0  0  0  0
   85.8561  121.5358  136.8868 H   0  0  0  0  0  0  0  0  0  0  0  0
   93.7824  116.5692  129.6585 C   0  0  0  0  0  0  0  0  0  0  0  0
   94.7965  116.2968  130.7657 C   0  0  0  0  0  0  0  0  0  0  0  0
   95.1829  117.2006  131.5024 O   0  0  0  0  0  0  0  0  0  0  0  0
   95.2408  115.0333  130.8229 N   0  0  0  0  0  0  0  0  0  0  0  0
   96.2055  114.7277  131.8397 O   0  0  0  0  0  0  0  0  0  0  0  0
   94.9196  114.3461  130.1953 H   0  0  0  0  0  0  0  0  0  0  0  0
   96.3960  115.5269  132.3553 H   0  0  0  0  0  0  0  0  0  0  0  0
   93.0570  115.0358  127.8881 C   0  0  0  0  0  0  0  0  0  0  0  0
   92.5666  113.9602  127.5560 O   0  0  0  0  0  0  0  0  0  0  0  0
   93.2208  115.2962  129.1901 N   0  0  0  0  0  0  0  0  0  0  0  0
   92.9578  114.6161  129.8516 H   0  0  0  0  0  0  0  0  0  0  0  0
   93.3961  115.9918  126.9662 O   0  0  0  0  0  0  0  0  0  0  0  0
   91.0611  116.7268  127.0589 C   0  0  0  0  0  0  0  0  0  0  0  0
   92.3635  116.7014  126.2495 C   0  0  0  0  0  0  0  0  0  0  0  0
   92.8379  118.1434  126.0561 C   0  0  0  0  0  0  0  0  0  0  0  0
   92.1121  116.0829  124.8721 C   0  0  0  0  0  0  0  0  0  0  0  0
 35 33  1  0  0  0
 34 33  1  0  0  0
 33 32  1  0  0  0
 33 31  1  0  0  0
 24 23  1  0  0  0
 31 27  1  0  0  0
 23 21  1  0  0  0
 22 21  2  0  0  0
 28 27  2  0  0  0
 21 20  1  0  0  0
 27 29  1  0  0  0
 29 20  1  0  0  0
 20  1  1  0  0  0
  1  2  2  0  0  0
  1  4  1  0  0  0
  2  3  1  0  0  0
  4  5  2  0  0  0
  3  6  2  0  0  0
  5  6  1  0  0  0
  6  7  1  0  0  0
  7  9  2  0  0  0
  7  8  1  0  0  0
  9 10  1  0  0  0
  8 12  2  0  0  0
 10 11  2  0  0  0
 12 11  1  0  0  0
 12 13  1  0  0  0
 13 15  2  0  0  0
 13 14  1  0  0  0
 15 16  1  0  0  0
 29 30  1  0  0  0
 23 25  1  0  0  0
 24 26  1  0  0  0
 14 17  1  0  0  0
 14 18  1  0  0  0
 16 19  1  0  0  0
M  END
> <minimizedAffinity>
-9.60134

$$$$
4ZW8_4T2_A_1102


 35 36  0  0  0  0  0  0  0  0999 V2000
   89.1687  119.6645  132.2989 C   0  0  0  0  0  0  0  0  0  0  0  0
   88.9133  118.5733  133.1255 C   0  0  0  0  0  0  0  0  0  0  0  0
   89.5354  117.3533  132.8718 C   0  0  0  0  0  0  0  0  0  0  0  0
   90.0481  119.5376  131.2320 C   0  0  0  0  0  0  0  0  0  0  0  0
   90.6674  118.3227  130.9755 C   0  0  0  0  0  0  0  0  0  0  0  0
   90.4065  117.2321  131.7930 C   0  0  0  0  0  0  0  0  0  0  0  0
   91.0460  116.0281  131.5278 C   0  0  0  0  0  0  0  0  0  0  0  0
   91.1250  115.5800  130.2176 C   0  0  0  0  0  0  0  0  0  0  0  0
   91.5761  115.2656  132.5614 C   0  0  0  0  0  0  0  0  0  0  0  0
   92.2043  114.0568  132.2843 C   0  0  0  0  0  0  0  0  0  0  0  0
   92.2921  113.6116  130.9719 C   0  0  0  0  0  0  0  0  0  0  0  0
   91.7508  114.3726  129.9418 C   0  0  0  0  0  0  0  0  0  0  0  0
   91.8348  113.9296  128.6309 C   0  0  0  0  0  0  0  0  0  0  0  0
   91.1280  112.8576  128.2878 N   0  0  0  0  0  0  0  0  0  0  0  0
   92.6183  114.6075  127.7820 N   0  0  0  0  0  0  0  0  0  0  0  0
   92.6870  114.1296  126.3995 O   0  0  0  0  0  0  0  0  0  0  0  0
   90.5694  112.4011  128.9578 H   0  0  0  0  0  0  0  0  0  0  0  0
   91.1631  112.5200  127.3637 H   0  0  0  0  0  0  0  0  0  0  0  0
   93.2239  114.5769  125.7753 H   0  0  0  0  0  0  0  0  0  0  0  0
   88.5754  120.9005  132.5358 C   0  0  0  0  0  0  0  0  0  0  0  0
   88.0041  121.5167  131.2621 C   0  0  0  0  0  0  0  0  0  0  0  0
   88.5859  122.4354  130.6908 O   0  0  0  0  0  0  0  0  0  0  0  0
   86.8279  121.0073  130.8695 N   0  0  0  0  0  0  0  0  0  0  0  0
   86.2419  121.5609  129.6830 O   0  0  0  0  0  0  0  0  0  0  0  0
   86.3861  120.2857  131.3729 H   0  0  0  0  0  0  0  0  0  0  0  0
   86.8201  122.2556  129.3307 H   0  0  0  0  0  0  0  0  0  0  0  0
   87.4929  121.3928  134.6800 C   0  0  0  0  0  0  0  0  0  0  0  0
   86.5739  121.1967  135.4704 O   0  0  0  0  0  0  0  0  0  0  0  0
   87.4980  120.7294  133.5183 N   0  0  0  0  0  0  0  0  0  0  0  0
   86.7597  120.1101  133.3169 H   0  0  0  0  0  0  0  0  0  0  0  0
   88.5339  122.2343  134.9752 O   0  0  0  0  0  0  0  0  0  0  0  0
   88.7498  122.2713  137.4150 C   0  0  0  0  0  0  0  0  0  0  0  0
   89.4165  121.9315  136.0765 C   0  0  0  0  0  0  0  0  0  0  0  0
   89.6981  120.4276  136.0474 C   0  0  0  0  0  0  0  0  0  0  0  0
   90.7466  122.6782  135.9493 C   0  0  0  0  0  0  0  0  0  0  0  0
 35 33  1  0  0  0
 34 33  1  0  0  0
 33 32  1  0  0  0
 33 31  1  0  0  0
 24 23  1  0  0  0
 31 27  1  0  0  0
 23 21  1  0  0  0
 22 21  2  0  0  0
 28 27  2  0  0  0
 21 20  1  0  0  0
 27 29  1  0  0  0
 29 20  1  0  0  0
 20  1  1  0  0  0
  1  2  2  0  0  0
  1  4  1  0  0  0
  2  3  1  0  0  0
  4  5  2  0  0  0
  3  6  2  0  0  0
  5  6  1  0  0  0
  6  7  1  0  0  0
  7  9  2  0  0  0
  7  8  1  0  0  0
  9 10  1  0  0  0
  8 12  2  0  0  0
 10 11  2  0  0  0
 12 11  1  0  0  0
 12 13  1  0  0  0
 13 15  2  0  0  0
 13 14  1  0  0  0
 15 16  1  0  0  0
 29 30  1  0  0  0
 23 25  1  0  0  0
 24 26  1  0  0  0
 14 17  1  0  0  0
 14 18  1  0  0  0
 16 19  1  0  0  0
M  END
> <minimizedAffinity>
-9.55013

$$$$
4ZW8_4T2_A_1102


 35 36  0  0  0  0  0  0  0  0999 V2000
   91.4186  116.2062  131.1763 C   0  0  0  0  0  0  0  0  0  0  0  0
   90.3759  116.0484  132.0857 C   0  0  0  0  0  0  0  0  0  0  0  0
   89.6596  117.1624  132.5163 C   0  0  0  0  0  0  0  0  0  0  0  0
   91.7352  117.4691  130.6940 C   0  0  0  0  0  0  0  0  0  0  0  0
   91.0248  118.5810  131.1231 C   0  0  0  0  0  0  0  0  0  0  0  0
   89.9916  118.4261  132.0365 C   0  0  0  0  0  0  0  0  0  0  0  0
   89.2839  119.5495  132.4440 C   0  0  0  0  0  0  0  0  0  0  0  0
   88.9485  119.6872  133.7828 C   0  0  0  0  0  0  0  0  0  0  0  0
   88.8904  120.5113  131.5215 C   0  0  0  0  0  0  0  0  0  0  0  0
   88.1729  121.6260  131.9400 C   0  0  0  0  0  0  0  0  0  0  0  0
   87.8445  121.7694  133.2817 C   0  0  0  0  0  0  0  0  0  0  0  0
   88.2311  120.7993  134.1997 C   0  0  0  0  0  0  0  0  0  0  0  0
   87.9026  120.9385  135.5393 C   0  0  0  0  0  0  0  0  0  0  0  0
   88.8462  121.3649  136.3724 N   0  0  0  0  0  0  0  0  0  0  0  0
   86.6531  120.6409  135.9194 N   0  0  0  0  0  0  0  0  0  0  0  0
   86.3227  120.8028  137.3368 O   0  0  0  0  0  0  0  0  0  0  0  0
   89.7477  121.5678  136.0328 H   0  0  0  0  0  0  0  0  0  0  0  0
   88.6437  121.4777  137.3292 H   0  0  0  0  0  0  0  0  0  0  0  0
   85.4592  120.6049  137.6421 H   0  0  0  0  0  0  0  0  0  0  0  0
   92.1423  115.1111  130.7149 C   0  0  0  0  0  0  0  0  0  0  0  0
   92.5734  114.1879  131.8509 C   0  0  0  0  0  0  0  0  0  0  0  0
   92.0350  113.0959  132.0140 O   0  0  0  0  0  0  0  0  0  0  0  0
   93.5280  114.6865  132.6491 N   0  0  0  0  0  0  0  0  0  0  0  0
   93.9606  113.8619  133.7404 O   0  0  0  0  0  0  0  0  0  0  0  0
   93.9149  115.5783  132.4934 H   0  0  0  0  0  0  0  0  0  0  0  0
   93.4676  113.0266  133.7296 H   0  0  0  0  0  0  0  0  0  0  0  0
   91.6129  114.2948  128.4642 C   0  0  0  0  0  0  0  0  0  0  0  0
   90.8720  113.6644  127.7150 O   0  0  0  0  0  0  0  0  0  0  0  0
   91.3119  114.3589  129.7662 N   0  0  0  0  0  0  0  0  0  0  0  0
   90.5123  113.8892  130.0969 H   0  0  0  0  0  0  0  0  0  0  0  0
   92.7097  114.9709  127.9965 O   0  0  0  0  0  0  0  0  0  0  0  0
   91.1534  116.7007  127.2304 C   0  0  0  0  0  0  0  0  0  0  0  0
   92.5414  116.0679  127.0736 C   0  0  0  0  0  0  0  0  0  0  0  0
   93.5937  117.1263  127.4117 C   0  0  0  0  0  0  0  0  0  0  0  0
   92.7515  115.6182  125.6256 C   0  0  0  0  0  0  0  0  0  0  0  0
 35 33  1  0  0  0
 34 33  1  0  0  0
 33 32  1  0  0  0
 33 31  1  0  0  0
 24 23  1  0  0  0
 31 27  1  0  0  0
 23 21  1  0  0  0
 22 21  2  0  0  0
 28 27  2  0  0  0
 21 20  1  0  0  0
 27 29  1  0  0  0
 29 20  1  0  0  0
 20  1  1  0  0  0
  1  2  2  0  0  0
  1  4  1  0  0  0
  2  3  1  0  0  0
  4  5  2  0  0  0
  3  6  2  0  0  0
  5  6  1  0  0  0
  6  7  1  0  0  0
  7  9  2  0  0  0
  7  8  1  0  0  0
  9 10  1  0  0  0
  8 12  2  0  0  0
 10 11  2  0  0  0
 12 11  1  0  0  0
 12 13  1  0  0  0
 13 15  2  0  0  0
 13 14  1  0  0  0
 15 16  1  0  0  0
 29 30  1  0  0  0
 23 25  1  0  0  0
 24 26  1  0  0  0
 14 17  1  0  0  0
 14 18  1  0  0  0
 16 19  1  0  0  0
M  END
> <minimizedAffinity>
-9.49239

$$$$
4ZW8_4T2_A_1102


 35 36  0  0  0  0  0  0  0  0999 V2000
   89.1314  119.6819  132.3596 C   0  0  0  0  0  0  0  0  0  0  0  0
   88.9094  118.5755  133.1754 C   0  0  0  0  0  0  0  0  0  0  0  0
   89.5259  117.3625  132.8780 C   0  0  0  0  0  0  0  0  0  0  0  0
   89.9722  119.5772  131.2597 C   0  0  0  0  0  0  0  0  0  0  0  0
   90.5857  118.3694  130.9596 C   0  0  0  0  0  0  0  0  0  0  0  0
   90.3579  117.2636  131.7665 C   0  0  0  0  0  0  0  0  0  0  0  0
   90.9913  116.0669  131.4572 C   0  0  0  0  0  0  0  0  0  0  0  0
   92.3482  116.0760  131.1700 C   0  0  0  0  0  0  0  0  0  0  0  0
   90.2732  114.8784  131.4074 C   0  0  0  0  0  0  0  0  0  0  0  0
   90.9164  113.6886  131.0859 C   0  0  0  0  0  0  0  0  0  0  0  0
   92.2768  113.6950  130.8071 C   0  0  0  0  0  0  0  0  0  0  0  0
   92.9893  114.8883  130.8477 C   0  0  0  0  0  0  0  0  0  0  0  0
   94.3469  114.8982  130.5675 C   0  0  0  0  0  0  0  0  0  0  0  0
   94.7751  114.1890  129.5282 N   0  0  0  0  0  0  0  0  0  0  0  0
   95.1511  115.6244  131.3550 N   0  0  0  0  0  0  0  0  0  0  0  0
   96.5807  115.6296  131.0378 O   0  0  0  0  0  0  0  0  0  0  0  0
   94.1344  113.6744  128.9860 H   0  0  0  0  0  0  0  0  0  0  0  0
   95.7328  114.1782  129.3007 H   0  0  0  0  0  0  0  0  0  0  0  0
   97.1758  116.1254  131.5650 H   0  0  0  0  0  0  0  0  0  0  0  0
   88.5430  120.9113  132.6396 C   0  0  0  0  0  0  0  0  0  0  0  0
   87.9504  121.5614  131.3927 C   0  0  0  0  0  0  0  0  0  0  0  0
   88.5210  122.4975  130.8386 O   0  0  0  0  0  0  0  0  0  0  0  0
   86.7695  121.0598  131.0043 N   0  0  0  0  0  0  0  0  0  0  0  0
   86.1637  121.6449  129.8430 O   0  0  0  0  0  0  0  0  0  0  0  0
   86.3374  120.3230  131.4939 H   0  0  0  0  0  0  0  0  0  0  0  0
   86.7346  122.3509  129.5015 H   0  0  0  0  0  0  0  0  0  0  0  0
   87.4746  121.3791  134.7964 C   0  0  0  0  0  0  0  0  0  0  0  0
   86.5707  121.1608  135.5982 O   0  0  0  0  0  0  0  0  0  0  0  0
   87.4824  120.7142  133.6354 N   0  0  0  0  0  0  0  0  0  0  0  0
   86.7578  120.0759  133.4439 H   0  0  0  0  0  0  0  0  0  0  0  0
   88.4972  122.2474  135.0776 O   0  0  0  0  0  0  0  0  0  0  0  0
   90.7827  122.6903  135.8402 C   0  0  0  0  0  0  0  0  0  0  0  0
   89.4893  121.8978  136.0660 C   0  0  0  0  0  0  0  0  0  0  0  0
   88.9295  122.2719  137.4402 C   0  0  0  0  0  0  0  0  0  0  0  0
   89.7863  120.3962  136.0539 C   0  0  0  0  0  0  0  0  0  0  0  0
 35 33  1  0  0  0
 34 33  1  0  0  0
 33 32  1  0  0  0
 33 31  1  0  0  0
 24 23  1  0  0  0
 31 27  1  0  0  0
 23 21  1  0  0  0
 22 21  2  0  0  0
 28 27  2  0  0  0
 21 20  1  0  0  0
 27 29  1  0  0  0
 29 20  1  0  0  0
 20  1  1  0  0  0
  1  2  2  0  0  0
  1  4  1  0  0  0
  2  3  1  0  0  0
  4  5  2  0  0  0
  3  6  2  0  0  0
  5  6  1  0  0  0
  6  7  1  0  0  0
  7  9  2  0  0  0
  7  8  1  0  0  0
  9 10  1  0  0  0
  8 12  2  0  0  0
 10 11  2  0  0  0
 12 11  1  0  0  0
 12 13  1  0  0  0
 13 15  2  0  0  0
 13 14  1  0  0  0
 15 16  1  0  0  0
 29 30  1  0  0  0
 23 25  1  0  0  0
 24 26  1  0  0  0
 14 17  1  0  0  0
 14 18  1  0  0  0
 16 19  1  0  0  0
M  END
> <minimizedAffinity>
-9.40651

$$$$
4ZW8_4T2_A_1102


 35 36  0  0  0  0  0  0  0  0999 V2000
   91.7752  116.1729  130.2802 C   0  0  0  0  0  0  0  0  0  0  0  0
   90.8494  115.9009  131.2843 C   0  0  0  0  0  0  0  0  0  0  0  0
   90.0937  116.9373  131.8270 C   0  0  0  0  0  0  0  0  0  0  0  0
   91.9360  117.4715  129.8161 C   0  0  0  0  0  0  0  0  0  0  0  0
   91.1862  118.5063  130.3567 C   0  0  0  0  0  0  0  0  0  0  0  0
   90.2700  118.2380  131.3638 C   0  0  0  0  0  0  0  0  0  0  0  0
   89.5197  119.2851  131.8831 C   0  0  0  0  0  0  0  0  0  0  0  0
   89.0073  119.1763  133.1673 C   0  0  0  0  0  0  0  0  0  0  0  0
   89.2597  120.4163  131.1193 C   0  0  0  0  0  0  0  0  0  0  0  0
   88.4981  121.4531  131.6463 C   0  0  0  0  0  0  0  0  0  0  0  0
   87.9922  121.3492  132.9354 C   0  0  0  0  0  0  0  0  0  0  0  0
   88.2460  120.2109  133.6923 C   0  0  0  0  0  0  0  0  0  0  0  0
   87.7402  120.1033  134.9786 C   0  0  0  0  0  0  0  0  0  0  0  0
   88.1933  119.1182  135.7472 N   0  0  0  0  0  0  0  0  0  0  0  0
   86.8278  120.9991  135.3775 N   0  0  0  0  0  0  0  0  0  0  0  0
   86.3121  120.8746  136.7424 O   0  0  0  0  0  0  0  0  0  0  0  0
   88.8653  118.4899  135.3969 H   0  0  0  0  0  0  0  0  0  0  0  0
   87.8568  119.0169  136.6668 H   0  0  0  0  0  0  0  0  0  0  0  0
   85.6726  121.4820  137.0588 H   0  0  0  0  0  0  0  0  0  0  0  0
   92.5334  115.1569  129.7068 C   0  0  0  0  0  0  0  0  0  0  0  0
   92.0575  114.8100  128.2991 C   0  0  0  0  0  0  0  0  0  0  0  0
   92.4809  115.4225  127.3221 O   0  0  0  0  0  0  0  0  0  0  0  0
   91.1339  113.8401  128.2407 N   0  0  0  0  0  0  0  0  0  0  0  0
   90.6445  113.4844  126.9400 O   0  0  0  0  0  0  0  0  0  0  0  0
   90.8063  113.3921  129.0539 H   0  0  0  0  0  0  0  0  0  0  0  0
   91.0823  114.0312  126.2691 H   0  0  0  0  0  0  0  0  0  0  0  0
   94.8235  115.2059  130.5813 C   0  0  0  0  0  0  0  0  0  0  0  0
   95.9804  115.6082  130.4944 O   0  0  0  0  0  0  0  0  0  0  0  0
   93.9369  115.5842  129.6536 N   0  0  0  0  0  0  0  0  0  0  0  0
   94.2336  116.1645  128.9157 H   0  0  0  0  0  0  0  0  0  0  0  0
   94.4069  114.4211  131.6251 O   0  0  0  0  0  0  0  0  0  0  0  0
   93.1585  114.3782  133.7324 C   0  0  0  0  0  0  0  0  0  0  0  0
   94.3439  114.9687  132.9591 C   0  0  0  0  0  0  0  0  0  0  0  0
   95.6337  114.5782  133.6840 C   0  0  0  0  0  0  0  0  0  0  0  0
   94.2437  116.4959  132.9330 C   0  0  0  0  0  0  0  0  0  0  0  0
 35 33  1  0  0  0
 34 33  1  0  0  0
 33 32  1  0  0  0
 33 31  1  0  0  0
 24 23  1  0  0  0
 31 27  1  0  0  0
 23 21  1  0  0  0
 22 21  2  0  0  0
 28 27  2  0  0  0
 21 20  1  0  0  0
 27 29  1  0  0  0
 29 20  1  0  0  0
 20  1  1  0  0  0
  1  2  2  0  0  0
  1  4  1  0  0  0
  2  3  1  0  0  0
  4  5  2  0  0  0
  3  6  2  0  0  0
  5  6  1  0  0  0
  6  7  1  0  0  0
  7  9  2  0  0  0
  7  8  1  0  0  0
  9 10  1  0  0  0
  8 12  2  0  0  0
 10 11  2  0  0  0
 12 11  1  0  0  0
 12 13  1  0  0  0
 13 15  2  0  0  0
 13 14  1  0  0  0
 15 16  1  0  0  0
 29 30  1  0  0  0
 23 25  1  0  0  0
 24 26  1  0  0  0
 14 17  1  0  0  0
 14 18  1  0  0  0
 16 19  1  0  0  0
M  END
> <minimizedAffinity>
-9.20377

$$$$
