2XHT_C0Y_A_1224


 20 21  0  0  0  0  0  0  0  0999 V2000
    6.9705   -3.0010   11.8276 C   0  0  0  0  0  0  0  0  0  0  0  0
    7.8134   -3.6024   10.9113 C   0  0  0  0  0  0  0  0  0  0  0  0
    8.1277   -4.9492   10.9819 C   0  0  0  0  0  0  0  0  0  0  0  0
    7.5888   -5.7228   12.0038 C   0  0  0  0  0  0  0  0  0  0  0  0
    6.7424   -5.1569   12.9392 C   0  0  0  0  0  0  0  0  0  0  0  0
    6.4236   -3.8036   12.8683 C   0  0  0  0  0  0  0  0  0  0  0  0
    5.5696   -3.2665   13.8054 O   0  0  0  0  0  0  0  0  0  0  0  0
    5.3467   -2.3571   13.7694 H   0  0  0  0  0  0  0  0  0  0  0  0
    9.0841   -5.5465    9.9992 C   0  0  0  0  0  0  0  0  0  0  0  0
   10.1699   -5.9362   10.3873 O   0  0  0  0  0  0  0  0  0  0  0  0
    8.7547   -5.5628    8.6834 N   0  0  0  0  0  0  0  0  0  0  0  0
    9.6903   -6.0053    7.6404 C   0  0  0  0  0  0  0  0  0  0  0  0
    9.1624   -7.2678    6.9847 C   0  0  0  0  0  0  0  0  0  0  0  0
    7.8399   -7.0698    6.4642 O   0  0  0  0  0  0  0  0  0  0  0  0
    6.9405   -6.7123    7.5245 C   0  0  0  0  0  0  0  0  0  0  0  0
    7.3757   -5.4272    8.2094 C   0  0  0  0  0  0  0  0  0  0  0  0
    7.3591   -0.9977   10.3515 C   0  0  0  0  0  0  0  0  0  0  0  0
    6.7301   -1.4921   11.6545 C   0  0  0  0  0  0  0  0  0  0  0  0
    7.3642   -0.7110   12.8160 C   0  0  0  0  0  0  0  0  0  0  0  0
    5.2307   -1.1812   11.6172 C   0  0  0  0  0  0  0  0  0  0  0  0
 17 18  1  0  0  0
 18 19  1  0  0  0
 18 20  1  0  0  0
 18  1  1  0  0  0
  1  2  1  0  0  0
  1  6  2  0  0  0
  2  3  2  0  0  0
  3  4  1  0  0  0
  3  9  1  0  0  0
  4  5  2  0  0  0
  5  6  1  0  0  0
  6  7  1  0  0  0
  9 10  2  0  0  0
  9 11  1  0  0  0
 11 12  1  0  0  0
 11 16  1  0  0  0
 12 13  1  0  0  0
 13 14  1  0  0  0
 14 15  1  0  0  0
 15 16  1  0  0  0
  7  8  1  0  0  0
M  END
> <minimizedAffinity>
-8.33505

$$$$
2XHT_C0Y_A_1224


 20 21  0  0  0  0  0  0  0  0999 V2000
    6.9078   -3.2202   11.5352 C   0  0  0  0  0  0  0  0  0  0  0  0
    7.3480   -3.4022   10.2371 C   0  0  0  0  0  0  0  0  0  0  0  0
    7.8124   -4.6271    9.7881 C   0  0  0  0  0  0  0  0  0  0  0  0
    7.8453   -5.7067   10.6636 C   0  0  0  0  0  0  0  0  0  0  0  0
    7.4140   -5.5635   11.9694 C   0  0  0  0  0  0  0  0  0  0  0  0
    6.9447   -4.3334   12.4216 C   0  0  0  0  0  0  0  0  0  0  0  0
    6.5106   -4.2194   13.7234 O   0  0  0  0  0  0  0  0  0  0  0  0
    6.1923   -3.3973   14.0408 H   0  0  0  0  0  0  0  0  0  0  0  0
    8.3262   -4.7654    8.3903 C   0  0  0  0  0  0  0  0  0  0  0  0
    9.2255   -5.5533    8.1622 O   0  0  0  0  0  0  0  0  0  0  0  0
    7.8378   -3.9489    7.4233 N   0  0  0  0  0  0  0  0  0  0  0  0
    8.3831   -3.9263    6.0590 C   0  0  0  0  0  0  0  0  0  0  0  0
    7.3314   -4.4178    5.0818 C   0  0  0  0  0  0  0  0  0  0  0  0
    6.1247   -3.6482    5.1856 O   0  0  0  0  0  0  0  0  0  0  0  0
    5.5827   -3.7562    6.5106 C   0  0  0  0  0  0  0  0  0  0  0  0
    6.5622   -3.2414    7.5526 C   0  0  0  0  0  0  0  0  0  0  0  0
    6.2302   -0.9591   10.6569 C   0  0  0  0  0  0  0  0  0  0  0  0
    6.4485   -1.8024   11.9135 C   0  0  0  0  0  0  0  0  0  0  0  0
    7.5126   -1.1058   12.7758 C   0  0  0  0  0  0  0  0  0  0  0  0
    5.1350   -1.8482   12.7004 C   0  0  0  0  0  0  0  0  0  0  0  0
 17 18  1  0  0  0
 18 19  1  0  0  0
 18 20  1  0  0  0
 18  1  1  0  0  0
  1  2  1  0  0  0
  1  6  2  0  0  0
  2  3  2  0  0  0
  3  4  1  0  0  0
  3  9  1  0  0  0
  4  5  2  0  0  0
  5  6  1  0  0  0
  6  7  1  0  0  0
  9 10  2  0  0  0
  9 11  1  0  0  0
 11 12  1  0  0  0
 11 16  1  0  0  0
 12 13  1  0  0  0
 13 14  1  0  0  0
 14 15  1  0  0  0
 15 16  1  0  0  0
  7  8  1  0  0  0
M  END
> <minimizedAffinity>
-7.01075

$$$$
2XHT_C0Y_A_1224


 20 21  0  0  0  0  0  0  0  0999 V2000
    6.6846   -3.4668   11.5689 C   0  0  0  0  0  0  0  0  0  0  0  0
    6.8552   -3.2481   10.2143 C   0  0  0  0  0  0  0  0  0  0  0  0
    7.4465   -4.1913    9.3908 C   0  0  0  0  0  0  0  0  0  0  0  0
    7.8887   -5.3915    9.9359 C   0  0  0  0  0  0  0  0  0  0  0  0
    7.7360   -5.6463   11.2862 C   0  0  0  0  0  0  0  0  0  0  0  0
    7.1398   -4.7000   12.1151 C   0  0  0  0  0  0  0  0  0  0  0  0
    6.9894   -4.9822   13.4544 O   0  0  0  0  0  0  0  0  0  0  0  0
    6.5898   -4.3542   14.0235 H   0  0  0  0  0  0  0  0  0  0  0  0
    7.6566   -3.8914    7.9406 C   0  0  0  0  0  0  0  0  0  0  0  0
    7.6431   -2.7339    7.5644 O   0  0  0  0  0  0  0  0  0  0  0  0
    7.7724   -4.9198    7.0635 N   0  0  0  0  0  0  0  0  0  0  0  0
    7.8442   -4.7141    5.6104 C   0  0  0  0  0  0  0  0  0  0  0  0
    9.2039   -5.1540    5.1002 C   0  0  0  0  0  0  0  0  0  0  0  0
    9.4787   -6.5159    5.4594 O   0  0  0  0  0  0  0  0  0  0  0  0
    9.4739   -6.6604    6.8877 C   0  0  0  0  0  0  0  0  0  0  0  0
    8.1261   -6.2792    7.4777 C   0  0  0  0  0  0  0  0  0  0  0  0
    5.1876   -1.4441   11.4643 C   0  0  0  0  0  0  0  0  0  0  0  0
    6.0437   -2.3248   12.3749 C   0  0  0  0  0  0  0  0  0  0  0  0
    7.1288   -1.4411   13.0095 C   0  0  0  0  0  0  0  0  0  0  0  0
    5.1518   -2.8801   13.4896 C   0  0  0  0  0  0  0  0  0  0  0  0
 17 18  1  0  0  0
 18 19  1  0  0  0
 18 20  1  0  0  0
 18  1  1  0  0  0
  1  2  1  0  0  0
  1  6  2  0  0  0
  2  3  2  0  0  0
  3  4  1  0  0  0
  3  9  1  0  0  0
  4  5  2  0  0  0
  5  6  1  0  0  0
  6  7  1  0  0  0
  9 10  2  0  0  0
  9 11  1  0  0  0
 11 12  1  0  0  0
 11 16  1  0  0  0
 12 13  1  0  0  0
 13 14  1  0  0  0
 14 15  1  0  0  0
 15 16  1  0  0  0
  7  8  1  0  0  0
M  END
> <minimizedAffinity>
-6.61611

$$$$
2XHT_C0Y_A_1224


 20 21  0  0  0  0  0  0  0  0999 V2000
    6.4240   -1.9097    9.7593 C   0  0  0  0  0  0  0  0  0  0  0  0
    7.3252   -2.5016    8.8935 C   0  0  0  0  0  0  0  0  0  0  0  0
    7.1126   -2.5311    7.5255 C   0  0  0  0  0  0  0  0  0  0  0  0
    5.9598   -1.9567    7.0018 C   0  0  0  0  0  0  0  0  0  0  0  0
    5.0350   -1.3560    7.8358 C   0  0  0  0  0  0  0  0  0  0  0  0
    5.2484   -1.3235    9.2111 C   0  0  0  0  0  0  0  0  0  0  0  0
    4.3177   -0.7097   10.0192 O   0  0  0  0  0  0  0  0  0  0  0  0
    4.4488   -0.6807   10.9465 H   0  0  0  0  0  0  0  0  0  0  0  0
    8.0895   -3.2267    6.6317 C   0  0  0  0  0  0  0  0  0  0  0  0
    9.0101   -2.5932    6.1493 O   0  0  0  0  0  0  0  0  0  0  0  0
    7.8796   -4.5277    6.3097 N   0  0  0  0  0  0  0  0  0  0  0  0
    8.7123   -5.2439    5.3335 C   0  0  0  0  0  0  0  0  0  0  0  0
    9.4768   -6.3528    6.0323 C   0  0  0  0  0  0  0  0  0  0  0  0
    8.5879   -7.2401    6.7265 O   0  0  0  0  0  0  0  0  0  0  0  0
    7.8472   -6.5178    7.7218 C   0  0  0  0  0  0  0  0  0  0  0  0
    7.0155   -5.4099    7.0967 C   0  0  0  0  0  0  0  0  0  0  0  0
    7.5317   -0.7235   11.6852 C   0  0  0  0  0  0  0  0  0  0  0  0
    6.7645   -1.9750   11.2573 C   0  0  0  0  0  0  0  0  0  0  0  0
    7.6453   -3.1985   11.5547 C   0  0  0  0  0  0  0  0  0  0  0  0
    5.4898   -2.0738   12.1008 C   0  0  0  0  0  0  0  0  0  0  0  0
 17 18  1  0  0  0
 18 19  1  0  0  0
 18 20  1  0  0  0
 18  1  1  0  0  0
  1  2  1  0  0  0
  1  6  2  0  0  0
  2  3  2  0  0  0
  3  4  1  0  0  0
  3  9  1  0  0  0
  4  5  2  0  0  0
  5  6  1  0  0  0
  6  7  1  0  0  0
  9 10  2  0  0  0
  9 11  1  0  0  0
 11 12  1  0  0  0
 11 16  1  0  0  0
 12 13  1  0  0  0
 13 14  1  0  0  0
 14 15  1  0  0  0
 15 16  1  0  0  0
  7  8  1  0  0  0
M  END
> <minimizedAffinity>
-6.53084

$$$$
2XHT_C0Y_A_1224


 20 21  0  0  0  0  0  0  0  0999 V2000
    8.2831   -4.5130    7.4483 C   0  0  0  0  0  0  0  0  0  0  0  0
    7.7043   -4.2281    8.6713 C   0  0  0  0  0  0  0  0  0  0  0  0
    7.1322   -2.9958    8.9394 C   0  0  0  0  0  0  0  0  0  0  0  0
    7.1421   -2.0111    7.9579 C   0  0  0  0  0  0  0  0  0  0  0  0
    7.7121   -2.2584    6.7228 C   0  0  0  0  0  0  0  0  0  0  0  0
    8.2857   -3.4974    6.4509 C   0  0  0  0  0  0  0  0  0  0  0  0
    8.8371   -3.7224    5.2094 O   0  0  0  0  0  0  0  0  0  0  0  0
    9.2264   -4.5518    5.0131 H   0  0  0  0  0  0  0  0  0  0  0  0
    6.5626   -2.7145   10.2934 C   0  0  0  0  0  0  0  0  0  0  0  0
    5.6389   -1.9288   10.3988 O   0  0  0  0  0  0  0  0  0  0  0  0
    7.1430   -3.2754   11.3837 N   0  0  0  0  0  0  0  0  0  0  0  0
    6.7323   -2.9447   12.7552 C   0  0  0  0  0  0  0  0  0  0  0  0
    6.1287   -4.1701   13.4158 C   0  0  0  0  0  0  0  0  0  0  0  0
    7.0390   -5.2791   13.3855 O   0  0  0  0  0  0  0  0  0  0  0  0
    7.3571   -5.6196   12.0276 C   0  0  0  0  0  0  0  0  0  0  0  0
    8.0092   -4.4535   11.3031 C   0  0  0  0  0  0  0  0  0  0  0  0
    7.8243   -6.9623    7.0829 C   0  0  0  0  0  0  0  0  0  0  0  0
    8.9114   -5.9078    7.2927 C   0  0  0  0  0  0  0  0  0  0  0  0
    9.7027   -6.2839    8.5551 C   0  0  0  0  0  0  0  0  0  0  0  0
    9.8609   -5.9454    6.0913 C   0  0  0  0  0  0  0  0  0  0  0  0
 17 18  1  0  0  0
 18 19  1  0  0  0
 18 20  1  0  0  0
 18  1  1  0  0  0
  1  2  1  0  0  0
  1  6  2  0  0  0
  2  3  2  0  0  0
  3  4  1  0  0  0
  3  9  1  0  0  0
  4  5  2  0  0  0
  5  6  1  0  0  0
  6  7  1  0  0  0
  9 10  2  0  0  0
  9 11  1  0  0  0
 11 12  1  0  0  0
 11 16  1  0  0  0
 12 13  1  0  0  0
 13 14  1  0  0  0
 14 15  1  0  0  0
 15 16  1  0  0  0
  7  8  1  0  0  0
M  END
> <minimizedAffinity>
-6.35582

$$$$
2XHT_C0Y_A_1224


 20 21  0  0  0  0  0  0  0  0999 V2000
    6.9786   -3.2362   10.3584 C   0  0  0  0  0  0  0  0  0  0  0  0
    6.2153   -2.8522    9.2712 C   0  0  0  0  0  0  0  0  0  0  0  0
    6.4240   -3.3811    8.0086 C   0  0  0  0  0  0  0  0  0  0  0  0
    7.4316   -4.3205    7.8205 C   0  0  0  0  0  0  0  0  0  0  0  0
    8.2161   -4.7290    8.8832 C   0  0  0  0  0  0  0  0  0  0  0  0
    8.0061   -4.1999   10.1536 C   0  0  0  0  0  0  0  0  0  0  0  0
    8.7936   -4.6312   11.1976 O   0  0  0  0  0  0  0  0  0  0  0  0
    8.6630   -4.2834   12.0578 H   0  0  0  0  0  0  0  0  0  0  0  0
    5.6079   -2.8990    6.8516 C   0  0  0  0  0  0  0  0  0  0  0  0
    5.0374   -3.7109    6.1466 O   0  0  0  0  0  0  0  0  0  0  0  0
    5.5906   -1.5738    6.5622 N   0  0  0  0  0  0  0  0  0  0  0  0
    4.9272   -1.0351    5.3669 C   0  0  0  0  0  0  0  0  0  0  0  0
    3.7582   -0.1617    5.7830 C   0  0  0  0  0  0  0  0  0  0  0  0
    4.1795    0.8815    6.6738 O   0  0  0  0  0  0  0  0  0  0  0  0
    4.7534    0.3148    7.8614 C   0  0  0  0  0  0  0  0  0  0  0  0
    5.9636   -0.5448    7.5350 C   0  0  0  0  0  0  0  0  0  0  0  0
    5.4063   -1.6885   11.5730 C   0  0  0  0  0  0  0  0  0  0  0  0
    6.6648   -2.5479   11.6971 C   0  0  0  0  0  0  0  0  0  0  0  0
    7.8267   -1.6336   12.1157 C   0  0  0  0  0  0  0  0  0  0  0  0
    6.4365   -3.5848   12.8011 C   0  0  0  0  0  0  0  0  0  0  0  0
 17 18  1  0  0  0
 18 19  1  0  0  0
 18 20  1  0  0  0
 18  1  1  0  0  0
  1  2  1  0  0  0
  1  6  2  0  0  0
  2  3  2  0  0  0
  3  4  1  0  0  0
  3  9  1  0  0  0
  4  5  2  0  0  0
  5  6  1  0  0  0
  6  7  1  0  0  0
  9 10  2  0  0  0
  9 11  1  0  0  0
 11 12  1  0  0  0
 11 16  1  0  0  0
 12 13  1  0  0  0
 13 14  1  0  0  0
 14 15  1  0  0  0
 15 16  1  0  0  0
  7  8  1  0  0  0
M  END
> <minimizedAffinity>
-6.27856

$$$$
2XHT_C0Y_A_1224


 20 21  0  0  0  0  0  0  0  0999 V2000
    4.8335   -0.9690    6.6075 C   0  0  0  0  0  0  0  0  0  0  0  0
    5.9798   -1.6819    6.9074 C   0  0  0  0  0  0  0  0  0  0  0  0
    6.6049   -2.4879    5.9709 C   0  0  0  0  0  0  0  0  0  0  0  0
    6.0667   -2.5926    4.6931 C   0  0  0  0  0  0  0  0  0  0  0  0
    4.9213   -1.8955    4.3559 C   0  0  0  0  0  0  0  0  0  0  0  0
    4.2929   -1.0830    5.2956 C   0  0  0  0  0  0  0  0  0  0  0  0
    3.1597   -0.3905    4.9317 O   0  0  0  0  0  0  0  0  0  0  0  0
    2.7269    0.1599    5.5543 H   0  0  0  0  0  0  0  0  0  0  0  0
    7.8139   -3.2805    6.3542 C   0  0  0  0  0  0  0  0  0  0  0  0
    8.9124   -2.9039    5.9896 O   0  0  0  0  0  0  0  0  0  0  0  0
    7.6526   -4.4475    7.0269 N   0  0  0  0  0  0  0  0  0  0  0  0
    8.7735   -5.3509    7.3211 C   0  0  0  0  0  0  0  0  0  0  0  0
    8.9903   -5.4220    8.8213 C   0  0  0  0  0  0  0  0  0  0  0  0
    7.7917   -5.8216    9.5017 O   0  0  0  0  0  0  0  0  0  0  0  0
    6.7423   -4.8747    9.2505 C   0  0  0  0  0  0  0  0  0  0  0  0
    6.4315   -4.7743    7.7662 C   0  0  0  0  0  0  0  0  0  0  0  0
    4.3336    1.3552    7.4389 C   0  0  0  0  0  0  0  0  0  0  0  0
    4.2219   -0.1382    7.7477 C   0  0  0  0  0  0  0  0  0  0  0  0
    4.9631   -0.4087    9.0662 C   0  0  0  0  0  0  0  0  0  0  0  0
    2.7420   -0.4839    7.9389 C   0  0  0  0  0  0  0  0  0  0  0  0
 17 18  1  0  0  0
 18 19  1  0  0  0
 18 20  1  0  0  0
 18  1  1  0  0  0
  1  2  1  0  0  0
  1  6  2  0  0  0
  2  3  2  0  0  0
  3  4  1  0  0  0
  3  9  1  0  0  0
  4  5  2  0  0  0
  5  6  1  0  0  0
  6  7  1  0  0  0
  9 10  2  0  0  0
  9 11  1  0  0  0
 11 12  1  0  0  0
 11 16  1  0  0  0
 12 13  1  0  0  0
 13 14  1  0  0  0
 14 15  1  0  0  0
 15 16  1  0  0  0
  7  8  1  0  0  0
M  END
> <minimizedAffinity>
-6.05263

$$$$
2XHT_C0Y_A_1224


 20 21  0  0  0  0  0  0  0  0999 V2000
    6.4948   -2.4236   10.3358 C   0  0  0  0  0  0  0  0  0  0  0  0
    7.2637   -3.4719    9.8647 C   0  0  0  0  0  0  0  0  0  0  0  0
    7.2421   -3.8532    8.5337 C   0  0  0  0  0  0  0  0  0  0  0  0
    6.4220   -3.1712    7.6419 C   0  0  0  0  0  0  0  0  0  0  0  0
    5.6382   -2.1181    8.0756 C   0  0  0  0  0  0  0  0  0  0  0  0
    5.6604   -1.7320    9.4129 C   0  0  0  0  0  0  0  0  0  0  0  0
    4.8789   -0.6730    9.8177 O   0  0  0  0  0  0  0  0  0  0  0  0
    4.8843   -0.4027   10.7148 H   0  0  0  0  0  0  0  0  0  0  0  0
    8.0519   -5.0254    8.0784 C   0  0  0  0  0  0  0  0  0  0  0  0
    7.9171   -6.0962    8.6410 O   0  0  0  0  0  0  0  0  0  0  0  0
    8.9803   -4.8486    7.1052 N   0  0  0  0  0  0  0  0  0  0  0  0
    9.9084   -5.9120    6.6966 C   0  0  0  0  0  0  0  0  0  0  0  0
    9.6209   -6.3159    5.2625 C   0  0  0  0  0  0  0  0  0  0  0  0
    9.6849   -5.1856    4.3808 O   0  0  0  0  0  0  0  0  0  0  0  0
    8.7129   -4.2023    4.7671 C   0  0  0  0  0  0  0  0  0  0  0  0
    8.9570   -3.7103    6.1843 C   0  0  0  0  0  0  0  0  0  0  0  0
    7.4243   -0.8684   12.0852 C   0  0  0  0  0  0  0  0  0  0  0  0
    6.5874   -2.1246   11.8413 C   0  0  0  0  0  0  0  0  0  0  0  0
    7.2566   -3.2938   12.5805 C   0  0  0  0  0  0  0  0  0  0  0  0
    5.1944   -1.9020   12.4381 C   0  0  0  0  0  0  0  0  0  0  0  0
 17 18  1  0  0  0
 18 19  1  0  0  0
 18 20  1  0  0  0
 18  1  1  0  0  0
  1  2  1  0  0  0
  1  6  2  0  0  0
  2  3  2  0  0  0
  3  4  1  0  0  0
  3  9  1  0  0  0
  4  5  2  0  0  0
  5  6  1  0  0  0
  6  7  1  0  0  0
  9 10  2  0  0  0
  9 11  1  0  0  0
 11 12  1  0  0  0
 11 16  1  0  0  0
 12 13  1  0  0  0
 13 14  1  0  0  0
 14 15  1  0  0  0
 15 16  1  0  0  0
  7  8  1  0  0  0
M  END
> <minimizedAffinity>
-5.97064

$$$$
2XHT_C0Y_A_1224


 20 21  0  0  0  0  0  0  0  0999 V2000
    6.4294   -3.8303    8.4867 C   0  0  0  0  0  0  0  0  0  0  0  0
    6.1029   -2.5939    7.9607 C   0  0  0  0  0  0  0  0  0  0  0  0
    5.3641   -2.4673    6.7963 C   0  0  0  0  0  0  0  0  0  0  0  0
    4.9408   -3.6114    6.1292 C   0  0  0  0  0  0  0  0  0  0  0  0
    5.2483   -4.8653    6.6240 C   0  0  0  0  0  0  0  0  0  0  0  0
    5.9890   -4.9943    7.7956 C   0  0  0  0  0  0  0  0  0  0  0  0
    6.2728   -6.2541    8.2736 O   0  0  0  0  0  0  0  0  0  0  0  0
    6.7704   -6.3553    9.0611 H   0  0  0  0  0  0  0  0  0  0  0  0
    5.0774   -1.1104    6.2363 C   0  0  0  0  0  0  0  0  0  0  0  0
    5.5650   -0.7928    5.1672 O   0  0  0  0  0  0  0  0  0  0  0  0
    4.3504   -0.2325    6.9719 N   0  0  0  0  0  0  0  0  0  0  0  0
    4.1395    1.1611    6.5566 C   0  0  0  0  0  0  0  0  0  0  0  0
    2.6675    1.3892    6.2670 C   0  0  0  0  0  0  0  0  0  0  0  0
    1.8549    1.0418    7.3976 O   0  0  0  0  0  0  0  0  0  0  0  0
    2.0320   -0.3446    7.7255 C   0  0  0  0  0  0  0  0  0  0  0  0
    3.4798   -0.6504    8.0727 C   0  0  0  0  0  0  0  0  0  0  0  0
    6.5366   -4.5303   10.9036 C   0  0  0  0  0  0  0  0  0  0  0  0
    7.2816   -3.8303    9.7666 C   0  0  0  0  0  0  0  0  0  0  0  0
    7.5835   -2.3904   10.2103 C   0  0  0  0  0  0  0  0  0  0  0  0
    8.6089   -4.5593    9.5361 C   0  0  0  0  0  0  0  0  0  0  0  0
 17 18  1  0  0  0
 18 19  1  0  0  0
 18 20  1  0  0  0
 18  1  1  0  0  0
  1  2  1  0  0  0
  1  6  2  0  0  0
  2  3  2  0  0  0
  3  4  1  0  0  0
  3  9  1  0  0  0
  4  5  2  0  0  0
  5  6  1  0  0  0
  6  7  1  0  0  0
  9 10  2  0  0  0
  9 11  1  0  0  0
 11 12  1  0  0  0
 11 16  1  0  0  0
 12 13  1  0  0  0
 13 14  1  0  0  0
 14 15  1  0  0  0
 15 16  1  0  0  0
  7  8  1  0  0  0
M  END
> <minimizedAffinity>
-5.77885

$$$$
2XHT_C0Y_A_1224


 20 21  0  0  0  0  0  0  0  0999 V2000
    5.9031   -4.2039    6.4351 C   0  0  0  0  0  0  0  0  0  0  0  0
    5.7519   -2.8300    6.3963 C   0  0  0  0  0  0  0  0  0  0  0  0
    4.7814   -2.2235    5.6167 C   0  0  0  0  0  0  0  0  0  0  0  0
    3.9358   -3.0119    4.8443 C   0  0  0  0  0  0  0  0  0  0  0  0
    4.0568   -4.3892    4.8564 C   0  0  0  0  0  0  0  0  0  0  0  0
    5.0305   -5.0006    5.6412 C   0  0  0  0  0  0  0  0  0  0  0  0
    5.1233   -6.3744    5.6443 O   0  0  0  0  0  0  0  0  0  0  0  0
    5.7741   -6.7988    6.1680 H   0  0  0  0  0  0  0  0  0  0  0  0
    4.6870   -0.7317    5.5664 C   0  0  0  0  0  0  0  0  0  0  0  0
    5.1945   -0.1345    4.6350 O   0  0  0  0  0  0  0  0  0  0  0  0
    4.1127   -0.0709    6.6026 N   0  0  0  0  0  0  0  0  0  0  0  0
    4.1015    1.3955    6.6952 C   0  0  0  0  0  0  0  0  0  0  0  0
    2.6738    1.9010    6.6019 C   0  0  0  0  0  0  0  0  0  0  0  0
    1.8418    1.2980    7.6035 O   0  0  0  0  0  0  0  0  0  0  0  0
    1.8187   -0.1273    7.4335 C   0  0  0  0  0  0  0  0  0  0  0  0
    3.2122   -0.7217    7.5566 C   0  0  0  0  0  0  0  0  0  0  0  0
    7.5827   -3.6439    8.2263 C   0  0  0  0  0  0  0  0  0  0  0  0
    7.0406   -4.7464    7.3161 C   0  0  0  0  0  0  0  0  0  0  0  0
    8.1984   -5.2564    6.4440 C   0  0  0  0  0  0  0  0  0  0  0  0
    6.5453   -5.8996    8.1943 C   0  0  0  0  0  0  0  0  0  0  0  0
 17 18  1  0  0  0
 18 19  1  0  0  0
 18 20  1  0  0  0
 18  1  1  0  0  0
  1  2  1  0  0  0
  1  6  2  0  0  0
  2  3  2  0  0  0
  3  4  1  0  0  0
  3  9  1  0  0  0
  4  5  2  0  0  0
  5  6  1  0  0  0
  6  7  1  0  0  0
  9 10  2  0  0  0
  9 11  1  0  0  0
 11 12  1  0  0  0
 11 16  1  0  0  0
 12 13  1  0  0  0
 13 14  1  0  0  0
 14 15  1  0  0  0
 15 16  1  0  0  0
  7  8  1  0  0  0
M  END
> <minimizedAffinity>
-5.77245

$$$$
