3EKV_478_A_200


 39 41  0  0  0  0  0  0  0  0999 V2000
   20.0439   29.2066   15.4178 C   0  0  0  0  0  0  0  0  0  0  0  0
   20.1603   28.1291   16.3580 O   0  0  0  0  0  0  0  0  0  0  0  0
   19.2987   27.6958   16.4615 H   0  0  0  0  0  0  0  0  0  0  0  0
   19.6339   28.6697   14.0524 C   0  0  0  0  0  0  0  0  0  0  0  0
   21.4907   28.0083   12.5843 C   0  0  0  0  0  0  0  0  0  0  0  0
   20.6923   27.7784   13.6242 N   0  0  0  0  0  0  0  0  0  0  0  0
   21.5660   29.0339   11.9115 O   0  0  0  0  0  0  0  0  0  0  0  0
   20.8302   26.9486   14.1357 H   0  0  0  0  0  0  0  0  0  0  0  0
   22.2859   26.8424   12.3115 O   0  0  0  0  0  0  0  0  0  0  0  0
   23.4853   25.4151   10.8984 C   0  0  0  0  0  0  0  0  0  0  0  0
   24.4055   27.5462   11.5100 C   0  0  0  0  0  0  0  0  0  0  0  0
   23.1031   26.8616   11.1496 C   0  0  0  0  0  0  0  0  0  0  0  0
   25.3520   26.4098   11.8748 C   0  0  0  0  0  0  0  0  0  0  0  0
   24.5988   25.1983   11.7625 O   0  0  0  0  0  0  0  0  0  0  0  0
   18.3238   27.8834   14.0112 C   0  0  0  0  0  0  0  0  0  0  0  0
   18.0176   27.4262   12.6010 C   0  0  0  0  0  0  0  0  0  0  0  0
   18.1680   26.0869   12.2322 C   0  0  0  0  0  0  0  0  0  0  0  0
   17.5891   28.3449   11.6535 C   0  0  0  0  0  0  0  0  0  0  0  0
   17.9104   25.6847   10.9222 C   0  0  0  0  0  0  0  0  0  0  0  0
   17.3306   27.9431   10.3475 C   0  0  0  0  0  0  0  0  0  0  0  0
   17.4785   26.6065    9.9806 C   0  0  0  0  0  0  0  0  0  0  0  0
   19.0569   30.2392   15.9431 C   0  0  0  0  0  0  0  0  0  0  0  0
   19.4330   31.5379   15.3507 N   0  0  0  0  0  0  0  0  0  0  0  0
   17.6234   31.3397   13.6468 O   0  0  0  0  0  0  0  0  0  0  0  0
   18.8521   33.3159   13.7437 O   0  0  0  0  0  0  0  0  0  0  0  0
   18.2373   32.2742   14.5415 S   0  0  0  0  0  0  0  0  0  0  0  0
   17.1058   32.9185   15.4959 C   0  0  0  0  0  0  0  0  0  0  0  0
   17.1393   34.2845   15.7930 C   0  0  0  0  0  0  0  0  0  0  0  0
   16.1764   34.9013   16.5812 C   0  0  0  0  0  0  0  0  0  0  0  0
   15.1494   34.1372   17.1279 C   0  0  0  0  0  0  0  0  0  0  0  0
   15.1090   32.7734   16.8685 C   0  0  0  0  0  0  0  0  0  0  0  0
   16.0798   32.1763   16.0576 C   0  0  0  0  0  0  0  0  0  0  0  0
   14.2186   34.7344   17.9076 N   0  0  0  0  0  0  0  0  0  0  0  0
   14.2670   35.7028   18.0780 H   0  0  0  0  0  0  0  0  0  0  0  0
   13.4929   34.2004   18.3045 H   0  0  0  0  0  0  0  0  0  0  0  0
   20.1572   32.3999   16.3049 C   0  0  0  0  0  0  0  0  0  0  0  0
   21.6759   32.2789   16.1417 C   0  0  0  0  0  0  0  0  0  0  0  0
   22.1878   32.2928   14.7034 C   0  0  0  0  0  0  0  0  0  0  0  0
   22.3569   33.4386   16.8639 C   0  0  0  0  0  0  0  0  0  0  0  0
 10 12  1  0  0  0
 10 14  1  0  0  0
 11 12  1  0  0  0
 11 13  1  0  0  0
  5  6  1  0  0  0
  5  9  1  0  0  0
  5  7  2  0  0  0
 12  9  1  0  0  0
  4  1  1  0  0  0
  4 15  1  0  0  0
  4  6  1  0  0  0
  1 22  1  0  0  0
  1  2  1  0  0  0
 15 16  1  0  0  0
 16 17  2  0  0  0
 16 18  1  0  0  0
 17 19  1  0  0  0
 18 20  2  0  0  0
 19 21  2  0  0  0
 20 21  1  0  0  0
 22 23  1  0  0  0
 36 37  1  0  0  0
 36 23  1  0  0  0
 37 38  1  0  0  0
 37 39  1  0  0  0
 27 28  2  0  0  0
 27 32  1  0  0  0
 27 26  1  0  0  0
 28 29  1  0  0  0
 29 30  2  0  0  0
 30 31  1  0  0  0
 30 33  1  0  0  0
 31 32  2  0  0  0
 13 14  1  0  0  0
 23 26  1  0  0  0
 24 26  2  0  0  0
 25 26  2  0  0  0
  6  8  1  0  0  0
 33 34  1  0  0  0
 33 35  1  0  0  0
  2  3  1  0  0  0
M  END
> <minimizedAffinity>
-9.78496

$$$$
3EKV_478_A_200


 39 41  0  0  0  0  0  0  0  0999 V2000
   19.1168   30.8141   16.0903 C   0  0  0  0  0  0  0  0  0  0  0  0
   18.7423   30.3468   17.3941 O   0  0  0  0  0  0  0  0  0  0  0  0
   18.1989   31.0187   17.8347 H   0  0  0  0  0  0  0  0  0  0  0  0
   17.8756   31.0328   15.2347 C   0  0  0  0  0  0  0  0  0  0  0  0
   16.1624   32.6368   15.9645 C   0  0  0  0  0  0  0  0  0  0  0  0
   17.3937   32.3645   15.5388 N   0  0  0  0  0  0  0  0  0  0  0  0
   15.2911   31.8357   16.2955 O   0  0  0  0  0  0  0  0  0  0  0  0
   18.0176   33.1172   15.4230 H   0  0  0  0  0  0  0  0  0  0  0  0
   15.9514   34.0585   15.9730 O   0  0  0  0  0  0  0  0  0  0  0  0
   16.8370   34.1978   18.1338 C   0  0  0  0  0  0  0  0  0  0  0  0
   16.1711   36.1953   16.9812 C   0  0  0  0  0  0  0  0  0  0  0  0
   16.8289   34.8483   16.7633 C   0  0  0  0  0  0  0  0  0  0  0  0
   15.4563   36.0649   18.3199 C   0  0  0  0  0  0  0  0  0  0  0  0
   15.6759   34.7251   18.7720 O   0  0  0  0  0  0  0  0  0  0  0  0
   18.0855   30.9522   13.7228 C   0  0  0  0  0  0  0  0  0  0  0  0
   18.0238   29.5156   13.2494 C   0  0  0  0  0  0  0  0  0  0  0  0
   17.8348   29.2126   11.8986 C   0  0  0  0  0  0  0  0  0  0  0  0
   18.1474   28.4797   14.1643 C   0  0  0  0  0  0  0  0  0  0  0  0
   17.7507   27.8852   11.4803 C   0  0  0  0  0  0  0  0  0  0  0  0
   18.0653   27.1559   13.7466 C   0  0  0  0  0  0  0  0  0  0  0  0
   17.8792   26.8540   12.3985 C   0  0  0  0  0  0  0  0  0  0  0  0
   19.9487   32.0819   16.2211 C   0  0  0  0  0  0  0  0  0  0  0  0
   21.3667   31.6787   16.1460 N   0  0  0  0  0  0  0  0  0  0  0  0
   23.4104   32.0839   14.7763 O   0  0  0  0  0  0  0  0  0  0  0  0
   21.3718   32.9071   14.0078 O   0  0  0  0  0  0  0  0  0  0  0  0
   22.0141   31.7864   14.6642 S   0  0  0  0  0  0  0  0  0  0  0  0
   21.8243   30.4540   13.7724 C   0  0  0  0  0  0  0  0  0  0  0  0
   21.5973   30.5622   12.3969 C   0  0  0  0  0  0  0  0  0  0  0  0
   21.4581   29.4525   11.5733 C   0  0  0  0  0  0  0  0  0  0  0  0
   21.5146   28.1779   12.1296 C   0  0  0  0  0  0  0  0  0  0  0  0
   21.7135   28.0448   13.4977 C   0  0  0  0  0  0  0  0  0  0  0  0
   21.8682   29.1762   14.3054 C   0  0  0  0  0  0  0  0  0  0  0  0
   21.3651   27.0961   11.3305 N   0  0  0  0  0  0  0  0  0  0  0  0
   21.2252   27.2143   10.3631 H   0  0  0  0  0  0  0  0  0  0  0  0
   21.3962   26.1910   11.7164 H   0  0  0  0  0  0  0  0  0  0  0  0
   22.1780   32.2815   17.2213 C   0  0  0  0  0  0  0  0  0  0  0  0
   22.1026   33.8118   17.2014 C   0  0  0  0  0  0  0  0  0  0  0  0
   21.2062   34.4418   18.2647 C   0  0  0  0  0  0  0  0  0  0  0  0
   23.5006   34.3905   17.4032 C   0  0  0  0  0  0  0  0  0  0  0  0
 10 12  1  0  0  0
 10 14  1  0  0  0
 11 12  1  0  0  0
 11 13  1  0  0  0
  5  6  1  0  0  0
  5  9  1  0  0  0
  5  7  2  0  0  0
 12  9  1  0  0  0
  4  1  1  0  0  0
  4 15  1  0  0  0
  4  6  1  0  0  0
  1 22  1  0  0  0
  1  2  1  0  0  0
 15 16  1  0  0  0
 16 17  2  0  0  0
 16 18  1  0  0  0
 17 19  1  0  0  0
 18 20  2  0  0  0
 19 21  2  0  0  0
 20 21  1  0  0  0
 22 23  1  0  0  0
 36 37  1  0  0  0
 36 23  1  0  0  0
 37 38  1  0  0  0
 37 39  1  0  0  0
 27 28  2  0  0  0
 27 32  1  0  0  0
 27 26  1  0  0  0
 28 29  1  0  0  0
 29 30  2  0  0  0
 30 31  1  0  0  0
 30 33  1  0  0  0
 31 32  2  0  0  0
 13 14  1  0  0  0
 23 26  1  0  0  0
 24 26  2  0  0  0
 25 26  2  0  0  0
  6  8  1  0  0  0
 33 34  1  0  0  0
 33 35  1  0  0  0
  2  3  1  0  0  0
M  END
> <minimizedAffinity>
-9.62273

$$$$
3EKV_478_A_200


 39 41  0  0  0  0  0  0  0  0999 V2000
   18.2080   32.3438   16.1131 C   0  0  0  0  0  0  0  0  0  0  0  0
   18.6144   31.3139   17.0256 O   0  0  0  0  0  0  0  0  0  0  0  0
   19.4182   31.5932   17.4912 H   0  0  0  0  0  0  0  0  0  0  0  0
   17.8758   33.6198   16.8761 C   0  0  0  0  0  0  0  0  0  0  0  0
   19.3476   34.7327   18.4995 C   0  0  0  0  0  0  0  0  0  0  0  0
   19.1385   34.1856   17.3043 N   0  0  0  0  0  0  0  0  0  0  0  0
   18.5867   34.7348   19.4646 O   0  0  0  0  0  0  0  0  0  0  0  0
   19.8912   34.1641   16.6700 H   0  0  0  0  0  0  0  0  0  0  0  0
   20.6330   35.3754   18.5248 O   0  0  0  0  0  0  0  0  0  0  0  0
   22.4364   36.5602   17.6211 C   0  0  0  0  0  0  0  0  0  0  0  0
   20.2349   37.5163   17.5824 C   0  0  0  0  0  0  0  0  0  0  0  0
   20.9750   36.2043   17.4229 C   0  0  0  0  0  0  0  0  0  0  0  0
   21.2251   38.4365   18.2844 C   0  0  0  0  0  0  0  0  0  0  0  0
   22.4027   37.6606   18.5275 O   0  0  0  0  0  0  0  0  0  0  0  0
   17.1331   34.6957   16.0842 C   0  0  0  0  0  0  0  0  0  0  0  0
   16.1410   35.4219   16.9676 C   0  0  0  0  0  0  0  0  0  0  0  0
   16.4152   36.7034   17.4519 C   0  0  0  0  0  0  0  0  0  0  0  0
   14.9444   34.8100   17.3124 C   0  0  0  0  0  0  0  0  0  0  0  0
   15.5055   37.3491   18.2883 C   0  0  0  0  0  0  0  0  0  0  0  0
   14.0365   35.4548   18.1452 C   0  0  0  0  0  0  0  0  0  0  0  0
   14.3093   36.7343   18.6262 C   0  0  0  0  0  0  0  0  0  0  0  0
   19.2995   32.5683   15.0764 C   0  0  0  0  0  0  0  0  0  0  0  0
   19.8246   31.2393   14.7062 N   0  0  0  0  0  0  0  0  0  0  0  0
   19.8798   31.9595   12.3197 O   0  0  0  0  0  0  0  0  0  0  0  0
   18.1739   30.5344   13.0152 O   0  0  0  0  0  0  0  0  0  0  0  0
   19.5845   30.8346   13.1554 S   0  0  0  0  0  0  0  0  0  0  0  0
   20.4595   29.5676   12.6702 C   0  0  0  0  0  0  0  0  0  0  0  0
   19.9505   28.2731   12.8126 C   0  0  0  0  0  0  0  0  0  0  0  0
   20.6423   27.1472   12.3852 C   0  0  0  0  0  0  0  0  0  0  0  0
   21.9050   27.2958   11.8188 C   0  0  0  0  0  0  0  0  0  0  0  0
   22.4433   28.5696   11.6900 C   0  0  0  0  0  0  0  0  0  0  0  0
   21.7213   29.6908   12.1118 C   0  0  0  0  0  0  0  0  0  0  0  0
   22.5861   26.1985   11.4148 N   0  0  0  0  0  0  0  0  0  0  0  0
   22.1848   25.3051   11.5158 H   0  0  0  0  0  0  0  0  0  0  0  0
   23.4829   26.2935   11.0199 H   0  0  0  0  0  0  0  0  0  0  0  0
   21.1998   31.0242   15.1964 C   0  0  0  0  0  0  0  0  0  0  0  0
   21.9602   32.3448   15.3562 C   0  0  0  0  0  0  0  0  0  0  0  0
   22.5736   32.5901   16.7327 C   0  0  0  0  0  0  0  0  0  0  0  0
   23.1047   32.3956   14.3475 C   0  0  0  0  0  0  0  0  0  0  0  0
 10 12  1  0  0  0
 10 14  1  0  0  0
 11 12  1  0  0  0
 11 13  1  0  0  0
  5  6  1  0  0  0
  5  9  1  0  0  0
  5  7  2  0  0  0
 12  9  1  0  0  0
  4  1  1  0  0  0
  4 15  1  0  0  0
  4  6  1  0  0  0
  1 22  1  0  0  0
  1  2  1  0  0  0
 15 16  1  0  0  0
 16 17  2  0  0  0
 16 18  1  0  0  0
 17 19  1  0  0  0
 18 20  2  0  0  0
 19 21  2  0  0  0
 20 21  1  0  0  0
 22 23  1  0  0  0
 36 37  1  0  0  0
 36 23  1  0  0  0
 37 38  1  0  0  0
 37 39  1  0  0  0
 27 28  2  0  0  0
 27 32  1  0  0  0
 27 26  1  0  0  0
 28 29  1  0  0  0
 29 30  2  0  0  0
 30 31  1  0  0  0
 30 33  1  0  0  0
 31 32  2  0  0  0
 13 14  1  0  0  0
 23 26  1  0  0  0
 24 26  2  0  0  0
 25 26  2  0  0  0
  6  8  1  0  0  0
 33 34  1  0  0  0
 33 35  1  0  0  0
  2  3  1  0  0  0
M  END
> <minimizedAffinity>
-9.22685

$$$$
3EKV_478_A_200


 39 41  0  0  0  0  0  0  0  0999 V2000
   18.4559   32.4534   16.0243 C   0  0  0  0  0  0  0  0  0  0  0  0
   18.7388   31.3688   16.9199 O   0  0  0  0  0  0  0  0  0  0  0  0
   19.4696   31.6169   17.5075 H   0  0  0  0  0  0  0  0  0  0  0  0
   18.0151   33.6816   16.8103 C   0  0  0  0  0  0  0  0  0  0  0  0
   19.3690   34.8480   18.4976 C   0  0  0  0  0  0  0  0  0  0  0  0
   19.2237   34.3258   17.2820 N   0  0  0  0  0  0  0  0  0  0  0  0
   18.5924   34.7623   19.4462 O   0  0  0  0  0  0  0  0  0  0  0  0
   19.9873   34.3809   16.6631 H   0  0  0  0  0  0  0  0  0  0  0  0
   20.6018   35.5835   18.5695 O   0  0  0  0  0  0  0  0  0  0  0  0
   22.4092   36.7478   17.6473 C   0  0  0  0  0  0  0  0  0  0  0  0
   20.2155   37.7219   17.6164 C   0  0  0  0  0  0  0  0  0  0  0  0
   20.9437   36.4029   17.4604 C   0  0  0  0  0  0  0  0  0  0  0  0
   21.2178   38.6380   18.3066 C   0  0  0  0  0  0  0  0  0  0  0  0
   22.3904   37.8539   18.5471 O   0  0  0  0  0  0  0  0  0  0  0  0
   17.2134   34.7214   16.0278 C   0  0  0  0  0  0  0  0  0  0  0  0
   16.1962   35.3976   16.9222 C   0  0  0  0  0  0  0  0  0  0  0  0
   16.4280   36.6772   17.4330 C   0  0  0  0  0  0  0  0  0  0  0  0
   15.0189   34.7409   17.2507 C   0  0  0  0  0  0  0  0  0  0  0  0
   15.4958   37.2765   18.2792 C   0  0  0  0  0  0  0  0  0  0  0  0
   14.0885   35.3395   18.0933 C   0  0  0  0  0  0  0  0  0  0  0  0
   14.3189   36.6172   18.6007 C   0  0  0  0  0  0  0  0  0  0  0  0
   19.6780   32.7373   15.1628 C   0  0  0  0  0  0  0  0  0  0  0  0
   20.2739   31.4326   14.8136 N   0  0  0  0  0  0  0  0  0  0  0  0
   21.5315   31.1792   12.6757 O   0  0  0  0  0  0  0  0  0  0  0  0
   19.3850   32.0803   12.6065 O   0  0  0  0  0  0  0  0  0  0  0  0
   20.2171   31.0738   13.2343 S   0  0  0  0  0  0  0  0  0  0  0  0
   19.6225   29.6059   12.9211 C   0  0  0  0  0  0  0  0  0  0  0  0
   20.4503   28.6202   12.3749 C   0  0  0  0  0  0  0  0  0  0  0  0
   20.0045   27.3310   12.1136 C   0  0  0  0  0  0  0  0  0  0  0  0
   18.6771   27.0019   12.3726 C   0  0  0  0  0  0  0  0  0  0  0  0
   17.8284   27.9712   12.8911 C   0  0  0  0  0  0  0  0  0  0  0  0
   18.3034   29.2584   13.1626 C   0  0  0  0  0  0  0  0  0  0  0  0
   18.2379   25.7501   12.1053 N   0  0  0  0  0  0  0  0  0  0  0  0
   18.8575   25.0790   11.7379 H   0  0  0  0  0  0  0  0  0  0  0  0
   17.2988   25.5106   12.2783 H   0  0  0  0  0  0  0  0  0  0  0  0
   21.5913   31.2311   15.4474 C   0  0  0  0  0  0  0  0  0  0  0  0
   22.2683   32.5626   15.7887 C   0  0  0  0  0  0  0  0  0  0  0  0
   22.5732   32.7873   17.2678 C   0  0  0  0  0  0  0  0  0  0  0  0
   23.5973   32.6607   15.0442 C   0  0  0  0  0  0  0  0  0  0  0  0
 10 12  1  0  0  0
 10 14  1  0  0  0
 11 12  1  0  0  0
 11 13  1  0  0  0
  5  6  1  0  0  0
  5  9  1  0  0  0
  5  7  2  0  0  0
 12  9  1  0  0  0
  4  1  1  0  0  0
  4 15  1  0  0  0
  4  6  1  0  0  0
  1 22  1  0  0  0
  1  2  1  0  0  0
 15 16  1  0  0  0
 16 17  2  0  0  0
 16 18  1  0  0  0
 17 19  1  0  0  0
 18 20  2  0  0  0
 19 21  2  0  0  0
 20 21  1  0  0  0
 22 23  1  0  0  0
 36 37  1  0  0  0
 36 23  1  0  0  0
 37 38  1  0  0  0
 37 39  1  0  0  0
 27 28  2  0  0  0
 27 32  1  0  0  0
 27 26  1  0  0  0
 28 29  1  0  0  0
 29 30  2  0  0  0
 30 31  1  0  0  0
 30 33  1  0  0  0
 31 32  2  0  0  0
 13 14  1  0  0  0
 23 26  1  0  0  0
 24 26  2  0  0  0
 25 26  2  0  0  0
  6  8  1  0  0  0
 33 34  1  0  0  0
 33 35  1  0  0  0
  2  3  1  0  0  0
M  END
> <minimizedAffinity>
-9.08493

$$$$
3EKV_478_A_200


 39 41  0  0  0  0  0  0  0  0999 V2000
   21.1920   31.2848   13.6502 C   0  0  0  0  0  0  0  0  0  0  0  0
   22.1013   32.3786   13.4621 O   0  0  0  0  0  0  0  0  0  0  0  0
   21.6653   33.0770   12.9493 H   0  0  0  0  0  0  0  0  0  0  0  0
   19.9754   31.7443   14.4436 C   0  0  0  0  0  0  0  0  0  0  0  0
   20.8777   32.5833   16.5701 C   0  0  0  0  0  0  0  0  0  0  0  0
   20.4336   32.7918   15.3328 N   0  0  0  0  0  0  0  0  0  0  0  0
   21.1015   31.5034   17.1125 O   0  0  0  0  0  0  0  0  0  0  0  0
   20.4154   33.7183   15.0004 H   0  0  0  0  0  0  0  0  0  0  0  0
   21.0561   33.8404   17.2437 O   0  0  0  0  0  0  0  0  0  0  0  0
   20.6850   36.1258   17.5778 C   0  0  0  0  0  0  0  0  0  0  0  0
   18.8965   34.5602   17.9134 C   0  0  0  0  0  0  0  0  0  0  0  0
   20.0832   34.8507   17.0179 C   0  0  0  0  0  0  0  0  0  0  0  0
   19.1397   35.3981   19.1621 C   0  0  0  0  0  0  0  0  0  0  0  0
   20.3940   36.0603   18.9723 O   0  0  0  0  0  0  0  0  0  0  0  0
   18.8183   32.3108   13.6210 C   0  0  0  0  0  0  0  0  0  0  0  0
   17.6638   32.7016   14.5189 C   0  0  0  0  0  0  0  0  0  0  0  0
   16.9867   31.7420   15.2757 C   0  0  0  0  0  0  0  0  0  0  0  0
   17.2610   34.0274   14.5905 C   0  0  0  0  0  0  0  0  0  0  0  0
   15.9064   32.1111   16.0762 C   0  0  0  0  0  0  0  0  0  0  0  0
   16.1847   34.3956   15.3902 C   0  0  0  0  0  0  0  0  0  0  0  0
   15.5109   33.4384   16.1471 C   0  0  0  0  0  0  0  0  0  0  0  0
   20.8037   30.7043   12.2980 C   0  0  0  0  0  0  0  0  0  0  0  0
   20.6685   29.2452   12.4761 N   0  0  0  0  0  0  0  0  0  0  0  0
   21.4548   27.9955   14.4853 O   0  0  0  0  0  0  0  0  0  0  0  0
   22.8586   29.6025   13.5518 O   0  0  0  0  0  0  0  0  0  0  0  0
   21.9126   28.5483   13.2461 S   0  0  0  0  0  0  0  0  0  0  0  0
   22.6455   27.3941   12.3875 C   0  0  0  0  0  0  0  0  0  0  0  0
   21.8851   26.4010   11.7624 C   0  0  0  0  0  0  0  0  0  0  0  0
   22.4559   25.4015   10.9851 C   0  0  0  0  0  0  0  0  0  0  0  0
   23.8393   25.3567   10.8385 C   0  0  0  0  0  0  0  0  0  0  0  0
   24.6183   26.3170   11.4709 C   0  0  0  0  0  0  0  0  0  0  0  0
   24.0206   27.3247   12.2350 C   0  0  0  0  0  0  0  0  0  0  0  0
   24.3978   24.3751   10.0930 N   0  0  0  0  0  0  0  0  0  0  0  0
   23.8260   23.7048    9.6537 H   0  0  0  0  0  0  0  0  0  0  0  0
   25.3759   24.3312    9.9900 H   0  0  0  0  0  0  0  0  0  0  0  0
   19.3355   28.8640   12.9817 C   0  0  0  0  0  0  0  0  0  0  0  0
   18.4327   28.3337   11.8631 C   0  0  0  0  0  0  0  0  0  0  0  0
   18.1772   26.8285   11.8796 C   0  0  0  0  0  0  0  0  0  0  0  0
   17.0689   29.0140   11.9473 C   0  0  0  0  0  0  0  0  0  0  0  0
 10 12  1  0  0  0
 10 14  1  0  0  0
 11 12  1  0  0  0
 11 13  1  0  0  0
  5  6  1  0  0  0
  5  9  1  0  0  0
  5  7  2  0  0  0
 12  9  1  0  0  0
  4  1  1  0  0  0
  4 15  1  0  0  0
  4  6  1  0  0  0
  1 22  1  0  0  0
  1  2  1  0  0  0
 15 16  1  0  0  0
 16 17  2  0  0  0
 16 18  1  0  0  0
 17 19  1  0  0  0
 18 20  2  0  0  0
 19 21  2  0  0  0
 20 21  1  0  0  0
 22 23  1  0  0  0
 36 37  1  0  0  0
 36 23  1  0  0  0
 37 38  1  0  0  0
 37 39  1  0  0  0
 27 28  2  0  0  0
 27 32  1  0  0  0
 27 26  1  0  0  0
 28 29  1  0  0  0
 29 30  2  0  0  0
 30 31  1  0  0  0
 30 33  1  0  0  0
 31 32  2  0  0  0
 13 14  1  0  0  0
 23 26  1  0  0  0
 24 26  2  0  0  0
 25 26  2  0  0  0
  6  8  1  0  0  0
 33 34  1  0  0  0
 33 35  1  0  0  0
  2  3  1  0  0  0
M  END
> <minimizedAffinity>
-9.01595

$$$$
3EKV_478_A_200


 39 41  0  0  0  0  0  0  0  0999 V2000
   18.6579   28.2561   14.2352 C   0  0  0  0  0  0  0  0  0  0  0  0
   17.6280   27.4521   14.8281 O   0  0  0  0  0  0  0  0  0  0  0  0
   16.8149   27.5312   14.3052 H   0  0  0  0  0  0  0  0  0  0  0  0
   18.9673   27.7593   12.8288 C   0  0  0  0  0  0  0  0  0  0  0  0
   21.3290   27.8773   12.1589 C   0  0  0  0  0  0  0  0  0  0  0  0
   20.3424   27.3045   12.8446 N   0  0  0  0  0  0  0  0  0  0  0  0
   21.2871   28.9297   11.5257 O   0  0  0  0  0  0  0  0  0  0  0  0
   20.5616   26.5207   13.3986 H   0  0  0  0  0  0  0  0  0  0  0  0
   22.5119   27.0642   12.2328 O   0  0  0  0  0  0  0  0  0  0  0  0
   23.5438   25.3256   11.0559 C   0  0  0  0  0  0  0  0  0  0  0  0
   24.5483   27.5053   11.0976 C   0  0  0  0  0  0  0  0  0  0  0  0
   23.2076   26.8045   11.0216 C   0  0  0  0  0  0  0  0  0  0  0  0
   25.5123   26.4423   11.6085 C   0  0  0  0  0  0  0  0  0  0  0  0
   24.7362   25.2617   11.8355 O   0  0  0  0  0  0  0  0  0  0  0  0
   18.1045   26.6022   12.3257 C   0  0  0  0  0  0  0  0  0  0  0  0
   18.3253   26.3736   10.8456 C   0  0  0  0  0  0  0  0  0  0  0  0
   17.8456   27.2830    9.8996 C   0  0  0  0  0  0  0  0  0  0  0  0
   19.0052   25.2437   10.4139 C   0  0  0  0  0  0  0  0  0  0  0  0
   18.0305   27.0454    8.5382 C   0  0  0  0  0  0  0  0  0  0  0  0
   19.1910   25.0078    9.0562 C   0  0  0  0  0  0  0  0  0  0  0  0
   18.7144   25.9165    8.1128 C   0  0  0  0  0  0  0  0  0  0  0  0
   18.2332   29.7176   14.2420 C   0  0  0  0  0  0  0  0  0  0  0  0
   19.0447   30.3993   15.2695 N   0  0  0  0  0  0  0  0  0  0  0  0
   20.2780   31.4562   13.3777 O   0  0  0  0  0  0  0  0  0  0  0  0
   21.3916   29.8977   14.7026 O   0  0  0  0  0  0  0  0  0  0  0  0
   20.4484   30.9975   14.7236 S   0  0  0  0  0  0  0  0  0  0  0  0
   21.0379   32.2004   15.6246 C   0  0  0  0  0  0  0  0  0  0  0  0
   21.8878   31.9158   16.6978 C   0  0  0  0  0  0  0  0  0  0  0  0
   22.4509   32.9091   17.4886 C   0  0  0  0  0  0  0  0  0  0  0  0
   22.1424   34.2421   17.2330 C   0  0  0  0  0  0  0  0  0  0  0  0
   21.2801   34.5489   16.1885 C   0  0  0  0  0  0  0  0  0  0  0  0
   20.7381   33.5331   15.3943 C   0  0  0  0  0  0  0  0  0  0  0  0
   22.6793   35.2101   18.0115 N   0  0  0  0  0  0  0  0  0  0  0  0
   23.2883   34.9694   18.7465 H   0  0  0  0  0  0  0  0  0  0  0  0
   22.4608   36.1551   17.8427 H   0  0  0  0  0  0  0  0  0  0  0  0
   18.2462   31.3375   16.0821 C   0  0  0  0  0  0  0  0  0  0  0  0
   17.0601   31.9048   15.2953 C   0  0  0  0  0  0  0  0  0  0  0  0
   15.7461   32.0077   16.0661 C   0  0  0  0  0  0  0  0  0  0  0  0
   17.3996   33.3122   14.8117 C   0  0  0  0  0  0  0  0  0  0  0  0
 10 12  1  0  0  0
 10 14  1  0  0  0
 11 12  1  0  0  0
 11 13  1  0  0  0
  5  6  1  0  0  0
  5  9  1  0  0  0
  5  7  2  0  0  0
 12  9  1  0  0  0
  4  1  1  0  0  0
  4 15  1  0  0  0
  4  6  1  0  0  0
  1 22  1  0  0  0
  1  2  1  0  0  0
 15 16  1  0  0  0
 16 17  2  0  0  0
 16 18  1  0  0  0
 17 19  1  0  0  0
 18 20  2  0  0  0
 19 21  2  0  0  0
 20 21  1  0  0  0
 22 23  1  0  0  0
 36 37  1  0  0  0
 36 23  1  0  0  0
 37 38  1  0  0  0
 37 39  1  0  0  0
 27 28  2  0  0  0
 27 32  1  0  0  0
 27 26  1  0  0  0
 28 29  1  0  0  0
 29 30  2  0  0  0
 30 31  1  0  0  0
 30 33  1  0  0  0
 31 32  2  0  0  0
 13 14  1  0  0  0
 23 26  1  0  0  0
 24 26  2  0  0  0
 25 26  2  0  0  0
  6  8  1  0  0  0
 33 34  1  0  0  0
 33 35  1  0  0  0
  2  3  1  0  0  0
M  END
> <minimizedAffinity>
-8.94392

$$$$
3EKV_478_A_200


 39 41  0  0  0  0  0  0  0  0999 V2000
   20.9664   30.8248   13.6295 C   0  0  0  0  0  0  0  0  0  0  0  0
   21.8465   31.7246   12.9408 O   0  0  0  0  0  0  0  0  0  0  0  0
   21.3346   32.2646   12.3186 H   0  0  0  0  0  0  0  0  0  0  0  0
   19.9421   31.6096   14.4391 C   0  0  0  0  0  0  0  0  0  0  0  0
   21.1443   32.5304   16.3748 C   0  0  0  0  0  0  0  0  0  0  0  0
   20.6735   32.6479   15.1354 N   0  0  0  0  0  0  0  0  0  0  0  0
   21.1662   31.5200   17.0739 O   0  0  0  0  0  0  0  0  0  0  0  0
   20.8329   33.4957   14.6610 H   0  0  0  0  0  0  0  0  0  0  0  0
   21.6337   33.8013   16.8343 O   0  0  0  0  0  0  0  0  0  0  0  0
   21.5596   36.1053   17.2329 C   0  0  0  0  0  0  0  0  0  0  0  0
   19.5527   34.7975   17.3889 C   0  0  0  0  0  0  0  0  0  0  0  0
   20.8282   34.9448   16.5851 C   0  0  0  0  0  0  0  0  0  0  0  0
   19.8210   35.5552   18.6828 C   0  0  0  0  0  0  0  0  0  0  0  0
   21.1650   36.0398   18.6017 O   0  0  0  0  0  0  0  0  0  0  0  0
   18.8334   32.2869   13.6339 C   0  0  0  0  0  0  0  0  0  0  0  0
   17.7005   32.7188   14.5404 C   0  0  0  0  0  0  0  0  0  0  0  0
   17.0103   31.7871   15.3201 C   0  0  0  0  0  0  0  0  0  0  0  0
   17.3307   34.0549   14.5973 C   0  0  0  0  0  0  0  0  0  0  0  0
   15.9498   32.1942   16.1286 C   0  0  0  0  0  0  0  0  0  0  0  0
   16.2741   34.4609   15.4050 C   0  0  0  0  0  0  0  0  0  0  0  0
   15.5874   33.5316   16.1846 C   0  0  0  0  0  0  0  0  0  0  0  0
   20.3046   29.8898   12.6274 C   0  0  0  0  0  0  0  0  0  0  0  0
   19.8489   28.7034   13.3781 N   0  0  0  0  0  0  0  0  0  0  0  0
   17.5329   29.4297   12.8073 O   0  0  0  0  0  0  0  0  0  0  0  0
   17.8112   27.6404   14.2721 O   0  0  0  0  0  0  0  0  0  0  0  0
   18.3208   28.2623   13.0666 S   0  0  0  0  0  0  0  0  0  0  0  0
   18.1786   27.2386   11.8264 C   0  0  0  0  0  0  0  0  0  0  0  0
   18.0974   27.7322   10.5207 C   0  0  0  0  0  0  0  0  0  0  0  0
   18.0060   26.9006    9.4121 C   0  0  0  0  0  0  0  0  0  0  0  0
   17.9624   25.5214    9.5948 C   0  0  0  0  0  0  0  0  0  0  0  0
   18.0155   25.0076   10.8840 C   0  0  0  0  0  0  0  0  0  0  0  0
   18.1247   25.8635   11.9849 C   0  0  0  0  0  0  0  0  0  0  0  0
   17.8592   24.7105    8.5165 N   0  0  0  0  0  0  0  0  0  0  0  0
   17.8231   25.0968    7.6117 H   0  0  0  0  0  0  0  0  0  0  0  0
   17.8202   23.7341    8.6367 H   0  0  0  0  0  0  0  0  0  0  0  0
   20.8315   27.6031   13.3368 C   0  0  0  0  0  0  0  0  0  0  0  0
   21.7453   27.7018   12.1108 C   0  0  0  0  0  0  0  0  0  0  0  0
   23.2129   28.0029   12.4048 C   0  0  0  0  0  0  0  0  0  0  0  0
   21.7102   26.3817   11.3452 C   0  0  0  0  0  0  0  0  0  0  0  0
 10 12  1  0  0  0
 10 14  1  0  0  0
 11 12  1  0  0  0
 11 13  1  0  0  0
  5  6  1  0  0  0
  5  9  1  0  0  0
  5  7  2  0  0  0
 12  9  1  0  0  0
  4  1  1  0  0  0
  4 15  1  0  0  0
  4  6  1  0  0  0
  1 22  1  0  0  0
  1  2  1  0  0  0
 15 16  1  0  0  0
 16 17  2  0  0  0
 16 18  1  0  0  0
 17 19  1  0  0  0
 18 20  2  0  0  0
 19 21  2  0  0  0
 20 21  1  0  0  0
 22 23  1  0  0  0
 36 37  1  0  0  0
 36 23  1  0  0  0
 37 38  1  0  0  0
 37 39  1  0  0  0
 27 28  2  0  0  0
 27 32  1  0  0  0
 27 26  1  0  0  0
 28 29  1  0  0  0
 29 30  2  0  0  0
 30 31  1  0  0  0
 30 33  1  0  0  0
 31 32  2  0  0  0
 13 14  1  0  0  0
 23 26  1  0  0  0
 24 26  2  0  0  0
 25 26  2  0  0  0
  6  8  1  0  0  0
 33 34  1  0  0  0
 33 35  1  0  0  0
  2  3  1  0  0  0
M  END
> <minimizedAffinity>
-8.94300

$$$$
3EKV_478_A_200


 39 41  0  0  0  0  0  0  0  0999 V2000
   19.0158   29.4352   13.9952 C   0  0  0  0  0  0  0  0  0  0  0  0
   18.2163   28.8217   15.0165 O   0  0  0  0  0  0  0  0  0  0  0  0
   17.3199   28.6704   14.6781 H   0  0  0  0  0  0  0  0  0  0  0  0
   19.1307   28.5087   12.7914 C   0  0  0  0  0  0  0  0  0  0  0  0
   21.5625   28.4912   12.4361 C   0  0  0  0  0  0  0  0  0  0  0  0
   20.4452   27.9044   12.8592 N   0  0  0  0  0  0  0  0  0  0  0  0
   21.7001   29.6517   12.0559 O   0  0  0  0  0  0  0  0  0  0  0  0
   20.5171   27.0007   13.2433 H   0  0  0  0  0  0  0  0  0  0  0  0
   22.6478   27.5491   12.4577 O   0  0  0  0  0  0  0  0  0  0  0  0
   23.2766   25.5651   11.3895 C   0  0  0  0  0  0  0  0  0  0  0  0
   24.5338   27.5760   11.0181 C   0  0  0  0  0  0  0  0  0  0  0  0
   23.1213   27.0634   11.2094 C   0  0  0  0  0  0  0  0  0  0  0  0
   25.4259   26.4528   11.5308 C   0  0  0  0  0  0  0  0  0  0  0  0
   24.5539   25.4233   12.0077 O   0  0  0  0  0  0  0  0  0  0  0  0
   18.1057   27.3771   12.7210 C   0  0  0  0  0  0  0  0  0  0  0  0
   18.0191   26.8195   11.3162 C   0  0  0  0  0  0  0  0  0  0  0  0
   17.7186   27.6485   10.2324 C   0  0  0  0  0  0  0  0  0  0  0  0
   18.2315   25.4663   11.0946 C   0  0  0  0  0  0  0  0  0  0  0  0
   17.6132   27.1167    8.9478 C   0  0  0  0  0  0  0  0  0  0  0  0
   18.1281   24.9365    9.8131 C   0  0  0  0  0  0  0  0  0  0  0  0
   17.8307   25.7642    8.7317 C   0  0  0  0  0  0  0  0  0  0  0  0
   18.4194   30.7843   13.6204 C   0  0  0  0  0  0  0  0  0  0  0  0
   18.8789   31.7566   14.6316 N   0  0  0  0  0  0  0  0  0  0  0  0
   18.4282   31.2319   17.0271 O   0  0  0  0  0  0  0  0  0  0  0  0
   16.6369   31.2759   15.5392 O   0  0  0  0  0  0  0  0  0  0  0  0
   17.8822   31.9239   15.8985 S   0  0  0  0  0  0  0  0  0  0  0  0
   17.5969   33.4603   16.3040 C   0  0  0  0  0  0  0  0  0  0  0  0
   16.8000   34.2622   15.4811 C   0  0  0  0  0  0  0  0  0  0  0  0
   16.4935   35.5803   15.7932 C   0  0  0  0  0  0  0  0  0  0  0  0
   17.0173   36.1474   16.9514 C   0  0  0  0  0  0  0  0  0  0  0  0
   17.8327   35.3790   17.7721 C   0  0  0  0  0  0  0  0  0  0  0  0
   18.1142   34.0480   17.4468 C   0  0  0  0  0  0  0  0  0  0  0  0
   16.7308   37.4359   17.2495 N   0  0  0  0  0  0  0  0  0  0  0  0
   16.1503   37.9618   16.6531 H   0  0  0  0  0  0  0  0  0  0  0  0
   17.1030   37.8475   18.0628 H   0  0  0  0  0  0  0  0  0  0  0  0
   20.3002   31.5702   14.9824 C   0  0  0  0  0  0  0  0  0  0  0  0
   21.1369   32.8085   14.6443 C   0  0  0  0  0  0  0  0  0  0  0  0
   21.2946   33.8258   15.7718 C   0  0  0  0  0  0  0  0  0  0  0  0
   22.5438   32.3745   14.2413 C   0  0  0  0  0  0  0  0  0  0  0  0
 10 12  1  0  0  0
 10 14  1  0  0  0
 11 12  1  0  0  0
 11 13  1  0  0  0
  5  6  1  0  0  0
  5  9  1  0  0  0
  5  7  2  0  0  0
 12  9  1  0  0  0
  4  1  1  0  0  0
  4 15  1  0  0  0
  4  6  1  0  0  0
  1 22  1  0  0  0
  1  2  1  0  0  0
 15 16  1  0  0  0
 16 17  2  0  0  0
 16 18  1  0  0  0
 17 19  1  0  0  0
 18 20  2  0  0  0
 19 21  2  0  0  0
 20 21  1  0  0  0
 22 23  1  0  0  0
 36 37  1  0  0  0
 36 23  1  0  0  0
 37 38  1  0  0  0
 37 39  1  0  0  0
 27 28  2  0  0  0
 27 32  1  0  0  0
 27 26  1  0  0  0
 28 29  1  0  0  0
 29 30  2  0  0  0
 30 31  1  0  0  0
 30 33  1  0  0  0
 31 32  2  0  0  0
 13 14  1  0  0  0
 23 26  1  0  0  0
 24 26  2  0  0  0
 25 26  2  0  0  0
  6  8  1  0  0  0
 33 34  1  0  0  0
 33 35  1  0  0  0
  2  3  1  0  0  0
M  END
> <minimizedAffinity>
-8.77166

$$$$
3EKV_478_A_200


 39 41  0  0  0  0  0  0  0  0999 V2000
   18.7421   31.1391   14.3003 C   0  0  0  0  0  0  0  0  0  0  0  0
   17.3506   31.4798   14.2205 O   0  0  0  0  0  0  0  0  0  0  0  0
   16.9377   31.3586   15.0898 H   0  0  0  0  0  0  0  0  0  0  0  0
   19.4537   32.0648   15.2787 C   0  0  0  0  0  0  0  0  0  0  0  0
   18.5610   33.8633   16.6960 C   0  0  0  0  0  0  0  0  0  0  0  0
   18.4220   32.6925   16.0784 N   0  0  0  0  0  0  0  0  0  0  0  0
   19.4943   34.6564   16.5943 O   0  0  0  0  0  0  0  0  0  0  0  0
   17.5619   32.2225   16.1712 H   0  0  0  0  0  0  0  0  0  0  0  0
   17.4371   34.0961   17.5611 O   0  0  0  0  0  0  0  0  0  0  0  0
   16.3827   35.7779   18.7990 C   0  0  0  0  0  0  0  0  0  0  0  0
   15.3830   34.9801   16.7676 C   0  0  0  0  0  0  0  0  0  0  0  0
   16.7211   35.3119   17.3955 C   0  0  0  0  0  0  0  0  0  0  0  0
   14.4257   34.8463   17.9448 C   0  0  0  0  0  0  0  0  0  0  0  0
   15.2032   35.0475   19.1292 O   0  0  0  0  0  0  0  0  0  0  0  0
   20.4360   31.3928   16.2379 C   0  0  0  0  0  0  0  0  0  0  0  0
   21.7736   32.1014   16.2179 C   0  0  0  0  0  0  0  0  0  0  0  0
   22.6064   32.0309   15.0982 C   0  0  0  0  0  0  0  0  0  0  0  0
   22.1894   32.8259   17.3258 C   0  0  0  0  0  0  0  0  0  0  0  0
   23.8486   32.6641   15.1043 C   0  0  0  0  0  0  0  0  0  0  0  0
   23.4276   33.4588   17.3310 C   0  0  0  0  0  0  0  0  0  0  0  0
   24.2571   33.3904   16.2128 C   0  0  0  0  0  0  0  0  0  0  0  0
   18.8885   29.6757   14.6921 C   0  0  0  0  0  0  0  0  0  0  0  0
   19.2951   28.9413   13.4778 N   0  0  0  0  0  0  0  0  0  0  0  0
   17.1101   29.1100   12.2887 O   0  0  0  0  0  0  0  0  0  0  0  0
   17.4604   27.3126   13.7277 O   0  0  0  0  0  0  0  0  0  0  0  0
   18.0858   28.1607   12.7331 S   0  0  0  0  0  0  0  0  0  0  0  0
   18.5645   27.2637   11.4791 C   0  0  0  0  0  0  0  0  0  0  0  0
   17.9671   27.4399   10.2272 C   0  0  0  0  0  0  0  0  0  0  0  0
   18.3580   26.7210    9.1051 C   0  0  0  0  0  0  0  0  0  0  0  0
   19.3615   25.7636    9.2230 C   0  0  0  0  0  0  0  0  0  0  0  0
   19.9526   25.5518   10.4618 C   0  0  0  0  0  0  0  0  0  0  0  0
   19.5548   26.2997   11.5748 C   0  0  0  0  0  0  0  0  0  0  0  0
   19.7336   25.0525    8.1335 N   0  0  0  0  0  0  0  0  0  0  0  0
   19.3008   25.2195    7.2652 H   0  0  0  0  0  0  0  0  0  0  0  0
   20.4373   24.3681    8.2092 H   0  0  0  0  0  0  0  0  0  0  0  0
   20.1460   29.7562   12.5892 C   0  0  0  0  0  0  0  0  0  0  0  0
   21.6337   29.4450   12.7832 C   0  0  0  0  0  0  0  0  0  0  0  0
   21.9641   28.4926   13.9299 C   0  0  0  0  0  0  0  0  0  0  0  0
   22.1892   28.8124   11.5099 C   0  0  0  0  0  0  0  0  0  0  0  0
 10 12  1  0  0  0
 10 14  1  0  0  0
 11 12  1  0  0  0
 11 13  1  0  0  0
  5  6  1  0  0  0
  5  9  1  0  0  0
  5  7  2  0  0  0
 12  9  1  0  0  0
  4  1  1  0  0  0
  4 15  1  0  0  0
  4  6  1  0  0  0
  1 22  1  0  0  0
  1  2  1  0  0  0
 15 16  1  0  0  0
 16 17  2  0  0  0
 16 18  1  0  0  0
 17 19  1  0  0  0
 18 20  2  0  0  0
 19 21  2  0  0  0
 20 21  1  0  0  0
 22 23  1  0  0  0
 36 37  1  0  0  0
 36 23  1  0  0  0
 37 38  1  0  0  0
 37 39  1  0  0  0
 27 28  2  0  0  0
 27 32  1  0  0  0
 27 26  1  0  0  0
 28 29  1  0  0  0
 29 30  2  0  0  0
 30 31  1  0  0  0
 30 33  1  0  0  0
 31 32  2  0  0  0
 13 14  1  0  0  0
 23 26  1  0  0  0
 24 26  2  0  0  0
 25 26  2  0  0  0
  6  8  1  0  0  0
 33 34  1  0  0  0
 33 35  1  0  0  0
  2  3  1  0  0  0
M  END
> <minimizedAffinity>
-8.72358

$$$$
3EKV_478_A_200


 39 41  0  0  0  0  0  0  0  0999 V2000
   20.4070   28.7395   13.9674 C   0  0  0  0  0  0  0  0  0  0  0  0
   19.7331   27.8040   14.8212 O   0  0  0  0  0  0  0  0  0  0  0  0
   19.2127   27.1894   14.2804 H   0  0  0  0  0  0  0  0  0  0  0  0
   21.3747   28.0070   13.0467 C   0  0  0  0  0  0  0  0  0  0  0  0
   20.6458   26.3475   11.3869 C   0  0  0  0  0  0  0  0  0  0  0  0
   20.6053   27.5759   11.8977 N   0  0  0  0  0  0  0  0  0  0  0  0
   21.2093   25.3608   11.8552 O   0  0  0  0  0  0  0  0  0  0  0  0
   20.0140   28.2344   11.4665 H   0  0  0  0  0  0  0  0  0  0  0  0
   19.9293   26.3122   10.1414 O   0  0  0  0  0  0  0  0  0  0  0  0
   17.8807   25.2923   10.6266 C   0  0  0  0  0  0  0  0  0  0  0  0
   18.0642   26.7786    8.7506 C   0  0  0  0  0  0  0  0  0  0  0  0
   18.5355   26.5848   10.1771 C   0  0  0  0  0  0  0  0  0  0  0  0
   17.5503   25.4098    8.3234 C   0  0  0  0  0  0  0  0  0  0  0  0
   17.7707   24.5273    9.4281 O   0  0  0  0  0  0  0  0  0  0  0  0
   22.5547   28.8294   12.5296 C   0  0  0  0  0  0  0  0  0  0  0  0
   23.5705   27.9383   11.8471 C   0  0  0  0  0  0  0  0  0  0  0  0
   23.6307   27.8551   10.4537 C   0  0  0  0  0  0  0  0  0  0  0  0
   24.4519   27.1844   12.6086 C   0  0  0  0  0  0  0  0  0  0  0  0
   24.5518   27.0082    9.8386 C   0  0  0  0  0  0  0  0  0  0  0  0
   25.3716   26.3412   11.9949 C   0  0  0  0  0  0  0  0  0  0  0  0
   25.4330   26.2602   10.6047 C   0  0  0  0  0  0  0  0  0  0  0  0
   19.3820   29.5499   13.1871 C   0  0  0  0  0  0  0  0  0  0  0  0
   19.0152   30.7073   14.0268 N   0  0  0  0  0  0  0  0  0  0  0  0
   18.7582   33.1304   13.4983 O   0  0  0  0  0  0  0  0  0  0  0  0
   20.3126   31.8847   12.2914 O   0  0  0  0  0  0  0  0  0  0  0  0
   19.7406   32.0941   13.6062 S   0  0  0  0  0  0  0  0  0  0  0  0
   20.8961   32.5616   14.6322 C   0  0  0  0  0  0  0  0  0  0  0  0
   22.1805   32.0184   14.5303 C   0  0  0  0  0  0  0  0  0  0  0  0
   23.2230   32.4043   15.3630 C   0  0  0  0  0  0  0  0  0  0  0  0
   22.9871   33.3451   16.3613 C   0  0  0  0  0  0  0  0  0  0  0  0
   21.7129   33.8804   16.4992 C   0  0  0  0  0  0  0  0  0  0  0  0
   20.6823   33.4897   15.6381 C   0  0  0  0  0  0  0  0  0  0  0  0
   23.9983   33.7116   17.1823 N   0  0  0  0  0  0  0  0  0  0  0  0
   24.8937   33.3191   17.0661 H   0  0  0  0  0  0  0  0  0  0  0  0
   23.8388   34.3708   17.8959 H   0  0  0  0  0  0  0  0  0  0  0  0
   17.5576   30.8091   14.2342 C   0  0  0  0  0  0  0  0  0  0  0  0
   17.1984   30.8860   15.7217 C   0  0  0  0  0  0  0  0  0  0  0  0
   18.3825   30.9392   16.6841 C   0  0  0  0  0  0  0  0  0  0  0  0
   16.3651   32.1391   15.9774 C   0  0  0  0  0  0  0  0  0  0  0  0
 10 12  1  0  0  0
 10 14  1  0  0  0
 11 12  1  0  0  0
 11 13  1  0  0  0
  5  6  1  0  0  0
  5  9  1  0  0  0
  5  7  2  0  0  0
 12  9  1  0  0  0
  4  1  1  0  0  0
  4 15  1  0  0  0
  4  6  1  0  0  0
  1 22  1  0  0  0
  1  2  1  0  0  0
 15 16  1  0  0  0
 16 17  2  0  0  0
 16 18  1  0  0  0
 17 19  1  0  0  0
 18 20  2  0  0  0
 19 21  2  0  0  0
 20 21  1  0  0  0
 22 23  1  0  0  0
 36 37  1  0  0  0
 36 23  1  0  0  0
 37 38  1  0  0  0
 37 39  1  0  0  0
 27 28  2  0  0  0
 27 32  1  0  0  0
 27 26  1  0  0  0
 28 29  1  0  0  0
 29 30  2  0  0  0
 30 31  1  0  0  0
 30 33  1  0  0  0
 31 32  2  0  0  0
 13 14  1  0  0  0
 23 26  1  0  0  0
 24 26  2  0  0  0
 25 26  2  0  0  0
  6  8  1  0  0  0
 33 34  1  0  0  0
 33 35  1  0  0  0
  2  3  1  0  0  0
M  END
> <minimizedAffinity>
-8.70496

$$$$
