5HVS_65V_A_203


 35 39  0  0  0  0  0  0  0  0999 V2000
   -9.3673   -4.7221   -2.9170 C   0  0  0  0  0  0  0  0  0  0  0  0
   -8.0054   -4.6996   -3.1851 C   0  0  0  0  0  0  0  0  0  0  0  0
   -7.1383   -4.2377   -2.2075 C   0  0  0  0  0  0  0  0  0  0  0  0
   -7.6730   -3.8329   -0.9814 C   0  0  0  0  0  0  0  0  0  0  0  0
   -9.0662   -3.8977   -0.7686 C   0  0  0  0  0  0  0  0  0  0  0  0
   -9.8965   -4.3367   -1.7473 N   0  0  0  0  0  0  0  0  0  0  0  0
   -6.8573   -3.3620    0.0498 C   0  0  0  0  0  0  0  0  0  0  0  0
   -7.4184   -2.9546    1.2586 C   0  0  0  0  0  0  0  0  0  0  0  0
   -8.7986   -3.0089    1.4499 C   0  0  0  0  0  0  0  0  0  0  0  0
   -9.6204   -3.4845    0.4414 C   0  0  0  0  0  0  0  0  0  0  0  0
  -11.4693   -6.2637   -5.3811 N   0  0  0  0  0  0  0  0  0  0  0  0
  -10.5332   -6.4241   -4.4595 C   0  0  0  0  0  0  0  0  0  0  0  0
  -10.3139   -5.1796   -3.9391 C   0  0  0  0  0  0  0  0  0  0  0  0
  -11.1308   -4.3329   -4.6117 N   0  0  0  0  0  0  0  0  0  0  0  0
  -11.9348   -4.9818   -5.5320 N   0  0  0  0  0  0  0  0  0  0  0  0
  -12.0490   -7.2921   -6.1552 C   0  0  0  0  0  0  0  0  0  0  0  0
  -13.3923   -7.2801   -6.4714 C   0  0  0  0  0  0  0  0  0  0  0  0
  -13.9183   -8.3011   -7.2220 C   0  0  0  0  0  0  0  0  0  0  0  0
  -13.1818   -9.3537   -7.6993 C   0  0  0  0  0  0  0  0  0  0  0  0
  -11.8359   -9.3625   -7.3877 C   0  0  0  0  0  0  0  0  0  0  0  0
  -11.2728   -8.3470   -6.6170 C   0  0  0  0  0  0  0  0  0  0  0  0
  -13.7599  -10.3640   -8.4328 O   0  0  0  0  0  0  0  0  0  0  0  0
  -15.2222   -8.2884   -7.4933 F   0  0  0  0  0  0  0  0  0  0  0  0
  -13.2351  -11.0733   -8.7483 H   0  0  0  0  0  0  0  0  0  0  0  0
   -5.5145   -3.3232   -0.2350 O   0  0  0  0  0  0  0  0  0  0  0  0
   -4.9291   -2.1208   -0.5720 C   0  0  0  0  0  0  0  0  0  0  0  0
   -5.6583   -0.9427   -0.7705 C   0  0  0  0  0  0  0  0  0  0  0  0
   -5.0043    0.2384   -1.1206 C   0  0  0  0  0  0  0  0  0  0  0  0
   -3.6176    0.2404   -1.2657 C   0  0  0  0  0  0  0  0  0  0  0  0
   -2.8919   -0.9411   -1.0558 C   0  0  0  0  0  0  0  0  0  0  0  0
   -3.5522   -2.1143   -0.7156 C   0  0  0  0  0  0  0  0  0  0  0  0
   -1.4028   -0.9958   -1.2167 C   0  0  0  0  0  0  0  0  0  0  0  0
   -0.6972   -1.1558   -0.1945 O   0  0  0  0  0  0  0  0  0  0  0  0
   -0.9057   -0.8581   -2.3589 O   0  0  0  0  0  0  0  0  0  0  0  0
   -1.1031   -1.2555    0.6441 H   0  0  0  0  0  0  0  0  0  0  0  0
 22 19  1  0  0  0
 19 20  2  0  0  0
 19 18  1  0  0  0
 20 21  1  0  0  0
 23 18  1  0  0  0
 18 17  2  0  0  0
 21 16  2  0  0  0
 17 16  1  0  0  0
 16 11  1  0  0  0
 15 11  1  0  0  0
 15 14  2  0  0  0
 11 12  1  0  0  0
 14 13  1  0  0  0
 12 13  2  0  0  0
 13  1  1  0  0  0
  1  6  2  0  0  0
  1  2  1  0  0  0
  6  5  1  0  0  0
  2  3  2  0  0  0
  5 10  2  0  0  0
  5  4  1  0  0  0
 10  9  1  0  0  0
  3  4  1  0  0  0
  4  7  2  0  0  0
  9  8  2  0  0  0
  7  8  1  0  0  0
  7 25  1  0  0  0
 27 26  2  0  0  0
 27 28  1  0  0  0
 25 26  1  0  0  0
 26 31  1  0  0  0
 28 29  2  0  0  0
 31 30  2  0  0  0
 29 30  1  0  0  0
 30 32  1  0  0  0
 32 34  2  0  0  0
 32 33  1  0  0  0
 22 24  1  0  0  0
 33 35  1  0  0  0
M  END
> <minimizedAffinity>
-10.95761

$$$$
5HVS_65V_A_203


 35 39  0  0  0  0  0  0  0  0999 V2000
   -9.1424   -4.2824   -3.5165 C   0  0  0  0  0  0  0  0  0  0  0  0
   -8.2864   -5.0959   -2.7868 C   0  0  0  0  0  0  0  0  0  0  0  0
   -7.2860   -4.5065   -2.0299 C   0  0  0  0  0  0  0  0  0  0  0  0
   -7.1955   -3.1119   -2.0173 C   0  0  0  0  0  0  0  0  0  0  0  0
   -8.1094   -2.3433   -2.7687 C   0  0  0  0  0  0  0  0  0  0  0  0
   -9.0689   -2.9439   -3.5162 N   0  0  0  0  0  0  0  0  0  0  0  0
   -6.2158   -2.4516   -1.2726 C   0  0  0  0  0  0  0  0  0  0  0  0
   -6.1418   -1.0601   -1.2869 C   0  0  0  0  0  0  0  0  0  0  0  0
   -7.0415   -0.3133   -2.0467 C   0  0  0  0  0  0  0  0  0  0  0  0
   -8.0265   -0.9523   -2.7814 C   0  0  0  0  0  0  0  0  0  0  0  0
  -11.4414   -6.1197   -5.5672 N   0  0  0  0  0  0  0  0  0  0  0  0
  -10.3319   -6.1404   -4.8462 C   0  0  0  0  0  0  0  0  0  0  0  0
  -10.1943   -4.8751   -4.3486 C   0  0  0  0  0  0  0  0  0  0  0  0
  -11.2369   -4.1570   -4.8321 N   0  0  0  0  0  0  0  0  0  0  0  0
  -12.1036   -4.9182   -5.5961 N   0  0  0  0  0  0  0  0  0  0  0  0
  -12.0084   -7.2238   -6.2397 C   0  0  0  0  0  0  0  0  0  0  0  0
  -13.3522   -7.2593   -6.5520 C   0  0  0  0  0  0  0  0  0  0  0  0
  -13.8656   -8.3531   -7.2019 C   0  0  0  0  0  0  0  0  0  0  0  0
  -13.1159   -9.4362   -7.5802 C   0  0  0  0  0  0  0  0  0  0  0  0
  -11.7695   -9.3980   -7.2728 C   0  0  0  0  0  0  0  0  0  0  0  0
  -11.2189   -8.3072   -6.6024 C   0  0  0  0  0  0  0  0  0  0  0  0
  -13.6816  -10.5185   -8.2139 O   0  0  0  0  0  0  0  0  0  0  0  0
  -15.1700   -8.3832   -7.4696 F   0  0  0  0  0  0  0  0  0  0  0  0
  -13.1478  -11.2473   -8.4628 H   0  0  0  0  0  0  0  0  0  0  0  0
   -5.3609   -3.2674   -0.5730 O   0  0  0  0  0  0  0  0  0  0  0  0
   -5.6959   -3.6603    0.7058 C   0  0  0  0  0  0  0  0  0  0  0  0
   -6.4178   -2.8516    1.5913 C   0  0  0  0  0  0  0  0  0  0  0  0
   -6.7146   -3.3063    2.8760 C   0  0  0  0  0  0  0  0  0  0  0  0
   -6.2928   -4.5751    3.2717 C   0  0  0  0  0  0  0  0  0  0  0  0
   -5.5783   -5.3841    2.3763 C   0  0  0  0  0  0  0  0  0  0  0  0
   -5.2803   -4.9199    1.1020 C   0  0  0  0  0  0  0  0  0  0  0  0
   -5.0873   -6.7475    2.7588 C   0  0  0  0  0  0  0  0  0  0  0  0
   -3.9712   -7.1219    2.3316 O   0  0  0  0  0  0  0  0  0  0  0  0
   -5.8116   -7.4804    3.4722 O   0  0  0  0  0  0  0  0  0  0  0  0
   -3.4562   -6.5471    1.8002 H   0  0  0  0  0  0  0  0  0  0  0  0
 22 19  1  0  0  0
 19 20  2  0  0  0
 19 18  1  0  0  0
 20 21  1  0  0  0
 23 18  1  0  0  0
 18 17  2  0  0  0
 21 16  2  0  0  0
 17 16  1  0  0  0
 16 11  1  0  0  0
 15 11  1  0  0  0
 15 14  2  0  0  0
 11 12  1  0  0  0
 14 13  1  0  0  0
 12 13  2  0  0  0
 13  1  1  0  0  0
  1  6  2  0  0  0
  1  2  1  0  0  0
  6  5  1  0  0  0
  2  3  2  0  0  0
  5 10  2  0  0  0
  5  4  1  0  0  0
 10  9  1  0  0  0
  3  4  1  0  0  0
  4  7  2  0  0  0
  9  8  2  0  0  0
  7  8  1  0  0  0
  7 25  1  0  0  0
 27 26  2  0  0  0
 27 28  1  0  0  0
 25 26  1  0  0  0
 26 31  1  0  0  0
 28 29  2  0  0  0
 31 30  2  0  0  0
 29 30  1  0  0  0
 30 32  1  0  0  0
 32 34  2  0  0  0
 32 33  1  0  0  0
 22 24  1  0  0  0
 33 35  1  0  0  0
M  END
> <minimizedAffinity>
-10.81572

$$$$
5HVS_65V_A_203


 35 39  0  0  0  0  0  0  0  0999 V2000
   -9.4713   -4.7120   -2.8843 C   0  0  0  0  0  0  0  0  0  0  0  0
   -8.1294   -5.0664   -2.9139 C   0  0  0  0  0  0  0  0  0  0  0  0
   -7.2904   -4.5948   -1.9165 C   0  0  0  0  0  0  0  0  0  0  0  0
   -7.8383   -3.7971   -0.9083 C   0  0  0  0  0  0  0  0  0  0  0  0
   -9.2149   -3.4887   -0.9287 C   0  0  0  0  0  0  0  0  0  0  0  0
  -10.0125   -3.9474   -1.9255 N   0  0  0  0  0  0  0  0  0  0  0  0
   -7.0525   -3.2925    0.1301 C   0  0  0  0  0  0  0  0  0  0  0  0
   -7.6230   -2.4905    1.1166 C   0  0  0  0  0  0  0  0  0  0  0  0
   -8.9819   -2.1803    1.0754 C   0  0  0  0  0  0  0  0  0  0  0  0
   -9.7775   -2.6825    0.0589 C   0  0  0  0  0  0  0  0  0  0  0  0
  -11.4931   -6.2632   -5.4086 N   0  0  0  0  0  0  0  0  0  0  0  0
  -10.6049   -6.4230   -4.4408 C   0  0  0  0  0  0  0  0  0  0  0  0
  -10.3802   -5.1719   -3.9390 C   0  0  0  0  0  0  0  0  0  0  0  0
  -11.1446   -4.3229   -4.6681 N   0  0  0  0  0  0  0  0  0  0  0  0
  -11.9204   -4.9749   -5.6102 N   0  0  0  0  0  0  0  0  0  0  0  0
  -12.0608   -7.2961   -6.1856 C   0  0  0  0  0  0  0  0  0  0  0  0
  -13.4033   -7.2967   -6.5054 C   0  0  0  0  0  0  0  0  0  0  0  0
  -13.9174   -8.3217   -7.2587 C   0  0  0  0  0  0  0  0  0  0  0  0
  -13.1695   -9.3666   -7.7354 C   0  0  0  0  0  0  0  0  0  0  0  0
  -11.8244   -9.3628   -7.4202 C   0  0  0  0  0  0  0  0  0  0  0  0
  -11.2732   -8.3429   -6.6466 C   0  0  0  0  0  0  0  0  0  0  0  0
  -13.7358  -10.3815   -8.4718 O   0  0  0  0  0  0  0  0  0  0  0  0
  -15.2206   -8.3213   -7.5335 F   0  0  0  0  0  0  0  0  0  0  0  0
  -13.2034  -11.0853   -8.7867 H   0  0  0  0  0  0  0  0  0  0  0  0
   -5.7227   -3.6311    0.0777 O   0  0  0  0  0  0  0  0  0  0  0  0
   -5.2123   -4.5133    1.0068 C   0  0  0  0  0  0  0  0  0  0  0  0
   -5.8483   -5.7100    1.3571 C   0  0  0  0  0  0  0  0  0  0  0  0
   -5.2827   -6.5531    2.3133 C   0  0  0  0  0  0  0  0  0  0  0  0
   -4.0753   -6.1998    2.9146 C   0  0  0  0  0  0  0  0  0  0  0  0
   -3.4383   -5.0042    2.5520 C   0  0  0  0  0  0  0  0  0  0  0  0
   -4.0129   -4.1669    1.6051 C   0  0  0  0  0  0  0  0  0  0  0  0
   -2.1490   -4.5707    3.1814 C   0  0  0  0  0  0  0  0  0  0  0  0
   -1.2016   -5.3884    3.2260 O   0  0  0  0  0  0  0  0  0  0  0  0
   -2.0613   -3.4171    3.6633 O   0  0  0  0  0  0  0  0  0  0  0  0
   -1.3025   -6.2430    2.8553 H   0  0  0  0  0  0  0  0  0  0  0  0
 22 19  1  0  0  0
 19 20  2  0  0  0
 19 18  1  0  0  0
 20 21  1  0  0  0
 23 18  1  0  0  0
 18 17  2  0  0  0
 21 16  2  0  0  0
 17 16  1  0  0  0
 16 11  1  0  0  0
 15 11  1  0  0  0
 15 14  2  0  0  0
 11 12  1  0  0  0
 14 13  1  0  0  0
 12 13  2  0  0  0
 13  1  1  0  0  0
  1  6  2  0  0  0
  1  2  1  0  0  0
  6  5  1  0  0  0
  2  3  2  0  0  0
  5 10  2  0  0  0
  5  4  1  0  0  0
 10  9  1  0  0  0
  3  4  1  0  0  0
  4  7  2  0  0  0
  9  8  2  0  0  0
  7  8  1  0  0  0
  7 25  1  0  0  0
 27 26  2  0  0  0
 27 28  1  0  0  0
 25 26  1  0  0  0
 26 31  1  0  0  0
 28 29  2  0  0  0
 31 30  2  0  0  0
 29 30  1  0  0  0
 30 32  1  0  0  0
 32 34  2  0  0  0
 32 33  1  0  0  0
 22 24  1  0  0  0
 33 35  1  0  0  0
M  END
> <minimizedAffinity>
-10.65467

$$$$
5HVS_65V_A_203


 35 39  0  0  0  0  0  0  0  0999 V2000
   -9.9842   -4.4277   -2.8461 C   0  0  0  0  0  0  0  0  0  0  0  0
  -10.5989   -4.2138   -1.6200 C   0  0  0  0  0  0  0  0  0  0  0  0
   -9.8411   -3.7247   -0.5675 C   0  0  0  0  0  0  0  0  0  0  0  0
   -8.4902   -3.4470   -0.7932 C   0  0  0  0  0  0  0  0  0  0  0  0
   -7.9321   -3.6713   -2.0694 C   0  0  0  0  0  0  0  0  0  0  0  0
   -8.6900   -4.1676   -3.0791 N   0  0  0  0  0  0  0  0  0  0  0  0
   -7.6694   -2.9473    0.2202 C   0  0  0  0  0  0  0  0  0  0  0  0
   -6.3229   -2.6894   -0.0298 C   0  0  0  0  0  0  0  0  0  0  0  0
   -5.7805   -2.9308   -1.2915 C   0  0  0  0  0  0  0  0  0  0  0  0
   -6.5837   -3.4150   -2.3107 C   0  0  0  0  0  0  0  0  0  0  0  0
  -11.6845   -6.1762   -5.4763 N   0  0  0  0  0  0  0  0  0  0  0  0
  -10.9489   -6.2590   -4.3795 C   0  0  0  0  0  0  0  0  0  0  0  0
  -10.7510   -4.9695   -3.9723 C   0  0  0  0  0  0  0  0  0  0  0  0
  -11.3723   -4.1802   -4.8821 N   0  0  0  0  0  0  0  0  0  0  0  0
  -12.0306   -4.9049   -5.8598 N   0  0  0  0  0  0  0  0  0  0  0  0
  -12.1744   -7.2682   -6.2249 C   0  0  0  0  0  0  0  0  0  0  0  0
  -13.5097   -7.3653   -6.5601 C   0  0  0  0  0  0  0  0  0  0  0  0
  -13.9470   -8.4452   -7.2847 C   0  0  0  0  0  0  0  0  0  0  0  0
  -13.1276   -9.4549   -7.7174 C   0  0  0  0  0  0  0  0  0  0  0  0
  -11.7900   -9.3546   -7.3868 C   0  0  0  0  0  0  0  0  0  0  0  0
  -11.3155   -8.2768   -6.6415 C   0  0  0  0  0  0  0  0  0  0  0  0
  -13.6180  -10.5276   -8.4259 O   0  0  0  0  0  0  0  0  0  0  0  0
  -15.2438   -8.5373   -7.5745 F   0  0  0  0  0  0  0  0  0  0  0  0
  -13.0375  -11.2056   -8.7110 H   0  0  0  0  0  0  0  0  0  0  0  0
   -8.2832   -2.7611    1.4345 O   0  0  0  0  0  0  0  0  0  0  0  0
   -7.9290   -3.5604    2.5010 C   0  0  0  0  0  0  0  0  0  0  0  0
   -7.0282   -3.1583    3.4939 C   0  0  0  0  0  0  0  0  0  0  0  0
   -6.7049   -4.0209    4.5411 C   0  0  0  0  0  0  0  0  0  0  0  0
   -7.2896   -5.2854    4.5967 C   0  0  0  0  0  0  0  0  0  0  0  0
   -8.1988   -5.6785    3.6040 C   0  0  0  0  0  0  0  0  0  0  0  0
   -8.5085   -4.8162    2.5607 C   0  0  0  0  0  0  0  0  0  0  0  0
   -8.8406   -7.0329    3.6086 C   0  0  0  0  0  0  0  0  0  0  0  0
  -10.0153   -7.1357    4.0304 O   0  0  0  0  0  0  0  0  0  0  0  0
   -8.1815   -8.0233    3.2142 O   0  0  0  0  0  0  0  0  0  0  0  0
  -10.4783   -6.3734    4.3175 H   0  0  0  0  0  0  0  0  0  0  0  0
 22 19  1  0  0  0
 19 20  2  0  0  0
 19 18  1  0  0  0
 20 21  1  0  0  0
 23 18  1  0  0  0
 18 17  2  0  0  0
 21 16  2  0  0  0
 17 16  1  0  0  0
 16 11  1  0  0  0
 15 11  1  0  0  0
 15 14  2  0  0  0
 11 12  1  0  0  0
 14 13  1  0  0  0
 12 13  2  0  0  0
 13  1  1  0  0  0
  1  6  2  0  0  0
  1  2  1  0  0  0
  6  5  1  0  0  0
  2  3  2  0  0  0
  5 10  2  0  0  0
  5  4  1  0  0  0
 10  9  1  0  0  0
  3  4  1  0  0  0
  4  7  2  0  0  0
  9  8  2  0  0  0
  7  8  1  0  0  0
  7 25  1  0  0  0
 27 26  2  0  0  0
 27 28  1  0  0  0
 25 26  1  0  0  0
 26 31  1  0  0  0
 28 29  2  0  0  0
 31 30  2  0  0  0
 29 30  1  0  0  0
 30 32  1  0  0  0
 32 34  2  0  0  0
 32 33  1  0  0  0
 22 24  1  0  0  0
 33 35  1  0  0  0
M  END
> <minimizedAffinity>
-10.57816

$$$$
5HVS_65V_A_203


 35 39  0  0  0  0  0  0  0  0999 V2000
   -9.3628   -4.7387   -2.7511 C   0  0  0  0  0  0  0  0  0  0  0  0
   -7.9937   -4.9053   -2.9093 C   0  0  0  0  0  0  0  0  0  0  0  0
   -7.1455   -4.4655   -1.9052 C   0  0  0  0  0  0  0  0  0  0  0  0
   -7.7089   -3.8902   -0.7629 C   0  0  0  0  0  0  0  0  0  0  0  0
   -9.1105   -3.7667   -0.6588 C   0  0  0  0  0  0  0  0  0  0  0  0
   -9.9193   -4.1884   -1.6629 N   0  0  0  0  0  0  0  0  0  0  0  0
   -6.9143   -3.4306    0.2895 C   0  0  0  0  0  0  0  0  0  0  0  0
   -7.5023   -2.8512    1.4123 C   0  0  0  0  0  0  0  0  0  0  0  0
   -8.8881   -2.7208    1.4952 C   0  0  0  0  0  0  0  0  0  0  0  0
   -9.6911   -3.1823    0.4653 C   0  0  0  0  0  0  0  0  0  0  0  0
  -11.4238   -6.2195   -5.2860 N   0  0  0  0  0  0  0  0  0  0  0  0
  -10.5291   -6.4074   -4.3293 C   0  0  0  0  0  0  0  0  0  0  0  0
  -10.2859   -5.1685   -3.8062 C   0  0  0  0  0  0  0  0  0  0  0  0
  -11.0470   -4.2976   -4.5124 N   0  0  0  0  0  0  0  0  0  0  0  0
  -11.8383   -4.9230   -5.4596 N   0  0  0  0  0  0  0  0  0  0  0  0
  -12.0098   -7.2314   -6.0771 C   0  0  0  0  0  0  0  0  0  0  0  0
  -13.3437   -7.1838   -6.4280 C   0  0  0  0  0  0  0  0  0  0  0  0
  -13.8764   -8.1896   -7.1941 C   0  0  0  0  0  0  0  0  0  0  0  0
  -13.1555   -9.2604   -7.6545 C   0  0  0  0  0  0  0  0  0  0  0  0
  -11.8188   -9.3048   -7.3080 C   0  0  0  0  0  0  0  0  0  0  0  0
  -11.2496   -8.3055   -6.5208 C   0  0  0  0  0  0  0  0  0  0  0  0
  -13.7405  -10.2543   -8.4049 O   0  0  0  0  0  0  0  0  0  0  0  0
  -15.1721   -8.1425   -7.4991 F   0  0  0  0  0  0  0  0  0  0  0  0
  -13.2263  -10.9765   -8.7082 H   0  0  0  0  0  0  0  0  0  0  0  0
   -5.5608   -3.5802    0.1119 O   0  0  0  0  0  0  0  0  0  0  0  0
   -4.8103   -2.5015   -0.3065 C   0  0  0  0  0  0  0  0  0  0  0  0
   -3.4160   -2.5375   -0.4234 C   0  0  0  0  0  0  0  0  0  0  0  0
   -2.7161   -1.4064   -0.8428 C   0  0  0  0  0  0  0  0  0  0  0  0
   -3.4147   -0.2398   -1.1512 C   0  0  0  0  0  0  0  0  0  0  0  0
   -4.8125   -0.2133   -1.0412 C   0  0  0  0  0  0  0  0  0  0  0  0
   -5.5003   -1.3417   -0.6150 C   0  0  0  0  0  0  0  0  0  0  0  0
   -5.6080    1.0205   -1.3434 C   0  0  0  0  0  0  0  0  0  0  0  0
   -6.0415    1.1813   -2.5073 O   0  0  0  0  0  0  0  0  0  0  0  0
   -5.7976    1.8635   -0.4356 O   0  0  0  0  0  0  0  0  0  0  0  0
   -5.8809    0.5297   -3.1612 H   0  0  0  0  0  0  0  0  0  0  0  0
 22 19  1  0  0  0
 19 20  2  0  0  0
 19 18  1  0  0  0
 20 21  1  0  0  0
 23 18  1  0  0  0
 18 17  2  0  0  0
 21 16  2  0  0  0
 17 16  1  0  0  0
 16 11  1  0  0  0
 15 11  1  0  0  0
 15 14  2  0  0  0
 11 12  1  0  0  0
 14 13  1  0  0  0
 12 13  2  0  0  0
 13  1  1  0  0  0
  1  6  2  0  0  0
  1  2  1  0  0  0
  6  5  1  0  0  0
  2  3  2  0  0  0
  5 10  2  0  0  0
  5  4  1  0  0  0
 10  9  1  0  0  0
  3  4  1  0  0  0
  4  7  2  0  0  0
  9  8  2  0  0  0
  7  8  1  0  0  0
  7 25  1  0  0  0
 27 26  2  0  0  0
 27 28  1  0  0  0
 25 26  1  0  0  0
 26 31  1  0  0  0
 28 29  2  0  0  0
 31 30  2  0  0  0
 29 30  1  0  0  0
 30 32  1  0  0  0
 32 34  2  0  0  0
 32 33  1  0  0  0
 22 24  1  0  0  0
 33 35  1  0  0  0
M  END
> <minimizedAffinity>
-10.55956

$$$$
5HVS_65V_A_203


 35 39  0  0  0  0  0  0  0  0999 V2000
   -9.0707   -4.2921   -3.4985 C   0  0  0  0  0  0  0  0  0  0  0  0
   -8.1642   -5.1137   -2.8425 C   0  0  0  0  0  0  0  0  0  0  0  0
   -7.1521   -4.5316   -2.0956 C   0  0  0  0  0  0  0  0  0  0  0  0
   -7.1006   -3.1372   -2.0176 C   0  0  0  0  0  0  0  0  0  0  0  0
   -8.0643   -2.3611   -2.6954 C   0  0  0  0  0  0  0  0  0  0  0  0
   -9.0350   -2.9536   -3.4350 N   0  0  0  0  0  0  0  0  0  0  0  0
   -6.1115   -2.4844   -1.2787 C   0  0  0  0  0  0  0  0  0  0  0  0
   -6.0774   -1.0922   -1.2270 C   0  0  0  0  0  0  0  0  0  0  0  0
   -7.0267   -0.3371   -1.9148 C   0  0  0  0  0  0  0  0  0  0  0  0
   -8.0213   -0.9692   -2.6425 C   0  0  0  0  0  0  0  0  0  0  0  0
  -11.4039   -6.1048   -5.5323 N   0  0  0  0  0  0  0  0  0  0  0  0
  -10.2798   -6.1328   -4.8347 C   0  0  0  0  0  0  0  0  0  0  0  0
  -10.1371   -4.8754   -4.3187 C   0  0  0  0  0  0  0  0  0  0  0  0
  -11.1924   -4.1538   -4.7684 N   0  0  0  0  0  0  0  0  0  0  0  0
  -12.0715   -4.9060   -5.5273 N   0  0  0  0  0  0  0  0  0  0  0  0
  -11.9802   -7.2000   -6.2115 C   0  0  0  0  0  0  0  0  0  0  0  0
  -13.3226   -7.2186   -6.5313 C   0  0  0  0  0  0  0  0  0  0  0  0
  -13.8453   -8.3041   -7.1876 C   0  0  0  0  0  0  0  0  0  0  0  0
  -13.1063   -9.3947   -7.5654 C   0  0  0  0  0  0  0  0  0  0  0  0
  -11.7613   -9.3734   -7.2505 C   0  0  0  0  0  0  0  0  0  0  0  0
  -11.2015   -8.2914   -6.5735 C   0  0  0  0  0  0  0  0  0  0  0  0
  -13.6812  -10.4682   -8.2058 O   0  0  0  0  0  0  0  0  0  0  0  0
  -15.1485   -8.3179   -7.4625 F   0  0  0  0  0  0  0  0  0  0  0  0
  -13.1547  -11.2024   -8.4542 H   0  0  0  0  0  0  0  0  0  0  0  0
   -5.2073   -3.3069   -0.6528 O   0  0  0  0  0  0  0  0  0  0  0  0
   -4.3441   -2.7756    0.2824 C   0  0  0  0  0  0  0  0  0  0  0  0
   -4.7374   -2.4354    1.5819 C   0  0  0  0  0  0  0  0  0  0  0  0
   -3.8153   -1.8916    2.4758 C   0  0  0  0  0  0  0  0  0  0  0  0
   -2.4963   -1.6941    2.0692 C   0  0  0  0  0  0  0  0  0  0  0  0
   -2.1065   -2.0462    0.7688 C   0  0  0  0  0  0  0  0  0  0  0  0
   -3.0333   -2.5794   -0.1170 C   0  0  0  0  0  0  0  0  0  0  0  0
   -0.7060   -1.8375    0.2774 C   0  0  0  0  0  0  0  0  0  0  0  0
   -0.4192   -2.2080   -0.8839 O   0  0  0  0  0  0  0  0  0  0  0  0
    0.1407   -1.3220    1.0443 O   0  0  0  0  0  0  0  0  0  0  0  0
   -1.0780   -2.5897   -1.4300 H   0  0  0  0  0  0  0  0  0  0  0  0
 22 19  1  0  0  0
 19 20  2  0  0  0
 19 18  1  0  0  0
 20 21  1  0  0  0
 23 18  1  0  0  0
 18 17  2  0  0  0
 21 16  2  0  0  0
 17 16  1  0  0  0
 16 11  1  0  0  0
 15 11  1  0  0  0
 15 14  2  0  0  0
 11 12  1  0  0  0
 14 13  1  0  0  0
 12 13  2  0  0  0
 13  1  1  0  0  0
  1  6  2  0  0  0
  1  2  1  0  0  0
  6  5  1  0  0  0
  2  3  2  0  0  0
  5 10  2  0  0  0
  5  4  1  0  0  0
 10  9  1  0  0  0
  3  4  1  0  0  0
  4  7  2  0  0  0
  9  8  2  0  0  0
  7  8  1  0  0  0
  7 25  1  0  0  0
 27 26  2  0  0  0
 27 28  1  0  0  0
 25 26  1  0  0  0
 26 31  1  0  0  0
 28 29  2  0  0  0
 31 30  2  0  0  0
 29 30  1  0  0  0
 30 32  1  0  0  0
 32 34  2  0  0  0
 32 33  1  0  0  0
 22 24  1  0  0  0
 33 35  1  0  0  0
M  END
> <minimizedAffinity>
-10.45631

$$$$
5HVS_65V_A_203


 35 39  0  0  0  0  0  0  0  0999 V2000
   -9.5043   -4.8559   -2.9087 C   0  0  0  0  0  0  0  0  0  0  0  0
   -8.1380   -5.0594   -3.0462 C   0  0  0  0  0  0  0  0  0  0  0  0
   -7.2926   -4.6338   -2.0337 C   0  0  0  0  0  0  0  0  0  0  0  0
   -7.8566   -4.0348   -0.9040 C   0  0  0  0  0  0  0  0  0  0  0  0
   -9.2558   -3.8740   -0.8206 C   0  0  0  0  0  0  0  0  0  0  0  0
  -10.0613   -4.2826   -1.8327 N   0  0  0  0  0  0  0  0  0  0  0  0
   -7.0650   -3.5876    0.1560 C   0  0  0  0  0  0  0  0  0  0  0  0
   -7.6532   -2.9840    1.2659 C   0  0  0  0  0  0  0  0  0  0  0  0
   -9.0362   -2.8169    1.3282 C   0  0  0  0  0  0  0  0  0  0  0  0
   -9.8365   -3.2656    0.2906 C   0  0  0  0  0  0  0  0  0  0  0  0
  -11.5666   -6.3026   -5.4622 N   0  0  0  0  0  0  0  0  0  0  0  0
  -10.6889   -6.5059   -4.4930 C   0  0  0  0  0  0  0  0  0  0  0  0
  -10.4236   -5.2700   -3.9734 C   0  0  0  0  0  0  0  0  0  0  0  0
  -11.1550   -4.3856   -4.6941 N   0  0  0  0  0  0  0  0  0  0  0  0
  -11.9484   -4.9978   -5.6481 N   0  0  0  0  0  0  0  0  0  0  0  0
  -12.1658   -7.3049   -6.2555 C   0  0  0  0  0  0  0  0  0  0  0  0
  -11.4167   -8.3227   -6.8101 C   0  0  0  0  0  0  0  0  0  0  0  0
  -12.0363   -9.2750   -7.5792 C   0  0  0  0  0  0  0  0  0  0  0  0
  -13.3828   -9.2914   -7.8337 C   0  0  0  0  0  0  0  0  0  0  0  0
  -14.1336   -8.2758   -7.2735 C   0  0  0  0  0  0  0  0  0  0  0  0
  -13.5332   -7.2861   -6.4974 C   0  0  0  0  0  0  0  0  0  0  0  0
  -13.9547  -10.2586   -8.6277 O   0  0  0  0  0  0  0  0  0  0  0  0
  -11.2936  -10.2335   -8.1303 F   0  0  0  0  0  0  0  0  0  0  0  0
  -14.8780  -10.2485   -8.7869 H   0  0  0  0  0  0  0  0  0  0  0  0
   -5.7135   -3.7738   -0.0013 O   0  0  0  0  0  0  0  0  0  0  0  0
   -4.9453   -4.1111    1.0933 C   0  0  0  0  0  0  0  0  0  0  0  0
   -4.0231   -3.2372    1.6805 C   0  0  0  0  0  0  0  0  0  0  0  0
   -3.2695   -3.6457    2.7807 C   0  0  0  0  0  0  0  0  0  0  0  0
   -3.4447   -4.9290    3.2969 C   0  0  0  0  0  0  0  0  0  0  0  0
   -4.3774   -5.7963    2.7098 C   0  0  0  0  0  0  0  0  0  0  0  0
   -5.1174   -5.3839    1.6097 C   0  0  0  0  0  0  0  0  0  0  0  0
   -4.5904   -7.1910    3.2155 C   0  0  0  0  0  0  0  0  0  0  0  0
   -5.7127   -7.4922    3.6823 O   0  0  0  0  0  0  0  0  0  0  0  0
   -3.6394   -8.0066    3.1789 O   0  0  0  0  0  0  0  0  0  0  0  0
   -6.4012   -6.8567    3.6937 H   0  0  0  0  0  0  0  0  0  0  0  0
 22 19  1  0  0  0
 19 20  2  0  0  0
 19 18  1  0  0  0
 20 21  1  0  0  0
 23 18  1  0  0  0
 18 17  2  0  0  0
 21 16  2  0  0  0
 17 16  1  0  0  0
 16 11  1  0  0  0
 15 11  1  0  0  0
 15 14  2  0  0  0
 11 12  1  0  0  0
 14 13  1  0  0  0
 12 13  2  0  0  0
 13  1  1  0  0  0
  1  6  2  0  0  0
  1  2  1  0  0  0
  6  5  1  0  0  0
  2  3  2  0  0  0
  5 10  2  0  0  0
  5  4  1  0  0  0
 10  9  1  0  0  0
  3  4  1  0  0  0
  4  7  2  0  0  0
  9  8  2  0  0  0
  7  8  1  0  0  0
  7 25  1  0  0  0
 27 26  2  0  0  0
 27 28  1  0  0  0
 25 26  1  0  0  0
 26 31  1  0  0  0
 28 29  2  0  0  0
 31 30  2  0  0  0
 29 30  1  0  0  0
 30 32  1  0  0  0
 32 34  2  0  0  0
 32 33  1  0  0  0
 22 24  1  0  0  0
 33 35  1  0  0  0
M  END
> <minimizedAffinity>
-10.31180

$$$$
5HVS_65V_A_203


 35 39  0  0  0  0  0  0  0  0999 V2000
   -8.9377   -4.2704   -3.2863 C   0  0  0  0  0  0  0  0  0  0  0  0
   -8.1213   -5.1182   -2.5503 C   0  0  0  0  0  0  0  0  0  0  0  0
   -7.0957   -4.5713   -1.7955 C   0  0  0  0  0  0  0  0  0  0  0  0
   -6.9405   -3.1824   -1.7913 C   0  0  0  0  0  0  0  0  0  0  0  0
   -7.8166   -2.3768   -2.5489 C   0  0  0  0  0  0  0  0  0  0  0  0
   -8.8020   -2.9369   -3.2942 N   0  0  0  0  0  0  0  0  0  0  0  0
   -5.9321   -2.5637   -1.0491 C   0  0  0  0  0  0  0  0  0  0  0  0
   -5.7935   -1.1772   -1.0718 C   0  0  0  0  0  0  0  0  0  0  0  0
   -6.6564   -0.3942   -1.8377 C   0  0  0  0  0  0  0  0  0  0  0  0
   -7.6691   -0.9913   -2.5700 C   0  0  0  0  0  0  0  0  0  0  0  0
  -11.2997   -5.9978   -5.3608 N   0  0  0  0  0  0  0  0  0  0  0  0
  -10.1692   -6.0563   -4.6755 C   0  0  0  0  0  0  0  0  0  0  0  0
  -10.0149   -4.8188   -4.1164 C   0  0  0  0  0  0  0  0  0  0  0  0
  -11.0705   -4.0764   -4.5300 N   0  0  0  0  0  0  0  0  0  0  0  0
  -11.9608   -4.7966   -5.3066 N   0  0  0  0  0  0  0  0  0  0  0  0
  -11.8882   -7.0652   -6.0730 C   0  0  0  0  0  0  0  0  0  0  0  0
  -13.2128   -7.0251   -6.4583 C   0  0  0  0  0  0  0  0  0  0  0  0
  -13.7485   -8.0852   -7.1450 C   0  0  0  0  0  0  0  0  0  0  0  0
  -13.0392   -9.2055   -7.4915 C   0  0  0  0  0  0  0  0  0  0  0  0
  -11.7117   -9.2430   -7.1108 C   0  0  0  0  0  0  0  0  0  0  0  0
  -11.1401   -8.1881   -6.4017 C   0  0  0  0  0  0  0  0  0  0  0  0
  -13.6273  -10.2515   -8.1647 O   0  0  0  0  0  0  0  0  0  0  0  0
  -15.0360   -8.0421   -7.4837 F   0  0  0  0  0  0  0  0  0  0  0  0
  -13.1212  -11.0069   -8.3906 H   0  0  0  0  0  0  0  0  0  0  0  0
   -5.1169   -3.4140   -0.3432 O   0  0  0  0  0  0  0  0  0  0  0  0
   -5.3855   -3.6593    0.9871 C   0  0  0  0  0  0  0  0  0  0  0  0
   -4.5018   -4.3372    1.8348 C   0  0  0  0  0  0  0  0  0  0  0  0
   -4.8402   -4.5615    3.1691 C   0  0  0  0  0  0  0  0  0  0  0  0
   -6.0626   -4.1005    3.6561 C   0  0  0  0  0  0  0  0  0  0  0  0
   -6.9393   -3.4134    2.8040 C   0  0  0  0  0  0  0  0  0  0  0  0
   -6.5976   -3.2019    1.4749 C   0  0  0  0  0  0  0  0  0  0  0  0
   -8.2719   -2.9137    3.2738 C   0  0  0  0  0  0  0  0  0  0  0  0
   -9.1956   -2.7983    2.4360 O   0  0  0  0  0  0  0  0  0  0  0  0
   -8.4190   -2.6053    4.4796 O   0  0  0  0  0  0  0  0  0  0  0  0
   -9.0500   -3.0387    1.5422 H   0  0  0  0  0  0  0  0  0  0  0  0
 22 19  1  0  0  0
 19 20  2  0  0  0
 19 18  1  0  0  0
 20 21  1  0  0  0
 23 18  1  0  0  0
 18 17  2  0  0  0
 21 16  2  0  0  0
 17 16  1  0  0  0
 16 11  1  0  0  0
 15 11  1  0  0  0
 15 14  2  0  0  0
 11 12  1  0  0  0
 14 13  1  0  0  0
 12 13  2  0  0  0
 13  1  1  0  0  0
  1  6  2  0  0  0
  1  2  1  0  0  0
  6  5  1  0  0  0
  2  3  2  0  0  0
  5 10  2  0  0  0
  5  4  1  0  0  0
 10  9  1  0  0  0
  3  4  1  0  0  0
  4  7  2  0  0  0
  9  8  2  0  0  0
  7  8  1  0  0  0
  7 25  1  0  0  0
 27 26  2  0  0  0
 27 28  1  0  0  0
 25 26  1  0  0  0
 26 31  1  0  0  0
 28 29  2  0  0  0
 31 30  2  0  0  0
 29 30  1  0  0  0
 30 32  1  0  0  0
 32 34  2  0  0  0
 32 33  1  0  0  0
 22 24  1  0  0  0
 33 35  1  0  0  0
M  END
> <minimizedAffinity>
-10.00199

$$$$
5HVS_65V_A_203


 35 39  0  0  0  0  0  0  0  0999 V2000
   -9.4956   -4.6854   -2.4633 C   0  0  0  0  0  0  0  0  0  0  0  0
   -8.1947   -4.2629   -2.2262 C   0  0  0  0  0  0  0  0  0  0  0  0
   -7.9373   -3.4834   -1.1094 C   0  0  0  0  0  0  0  0  0  0  0  0
   -8.9992   -3.1731   -0.2556 C   0  0  0  0  0  0  0  0  0  0  0  0
  -10.2949   -3.6496   -0.5465 C   0  0  0  0  0  0  0  0  0  0  0  0
  -10.5253   -4.3961   -1.6554 N   0  0  0  0  0  0  0  0  0  0  0  0
   -8.8106   -2.3970    0.8901 C   0  0  0  0  0  0  0  0  0  0  0  0
   -9.8897   -2.0936    1.7182 C   0  0  0  0  0  0  0  0  0  0  0  0
  -11.1680   -2.5578    1.4102 C   0  0  0  0  0  0  0  0  0  0  0  0
  -11.3698   -3.3385    0.2841 C   0  0  0  0  0  0  0  0  0  0  0  0
  -10.6871   -6.7086   -5.1751 N   0  0  0  0  0  0  0  0  0  0  0  0
  -10.9785   -6.0607   -4.0587 C   0  0  0  0  0  0  0  0  0  0  0  0
   -9.8066   -5.4887   -3.6500 C   0  0  0  0  0  0  0  0  0  0  0  0
   -8.8646   -5.8574   -4.5518 N   0  0  0  0  0  0  0  0  0  0  0  0
   -9.3816   -6.6157   -5.5873 N   0  0  0  0  0  0  0  0  0  0  0  0
  -11.6046   -7.4173   -5.9806 C   0  0  0  0  0  0  0  0  0  0  0  0
  -11.2446   -8.5888   -6.6152 C   0  0  0  0  0  0  0  0  0  0  0  0
  -12.1644   -9.2451   -7.3935 C   0  0  0  0  0  0  0  0  0  0  0  0
  -13.4510   -8.8120   -7.5817 C   0  0  0  0  0  0  0  0  0  0  0  0
  -13.8129   -7.6424   -6.9417 C   0  0  0  0  0  0  0  0  0  0  0  0
  -12.8990   -6.9450   -6.1538 C   0  0  0  0  0  0  0  0  0  0  0  0
  -14.3312   -9.4963   -8.3878 O   0  0  0  0  0  0  0  0  0  0  0  0
  -11.7912  -10.3587   -8.0217 F   0  0  0  0  0  0  0  0  0  0  0  0
  -15.2060   -9.1800   -8.5008 H   0  0  0  0  0  0  0  0  0  0  0  0
   -7.5241   -1.9661    1.1021 O   0  0  0  0  0  0  0  0  0  0  0  0
   -6.5886   -2.8487    1.5998 C   0  0  0  0  0  0  0  0  0  0  0  0
   -6.8477   -3.7203    2.6639 C   0  0  0  0  0  0  0  0  0  0  0  0
   -5.8523   -4.5812    3.1259 C   0  0  0  0  0  0  0  0  0  0  0  0
   -4.5981   -4.5731    2.5169 C   0  0  0  0  0  0  0  0  0  0  0  0
   -4.3481   -3.7042    1.4448 C   0  0  0  0  0  0  0  0  0  0  0  0
   -5.3424   -2.8448    0.9969 C   0  0  0  0  0  0  0  0  0  0  0  0
   -3.0120   -3.6443    0.7683 C   0  0  0  0  0  0  0  0  0  0  0  0
   -2.8354   -2.7900   -0.1302 O   0  0  0  0  0  0  0  0  0  0  0  0
   -2.1207   -4.4599    1.1015 O   0  0  0  0  0  0  0  0  0  0  0  0
   -3.5245   -2.1956   -0.3535 H   0  0  0  0  0  0  0  0  0  0  0  0
 22 19  1  0  0  0
 19 20  2  0  0  0
 19 18  1  0  0  0
 20 21  1  0  0  0
 23 18  1  0  0  0
 18 17  2  0  0  0
 21 16  2  0  0  0
 17 16  1  0  0  0
 16 11  1  0  0  0
 15 11  1  0  0  0
 15 14  2  0  0  0
 11 12  1  0  0  0
 14 13  1  0  0  0
 12 13  2  0  0  0
 13  1  1  0  0  0
  1  6  2  0  0  0
  1  2  1  0  0  0
  6  5  1  0  0  0
  2  3  2  0  0  0
  5 10  2  0  0  0
  5  4  1  0  0  0
 10  9  1  0  0  0
  3  4  1  0  0  0
  4  7  2  0  0  0
  9  8  2  0  0  0
  7  8  1  0  0  0
  7 25  1  0  0  0
 27 26  2  0  0  0
 27 28  1  0  0  0
 25 26  1  0  0  0
 26 31  1  0  0  0
 28 29  2  0  0  0
 31 30  2  0  0  0
 29 30  1  0  0  0
 30 32  1  0  0  0
 32 34  2  0  0  0
 32 33  1  0  0  0
 22 24  1  0  0  0
 33 35  1  0  0  0
M  END
> <minimizedAffinity>
-9.02947

$$$$
5HVS_65V_A_203


 35 39  0  0  0  0  0  0  0  0999 V2000
  -10.0154   -4.4869   -2.8861 C   0  0  0  0  0  0  0  0  0  0  0  0
  -10.5980   -4.3597   -1.6326 C   0  0  0  0  0  0  0  0  0  0  0  0
   -9.8246   -3.8991   -0.5787 C   0  0  0  0  0  0  0  0  0  0  0  0
   -8.4919   -3.5613   -0.8295 C   0  0  0  0  0  0  0  0  0  0  0  0
   -7.9671   -3.6983   -2.1319 C   0  0  0  0  0  0  0  0  0  0  0  0
   -8.7391   -4.1683   -3.1435 N   0  0  0  0  0  0  0  0  0  0  0  0
   -7.6572   -3.0858    0.1842 C   0  0  0  0  0  0  0  0  0  0  0  0
   -6.3290   -2.7666   -0.0917 C   0  0  0  0  0  0  0  0  0  0  0  0
   -5.8189   -2.9220   -1.3802 C   0  0  0  0  0  0  0  0  0  0  0  0
   -6.6368   -3.3812   -2.3993 C   0  0  0  0  0  0  0  0  0  0  0  0
  -11.7682   -6.1628   -5.5291 N   0  0  0  0  0  0  0  0  0  0  0  0
  -11.0355   -6.2763   -4.4331 C   0  0  0  0  0  0  0  0  0  0  0  0
  -10.7985   -4.9966   -4.0163 C   0  0  0  0  0  0  0  0  0  0  0  0
  -11.3954   -4.1819   -4.9199 N   0  0  0  0  0  0  0  0  0  0  0  0
  -12.0755   -4.8788   -5.9029 N   0  0  0  0  0  0  0  0  0  0  0  0
  -12.2912   -7.2337   -6.2858 C   0  0  0  0  0  0  0  0  0  0  0  0
  -11.4666   -8.2023   -6.8213 C   0  0  0  0  0  0  0  0  0  0  0  0
  -12.0138   -9.2244   -7.5550 C   0  0  0  0  0  0  0  0  0  0  0  0
  -13.3571   -9.3588   -7.7912 C   0  0  0  0  0  0  0  0  0  0  0  0
  -14.1830   -8.3924   -7.2501 C   0  0  0  0  0  0  0  0  0  0  0  0
  -13.6580   -7.3345   -6.5102 C   0  0  0  0  0  0  0  0  0  0  0  0
  -13.8557  -10.3925   -8.5500 O   0  0  0  0  0  0  0  0  0  0  0  0
  -11.2005  -10.1343   -8.0886 F   0  0  0  0  0  0  0  0  0  0  0  0
  -14.7783  -10.4629   -8.6973 H   0  0  0  0  0  0  0  0  0  0  0  0
   -8.2382   -2.9856    1.4244 O   0  0  0  0  0  0  0  0  0  0  0  0
   -8.3655   -1.7451    2.0134 C   0  0  0  0  0  0  0  0  0  0  0  0
   -7.4085   -1.2076    2.8821 C   0  0  0  0  0  0  0  0  0  0  0  0
   -7.6043    0.0499    3.4526 C   0  0  0  0  0  0  0  0  0  0  0  0
   -8.7572    0.7723    3.1475 C   0  0  0  0  0  0  0  0  0  0  0  0
   -9.7074    0.2322    2.2688 C   0  0  0  0  0  0  0  0  0  0  0  0
   -9.5081   -1.0240    1.7119 C   0  0  0  0  0  0  0  0  0  0  0  0
  -10.9710    0.9603    1.9228 C   0  0  0  0  0  0  0  0  0  0  0  0
  -11.9551    0.8455    2.6887 O   0  0  0  0  0  0  0  0  0  0  0  0
  -11.0160    1.6416    0.8719 O   0  0  0  0  0  0  0  0  0  0  0  0
  -11.8856    0.3277    3.4665 H   0  0  0  0  0  0  0  0  0  0  0  0
 22 19  1  0  0  0
 19 20  2  0  0  0
 19 18  1  0  0  0
 20 21  1  0  0  0
 23 18  1  0  0  0
 18 17  2  0  0  0
 21 16  2  0  0  0
 17 16  1  0  0  0
 16 11  1  0  0  0
 15 11  1  0  0  0
 15 14  2  0  0  0
 11 12  1  0  0  0
 14 13  1  0  0  0
 12 13  2  0  0  0
 13  1  1  0  0  0
  1  6  2  0  0  0
  1  2  1  0  0  0
  6  5  1  0  0  0
  2  3  2  0  0  0
  5 10  2  0  0  0
  5  4  1  0  0  0
 10  9  1  0  0  0
  3  4  1  0  0  0
  4  7  2  0  0  0
  9  8  2  0  0  0
  7  8  1  0  0  0
  7 25  1  0  0  0
 27 26  2  0  0  0
 27 28  1  0  0  0
 25 26  1  0  0  0
 26 31  1  0  0  0
 28 29  2  0  0  0
 31 30  2  0  0  0
 29 30  1  0  0  0
 30 32  1  0  0  0
 32 34  2  0  0  0
 32 33  1  0  0  0
 22 24  1  0  0  0
 33 35  1  0  0  0
M  END
> <minimizedAffinity>
-8.99668

$$$$
