3CD5_7HI_A_2


 42 45  0  0  0  0  0  0  0  0999 V2000
   14.2847    6.8082   45.4232 N   0  0  0  0  0  0  0  0  0  0  0  0
   13.4738    3.4088   47.0048 C   0  0  0  0  0  0  0  0  0  0  0  0
   14.3434    5.6373   46.1035 C   0  0  0  0  0  0  0  0  0  0  0  0
   16.1407    6.8213   46.5806 C   0  0  0  0  0  0  0  0  0  0  0  0
   15.3754    7.5519   45.6840 C   0  0  0  0  0  0  0  0  0  0  0  0
   13.2772    4.5594   46.0214 C   0  0  0  0  0  0  0  0  0  0  0  0
   14.7660    2.6768   46.7390 C   0  0  0  0  0  0  0  0  0  0  0  0
   15.9392    3.1881   47.1076 C   0  0  0  0  0  0  0  0  0  0  0  0
   16.0313    4.5313   47.7800 C   0  0  0  0  0  0  0  0  0  0  0  0
   15.5204    5.6163   46.8548 C   0  0  0  0  0  0  0  0  0  0  0  0
   18.4025    7.3262   46.3946 O   0  0  0  0  0  0  0  0  0  0  0  0
   17.4489    7.2603   47.1533 C   0  0  0  0  0  0  0  0  0  0  0  0
   17.4809    7.7149   48.4102 N   0  0  0  0  0  0  0  0  0  0  0  0
   16.6788    7.5973   48.9688 H   0  0  0  0  0  0  0  0  0  0  0  0
   19.6754    7.6292   49.4322 C   0  0  0  0  0  0  0  0  0  0  0  0
   20.7565    8.3096   49.9989 C   0  0  0  0  0  0  0  0  0  0  0  0
   18.5507    9.7223   49.0683 C   0  0  0  0  0  0  0  0  0  0  0  0
   18.5644    8.3323   48.9594 C   0  0  0  0  0  0  0  0  0  0  0  0
   19.6322   10.4010   49.6311 C   0  0  0  0  0  0  0  0  0  0  0  0
   20.7434    9.7011   50.0968 C   0  0  0  0  0  0  0  0  0  0  0  0
   22.7305    9.8219   51.6206 C   0  0  0  0  0  0  0  0  0  0  0  0
   24.0082   11.8605   51.8668 C   0  0  0  0  0  0  0  0  0  0  0  0
   21.8832   10.4514   50.7067 C   0  0  0  0  0  0  0  0  0  0  0  0
   23.1600   12.4971   50.9645 C   0  0  0  0  0  0  0  0  0  0  0  0
   22.0997   11.7926   50.3887 C   0  0  0  0  0  0  0  0  0  0  0  0
   23.7914   10.5229   52.1953 C   0  0  0  0  0  0  0  0  0  0  0  0
   15.6996    8.9301   45.1410 C   0  0  0  0  0  0  0  0  0  0  0  0
   16.5784    8.8791   43.9092 C   0  0  0  0  0  0  0  0  0  0  0  0
   13.1988    7.1792   44.5073 C   0  0  0  0  0  0  0  0  0  0  0  0
   13.6126    6.7339   43.1016 C   0  0  0  0  0  0  0  0  0  0  0  0
   12.4784    6.7829   42.0820 C   0  0  0  0  0  0  0  0  0  0  0  0
   11.8958    8.0776   42.0927 O   0  0  0  0  0  0  0  0  0  0  0  0
   12.5663    8.7358   41.8515 H   0  0  0  0  0  0  0  0  0  0  0  0
   13.0024    6.5361   40.6726 C   0  0  0  0  0  0  0  0  0  0  0  0
   12.4813    5.2651   40.0136 C   0  0  0  0  0  0  0  0  0  0  0  0
   12.6372    5.3636   38.6138 O   0  0  0  0  0  0  0  0  0  0  0  0
   13.5767    5.4754   38.4001 H   0  0  0  0  0  0  0  0  0  0  0  0
   13.2840    4.0704   40.5000 C   0  0  0  0  0  0  0  0  0  0  0  0
   13.6258    3.1853   39.3269 C   0  0  0  0  0  0  0  0  0  0  0  0
   14.7497    3.2135   38.8479 O   0  0  0  0  0  0  0  0  0  0  0  0
   12.6928    2.3803   38.8134 O   0  0  0  0  0  0  0  0  0  0  0  0
   15.4004    3.7806   39.2127 H   0  0  0  0  0  0  0  0  0  0  0  0
  5  1  1  0  0  0
  1  3  1  0  0  0
  1 29  1  0  0  0
  7  2  1  0  0  0
  6  2  1  0  0  0
 10  3  2  0  0  0
  3  6  1  0  0  0
 28 27  1  0  0  0
 27  5  1  0  0  0
 29 30  1  0  0  0
 30 31  1  0  0  0
 31 34  1  0  0  0
 34 35  1  0  0  0
 26 21  2  0  0  0
 21 23  1  0  0  0
 16 15  2  0  0  0
 15 18  1  0  0  0
 20 16  1  0  0  0
 22 24  2  0  0  0
 22 26  1  0  0  0
 25 23  2  0  0  0
 23 20  1  0  0  0
 24 25  1  0  0  0
 19 17  1  0  0  0
 17 18  2  0  0  0
 11 12  2  0  0  0
 13 12  1  0  0  0
 12  4  1  0  0  0
 18 13  1  0  0  0
 20 19  2  0  0  0
  4  5  2  0  0  0
  4 10  1  0  0  0
  8  7  1  0  0  0
  9  8  1  0  0  0
  9 10  1  0  0  0
 32 31  1  0  0  0
 35 38  1  0  0  0
 35 36  1  0  0  0
 38 39  1  0  0  0
 41 39  2  0  0  0
 39 40  1  0  0  0
 13 14  1  0  0  0
 32 33  1  0  0  0
 36 37  1  0  0  0
 40 42  1  0  0  0
M  END
> <minimizedAffinity>
-10.97108

$$$$
3CD5_7HI_A_2


 42 45  0  0  0  0  0  0  0  0999 V2000
   14.0833    6.5057   44.7602 N   0  0  0  0  0  0  0  0  0  0  0  0
   12.9914    3.0468   46.0085 C   0  0  0  0  0  0  0  0  0  0  0  0
   13.9610    5.3450   45.4496 C   0  0  0  0  0  0  0  0  0  0  0  0
   15.3098    6.6876   46.5622 C   0  0  0  0  0  0  0  0  0  0  0  0
   14.9113    7.3456   45.4082 C   0  0  0  0  0  0  0  0  0  0  0  0
   13.1114    4.1746   44.9872 C   0  0  0  0  0  0  0  0  0  0  0  0
   14.3376    2.4352   46.3089 C   0  0  0  0  0  0  0  0  0  0  0  0
   15.2168    3.0511   47.0972 C   0  0  0  0  0  0  0  0  0  0  0  0
   14.9188    4.3972   47.7006 C   0  0  0  0  0  0  0  0  0  0  0  0
   14.7343    5.4312   46.6092 C   0  0  0  0  0  0  0  0  0  0  0  0
   15.7364    7.7695   48.5753 O   0  0  0  0  0  0  0  0  0  0  0  0
   16.2362    7.2438   47.5940 C   0  0  0  0  0  0  0  0  0  0  0  0
   17.5456    6.9978   47.4825 N   0  0  0  0  0  0  0  0  0  0  0  0
   17.8750    6.5977   46.6455 H   0  0  0  0  0  0  0  0  0  0  0  0
   19.1448    8.4806   48.5369 C   0  0  0  0  0  0  0  0  0  0  0  0
   20.0706    8.7067   49.5590 C   0  0  0  0  0  0  0  0  0  0  0  0
   18.6980    6.2929   49.4274 C   0  0  0  0  0  0  0  0  0  0  0  0
   18.4487    7.2713   48.4656 C   0  0  0  0  0  0  0  0  0  0  0  0
   19.6200    6.5211   50.4496 C   0  0  0  0  0  0  0  0  0  0  0  0
   20.3098    7.7293   50.5253 C   0  0  0  0  0  0  0  0  0  0  0  0
   22.0302    6.8669   52.1320 C   0  0  0  0  0  0  0  0  0  0  0  0
   23.1455    8.3381   53.6943 C   0  0  0  0  0  0  0  0  0  0  0  0
   21.3012    7.9434   51.6231 C   0  0  0  0  0  0  0  0  0  0  0  0
   22.4134    9.4139   53.1987 C   0  0  0  0  0  0  0  0  0  0  0  0
   21.4928    9.2141   52.1669 C   0  0  0  0  0  0  0  0  0  0  0  0
   22.9517    7.0644   53.1609 C   0  0  0  0  0  0  0  0  0  0  0  0
   15.3104    8.7475   44.9902 C   0  0  0  0  0  0  0  0  0  0  0  0
   16.5668    8.7682   44.1457 C   0  0  0  0  0  0  0  0  0  0  0  0
   13.4301    6.7763   43.4735 C   0  0  0  0  0  0  0  0  0  0  0  0
   11.9329    6.5103   43.6546 C   0  0  0  0  0  0  0  0  0  0  0  0
   11.2192    6.1086   42.3670 C   0  0  0  0  0  0  0  0  0  0  0  0
   10.1842    7.0418   42.0956 O   0  0  0  0  0  0  0  0  0  0  0  0
   10.5674    7.9256   41.9821 H   0  0  0  0  0  0  0  0  0  0  0  0
   12.1762    6.1397   41.1818 C   0  0  0  0  0  0  0  0  0  0  0  0
   12.1183    4.9095   40.2848 C   0  0  0  0  0  0  0  0  0  0  0  0
   12.1343    5.3130   38.9319 O   0  0  0  0  0  0  0  0  0  0  0  0
   12.9501    5.8055   38.7510 H   0  0  0  0  0  0  0  0  0  0  0  0
   13.3349    4.0351   40.5362 C   0  0  0  0  0  0  0  0  0  0  0  0
   13.6010    3.1847   39.3186 C   0  0  0  0  0  0  0  0  0  0  0  0
   14.7112    3.1803   38.8078 O   0  0  0  0  0  0  0  0  0  0  0  0
   12.6165    2.4464   38.8011 O   0  0  0  0  0  0  0  0  0  0  0  0
   15.3982    3.7006   39.1756 H   0  0  0  0  0  0  0  0  0  0  0  0
  5  1  1  0  0  0
  1  3  1  0  0  0
  1 29  1  0  0  0
  7  2  1  0  0  0
  6  2  1  0  0  0
 10  3  2  0  0  0
  3  6  1  0  0  0
 28 27  1  0  0  0
 27  5  1  0  0  0
 29 30  1  0  0  0
 30 31  1  0  0  0
 31 34  1  0  0  0
 34 35  1  0  0  0
 26 21  2  0  0  0
 21 23  1  0  0  0
 16 15  2  0  0  0
 15 18  1  0  0  0
 20 16  1  0  0  0
 22 24  2  0  0  0
 22 26  1  0  0  0
 25 23  2  0  0  0
 23 20  1  0  0  0
 24 25  1  0  0  0
 19 17  1  0  0  0
 17 18  2  0  0  0
 11 12  2  0  0  0
 13 12  1  0  0  0
 12  4  1  0  0  0
 18 13  1  0  0  0
 20 19  2  0  0  0
  4  5  2  0  0  0
  4 10  1  0  0  0
  8  7  1  0  0  0
  9  8  1  0  0  0
  9 10  1  0  0  0
 32 31  1  0  0  0
 35 38  1  0  0  0
 35 36  1  0  0  0
 38 39  1  0  0  0
 41 39  2  0  0  0
 39 40  1  0  0  0
 13 14  1  0  0  0
 32 33  1  0  0  0
 36 37  1  0  0  0
 40 42  1  0  0  0
M  END
> <minimizedAffinity>
-9.42770

$$$$
3CD5_7HI_A_2


 42 45  0  0  0  0  0  0  0  0999 V2000
   22.9240    9.7968   51.6820 N   0  0  0  0  0  0  0  0  0  0  0  0
   24.2001    7.2488   54.2498 C   0  0  0  0  0  0  0  0  0  0  0  0
   23.1031    8.6934   52.4487 C   0  0  0  0  0  0  0  0  0  0  0  0
   21.6524    8.2193   50.8580 C   0  0  0  0  0  0  0  0  0  0  0  0
   22.0331    9.5441   50.7056 C   0  0  0  0  0  0  0  0  0  0  0  0
   24.0320    8.6416   53.6486 C   0  0  0  0  0  0  0  0  0  0  0  0
   22.8881    6.7154   54.7699 C   0  0  0  0  0  0  0  0  0  0  0  0
   21.9570    6.2427   53.9433 C   0  0  0  0  0  0  0  0  0  0  0  0
   22.1597    6.2454   52.4521 C   0  0  0  0  0  0  0  0  0  0  0  0
   22.3026    7.6657   51.9454 C   0  0  0  0  0  0  0  0  0  0  0  0
   21.1156    6.6844   49.1963 O   0  0  0  0  0  0  0  0  0  0  0  0
   20.6729    7.4997   49.9891 C   0  0  0  0  0  0  0  0  0  0  0  0
   19.3665    7.6529   50.2286 N   0  0  0  0  0  0  0  0  0  0  0  0
   19.0878    8.3540   50.8611 H   0  0  0  0  0  0  0  0  0  0  0  0
   17.9322    5.7009   50.2081 C   0  0  0  0  0  0  0  0  0  0  0  0
   16.9480    4.9486   49.5614 C   0  0  0  0  0  0  0  0  0  0  0  0
   17.8729    7.3102   48.4234 C   0  0  0  0  0  0  0  0  0  0  0  0
   18.4001    6.8905   49.6441 C   0  0  0  0  0  0  0  0  0  0  0  0
   16.8877    6.5601   47.7802 C   0  0  0  0  0  0  0  0  0  0  0  0
   16.4157    5.3771   48.3451 C   0  0  0  0  0  0  0  0  0  0  0  0
   15.4650    3.1949   47.5580 C   0  0  0  0  0  0  0  0  0  0  0  0
   13.4191    3.1022   46.2717 C   0  0  0  0  0  0  0  0  0  0  0  0
   15.3688    4.5859   47.6294 C   0  0  0  0  0  0  0  0  0  0  0  0
   13.3235    4.4901   46.3298 C   0  0  0  0  0  0  0  0  0  0  0  0
   14.2983    5.2281   47.0060 C   0  0  0  0  0  0  0  0  0  0  0  0
   14.4914    2.4557   46.8851 C   0  0  0  0  0  0  0  0  0  0  0  0
   21.5575   10.4969   49.6260 C   0  0  0  0  0  0  0  0  0  0  0  0
   20.1920   11.0793   49.9232 C   0  0  0  0  0  0  0  0  0  0  0  0
   23.5853   11.0858   51.9200 C   0  0  0  0  0  0  0  0  0  0  0  0
   22.5479   12.0253   52.5417 C   0  0  0  0  0  0  0  0  0  0  0  0
   22.4373   13.3734   51.8354 C   0  0  0  0  0  0  0  0  0  0  0  0
   21.6042   14.2337   52.5981 O   0  0  0  0  0  0  0  0  0  0  0  0
   21.9951   14.3678   53.4757 H   0  0  0  0  0  0  0  0  0  0  0  0
   23.8008   14.0452   51.7282 C   0  0  0  0  0  0  0  0  0  0  0  0
   24.4235   14.0023   50.3383 C   0  0  0  0  0  0  0  0  0  0  0  0
   23.9261   15.0754   49.5672 O   0  0  0  0  0  0  0  0  0  0  0  0
   24.1538   15.9149   49.9965 H   0  0  0  0  0  0  0  0  0  0  0  0
   25.9312   14.1525   50.4482 C   0  0  0  0  0  0  0  0  0  0  0  0
   26.3226   15.5618   50.0779 C   0  0  0  0  0  0  0  0  0  0  0  0
   26.6539   15.8220   48.9307 O   0  0  0  0  0  0  0  0  0  0  0  0
   26.3121   16.5167   51.0108 O   0  0  0  0  0  0  0  0  0  0  0  0
   26.6593   15.1476   48.2802 H   0  0  0  0  0  0  0  0  0  0  0  0
  5  1  1  0  0  0
  1  3  1  0  0  0
  1 29  1  0  0  0
  7  2  1  0  0  0
  6  2  1  0  0  0
 10  3  2  0  0  0
  3  6  1  0  0  0
 28 27  1  0  0  0
 27  5  1  0  0  0
 29 30  1  0  0  0
 30 31  1  0  0  0
 31 34  1  0  0  0
 34 35  1  0  0  0
 26 21  2  0  0  0
 21 23  1  0  0  0
 16 15  2  0  0  0
 15 18  1  0  0  0
 20 16  1  0  0  0
 22 24  2  0  0  0
 22 26  1  0  0  0
 25 23  2  0  0  0
 23 20  1  0  0  0
 24 25  1  0  0  0
 19 17  1  0  0  0
 17 18  2  0  0  0
 11 12  2  0  0  0
 13 12  1  0  0  0
 12  4  1  0  0  0
 18 13  1  0  0  0
 20 19  2  0  0  0
  4  5  2  0  0  0
  4 10  1  0  0  0
  8  7  1  0  0  0
  9  8  1  0  0  0
  9 10  1  0  0  0
 32 31  1  0  0  0
 35 38  1  0  0  0
 35 36  1  0  0  0
 38 39  1  0  0  0
 41 39  2  0  0  0
 39 40  1  0  0  0
 13 14  1  0  0  0
 32 33  1  0  0  0
 36 37  1  0  0  0
 40 42  1  0  0  0
M  END
> <minimizedAffinity>
-8.23015

$$$$
3CD5_7HI_A_2


 42 45  0  0  0  0  0  0  0  0999 V2000
   21.0356   12.2959   51.9455 N   0  0  0  0  0  0  0  0  0  0  0  0
   18.6819   13.8906   54.5207 C   0  0  0  0  0  0  0  0  0  0  0  0
   19.9482   12.6955   52.6491 C   0  0  0  0  0  0  0  0  0  0  0  0
   19.3155   11.1927   51.1656 C   0  0  0  0  0  0  0  0  0  0  0  0
   20.6815   11.3843   51.0212 C   0  0  0  0  0  0  0  0  0  0  0  0
   19.9952   13.7299   53.7596 C   0  0  0  0  0  0  0  0  0  0  0  0
   17.5775   14.3693   53.6109 C   0  0  0  0  0  0  0  0  0  0  0  0
   16.9775   13.5422   52.7568 C   0  0  0  0  0  0  0  0  0  0  0  0
   17.3930   12.1005   52.6403 C   0  0  0  0  0  0  0  0  0  0  0  0
   18.8309   12.0059   52.1734 C   0  0  0  0  0  0  0  0  0  0  0  0
   18.1342   10.6422   49.2403 O   0  0  0  0  0  0  0  0  0  0  0  0
   18.4855   10.2601   50.3447 C   0  0  0  0  0  0  0  0  0  0  0  0
   18.3079    9.0073   50.7766 N   0  0  0  0  0  0  0  0  0  0  0  0
   18.5923    8.7855   51.6926 H   0  0  0  0  0  0  0  0  0  0  0  0
   18.4046    7.4622   48.9135 C   0  0  0  0  0  0  0  0  0  0  0  0
   17.7873    6.4613   48.1586 C   0  0  0  0  0  0  0  0  0  0  0  0
   16.4776    7.5677   50.3468 C   0  0  0  0  0  0  0  0  0  0  0  0
   17.7541    8.0212   50.0165 C   0  0  0  0  0  0  0  0  0  0  0  0
   15.8636    6.5657   49.5944 C   0  0  0  0  0  0  0  0  0  0  0  0
   16.5142    6.0030   48.4983 C   0  0  0  0  0  0  0  0  0  0  0  0
   14.4503    4.9987   47.4898 C   0  0  0  0  0  0  0  0  0  0  0  0
   14.5392    2.9385   46.2261 C   0  0  0  0  0  0  0  0  0  0  0  0
   15.8291    4.9400   47.7017 C   0  0  0  0  0  0  0  0  0  0  0  0
   15.9128    2.8684   46.4434 C   0  0  0  0  0  0  0  0  0  0  0  0
   16.5535    3.8669   47.1813 C   0  0  0  0  0  0  0  0  0  0  0  0
   13.8087    4.0037   46.7513 C   0  0  0  0  0  0  0  0  0  0  0  0
   21.5889   10.6740   50.0356 C   0  0  0  0  0  0  0  0  0  0  0  0
   22.0121    9.3025   50.5172 C   0  0  0  0  0  0  0  0  0  0  0  0
   22.3915   12.8211   52.1493 C   0  0  0  0  0  0  0  0  0  0  0  0
   22.5558   14.0350   51.2301 C   0  0  0  0  0  0  0  0  0  0  0  0
   23.9216   14.1146   50.5543 C   0  0  0  0  0  0  0  0  0  0  0  0
   23.8477   15.0103   49.4551 O   0  0  0  0  0  0  0  0  0  0  0  0
   23.6004   15.8927   49.7731 H   0  0  0  0  0  0  0  0  0  0  0  0
   24.9718   14.6630   51.5125 C   0  0  0  0  0  0  0  0  0  0  0  0
   26.3137   13.9429   51.4653 C   0  0  0  0  0  0  0  0  0  0  0  0
   26.1052   12.5518   51.5875 O   0  0  0  0  0  0  0  0  0  0  0  0
   25.5478   12.2429   50.8562 H   0  0  0  0  0  0  0  0  0  0  0  0
   26.9903   14.2084   50.1312 C   0  0  0  0  0  0  0  0  0  0  0  0
   27.0806   15.6970   49.9027 C   0  0  0  0  0  0  0  0  0  0  0  0
   26.7036   16.1760   48.8435 O   0  0  0  0  0  0  0  0  0  0  0  0
   27.5806   16.4827   50.8592 O   0  0  0  0  0  0  0  0  0  0  0  0
   26.3535   15.6195   48.1759 H   0  0  0  0  0  0  0  0  0  0  0  0
  5  1  1  0  0  0
  1  3  1  0  0  0
  1 29  1  0  0  0
  7  2  1  0  0  0
  6  2  1  0  0  0
 10  3  2  0  0  0
  3  6  1  0  0  0
 28 27  1  0  0  0
 27  5  1  0  0  0
 29 30  1  0  0  0
 30 31  1  0  0  0
 31 34  1  0  0  0
 34 35  1  0  0  0
 26 21  2  0  0  0
 21 23  1  0  0  0
 16 15  2  0  0  0
 15 18  1  0  0  0
 20 16  1  0  0  0
 22 24  2  0  0  0
 22 26  1  0  0  0
 25 23  2  0  0  0
 23 20  1  0  0  0
 24 25  1  0  0  0
 19 17  1  0  0  0
 17 18  2  0  0  0
 11 12  2  0  0  0
 13 12  1  0  0  0
 12  4  1  0  0  0
 18 13  1  0  0  0
 20 19  2  0  0  0
  4  5  2  0  0  0
  4 10  1  0  0  0
  8  7  1  0  0  0
  9  8  1  0  0  0
  9 10  1  0  0  0
 32 31  1  0  0  0
 35 38  1  0  0  0
 35 36  1  0  0  0
 38 39  1  0  0  0
 41 39  2  0  0  0
 39 40  1  0  0  0
 13 14  1  0  0  0
 32 33  1  0  0  0
 36 37  1  0  0  0
 40 42  1  0  0  0
M  END
> <minimizedAffinity>
-8.22271

$$$$
3CD5_7HI_A_2


 42 45  0  0  0  0  0  0  0  0999 V2000
   14.2817    6.6791   46.0045 N   0  0  0  0  0  0  0  0  0  0  0  0
   14.1767    3.0449   47.2274 C   0  0  0  0  0  0  0  0  0  0  0  0
   14.5935    5.4673   46.5255 C   0  0  0  0  0  0  0  0  0  0  0  0
   16.2392    6.8675   46.9620 C   0  0  0  0  0  0  0  0  0  0  0  0
   15.2733    7.5567   46.2441 C   0  0  0  0  0  0  0  0  0  0  0  0
   13.6966    4.2468   46.4185 C   0  0  0  0  0  0  0  0  0  0  0  0
   15.5224    2.5628   46.7446 C   0  0  0  0  0  0  0  0  0  0  0  0
   16.6422    3.2141   47.0537 C   0  0  0  0  0  0  0  0  0  0  0  0
   16.6134    4.4753   47.8742 C   0  0  0  0  0  0  0  0  0  0  0  0
   15.8413    5.5562   47.1463 C   0  0  0  0  0  0  0  0  0  0  0  0
   18.3811    7.7034   46.6171 O   0  0  0  0  0  0  0  0  0  0  0  0
   17.5265    7.4479   47.4500 C   0  0  0  0  0  0  0  0  0  0  0  0
   17.6227    7.8122   48.7328 N   0  0  0  0  0  0  0  0  0  0  0  0
   16.9043    7.5416   49.3492 H   0  0  0  0  0  0  0  0  0  0  0  0
   18.6620    9.9350   49.2633 C   0  0  0  0  0  0  0  0  0  0  0  0
   19.7592   10.6329   49.7752 C   0  0  0  0  0  0  0  0  0  0  0  0
   19.7767    7.8537   49.7155 C   0  0  0  0  0  0  0  0  0  0  0  0
   18.6619    8.5381   49.2327 C   0  0  0  0  0  0  0  0  0  0  0  0
   20.8703    8.5515   50.2296 C   0  0  0  0  0  0  0  0  0  0  0  0
   20.8685    9.9443   50.2667 C   0  0  0  0  0  0  0  0  0  0  0  0
   22.9068   10.0382   51.7233 C   0  0  0  0  0  0  0  0  0  0  0  0
   24.2762   12.0277   51.8483 C   0  0  0  0  0  0  0  0  0  0  0  0
   22.0578   10.6677   50.8111 C   0  0  0  0  0  0  0  0  0  0  0  0
   23.4269   12.6649   50.9474 C   0  0  0  0  0  0  0  0  0  0  0  0
   22.3200   11.9850   50.4329 C   0  0  0  0  0  0  0  0  0  0  0  0
   24.0141   10.7145   52.2367 C   0  0  0  0  0  0  0  0  0  0  0  0
   15.3230    9.0190   45.8457 C   0  0  0  0  0  0  0  0  0  0  0  0
   15.9522    9.2311   44.4851 C   0  0  0  0  0  0  0  0  0  0  0  0
   13.0519    6.9658   45.2553 C   0  0  0  0  0  0  0  0  0  0  0  0
   13.0625    6.0850   44.0026 C   0  0  0  0  0  0  0  0  0  0  0  0
   11.7145    5.4405   43.6923 C   0  0  0  0  0  0  0  0  0  0  0  0
   11.9278    4.2302   42.9814 O   0  0  0  0  0  0  0  0  0  0  0  0
   12.4505    3.6223   43.5274 H   0  0  0  0  0  0  0  0  0  0  0  0
   10.9730    5.0850   44.9751 C   0  0  0  0  0  0  0  0  0  0  0  0
    9.5337    5.5811   45.0362 C   0  0  0  0  0  0  0  0  0  0  0  0
    9.1372    5.7079   46.3854 O   0  0  0  0  0  0  0  0  0  0  0  0
    9.7164    6.3435   46.8342 H   0  0  0  0  0  0  0  0  0  0  0  0
    9.4352    6.9476   44.3796 C   0  0  0  0  0  0  0  0  0  0  0  0
    8.0055    7.4269   44.4325 C   0  0  0  0  0  0  0  0  0  0  0  0
    7.3864    7.6162   43.3959 O   0  0  0  0  0  0  0  0  0  0  0  0
    7.4270    7.6493   45.6149 O   0  0  0  0  0  0  0  0  0  0  0  0
    7.7978    7.4583   42.5690 H   0  0  0  0  0  0  0  0  0  0  0  0
  5  1  1  0  0  0
  1  3  1  0  0  0
  1 29  1  0  0  0
  7  2  1  0  0  0
  6  2  1  0  0  0
 10  3  2  0  0  0
  3  6  1  0  0  0
 28 27  1  0  0  0
 27  5  1  0  0  0
 29 30  1  0  0  0
 30 31  1  0  0  0
 31 34  1  0  0  0
 34 35  1  0  0  0
 26 21  2  0  0  0
 21 23  1  0  0  0
 16 15  2  0  0  0
 15 18  1  0  0  0
 20 16  1  0  0  0
 22 24  2  0  0  0
 22 26  1  0  0  0
 25 23  2  0  0  0
 23 20  1  0  0  0
 24 25  1  0  0  0
 19 17  1  0  0  0
 17 18  2  0  0  0
 11 12  2  0  0  0
 13 12  1  0  0  0
 12  4  1  0  0  0
 18 13  1  0  0  0
 20 19  2  0  0  0
  4  5  2  0  0  0
  4 10  1  0  0  0
  8  7  1  0  0  0
  9  8  1  0  0  0
  9 10  1  0  0  0
 32 31  1  0  0  0
 35 38  1  0  0  0
 35 36  1  0  0  0
 38 39  1  0  0  0
 41 39  2  0  0  0
 39 40  1  0  0  0
 13 14  1  0  0  0
 32 33  1  0  0  0
 36 37  1  0  0  0
 40 42  1  0  0  0
M  END
> <minimizedAffinity>
-8.19857

$$$$
3CD5_7HI_A_2


 42 45  0  0  0  0  0  0  0  0999 V2000
   22.6715   10.0698   51.9409 N   0  0  0  0  0  0  0  0  0  0  0  0
   24.1952    7.2440   54.0404 C   0  0  0  0  0  0  0  0  0  0  0  0
   22.9633    8.8699   52.4997 C   0  0  0  0  0  0  0  0  0  0  0  0
   21.5884    8.5444   50.8077 C   0  0  0  0  0  0  0  0  0  0  0  0
   21.8230    9.9075   50.9092 C   0  0  0  0  0  0  0  0  0  0  0  0
   23.8810    8.6976   53.6971 C   0  0  0  0  0  0  0  0  0  0  0  0
   22.9447    6.4882   54.4165 C   0  0  0  0  0  0  0  0  0  0  0  0
   22.0789    6.0791   53.4910 C   0  0  0  0  0  0  0  0  0  0  0  0
   22.2940    6.3767   52.0316 C   0  0  0  0  0  0  0  0  0  0  0  0
   22.2851    7.8729   51.7952 C   0  0  0  0  0  0  0  0  0  0  0  0
   21.2388    7.3192   48.8629 O   0  0  0  0  0  0  0  0  0  0  0  0
   20.7019    7.8966   49.7944 C   0  0  0  0  0  0  0  0  0  0  0  0
   19.3883    7.8334   50.0353 N   0  0  0  0  0  0  0  0  0  0  0  0
   19.0275    8.3527   50.7899 H   0  0  0  0  0  0  0  0  0  0  0  0
   18.0620    7.4941   48.0369 C   0  0  0  0  0  0  0  0  0  0  0  0
   17.1636    6.6990   47.3203 C   0  0  0  0  0  0  0  0  0  0  0  0
   18.0656    5.8812   49.8194 C   0  0  0  0  0  0  0  0  0  0  0  0
   18.5223    7.0886   49.2922 C   0  0  0  0  0  0  0  0  0  0  0  0
   17.1712    5.0863   49.1014 C   0  0  0  0  0  0  0  0  0  0  0  0
   16.7168    5.4868   47.8466 C   0  0  0  0  0  0  0  0  0  0  0  0
   14.6938    5.1984   46.3942 C   0  0  0  0  0  0  0  0  0  0  0  0
   13.9230    3.0051   45.7275 C   0  0  0  0  0  0  0  0  0  0  0  0
   15.7494    4.6228   47.1039 C   0  0  0  0  0  0  0  0  0  0  0  0
   14.9672    2.4245   46.4427 C   0  0  0  0  0  0  0  0  0  0  0  0
   15.8757    3.2334   47.1299 C   0  0  0  0  0  0  0  0  0  0  0  0
   13.7865    4.3926   45.7054 C   0  0  0  0  0  0  0  0  0  0  0  0
   21.2559   10.9862   50.0068 C   0  0  0  0  0  0  0  0  0  0  0  0
   19.8453   11.3824   50.3878 C   0  0  0  0  0  0  0  0  0  0  0  0
   23.1853   11.3560   52.4280 C   0  0  0  0  0  0  0  0  0  0  0  0
   24.5427   11.5905   51.7587 C   0  0  0  0  0  0  0  0  0  0  0  0
   25.1380   12.9670   52.0404 C   0  0  0  0  0  0  0  0  0  0  0  0
   26.2773   12.8216   52.8750 O   0  0  0  0  0  0  0  0  0  0  0  0
   26.9410   12.2765   52.4240 H   0  0  0  0  0  0  0  0  0  0  0  0
   25.6053   13.6321   50.7516 C   0  0  0  0  0  0  0  0  0  0  0  0
   24.9884   14.9987   50.4810 C   0  0  0  0  0  0  0  0  0  0  0  0
   24.0539   14.8923   49.4280 O   0  0  0  0  0  0  0  0  0  0  0  0
   23.3555   14.2671   49.6774 H   0  0  0  0  0  0  0  0  0  0  0  0
   24.2568   15.4844   51.7207 C   0  0  0  0  0  0  0  0  0  0  0  0
   22.8014   15.7048   51.3895 C   0  0  0  0  0  0  0  0  0  0  0  0
   22.4464   16.7495   50.8641 O   0  0  0  0  0  0  0  0  0  0  0  0
   21.9072   14.7573   51.6806 O   0  0  0  0  0  0  0  0  0  0  0  0
   23.0786   17.4109   50.6621 H   0  0  0  0  0  0  0  0  0  0  0  0
  5  1  1  0  0  0
  1  3  1  0  0  0
  1 29  1  0  0  0
  7  2  1  0  0  0
  6  2  1  0  0  0
 10  3  2  0  0  0
  3  6  1  0  0  0
 28 27  1  0  0  0
 27  5  1  0  0  0
 29 30  1  0  0  0
 30 31  1  0  0  0
 31 34  1  0  0  0
 34 35  1  0  0  0
 26 21  2  0  0  0
 21 23  1  0  0  0
 16 15  2  0  0  0
 15 18  1  0  0  0
 20 16  1  0  0  0
 22 24  2  0  0  0
 22 26  1  0  0  0
 25 23  2  0  0  0
 23 20  1  0  0  0
 24 25  1  0  0  0
 19 17  1  0  0  0
 17 18  2  0  0  0
 11 12  2  0  0  0
 13 12  1  0  0  0
 12  4  1  0  0  0
 18 13  1  0  0  0
 20 19  2  0  0  0
  4  5  2  0  0  0
  4 10  1  0  0  0
  8  7  1  0  0  0
  9  8  1  0  0  0
  9 10  1  0  0  0
 32 31  1  0  0  0
 35 38  1  0  0  0
 35 36  1  0  0  0
 38 39  1  0  0  0
 41 39  2  0  0  0
 39 40  1  0  0  0
 13 14  1  0  0  0
 32 33  1  0  0  0
 36 37  1  0  0  0
 40 42  1  0  0  0
M  END
> <minimizedAffinity>
-8.07068

$$$$
