1O0H_ADP_A_1125


 34 36  0  0  0  0  0  0  0  0999 V2000
   37.2017    7.1299   16.1656 C   0  0  0  0  0  0  0  0  0  0  0  0
   36.4027    6.5546   17.1961 O   0  0  0  0  0  0  0  0  0  0  0  0
   38.1982    8.0344   16.8921 C   0  0  0  0  0  0  0  0  0  0  0  0
   37.7207    9.3707   16.8302 O   0  0  0  0  0  0  0  0  0  0  0  0
   38.1814    7.5467   18.3259 C   0  0  0  0  0  0  0  0  0  0  0  0
   38.5953    8.4877   19.3082 O   0  0  0  0  0  0  0  0  0  0  0  0
   36.7122    7.1871   18.4237 C   0  0  0  0  0  0  0  0  0  0  0  0
   36.8287    9.4132   17.2089 H   0  0  0  0  0  0  0  0  0  0  0  0
   38.0382    9.2798   19.2522 H   0  0  0  0  0  0  0  0  0  0  0  0
   36.3879    6.2793   19.5440 N   0  0  0  0  0  0  0  0  0  0  0  0
   35.4806    6.6125   20.4982 C   0  0  0  0  0  0  0  0  0  0  0  0
   35.3064    5.6402   21.4276 N   0  0  0  0  0  0  0  0  0  0  0  0
   36.1620    4.7098   21.0269 C   0  0  0  0  0  0  0  0  0  0  0  0
   36.4744    3.4163   21.5717 C   0  0  0  0  0  0  0  0  0  0  0  0
   35.8749    3.0119   22.7117 N   0  0  0  0  0  0  0  0  0  0  0  0
   37.3873    2.6810   20.9310 N   0  0  0  0  0  0  0  0  0  0  0  0
   37.9848    3.1119   19.8078 C   0  0  0  0  0  0  0  0  0  0  0  0
   37.7611    4.2898   19.2159 N   0  0  0  0  0  0  0  0  0  0  0  0
   36.8709    5.0714   19.8082 C   0  0  0  0  0  0  0  0  0  0  0  0
   35.2073    3.5890   23.1483 H   0  0  0  0  0  0  0  0  0  0  0  0
   36.1051    2.1399   23.1065 H   0  0  0  0  0  0  0  0  0  0  0  0
   37.7598    5.9781   15.3458 C   0  0  0  0  0  0  0  0  0  0  0  0
   36.6526    5.3838   14.6673 O   0  0  0  0  0  0  0  0  0  0  0  0
   36.4715    5.5207   13.0873 P   0  0  0  0  0  0  0  0  0  0  0  0
   34.9825    5.6655   12.8658 O   0  0  0  0  0  0  0  0  0  0  0  0
   37.3405    6.6107   12.5256 O   0  0  0  0  0  0  0  0  0  0  0  0
   37.2076    6.6682   11.5665 H   0  0  0  0  0  0  0  0  0  0  0  0
   36.8713    4.0774   12.4842 O   0  0  0  0  0  0  0  0  0  0  0  0
   36.7584    2.5797   13.0432 P   0  0  0  0  0  0  0  0  0  0  0  0
   36.8922    1.7382   11.7946 O   0  0  0  0  0  0  0  0  0  0  0  0
   37.8982    2.4125   13.9885 O   0  0  0  0  0  0  0  0  0  0  0  0
   35.3902    2.4511   13.6708 O   0  0  0  0  0  0  0  0  0  0  0  0
   37.8807    1.5170   14.3610 H   0  0  0  0  0  0  0  0  0  0  0  0
   35.2795    1.5544   14.0239 H   0  0  0  0  0  0  0  0  0  0  0  0
 29 30  2  0  0  0
 29 31  1  0  0  0
 29 32  1  0  0  0
 29 28  1  0  0  0
 24 25  2  0  0  0
 24 26  1  0  0  0
 24 28  1  0  0  0
 24 23  1  0  0  0
 23 22  1  0  0  0
 22  1  1  0  0  0
  1  2  1  0  0  0
  1  3  1  0  0  0
  2  7  1  0  0  0
  3  4  1  0  0  0
  3  5  1  0  0  0
  5  6  1  0  0  0
  5  7  1  0  0  0
  7 10  1  0  0  0
 10 11  1  0  0  0
 10 19  1  0  0  0
 11 12  2  0  0  0
 12 13  1  0  0  0
 13 14  1  0  0  0
 13 19  2  0  0  0
 14 15  1  0  0  0
 14 16  2  0  0  0
 16 17  1  0  0  0
 17 18  2  0  0  0
 18 19  1  0  0  0
 31 33  1  0  0  0
 32 34  1  0  0  0
 26 27  1  0  0  0
  4  8  1  0  0  0
  6  9  1  0  0  0
 15 20  1  0  0  0
 15 21  1  0  0  0
M  END
> <minimizedAffinity>
-7.92780

$$$$
1O0H_ADP_A_1125


 34 36  0  0  0  0  0  0  0  0999 V2000
   36.9367    8.1535   16.9768 C   0  0  0  0  0  0  0  0  0  0  0  0
   36.2435    7.1734   17.7449 O   0  0  0  0  0  0  0  0  0  0  0  0
   37.5134    9.1295   18.0033 C   0  0  0  0  0  0  0  0  0  0  0  0
   36.6552   10.2585   18.0823 O   0  0  0  0  0  0  0  0  0  0  0  0
   37.4852    8.3678   19.3120 C   0  0  0  0  0  0  0  0  0  0  0  0
   37.4716    9.1597   20.4929 O   0  0  0  0  0  0  0  0  0  0  0  0
   36.1991    7.5955   19.0949 C   0  0  0  0  0  0  0  0  0  0  0  0
   35.7569    9.9670   18.3036 H   0  0  0  0  0  0  0  0  0  0  0  0
   36.7064    9.7556   20.4738 H   0  0  0  0  0  0  0  0  0  0  0  0
   36.0469    6.4194   19.9768 N   0  0  0  0  0  0  0  0  0  0  0  0
   35.1543    6.4006   21.0004 C   0  0  0  0  0  0  0  0  0  0  0  0
   35.1493    5.2262   21.6787 N   0  0  0  0  0  0  0  0  0  0  0  0
   36.0926    4.5349   21.0538 C   0  0  0  0  0  0  0  0  0  0  0  0
   36.5903    3.2038   21.2732 C   0  0  0  0  0  0  0  0  0  0  0  0
   36.1037    2.4719   22.2979 N   0  0  0  0  0  0  0  0  0  0  0  0
   37.5541    2.7635   20.4597 N   0  0  0  0  0  0  0  0  0  0  0  0
   38.0361    3.5168   19.4574 C   0  0  0  0  0  0  0  0  0  0  0  0
   37.6384    4.7590   19.1634 N   0  0  0  0  0  0  0  0  0  0  0  0
   36.6889    5.2581   19.9402 C   0  0  0  0  0  0  0  0  0  0  0  0
   35.3924    2.8392   22.8710 H   0  0  0  0  0  0  0  0  0  0  0  0
   36.4601    1.5709   22.4722 H   0  0  0  0  0  0  0  0  0  0  0  0
   37.9145    7.4048   16.0860 C   0  0  0  0  0  0  0  0  0  0  0  0
   37.2410    7.1638   14.8500 O   0  0  0  0  0  0  0  0  0  0  0  0
   37.8561    6.1957   13.7398 P   0  0  0  0  0  0  0  0  0  0  0  0
   37.4698    6.8108   12.4134 O   0  0  0  0  0  0  0  0  0  0  0  0
   39.3231    5.9602   13.9660 O   0  0  0  0  0  0  0  0  0  0  0  0
   39.6658    5.3698   13.2769 H   0  0  0  0  0  0  0  0  0  0  0  0
   37.0133    4.8234   13.8545 O   0  0  0  0  0  0  0  0  0  0  0  0
   35.7484    4.2375   13.0640 P   0  0  0  0  0  0  0  0  0  0  0  0
   36.3006    3.9776   11.6810 O   0  0  0  0  0  0  0  0  0  0  0  0
   35.3609    2.9919   13.7847 O   0  0  0  0  0  0  0  0  0  0  0  0
   34.6964    5.3216   13.0610 O   0  0  0  0  0  0  0  0  0  0  0  0
   34.5940    2.5905   13.3471 H   0  0  0  0  0  0  0  0  0  0  0  0
   33.9091    5.0068   12.5898 H   0  0  0  0  0  0  0  0  0  0  0  0
 29 30  2  0  0  0
 29 31  1  0  0  0
 29 32  1  0  0  0
 29 28  1  0  0  0
 24 25  2  0  0  0
 24 26  1  0  0  0
 24 28  1  0  0  0
 24 23  1  0  0  0
 23 22  1  0  0  0
 22  1  1  0  0  0
  1  2  1  0  0  0
  1  3  1  0  0  0
  2  7  1  0  0  0
  3  4  1  0  0  0
  3  5  1  0  0  0
  5  6  1  0  0  0
  5  7  1  0  0  0
  7 10  1  0  0  0
 10 11  1  0  0  0
 10 19  1  0  0  0
 11 12  2  0  0  0
 12 13  1  0  0  0
 13 14  1  0  0  0
 13 19  2  0  0  0
 14 15  1  0  0  0
 14 16  2  0  0  0
 16 17  1  0  0  0
 17 18  2  0  0  0
 18 19  1  0  0  0
 31 33  1  0  0  0
 32 34  1  0  0  0
 26 27  1  0  0  0
  4  8  1  0  0  0
  6  9  1  0  0  0
 15 20  1  0  0  0
 15 21  1  0  0  0
M  END
> <minimizedAffinity>
-7.87088

$$$$
1O0H_ADP_A_1125


 34 36  0  0  0  0  0  0  0  0999 V2000
   37.9607    6.2435   15.8623 C   0  0  0  0  0  0  0  0  0  0  0  0
   37.5279    6.0562   17.2072 O   0  0  0  0  0  0  0  0  0  0  0  0
   39.2765    5.4713   15.7560 C   0  0  0  0  0  0  0  0  0  0  0  0
   40.3502    6.3909   15.8941 O   0  0  0  0  0  0  0  0  0  0  0  0
   39.2572    4.5202   16.9344 C   0  0  0  0  0  0  0  0  0  0  0  0
   40.5254    4.0587   17.3825 O   0  0  0  0  0  0  0  0  0  0  0  0
   38.5593    5.4182   17.9365 C   0  0  0  0  0  0  0  0  0  0  0  0
   40.2609    6.8683   16.7338 H   0  0  0  0  0  0  0  0  0  0  0  0
   41.0816    4.8182   17.6165 H   0  0  0  0  0  0  0  0  0  0  0  0
   37.9783    4.6972   19.0884 N   0  0  0  0  0  0  0  0  0  0  0  0
   38.3412    3.4250   19.3961 C   0  0  0  0  0  0  0  0  0  0  0  0
   37.7138    2.9460   20.4989 N   0  0  0  0  0  0  0  0  0  0  0  0
   36.9295    3.9593   20.8402 C   0  0  0  0  0  0  0  0  0  0  0  0
   35.9994    4.1096   21.9265 C   0  0  0  0  0  0  0  0  0  0  0  0
   35.7893    3.0769   22.7704 N   0  0  0  0  0  0  0  0  0  0  0  0
   35.3496    5.2725   22.0260 N   0  0  0  0  0  0  0  0  0  0  0  0
   35.5614    6.2801   21.1633 C   0  0  0  0  0  0  0  0  0  0  0  0
   36.4069    6.2468   20.1280 N   0  0  0  0  0  0  0  0  0  0  0  0
   37.0770    5.1156   19.9686 C   0  0  0  0  0  0  0  0  0  0  0  0
   36.2928    2.2385   22.6572 H   0  0  0  0  0  0  0  0  0  0  0  0
   35.1327    3.1624   23.4990 H   0  0  0  0  0  0  0  0  0  0  0  0
   36.8125    5.8106   14.9655 C   0  0  0  0  0  0  0  0  0  0  0  0
   37.2614    4.6574   14.2528 O   0  0  0  0  0  0  0  0  0  0  0  0
   37.0538    4.5179   12.6763 P   0  0  0  0  0  0  0  0  0  0  0  0
   35.5623    4.6374   12.4565 O   0  0  0  0  0  0  0  0  0  0  0  0
   37.9211    5.4838   11.9189 O   0  0  0  0  0  0  0  0  0  0  0  0
   37.7719    5.3742   10.9667 H   0  0  0  0  0  0  0  0  0  0  0  0
   37.4321    2.9873   12.3288 O   0  0  0  0  0  0  0  0  0  0  0  0
   36.7854    1.5752   12.7239 P   0  0  0  0  0  0  0  0  0  0  0  0
   37.8338    0.9589   13.6218 O   0  0  0  0  0  0  0  0  0  0  0  0
   35.5167    1.8954   13.4371 O   0  0  0  0  0  0  0  0  0  0  0  0
   36.6121    0.8007   11.4385 O   0  0  0  0  0  0  0  0  0  0  0  0
   35.0782    1.0718   13.7024 H   0  0  0  0  0  0  0  0  0  0  0  0
   36.2212   -0.0655   11.6332 H   0  0  0  0  0  0  0  0  0  0  0  0
 29 30  2  0  0  0
 29 31  1  0  0  0
 29 32  1  0  0  0
 29 28  1  0  0  0
 24 25  2  0  0  0
 24 26  1  0  0  0
 24 28  1  0  0  0
 24 23  1  0  0  0
 23 22  1  0  0  0
 22  1  1  0  0  0
  1  2  1  0  0  0
  1  3  1  0  0  0
  2  7  1  0  0  0
  3  4  1  0  0  0
  3  5  1  0  0  0
  5  6  1  0  0  0
  5  7  1  0  0  0
  7 10  1  0  0  0
 10 11  1  0  0  0
 10 19  1  0  0  0
 11 12  2  0  0  0
 12 13  1  0  0  0
 13 14  1  0  0  0
 13 19  2  0  0  0
 14 15  1  0  0  0
 14 16  2  0  0  0
 16 17  1  0  0  0
 17 18  2  0  0  0
 18 19  1  0  0  0
 31 33  1  0  0  0
 32 34  1  0  0  0
 26 27  1  0  0  0
  4  8  1  0  0  0
  6  9  1  0  0  0
 15 20  1  0  0  0
 15 21  1  0  0  0
M  END
> <minimizedAffinity>
-7.58622

$$$$
1O0H_ADP_A_1125


 34 36  0  0  0  0  0  0  0  0999 V2000
   36.9964    7.6249   16.5099 C   0  0  0  0  0  0  0  0  0  0  0  0
   36.2299    6.9345   17.4933 O   0  0  0  0  0  0  0  0  0  0  0  0
   37.9758    8.4907   17.3037 C   0  0  0  0  0  0  0  0  0  0  0  0
   37.4578    9.8116   17.3688 O   0  0  0  0  0  0  0  0  0  0  0  0
   37.9943    7.8753   18.6875 C   0  0  0  0  0  0  0  0  0  0  0  0
   38.3940    8.7363   19.7462 O   0  0  0  0  0  0  0  0  0  0  0  0
   36.5380    7.4629   18.7694 C   0  0  0  0  0  0  0  0  0  0  0  0
   36.5705    9.7921   17.7601 H   0  0  0  0  0  0  0  0  0  0  0  0
   37.8128    9.5125   19.7686 H   0  0  0  0  0  0  0  0  0  0  0  0
   36.2572    6.4481   19.8066 N   0  0  0  0  0  0  0  0  0  0  0  0
   35.3582    6.6676   20.8008 C   0  0  0  0  0  0  0  0  0  0  0  0
   35.2258    5.6103   21.6397 N   0  0  0  0  0  0  0  0  0  0  0  0
   36.0983    4.7442   21.1426 C   0  0  0  0  0  0  0  0  0  0  0  0
   36.4539    3.4155   21.5619 C   0  0  0  0  0  0  0  0  0  0  0  0
   35.8851    2.8925   22.6689 N   0  0  0  0  0  0  0  0  0  0  0  0
   37.3744    2.7673   20.8429 N   0  0  0  0  0  0  0  0  0  0  0  0
   37.9407    3.3152   19.7550 C   0  0  0  0  0  0  0  0  0  0  0  0
   37.6760    4.5355   19.2770 N   0  0  0  0  0  0  0  0  0  0  0  0
   36.7761    5.2349   19.9517 C   0  0  0  0  0  0  0  0  0  0  0  0
   35.2104    3.4087   23.1664 H   0  0  0  0  0  0  0  0  0  0  0  0
   36.1450    1.9948   22.9785 H   0  0  0  0  0  0  0  0  0  0  0  0
   37.5767    6.5697   15.5826 C   0  0  0  0  0  0  0  0  0  0  0  0
   36.4693    5.9152   14.9626 O   0  0  0  0  0  0  0  0  0  0  0  0
   36.5992    5.2404   13.5218 P   0  0  0  0  0  0  0  0  0  0  0  0
   37.6570    4.1704   13.6745 O   0  0  0  0  0  0  0  0  0  0  0  0
   35.2630    4.7907   13.0015 O   0  0  0  0  0  0  0  0  0  0  0  0
   35.3759    4.3862   12.1271 H   0  0  0  0  0  0  0  0  0  0  0  0
   37.2497    6.3751   12.5752 O   0  0  0  0  0  0  0  0  0  0  0  0
   38.6212    6.4701   11.7516 P   0  0  0  0  0  0  0  0  0  0  0  0
   38.5396    5.2865   10.8148 O   0  0  0  0  0  0  0  0  0  0  0  0
   38.5802    7.7815   11.0450 O   0  0  0  0  0  0  0  0  0  0  0  0
   39.7421    6.3248   12.7540 O   0  0  0  0  0  0  0  0  0  0  0  0
   39.3918    7.8947   10.5260 H   0  0  0  0  0  0  0  0  0  0  0  0
   40.5950    6.3767   12.2950 H   0  0  0  0  0  0  0  0  0  0  0  0
 29 30  2  0  0  0
 29 31  1  0  0  0
 29 32  1  0  0  0
 29 28  1  0  0  0
 24 25  2  0  0  0
 24 26  1  0  0  0
 24 28  1  0  0  0
 24 23  1  0  0  0
 23 22  1  0  0  0
 22  1  1  0  0  0
  1  2  1  0  0  0
  1  3  1  0  0  0
  2  7  1  0  0  0
  3  4  1  0  0  0
  3  5  1  0  0  0
  5  6  1  0  0  0
  5  7  1  0  0  0
  7 10  1  0  0  0
 10 11  1  0  0  0
 10 19  1  0  0  0
 11 12  2  0  0  0
 12 13  1  0  0  0
 13 14  1  0  0  0
 13 19  2  0  0  0
 14 15  1  0  0  0
 14 16  2  0  0  0
 16 17  1  0  0  0
 17 18  2  0  0  0
 18 19  1  0  0  0
 31 33  1  0  0  0
 32 34  1  0  0  0
 26 27  1  0  0  0
  4  8  1  0  0  0
  6  9  1  0  0  0
 15 20  1  0  0  0
 15 21  1  0  0  0
M  END
> <minimizedAffinity>
-7.37778

$$$$
1O0H_ADP_A_1125


 34 36  0  0  0  0  0  0  0  0999 V2000
   39.4498    5.1041   15.7414 C   0  0  0  0  0  0  0  0  0  0  0  0
   38.4530    4.6930   16.6734 O   0  0  0  0  0  0  0  0  0  0  0  0
   40.3432    6.0744   16.5156 C   0  0  0  0  0  0  0  0  0  0  0  0
   39.9494    7.4012   16.1958 O   0  0  0  0  0  0  0  0  0  0  0  0
   40.0474    5.7858   17.9727 C   0  0  0  0  0  0  0  0  0  0  0  0
   40.3243    6.8409   18.8848 O   0  0  0  0  0  0  0  0  0  0  0  0
   38.5687    5.4782   17.8451 C   0  0  0  0  0  0  0  0  0  0  0  0
   39.0073    7.5160   16.3959 H   0  0  0  0  0  0  0  0  0  0  0  0
   39.8250    7.6313   18.6261 H   0  0  0  0  0  0  0  0  0  0  0  0
   38.0064    4.7385   18.9945 N   0  0  0  0  0  0  0  0  0  0  0  0
   38.4229    3.4860   19.3151 C   0  0  0  0  0  0  0  0  0  0  0  0
   37.8038    2.9857   20.4132 N   0  0  0  0  0  0  0  0  0  0  0  0
   36.9699    3.9642   20.7379 C   0  0  0  0  0  0  0  0  0  0  0  0
   36.0201    4.0786   21.8114 C   0  0  0  0  0  0  0  0  0  0  0  0
   35.8465    3.0426   22.6595 N   0  0  0  0  0  0  0  0  0  0  0  0
   35.3169    5.2112   21.8950 N   0  0  0  0  0  0  0  0  0  0  0  0
   35.4936    6.2222   21.0283 C   0  0  0  0  0  0  0  0  0  0  0  0
   36.3529    6.2212   20.0039 N   0  0  0  0  0  0  0  0  0  0  0  0
   37.0758    5.1207   19.8605 C   0  0  0  0  0  0  0  0  0  0  0  0
   36.3889    2.2273   22.5582 H   0  0  0  0  0  0  0  0  0  0  0  0
   35.1774    3.1024   23.3792 H   0  0  0  0  0  0  0  0  0  0  0  0
   40.0890    3.8389   15.1930 C   0  0  0  0  0  0  0  0  0  0  0  0
   39.0202    2.9733   14.8085 O   0  0  0  0  0  0  0  0  0  0  0  0
   39.0501    2.1739   13.4271 P   0  0  0  0  0  0  0  0  0  0  0  0
   40.2440    2.7182   12.6751 O   0  0  0  0  0  0  0  0  0  0  0  0
   39.0204    0.6880   13.6498 O   0  0  0  0  0  0  0  0  0  0  0  0
   39.0395    0.2323   12.7937 H   0  0  0  0  0  0  0  0  0  0  0  0
   37.7481    2.6752   12.6146 O   0  0  0  0  0  0  0  0  0  0  0  0
   36.3649    3.3520   13.0585 P   0  0  0  0  0  0  0  0  0  0  0  0
   35.9320    4.0923   11.8137 O   0  0  0  0  0  0  0  0  0  0  0  0
   35.4581    2.2248   13.4161 O   0  0  0  0  0  0  0  0  0  0  0  0
   36.6858    4.2929   14.1960 O   0  0  0  0  0  0  0  0  0  0  0  0
   34.5985    2.5774   13.6949 H   0  0  0  0  0  0  0  0  0  0  0  0
   35.8717    4.7261   14.4967 H   0  0  0  0  0  0  0  0  0  0  0  0
 29 30  2  0  0  0
 29 31  1  0  0  0
 29 32  1  0  0  0
 29 28  1  0  0  0
 24 25  2  0  0  0
 24 26  1  0  0  0
 24 28  1  0  0  0
 24 23  1  0  0  0
 23 22  1  0  0  0
 22  1  1  0  0  0
  1  2  1  0  0  0
  1  3  1  0  0  0
  2  7  1  0  0  0
  3  4  1  0  0  0
  3  5  1  0  0  0
  5  6  1  0  0  0
  5  7  1  0  0  0
  7 10  1  0  0  0
 10 11  1  0  0  0
 10 19  1  0  0  0
 11 12  2  0  0  0
 12 13  1  0  0  0
 13 14  1  0  0  0
 13 19  2  0  0  0
 14 15  1  0  0  0
 14 16  2  0  0  0
 16 17  1  0  0  0
 17 18  2  0  0  0
 18 19  1  0  0  0
 31 33  1  0  0  0
 32 34  1  0  0  0
 26 27  1  0  0  0
  4  8  1  0  0  0
  6  9  1  0  0  0
 15 20  1  0  0  0
 15 21  1  0  0  0
M  END
> <minimizedAffinity>
-7.36554

$$$$
1O0H_ADP_A_1125


 34 36  0  0  0  0  0  0  0  0999 V2000
   38.4946    6.8350   15.3084 C   0  0  0  0  0  0  0  0  0  0  0  0
   37.8017    5.9605   16.1952 O   0  0  0  0  0  0  0  0  0  0  0  0
   38.8318    8.0683   16.1477 C   0  0  0  0  0  0  0  0  0  0  0  0
   37.8664    9.0743   15.8768 O   0  0  0  0  0  0  0  0  0  0  0  0
   38.7010    7.6010   17.5823 C   0  0  0  0  0  0  0  0  0  0  0  0
   38.4529    8.6157   18.5471 O   0  0  0  0  0  0  0  0  0  0  0  0
   37.5359    6.6483   17.4031 C   0  0  0  0  0  0  0  0  0  0  0  0
   36.9787    8.7276   16.0574 H   0  0  0  0  0  0  0  0  0  0  0  0
   37.6436    9.0955   18.3109 H   0  0  0  0  0  0  0  0  0  0  0  0
   37.3800    5.6742   18.5036 N   0  0  0  0  0  0  0  0  0  0  0  0
   38.0981    4.5222   18.5496 C   0  0  0  0  0  0  0  0  0  0  0  0
   37.8288    3.7724   19.6472 N   0  0  0  0  0  0  0  0  0  0  0  0
   36.8971    4.4909   20.2586 C   0  0  0  0  0  0  0  0  0  0  0  0
   36.1812    4.2625   21.4846 C   0  0  0  0  0  0  0  0  0  0  0  0
   36.3968    3.1250   22.1791 N   0  0  0  0  0  0  0  0  0  0  0  0
   35.2945    5.1873   21.8628 N   0  0  0  0  0  0  0  0  0  0  0  0
   35.0832    6.3033   21.1458 C   0  0  0  0  0  0  0  0  0  0  0  0
   35.6993    6.6151   20.0008 N   0  0  0  0  0  0  0  0  0  0  0  0
   36.5862    5.7327   19.5660 C   0  0  0  0  0  0  0  0  0  0  0  0
   37.0615    2.4723   21.8606 H   0  0  0  0  0  0  0  0  0  0  0  0
   35.8893    2.9482   23.0040 H   0  0  0  0  0  0  0  0  0  0  0  0
   39.6505    6.0419   14.7212 C   0  0  0  0  0  0  0  0  0  0  0  0
   39.0861    5.1372   13.7713 O   0  0  0  0  0  0  0  0  0  0  0  0
   39.1108    3.5585   14.0062 P   0  0  0  0  0  0  0  0  0  0  0  0
   40.3139    3.0581   13.2385 O   0  0  0  0  0  0  0  0  0  0  0  0
   39.0619    3.2184   15.4692 O   0  0  0  0  0  0  0  0  0  0  0  0
   39.0784    2.2546   15.5779 H   0  0  0  0  0  0  0  0  0  0  0  0
   37.8178    2.9894   13.2243 O   0  0  0  0  0  0  0  0  0  0  0  0
   36.2811    3.4398   13.1618 P   0  0  0  0  0  0  0  0  0  0  0  0
   36.1298    3.9413   11.7438 O   0  0  0  0  0  0  0  0  0  0  0  0
   35.4863    2.2096   13.4371 O   0  0  0  0  0  0  0  0  0  0  0  0
   36.1098    4.5456   14.1766 O   0  0  0  0  0  0  0  0  0  0  0  0
   34.5405    2.4234   13.4120 H   0  0  0  0  0  0  0  0  0  0  0  0
   35.1885    4.8492   14.1716 H   0  0  0  0  0  0  0  0  0  0  0  0
 29 30  2  0  0  0
 29 31  1  0  0  0
 29 32  1  0  0  0
 29 28  1  0  0  0
 24 25  2  0  0  0
 24 26  1  0  0  0
 24 28  1  0  0  0
 24 23  1  0  0  0
 23 22  1  0  0  0
 22  1  1  0  0  0
  1  2  1  0  0  0
  1  3  1  0  0  0
  2  7  1  0  0  0
  3  4  1  0  0  0
  3  5  1  0  0  0
  5  6  1  0  0  0
  5  7  1  0  0  0
  7 10  1  0  0  0
 10 11  1  0  0  0
 10 19  1  0  0  0
 11 12  2  0  0  0
 12 13  1  0  0  0
 13 14  1  0  0  0
 13 19  2  0  0  0
 14 15  1  0  0  0
 14 16  2  0  0  0
 16 17  1  0  0  0
 17 18  2  0  0  0
 18 19  1  0  0  0
 31 33  1  0  0  0
 32 34  1  0  0  0
 26 27  1  0  0  0
  4  8  1  0  0  0
  6  9  1  0  0  0
 15 20  1  0  0  0
 15 21  1  0  0  0
M  END
> <minimizedAffinity>
-7.28083

$$$$
1O0H_ADP_A_1125


 34 36  0  0  0  0  0  0  0  0999 V2000
   37.0882    6.9616   18.6136 C   0  0  0  0  0  0  0  0  0  0  0  0
   36.7974    5.5869   18.8522 O   0  0  0  0  0  0  0  0  0  0  0  0
   37.9046    7.4124   19.8257 C   0  0  0  0  0  0  0  0  0  0  0  0
   37.0364    8.0810   20.7295 O   0  0  0  0  0  0  0  0  0  0  0  0
   38.4056    6.1259   20.4483 C   0  0  0  0  0  0  0  0  0  0  0  0
   38.7423    6.1922   21.8282 O   0  0  0  0  0  0  0  0  0  0  0  0
   37.1967    5.2553   20.1687 C   0  0  0  0  0  0  0  0  0  0  0  0
   36.3027    7.4930   20.9677 H   0  0  0  0  0  0  0  0  0  0  0  0
   37.9718    6.4928   22.3350 H   0  0  0  0  0  0  0  0  0  0  0  0
   37.4670    3.8048   20.2537 N   0  0  0  0  0  0  0  0  0  0  0  0
   36.7557    2.9890   21.0744 C   0  0  0  0  0  0  0  0  0  0  0  0
   37.1387    1.6905   20.9942 N   0  0  0  0  0  0  0  0  0  0  0  0
   38.1316    1.7425   20.1168 C   0  0  0  0  0  0  0  0  0  0  0  0
   38.9735    0.7074   19.5805 C   0  0  0  0  0  0  0  0  0  0  0  0
   38.8308   -0.5609   20.0204 N   0  0  0  0  0  0  0  0  0  0  0  0
   39.8971    1.0657   18.6844 N   0  0  0  0  0  0  0  0  0  0  0  0
   40.0330    2.3378   18.2750 C   0  0  0  0  0  0  0  0  0  0  0  0
   39.2992    3.3705   18.7027 N   0  0  0  0  0  0  0  0  0  0  0  0
   38.3694    3.0826   19.6009 C   0  0  0  0  0  0  0  0  0  0  0  0
   38.1348   -0.7770   20.6823 H   0  0  0  0  0  0  0  0  0  0  0  0
   39.4228   -1.2697   19.6793 H   0  0  0  0  0  0  0  0  0  0  0  0
   37.7485    7.0417   17.2470 C   0  0  0  0  0  0  0  0  0  0  0  0
   36.9185    6.3064   16.3471 O   0  0  0  0  0  0  0  0  0  0  0  0
   37.3582    6.0397   14.8359 P   0  0  0  0  0  0  0  0  0  0  0  0
   36.6236    7.0767   14.0161 O   0  0  0  0  0  0  0  0  0  0  0  0
   38.8541    6.0118   14.6941 O   0  0  0  0  0  0  0  0  0  0  0  0
   39.0880    5.8482   13.7671 H   0  0  0  0  0  0  0  0  0  0  0  0
   36.7014    4.6179   14.4439 O   0  0  0  0  0  0  0  0  0  0  0  0
   35.8171    4.1164   13.2050 P   0  0  0  0  0  0  0  0  0  0  0  0
   36.7938    4.1521   12.0518 O   0  0  0  0  0  0  0  0  0  0  0  0
   35.3730    2.7377   13.5554 O   0  0  0  0  0  0  0  0  0  0  0  0
   34.6995    5.1182   13.0340 O   0  0  0  0  0  0  0  0  0  0  0  0
   34.8293    2.3805   12.8358 H   0  0  0  0  0  0  0  0  0  0  0  0
   34.1369    4.8512   12.2902 H   0  0  0  0  0  0  0  0  0  0  0  0
 29 30  2  0  0  0
 29 31  1  0  0  0
 29 32  1  0  0  0
 29 28  1  0  0  0
 24 25  2  0  0  0
 24 26  1  0  0  0
 24 28  1  0  0  0
 24 23  1  0  0  0
 23 22  1  0  0  0
 22  1  1  0  0  0
  1  2  1  0  0  0
  1  3  1  0  0  0
  2  7  1  0  0  0
  3  4  1  0  0  0
  3  5  1  0  0  0
  5  6  1  0  0  0
  5  7  1  0  0  0
  7 10  1  0  0  0
 10 11  1  0  0  0
 10 19  1  0  0  0
 11 12  2  0  0  0
 12 13  1  0  0  0
 13 14  1  0  0  0
 13 19  2  0  0  0
 14 15  1  0  0  0
 14 16  2  0  0  0
 16 17  1  0  0  0
 17 18  2  0  0  0
 18 19  1  0  0  0
 31 33  1  0  0  0
 32 34  1  0  0  0
 26 27  1  0  0  0
  4  8  1  0  0  0
  6  9  1  0  0  0
 15 20  1  0  0  0
 15 21  1  0  0  0
M  END
> <minimizedAffinity>
-7.23030

$$$$
1O0H_ADP_A_1125


 34 36  0  0  0  0  0  0  0  0999 V2000
   36.7585    7.8923   17.4819 C   0  0  0  0  0  0  0  0  0  0  0  0
   36.6258    6.5477   17.9352 O   0  0  0  0  0  0  0  0  0  0  0  0
   37.8397    8.5077   18.3715 C   0  0  0  0  0  0  0  0  0  0  0  0
   37.2051    9.2528   19.4009 O   0  0  0  0  0  0  0  0  0  0  0  0
   38.5656    7.3196   18.9674 C   0  0  0  0  0  0  0  0  0  0  0  0
   39.2534    7.5591   20.1886 O   0  0  0  0  0  0  0  0  0  0  0  0
   37.3810    6.3865   19.1211 C   0  0  0  0  0  0  0  0  0  0  0  0
   36.5984    8.6757   19.8906 H   0  0  0  0  0  0  0  0  0  0  0  0
   38.6291    7.8947   20.8509 H   0  0  0  0  0  0  0  0  0  0  0  0
   37.7515    4.9650   19.2829 N   0  0  0  0  0  0  0  0  0  0  0  0
   38.7448    4.3945   18.5530 C   0  0  0  0  0  0  0  0  0  0  0  0
   38.9480    3.0896   18.8617 N   0  0  0  0  0  0  0  0  0  0  0  0
   38.0232    2.8707   19.7864 C   0  0  0  0  0  0  0  0  0  0  0  0
   37.6974    1.6869   20.5348 C   0  0  0  0  0  0  0  0  0  0  0  0
   38.3660    0.5399   20.2901 N   0  0  0  0  0  0  0  0  0  0  0  0
   36.7054    1.7733   21.4253 N   0  0  0  0  0  0  0  0  0  0  0  0
   36.0414    2.9213   21.6390 C   0  0  0  0  0  0  0  0  0  0  0  0
   36.2699    4.0763   21.0053 N   0  0  0  0  0  0  0  0  0  0  0  0
   37.2377    4.0549   20.1014 C   0  0  0  0  0  0  0  0  0  0  0  0
   39.0907    0.5251   19.6239 H   0  0  0  0  0  0  0  0  0  0  0  0
   38.1290   -0.2818   20.7779 H   0  0  0  0  0  0  0  0  0  0  0  0
   37.0244    7.8293   15.9868 C   0  0  0  0  0  0  0  0  0  0  0  0
   36.5826    6.5449   15.5458 O   0  0  0  0  0  0  0  0  0  0  0  0
   37.1590    5.8759   14.2160 P   0  0  0  0  0  0  0  0  0  0  0  0
   36.7245    6.7858   13.0890 O   0  0  0  0  0  0  0  0  0  0  0  0
   38.6335    5.6078   14.3288 O   0  0  0  0  0  0  0  0  0  0  0  0
   38.9522    5.2025   13.5072 H   0  0  0  0  0  0  0  0  0  0  0  0
   36.3229    4.5075   14.0286 O   0  0  0  0  0  0  0  0  0  0  0  0
   36.4819    3.2430   13.0570 P   0  0  0  0  0  0  0  0  0  0  0  0
   36.1737    3.8190   11.6938 O   0  0  0  0  0  0  0  0  0  0  0  0
   37.8968    2.7973   13.1994 O   0  0  0  0  0  0  0  0  0  0  0  0
   35.4507    2.2279   13.4910 O   0  0  0  0  0  0  0  0  0  0  0  0
   38.0525    2.0281   12.6294 H   0  0  0  0  0  0  0  0  0  0  0  0
   35.5127    1.4421   12.9257 H   0  0  0  0  0  0  0  0  0  0  0  0
 29 30  2  0  0  0
 29 31  1  0  0  0
 29 32  1  0  0  0
 29 28  1  0  0  0
 24 25  2  0  0  0
 24 26  1  0  0  0
 24 28  1  0  0  0
 24 23  1  0  0  0
 23 22  1  0  0  0
 22  1  1  0  0  0
  1  2  1  0  0  0
  1  3  1  0  0  0
  2  7  1  0  0  0
  3  4  1  0  0  0
  3  5  1  0  0  0
  5  6  1  0  0  0
  5  7  1  0  0  0
  7 10  1  0  0  0
 10 11  1  0  0  0
 10 19  1  0  0  0
 11 12  2  0  0  0
 12 13  1  0  0  0
 13 14  1  0  0  0
 13 19  2  0  0  0
 14 15  1  0  0  0
 14 16  2  0  0  0
 16 17  1  0  0  0
 17 18  2  0  0  0
 18 19  1  0  0  0
 31 33  1  0  0  0
 32 34  1  0  0  0
 26 27  1  0  0  0
  4  8  1  0  0  0
  6  9  1  0  0  0
 15 20  1  0  0  0
 15 21  1  0  0  0
M  END
> <minimizedAffinity>
-7.19670

$$$$
1O0H_ADP_A_1125


 34 36  0  0  0  0  0  0  0  0999 V2000
   37.9725    6.3571   16.1030 C   0  0  0  0  0  0  0  0  0  0  0  0
   37.6258    6.1255   17.4659 O   0  0  0  0  0  0  0  0  0  0  0  0
   39.1226    5.3911   15.8149 C   0  0  0  0  0  0  0  0  0  0  0  0
   40.3462    6.1053   15.9165 O   0  0  0  0  0  0  0  0  0  0  0  0
   39.0368    4.3558   16.9170 C   0  0  0  0  0  0  0  0  0  0  0  0
   40.2390    3.6539   17.2065 O   0  0  0  0  0  0  0  0  0  0  0  0
   38.5883    5.2644   18.0443 C   0  0  0  0  0  0  0  0  0  0  0  0
   40.4096    6.5149   16.7935 H   0  0  0  0  0  0  0  0  0  0  0  0
   40.9349    4.2876   17.4411 H   0  0  0  0  0  0  0  0  0  0  0  0
   37.9885    4.5501   19.1907 N   0  0  0  0  0  0  0  0  0  0  0  0
   38.3330    3.2733   19.5008 C   0  0  0  0  0  0  0  0  0  0  0  0
   37.6901    2.8016   20.5978 N   0  0  0  0  0  0  0  0  0  0  0  0
   36.9154    3.8243   20.9329 C   0  0  0  0  0  0  0  0  0  0  0  0
   35.9777    3.9856   22.0110 C   0  0  0  0  0  0  0  0  0  0  0  0
   35.7476    2.9552   22.8525 N   0  0  0  0  0  0  0  0  0  0  0  0
   35.3415    5.1563   22.1055 N   0  0  0  0  0  0  0  0  0  0  0  0
   35.5732    6.1616   21.2453 C   0  0  0  0  0  0  0  0  0  0  0  0
   36.4272    6.1184   20.2174 N   0  0  0  0  0  0  0  0  0  0  0  0
   37.0847    4.9791   20.0632 C   0  0  0  0  0  0  0  0  0  0  0  0
   36.2416    2.1107   22.7432 H   0  0  0  0  0  0  0  0  0  0  0  0
   35.0857    3.0483   23.5753 H   0  0  0  0  0  0  0  0  0  0  0  0
   36.6973    6.2003   15.2910 C   0  0  0  0  0  0  0  0  0  0  0  0
   36.8368    4.9951   14.5376 O   0  0  0  0  0  0  0  0  0  0  0  0
   35.9861    4.7372   13.2117 P   0  0  0  0  0  0  0  0  0  0  0  0
   35.4194    3.3434   13.3642 O   0  0  0  0  0  0  0  0  0  0  0  0
   34.9940    5.8400   12.9705 O   0  0  0  0  0  0  0  0  0  0  0  0
   34.4946    5.6540   12.1600 H   0  0  0  0  0  0  0  0  0  0  0  0
   37.0703    4.6470   12.0188 O   0  0  0  0  0  0  0  0  0  0  0  0
   38.5177    5.2969   11.7935 P   0  0  0  0  0  0  0  0  0  0  0  0
   39.4509    4.2657   12.3859 O   0  0  0  0  0  0  0  0  0  0  0  0
   38.6698    5.4473   10.3186 O   0  0  0  0  0  0  0  0  0  0  0  0
   38.5384    6.5934   12.5685 O   0  0  0  0  0  0  0  0  0  0  0  0
   39.5349    5.8393   10.1211 H   0  0  0  0  0  0  0  0  0  0  0  0
   39.4017    7.0219   12.4589 H   0  0  0  0  0  0  0  0  0  0  0  0
 29 30  2  0  0  0
 29 31  1  0  0  0
 29 32  1  0  0  0
 29 28  1  0  0  0
 24 25  2  0  0  0
 24 26  1  0  0  0
 24 28  1  0  0  0
 24 23  1  0  0  0
 23 22  1  0  0  0
 22  1  1  0  0  0
  1  2  1  0  0  0
  1  3  1  0  0  0
  2  7  1  0  0  0
  3  4  1  0  0  0
  3  5  1  0  0  0
  5  6  1  0  0  0
  5  7  1  0  0  0
  7 10  1  0  0  0
 10 11  1  0  0  0
 10 19  1  0  0  0
 11 12  2  0  0  0
 12 13  1  0  0  0
 13 14  1  0  0  0
 13 19  2  0  0  0
 14 15  1  0  0  0
 14 16  2  0  0  0
 16 17  1  0  0  0
 17 18  2  0  0  0
 18 19  1  0  0  0
 31 33  1  0  0  0
 32 34  1  0  0  0
 26 27  1  0  0  0
  4  8  1  0  0  0
  6  9  1  0  0  0
 15 20  1  0  0  0
 15 21  1  0  0  0
M  END
> <minimizedAffinity>
-7.10380

$$$$
1O0H_ADP_A_1125


 34 36  0  0  0  0  0  0  0  0999 V2000
   38.1864    6.0119   16.4009 C   0  0  0  0  0  0  0  0  0  0  0  0
   38.2220    4.7969   15.6568 O   0  0  0  0  0  0  0  0  0  0  0  0
   37.4754    7.0153   15.4916 C   0  0  0  0  0  0  0  0  0  0  0  0
   38.4580    7.8114   14.8450 O   0  0  0  0  0  0  0  0  0  0  0  0
   36.7517    6.1604   14.4722 C   0  0  0  0  0  0  0  0  0  0  0  0
   36.4431    6.7927   13.2366 O   0  0  0  0  0  0  0  0  0  0  0  0
   37.7785    5.0536   14.3377 C   0  0  0  0  0  0  0  0  0  0  0  0
   39.0734    7.2371   14.3629 H   0  0  0  0  0  0  0  0  0  0  0  0
   37.2594    7.1223   12.8292 H   0  0  0  0  0  0  0  0  0  0  0  0
   37.2476    3.8091   13.7428 N   0  0  0  0  0  0  0  0  0  0  0  0
   35.9138    3.5880   13.6124 C   0  0  0  0  0  0  0  0  0  0  0  0
   35.6278    2.3998   13.0245 N   0  0  0  0  0  0  0  0  0  0  0  0
   36.8337    1.8853   12.8258 C   0  0  0  0  0  0  0  0  0  0  0  0
   37.2438    0.6396   12.2360 C   0  0  0  0  0  0  0  0  0  0  0  0
   36.3077   -0.2420   11.8248 N   0  0  0  0  0  0  0  0  0  0  0  0
   38.5549    0.3963   12.1573 N   0  0  0  0  0  0  0  0  0  0  0  0
   39.4683    1.2810   12.5900 C   0  0  0  0  0  0  0  0  0  0  0  0
   39.1946    2.4666   13.1442 N   0  0  0  0  0  0  0  0  0  0  0  0
   37.9093    2.7648   13.2594 C   0  0  0  0  0  0  0  0  0  0  0  0
   35.3522   -0.0177   11.9030 H   0  0  0  0  0  0  0  0  0  0  0  0
   36.5805   -1.1091   11.4468 H   0  0  0  0  0  0  0  0  0  0  0  0
   37.5418    5.6904   17.7393 C   0  0  0  0  0  0  0  0  0  0  0  0
   38.2209    4.5457   18.2567 O   0  0  0  0  0  0  0  0  0  0  0  0
   38.0122    4.0625   19.7637 P   0  0  0  0  0  0  0  0  0  0  0  0
   37.9407    2.5535   19.6943 O   0  0  0  0  0  0  0  0  0  0  0  0
   39.0555    4.6415   20.6774 O   0  0  0  0  0  0  0  0  0  0  0  0
   38.9013    4.3297   21.5829 H   0  0  0  0  0  0  0  0  0  0  0  0
   36.5305    4.5584   20.1705 O   0  0  0  0  0  0  0  0  0  0  0  0
   35.9549    5.4302   21.3858 P   0  0  0  0  0  0  0  0  0  0  0  0
   34.8148    6.1920   20.7495 O   0  0  0  0  0  0  0  0  0  0  0  0
   35.5039    4.4480   22.4118 O   0  0  0  0  0  0  0  0  0  0  0  0
   37.0707    6.3457   21.8318 O   0  0  0  0  0  0  0  0  0  0  0  0
   35.1430    4.9224   23.1770 H   0  0  0  0  0  0  0  0  0  0  0  0
   36.7632    6.8943   22.5702 H   0  0  0  0  0  0  0  0  0  0  0  0
 29 30  2  0  0  0
 29 31  1  0  0  0
 29 32  1  0  0  0
 29 28  1  0  0  0
 24 25  2  0  0  0
 24 26  1  0  0  0
 24 28  1  0  0  0
 24 23  1  0  0  0
 23 22  1  0  0  0
 22  1  1  0  0  0
  1  2  1  0  0  0
  1  3  1  0  0  0
  2  7  1  0  0  0
  3  4  1  0  0  0
  3  5  1  0  0  0
  5  6  1  0  0  0
  5  7  1  0  0  0
  7 10  1  0  0  0
 10 11  1  0  0  0
 10 19  1  0  0  0
 11 12  2  0  0  0
 12 13  1  0  0  0
 13 14  1  0  0  0
 13 19  2  0  0  0
 14 15  1  0  0  0
 14 16  2  0  0  0
 16 17  1  0  0  0
 17 18  2  0  0  0
 18 19  1  0  0  0
 31 33  1  0  0  0
 32 34  1  0  0  0
 26 27  1  0  0  0
  4  8  1  0  0  0
  6  9  1  0  0  0
 15 20  1  0  0  0
 15 21  1  0  0  0
M  END
> <minimizedAffinity>
-7.05198

$$$$
