4LZS_L46_A_201


 17 17  0  0  0  0  0  0  0  0999 V2000
   12.4295   38.3311   77.4120 C   0  0  0  0  0  0  0  0  0  0  0  0
   11.3708   37.4812   77.0811 C   0  0  0  0  0  0  0  0  0  0  0  0
   10.2222   38.0200   77.8733 C   0  0  0  0  0  0  0  0  0  0  0  0
   11.9219   39.3320   78.3873 C   0  0  0  0  0  0  0  0  0  0  0  0
   12.6837   40.4533   79.0425 C   0  0  0  0  0  0  0  0  0  0  0  0
   10.6199   39.0788   78.5995 N   0  0  0  0  0  0  0  0  0  0  0  0
   10.0385   39.5962   79.2024 H   0  0  0  0  0  0  0  0  0  0  0  0
    8.8478   37.4312   77.8650 C   0  0  0  0  0  0  0  0  0  0  0  0
    8.2473   37.3036   79.0582 N   0  0  0  0  0  0  0  0  0  0  0  0
    8.3037   37.0960   76.8172 O   0  0  0  0  0  0  0  0  0  0  0  0
    6.8812   36.7990   79.2156 C   0  0  0  0  0  0  0  0  0  0  0  0
    8.7483   37.5611   79.8655 H   0  0  0  0  0  0  0  0  0  0  0  0
   13.8557   38.2840   76.9417 C   0  0  0  0  0  0  0  0  0  0  0  0
   14.7379   37.1582   77.4122 C   0  0  0  0  0  0  0  0  0  0  0  0
   14.3152   39.1620   76.2357 O   0  0  0  0  0  0  0  0  0  0  0  0
   11.2256   36.8332   74.6986 C   0  0  0  0  0  0  0  0  0  0  0  0
   11.3592   36.3161   76.1206 C   0  0  0  0  0  0  0  0  0  0  0  0
 16 17  1  0  0  0
 17  2  1  0  0  0
 10  8  2  0  0  0
 14 13  1  0  0  0
  2  1  1  0  0  0
  2  3  2  0  0  0
 13 15  2  0  0  0
 13  1  1  0  0  0
  1  4  2  0  0  0
  8  3  1  0  0  0
  8  9  1  0  0  0
  3  6  1  0  0  0
  4  6  1  0  0  0
  4  5  1  0  0  0
 11  9  1  0  0  0
  6  7  1  0  0  0
  9 12  1  0  0  0
M  END
> <minimizedAffinity>
-6.11513

$$$$
4LZS_L46_A_201


 17 17  0  0  0  0  0  0  0  0999 V2000
   11.6789   37.8944   77.0166 C   0  0  0  0  0  0  0  0  0  0  0  0
   12.7801   38.7153   77.2741 C   0  0  0  0  0  0  0  0  0  0  0  0
   12.3336   39.5567   78.4271 C   0  0  0  0  0  0  0  0  0  0  0  0
   10.6063   38.2562   77.9805 C   0  0  0  0  0  0  0  0  0  0  0  0
    9.2295   37.6585   78.0988 C   0  0  0  0  0  0  0  0  0  0  0  0
   11.0745   39.2359   78.7712 N   0  0  0  0  0  0  0  0  0  0  0  0
   10.5667   39.6595   79.5006 H   0  0  0  0  0  0  0  0  0  0  0  0
   13.1731   40.6152   79.0680 C   0  0  0  0  0  0  0  0  0  0  0  0
   12.8706   40.9280   80.3373 N   0  0  0  0  0  0  0  0  0  0  0  0
   14.0930   41.1547   78.4604 O   0  0  0  0  0  0  0  0  0  0  0  0
   13.6320   41.9011   81.1240 C   0  0  0  0  0  0  0  0  0  0  0  0
   12.1008   40.4826   80.7596 H   0  0  0  0  0  0  0  0  0  0  0  0
   11.5169   36.8436   75.9549 C   0  0  0  0  0  0  0  0  0  0  0  0
   10.8715   37.2251   74.6491 C   0  0  0  0  0  0  0  0  0  0  0  0
   11.8497   35.6905   76.1545 O   0  0  0  0  0  0  0  0  0  0  0  0
   14.9473   37.5436   77.0551 C   0  0  0  0  0  0  0  0  0  0  0  0
   14.1257   38.7334   76.5892 C   0  0  0  0  0  0  0  0  0  0  0  0
 16 17  1  0  0  0
 17  2  1  0  0  0
 10  8  2  0  0  0
 14 13  1  0  0  0
  2  1  1  0  0  0
  2  3  2  0  0  0
 13 15  2  0  0  0
 13  1  1  0  0  0
  1  4  2  0  0  0
  8  3  1  0  0  0
  8  9  1  0  0  0
  3  6  1  0  0  0
  4  6  1  0  0  0
  4  5  1  0  0  0
 11  9  1  0  0  0
  6  7  1  0  0  0
  9 12  1  0  0  0
M  END
> <minimizedAffinity>
-6.04309

$$$$
4LZS_L46_A_201


 17 17  0  0  0  0  0  0  0  0999 V2000
   13.5889   40.2492   78.9664 C   0  0  0  0  0  0  0  0  0  0  0  0
   13.1043   39.3617   78.0019 C   0  0  0  0  0  0  0  0  0  0  0  0
   11.6598   39.2057   78.3569 C   0  0  0  0  0  0  0  0  0  0  0  0
   12.4637   40.5917   79.8759 C   0  0  0  0  0  0  0  0  0  0  0  0
   12.4873   41.5055   81.0722 C   0  0  0  0  0  0  0  0  0  0  0  0
   11.3710   39.9398   79.4453 N   0  0  0  0  0  0  0  0  0  0  0  0
   10.4833   39.9923   79.8676 H   0  0  0  0  0  0  0  0  0  0  0  0
   10.7024   38.3313   77.6121 C   0  0  0  0  0  0  0  0  0  0  0  0
    9.6177   37.9240   78.2889 N   0  0  0  0  0  0  0  0  0  0  0  0
   10.9023   38.0179   76.4424 O   0  0  0  0  0  0  0  0  0  0  0  0
    8.5578   37.1120   77.6863 C   0  0  0  0  0  0  0  0  0  0  0  0
    9.5301   38.1829   79.2347 H   0  0  0  0  0  0  0  0  0  0  0  0
   14.9846   40.7769   79.1422 C   0  0  0  0  0  0  0  0  0  0  0  0
   15.2164   41.9068   80.1100 C   0  0  0  0  0  0  0  0  0  0  0  0
   15.9097   40.3425   78.4821 O   0  0  0  0  0  0  0  0  0  0  0  0
   14.4701   37.4256   77.2921 C   0  0  0  0  0  0  0  0  0  0  0  0
   13.8393   38.7324   76.8427 C   0  0  0  0  0  0  0  0  0  0  0  0
 16 17  1  0  0  0
 17  2  1  0  0  0
 10  8  2  0  0  0
 14 13  1  0  0  0
  2  1  1  0  0  0
  2  3  2  0  0  0
 13 15  2  0  0  0
 13  1  1  0  0  0
  1  4  2  0  0  0
  8  3  1  0  0  0
  8  9  1  0  0  0
  3  6  1  0  0  0
  4  6  1  0  0  0
  4  5  1  0  0  0
 11  9  1  0  0  0
  6  7  1  0  0  0
  9 12  1  0  0  0
M  END
> <minimizedAffinity>
-5.74047

$$$$
4LZS_L46_A_201


 17 17  0  0  0  0  0  0  0  0999 V2000
   10.5239   37.4733   75.8983 C   0  0  0  0  0  0  0  0  0  0  0  0
   11.8894   37.7697   75.8886 C   0  0  0  0  0  0  0  0  0  0  0  0
   12.2010   38.0540   77.3236 C   0  0  0  0  0  0  0  0  0  0  0  0
   10.0409   37.5982   77.2989 C   0  0  0  0  0  0  0  0  0  0  0  0
    8.6439   37.3840   77.8177 C   0  0  0  0  0  0  0  0  0  0  0  0
   11.0880   37.9387   78.0683 N   0  0  0  0  0  0  0  0  0  0  0  0
   11.0461   38.0835   79.0412 H   0  0  0  0  0  0  0  0  0  0  0  0
   13.5553   38.4379   77.8279 C   0  0  0  0  0  0  0  0  0  0  0  0
   13.7870   39.7518   77.9716 N   0  0  0  0  0  0  0  0  0  0  0  0
   14.3981   37.5890   78.1023 O   0  0  0  0  0  0  0  0  0  0  0  0
   15.0400   40.2886   78.5076 C   0  0  0  0  0  0  0  0  0  0  0  0
   13.0818   40.3846   77.7043 H   0  0  0  0  0  0  0  0  0  0  0  0
    9.6295   37.1223   74.7431 C   0  0  0  0  0  0  0  0  0  0  0  0
    8.7589   38.1966   74.1472 C   0  0  0  0  0  0  0  0  0  0  0  0
    9.5625   35.9827   74.3223 O   0  0  0  0  0  0  0  0  0  0  0  0
   13.5431   36.4181   74.6412 C   0  0  0  0  0  0  0  0  0  0  0  0
   12.8487   37.7667   74.7225 C   0  0  0  0  0  0  0  0  0  0  0  0
 16 17  1  0  0  0
 17  2  1  0  0  0
 10  8  2  0  0  0
 14 13  1  0  0  0
  2  1  1  0  0  0
  2  3  2  0  0  0
 13 15  2  0  0  0
 13  1  1  0  0  0
  1  4  2  0  0  0
  8  3  1  0  0  0
  8  9  1  0  0  0
  3  6  1  0  0  0
  4  6  1  0  0  0
  4  5  1  0  0  0
 11  9  1  0  0  0
  6  7  1  0  0  0
  9 12  1  0  0  0
M  END
> <minimizedAffinity>
-5.62912

$$$$
4LZS_L46_A_201


 17 17  0  0  0  0  0  0  0  0999 V2000
   12.3976   38.2338   77.1700 C   0  0  0  0  0  0  0  0  0  0  0  0
   12.0977   37.4815   76.0312 C   0  0  0  0  0  0  0  0  0  0  0  0
   13.4231   37.3101   75.3598 C   0  0  0  0  0  0  0  0  0  0  0  0
   13.8578   38.5134   77.1591 C   0  0  0  0  0  0  0  0  0  0  0  0
   14.6576   39.2917   78.1697 C   0  0  0  0  0  0  0  0  0  0  0  0
   14.3815   37.9340   76.0662 N   0  0  0  0  0  0  0  0  0  0  0  0
   15.3336   37.9623   75.8176 H   0  0  0  0  0  0  0  0  0  0  0  0
   13.6234   36.5729   74.0744 C   0  0  0  0  0  0  0  0  0  0  0  0
   13.8699   37.3232   72.9896 N   0  0  0  0  0  0  0  0  0  0  0  0
   13.5733   35.3475   74.0273 O   0  0  0  0  0  0  0  0  0  0  0  0
   14.1448   36.7528   71.6687 C   0  0  0  0  0  0  0  0  0  0  0  0
   13.8658   38.3030   73.0860 H   0  0  0  0  0  0  0  0  0  0  0  0
   11.4665   38.7392   78.2354 C   0  0  0  0  0  0  0  0  0  0  0  0
   10.6484   37.7444   79.0154 C   0  0  0  0  0  0  0  0  0  0  0  0
   11.3289   39.9310   78.4377 O   0  0  0  0  0  0  0  0  0  0  0  0
   10.0580   37.9464   74.7116 C   0  0  0  0  0  0  0  0  0  0  0  0
   10.7645   36.9273   75.5890 C   0  0  0  0  0  0  0  0  0  0  0  0
 16 17  1  0  0  0
 17  2  1  0  0  0
 10  8  2  0  0  0
 14 13  1  0  0  0
  2  1  1  0  0  0
  2  3  2  0  0  0
 13 15  2  0  0  0
 13  1  1  0  0  0
  1  4  2  0  0  0
  8  3  1  0  0  0
  8  9  1  0  0  0
  3  6  1  0  0  0
  4  6  1  0  0  0
  4  5  1  0  0  0
 11  9  1  0  0  0
  6  7  1  0  0  0
  9 12  1  0  0  0
M  END
> <minimizedAffinity>
-5.52583

$$$$
4LZS_L46_A_201


 17 17  0  0  0  0  0  0  0  0999 V2000
   11.4903   38.0366   76.8914 C   0  0  0  0  0  0  0  0  0  0  0  0
   12.7119   37.8595   76.2362 C   0  0  0  0  0  0  0  0  0  0  0  0
   12.3221   37.3089   74.9013 C   0  0  0  0  0  0  0  0  0  0  0  0
   10.4118   37.5845   75.9732 C   0  0  0  0  0  0  0  0  0  0  0  0
    8.9275   37.5731   76.2254 C   0  0  0  0  0  0  0  0  0  0  0  0
   10.9864   37.1769   74.8296 N   0  0  0  0  0  0  0  0  0  0  0  0
   10.4978   36.8300   74.0485 H   0  0  0  0  0  0  0  0  0  0  0  0
   13.2967   36.9388   73.8294 C   0  0  0  0  0  0  0  0  0  0  0  0
   13.1662   37.5807   72.6582 N   0  0  0  0  0  0  0  0  0  0  0  0
   14.1712   36.0999   74.0242 O   0  0  0  0  0  0  0  0  0  0  0  0
   14.0751   37.3748   71.5282 C   0  0  0  0  0  0  0  0  0  0  0  0
   12.4247   38.2199   72.5536 H   0  0  0  0  0  0  0  0  0  0  0  0
   11.2337   38.5470   78.2810 C   0  0  0  0  0  0  0  0  0  0  0  0
   11.6694   39.9448   78.6324 C   0  0  0  0  0  0  0  0  0  0  0  0
   10.7313   37.8353   79.1303 O   0  0  0  0  0  0  0  0  0  0  0  0
   14.5035   37.1881   77.8036 C   0  0  0  0  0  0  0  0  0  0  0  0
   14.1029   38.1822   76.7272 C   0  0  0  0  0  0  0  0  0  0  0  0
 16 17  1  0  0  0
 17  2  1  0  0  0
 10  8  2  0  0  0
 14 13  1  0  0  0
  2  1  1  0  0  0
  2  3  2  0  0  0
 13 15  2  0  0  0
 13  1  1  0  0  0
  1  4  2  0  0  0
  8  3  1  0  0  0
  8  9  1  0  0  0
  3  6  1  0  0  0
  4  6  1  0  0  0
  4  5  1  0  0  0
 11  9  1  0  0  0
  6  7  1  0  0  0
  9 12  1  0  0  0
M  END
> <minimizedAffinity>
-5.44409

$$$$
4LZS_L46_A_201


 17 17  0  0  0  0  0  0  0  0999 V2000
   12.3230   37.9734   76.6656 C   0  0  0  0  0  0  0  0  0  0  0  0
   11.8076   37.8101   75.3770 C   0  0  0  0  0  0  0  0  0  0  0  0
   12.9978   37.4038   74.5675 C   0  0  0  0  0  0  0  0  0  0  0  0
   13.7814   37.6891   76.6118 C   0  0  0  0  0  0  0  0  0  0  0  0
   14.7747   37.7362   77.7422 C   0  0  0  0  0  0  0  0  0  0  0  0
   14.0921   37.3610   75.3469 N   0  0  0  0  0  0  0  0  0  0  0  0
   14.9948   37.1225   75.0345 H   0  0  0  0  0  0  0  0  0  0  0  0
   12.9573   37.1206   73.0999 C   0  0  0  0  0  0  0  0  0  0  0  0
   13.9967   37.5672   72.3782 N   0  0  0  0  0  0  0  0  0  0  0  0
   12.0244   36.5034   72.5948 O   0  0  0  0  0  0  0  0  0  0  0  0
   14.1358   37.3223   70.9407 C   0  0  0  0  0  0  0  0  0  0  0  0
   14.6986   38.0836   72.8363 H   0  0  0  0  0  0  0  0  0  0  0  0
   11.6080   38.3945   77.9181 C   0  0  0  0  0  0  0  0  0  0  0  0
   11.8561   39.7750   78.4659 C   0  0  0  0  0  0  0  0  0  0  0  0
   10.8799   37.6250   78.5165 O   0  0  0  0  0  0  0  0  0  0  0  0
    9.5880   36.7228   75.2824 C   0  0  0  0  0  0  0  0  0  0  0  0
   10.3818   37.9613   74.9035 C   0  0  0  0  0  0  0  0  0  0  0  0
 16 17  1  0  0  0
 17  2  1  0  0  0
 10  8  2  0  0  0
 14 13  1  0  0  0
  2  1  1  0  0  0
  2  3  2  0  0  0
 13 15  2  0  0  0
 13  1  1  0  0  0
  1  4  2  0  0  0
  8  3  1  0  0  0
  8  9  1  0  0  0
  3  6  1  0  0  0
  4  6  1  0  0  0
  4  5  1  0  0  0
 11  9  1  0  0  0
  6  7  1  0  0  0
  9 12  1  0  0  0
M  END
> <minimizedAffinity>
-5.32639

$$$$
4LZS_L46_A_201


 17 17  0  0  0  0  0  0  0  0999 V2000
   12.4541   38.0371   76.4115 C   0  0  0  0  0  0  0  0  0  0  0  0
   12.1054   37.6595   75.1121 C   0  0  0  0  0  0  0  0  0  0  0  0
   10.6162   37.5318   75.1672 C   0  0  0  0  0  0  0  0  0  0  0  0
   11.2051   38.1113   77.2146 C   0  0  0  0  0  0  0  0  0  0  0  0
   11.0614   38.4708   78.6696 C   0  0  0  0  0  0  0  0  0  0  0  0
   10.1761   37.8033   76.4079 N   0  0  0  0  0  0  0  0  0  0  0  0
    9.2321   37.7797   76.6864 H   0  0  0  0  0  0  0  0  0  0  0  0
    9.7650   37.1303   74.0053 C   0  0  0  0  0  0  0  0  0  0  0  0
    9.0385   38.1035   73.4347 N   0  0  0  0  0  0  0  0  0  0  0  0
    9.7474   35.9729   73.5972 O   0  0  0  0  0  0  0  0  0  0  0  0
    8.1990   37.8867   72.2540 C   0  0  0  0  0  0  0  0  0  0  0  0
    9.0711   39.0054   73.8280 H   0  0  0  0  0  0  0  0  0  0  0  0
   13.8199   38.2998   76.9801 C   0  0  0  0  0  0  0  0  0  0  0  0
   14.4756   37.2322   77.8153 C   0  0  0  0  0  0  0  0  0  0  0  0
   14.3735   39.3711   76.8190 O   0  0  0  0  0  0  0  0  0  0  0  0
   13.6430   36.0886   73.9783 C   0  0  0  0  0  0  0  0  0  0  0  0
   13.0012   37.4638   73.9124 C   0  0  0  0  0  0  0  0  0  0  0  0
 16 17  1  0  0  0
 17  2  1  0  0  0
 10  8  2  0  0  0
 14 13  1  0  0  0
  2  1  1  0  0  0
  2  3  2  0  0  0
 13 15  2  0  0  0
 13  1  1  0  0  0
  1  4  2  0  0  0
  8  3  1  0  0  0
  8  9  1  0  0  0
  3  6  1  0  0  0
  4  6  1  0  0  0
  4  5  1  0  0  0
 11  9  1  0  0  0
  6  7  1  0  0  0
  9 12  1  0  0  0
M  END
> <minimizedAffinity>
-5.13809

$$$$
4LZS_L46_A_201


 17 17  0  0  0  0  0  0  0  0999 V2000
   12.1951   37.7157   76.0989 C   0  0  0  0  0  0  0  0  0  0  0  0
   12.3380   38.5378   77.2198 C   0  0  0  0  0  0  0  0  0  0  0  0
   13.7896   38.8979   77.2132 C   0  0  0  0  0  0  0  0  0  0  0  0
   13.5311   37.5805   75.4605 C   0  0  0  0  0  0  0  0  0  0  0  0
   13.8918   36.7927   74.2292 C   0  0  0  0  0  0  0  0  0  0  0  0
   14.4062   38.3066   76.1754 N   0  0  0  0  0  0  0  0  0  0  0  0
   15.3648   38.3936   75.9684 H   0  0  0  0  0  0  0  0  0  0  0  0
   14.4431   39.7671   78.2395 C   0  0  0  0  0  0  0  0  0  0  0  0
   13.6222   40.4770   79.0287 N   0  0  0  0  0  0  0  0  0  0  0  0
   15.6644   39.8133   78.3523 O   0  0  0  0  0  0  0  0  0  0  0  0
   14.1014   41.3306   80.1184 C   0  0  0  0  0  0  0  0  0  0  0  0
   12.6525   40.4215   78.8678 H   0  0  0  0  0  0  0  0  0  0  0  0
   10.9613   37.0262   75.5894 C   0  0  0  0  0  0  0  0  0  0  0  0
    9.8313   37.8641   75.0526 C   0  0  0  0  0  0  0  0  0  0  0  0
   10.8445   35.8168   75.6524 O   0  0  0  0  0  0  0  0  0  0  0  0
   10.7366   37.8030   78.9557 C   0  0  0  0  0  0  0  0  0  0  0  0
   11.2806   38.9994   78.1940 C   0  0  0  0  0  0  0  0  0  0  0  0
 16 17  1  0  0  0
 17  2  1  0  0  0
 10  8  2  0  0  0
 14 13  1  0  0  0
  2  1  1  0  0  0
  2  3  2  0  0  0
 13 15  2  0  0  0
 13  1  1  0  0  0
  1  4  2  0  0  0
  8  3  1  0  0  0
  8  9  1  0  0  0
  3  6  1  0  0  0
  4  6  1  0  0  0
  4  5  1  0  0  0
 11  9  1  0  0  0
  6  7  1  0  0  0
  9 12  1  0  0  0
M  END
> <minimizedAffinity>
-5.11432

$$$$
4LZS_L46_A_201


 17 17  0  0  0  0  0  0  0  0999 V2000
   12.4731   38.3427   77.7544 C   0  0  0  0  0  0  0  0  0  0  0  0
   11.7078   37.4227   77.0328 C   0  0  0  0  0  0  0  0  0  0  0  0
   10.2978   37.8194   77.3351 C   0  0  0  0  0  0  0  0  0  0  0  0
   11.5380   39.2450   78.4770 C   0  0  0  0  0  0  0  0  0  0  0  0
   11.8805   40.3928   79.3892 C   0  0  0  0  0  0  0  0  0  0  0  0
   10.2844   38.8701   78.1733 N   0  0  0  0  0  0  0  0  0  0  0  0
    9.4701   39.3041   78.5165 H   0  0  0  0  0  0  0  0  0  0  0  0
    9.0941   37.1157   76.7951 C   0  0  0  0  0  0  0  0  0  0  0  0
    9.0136   37.0127   75.4596 N   0  0  0  0  0  0  0  0  0  0  0  0
    8.2376   36.6520   77.5419 O   0  0  0  0  0  0  0  0  0  0  0  0
    7.9288   36.3040   74.7764 C   0  0  0  0  0  0  0  0  0  0  0  0
    9.7165   37.4331   74.9133 H   0  0  0  0  0  0  0  0  0  0  0  0
   13.9683   38.4427   77.8625 C   0  0  0  0  0  0  0  0  0  0  0  0
   14.6257   39.7756   77.6206 C   0  0  0  0  0  0  0  0  0  0  0  0
   14.6502   37.4609   78.0892 O   0  0  0  0  0  0  0  0  0  0  0  0
   12.6274   36.8984   74.7974 C   0  0  0  0  0  0  0  0  0  0  0  0
   12.1755   36.3116   76.1236 C   0  0  0  0  0  0  0  0  0  0  0  0
 16 17  1  0  0  0
 17  2  1  0  0  0
 10  8  2  0  0  0
 14 13  1  0  0  0
  2  1  1  0  0  0
  2  3  2  0  0  0
 13 15  2  0  0  0
 13  1  1  0  0  0
  1  4  2  0  0  0
  8  3  1  0  0  0
  8  9  1  0  0  0
  3  6  1  0  0  0
  4  6  1  0  0  0
  4  5  1  0  0  0
 11  9  1  0  0  0
  6  7  1  0  0  0
  9 12  1  0  0  0
M  END
> <minimizedAffinity>
-5.01573

$$$$
