3EXE_TPP_A_1005


 31 32  0  0  0  0  0  0  0  0999 V2000
   28.4409   16.6202   54.6796 N   0  0  0  0  0  0  0  0  0  0  0  0
   28.0632   16.8875   53.3563 C   0  0  0  0  0  0  0  0  0  0  0  0
   27.1322   18.2395   53.2315 S   0  0  0  0  0  0  0  0  0  0  0  0
   27.2144   18.4910   54.8852 C   0  0  0  0  0  0  0  0  0  0  0  0
   27.9589   17.5833   55.5658 C   0  0  0  0  0  0  0  0  0  0  0  0
   28.1812   17.6330   57.0758 C   0  0  0  0  0  0  0  0  0  0  0  0
   29.3031   15.5245   55.0849 C   0  0  0  0  0  0  0  0  0  0  0  0
   26.8043   12.8110   54.5744 N   0  0  0  0  0  0  0  0  0  0  0  0
   26.5663   12.2588   55.8200 C   0  0  0  0  0  0  0  0  0  0  0  0
   25.5770   11.0891   55.9645 C   0  0  0  0  0  0  0  0  0  0  0  0
   27.2579   12.7861   56.8901 N   0  0  0  0  0  0  0  0  0  0  0  0
   28.1396   13.8088   56.6627 C   0  0  0  0  0  0  0  0  0  0  0  0
   28.7866   14.2663   57.7423 N   0  0  0  0  0  0  0  0  0  0  0  0
   28.3489   14.3617   55.3747 C   0  0  0  0  0  0  0  0  0  0  0  0
   27.6803   13.8183   54.3184 C   0  0  0  0  0  0  0  0  0  0  0  0
   28.6201   13.8616   58.6242 H   0  0  0  0  0  0  0  0  0  0  0  0
   29.4288   15.0073   57.6541 H   0  0  0  0  0  0  0  0  0  0  0  0
   26.5085   19.6957   55.5161 C   0  0  0  0  0  0  0  0  0  0  0  0
   25.1194   19.2965   55.9670 C   0  0  0  0  0  0  0  0  0  0  0  0
   24.2583   20.4210   55.8649 O   0  0  0  0  0  0  0  0  0  0  0  0
   23.6468   21.1947   57.1466 P   0  0  0  0  0  0  0  0  0  0  0  0
   23.3618   20.2812   58.3031 O   0  0  0  0  0  0  0  0  0  0  0  0
   22.5227   22.0702   56.6802 O   0  0  0  0  0  0  0  0  0  0  0  0
   21.7853   21.5167   56.3790 H   0  0  0  0  0  0  0  0  0  0  0  0
   24.9141   22.0641   57.6645 O   0  0  0  0  0  0  0  0  0  0  0  0
   25.0718   23.2502   58.7465 P   0  0  0  0  0  0  0  0  0  0  0  0
   25.9122   24.3744   58.1580 O   0  0  0  0  0  0  0  0  0  0  0  0
   23.6573   23.6815   59.0660 O   0  0  0  0  0  0  0  0  0  0  0  0
   25.6860   22.6636   59.9751 O   0  0  0  0  0  0  0  0  0  0  0  0
   23.2492   24.0642   58.2737 H   0  0  0  0  0  0  0  0  0  0  0  0
   26.5941   22.3836   59.7806 H   0  0  0  0  0  0  0  0  0  0  0  0
  8  9  2  0  0  0
  8 15  1  0  0  0
  9 10  1  0  0  0
  9 11  1  0  0  0
 11 12  2  0  0  0
 12 13  1  0  0  0
 12 14  1  0  0  0
 14 15  2  0  0  0
 14  7  1  0  0  0
  7  1  1  0  0  0
  1  2  2  0  0  0
  1  5  1  0  0  0
  2  3  1  0  0  0
  3  4  1  0  0  0
  4  5  2  0  0  0
  4 18  1  0  0  0
  5  6  1  0  0  0
 18 19  1  0  0  0
 19 20  1  0  0  0
 20 21  1  0  0  0
 21 22  2  0  0  0
 21 23  1  0  0  0
 21 25  1  0  0  0
 25 26  1  0  0  0
 26 27  2  0  0  0
 26 28  1  0  0  0
 26 29  1  0  0  0
 13 16  1  0  0  0
 13 17  1  0  0  0
 23 24  1  0  0  0
 28 30  1  0  0  0
 29 31  1  0  0  0
M  CHG 1   1   1
M  END
> <minimizedAffinity>
-10.03580

$$$$
3EXE_TPP_A_1005


 31 32  0  0  0  0  0  0  0  0999 V2000
   23.6330   21.6685   57.6723 N   0  0  0  0  0  0  0  0  0  0  0  0
   23.0080   20.4138   57.6873 C   0  0  0  0  0  0  0  0  0  0  0  0
   23.8363   19.2909   56.8136 S   0  0  0  0  0  0  0  0  0  0  0  0
   25.0098   20.4168   56.4138 C   0  0  0  0  0  0  0  0  0  0  0  0
   24.8218   21.6521   56.9432 C   0  0  0  0  0  0  0  0  0  0  0  0
   25.7779   22.8220   56.7215 C   0  0  0  0  0  0  0  0  0  0  0  0
   23.1580   22.8342   58.3961 C   0  0  0  0  0  0  0  0  0  0  0  0
   24.1855   21.0038   61.4722 N   0  0  0  0  0  0  0  0  0  0  0  0
   23.9512   21.8594   62.5333 C   0  0  0  0  0  0  0  0  0  0  0  0
   24.2816   21.4112   63.9678 C   0  0  0  0  0  0  0  0  0  0  0  0
   23.4381   23.1057   62.2416 N   0  0  0  0  0  0  0  0  0  0  0  0
   23.2008   23.4283   60.9323 C   0  0  0  0  0  0  0  0  0  0  0  0
   22.7143   24.6575   60.7178 N   0  0  0  0  0  0  0  0  0  0  0  0
   23.4385   22.5216   59.8693 C   0  0  0  0  0  0  0  0  0  0  0  0
   23.9692   21.3010   60.1636 C   0  0  0  0  0  0  0  0  0  0  0  0
   22.5597   25.2651   61.4769 H   0  0  0  0  0  0  0  0  0  0  0  0
   22.5112   24.9535   59.8011 H   0  0  0  0  0  0  0  0  0  0  0  0
   26.2009   20.0093   55.5404 C   0  0  0  0  0  0  0  0  0  0  0  0
   26.4135   18.5130   55.6308 C   0  0  0  0  0  0  0  0  0  0  0  0
   27.6035   18.2577   56.3624 O   0  0  0  0  0  0  0  0  0  0  0  0
   28.7662   17.2562   55.8520 P   0  0  0  0  0  0  0  0  0  0  0  0
   30.0646   17.9566   55.5746 O   0  0  0  0  0  0  0  0  0  0  0  0
   28.2079   16.4016   54.7541 O   0  0  0  0  0  0  0  0  0  0  0  0
   28.0278   16.9519   53.9759 H   0  0  0  0  0  0  0  0  0  0  0  0
   29.0892   16.3912   57.1853 O   0  0  0  0  0  0  0  0  0  0  0  0
   30.1870   16.5379   58.3582 P   0  0  0  0  0  0  0  0  0  0  0  0
   31.5373   16.0392   57.8637 O   0  0  0  0  0  0  0  0  0  0  0  0
   30.1973   18.0105   58.7050 O   0  0  0  0  0  0  0  0  0  0  0  0
   29.6936   15.7681   59.5392 O   0  0  0  0  0  0  0  0  0  0  0  0
   30.5166   18.5198   57.9437 H   0  0  0  0  0  0  0  0  0  0  0  0
   29.6832   14.8216   59.3268 H   0  0  0  0  0  0  0  0  0  0  0  0
  8  9  2  0  0  0
  8 15  1  0  0  0
  9 10  1  0  0  0
  9 11  1  0  0  0
 11 12  2  0  0  0
 12 13  1  0  0  0
 12 14  1  0  0  0
 14 15  2  0  0  0
 14  7  1  0  0  0
  7  1  1  0  0  0
  1  2  2  0  0  0
  1  5  1  0  0  0
  2  3  1  0  0  0
  3  4  1  0  0  0
  4  5  2  0  0  0
  4 18  1  0  0  0
  5  6  1  0  0  0
 18 19  1  0  0  0
 19 20  1  0  0  0
 20 21  1  0  0  0
 21 22  2  0  0  0
 21 23  1  0  0  0
 21 25  1  0  0  0
 25 26  1  0  0  0
 26 27  2  0  0  0
 26 28  1  0  0  0
 26 29  1  0  0  0
 13 16  1  0  0  0
 13 17  1  0  0  0
 23 24  1  0  0  0
 28 30  1  0  0  0
 29 31  1  0  0  0
M  CHG 1   1   1
M  END
> <minimizedAffinity>
-7.34223

$$$$
3EXE_TPP_A_1005


 31 32  0  0  0  0  0  0  0  0999 V2000
   27.6781   16.3451   54.3830 N   0  0  0  0  0  0  0  0  0  0  0  0
   27.6387   16.7307   53.0358 C   0  0  0  0  0  0  0  0  0  0  0  0
   27.1785   18.3000   52.8465 S   0  0  0  0  0  0  0  0  0  0  0  0
   27.0312   18.4930   54.5036 C   0  0  0  0  0  0  0  0  0  0  0  0
   27.3451   17.3958   55.2377 C   0  0  0  0  0  0  0  0  0  0  0  0
   27.2969   17.3565   56.7635 C   0  0  0  0  0  0  0  0  0  0  0  0
   28.0976   15.0372   54.8536 C   0  0  0  0  0  0  0  0  0  0  0  0
   30.9335   16.5161   56.7613 N   0  0  0  0  0  0  0  0  0  0  0  0
   30.9392   15.8957   57.9975 C   0  0  0  0  0  0  0  0  0  0  0  0
   31.9931   16.2879   59.0479 C   0  0  0  0  0  0  0  0  0  0  0  0
   29.9662   14.9482   58.2361 N   0  0  0  0  0  0  0  0  0  0  0  0
   29.0518   14.6835   57.2518 C   0  0  0  0  0  0  0  0  0  0  0  0
   28.1274   13.7623   57.5528 N   0  0  0  0  0  0  0  0  0  0  0  0
   29.0834   15.3273   55.9897 C   0  0  0  0  0  0  0  0  0  0  0  0
   30.0329   16.2806   55.7708 C   0  0  0  0  0  0  0  0  0  0  0  0
   28.1312   13.3322   58.4384 H   0  0  0  0  0  0  0  0  0  0  0  0
   27.4442   13.5152   56.8885 H   0  0  0  0  0  0  0  0  0  0  0  0
   26.6038   19.8444   55.0856 C   0  0  0  0  0  0  0  0  0  0  0  0
   25.1915   19.7469   55.6222 C   0  0  0  0  0  0  0  0  0  0  0  0
   25.0676   20.5923   56.7564 O   0  0  0  0  0  0  0  0  0  0  0  0
   23.6457   21.0515   57.3749 P   0  0  0  0  0  0  0  0  0  0  0  0
   22.7552   19.8942   57.7227 O   0  0  0  0  0  0  0  0  0  0  0  0
   23.0645   22.1133   56.4904 O   0  0  0  0  0  0  0  0  0  0  0  0
   22.8225   21.7249   55.6352 H   0  0  0  0  0  0  0  0  0  0  0  0
   24.0717   21.6402   58.8248 O   0  0  0  0  0  0  0  0  0  0  0  0
   24.2257   23.1365   59.4076 P   0  0  0  0  0  0  0  0  0  0  0  0
   24.4060   23.0839   60.9180 O   0  0  0  0  0  0  0  0  0  0  0  0
   25.4278   23.7146   58.6937 O   0  0  0  0  0  0  0  0  0  0  0  0
   23.0104   23.9063   59.0058 O   0  0  0  0  0  0  0  0  0  0  0  0
   26.2232   23.2211   58.9481 H   0  0  0  0  0  0  0  0  0  0  0  0
   22.2333   23.5431   59.4586 H   0  0  0  0  0  0  0  0  0  0  0  0
  8  9  2  0  0  0
  8 15  1  0  0  0
  9 10  1  0  0  0
  9 11  1  0  0  0
 11 12  2  0  0  0
 12 13  1  0  0  0
 12 14  1  0  0  0
 14 15  2  0  0  0
 14  7  1  0  0  0
  7  1  1  0  0  0
  1  2  2  0  0  0
  1  5  1  0  0  0
  2  3  1  0  0  0
  3  4  1  0  0  0
  4  5  2  0  0  0
  4 18  1  0  0  0
  5  6  1  0  0  0
 18 19  1  0  0  0
 19 20  1  0  0  0
 20 21  1  0  0  0
 21 22  2  0  0  0
 21 23  1  0  0  0
 21 25  1  0  0  0
 25 26  1  0  0  0
 26 27  2  0  0  0
 26 28  1  0  0  0
 26 29  1  0  0  0
 13 16  1  0  0  0
 13 17  1  0  0  0
 23 24  1  0  0  0
 28 30  1  0  0  0
 29 31  1  0  0  0
M  CHG 1   1   1
M  END
> <minimizedAffinity>
-7.04140

$$$$
