2VPO_6CS_A_1312


 14 14  0  0  0  0  0  0  0  0999 V2000
   43.5415   32.0823   32.8169 C   0  0  0  0  0  0  0  0  0  0  0  0
   42.8666   31.7518   31.5547 N   0  0  0  0  0  0  0  0  0  0  0  0
   42.2718   32.6272   30.8359 C   0  0  0  0  0  0  0  0  0  0  0  0
   41.6149   32.2143   29.5366 C   0  0  0  0  0  0  0  0  0  0  0  0
   42.2134   33.9130   31.2007 N   0  0  0  0  0  0  0  0  0  0  0  0
   42.7008   34.4685   32.4616 C   0  0  0  0  0  0  0  0  0  0  0  0
   42.8187   33.2883   33.4248 C   0  0  0  0  0  0  0  0  0  0  0  0
   43.5068   33.7492   34.5982 O   0  0  0  0  0  0  0  0  0  0  0  0
   41.8053   34.5417   30.5623 H   0  0  0  0  0  0  0  0  0  0  0  0
   44.3942   34.0549   34.3534 H   0  0  0  0  0  0  0  0  0  0  0  0
   43.9765   31.1227   34.9528 O   0  0  0  0  0  0  0  0  0  0  0  0
   43.5881   30.9120   33.7883 C   0  0  0  0  0  0  0  0  0  0  0  0
   43.1943   29.7744   33.4351 O   0  0  0  0  0  0  0  0  0  0  0  0
   42.9050   29.6310   32.5555 H   0  0  0  0  0  0  0  0  0  0  0  0
 11 12  2  0  0  0
 12 13  1  0  0  0
 12  1  1  0  0  0
  1  2  1  0  0  0
  1  7  1  0  0  0
  2  3  2  0  0  0
  3  4  1  0  0  0
  3  5  1  0  0  0
  5  6  1  0  0  0
  6  7  1  0  0  0
  7  8  1  0  0  0
 13 14  1  0  0  0
  5  9  1  0  0  0
  8 10  1  0  0  0
M  END
> <minimizedAffinity>
-7.66881

$$$$
2VPO_6CS_A_1312


 14 14  0  0  0  0  0  0  0  0999 V2000
   42.8055   32.0773   33.5039 C   0  0  0  0  0  0  0  0  0  0  0  0
   43.3540   33.0196   34.4883 N   0  0  0  0  0  0  0  0  0  0  0  0
   43.4123   34.2811   34.2837 C   0  0  0  0  0  0  0  0  0  0  0  0
   43.9733   35.1923   35.3539 C   0  0  0  0  0  0  0  0  0  0  0  0
   42.9853   34.8272   33.1395 N   0  0  0  0  0  0  0  0  0  0  0  0
   42.5109   34.0961   31.9664 C   0  0  0  0  0  0  0  0  0  0  0  0
   43.0444   32.6719   32.1127 C   0  0  0  0  0  0  0  0  0  0  0  0
   42.4160   31.8644   31.1048 O   0  0  0  0  0  0  0  0  0  0  0  0
   42.9913   35.8101   33.0826 H   0  0  0  0  0  0  0  0  0  0  0  0
   41.4559   31.8642   31.2428 H   0  0  0  0  0  0  0  0  0  0  0  0
   44.5307   30.5603   34.1318 O   0  0  0  0  0  0  0  0  0  0  0  0
   43.4000   30.6818   33.6238 C   0  0  0  0  0  0  0  0  0  0  0  0
   42.7416   29.6755   33.2660 O   0  0  0  0  0  0  0  0  0  0  0  0
   41.8921   29.7826   32.8853 H   0  0  0  0  0  0  0  0  0  0  0  0
 11 12  2  0  0  0
 12 13  1  0  0  0
 12  1  1  0  0  0
  1  2  1  0  0  0
  1  7  1  0  0  0
  2  3  2  0  0  0
  3  4  1  0  0  0
  3  5  1  0  0  0
  5  6  1  0  0  0
  6  7  1  0  0  0
  7  8  1  0  0  0
 13 14  1  0  0  0
  5  9  1  0  0  0
  8 10  1  0  0  0
M  END
> <minimizedAffinity>
-6.45170

$$$$
2VPO_6CS_A_1312


 14 14  0  0  0  0  0  0  0  0999 V2000
   43.1618   33.4664   32.6390 C   0  0  0  0  0  0  0  0  0  0  0  0
   43.3743   34.4884   33.6726 N   0  0  0  0  0  0  0  0  0  0  0  0
   43.8611   34.2194   34.8248 C   0  0  0  0  0  0  0  0  0  0  0  0
   44.0695   35.3296   35.8318 C   0  0  0  0  0  0  0  0  0  0  0  0
   44.1978   32.9717   35.1708 N   0  0  0  0  0  0  0  0  0  0  0  0
   43.9741   31.7707   34.3687 C   0  0  0  0  0  0  0  0  0  0  0  0
   42.8940   32.1374   33.3521 C   0  0  0  0  0  0  0  0  0  0  0  0
   42.8062   31.0643   32.4017 O   0  0  0  0  0  0  0  0  0  0  0  0
   44.6357   32.8518   36.0443 H   0  0  0  0  0  0  0  0  0  0  0  0
   43.6569   30.9656   31.9460 H   0  0  0  0  0  0  0  0  0  0  0  0
   42.0312   33.2914   30.5502 O   0  0  0  0  0  0  0  0  0  0  0  0
   42.0366   33.8204   31.6778 C   0  0  0  0  0  0  0  0  0  0  0  0
   41.1102   34.5871   32.0356 O   0  0  0  0  0  0  0  0  0  0  0  0
   41.1279   34.9778   32.8871 H   0  0  0  0  0  0  0  0  0  0  0  0
 11 12  2  0  0  0
 12 13  1  0  0  0
 12  1  1  0  0  0
  1  2  1  0  0  0
  1  7  1  0  0  0
  2  3  2  0  0  0
  3  4  1  0  0  0
  3  5  1  0  0  0
  5  6  1  0  0  0
  6  7  1  0  0  0
  7  8  1  0  0  0
 13 14  1  0  0  0
  5  9  1  0  0  0
  8 10  1  0  0  0
M  END
> <minimizedAffinity>
-6.24716

$$$$
2VPO_6CS_A_1312


 14 14  0  0  0  0  0  0  0  0999 V2000
   43.2064   33.3724   34.0369 C   0  0  0  0  0  0  0  0  0  0  0  0
   42.7685   33.5278   32.6434 N   0  0  0  0  0  0  0  0  0  0  0  0
   42.5999   32.5351   31.8541 C   0  0  0  0  0  0  0  0  0  0  0  0
   42.1275   32.7725   30.4361 C   0  0  0  0  0  0  0  0  0  0  0  0
   42.8290   31.2776   32.2489 N   0  0  0  0  0  0  0  0  0  0  0  0
   43.3807   30.8724   33.5401 C   0  0  0  0  0  0  0  0  0  0  0  0
   44.0711   32.1102   34.1110 C   0  0  0  0  0  0  0  0  0  0  0  0
   44.4275   31.8228   35.4722 O   0  0  0  0  0  0  0  0  0  0  0  0
   42.6060   30.5605   31.6122 H   0  0  0  0  0  0  0  0  0  0  0  0
   43.6249   31.6369   35.9843 H   0  0  0  0  0  0  0  0  0  0  0  0
   43.6692   35.0115   35.7015 O   0  0  0  0  0  0  0  0  0  0  0  0
   43.9508   34.5904   34.5637 C   0  0  0  0  0  0  0  0  0  0  0  0
   44.8623   35.1228   33.8856 O   0  0  0  0  0  0  0  0  0  0  0  0
   45.0629   34.7950   33.0311 H   0  0  0  0  0  0  0  0  0  0  0  0
 11 12  2  0  0  0
 12 13  1  0  0  0
 12  1  1  0  0  0
  1  2  1  0  0  0
  1  7  1  0  0  0
  2  3  2  0  0  0
  3  4  1  0  0  0
  3  5  1  0  0  0
  5  6  1  0  0  0
  6  7  1  0  0  0
  7  8  1  0  0  0
 13 14  1  0  0  0
  5  9  1  0  0  0
  8 10  1  0  0  0
M  END
> <minimizedAffinity>
-6.20864

$$$$
2VPO_6CS_A_1312


 14 14  0  0  0  0  0  0  0  0999 V2000
   43.9100   33.8032   33.4601 C   0  0  0  0  0  0  0  0  0  0  0  0
   43.8860   32.4006   33.8957 N   0  0  0  0  0  0  0  0  0  0  0  0
   43.3396   31.4698   33.2086 C   0  0  0  0  0  0  0  0  0  0  0  0
   43.3718   30.0435   33.7134 C   0  0  0  0  0  0  0  0  0  0  0  0
   42.7349   31.7210   32.0420 N   0  0  0  0  0  0  0  0  0  0  0  0
   42.5220   33.0422   31.4548 C   0  0  0  0  0  0  0  0  0  0  0  0
   42.6638   34.0415   32.6019 C   0  0  0  0  0  0  0  0  0  0  0  0
   42.6887   35.3597   32.0323 O   0  0  0  0  0  0  0  0  0  0  0  0
   42.4034   30.9460   31.5333 H   0  0  0  0  0  0  0  0  0  0  0  0
   43.4514   35.4410   31.4385 H   0  0  0  0  0  0  0  0  0  0  0  0
   43.0782   34.7587   35.4768 O   0  0  0  0  0  0  0  0  0  0  0  0
   43.9833   34.7835   34.6216 C   0  0  0  0  0  0  0  0  0  0  0  0
   44.9611   35.5608   34.7388 O   0  0  0  0  0  0  0  0  0  0  0  0
   45.6345   35.5682   34.0873 H   0  0  0  0  0  0  0  0  0  0  0  0
 11 12  2  0  0  0
 12 13  1  0  0  0
 12  1  1  0  0  0
  1  2  1  0  0  0
  1  7  1  0  0  0
  2  3  2  0  0  0
  3  4  1  0  0  0
  3  5  1  0  0  0
  5  6  1  0  0  0
  6  7  1  0  0  0
  7  8  1  0  0  0
 13 14  1  0  0  0
  5  9  1  0  0  0
  8 10  1  0  0  0
M  END
> <minimizedAffinity>
-5.25371

$$$$
2VPO_6CS_A_1312


 14 14  0  0  0  0  0  0  0  0999 V2000
   42.4102   33.2946   33.3438 C   0  0  0  0  0  0  0  0  0  0  0  0
   42.3856   31.8333   33.1966 N   0  0  0  0  0  0  0  0  0  0  0  0
   43.1521   31.0556   33.8634 C   0  0  0  0  0  0  0  0  0  0  0  0
   43.0554   29.5575   33.6719 C   0  0  0  0  0  0  0  0  0  0  0  0
   44.0463   31.5314   34.7374 N   0  0  0  0  0  0  0  0  0  0  0  0
   44.3448   32.9422   34.9747 C   0  0  0  0  0  0  0  0  0  0  0  0
   43.8329   33.6941   33.7470 C   0  0  0  0  0  0  0  0  0  0  0  0
   43.8989   35.0992   34.0364 O   0  0  0  0  0  0  0  0  0  0  0  0
   44.5484   30.8718   35.2684 H   0  0  0  0  0  0  0  0  0  0  0  0
   43.3309   35.2998   34.7967 H   0  0  0  0  0  0  0  0  0  0  0  0
   42.5230   33.7520   31.0092 O   0  0  0  0  0  0  0  0  0  0  0  0
   41.9609   34.0247   32.0867 C   0  0  0  0  0  0  0  0  0  0  0  0
   41.0110   34.8432   32.1301 O   0  0  0  0  0  0  0  0  0  0  0  0
   40.5978   35.0384   32.9481 H   0  0  0  0  0  0  0  0  0  0  0  0
 11 12  2  0  0  0
 12 13  1  0  0  0
 12  1  1  0  0  0
  1  2  1  0  0  0
  1  7  1  0  0  0
  2  3  2  0  0  0
  3  4  1  0  0  0
  3  5  1  0  0  0
  5  6  1  0  0  0
  6  7  1  0  0  0
  7  8  1  0  0  0
 13 14  1  0  0  0
  5  9  1  0  0  0
  8 10  1  0  0  0
M  END
> <minimizedAffinity>
-4.88723

$$$$
