3RZ1_RZ1_B_1


 30 30  0  0  0  0  0  0  0  0999 V2000
   18.2974    5.6327   13.5361 N   0  0  0  0  0  0  0  0  0  0  0  0
   16.2140    6.4250   13.2568 O   0  0  0  0  0  0  0  0  0  0  0  0
   16.9881    5.5700   13.7612 C   0  0  0  0  0  0  0  0  0  0  0  0
   18.8874    4.9837   13.9832 H   0  0  0  0  0  0  0  0  0  0  0  0
   16.4022    4.5133   14.6439 C   0  0  0  0  0  0  0  0  0  0  0  0
   14.4673    3.6555   15.8804 C   0  0  0  0  0  0  0  0  0  0  0  0
   15.0574    4.6149   15.0419 C   0  0  0  0  0  0  0  0  0  0  0  0
   15.2791    2.5775   16.3622 C   0  0  0  0  0  0  0  0  0  0  0  0
   17.2051    3.4515   15.0912 C   0  0  0  0  0  0  0  0  0  0  0  0
   16.6564    2.4898   15.9301 C   0  0  0  0  0  0  0  0  0  0  0  0
   14.6089    1.3941   17.4099 S   0  0  0  0  0  0  0  0  0  0  0  0
   13.2373    1.1465   16.9426 O   0  0  0  0  0  0  0  0  0  0  0  0
   14.7772    1.8973   18.7607 O   0  0  0  0  0  0  0  0  0  0  0  0
   15.5263    0.0704   17.2554 N   0  0  0  0  0  0  0  0  0  0  0  0
   15.4262   -0.3045   16.3121 H   0  0  0  0  0  0  0  0  0  0  0  0
   15.2282   -0.6309   17.9334 H   0  0  0  0  0  0  0  0  0  0  0  0
   18.8855    6.6204   12.6579 C   0  0  0  0  0  0  0  0  0  0  0  0
   20.9069    7.7553   12.8624 F   0  0  0  0  0  0  0  0  0  0  0  0
   20.1974    6.9602   14.6300 F   0  0  0  0  0  0  0  0  0  0  0  0
   19.7966    7.5154   13.5038 C   0  0  0  0  0  0  0  0  0  0  0  0
   18.0986    8.4441   14.7964 F   0  0  0  0  0  0  0  0  0  0  0  0
   18.5595    9.2741   12.8754 F   0  0  0  0  0  0  0  0  0  0  0  0
   19.1146    8.7736   13.9547 C   0  0  0  0  0  0  0  0  0  0  0  0
   21.5871    9.5624   14.4314 F   0  0  0  0  0  0  0  0  0  0  0  0
   19.8923    9.4181   15.9705 F   0  0  0  0  0  0  0  0  0  0  0  0
   20.2054    9.6415   14.6858 C   0  0  0  0  0  0  0  0  0  0  0  0
   20.7425   11.7094   15.1870 F   0  0  0  0  0  0  0  0  0  0  0  0
   18.6675   11.2533   14.4125 F   0  0  0  0  0  0  0  0  0  0  0  0
   20.3697   11.0576   12.9553 F   0  0  0  0  0  0  0  0  0  0  0  0
   19.9806   11.0397   14.2553 C   0  0  0  0  0  0  0  0  0  0  0  0
  8 11  1  0  0  0
 14 11  1  0  0  0
 12 11  2  0  0  0
 11 13  2  0  0  0
 17  1  1  0  0  0
  1  3  1  0  0  0
  2  3  2  0  0  0
  3  5  1  0  0  0
  5  9  2  0  0  0
  5  7  1  0  0  0
  7  6  2  0  0  0
  6  8  1  0  0  0
 10  8  2  0  0  0
  9 10  1  0  0  0
 20 18  1  0  0  0
 21 23  1  0  0  0
 26 24  1  0  0  0
 30 27  1  0  0  0
 20 19  1  0  0  0
 22 23  1  0  0  0
 26 25  1  0  0  0
 30 28  1  0  0  0
 29 30  1  0  0  0
 17 20  1  0  0  0
 23 20  1  0  0  0
 23 26  1  0  0  0
 30 26  1  0  0  0
  1  4  1  0  0  0
 14 15  1  0  0  0
 14 16  1  0  0  0
M  END
> <minimizedAffinity>
-7.47777

$$$$
3RZ1_RZ1_B_1


 30 30  0  0  0  0  0  0  0  0999 V2000
   17.5145    6.6587   13.9728 N   0  0  0  0  0  0  0  0  0  0  0  0
   15.9330    5.9288   12.5540 O   0  0  0  0  0  0  0  0  0  0  0  0
   16.5467    5.8068   13.6463 C   0  0  0  0  0  0  0  0  0  0  0  0
   17.9442    6.5737   14.8544 H   0  0  0  0  0  0  0  0  0  0  0  0
   16.1340    4.7084   14.5750 C   0  0  0  0  0  0  0  0  0  0  0  0
   16.6620    2.5726   15.6558 C   0  0  0  0  0  0  0  0  0  0  0  0
   17.0105    3.6329   14.8038 C   0  0  0  0  0  0  0  0  0  0  0  0
   15.3656    2.5846   16.2661 C   0  0  0  0  0  0  0  0  0  0  0  0
   14.8682    4.7447   15.1820 C   0  0  0  0  0  0  0  0  0  0  0  0
   14.4867    3.7070   16.0230 C   0  0  0  0  0  0  0  0  0  0  0  0
   14.8847    1.2976   17.2955 S   0  0  0  0  0  0  0  0  0  0  0  0
   13.4370    1.1259   17.1066 O   0  0  0  0  0  0  0  0  0  0  0  0
   15.3521    1.6384   18.6266 O   0  0  0  0  0  0  0  0  0  0  0  0
   15.6971   -0.0126   16.8044 N   0  0  0  0  0  0  0  0  0  0  0  0
   15.3867   -0.2741   15.8687 H   0  0  0  0  0  0  0  0  0  0  0  0
   15.5209   -0.7833   17.4489 H   0  0  0  0  0  0  0  0  0  0  0  0
   17.9583    7.7057   13.0786 C   0  0  0  0  0  0  0  0  0  0  0  0
   20.0410    7.1891   13.9794 F   0  0  0  0  0  0  0  0  0  0  0  0
   20.0885    8.6318   12.5041 F   0  0  0  0  0  0  0  0  0  0  0  0
   19.4638    7.5269   12.8594 C   0  0  0  0  0  0  0  0  0  0  0  0
   20.6718    7.1564   10.9049 F   0  0  0  0  0  0  0  0  0  0  0  0
   18.6573    6.4452   11.0712 F   0  0  0  0  0  0  0  0  0  0  0  0
   19.7767    6.5717   11.7452 C   0  0  0  0  0  0  0  0  0  0  0  0
   19.9879    4.7782   13.6691 F   0  0  0  0  0  0  0  0  0  0  0  0
   21.6917    5.5373   12.3340 F   0  0  0  0  0  0  0  0  0  0  0  0
   20.3780    5.2797   12.4137 C   0  0  0  0  0  0  0  0  0  0  0  0
   20.7735    3.1504   12.0594 F   0  0  0  0  0  0  0  0  0  0  0  0
   20.2420    4.4901   10.3170 F   0  0  0  0  0  0  0  0  0  0  0  0
   18.6106    4.0441   11.7998 F   0  0  0  0  0  0  0  0  0  0  0  0
   19.9457    4.1390   11.5753 C   0  0  0  0  0  0  0  0  0  0  0  0
  8 11  1  0  0  0
 14 11  1  0  0  0
 12 11  2  0  0  0
 11 13  2  0  0  0
 17  1  1  0  0  0
  1  3  1  0  0  0
  2  3  2  0  0  0
  3  5  1  0  0  0
  5  9  2  0  0  0
  5  7  1  0  0  0
  7  6  2  0  0  0
  6  8  1  0  0  0
 10  8  2  0  0  0
  9 10  1  0  0  0
 20 18  1  0  0  0
 21 23  1  0  0  0
 26 24  1  0  0  0
 30 27  1  0  0  0
 20 19  1  0  0  0
 22 23  1  0  0  0
 26 25  1  0  0  0
 30 28  1  0  0  0
 29 30  1  0  0  0
 17 20  1  0  0  0
 23 20  1  0  0  0
 23 26  1  0  0  0
 30 26  1  0  0  0
  1  4  1  0  0  0
 14 15  1  0  0  0
 14 16  1  0  0  0
M  END
> <minimizedAffinity>
-7.41526

$$$$
3RZ1_RZ1_B_1


 30 30  0  0  0  0  0  0  0  0999 V2000
   17.0312    6.3831   14.8705 N   0  0  0  0  0  0  0  0  0  0  0  0
   17.3581    6.5549   12.6547 O   0  0  0  0  0  0  0  0  0  0  0  0
   17.7044    6.8578   13.8264 C   0  0  0  0  0  0  0  0  0  0  0  0
   17.3523    6.5923   15.7773 H   0  0  0  0  0  0  0  0  0  0  0  0
   18.9073    7.7287   14.0096 C   0  0  0  0  0  0  0  0  0  0  0  0
   20.0524    9.4719   15.2975 C   0  0  0  0  0  0  0  0  0  0  0  0
   18.9513    8.6251   15.0922 C   0  0  0  0  0  0  0  0  0  0  0  0
   21.1278    9.4356   14.3513 C   0  0  0  0  0  0  0  0  0  0  0  0
   19.9628    7.6668   13.0854 C   0  0  0  0  0  0  0  0  0  0  0  0
   21.0633    8.4978   13.2524 C   0  0  0  0  0  0  0  0  0  0  0  0
   22.4838   10.4703   14.5463 S   0  0  0  0  0  0  0  0  0  0  0  0
   22.6018   10.7430   15.9859 O   0  0  0  0  0  0  0  0  0  0  0  0
   22.2682   11.6023   13.6641 O   0  0  0  0  0  0  0  0  0  0  0  0
   23.7686    9.6528   13.9997 N   0  0  0  0  0  0  0  0  0  0  0  0
   23.9426    8.8495   14.6037 H   0  0  0  0  0  0  0  0  0  0  0  0
   24.5860   10.2630   14.0017 H   0  0  0  0  0  0  0  0  0  0  0  0
   15.8438    5.5703   14.7214 C   0  0  0  0  0  0  0  0  0  0  0  0
   17.3225    4.0509   15.6809 F   0  0  0  0  0  0  0  0  0  0  0  0
   16.5797    3.4688   13.8452 F   0  0  0  0  0  0  0  0  0  0  0  0
   16.2452    4.1094   14.9475 C   0  0  0  0  0  0  0  0  0  0  0  0
   14.2362    3.0164   14.5167 F   0  0  0  0  0  0  0  0  0  0  0  0
   14.5110    4.0656   16.3648 F   0  0  0  0  0  0  0  0  0  0  0  0
   15.1264    3.2824   15.5096 C   0  0  0  0  0  0  0  0  0  0  0  0
   16.9900    1.9088   16.7757 F   0  0  0  0  0  0  0  0  0  0  0  0
   15.7762    1.1930   14.9657 F   0  0  0  0  0  0  0  0  0  0  0  0
   15.7766    1.9609   16.0651 C   0  0  0  0  0  0  0  0  0  0  0  0
   15.2211    2.3213   18.1573 F   0  0  0  0  0  0  0  0  0  0  0  0
   15.2498    0.2053   17.3605 F   0  0  0  0  0  0  0  0  0  0  0  0
   13.6331    1.5666   16.5911 F   0  0  0  0  0  0  0  0  0  0  0  0
   14.8744    1.4706   17.1311 C   0  0  0  0  0  0  0  0  0  0  0  0
  8 11  1  0  0  0
 14 11  1  0  0  0
 12 11  2  0  0  0
 11 13  2  0  0  0
 17  1  1  0  0  0
  1  3  1  0  0  0
  2  3  2  0  0  0
  3  5  1  0  0  0
  5  9  2  0  0  0
  5  7  1  0  0  0
  7  6  2  0  0  0
  6  8  1  0  0  0
 10  8  2  0  0  0
  9 10  1  0  0  0
 20 18  1  0  0  0
 21 23  1  0  0  0
 26 24  1  0  0  0
 30 27  1  0  0  0
 20 19  1  0  0  0
 22 23  1  0  0  0
 26 25  1  0  0  0
 30 28  1  0  0  0
 29 30  1  0  0  0
 17 20  1  0  0  0
 23 20  1  0  0  0
 23 26  1  0  0  0
 30 26  1  0  0  0
  1  4  1  0  0  0
 14 15  1  0  0  0
 14 16  1  0  0  0
M  END
> <minimizedAffinity>
-7.29575

$$$$
3RZ1_RZ1_B_1


 30 30  0  0  0  0  0  0  0  0999 V2000
   16.9610    5.1246   13.6884 N   0  0  0  0  0  0  0  0  0  0  0  0
   18.9121    4.2505   14.3779 O   0  0  0  0  0  0  0  0  0  0  0  0
   18.2370    5.2575   14.0389 C   0  0  0  0  0  0  0  0  0  0  0  0
   16.4401    5.9329   13.4772 H   0  0  0  0  0  0  0  0  0  0  0  0
   18.8952    6.6007   14.0779 C   0  0  0  0  0  0  0  0  0  0  0  0
   18.8988    8.9061   14.9109 C   0  0  0  0  0  0  0  0  0  0  0  0
   18.3252    7.6257   14.8537 C   0  0  0  0  0  0  0  0  0  0  0  0
   20.0680    9.1665   14.1246 C   0  0  0  0  0  0  0  0  0  0  0  0
   20.0527    6.8346   13.3180 C   0  0  0  0  0  0  0  0  0  0  0  0
   20.6408    8.0928   13.3432 C   0  0  0  0  0  0  0  0  0  0  0  0
   20.7904   10.7238   14.1422 S   0  0  0  0  0  0  0  0  0  0  0  0
   19.7027   11.6902   14.3515 O   0  0  0  0  0  0  0  0  0  0  0  0
   21.5601   10.8345   12.9168 O   0  0  0  0  0  0  0  0  0  0  0  0
   21.8285   10.7353   15.3832 N   0  0  0  0  0  0  0  0  0  0  0  0
   21.3119   10.6585   16.2593 H   0  0  0  0  0  0  0  0  0  0  0  0
   22.3576   11.6074   15.3758 H   0  0  0  0  0  0  0  0  0  0  0  0
   16.3109    3.8348   13.6063 C   0  0  0  0  0  0  0  0  0  0  0  0
   14.1406    3.6495   14.4255 F   0  0  0  0  0  0  0  0  0  0  0  0
   15.4140    4.7351   15.6339 F   0  0  0  0  0  0  0  0  0  0  0  0
   15.3836    3.7002   14.8181 C   0  0  0  0  0  0  0  0  0  0  0  0
   16.8601    2.8736   16.4160 F   0  0  0  0  0  0  0  0  0  0  0  0
   16.1040    1.5801   14.8841 F   0  0  0  0  0  0  0  0  0  0  0  0
   15.7507    2.5444   15.7018 C   0  0  0  0  0  0  0  0  0  0  0  0
   13.2670    1.8121   16.2093 F   0  0  0  0  0  0  0  0  0  0  0  0
   14.4390    3.4612   17.2901 F   0  0  0  0  0  0  0  0  0  0  0  0
   14.5173    2.2879   16.6455 C   0  0  0  0  0  0  0  0  0  0  0  0
   15.2514    1.8346   18.6633 F   0  0  0  0  0  0  0  0  0  0  0  0
   15.9370    0.5709   16.9180 F   0  0  0  0  0  0  0  0  0  0  0  0
   13.7865    0.3687   17.5455 F   0  0  0  0  0  0  0  0  0  0  0  0
   14.8926    1.1546   17.5205 C   0  0  0  0  0  0  0  0  0  0  0  0
  8 11  1  0  0  0
 14 11  1  0  0  0
 12 11  2  0  0  0
 11 13  2  0  0  0
 17  1  1  0  0  0
  1  3  1  0  0  0
  2  3  2  0  0  0
  3  5  1  0  0  0
  5  9  2  0  0  0
  5  7  1  0  0  0
  7  6  2  0  0  0
  6  8  1  0  0  0
 10  8  2  0  0  0
  9 10  1  0  0  0
 20 18  1  0  0  0
 21 23  1  0  0  0
 26 24  1  0  0  0
 30 27  1  0  0  0
 20 19  1  0  0  0
 22 23  1  0  0  0
 26 25  1  0  0  0
 30 28  1  0  0  0
 29 30  1  0  0  0
 17 20  1  0  0  0
 23 20  1  0  0  0
 23 26  1  0  0  0
 30 26  1  0  0  0
  1  4  1  0  0  0
 14 15  1  0  0  0
 14 16  1  0  0  0
M  END
> <minimizedAffinity>
-7.18127

$$$$
3RZ1_RZ1_B_1


 30 30  0  0  0  0  0  0  0  0999 V2000
   17.2062    6.1423   12.7892 N   0  0  0  0  0  0  0  0  0  0  0  0
   17.5016    7.1110   14.7944 O   0  0  0  0  0  0  0  0  0  0  0  0
   17.1145    6.1239   14.1159 C   0  0  0  0  0  0  0  0  0  0  0  0
   16.9449    5.3386   12.2842 H   0  0  0  0  0  0  0  0  0  0  0  0
   16.5881    4.9253   14.8407 C   0  0  0  0  0  0  0  0  0  0  0  0
   17.0080    2.7105   15.8037 C   0  0  0  0  0  0  0  0  0  0  0  0
   17.4586    3.8615   15.1375 C   0  0  0  0  0  0  0  0  0  0  0  0
   15.6196    2.6190   16.1462 C   0  0  0  0  0  0  0  0  0  0  0  0
   15.2291    4.8593   15.1883 C   0  0  0  0  0  0  0  0  0  0  0  0
   14.7471    3.7308   15.8393 C   0  0  0  0  0  0  0  0  0  0  0  0
   15.0168    1.2206   16.9389 S   0  0  0  0  0  0  0  0  0  0  0  0
   13.5707    1.1795   16.6783 O   0  0  0  0  0  0  0  0  0  0  0  0
   15.4473    1.3134   18.3217 O   0  0  0  0  0  0  0  0  0  0  0  0
   15.7670   -0.0470   16.2694 N   0  0  0  0  0  0  0  0  0  0  0  0
   15.4812   -0.1351   15.2943 H   0  0  0  0  0  0  0  0  0  0  0  0
   15.5163   -0.8965   16.7753 H   0  0  0  0  0  0  0  0  0  0  0  0
   17.6760    7.3010   12.0617 C   0  0  0  0  0  0  0  0  0  0  0  0
   17.2416    5.7426   10.3888 F   0  0  0  0  0  0  0  0  0  0  0  0
   18.6672    7.1491    9.8891 F   0  0  0  0  0  0  0  0  0  0  0  0
   17.5460    6.9987   10.5656 C   0  0  0  0  0  0  0  0  0  0  0  0
   17.1666    8.3700    8.7238 F   0  0  0  0  0  0  0  0  0  0  0  0
   16.4709    8.9616   10.6623 F   0  0  0  0  0  0  0  0  0  0  0  0
   16.5887    7.9214    9.8701 C   0  0  0  0  0  0  0  0  0  0  0  0
   14.8627    5.9787   10.3278 F   0  0  0  0  0  0  0  0  0  0  0  0
   15.4717    6.7908    8.2708 F   0  0  0  0  0  0  0  0  0  0  0  0
   15.2919    7.0821    9.5674 C   0  0  0  0  0  0  0  0  0  0  0  0
   13.1376    7.2795    9.1987 F   0  0  0  0  0  0  0  0  0  0  0  0
   14.4445    9.1248    9.1835 F   0  0  0  0  0  0  0  0  0  0  0  0
   14.1152    8.1202   11.1689 F   0  0  0  0  0  0  0  0  0  0  0  0
   14.1456    7.9840    9.8190 C   0  0  0  0  0  0  0  0  0  0  0  0
  8 11  1  0  0  0
 14 11  1  0  0  0
 12 11  2  0  0  0
 11 13  2  0  0  0
 17  1  1  0  0  0
  1  3  1  0  0  0
  2  3  2  0  0  0
  3  5  1  0  0  0
  5  9  2  0  0  0
  5  7  1  0  0  0
  7  6  2  0  0  0
  6  8  1  0  0  0
 10  8  2  0  0  0
  9 10  1  0  0  0
 20 18  1  0  0  0
 21 23  1  0  0  0
 26 24  1  0  0  0
 30 27  1  0  0  0
 20 19  1  0  0  0
 22 23  1  0  0  0
 26 25  1  0  0  0
 30 28  1  0  0  0
 29 30  1  0  0  0
 17 20  1  0  0  0
 23 20  1  0  0  0
 23 26  1  0  0  0
 30 26  1  0  0  0
  1  4  1  0  0  0
 14 15  1  0  0  0
 14 16  1  0  0  0
M  END
> <minimizedAffinity>
-7.10713

$$$$
3RZ1_RZ1_B_1


 30 30  0  0  0  0  0  0  0  0999 V2000
   16.3612    6.1301   12.7044 N   0  0  0  0  0  0  0  0  0  0  0  0
   17.5804    6.6806   14.5091 O   0  0  0  0  0  0  0  0  0  0  0  0
   16.7710    5.8966   13.9479 C   0  0  0  0  0  0  0  0  0  0  0  0
   15.7688    5.4754   12.2690 H   0  0  0  0  0  0  0  0  0  0  0  0
   16.3170    4.6852   14.7000 C   0  0  0  0  0  0  0  0  0  0  0  0
   14.5025    3.4742   15.8179 C   0  0  0  0  0  0  0  0  0  0  0  0
   14.9723    4.5849   15.0986 C   0  0  0  0  0  0  0  0  0  0  0  0
   15.4365    2.4490   16.1780 C   0  0  0  0  0  0  0  0  0  0  0  0
   17.2400    3.6789   15.0275 C   0  0  0  0  0  0  0  0  0  0  0  0
   16.8117    2.5706   15.7472 C   0  0  0  0  0  0  0  0  0  0  0  0
   14.9145    1.0840   17.0790 S   0  0  0  0  0  0  0  0  0  0  0  0
   15.6182   -0.0811   16.5237 O   0  0  0  0  0  0  0  0  0  0  0  0
   13.4644    1.0826   17.0212 O   0  0  0  0  0  0  0  0  0  0  0  0
   15.3499    1.3521   18.6140 N   0  0  0  0  0  0  0  0  0  0  0  0
   16.3675    1.3580   18.6827 H   0  0  0  0  0  0  0  0  0  0  0  0
   14.9733    0.6134   19.2082 H   0  0  0  0  0  0  0  0  0  0  0  0
   16.7550    7.3118   11.9686 C   0  0  0  0  0  0  0  0  0  0  0  0
   16.9019    5.6991   10.2972 F   0  0  0  0  0  0  0  0  0  0  0  0
   17.6405    7.5496    9.7584 F   0  0  0  0  0  0  0  0  0  0  0  0
   16.6956    6.9747   10.4754 C   0  0  0  0  0  0  0  0  0  0  0  0
   14.4021    6.6534   10.2448 F   0  0  0  0  0  0  0  0  0  0  0  0
   15.5834    7.2071    8.5449 F   0  0  0  0  0  0  0  0  0  0  0  0
   15.4266    7.4439    9.8266 C   0  0  0  0  0  0  0  0  0  0  0  0
   16.2578    9.8203   10.6166 F   0  0  0  0  0  0  0  0  0  0  0  0
   14.3095    8.7887   11.2504 F   0  0  0  0  0  0  0  0  0  0  0  0
   15.2164    8.9383   10.2739 C   0  0  0  0  0  0  0  0  0  0  0  0
   15.8240    9.6678    8.2954 F   0  0  0  0  0  0  0  0  0  0  0  0
   14.3666   10.8780    9.5301 F   0  0  0  0  0  0  0  0  0  0  0  0
   13.6252    8.9258    8.6943 F   0  0  0  0  0  0  0  0  0  0  0  0
   14.6981    9.6575    9.0886 C   0  0  0  0  0  0  0  0  0  0  0  0
  8 11  1  0  0  0
 14 11  1  0  0  0
 12 11  2  0  0  0
 11 13  2  0  0  0
 17  1  1  0  0  0
  1  3  1  0  0  0
  2  3  2  0  0  0
  3  5  1  0  0  0
  5  9  2  0  0  0
  5  7  1  0  0  0
  7  6  2  0  0  0
  6  8  1  0  0  0
 10  8  2  0  0  0
  9 10  1  0  0  0
 20 18  1  0  0  0
 21 23  1  0  0  0
 26 24  1  0  0  0
 30 27  1  0  0  0
 20 19  1  0  0  0
 22 23  1  0  0  0
 26 25  1  0  0  0
 30 28  1  0  0  0
 29 30  1  0  0  0
 17 20  1  0  0  0
 23 20  1  0  0  0
 23 26  1  0  0  0
 30 26  1  0  0  0
  1  4  1  0  0  0
 14 15  1  0  0  0
 14 16  1  0  0  0
M  END
> <minimizedAffinity>
-6.92749

$$$$
3RZ1_RZ1_B_1


 30 30  0  0  0  0  0  0  0  0999 V2000
   18.0869    5.2443   12.8871 N   0  0  0  0  0  0  0  0  0  0  0  0
   16.1276    5.0390   11.8076 O   0  0  0  0  0  0  0  0  0  0  0  0
   16.8504    4.7624   12.8005 C   0  0  0  0  0  0  0  0  0  0  0  0
   18.6139    5.0563   13.6972 H   0  0  0  0  0  0  0  0  0  0  0  0
   16.2699    3.9146   13.8883 C   0  0  0  0  0  0  0  0  0  0  0  0
   14.7913    3.7305   15.8346 C   0  0  0  0  0  0  0  0  0  0  0  0
   15.3521    4.4824   14.7897 C   0  0  0  0  0  0  0  0  0  0  0  0
   15.2044    2.3678   15.9937 C   0  0  0  0  0  0  0  0  0  0  0  0
   16.6691    2.5745   14.0187 C   0  0  0  0  0  0  0  0  0  0  0  0
   16.1417    1.8043   15.0474 C   0  0  0  0  0  0  0  0  0  0  0  0
   14.5655    1.4160   17.2717 S   0  0  0  0  0  0  0  0  0  0  0  0
   13.1690    1.1214   16.9197 O   0  0  0  0  0  0  0  0  0  0  0  0
   14.8072    2.1559   18.4967 O   0  0  0  0  0  0  0  0  0  0  0  0
   15.4518    0.0635   17.3257 N   0  0  0  0  0  0  0  0  0  0  0  0
   15.2999   -0.4767   16.4739 H   0  0  0  0  0  0  0  0  0  0  0  0
   15.1748   -0.4925   18.1347 H   0  0  0  0  0  0  0  0  0  0  0  0
   18.6853    6.0349   11.8337 C   0  0  0  0  0  0  0  0  0  0  0  0
   17.4656    7.7961   12.7429 F   0  0  0  0  0  0  0  0  0  0  0  0
   18.8108    8.3600   11.2826 F   0  0  0  0  0  0  0  0  0  0  0  0
   18.6455    7.5028   12.2700 C   0  0  0  0  0  0  0  0  0  0  0  0
   20.9285    7.4164   12.7137 F   0  0  0  0  0  0  0  0  0  0  0  0
   19.5165    7.1308   14.3001 F   0  0  0  0  0  0  0  0  0  0  0  0
   19.7470    7.8517   13.2274 C   0  0  0  0  0  0  0  0  0  0  0  0
   18.6730   10.2481   12.9698 F   0  0  0  0  0  0  0  0  0  0  0  0
   20.9054    9.7426   12.8195 F   0  0  0  0  0  0  0  0  0  0  0  0
   19.7319    9.4181   13.3817 C   0  0  0  0  0  0  0  0  0  0  0  0
   19.7703   11.0656   14.8309 F   0  0  0  0  0  0  0  0  0  0  0  0
   20.7612    9.1006   15.3508 F   0  0  0  0  0  0  0  0  0  0  0  0
   18.5147    9.1162   15.2403 F   0  0  0  0  0  0  0  0  0  0  0  0
   19.6752    9.6915   14.8352 C   0  0  0  0  0  0  0  0  0  0  0  0
  8 11  1  0  0  0
 14 11  1  0  0  0
 12 11  2  0  0  0
 11 13  2  0  0  0
 17  1  1  0  0  0
  1  3  1  0  0  0
  2  3  2  0  0  0
  3  5  1  0  0  0
  5  9  2  0  0  0
  5  7  1  0  0  0
  7  6  2  0  0  0
  6  8  1  0  0  0
 10  8  2  0  0  0
  9 10  1  0  0  0
 20 18  1  0  0  0
 21 23  1  0  0  0
 26 24  1  0  0  0
 30 27  1  0  0  0
 20 19  1  0  0  0
 22 23  1  0  0  0
 26 25  1  0  0  0
 30 28  1  0  0  0
 29 30  1  0  0  0
 17 20  1  0  0  0
 23 20  1  0  0  0
 23 26  1  0  0  0
 30 26  1  0  0  0
  1  4  1  0  0  0
 14 15  1  0  0  0
 14 16  1  0  0  0
M  END
> <minimizedAffinity>
-6.91830

$$$$
3RZ1_RZ1_B_1


 30 30  0  0  0  0  0  0  0  0999 V2000
   16.5604    5.1979   11.9378 N   0  0  0  0  0  0  0  0  0  0  0  0
   18.0945    3.5573   11.9692 O   0  0  0  0  0  0  0  0  0  0  0  0
   17.0878    4.1076   12.4871 C   0  0  0  0  0  0  0  0  0  0  0  0
   15.7429    5.5798   12.3316 H   0  0  0  0  0  0  0  0  0  0  0  0
   16.4845    3.4833   13.7059 C   0  0  0  0  0  0  0  0  0  0  0  0
   16.1288    1.4802   15.0733 C   0  0  0  0  0  0  0  0  0  0  0  0
   16.6860    2.1133   13.9506 C   0  0  0  0  0  0  0  0  0  0  0  0
   15.3080    2.2542   15.9567 C   0  0  0  0  0  0  0  0  0  0  0  0
   15.6996    4.2598   14.5737 C   0  0  0  0  0  0  0  0  0  0  0  0
   15.1246    3.6634   15.6888 C   0  0  0  0  0  0  0  0  0  0  0  0
   14.5845    1.5183   17.3287 S   0  0  0  0  0  0  0  0  0  0  0  0
   13.2334    1.1060   16.9219 O   0  0  0  0  0  0  0  0  0  0  0  0
   14.6961    2.4739   18.4153 O   0  0  0  0  0  0  0  0  0  0  0  0
   15.4993    0.2363   17.6992 N   0  0  0  0  0  0  0  0  0  0  0  0
   15.4386   -0.4528   16.9496 H   0  0  0  0  0  0  0  0  0  0  0  0
   15.1670   -0.1783   18.5699 H   0  0  0  0  0  0  0  0  0  0  0  0
   17.1450    5.8428   10.7823 C   0  0  0  0  0  0  0  0  0  0  0  0
   16.4549    7.7685   11.8919 F   0  0  0  0  0  0  0  0  0  0  0  0
   17.4518    8.1214   10.1194 F   0  0  0  0  0  0  0  0  0  0  0  0
   17.4234    7.3030   11.1522 C   0  0  0  0  0  0  0  0  0  0  0  0
   19.4129    8.5107   11.1581 F   0  0  0  0  0  0  0  0  0  0  0  0
   19.4403    6.3978   11.5138 F   0  0  0  0  0  0  0  0  0  0  0  0
   18.7691    7.4921   11.7885 C   0  0  0  0  0  0  0  0  0  0  0  0
   17.4626    7.2859   14.0717 F   0  0  0  0  0  0  0  0  0  0  0  0
   18.4961    9.1701   13.2695 F   0  0  0  0  0  0  0  0  0  0  0  0
   18.5088    7.8295   13.3037 C   0  0  0  0  0  0  0  0  0  0  0  0
   19.5445    7.9750   15.2330 F   0  0  0  0  0  0  0  0  0  0  0  0
   20.7411    7.5998   13.3513 F   0  0  0  0  0  0  0  0  0  0  0  0
   19.4182    5.9299   14.0729 F   0  0  0  0  0  0  0  0  0  0  0  0
   19.6521    7.2666   14.0567 C   0  0  0  0  0  0  0  0  0  0  0  0
  8 11  1  0  0  0
 14 11  1  0  0  0
 12 11  2  0  0  0
 11 13  2  0  0  0
 17  1  1  0  0  0
  1  3  1  0  0  0
  2  3  2  0  0  0
  3  5  1  0  0  0
  5  9  2  0  0  0
  5  7  1  0  0  0
  7  6  2  0  0  0
  6  8  1  0  0  0
 10  8  2  0  0  0
  9 10  1  0  0  0
 20 18  1  0  0  0
 21 23  1  0  0  0
 26 24  1  0  0  0
 30 27  1  0  0  0
 20 19  1  0  0  0
 22 23  1  0  0  0
 26 25  1  0  0  0
 30 28  1  0  0  0
 29 30  1  0  0  0
 17 20  1  0  0  0
 23 20  1  0  0  0
 23 26  1  0  0  0
 30 26  1  0  0  0
  1  4  1  0  0  0
 14 15  1  0  0  0
 14 16  1  0  0  0
M  END
> <minimizedAffinity>
-6.88905

$$$$
3RZ1_RZ1_B_1


 30 30  0  0  0  0  0  0  0  0999 V2000
   17.4817    5.9238   13.7639 N   0  0  0  0  0  0  0  0  0  0  0  0
   19.5707    5.0992   13.7178 O   0  0  0  0  0  0  0  0  0  0  0  0
   18.8004    6.0910   13.8058 C   0  0  0  0  0  0  0  0  0  0  0  0
   16.8997    6.7084   13.8864 H   0  0  0  0  0  0  0  0  0  0  0  0
   19.4051    7.4465   13.9952 C   0  0  0  0  0  0  0  0  0  0  0  0
   21.1210    9.0794   13.3642 C   0  0  0  0  0  0  0  0  0  0  0  0
   20.5112    7.8236   13.2130 C   0  0  0  0  0  0  0  0  0  0  0  0
   20.6160    9.9675   14.3689 C   0  0  0  0  0  0  0  0  0  0  0  0
   18.8858    8.3139   14.9699 C   0  0  0  0  0  0  0  0  0  0  0  0
   19.4712    9.5603   15.1532 C   0  0  0  0  0  0  0  0  0  0  0  0
   21.3447   11.5034   14.6081 S   0  0  0  0  0  0  0  0  0  0  0  0
   22.3702   11.6498   13.5651 O   0  0  0  0  0  0  0  0  0  0  0  0
   21.7836   11.5400   15.9909 O   0  0  0  0  0  0  0  0  0  0  0  0
   20.1705   12.6023   14.4308 N   0  0  0  0  0  0  0  0  0  0  0  0
   19.8431   12.5972   13.4647 H   0  0  0  0  0  0  0  0  0  0  0  0
   20.5328   13.5273   14.6621 H   0  0  0  0  0  0  0  0  0  0  0  0
   16.8718    4.6305   13.5446 C   0  0  0  0  0  0  0  0  0  0  0  0
   16.4146    4.9559   15.8031 F   0  0  0  0  0  0  0  0  0  0  0  0
   17.5650    3.2899   15.4015 F   0  0  0  0  0  0  0  0  0  0  0  0
   16.5766    4.0138   14.9154 C   0  0  0  0  0  0  0  0  0  0  0  0
   15.5053    2.3079   13.7498 F   0  0  0  0  0  0  0  0  0  0  0  0
   14.3517    3.8061   14.7579 F   0  0  0  0  0  0  0  0  0  0  0  0
   15.4219    3.0561   14.8823 C   0  0  0  0  0  0  0  0  0  0  0  0
   16.5074    2.3393   17.1780 F   0  0  0  0  0  0  0  0  0  0  0  0
   15.5659    0.9335   15.6291 F   0  0  0  0  0  0  0  0  0  0  0  0
   15.5413    2.1600   16.1709 C   0  0  0  0  0  0  0  0  0  0  0  0
   13.4170    1.6305   16.3214 F   0  0  0  0  0  0  0  0  0  0  0  0
   14.0790    3.7346   16.8192 F   0  0  0  0  0  0  0  0  0  0  0  0
   14.6900    2.1053   18.2444 F   0  0  0  0  0  0  0  0  0  0  0  0
   14.3289    2.4280   16.9766 C   0  0  0  0  0  0  0  0  0  0  0  0
  8 11  1  0  0  0
 14 11  1  0  0  0
 12 11  2  0  0  0
 11 13  2  0  0  0
 17  1  1  0  0  0
  1  3  1  0  0  0
  2  3  2  0  0  0
  3  5  1  0  0  0
  5  9  2  0  0  0
  5  7  1  0  0  0
  7  6  2  0  0  0
  6  8  1  0  0  0
 10  8  2  0  0  0
  9 10  1  0  0  0
 20 18  1  0  0  0
 21 23  1  0  0  0
 26 24  1  0  0  0
 30 27  1  0  0  0
 20 19  1  0  0  0
 22 23  1  0  0  0
 26 25  1  0  0  0
 30 28  1  0  0  0
 29 30  1  0  0  0
 17 20  1  0  0  0
 23 20  1  0  0  0
 23 26  1  0  0  0
 30 26  1  0  0  0
  1  4  1  0  0  0
 14 15  1  0  0  0
 14 16  1  0  0  0
M  END
> <minimizedAffinity>
-6.79308

$$$$
3RZ1_RZ1_B_1


 30 30  0  0  0  0  0  0  0  0999 V2000
   17.7943    6.0116   14.1069 N   0  0  0  0  0  0  0  0  0  0  0  0
   17.0562    7.2438   12.3796 O   0  0  0  0  0  0  0  0  0  0  0  0
   17.7801    7.1408   13.4043 C   0  0  0  0  0  0  0  0  0  0  0  0
   18.4070    5.9376   14.8739 H   0  0  0  0  0  0  0  0  0  0  0  0
   18.6447    8.3017   13.7837 C   0  0  0  0  0  0  0  0  0  0  0  0
   19.7047   10.4180   13.1465 C   0  0  0  0  0  0  0  0  0  0  0  0
   18.8893    9.3164   12.8414 C   0  0  0  0  0  0  0  0  0  0  0  0
   20.3237   10.4729   14.4376 C   0  0  0  0  0  0  0  0  0  0  0  0
   19.2276    8.3517   15.0603 C   0  0  0  0  0  0  0  0  0  0  0  0
   20.0481    9.4223   15.3924 C   0  0  0  0  0  0  0  0  0  0  0  0
   21.3491   11.7873   14.8477 S   0  0  0  0  0  0  0  0  0  0  0  0
   21.9023   11.4909   16.1770 O   0  0  0  0  0  0  0  0  0  0  0  0
   20.5517   12.9915   14.7058 O   0  0  0  0  0  0  0  0  0  0  0  0
   22.5147   11.8288   13.7262 N   0  0  0  0  0  0  0  0  0  0  0  0
   23.0915   10.9912   13.8042 H   0  0  0  0  0  0  0  0  0  0  0  0
   23.0947   12.6556   13.8691 H   0  0  0  0  0  0  0  0  0  0  0  0
   16.9417    4.8884   13.7843 C   0  0  0  0  0  0  0  0  0  0  0  0
   14.7786    5.6893   14.0931 F   0  0  0  0  0  0  0  0  0  0  0  0
   15.9028    5.5928   15.8214 F   0  0  0  0  0  0  0  0  0  0  0  0
   15.6993    4.9725   14.6764 C   0  0  0  0  0  0  0  0  0  0  0  0
   14.4099    3.1229   14.0995 F   0  0  0  0  0  0  0  0  0  0  0  0
   14.4029    3.8477   16.1160 F   0  0  0  0  0  0  0  0  0  0  0  0
   15.1934    3.6225   15.0924 C   0  0  0  0  0  0  0  0  0  0  0  0
   17.6475    3.1604   15.9447 F   0  0  0  0  0  0  0  0  0  0  0  0
   16.6559    2.2210   14.1019 F   0  0  0  0  0  0  0  0  0  0  0  0
   16.4603    2.7195   15.3314 C   0  0  0  0  0  0  0  0  0  0  0  0
   16.0264    2.4717   17.4683 F   0  0  0  0  0  0  0  0  0  0  0  0
   17.0589    0.8059   16.3403 F   0  0  0  0  0  0  0  0  0  0  0  0
   14.8997    1.1933   15.8434 F   0  0  0  0  0  0  0  0  0  0  0  0
   16.0616    1.7002   16.3279 C   0  0  0  0  0  0  0  0  0  0  0  0
  8 11  1  0  0  0
 14 11  1  0  0  0
 12 11  2  0  0  0
 11 13  2  0  0  0
 17  1  1  0  0  0
  1  3  1  0  0  0
  2  3  2  0  0  0
  3  5  1  0  0  0
  5  9  2  0  0  0
  5  7  1  0  0  0
  7  6  2  0  0  0
  6  8  1  0  0  0
 10  8  2  0  0  0
  9 10  1  0  0  0
 20 18  1  0  0  0
 21 23  1  0  0  0
 26 24  1  0  0  0
 30 27  1  0  0  0
 20 19  1  0  0  0
 22 23  1  0  0  0
 26 25  1  0  0  0
 30 28  1  0  0  0
 29 30  1  0  0  0
 17 20  1  0  0  0
 23 20  1  0  0  0
 23 26  1  0  0  0
 30 26  1  0  0  0
  1  4  1  0  0  0
 14 15  1  0  0  0
 14 16  1  0  0  0
M  END
> <minimizedAffinity>
-6.45370

$$$$
