3D6O_U1S_A_125


 25 27  0  0  0  0  0  0  0  0999 V2000
   38.1186   -1.3261   13.8708 C   0  0  0  0  0  0  0  0  0  0  0  0
   38.5227   -2.3551   12.9032 O   0  0  0  0  0  0  0  0  0  0  0  0
   37.6910   -0.2372   12.9191 C   0  0  0  0  0  0  0  0  0  0  0  0
   36.9566    0.7993   13.5537 O   0  0  0  0  0  0  0  0  0  0  0  0
   36.7545   -1.0207   12.0258 C   0  0  0  0  0  0  0  0  0  0  0  0
   36.8699   -0.3747   10.7694 O   0  0  0  0  0  0  0  0  0  0  0  0
   37.3845   -2.4420   11.9948 C   0  0  0  0  0  0  0  0  0  0  0  0
   36.1868    0.4200   14.0057 H   0  0  0  0  0  0  0  0  0  0  0  0
   37.8045   -0.3301   10.5134 H   0  0  0  0  0  0  0  0  0  0  0  0
   34.8079   -5.7355   13.1110 C   0  0  0  0  0  0  0  0  0  0  0  0
   35.9994   -5.5249   13.7987 C   0  0  0  0  0  0  0  0  0  0  0  0
   36.8291   -4.4622   13.4383 C   0  0  0  0  0  0  0  0  0  0  0  0
   36.4769   -3.5831   12.3831 N   0  0  0  0  0  0  0  0  0  0  0  0
   34.4469   -4.8846   12.0508 N   0  0  0  0  0  0  0  0  0  0  0  0
   34.0780   -6.6732   13.4237 O   0  0  0  0  0  0  0  0  0  0  0  0
   35.2740   -3.8062   11.6866 C   0  0  0  0  0  0  0  0  0  0  0  0
   34.9306   -3.0729   10.7600 O   0  0  0  0  0  0  0  0  0  0  0  0
   33.6088   -5.0448   11.5597 H   0  0  0  0  0  0  0  0  0  0  0  0
   39.1455   -0.8207   14.9111 C   0  0  0  0  0  0  0  0  0  0  0  0
   39.3361   -2.0512   18.5710 C   0  0  0  0  0  0  0  0  0  0  0  0
   38.5439   -2.6464   17.3981 C   0  0  0  0  0  0  0  0  0  0  0  0
   37.6940   -1.5771   16.6737 C   0  0  0  0  0  0  0  0  0  0  0  0
   39.2832   -0.5169   18.5473 C   0  0  0  0  0  0  0  0  0  0  0  0
   39.5304    0.0325   17.1329 C   0  0  0  0  0  0  0  0  0  0  0  0
   38.5002   -0.4325   16.1778 N   0  0  0  0  0  0  0  0  0  0  0  0
 10 11  1  0  0  0
 10 14  1  0  0  0
 10 15  2  0  0  0
 11 12  2  0  0  0
 12 13  1  0  0  0
 13  7  1  0  0  0
 13 16  1  0  0  0
 14 16  1  0  0  0
 20 21  1  0  0  0
 20 23  1  0  0  0
 21 22  1  0  0  0
 22 25  1  0  0  0
 23 24  1  0  0  0
 24 25  1  0  0  0
 25 19  1  0  0  0
 19  1  1  0  0  0
  1  2  1  0  0  0
  1  3  1  0  0  0
  2  7  1  0  0  0
  3  4  1  0  0  0
  3  5  1  0  0  0
  5  6  1  0  0  0
  5  7  1  0  0  0
 16 17  2  0  0  0
 14 18  1  0  0  0
  4  8  1  0  0  0
  6  9  1  0  0  0
M  END
> <minimizedAffinity>
-6.81828

$$$$
3D6O_U1S_A_125


 25 27  0  0  0  0  0  0  0  0999 V2000
   37.7420   -0.7793   13.8029 C   0  0  0  0  0  0  0  0  0  0  0  0
   38.3704   -1.8220   12.9805 O   0  0  0  0  0  0  0  0  0  0  0  0
   37.2838    0.1596   12.7154 C   0  0  0  0  0  0  0  0  0  0  0  0
   36.3635    1.1377   13.1765 O   0  0  0  0  0  0  0  0  0  0  0  0
   36.5510   -0.8137   11.8184 C   0  0  0  0  0  0  0  0  0  0  0  0
   36.7157   -0.2650   10.5219 O   0  0  0  0  0  0  0  0  0  0  0  0
   37.3532   -2.1356   11.9828 C   0  0  0  0  0  0  0  0  0  0  0  0
   35.6039    0.6979   13.5894 H   0  0  0  0  0  0  0  0  0  0  0  0
   37.6590   -0.1172   10.3508 H   0  0  0  0  0  0  0  0  0  0  0  0
   35.1052   -5.6412   13.1616 C   0  0  0  0  0  0  0  0  0  0  0  0
   36.2792   -5.3135   13.8334 C   0  0  0  0  0  0  0  0  0  0  0  0
   37.0029   -4.1825   13.4528 C   0  0  0  0  0  0  0  0  0  0  0  0
   36.5596   -3.3515   12.3929 N   0  0  0  0  0  0  0  0  0  0  0  0
   34.6557   -4.8391   12.0972 N   0  0  0  0  0  0  0  0  0  0  0  0
   34.4688   -6.6389   13.4921 O   0  0  0  0  0  0  0  0  0  0  0  0
   35.3753   -3.6928   11.7127 C   0  0  0  0  0  0  0  0  0  0  0  0
   34.9556   -3.0048   10.7828 O   0  0  0  0  0  0  0  0  0  0  0  0
   33.8309   -5.0817   11.6174 H   0  0  0  0  0  0  0  0  0  0  0  0
   38.5834   -0.0564   14.8808 C   0  0  0  0  0  0  0  0  0  0  0  0
   39.0266    1.7713   18.2584 C   0  0  0  0  0  0  0  0  0  0  0  0
   38.5823    0.3242   18.0009 C   0  0  0  0  0  0  0  0  0  0  0  0
   37.4320    0.2481   16.9706 C   0  0  0  0  0  0  0  0  0  0  0  0
   38.3997    2.7288   17.2350 C   0  0  0  0  0  0  0  0  0  0  0  0
   38.4971    2.1678   15.8069 C   0  0  0  0  0  0  0  0  0  0  0  0
   37.7719    0.8850   15.6726 N   0  0  0  0  0  0  0  0  0  0  0  0
 10 11  1  0  0  0
 10 14  1  0  0  0
 10 15  2  0  0  0
 11 12  2  0  0  0
 12 13  1  0  0  0
 13  7  1  0  0  0
 13 16  1  0  0  0
 14 16  1  0  0  0
 20 21  1  0  0  0
 20 23  1  0  0  0
 21 22  1  0  0  0
 22 25  1  0  0  0
 23 24  1  0  0  0
 24 25  1  0  0  0
 25 19  1  0  0  0
 19  1  1  0  0  0
  1  2  1  0  0  0
  1  3  1  0  0  0
  2  7  1  0  0  0
  3  4  1  0  0  0
  3  5  1  0  0  0
  5  6  1  0  0  0
  5  7  1  0  0  0
 16 17  2  0  0  0
 14 18  1  0  0  0
  4  8  1  0  0  0
  6  9  1  0  0  0
M  END
> <minimizedAffinity>
-6.81403

$$$$
3D6O_U1S_A_125


 25 27  0  0  0  0  0  0  0  0999 V2000
   37.8441   -0.4400   13.8170 C   0  0  0  0  0  0  0  0  0  0  0  0
   38.5979   -1.4412   13.0502 O   0  0  0  0  0  0  0  0  0  0  0  0
   37.2183    0.3305   12.6817 C   0  0  0  0  0  0  0  0  0  0  0  0
   36.1753    1.1959   13.1053 O   0  0  0  0  0  0  0  0  0  0  0  0
   36.6144   -0.8093   11.8910 C   0  0  0  0  0  0  0  0  0  0  0  0
   36.6567   -0.3482   10.5513 O   0  0  0  0  0  0  0  0  0  0  0  0
   37.6107   -1.9807   12.1213 C   0  0  0  0  0  0  0  0  0  0  0  0
   35.5029    0.6833   13.5807 H   0  0  0  0  0  0  0  0  0  0  0  0
   37.5616   -0.0770   10.3312 H   0  0  0  0  0  0  0  0  0  0  0  0
   35.9024   -5.6430   13.6708 C   0  0  0  0  0  0  0  0  0  0  0  0
   35.0893   -4.5322   13.4663 C   0  0  0  0  0  0  0  0  0  0  0  0
   35.6411   -3.3520   12.9660 C   0  0  0  0  0  0  0  0  0  0  0  0
   37.0213   -3.2635   12.6537 N   0  0  0  0  0  0  0  0  0  0  0  0
   37.2772   -5.5720   13.3821 N   0  0  0  0  0  0  0  0  0  0  0  0
   35.4196   -6.6817   14.1154 O   0  0  0  0  0  0  0  0  0  0  0  0
   37.8397   -4.3884   12.8699 C   0  0  0  0  0  0  0  0  0  0  0  0
   39.0440   -4.3559   12.6192 O   0  0  0  0  0  0  0  0  0  0  0  0
   37.8505   -6.3568   13.5397 H   0  0  0  0  0  0  0  0  0  0  0  0
   38.5983    0.4835   14.8022 C   0  0  0  0  0  0  0  0  0  0  0  0
   39.0580    1.5002   18.5036 C   0  0  0  0  0  0  0  0  0  0  0  0
   38.8886    0.0951   17.9078 C   0  0  0  0  0  0  0  0  0  0  0  0
   37.6640    0.0105   16.9677 C   0  0  0  0  0  0  0  0  0  0  0  0
   38.1340    2.5081   17.8053 C   0  0  0  0  0  0  0  0  0  0  0  0
   38.1736    2.3424   16.2774 C   0  0  0  0  0  0  0  0  0  0  0  0
   37.7124    0.9996   15.8606 N   0  0  0  0  0  0  0  0  0  0  0  0
 10 11  1  0  0  0
 10 14  1  0  0  0
 10 15  2  0  0  0
 11 12  2  0  0  0
 12 13  1  0  0  0
 13  7  1  0  0  0
 13 16  1  0  0  0
 14 16  1  0  0  0
 20 21  1  0  0  0
 20 23  1  0  0  0
 21 22  1  0  0  0
 22 25  1  0  0  0
 23 24  1  0  0  0
 24 25  1  0  0  0
 25 19  1  0  0  0
 19  1  1  0  0  0
  1  2  1  0  0  0
  1  3  1  0  0  0
  2  7  1  0  0  0
  3  4  1  0  0  0
  3  5  1  0  0  0
  5  6  1  0  0  0
  5  7  1  0  0  0
 16 17  2  0  0  0
 14 18  1  0  0  0
  4  8  1  0  0  0
  6  9  1  0  0  0
M  END
> <minimizedAffinity>
-6.64855

$$$$
3D6O_U1S_A_125


 25 27  0  0  0  0  0  0  0  0999 V2000
   38.3487   -2.0020   15.3124 C   0  0  0  0  0  0  0  0  0  0  0  0
   39.3412   -0.9902   14.9255 O   0  0  0  0  0  0  0  0  0  0  0  0
   38.5516   -1.9978   16.8068 C   0  0  0  0  0  0  0  0  0  0  0  0
   37.5155   -2.6666   17.5106 O   0  0  0  0  0  0  0  0  0  0  0  0
   38.4483   -0.5138   17.0826 C   0  0  0  0  0  0  0  0  0  0  0  0
   39.2919   -0.3213   18.2053 O   0  0  0  0  0  0  0  0  0  0  0  0
   39.0463    0.1371   15.8033 C   0  0  0  0  0  0  0  0  0  0  0  0
   36.6606   -2.2696   17.2817 H   0  0  0  0  0  0  0  0  0  0  0  0
   40.1712   -0.6839   18.0150 H   0  0  0  0  0  0  0  0  0  0  0  0
   36.5684    3.0364   13.7574 C   0  0  0  0  0  0  0  0  0  0  0  0
   36.9835    1.8874   13.0907 C   0  0  0  0  0  0  0  0  0  0  0  0
   37.7820    0.9530   13.7517 C   0  0  0  0  0  0  0  0  0  0  0  0
   38.1758    1.1488   15.0996 N   0  0  0  0  0  0  0  0  0  0  0  0
   36.9604    3.2578   15.0899 N   0  0  0  0  0  0  0  0  0  0  0  0
   35.8691    3.8627   13.1760 O   0  0  0  0  0  0  0  0  0  0  0  0
   37.7586    2.3167   15.7658 C   0  0  0  0  0  0  0  0  0  0  0  0
   38.0812    2.5319   16.9336 O   0  0  0  0  0  0  0  0  0  0  0  0
   36.6740    4.0779   15.5534 H   0  0  0  0  0  0  0  0  0  0  0  0
   38.4467   -3.4253   14.7149 C   0  0  0  0  0  0  0  0  0  0  0  0
   35.0500   -4.5195   13.2282 C   0  0  0  0  0  0  0  0  0  0  0  0
   36.2352   -5.3946   13.6610 C   0  0  0  0  0  0  0  0  0  0  0  0
   37.5665   -4.9113   13.0408 C   0  0  0  0  0  0  0  0  0  0  0  0
   35.5363   -3.2488   12.5169 C   0  0  0  0  0  0  0  0  0  0  0  0
   36.7034   -2.5929   13.2727 C   0  0  0  0  0  0  0  0  0  0  0  0
   37.8743   -3.4934   13.3587 N   0  0  0  0  0  0  0  0  0  0  0  0
 10 11  1  0  0  0
 10 14  1  0  0  0
 10 15  2  0  0  0
 11 12  2  0  0  0
 12 13  1  0  0  0
 13  7  1  0  0  0
 13 16  1  0  0  0
 14 16  1  0  0  0
 20 21  1  0  0  0
 20 23  1  0  0  0
 21 22  1  0  0  0
 22 25  1  0  0  0
 23 24  1  0  0  0
 24 25  1  0  0  0
 25 19  1  0  0  0
 19  1  1  0  0  0
  1  2  1  0  0  0
  1  3  1  0  0  0
  2  7  1  0  0  0
  3  4  1  0  0  0
  3  5  1  0  0  0
  5  6  1  0  0  0
  5  7  1  0  0  0
 16 17  2  0  0  0
 14 18  1  0  0  0
  4  8  1  0  0  0
  6  9  1  0  0  0
M  END
> <minimizedAffinity>
-6.13182

$$$$
3D6O_U1S_A_125


 25 27  0  0  0  0  0  0  0  0999 V2000
   36.1352   -4.5991   13.0166 C   0  0  0  0  0  0  0  0  0  0  0  0
   36.3644   -3.2858   13.6339 O   0  0  0  0  0  0  0  0  0  0  0  0
   35.0345   -4.2370   12.0514 C   0  0  0  0  0  0  0  0  0  0  0  0
   34.7937   -5.2437   11.0794 O   0  0  0  0  0  0  0  0  0  0  0  0
   35.6646   -3.0425   11.3693 C   0  0  0  0  0  0  0  0  0  0  0  0
   34.5559   -2.2307   11.0218 O   0  0  0  0  0  0  0  0  0  0  0  0
   36.5180   -2.3894   12.4932 C   0  0  0  0  0  0  0  0  0  0  0  0
   35.6161   -5.4357   10.6021 H   0  0  0  0  0  0  0  0  0  0  0  0
   34.0160   -2.0659   11.8106 H   0  0  0  0  0  0  0  0  0  0  0  0
   40.7126   -1.7741   11.6218 C   0  0  0  0  0  0  0  0  0  0  0  0
   40.2548   -3.0443   11.9593 C   0  0  0  0  0  0  0  0  0  0  0  0
   38.9019   -3.2416   12.2395 C   0  0  0  0  0  0  0  0  0  0  0  0
   37.9774   -2.1683   12.1803 N   0  0  0  0  0  0  0  0  0  0  0  0
   39.8150   -0.6922   11.5722 N   0  0  0  0  0  0  0  0  0  0  0  0
   41.9040   -1.5971   11.3791 O   0  0  0  0  0  0  0  0  0  0  0  0
   38.4483   -0.8845   11.8455 C   0  0  0  0  0  0  0  0  0  0  0  0
   37.6837    0.0779   11.7879 O   0  0  0  0  0  0  0  0  0  0  0  0
   40.1458    0.2067   11.3445 H   0  0  0  0  0  0  0  0  0  0  0  0
   35.7524   -5.8001   13.9131 C   0  0  0  0  0  0  0  0  0  0  0  0
   37.0349   -8.3640   11.3196 C   0  0  0  0  0  0  0  0  0  0  0  0
   35.7951   -8.4490   12.2215 C   0  0  0  0  0  0  0  0  0  0  0  0
   36.1379   -8.1650   13.7022 C   0  0  0  0  0  0  0  0  0  0  0  0
   38.2260   -7.7616   12.0783 C   0  0  0  0  0  0  0  0  0  0  0  0
   37.8100   -6.5196   12.8832 C   0  0  0  0  0  0  0  0  0  0  0  0
   36.7904   -6.8461   13.9046 N   0  0  0  0  0  0  0  0  0  0  0  0
 10 11  1  0  0  0
 10 14  1  0  0  0
 10 15  2  0  0  0
 11 12  2  0  0  0
 12 13  1  0  0  0
 13  7  1  0  0  0
 13 16  1  0  0  0
 14 16  1  0  0  0
 20 21  1  0  0  0
 20 23  1  0  0  0
 21 22  1  0  0  0
 22 25  1  0  0  0
 23 24  1  0  0  0
 24 25  1  0  0  0
 25 19  1  0  0  0
 19  1  1  0  0  0
  1  2  1  0  0  0
  1  3  1  0  0  0
  2  7  1  0  0  0
  3  4  1  0  0  0
  3  5  1  0  0  0
  5  6  1  0  0  0
  5  7  1  0  0  0
 16 17  2  0  0  0
 14 18  1  0  0  0
  4  8  1  0  0  0
  6  9  1  0  0  0
M  END
> <minimizedAffinity>
-6.11911

$$$$
3D6O_U1S_A_125


 25 27  0  0  0  0  0  0  0  0999 V2000
   38.5273   -1.3368   13.2720 C   0  0  0  0  0  0  0  0  0  0  0  0
   38.5512   -2.4953   14.1752 O   0  0  0  0  0  0  0  0  0  0  0  0
   39.7259   -1.6584   12.4152 C   0  0  0  0  0  0  0  0  0  0  0  0
   39.7958   -0.8683   11.2375 O   0  0  0  0  0  0  0  0  0  0  0  0
   39.3976   -3.0833   12.0269 C   0  0  0  0  0  0  0  0  0  0  0  0
   40.6688   -3.6914   11.8747 O   0  0  0  0  0  0  0  0  0  0  0  0
   38.6474   -3.6365   13.2715 C   0  0  0  0  0  0  0  0  0  0  0  0
   38.9760   -0.9720   10.7295 H   0  0  0  0  0  0  0  0  0  0  0  0
   41.1918   -3.5532   12.6799 H   0  0  0  0  0  0  0  0  0  0  0  0
   34.7261   -5.3214   12.5527 C   0  0  0  0  0  0  0  0  0  0  0  0
   35.0572   -4.0827   12.0112 C   0  0  0  0  0  0  0  0  0  0  0  0
   36.3222   -3.5408   12.2432 C   0  0  0  0  0  0  0  0  0  0  0  0
   37.2853   -4.2343   13.0189 N   0  0  0  0  0  0  0  0  0  0  0  0
   35.6613   -6.0192   13.3381 N   0  0  0  0  0  0  0  0  0  0  0  0
   33.6115   -5.7984   12.3535 O   0  0  0  0  0  0  0  0  0  0  0  0
   36.9414   -5.4833   13.5699 C   0  0  0  0  0  0  0  0  0  0  0  0
   37.7427   -6.1182   14.2547 O   0  0  0  0  0  0  0  0  0  0  0  0
   35.4182   -6.8896   13.7288 H   0  0  0  0  0  0  0  0  0  0  0  0
   38.6024    0.0887   13.8678 C   0  0  0  0  0  0  0  0  0  0  0  0
   37.3289    3.7362   14.0053 C   0  0  0  0  0  0  0  0  0  0  0  0
   36.5245    2.4334   14.1222 C   0  0  0  0  0  0  0  0  0  0  0  0
   36.8394    1.4550   12.9671 C   0  0  0  0  0  0  0  0  0  0  0  0
   38.4203    3.6136   12.9325 C   0  0  0  0  0  0  0  0  0  0  0  0
   39.1806    2.2829   13.0533 C   0  0  0  0  0  0  0  0  0  0  0  0
   38.2833    1.1213   12.8660 N   0  0  0  0  0  0  0  0  0  0  0  0
 10 11  1  0  0  0
 10 14  1  0  0  0
 10 15  2  0  0  0
 11 12  2  0  0  0
 12 13  1  0  0  0
 13  7  1  0  0  0
 13 16  1  0  0  0
 14 16  1  0  0  0
 20 21  1  0  0  0
 20 23  1  0  0  0
 21 22  1  0  0  0
 22 25  1  0  0  0
 23 24  1  0  0  0
 24 25  1  0  0  0
 25 19  1  0  0  0
 19  1  1  0  0  0
  1  2  1  0  0  0
  1  3  1  0  0  0
  2  7  1  0  0  0
  3  4  1  0  0  0
  3  5  1  0  0  0
  5  6  1  0  0  0
  5  7  1  0  0  0
 16 17  2  0  0  0
 14 18  1  0  0  0
  4  8  1  0  0  0
  6  9  1  0  0  0
M  END
> <minimizedAffinity>
-5.81463

$$$$
3D6O_U1S_A_125


 25 27  0  0  0  0  0  0  0  0999 V2000
   37.4640   -2.5522   14.8460 C   0  0  0  0  0  0  0  0  0  0  0  0
   38.1555   -3.8113   14.5375 O   0  0  0  0  0  0  0  0  0  0  0  0
   37.8403   -1.7506   13.6253 C   0  0  0  0  0  0  0  0  0  0  0  0
   37.0696   -0.5671   13.4779 O   0  0  0  0  0  0  0  0  0  0  0  0
   37.4473   -2.7262   12.5378 C   0  0  0  0  0  0  0  0  0  0  0  0
   38.3573   -2.4439   11.4884 O   0  0  0  0  0  0  0  0  0  0  0  0
   37.7283   -4.1160   13.1762 C   0  0  0  0  0  0  0  0  0  0  0  0
   36.1270   -0.7955   13.4584 H   0  0  0  0  0  0  0  0  0  0  0  0
   39.2652   -2.4885   11.8270 H   0  0  0  0  0  0  0  0  0  0  0  0
   34.4107   -6.8952   13.2142 C   0  0  0  0  0  0  0  0  0  0  0  0
   34.1780   -5.5426   12.9833 C   0  0  0  0  0  0  0  0  0  0  0  0
   35.2487   -4.6474   12.9706 C   0  0  0  0  0  0  0  0  0  0  0  0
   36.5781   -5.0924   13.1831 N   0  0  0  0  0  0  0  0  0  0  0  0
   35.7200   -7.3555   13.4426 N   0  0  0  0  0  0  0  0  0  0  0  0
   33.4691   -7.6844   13.2302 O   0  0  0  0  0  0  0  0  0  0  0  0
   36.8057   -6.4607   13.4235 C   0  0  0  0  0  0  0  0  0  0  0  0
   37.9417   -6.8913   13.6193 O   0  0  0  0  0  0  0  0  0  0  0  0
   35.8781   -8.3114   13.6173 H   0  0  0  0  0  0  0  0  0  0  0  0
   37.7996   -1.8068   16.1590 C   0  0  0  0  0  0  0  0  0  0  0  0
   40.0742    0.2865   18.4805 C   0  0  0  0  0  0  0  0  0  0  0  0
   38.5984    0.5140   18.1227 C   0  0  0  0  0  0  0  0  0  0  0  0
   38.3647    0.4904   16.5945 C   0  0  0  0  0  0  0  0  0  0  0  0
   40.8741   -0.1671   17.2510 C   0  0  0  0  0  0  0  0  0  0  0  0
   40.1269   -1.2566   16.4647 C   0  0  0  0  0  0  0  0  0  0  0  0
   38.8258   -0.7689   15.9559 N   0  0  0  0  0  0  0  0  0  0  0  0
 10 11  1  0  0  0
 10 14  1  0  0  0
 10 15  2  0  0  0
 11 12  2  0  0  0
 12 13  1  0  0  0
 13  7  1  0  0  0
 13 16  1  0  0  0
 14 16  1  0  0  0
 20 21  1  0  0  0
 20 23  1  0  0  0
 21 22  1  0  0  0
 22 25  1  0  0  0
 23 24  1  0  0  0
 24 25  1  0  0  0
 25 19  1  0  0  0
 19  1  1  0  0  0
  1  2  1  0  0  0
  1  3  1  0  0  0
  2  7  1  0  0  0
  3  4  1  0  0  0
  3  5  1  0  0  0
  5  6  1  0  0  0
  5  7  1  0  0  0
 16 17  2  0  0  0
 14 18  1  0  0  0
  4  8  1  0  0  0
  6  9  1  0  0  0
M  END
> <minimizedAffinity>
-5.76059

$$$$
3D6O_U1S_A_125


 25 27  0  0  0  0  0  0  0  0999 V2000
   38.2184   -2.0998   14.0668 C   0  0  0  0  0  0  0  0  0  0  0  0
   39.1920   -1.1369   13.5346 O   0  0  0  0  0  0  0  0  0  0  0  0
   38.8088   -2.3270   15.4358 C   0  0  0  0  0  0  0  0  0  0  0  0
   37.9205   -2.9932   16.3209 O   0  0  0  0  0  0  0  0  0  0  0  0
   38.9697   -0.8943   15.8945 C   0  0  0  0  0  0  0  0  0  0  0  0
   40.0978   -0.9407   16.7515 O   0  0  0  0  0  0  0  0  0  0  0  0
   39.2845   -0.1243   14.5808 C   0  0  0  0  0  0  0  0  0  0  0  0
   37.0925   -2.4921   16.3857 H   0  0  0  0  0  0  0  0  0  0  0  0
   40.8424   -1.3503   16.2839 H   0  0  0  0  0  0  0  0  0  0  0  0
   36.7010    3.2320   13.6901 C   0  0  0  0  0  0  0  0  0  0  0  0
   36.5588    2.5495   14.8947 C   0  0  0  0  0  0  0  0  0  0  0  0
   37.3929    1.4678   15.1810 C   0  0  0  0  0  0  0  0  0  0  0  0
   38.3931    1.0517   14.2663 N   0  0  0  0  0  0  0  0  0  0  0  0
   37.6766    2.8261   12.7617 N   0  0  0  0  0  0  0  0  0  0  0  0
   35.9649    4.1818   13.4339 O   0  0  0  0  0  0  0  0  0  0  0  0
   38.5267    1.7417   13.0464 C   0  0  0  0  0  0  0  0  0  0  0  0
   39.3764    1.4122   12.2196 O   0  0  0  0  0  0  0  0  0  0  0  0
   37.7654    3.3047   11.9060 H   0  0  0  0  0  0  0  0  0  0  0  0
   37.9748   -3.4263   13.3096 C   0  0  0  0  0  0  0  0  0  0  0  0
   35.1035   -5.6329   11.9562 C   0  0  0  0  0  0  0  0  0  0  0  0
   35.1660   -4.1030   12.0717 C   0  0  0  0  0  0  0  0  0  0  0  0
   35.5863   -3.6477   13.4883 C   0  0  0  0  0  0  0  0  0  0  0  0
   35.7289   -6.3028   13.1880 C   0  0  0  0  0  0  0  0  0  0  0  0
   37.0643   -5.6434   13.5695 C   0  0  0  0  0  0  0  0  0  0  0  0
   36.8896   -4.2160   13.9181 N   0  0  0  0  0  0  0  0  0  0  0  0
 10 11  1  0  0  0
 10 14  1  0  0  0
 10 15  2  0  0  0
 11 12  2  0  0  0
 12 13  1  0  0  0
 13  7  1  0  0  0
 13 16  1  0  0  0
 14 16  1  0  0  0
 20 21  1  0  0  0
 20 23  1  0  0  0
 21 22  1  0  0  0
 22 25  1  0  0  0
 23 24  1  0  0  0
 24 25  1  0  0  0
 25 19  1  0  0  0
 19  1  1  0  0  0
  1  2  1  0  0  0
  1  3  1  0  0  0
  2  7  1  0  0  0
  3  4  1  0  0  0
  3  5  1  0  0  0
  5  6  1  0  0  0
  5  7  1  0  0  0
 16 17  2  0  0  0
 14 18  1  0  0  0
  4  8  1  0  0  0
  6  9  1  0  0  0
M  END
> <minimizedAffinity>
-5.75567

$$$$
3D6O_U1S_A_125


 25 27  0  0  0  0  0  0  0  0999 V2000
   38.8901   -2.3509   12.9168 C   0  0  0  0  0  0  0  0  0  0  0  0
   37.5452   -1.9498   12.4825 O   0  0  0  0  0  0  0  0  0  0  0  0
   38.8154   -1.9560   14.3704 C   0  0  0  0  0  0  0  0  0  0  0  0
   39.8733   -2.4962   15.1485 O   0  0  0  0  0  0  0  0  0  0  0  0
   37.5240   -2.6393   14.7631 C   0  0  0  0  0  0  0  0  0  0  0  0
   36.9993   -1.8055   15.7822 O   0  0  0  0  0  0  0  0  0  0  0  0
   36.6648   -2.5659   13.4692 C   0  0  0  0  0  0  0  0  0  0  0  0
   39.8809   -3.4619   15.0576 H   0  0  0  0  0  0  0  0  0  0  0  0
   36.9454   -0.8930   15.4576 H   0  0  0  0  0  0  0  0  0  0  0  0
   35.1303   -6.3355   11.9971 C   0  0  0  0  0  0  0  0  0  0  0  0
   35.9809   -6.3171   13.0985 C   0  0  0  0  0  0  0  0  0  0  0  0
   36.4745   -5.1009   13.5727 C   0  0  0  0  0  0  0  0  0  0  0  0
   36.1192   -3.8752   12.9549 N   0  0  0  0  0  0  0  0  0  0  0  0
   34.7774   -5.1323   11.3597 N   0  0  0  0  0  0  0  0  0  0  0  0
   34.6980   -7.4055   11.5752 O   0  0  0  0  0  0  0  0  0  0  0  0
   35.2644   -3.9015   11.8366 C   0  0  0  0  0  0  0  0  0  0  0  0
   34.9341   -2.8633   11.2646 O   0  0  0  0  0  0  0  0  0  0  0  0
   34.1849   -5.1516   10.5737 H   0  0  0  0  0  0  0  0  0  0  0  0
   40.1255   -1.7445   12.2108 C   0  0  0  0  0  0  0  0  0  0  0  0
   43.5425   -3.4474   11.6038 C   0  0  0  0  0  0  0  0  0  0  0  0
   43.1165   -2.0080   11.2811 C   0  0  0  0  0  0  0  0  0  0  0  0
   41.7899   -1.9626   10.4881 C   0  0  0  0  0  0  0  0  0  0  0  0
   42.4124   -4.4383   11.2906 C   0  0  0  0  0  0  0  0  0  0  0  0
   41.0590   -3.9318   11.8155 C   0  0  0  0  0  0  0  0  0  0  0  0
   40.6729   -2.6500   11.1851 N   0  0  0  0  0  0  0  0  0  0  0  0
 10 11  1  0  0  0
 10 14  1  0  0  0
 10 15  2  0  0  0
 11 12  2  0  0  0
 12 13  1  0  0  0
 13  7  1  0  0  0
 13 16  1  0  0  0
 14 16  1  0  0  0
 20 21  1  0  0  0
 20 23  1  0  0  0
 21 22  1  0  0  0
 22 25  1  0  0  0
 23 24  1  0  0  0
 24 25  1  0  0  0
 25 19  1  0  0  0
 19  1  1  0  0  0
  1  2  1  0  0  0
  1  3  1  0  0  0
  2  7  1  0  0  0
  3  4  1  0  0  0
  3  5  1  0  0  0
  5  6  1  0  0  0
  5  7  1  0  0  0
 16 17  2  0  0  0
 14 18  1  0  0  0
  4  8  1  0  0  0
  6  9  1  0  0  0
M  END
> <minimizedAffinity>
-5.74252

$$$$
3D6O_U1S_A_125


 25 27  0  0  0  0  0  0  0  0999 V2000
   36.2581   -3.9951   12.7572 C   0  0  0  0  0  0  0  0  0  0  0  0
   37.2373   -3.2809   13.5876 O   0  0  0  0  0  0  0  0  0  0  0  0
   35.7554   -2.8491   11.9156 C   0  0  0  0  0  0  0  0  0  0  0  0
   34.9999   -3.2745   10.7911 O   0  0  0  0  0  0  0  0  0  0  0  0
   37.0712   -2.2807   11.4313 C   0  0  0  0  0  0  0  0  0  0  0  0
   36.8032   -0.8975   11.2772 O   0  0  0  0  0  0  0  0  0  0  0  0
   38.0406   -2.5436   12.6183 C   0  0  0  0  0  0  0  0  0  0  0  0
   35.5323   -3.8829   10.2553 H   0  0  0  0  0  0  0  0  0  0  0  0
   36.4372   -0.5450   12.1034 H   0  0  0  0  0  0  0  0  0  0  0  0
   41.6734   -4.7150   11.7126 C   0  0  0  0  0  0  0  0  0  0  0  0
   40.6263   -5.3592   12.3650 C   0  0  0  0  0  0  0  0  0  0  0  0
   39.4552   -4.6581   12.6560 C   0  0  0  0  0  0  0  0  0  0  0  0
   39.3072   -3.2958   12.2919 N   0  0  0  0  0  0  0  0  0  0  0  0
   41.5535   -3.3596   11.3562 N   0  0  0  0  0  0  0  0  0  0  0  0
   42.7071   -5.3290   11.4594 O   0  0  0  0  0  0  0  0  0  0  0  0
   40.3730   -2.6481   11.6388 C   0  0  0  0  0  0  0  0  0  0  0  0
   40.2920   -1.4652   11.3096 O   0  0  0  0  0  0  0  0  0  0  0  0
   42.3015   -2.9052   10.9054 H   0  0  0  0  0  0  0  0  0  0  0  0
   35.1046   -4.7656   13.4414 C   0  0  0  0  0  0  0  0  0  0  0  0
   34.9974   -7.6419   10.8606 C   0  0  0  0  0  0  0  0  0  0  0  0
   33.8339   -6.9938   11.6248 C   0  0  0  0  0  0  0  0  0  0  0  0
   34.1047   -6.9332   13.1459 C   0  0  0  0  0  0  0  0  0  0  0  0
   36.2238   -7.8122   11.7684 C   0  0  0  0  0  0  0  0  0  0  0  0
   36.4950   -6.5422   12.5913 C   0  0  0  0  0  0  0  0  0  0  0  0
   35.3608   -6.2162   13.4839 N   0  0  0  0  0  0  0  0  0  0  0  0
 10 11  1  0  0  0
 10 14  1  0  0  0
 10 15  2  0  0  0
 11 12  2  0  0  0
 12 13  1  0  0  0
 13  7  1  0  0  0
 13 16  1  0  0  0
 14 16  1  0  0  0
 20 21  1  0  0  0
 20 23  1  0  0  0
 21 22  1  0  0  0
 22 25  1  0  0  0
 23 24  1  0  0  0
 24 25  1  0  0  0
 25 19  1  0  0  0
 19  1  1  0  0  0
  1  2  1  0  0  0
  1  3  1  0  0  0
  2  7  1  0  0  0
  3  4  1  0  0  0
  3  5  1  0  0  0
  5  6  1  0  0  0
  5  7  1  0  0  0
 16 17  2  0  0  0
 14 18  1  0  0  0
  4  8  1  0  0  0
  6  9  1  0  0  0
M  END
> <minimizedAffinity>
-5.73537

$$$$
