2ZX8_ZX8_A_901


 28 30  0  0  0  0  0  0  0  0999 V2000
   -2.0029   25.7841   27.1107 C   0  0  0  0  0  0  0  0  0  0  0  0
   -1.6190   26.8546   26.0816 C   0  0  0  0  0  0  0  0  0  0  0  0
   -0.1639   27.0788   26.0699 N   0  0  0  0  0  0  0  0  0  0  0  0
    0.1913   28.1574   25.1309 C   0  0  0  0  0  0  0  0  0  0  0  0
    1.7024   28.3745   25.1798 C   0  0  0  0  0  0  0  0  0  0  0  0
   -0.2750   27.8715   23.6958 C   0  0  0  0  0  0  0  0  0  0  0  0
    0.3690   26.7015   23.1783 O   0  0  0  0  0  0  0  0  0  0  0  0
   -1.7821   27.6150   23.7154 C   0  0  0  0  0  0  0  0  0  0  0  0
   -2.2734   27.2809   22.4155 O   0  0  0  0  0  0  0  0  0  0  0  0
   -2.0446   26.4472   24.6678 C   0  0  0  0  0  0  0  0  0  0  0  0
   -3.4339   26.1206   24.6276 O   0  0  0  0  0  0  0  0  0  0  0  0
    0.3048   26.2189   25.7844 H   0  0  0  0  0  0  0  0  0  0  0  0
    0.1491   25.9384   23.7352 H   0  0  0  0  0  0  0  0  0  0  0  0
   -1.8319   26.4770   22.0998 H   0  0  0  0  0  0  0  0  0  0  0  0
   -3.9558   26.8945   24.8915 H   0  0  0  0  0  0  0  0  0  0  0  0
   -2.3155   26.2316   29.5097 C   0  0  0  0  0  0  0  0  0  0  0  0
   -3.5180   26.0031   29.4917 O   0  0  0  0  0  0  0  0  0  0  0  0
   -1.5066   26.1361   28.4464 N   0  0  0  0  0  0  0  0  0  0  0  0
   -0.5445   26.3081   28.5650 H   0  0  0  0  0  0  0  0  0  0  0  0
   -1.3999   27.7958   31.3024 C   0  0  0  0  0  0  0  0  0  0  0  0
   -0.4232   27.7100   32.2101 C   0  0  0  0  0  0  0  0  0  0  0  0
    0.2838   28.6752   32.9038 C   0  0  0  0  0  0  0  0  0  0  0  0
    1.3645   28.3044   33.7046 C   0  0  0  0  0  0  0  0  0  0  0  0
    1.7355   26.9707   33.8166 C   0  0  0  0  0  0  0  0  0  0  0  0
    1.0233   25.9940   33.1273 C   0  0  0  0  0  0  0  0  0  0  0  0
   -0.0487   26.3697   32.3278 C   0  0  0  0  0  0  0  0  0  0  0  0
   -0.8329   25.6636   31.4661 O   0  0  0  0  0  0  0  0  0  0  0  0
   -1.6358   26.5730   30.8367 C   0  0  0  0  0  0  0  0  0  0  0  0
 20 21  1  0  0  0
 20 28  2  0  0  0
 21 22  2  0  0  0
 21 26  1  0  0  0
 22 23  1  0  0  0
 23 24  2  0  0  0
 24 25  1  0  0  0
 25 26  2  0  0  0
 26 27  1  0  0  0
 27 28  1  0  0  0
 28 16  1  0  0  0
 16 17  2  0  0  0
 16 18  1  0  0  0
 18  1  1  0  0  0
  1  2  1  0  0  0
  2  3  1  0  0  0
  2 10  1  0  0  0
  3  4  1  0  0  0
  4  5  1  0  0  0
  4  6  1  0  0  0
  6  7  1  0  0  0
  6  8  1  0  0  0
  8  9  1  0  0  0
  8 10  1  0  0  0
 10 11  1  0  0  0
 18 19  1  0  0  0
  3 12  1  0  0  0
  7 13  1  0  0  0
  9 14  1  0  0  0
 11 15  1  0  0  0
M  END
> <minimizedAffinity>
-10.22279

$$$$
2ZX8_ZX8_A_901


 28 30  0  0  0  0  0  0  0  0999 V2000
   -1.7852   25.9643   27.3166 C   0  0  0  0  0  0  0  0  0  0  0  0
   -1.5407   26.9347   26.1543 C   0  0  0  0  0  0  0  0  0  0  0  0
   -0.1086   27.2496   26.0211 N   0  0  0  0  0  0  0  0  0  0  0  0
    0.1120   28.2364   24.9492 C   0  0  0  0  0  0  0  0  0  0  0  0
    1.6040   28.5548   24.8731 C   0  0  0  0  0  0  0  0  0  0  0  0
   -0.4170   27.7614   23.5879 C   0  0  0  0  0  0  0  0  0  0  0  0
    0.2772   26.5847   23.1581 O   0  0  0  0  0  0  0  0  0  0  0  0
   -1.8981   27.4119   23.7360 C   0  0  0  0  0  0  0  0  0  0  0  0
   -2.4405   26.9027   22.5158 O   0  0  0  0  0  0  0  0  0  0  0  0
   -2.0192   26.3443   24.8246 C   0  0  0  0  0  0  0  0  0  0  0  0
   -3.3815   25.9262   24.9131 O   0  0  0  0  0  0  0  0  0  0  0  0
    0.4026   26.3952   25.7995 H   0  0  0  0  0  0  0  0  0  0  0  0
    0.1459   25.8764   23.8077 H   0  0  0  0  0  0  0  0  0  0  0  0
   -1.9622   26.0985   22.2601 H   0  0  0  0  0  0  0  0  0  0  0  0
   -3.9408   26.6895   25.1261 H   0  0  0  0  0  0  0  0  0  0  0  0
   -2.1038   26.7638   29.6214 C   0  0  0  0  0  0  0  0  0  0  0  0
   -0.9810   26.4422   29.9882 O   0  0  0  0  0  0  0  0  0  0  0  0
   -2.5737   26.6019   28.3777 N   0  0  0  0  0  0  0  0  0  0  0  0
   -3.4807   26.9221   28.1676 H   0  0  0  0  0  0  0  0  0  0  0  0
   -2.8850   27.5451   31.9188 C   0  0  0  0  0  0  0  0  0  0  0  0
   -4.0748   27.8266   32.4576 C   0  0  0  0  0  0  0  0  0  0  0  0
   -4.5057   27.8883   33.7704 C   0  0  0  0  0  0  0  0  0  0  0  0
   -5.8599   28.0746   34.0497 C   0  0  0  0  0  0  0  0  0  0  0  0
   -6.7820   28.2042   33.0193 C   0  0  0  0  0  0  0  0  0  0  0  0
   -6.3537   28.1509   31.6965 C   0  0  0  0  0  0  0  0  0  0  0  0
   -5.0049   27.9604   31.4245 C   0  0  0  0  0  0  0  0  0  0  0  0
   -4.3320   27.7528   30.2583 O   0  0  0  0  0  0  0  0  0  0  0  0
   -3.0374   27.4786   30.5998 C   0  0  0  0  0  0  0  0  0  0  0  0
 20 21  1  0  0  0
 20 28  2  0  0  0
 21 22  2  0  0  0
 21 26  1  0  0  0
 22 23  1  0  0  0
 23 24  2  0  0  0
 24 25  1  0  0  0
 25 26  2  0  0  0
 26 27  1  0  0  0
 27 28  1  0  0  0
 28 16  1  0  0  0
 16 17  2  0  0  0
 16 18  1  0  0  0
 18  1  1  0  0  0
  1  2  1  0  0  0
  2  3  1  0  0  0
  2 10  1  0  0  0
  3  4  1  0  0  0
  4  5  1  0  0  0
  4  6  1  0  0  0
  6  7  1  0  0  0
  6  8  1  0  0  0
  8  9  1  0  0  0
  8 10  1  0  0  0
 10 11  1  0  0  0
 18 19  1  0  0  0
  3 12  1  0  0  0
  7 13  1  0  0  0
  9 14  1  0  0  0
 11 15  1  0  0  0
M  END
> <minimizedAffinity>
-10.18929

$$$$
2ZX8_ZX8_A_901


 28 30  0  0  0  0  0  0  0  0999 V2000
   -2.2039   26.0351   26.6029 C   0  0  0  0  0  0  0  0  0  0  0  0
   -1.4561   27.0901   25.7781 C   0  0  0  0  0  0  0  0  0  0  0  0
   -0.0350   27.1488   26.1587 N   0  0  0  0  0  0  0  0  0  0  0  0
    0.6621   28.2120   25.4138 C   0  0  0  0  0  0  0  0  0  0  0  0
    2.1201   28.2552   25.8669 C   0  0  0  0  0  0  0  0  0  0  0  0
    0.5665   28.0300   23.8918 C   0  0  0  0  0  0  0  0  0  0  0  0
    1.2043   26.8132   23.4868 O   0  0  0  0  0  0  0  0  0  0  0  0
   -0.9098   27.9448   23.5033 C   0  0  0  0  0  0  0  0  0  0  0  0
   -1.0700   27.7131   22.1022 O   0  0  0  0  0  0  0  0  0  0  0  0
   -1.5305   26.7822   24.2796 C   0  0  0  0  0  0  0  0  0  0  0  0
   -2.8850   26.6161   23.8597 O   0  0  0  0  0  0  0  0  0  0  0  0
    0.4042   26.2518   25.9512 H   0  0  0  0  0  0  0  0  0  0  0  0
    0.7696   26.0611   23.9184 H   0  0  0  0  0  0  0  0  0  0  0  0
   -0.6433   26.8758   21.8620 H   0  0  0  0  0  0  0  0  0  0  0  0
   -3.3780   27.4344   24.0271 H   0  0  0  0  0  0  0  0  0  0  0  0
   -1.7629   25.4825   28.9594 C   0  0  0  0  0  0  0  0  0  0  0  0
   -2.8685   25.8372   29.3473 O   0  0  0  0  0  0  0  0  0  0  0  0
   -1.3575   25.5147   27.6832 N   0  0  0  0  0  0  0  0  0  0  0  0
   -0.4596   25.1771   27.4618 H   0  0  0  0  0  0  0  0  0  0  0  0
   -0.5230   23.5819   30.1209 C   0  0  0  0  0  0  0  0  0  0  0  0
    0.0086   23.4147   31.3352 C   0  0  0  0  0  0  0  0  0  0  0  0
    0.3390   22.2799   32.0534 C   0  0  0  0  0  0  0  0  0  0  0  0
    0.7601   22.3936   33.3787 C   0  0  0  0  0  0  0  0  0  0  0  0
    0.8559   23.6397   33.9846 C   0  0  0  0  0  0  0  0  0  0  0  0
    0.5324   24.7859   33.2650 C   0  0  0  0  0  0  0  0  0  0  0  0
    0.1092   24.6660   31.9474 C   0  0  0  0  0  0  0  0  0  0  0  0
   -0.3753   25.5794   31.0603 O   0  0  0  0  0  0  0  0  0  0  0  0
   -0.7752   24.8771   29.9582 C   0  0  0  0  0  0  0  0  0  0  0  0
 20 21  1  0  0  0
 20 28  2  0  0  0
 21 22  2  0  0  0
 21 26  1  0  0  0
 22 23  1  0  0  0
 23 24  2  0  0  0
 24 25  1  0  0  0
 25 26  2  0  0  0
 26 27  1  0  0  0
 27 28  1  0  0  0
 28 16  1  0  0  0
 16 17  2  0  0  0
 16 18  1  0  0  0
 18  1  1  0  0  0
  1  2  1  0  0  0
  2  3  1  0  0  0
  2 10  1  0  0  0
  3  4  1  0  0  0
  4  5  1  0  0  0
  4  6  1  0  0  0
  6  7  1  0  0  0
  6  8  1  0  0  0
  8  9  1  0  0  0
  8 10  1  0  0  0
 10 11  1  0  0  0
 18 19  1  0  0  0
  3 12  1  0  0  0
  7 13  1  0  0  0
  9 14  1  0  0  0
 11 15  1  0  0  0
M  END
> <minimizedAffinity>
-9.04780

$$$$
2ZX8_ZX8_A_901


 28 30  0  0  0  0  0  0  0  0999 V2000
    0.6700   23.6142   32.5186 C   0  0  0  0  0  0  0  0  0  0  0  0
    0.8737   24.1421   33.9442 C   0  0  0  0  0  0  0  0  0  0  0  0
    0.8772   23.0399   34.9204 N   0  0  0  0  0  0  0  0  0  0  0  0
    1.0021   23.5587   36.2939 C   0  0  0  0  0  0  0  0  0  0  0  0
    0.9668   22.3834   37.2688 C   0  0  0  0  0  0  0  0  0  0  0  0
    2.2703   24.4008   36.4967 C   0  0  0  0  0  0  0  0  0  0  0  0
    3.4437   23.6054   36.2919 O   0  0  0  0  0  0  0  0  0  0  0  0
    2.2754   25.5295   35.4653 C   0  0  0  0  0  0  0  0  0  0  0  0
    3.4633   26.3186   35.5586 O   0  0  0  0  0  0  0  0  0  0  0  0
    2.2020   24.8931   34.0764 C   0  0  0  0  0  0  0  0  0  0  0  0
    2.3072   25.9205   33.0905 O   0  0  0  0  0  0  0  0  0  0  0  0
    1.6640   22.4213   34.7237 H   0  0  0  0  0  0  0  0  0  0  0  0
    3.4434   23.2556   35.3872 H   0  0  0  0  0  0  0  0  0  0  0  0
    4.2379   25.7570   35.3990 H   0  0  0  0  0  0  0  0  0  0  0  0
    1.5847   26.5569   33.2082 H   0  0  0  0  0  0  0  0  0  0  0  0
   -0.4165   24.3350   30.4322 C   0  0  0  0  0  0  0  0  0  0  0  0
   -0.2609   23.2592   29.8690 O   0  0  0  0  0  0  0  0  0  0  0  0
   -0.0335   24.5990   31.6882 N   0  0  0  0  0  0  0  0  0  0  0  0
   -0.2311   25.4855   32.0682 H   0  0  0  0  0  0  0  0  0  0  0  0
   -2.1266   26.2158   30.2398 C   0  0  0  0  0  0  0  0  0  0  0  0
   -2.8389   26.7346   29.2355 C   0  0  0  0  0  0  0  0  0  0  0  0
   -4.0013   27.4837   29.2149 C   0  0  0  0  0  0  0  0  0  0  0  0
   -4.6143   27.7830   27.9977 C   0  0  0  0  0  0  0  0  0  0  0  0
   -4.0643   27.3390   26.8023 C   0  0  0  0  0  0  0  0  0  0  0  0
   -2.8907   26.5915   26.8158 C   0  0  0  0  0  0  0  0  0  0  0  0
   -2.2876   26.2926   28.0309 C   0  0  0  0  0  0  0  0  0  0  0  0
   -1.2269   25.4994   28.3499 O   0  0  0  0  0  0  0  0  0  0  0  0
   -1.1702   25.4561   29.7147 C   0  0  0  0  0  0  0  0  0  0  0  0
 20 21  1  0  0  0
 20 28  2  0  0  0
 21 22  2  0  0  0
 21 26  1  0  0  0
 22 23  1  0  0  0
 23 24  2  0  0  0
 24 25  1  0  0  0
 25 26  2  0  0  0
 26 27  1  0  0  0
 27 28  1  0  0  0
 28 16  1  0  0  0
 16 17  2  0  0  0
 16 18  1  0  0  0
 18  1  1  0  0  0
  1  2  1  0  0  0
  2  3  1  0  0  0
  2 10  1  0  0  0
  3  4  1  0  0  0
  4  5  1  0  0  0
  4  6  1  0  0  0
  6  7  1  0  0  0
  6  8  1  0  0  0
  8  9  1  0  0  0
  8 10  1  0  0  0
 10 11  1  0  0  0
 18 19  1  0  0  0
  3 12  1  0  0  0
  7 13  1  0  0  0
  9 14  1  0  0  0
 11 15  1  0  0  0
M  END
> <minimizedAffinity>
-8.37209

$$$$
2ZX8_ZX8_A_901


 28 30  0  0  0  0  0  0  0  0999 V2000
    1.2666   24.8916   32.9066 C   0  0  0  0  0  0  0  0  0  0  0  0
    1.2305   24.6858   34.4261 C   0  0  0  0  0  0  0  0  0  0  0  0
    1.2259   23.2530   34.7655 N   0  0  0  0  0  0  0  0  0  0  0  0
    1.1196   23.0614   36.2226 C   0  0  0  0  0  0  0  0  0  0  0  0
    1.0846   21.5638   36.5206 C   0  0  0  0  0  0  0  0  0  0  0  0
    2.2559   23.7474   36.9953 C   0  0  0  0  0  0  0  0  0  0  0  0
    3.5230   23.1834   36.6379 O   0  0  0  0  0  0  0  0  0  0  0  0
    2.2732   25.2299   36.6217 C   0  0  0  0  0  0  0  0  0  0  0  0
    3.3497   25.9186   37.2614 O   0  0  0  0  0  0  0  0  0  0  0  0
    2.4445   25.3271   35.1048 C   0  0  0  0  0  0  0  0  0  0  0  0
    2.5655   26.7021   34.7400 O   0  0  0  0  0  0  0  0  0  0  0  0
    2.0921   22.8281   34.4345 H   0  0  0  0  0  0  0  0  0  0  0  0
    3.6747   23.3052   35.6876 H   0  0  0  0  0  0  0  0  0  0  0  0
    4.1932   25.5258   36.9872 H   0  0  0  0  0  0  0  0  0  0  0  0
    1.7708   27.1823   35.0208 H   0  0  0  0  0  0  0  0  0  0  0  0
   -0.0358   26.9253   32.4367 C   0  0  0  0  0  0  0  0  0  0  0  0
    0.8592   27.6896   32.7737 O   0  0  0  0  0  0  0  0  0  0  0  0
    0.0621   25.5895   32.4413 N   0  0  0  0  0  0  0  0  0  0  0  0
   -0.7012   25.0566   32.1210 H   0  0  0  0  0  0  0  0  0  0  0  0
   -2.4691   27.6727   32.5741 C   0  0  0  0  0  0  0  0  0  0  0  0
   -3.4782   27.7421   31.7011 C   0  0  0  0  0  0  0  0  0  0  0  0
   -4.8494   27.7961   31.8729 C   0  0  0  0  0  0  0  0  0  0  0  0
   -5.6926   27.7236   30.7635 C   0  0  0  0  0  0  0  0  0  0  0  0
   -5.1669   27.6025   29.4838 C   0  0  0  0  0  0  0  0  0  0  0  0
   -3.7879   27.5556   29.3037 C   0  0  0  0  0  0  0  0  0  0  0  0
   -2.9535   27.6233   30.4122 C   0  0  0  0  0  0  0  0  0  0  0  0
   -1.6050   27.4842   30.5463 O   0  0  0  0  0  0  0  0  0  0  0  0
   -1.3442   27.4966   31.8878 C   0  0  0  0  0  0  0  0  0  0  0  0
 20 21  1  0  0  0
 20 28  2  0  0  0
 21 22  2  0  0  0
 21 26  1  0  0  0
 22 23  1  0  0  0
 23 24  2  0  0  0
 24 25  1  0  0  0
 25 26  2  0  0  0
 26 27  1  0  0  0
 27 28  1  0  0  0
 28 16  1  0  0  0
 16 17  2  0  0  0
 16 18  1  0  0  0
 18  1  1  0  0  0
  1  2  1  0  0  0
  2  3  1  0  0  0
  2 10  1  0  0  0
  3  4  1  0  0  0
  4  5  1  0  0  0
  4  6  1  0  0  0
  6  7  1  0  0  0
  6  8  1  0  0  0
  8  9  1  0  0  0
  8 10  1  0  0  0
 10 11  1  0  0  0
 18 19  1  0  0  0
  3 12  1  0  0  0
  7 13  1  0  0  0
  9 14  1  0  0  0
 11 15  1  0  0  0
M  END
> <minimizedAffinity>
-7.93369

$$$$
2ZX8_ZX8_A_901


 28 30  0  0  0  0  0  0  0  0999 V2000
    2.1401   24.5768   34.0248 C   0  0  0  0  0  0  0  0  0  0  0  0
    1.6468   23.3483   34.7992 C   0  0  0  0  0  0  0  0  0  0  0  0
    1.3679   22.2260   33.8878 N   0  0  0  0  0  0  0  0  0  0  0  0
    0.8274   21.0727   34.6289 C   0  0  0  0  0  0  0  0  0  0  0  0
    0.5234   19.9503   33.6386 C   0  0  0  0  0  0  0  0  0  0  0  0
    1.7720   20.5847   35.7372 C   0  0  0  0  0  0  0  0  0  0  0  0
    3.0082   20.1225   35.1810 O   0  0  0  0  0  0  0  0  0  0  0  0
    2.0789   21.7587   36.6674 C   0  0  0  0  0  0  0  0  0  0  0  0
    3.0049   21.3877   37.6908 O   0  0  0  0  0  0  0  0  0  0  0  0
    2.6865   22.8785   35.8210 C   0  0  0  0  0  0  0  0  0  0  0  0
    3.0761   23.9494   36.6812 O   0  0  0  0  0  0  0  0  0  0  0  0
    2.2329   21.9494   33.4232 H   0  0  0  0  0  0  0  0  0  0  0  0
    3.4386   20.8480   34.7020 H   0  0  0  0  0  0  0  0  0  0  0  0
    3.8360   21.0960   37.2845 H   0  0  0  0  0  0  0  0  0  0  0  0
    2.3003   24.2750   37.1640 H   0  0  0  0  0  0  0  0  0  0  0  0
    1.0958   26.6214   33.1404 C   0  0  0  0  0  0  0  0  0  0  0  0
    2.1019   27.3059   33.2743 O   0  0  0  0  0  0  0  0  0  0  0  0
    1.0152   25.3193   33.4437 N   0  0  0  0  0  0  0  0  0  0  0  0
    0.1711   24.8430   33.2706 H   0  0  0  0  0  0  0  0  0  0  0  0
   -1.2739   27.5611   33.1475 C   0  0  0  0  0  0  0  0  0  0  0  0
   -2.2579   27.6271   32.2460 C   0  0  0  0  0  0  0  0  0  0  0  0
   -3.6237   27.8006   32.3769 C   0  0  0  0  0  0  0  0  0  0  0  0
   -4.4490   27.6915   31.2572 C   0  0  0  0  0  0  0  0  0  0  0  0
   -3.9104   27.4145   30.0074 C   0  0  0  0  0  0  0  0  0  0  0  0
   -2.5361   27.2465   29.8678 C   0  0  0  0  0  0  0  0  0  0  0  0
   -1.7200   27.3515   30.9869 C   0  0  0  0  0  0  0  0  0  0  0  0
   -0.3892   27.1231   31.1677 O   0  0  0  0  0  0  0  0  0  0  0  0
   -0.1535   27.2381   32.5089 C   0  0  0  0  0  0  0  0  0  0  0  0
 20 21  1  0  0  0
 20 28  2  0  0  0
 21 22  2  0  0  0
 21 26  1  0  0  0
 22 23  1  0  0  0
 23 24  2  0  0  0
 24 25  1  0  0  0
 25 26  2  0  0  0
 26 27  1  0  0  0
 27 28  1  0  0  0
 28 16  1  0  0  0
 16 17  2  0  0  0
 16 18  1  0  0  0
 18  1  1  0  0  0
  1  2  1  0  0  0
  2  3  1  0  0  0
  2 10  1  0  0  0
  3  4  1  0  0  0
  4  5  1  0  0  0
  4  6  1  0  0  0
  6  7  1  0  0  0
  6  8  1  0  0  0
  8  9  1  0  0  0
  8 10  1  0  0  0
 10 11  1  0  0  0
 18 19  1  0  0  0
  3 12  1  0  0  0
  7 13  1  0  0  0
  9 14  1  0  0  0
 11 15  1  0  0  0
M  END
> <minimizedAffinity>
-7.79486

$$$$
2ZX8_ZX8_A_901


 28 30  0  0  0  0  0  0  0  0999 V2000
   -0.7928   23.9328   31.5514 C   0  0  0  0  0  0  0  0  0  0  0  0
    0.4469   24.6110   32.1476 C   0  0  0  0  0  0  0  0  0  0  0  0
    0.1304   25.9690   32.6207 N   0  0  0  0  0  0  0  0  0  0  0  0
    1.3399   26.6412   33.1271 C   0  0  0  0  0  0  0  0  0  0  0  0
    0.9674   28.0537   33.5730 C   0  0  0  0  0  0  0  0  0  0  0  0
    2.0149   25.8664   34.2685 C   0  0  0  0  0  0  0  0  0  0  0  0
    1.1421   25.7702   35.4000 O   0  0  0  0  0  0  0  0  0  0  0  0
    2.3197   24.4494   33.7816 C   0  0  0  0  0  0  0  0  0  0  0  0
    2.8958   23.6521   34.8185 O   0  0  0  0  0  0  0  0  0  0  0  0
    1.0016   23.8161   33.3335 C   0  0  0  0  0  0  0  0  0  0  0  0
    1.2418   22.4568   32.9686 O   0  0  0  0  0  0  0  0  0  0  0  0
   -0.5583   25.9098   33.3707 H   0  0  0  0  0  0  0  0  0  0  0  0
    0.3310   25.3039   35.1440 H   0  0  0  0  0  0  0  0  0  0  0  0
    2.2758   23.5917   35.5620 H   0  0  0  0  0  0  0  0  0  0  0  0
    1.8924   22.4251   32.2498 H   0  0  0  0  0  0  0  0  0  0  0  0
   -1.6383   25.1342   29.5779 C   0  0  0  0  0  0  0  0  0  0  0  0
   -0.9267   24.5281   28.7873 O   0  0  0  0  0  0  0  0  0  0  0  0
   -1.6672   24.9145   30.8988 N   0  0  0  0  0  0  0  0  0  0  0  0
   -2.2977   25.4301   31.4519 H   0  0  0  0  0  0  0  0  0  0  0  0
   -3.6897   26.6418   29.7094 C   0  0  0  0  0  0  0  0  0  0  0  0
   -4.5495   27.1336   28.8126 C   0  0  0  0  0  0  0  0  0  0  0  0
   -5.8343   27.6300   28.9369 C   0  0  0  0  0  0  0  0  0  0  0  0
   -6.5672   27.9563   27.7953 C   0  0  0  0  0  0  0  0  0  0  0  0
   -6.0157   27.7918   26.5313 C   0  0  0  0  0  0  0  0  0  0  0  0
   -4.7206   27.3001   26.3999 C   0  0  0  0  0  0  0  0  0  0  0  0
   -3.9976   26.9724   27.5398 C   0  0  0  0  0  0  0  0  0  0  0  0
   -2.7855   26.3737   27.7082 O   0  0  0  0  0  0  0  0  0  0  0  0
   -2.6380   26.1649   29.0507 C   0  0  0  0  0  0  0  0  0  0  0  0
 20 21  1  0  0  0
 20 28  2  0  0  0
 21 22  2  0  0  0
 21 26  1  0  0  0
 22 23  1  0  0  0
 23 24  2  0  0  0
 24 25  1  0  0  0
 25 26  2  0  0  0
 26 27  1  0  0  0
 27 28  1  0  0  0
 28 16  1  0  0  0
 16 17  2  0  0  0
 16 18  1  0  0  0
 18  1  1  0  0  0
  1  2  1  0  0  0
  2  3  1  0  0  0
  2 10  1  0  0  0
  3  4  1  0  0  0
  4  5  1  0  0  0
  4  6  1  0  0  0
  6  7  1  0  0  0
  6  8  1  0  0  0
  8  9  1  0  0  0
  8 10  1  0  0  0
 10 11  1  0  0  0
 18 19  1  0  0  0
  3 12  1  0  0  0
  7 13  1  0  0  0
  9 14  1  0  0  0
 11 15  1  0  0  0
M  END
> <minimizedAffinity>
-7.74587

$$$$
2ZX8_ZX8_A_901


 28 30  0  0  0  0  0  0  0  0999 V2000
   -2.1403   26.7921   30.2936 C   0  0  0  0  0  0  0  0  0  0  0  0
   -2.8931   26.4491   29.0021 C   0  0  0  0  0  0  0  0  0  0  0  0
   -3.7411   27.5727   28.5703 N   0  0  0  0  0  0  0  0  0  0  0  0
   -4.5152   27.2119   27.3695 C   0  0  0  0  0  0  0  0  0  0  0  0
   -5.4014   28.3940   26.9820 C   0  0  0  0  0  0  0  0  0  0  0  0
   -3.6226   26.7878   26.1939 C   0  0  0  0  0  0  0  0  0  0  0  0
   -2.7807   27.8707   25.7816 O   0  0  0  0  0  0  0  0  0  0  0  0
   -2.7263   25.6374   26.6533 C   0  0  0  0  0  0  0  0  0  0  0  0
   -1.8237   25.2329   25.6217 O   0  0  0  0  0  0  0  0  0  0  0  0
   -1.9242   26.1242   27.8613 C   0  0  0  0  0  0  0  0  0  0  0  0
   -1.0048   25.1027   28.2484 O   0  0  0  0  0  0  0  0  0  0  0  0
   -3.1494   28.3760   28.3580 H   0  0  0  0  0  0  0  0  0  0  0  0
   -2.2143   28.1397   26.5217 H   0  0  0  0  0  0  0  0  0  0  0  0
   -1.2569   25.9809   25.3764 H   0  0  0  0  0  0  0  0  0  0  0  0
   -1.4938   24.2953   28.4717 H   0  0  0  0  0  0  0  0  0  0  0  0
   -0.3399   25.7985   31.6442 C   0  0  0  0  0  0  0  0  0  0  0  0
   -0.0586   26.8465   32.2110 O   0  0  0  0  0  0  0  0  0  0  0  0
   -1.3183   25.6610   30.7399 N   0  0  0  0  0  0  0  0  0  0  0  0
   -1.4925   24.7692   30.3610 H   0  0  0  0  0  0  0  0  0  0  0  0
    0.1911   23.3087   31.5102 C   0  0  0  0  0  0  0  0  0  0  0  0
    0.6595   22.4033   32.3739 C   0  0  0  0  0  0  0  0  0  0  0  0
    0.5927   21.0220   32.3948 C   0  0  0  0  0  0  0  0  0  0  0  0
    1.0574   20.3201   33.5075 C   0  0  0  0  0  0  0  0  0  0  0  0
    1.5928   20.9965   34.5959 C   0  0  0  0  0  0  0  0  0  0  0  0
    1.6700   22.3858   34.5777 C   0  0  0  0  0  0  0  0  0  0  0  0
    1.2014   23.0794   33.4692 C   0  0  0  0  0  0  0  0  0  0  0  0
    1.0431   24.4110   33.2287 O   0  0  0  0  0  0  0  0  0  0  0  0
    0.3995   24.5155   32.0277 C   0  0  0  0  0  0  0  0  0  0  0  0
 20 21  1  0  0  0
 20 28  2  0  0  0
 21 22  2  0  0  0
 21 26  1  0  0  0
 22 23  1  0  0  0
 23 24  2  0  0  0
 24 25  1  0  0  0
 25 26  2  0  0  0
 26 27  1  0  0  0
 27 28  1  0  0  0
 28 16  1  0  0  0
 16 17  2  0  0  0
 16 18  1  0  0  0
 18  1  1  0  0  0
  1  2  1  0  0  0
  2  3  1  0  0  0
  2 10  1  0  0  0
  3  4  1  0  0  0
  4  5  1  0  0  0
  4  6  1  0  0  0
  6  7  1  0  0  0
  6  8  1  0  0  0
  8  9  1  0  0  0
  8 10  1  0  0  0
 10 11  1  0  0  0
 18 19  1  0  0  0
  3 12  1  0  0  0
  7 13  1  0  0  0
  9 14  1  0  0  0
 11 15  1  0  0  0
M  END
> <minimizedAffinity>
-7.63488

$$$$
2ZX8_ZX8_A_901


 28 30  0  0  0  0  0  0  0  0999 V2000
   -0.0666   27.2263   32.5169 C   0  0  0  0  0  0  0  0  0  0  0  0
    0.1857   26.0708   33.4934 C   0  0  0  0  0  0  0  0  0  0  0  0
   -0.7861   24.9838   33.2884 N   0  0  0  0  0  0  0  0  0  0  0  0
   -0.5835   23.9085   34.2753 C   0  0  0  0  0  0  0  0  0  0  0  0
   -1.6336   22.8238   34.0435 C   0  0  0  0  0  0  0  0  0  0  0  0
    0.8336   23.3185   34.2266 C   0  0  0  0  0  0  0  0  0  0  0  0
    1.0840   22.7080   32.9555 O   0  0  0  0  0  0  0  0  0  0  0  0
    1.8405   24.4535   34.4153 C   0  0  0  0  0  0  0  0  0  0  0  0
    3.1859   23.9813   34.3194 O   0  0  0  0  0  0  0  0  0  0  0  0
    1.5904   25.4869   33.3157 C   0  0  0  0  0  0  0  0  0  0  0  0
    2.5829   26.5092   33.4070 O   0  0  0  0  0  0  0  0  0  0  0  0
   -0.6686   24.6027   32.3496 H   0  0  0  0  0  0  0  0  0  0  0  0
    0.9995   23.3735   32.2549 H   0  0  0  0  0  0  0  0  0  0  0  0
    3.3295   23.5896   33.4437 H   0  0  0  0  0  0  0  0  0  0  0  0
    2.5358   26.9285   34.2805 H   0  0  0  0  0  0  0  0  0  0  0  0
   -2.1204   27.7850   31.2829 C   0  0  0  0  0  0  0  0  0  0  0  0
   -2.1681   28.9362   31.6967 O   0  0  0  0  0  0  0  0  0  0  0  0
   -1.1596   26.9044   31.5917 N   0  0  0  0  0  0  0  0  0  0  0  0
   -1.1874   26.0090   31.1834 H   0  0  0  0  0  0  0  0  0  0  0  0
   -2.9634   27.0898   28.9797 C   0  0  0  0  0  0  0  0  0  0  0  0
   -4.1482   27.1339   28.3635 C   0  0  0  0  0  0  0  0  0  0  0  0
   -4.4983   27.0980   27.0261 C   0  0  0  0  0  0  0  0  0  0  0  0
   -5.8260   27.3027   26.6491 C   0  0  0  0  0  0  0  0  0  0  0  0
   -6.8037   27.5380   27.6070 C   0  0  0  0  0  0  0  0  0  0  0  0
   -6.4591   27.5676   28.9549 C   0  0  0  0  0  0  0  0  0  0  0  0
   -5.1349   27.3680   29.3238 C   0  0  0  0  0  0  0  0  0  0  0  0
   -4.5015   27.4585   30.5265 O   0  0  0  0  0  0  0  0  0  0  0  0
   -3.1669   27.3050   30.2758 C   0  0  0  0  0  0  0  0  0  0  0  0
 20 21  1  0  0  0
 20 28  2  0  0  0
 21 22  2  0  0  0
 21 26  1  0  0  0
 22 23  1  0  0  0
 23 24  2  0  0  0
 24 25  1  0  0  0
 25 26  2  0  0  0
 26 27  1  0  0  0
 27 28  1  0  0  0
 28 16  1  0  0  0
 16 17  2  0  0  0
 16 18  1  0  0  0
 18  1  1  0  0  0
  1  2  1  0  0  0
  2  3  1  0  0  0
  2 10  1  0  0  0
  3  4  1  0  0  0
  4  5  1  0  0  0
  4  6  1  0  0  0
  6  7  1  0  0  0
  6  8  1  0  0  0
  8  9  1  0  0  0
  8 10  1  0  0  0
 10 11  1  0  0  0
 18 19  1  0  0  0
  3 12  1  0  0  0
  7 13  1  0  0  0
  9 14  1  0  0  0
 11 15  1  0  0  0
M  END
> <minimizedAffinity>
-7.61631

$$$$
