3PBB_PBD_A_380


 24 25  0  0  0  0  0  0  0  0999 V2000
   -0.4552   77.7120    7.2586 N   0  0  0  0  0  0  0  0  0  0  0  0
   -0.2119   78.6422    7.4702 H   0  0  0  0  0  0  0  0  0  0  0  0
   -2.2171   78.5214    5.9486 C   0  0  0  0  0  0  0  0  0  0  0  0
   -3.4502   78.3150    5.3301 C   0  0  0  0  0  0  0  0  0  0  0  0
   -2.3100   76.2662    6.8956 C   0  0  0  0  0  0  0  0  0  0  0  0
   -1.6403   77.5028    6.7195 C   0  0  0  0  0  0  0  0  0  0  0  0
   -4.0888   77.0868    5.5370 C   0  0  0  0  0  0  0  0  0  0  0  0
   -3.5525   76.0663    6.2834 C   0  0  0  0  0  0  0  0  0  0  0  0
   -5.2478   76.4295    3.6626 C   0  0  0  0  0  0  0  0  0  0  0  0
   -5.2912   76.7589    5.0206 O   0  0  0  0  0  0  0  0  0  0  0  0
   -3.7465   73.7900    5.5524 C   0  0  0  0  0  0  0  0  0  0  0  0
   -4.3274   74.9117    6.3554 O   0  0  0  0  0  0  0  0  0  0  0  0
    0.7454   76.3776    9.2357 S   0  0  0  0  0  0  0  0  0  0  0  0
    0.4577   76.7465    7.5458 C   0  0  0  0  0  0  0  0  0  0  0  0
    1.1386   76.0960    6.5528 N   0  0  0  0  0  0  0  0  0  0  0  0
    1.7091   76.6369    5.9602 H   0  0  0  0  0  0  0  0  0  0  0  0
    1.0797   74.6468    6.3069 C   0  0  0  0  0  0  0  0  0  0  0  0
    2.5408   74.2477    6.0902 C   0  0  0  0  0  0  0  0  0  0  0  0
    2.8992   74.7019    4.6772 C   0  0  0  0  0  0  0  0  0  0  0  0
    3.7622   72.0856    2.4016 C   0  0  0  0  0  0  0  0  0  0  0  0
    3.4640   73.3772    2.6270 C   0  0  0  0  0  0  0  0  0  0  0  0
    3.4601   72.2863    4.5832 C   0  0  0  0  0  0  0  0  0  0  0  0
    3.8083   71.4629    3.6190 N   0  0  0  0  0  0  0  0  0  0  0  0
    3.3141   73.4738    3.9711 N   0  0  0  0  0  0  0  0  0  0  0  0
  9 10  1  0  0  0
 11 12  1  0  0  0
 13 14  2  0  0  0
 20 21  2  0  0  0
 20 23  1  0  0  0
  3  4  2  0  0  0
  3  6  1  0  0  0
  4  7  1  0  0  0
 21 24  1  0  0  0
 22 23  2  0  0  0
 22 24  1  0  0  0
  5  6  2  0  0  0
  5  8  1  0  0  0
 18 17  1  0  0  0
 18 19  1  0  0  0
 17 15  1  0  0  0
 19 24  1  0  0  0
 15 14  1  0  0  0
  1 14  1  0  0  0
  1  6  1  0  0  0
 10  7  1  0  0  0
 12  8  1  0  0  0
  7  8  2  0  0  0
 15 16  1  0  0  0
  1  2  1  0  0  0
M  END
> <minimizedAffinity>
-6.42009

$$$$
3PBB_PBD_A_380


 24 25  0  0  0  0  0  0  0  0999 V2000
   -0.7965   75.3164    7.6792 N   0  0  0  0  0  0  0  0  0  0  0  0
   -1.4674   74.6829    8.0226 H   0  0  0  0  0  0  0  0  0  0  0  0
   -0.4200   77.5763    7.2028 C   0  0  0  0  0  0  0  0  0  0  0  0
   -0.8416   78.7684    6.6140 C   0  0  0  0  0  0  0  0  0  0  0  0
   -2.5068   76.4954    6.5187 C   0  0  0  0  0  0  0  0  0  0  0  0
   -1.2389   76.4400    7.1494 C   0  0  0  0  0  0  0  0  0  0  0  0
   -2.1049   78.7900    6.0118 C   0  0  0  0  0  0  0  0  0  0  0  0
   -2.9323   77.6961    5.9390 C   0  0  0  0  0  0  0  0  0  0  0  0
   -1.7339   80.9087    5.1981 C   0  0  0  0  0  0  0  0  0  0  0  0
   -2.6488   79.8763    5.4252 O   0  0  0  0  0  0  0  0  0  0  0  0
   -4.6166   76.6824    4.5646 C   0  0  0  0  0  0  0  0  0  0  0  0
   -4.1409   77.9076    5.2809 O   0  0  0  0  0  0  0  0  0  0  0  0
    1.2340   75.0103    9.3862 S   0  0  0  0  0  0  0  0  0  0  0  0
    0.5114   74.9624    7.7893 C   0  0  0  0  0  0  0  0  0  0  0  0
    1.2421   74.5961    6.6918 N   0  0  0  0  0  0  0  0  0  0  0  0
    0.8093   74.6673    5.8104 H   0  0  0  0  0  0  0  0  0  0  0  0
    2.6276   74.1036    6.7338 C   0  0  0  0  0  0  0  0  0  0  0  0
    2.7537   73.2431    5.4749 C   0  0  0  0  0  0  0  0  0  0  0  0
    3.0913   74.2036    4.3370 C   0  0  0  0  0  0  0  0  0  0  0  0
    3.8391   71.6201    1.9844 C   0  0  0  0  0  0  0  0  0  0  0  0
    3.5247   71.9947    3.2369 C   0  0  0  0  0  0  0  0  0  0  0  0
    3.6151   73.8198    1.9417 C   0  0  0  0  0  0  0  0  0  0  0  0
    3.8289   72.7482    1.2104 N   0  0  0  0  0  0  0  0  0  0  0  0
    3.3657   73.3396    3.1720 N   0  0  0  0  0  0  0  0  0  0  0  0
  9 10  1  0  0  0
 11 12  1  0  0  0
 13 14  2  0  0  0
 20 21  2  0  0  0
 20 23  1  0  0  0
  3  4  2  0  0  0
  3  6  1  0  0  0
  4  7  1  0  0  0
 21 24  1  0  0  0
 22 23  2  0  0  0
 22 24  1  0  0  0
  5  6  2  0  0  0
  5  8  1  0  0  0
 18 17  1  0  0  0
 18 19  1  0  0  0
 17 15  1  0  0  0
 19 24  1  0  0  0
 15 14  1  0  0  0
  1 14  1  0  0  0
  1  6  1  0  0  0
 10  7  1  0  0  0
 12  8  1  0  0  0
  7  8  2  0  0  0
 15 16  1  0  0  0
  1  2  1  0  0  0
M  END
> <minimizedAffinity>
-6.35674

$$$$
3PBB_PBD_A_380


 24 25  0  0  0  0  0  0  0  0999 V2000
   -1.1555   75.2443    7.6429 N   0  0  0  0  0  0  0  0  0  0  0  0
   -1.4812   74.7086    8.4020 H   0  0  0  0  0  0  0  0  0  0  0  0
   -2.5824   74.5874    5.9085 C   0  0  0  0  0  0  0  0  0  0  0  0
   -3.5461   74.9135    4.9543 C   0  0  0  0  0  0  0  0  0  0  0  0
   -2.4362   76.9391    6.5708 C   0  0  0  0  0  0  0  0  0  0  0  0
   -2.0346   75.5884    6.7223 C   0  0  0  0  0  0  0  0  0  0  0  0
   -3.9086   76.2590    4.8235 C   0  0  0  0  0  0  0  0  0  0  0  0
   -3.3948   77.2651    5.6046 C   0  0  0  0  0  0  0  0  0  0  0  0
   -5.7345   75.7579    3.5183 C   0  0  0  0  0  0  0  0  0  0  0  0
   -4.8081   76.7205    3.9303 O   0  0  0  0  0  0  0  0  0  0  0  0
   -2.8595   79.6020    5.5273 C   0  0  0  0  0  0  0  0  0  0  0  0
   -3.8949   78.5374    5.3402 O   0  0  0  0  0  0  0  0  0  0  0  0
    0.7526   76.6340    8.8912 S   0  0  0  0  0  0  0  0  0  0  0  0
    0.1643   75.5696    7.6281 C   0  0  0  0  0  0  0  0  0  0  0  0
    1.0010   75.0957    6.6543 N   0  0  0  0  0  0  0  0  0  0  0  0
    0.7933   75.3288    5.7206 H   0  0  0  0  0  0  0  0  0  0  0  0
    2.1882   74.2633    6.9019 C   0  0  0  0  0  0  0  0  0  0  0  0
    2.3320   73.4330    5.6248 C   0  0  0  0  0  0  0  0  0  0  0  0
    3.5518   73.9882    4.8932 C   0  0  0  0  0  0  0  0  0  0  0  0
    3.8196   72.5809    1.6197 C   0  0  0  0  0  0  0  0  0  0  0  0
    3.8235   73.6580    2.4246 C   0  0  0  0  0  0  0  0  0  0  0  0
    3.5433   71.8238    3.6792 C   0  0  0  0  0  0  0  0  0  0  0  0
    3.7054   71.4778    2.4211 N   0  0  0  0  0  0  0  0  0  0  0  0
    3.6823   73.1605    3.6780 N   0  0  0  0  0  0  0  0  0  0  0  0
  9 10  1  0  0  0
 11 12  1  0  0  0
 13 14  2  0  0  0
 20 21  2  0  0  0
 20 23  1  0  0  0
  3  4  2  0  0  0
  3  6  1  0  0  0
  4  7  1  0  0  0
 21 24  1  0  0  0
 22 23  2  0  0  0
 22 24  1  0  0  0
  5  6  2  0  0  0
  5  8  1  0  0  0
 18 17  1  0  0  0
 18 19  1  0  0  0
 17 15  1  0  0  0
 19 24  1  0  0  0
 15 14  1  0  0  0
  1 14  1  0  0  0
  1  6  1  0  0  0
 10  7  1  0  0  0
 12  8  1  0  0  0
  7  8  2  0  0  0
 15 16  1  0  0  0
  1  2  1  0  0  0
M  END
> <minimizedAffinity>
-6.31778

$$$$
3PBB_PBD_A_380


 24 25  0  0  0  0  0  0  0  0999 V2000
    0.9703   75.0390    6.0492 N   0  0  0  0  0  0  0  0  0  0  0  0
    0.1583   74.6677    5.6346 H   0  0  0  0  0  0  0  0  0  0  0  0
    2.3328   73.9983    7.6418 C   0  0  0  0  0  0  0  0  0  0  0  0
    3.3433   73.0876    7.9503 C   0  0  0  0  0  0  0  0  0  0  0  0
    2.6091   73.5046    5.2604 C   0  0  0  0  0  0  0  0  0  0  0  0
    1.9562   74.2021    6.3072 C   0  0  0  0  0  0  0  0  0  0  0  0
    3.9749   72.4269    6.8904 C   0  0  0  0  0  0  0  0  0  0  0  0
    3.6306   72.6001    5.5721 C   0  0  0  0  0  0  0  0  0  0  0  0
    5.1233   71.0676    8.3471 C   0  0  0  0  0  0  0  0  0  0  0  0
    4.9799   71.5393    7.0388 O   0  0  0  0  0  0  0  0  0  0  0  0
    3.7242   71.8167    3.3069 C   0  0  0  0  0  0  0  0  0  0  0  0
    4.3588   71.8381    4.6624 O   0  0  0  0  0  0  0  0  0  0  0  0
    2.2631   77.3285    5.5828 S   0  0  0  0  0  0  0  0  0  0  0  0
    0.9851   76.3731    6.3098 C   0  0  0  0  0  0  0  0  0  0  0  0
    0.0455   76.9478    7.1219 N   0  0  0  0  0  0  0  0  0  0  0  0
    0.1529   76.8369    8.0942 H   0  0  0  0  0  0  0  0  0  0  0  0
   -1.1134   77.7195    6.6470 C   0  0  0  0  0  0  0  0  0  0  0  0
   -2.2502   76.6961    6.6095 C   0  0  0  0  0  0  0  0  0  0  0  0
   -3.4092   77.3762    5.8845 C   0  0  0  0  0  0  0  0  0  0  0  0
   -5.3444   75.2390    3.7737 C   0  0  0  0  0  0  0  0  0  0  0  0
   -4.7821   76.4371    4.0109 C   0  0  0  0  0  0  0  0  0  0  0  0
   -4.2835   75.0605    5.7061 C   0  0  0  0  0  0  0  0  0  0  0  0
   -4.9730   74.4086    4.7958 N   0  0  0  0  0  0  0  0  0  0  0  0
   -4.1173   76.2874    5.1831 N   0  0  0  0  0  0  0  0  0  0  0  0
  9 10  1  0  0  0
 11 12  1  0  0  0
 13 14  2  0  0  0
 20 21  2  0  0  0
 20 23  1  0  0  0
  3  4  2  0  0  0
  3  6  1  0  0  0
  4  7  1  0  0  0
 21 24  1  0  0  0
 22 23  2  0  0  0
 22 24  1  0  0  0
  5  6  2  0  0  0
  5  8  1  0  0  0
 18 17  1  0  0  0
 18 19  1  0  0  0
 17 15  1  0  0  0
 19 24  1  0  0  0
 15 14  1  0  0  0
  1 14  1  0  0  0
  1  6  1  0  0  0
 10  7  1  0  0  0
 12  8  1  0  0  0
  7  8  2  0  0  0
 15 16  1  0  0  0
  1  2  1  0  0  0
M  END
> <minimizedAffinity>
-6.26062

$$$$
3PBB_PBD_A_380


 24 25  0  0  0  0  0  0  0  0999 V2000
    2.7344   75.0932    5.9182 N   0  0  0  0  0  0  0  0  0  0  0  0
    3.4642   75.6157    6.3226 H   0  0  0  0  0  0  0  0  0  0  0  0
    3.0669   73.0019    4.9224 C   0  0  0  0  0  0  0  0  0  0  0  0
    3.3189   72.2382    3.7827 C   0  0  0  0  0  0  0  0  0  0  0  0
    3.2375   75.0499    3.5929 C   0  0  0  0  0  0  0  0  0  0  0  0
    3.0147   74.3996    4.8323 C   0  0  0  0  0  0  0  0  0  0  0  0
    3.5474   72.9146    2.5789 C   0  0  0  0  0  0  0  0  0  0  0  0
    3.5018   74.2816    2.4534 C   0  0  0  0  0  0  0  0  0  0  0  0
    4.9548   71.4861    1.4532 C   0  0  0  0  0  0  0  0  0  0  0  0
    3.8244   72.3074    1.4065 O   0  0  0  0  0  0  0  0  0  0  0  0
    3.1571   76.1355    0.9710 C   0  0  0  0  0  0  0  0  0  0  0  0
    3.7340   74.7688    1.1699 O   0  0  0  0  0  0  0  0  0  0  0  0
    1.3863   74.4712    8.1378 S   0  0  0  0  0  0  0  0  0  0  0  0
    1.5186   75.1447    6.5243 C   0  0  0  0  0  0  0  0  0  0  0  0
    0.4335   75.6890    5.8926 N   0  0  0  0  0  0  0  0  0  0  0  0
    0.4413   75.7106    4.9084 H   0  0  0  0  0  0  0  0  0  0  0  0
   -0.7437   76.2442    6.5781 C   0  0  0  0  0  0  0  0  0  0  0  0
   -1.8999   75.3618    6.1030 C   0  0  0  0  0  0  0  0  0  0  0  0
   -3.1292   76.2659    6.0499 C   0  0  0  0  0  0  0  0  0  0  0  0
   -5.5250   75.4467    3.5285 C   0  0  0  0  0  0  0  0  0  0  0  0
   -4.8875   76.3710    4.2681 C   0  0  0  0  0  0  0  0  0  0  0  0
   -4.0961   74.3466    4.8089 C   0  0  0  0  0  0  0  0  0  0  0  0
   -4.9786   74.2318    3.8410 N   0  0  0  0  0  0  0  0  0  0  0  0
   -4.0012   75.6708    5.0182 N   0  0  0  0  0  0  0  0  0  0  0  0
  9 10  1  0  0  0
 11 12  1  0  0  0
 13 14  2  0  0  0
 20 21  2  0  0  0
 20 23  1  0  0  0
  3  4  2  0  0  0
  3  6  1  0  0  0
  4  7  1  0  0  0
 21 24  1  0  0  0
 22 23  2  0  0  0
 22 24  1  0  0  0
  5  6  2  0  0  0
  5  8  1  0  0  0
 18 17  1  0  0  0
 18 19  1  0  0  0
 17 15  1  0  0  0
 19 24  1  0  0  0
 15 14  1  0  0  0
  1 14  1  0  0  0
  1  6  1  0  0  0
 10  7  1  0  0  0
 12  8  1  0  0  0
  7  8  2  0  0  0
 15 16  1  0  0  0
  1  2  1  0  0  0
M  END
> <minimizedAffinity>
-6.16498

$$$$
3PBB_PBD_A_380


 24 25  0  0  0  0  0  0  0  0999 V2000
    1.5921   74.2539    8.1838 N   0  0  0  0  0  0  0  0  0  0  0  0
    1.4818   73.8200    9.0606 H   0  0  0  0  0  0  0  0  0  0  0  0
    2.1564   73.8860    5.9429 C   0  0  0  0  0  0  0  0  0  0  0  0
    2.9979   73.3063    4.9934 C   0  0  0  0  0  0  0  0  0  0  0  0
    3.4431   72.8274    7.7359 C   0  0  0  0  0  0  0  0  0  0  0  0
    2.3790   73.6601    7.3081 C   0  0  0  0  0  0  0  0  0  0  0  0
    4.0299   72.4792    5.4516 C   0  0  0  0  0  0  0  0  0  0  0  0
    4.2787   72.2377    6.7805 C   0  0  0  0  0  0  0  0  0  0  0  0
    5.4782   72.6592    3.6744 C   0  0  0  0  0  0  0  0  0  0  0  0
    4.9029   71.8373    4.6481 O   0  0  0  0  0  0  0  0  0  0  0  0
    5.5170   71.1149    8.5008 C   0  0  0  0  0  0  0  0  0  0  0  0
    5.3641   71.4052    7.0404 O   0  0  0  0  0  0  0  0  0  0  0  0
    1.8278   76.9125    8.0987 S   0  0  0  0  0  0  0  0  0  0  0  0
    0.9208   75.4171    7.9733 C   0  0  0  0  0  0  0  0  0  0  0  0
   -0.4178   75.4223    7.6884 N   0  0  0  0  0  0  0  0  0  0  0  0
   -0.8622   74.5522    7.5670 H   0  0  0  0  0  0  0  0  0  0  0  0
   -1.2404   76.6339    7.5505 C   0  0  0  0  0  0  0  0  0  0  0  0
   -1.7926   76.5471    6.1262 C   0  0  0  0  0  0  0  0  0  0  0  0
   -2.2728   75.1090    5.9446 C   0  0  0  0  0  0  0  0  0  0  0  0
   -5.2282   76.0453    4.1679 C   0  0  0  0  0  0  0  0  0  0  0  0
   -4.0256   76.3701    4.6740 C   0  0  0  0  0  0  0  0  0  0  0  0
   -4.4180   74.2037    5.0861 C   0  0  0  0  0  0  0  0  0  0  0  0
   -5.4102   74.7068    4.3851 N   0  0  0  0  0  0  0  0  0  0  0  0
   -3.5437   75.2178    5.2018 N   0  0  0  0  0  0  0  0  0  0  0  0
  9 10  1  0  0  0
 11 12  1  0  0  0
 13 14  2  0  0  0
 20 21  2  0  0  0
 20 23  1  0  0  0
  3  4  2  0  0  0
  3  6  1  0  0  0
  4  7  1  0  0  0
 21 24  1  0  0  0
 22 23  2  0  0  0
 22 24  1  0  0  0
  5  6  2  0  0  0
  5  8  1  0  0  0
 18 17  1  0  0  0
 18 19  1  0  0  0
 17 15  1  0  0  0
 19 24  1  0  0  0
 15 14  1  0  0  0
  1 14  1  0  0  0
  1  6  1  0  0  0
 10  7  1  0  0  0
 12  8  1  0  0  0
  7  8  2  0  0  0
 15 16  1  0  0  0
  1  2  1  0  0  0
M  END
> <minimizedAffinity>
-6.02040

$$$$
3PBB_PBD_A_380


 24 25  0  0  0  0  0  0  0  0999 V2000
   -0.8063   77.7736    7.2476 N   0  0  0  0  0  0  0  0  0  0  0  0
   -0.7416   77.5809    8.2109 H   0  0  0  0  0  0  0  0  0  0  0  0
   -2.5377   78.5027    5.8525 C   0  0  0  0  0  0  0  0  0  0  0  0
   -3.7290   78.2409    5.1758 C   0  0  0  0  0  0  0  0  0  0  0  0
   -2.5745   76.2457    6.7990 C   0  0  0  0  0  0  0  0  0  0  0  0
   -1.9534   77.5112    6.6525 C   0  0  0  0  0  0  0  0  0  0  0  0
   -4.3209   76.9852    5.3544 C   0  0  0  0  0  0  0  0  0  0  0  0
   -3.7758   75.9899    6.1282 C   0  0  0  0  0  0  0  0  0  0  0  0
   -5.3345   76.1447    3.4691 C   0  0  0  0  0  0  0  0  0  0  0  0
   -5.4810   76.6034    4.7816 O   0  0  0  0  0  0  0  0  0  0  0  0
   -3.7199   73.6461    5.6215 C   0  0  0  0  0  0  0  0  0  0  0  0
   -4.5005   74.8016    6.1653 O   0  0  0  0  0  0  0  0  0  0  0  0
    0.7578   79.9289    7.0498 S   0  0  0  0  0  0  0  0  0  0  0  0
    0.2941   78.2888    6.6379 C   0  0  0  0  0  0  0  0  0  0  0  0
    1.0061   77.5595    5.7246 N   0  0  0  0  0  0  0  0  0  0  0  0
    0.5041   76.9538    5.1326 H   0  0  0  0  0  0  0  0  0  0  0  0
    2.4672   77.6151    5.5637 C   0  0  0  0  0  0  0  0  0  0  0  0
    3.0051   76.9237    6.8182 C   0  0  0  0  0  0  0  0  0  0  0  0
    2.5161   75.4789    6.7487 C   0  0  0  0  0  0  0  0  0  0  0  0
    2.6007   74.4402   10.1666 C   0  0  0  0  0  0  0  0  0  0  0  0
    3.2477   74.8449    9.0596 C   0  0  0  0  0  0  0  0  0  0  0  0
    1.0492   74.8037    8.6331 C   0  0  0  0  0  0  0  0  0  0  0  0
    1.2614   74.4821    9.8903 N   0  0  0  0  0  0  0  0  0  0  0  0
    2.2711   75.0871    8.1506 N   0  0  0  0  0  0  0  0  0  0  0  0
  9 10  1  0  0  0
 11 12  1  0  0  0
 13 14  2  0  0  0
 20 21  2  0  0  0
 20 23  1  0  0  0
  3  4  2  0  0  0
  3  6  1  0  0  0
  4  7  1  0  0  0
 21 24  1  0  0  0
 22 23  2  0  0  0
 22 24  1  0  0  0
  5  6  2  0  0  0
  5  8  1  0  0  0
 18 17  1  0  0  0
 18 19  1  0  0  0
 17 15  1  0  0  0
 19 24  1  0  0  0
 15 14  1  0  0  0
  1 14  1  0  0  0
  1  6  1  0  0  0
 10  7  1  0  0  0
 12  8  1  0  0  0
  7  8  2  0  0  0
 15 16  1  0  0  0
  1  2  1  0  0  0
M  END
> <minimizedAffinity>
-5.91266

$$$$
3PBB_PBD_A_380


 24 25  0  0  0  0  0  0  0  0999 V2000
    0.4820   75.6592    7.3339 N   0  0  0  0  0  0  0  0  0  0  0  0
    0.1838   74.9285    7.9225 H   0  0  0  0  0  0  0  0  0  0  0  0
    1.4709   76.2832    5.3070 C   0  0  0  0  0  0  0  0  0  0  0  0
    2.3340   75.9945    4.2500 C   0  0  0  0  0  0  0  0  0  0  0  0
    1.9259   74.0858    6.2844 C   0  0  0  0  0  0  0  0  0  0  0  0
    1.2720   75.3425    6.3268 C   0  0  0  0  0  0  0  0  0  0  0  0
    2.9519   74.7388    4.2340 C   0  0  0  0  0  0  0  0  0  0  0  0
    2.7823   73.7943    5.2166 C   0  0  0  0  0  0  0  0  0  0  0  0
    4.8235   75.2166    2.9859 C   0  0  0  0  0  0  0  0  0  0  0  0
    3.7907   74.3167    3.2653 O   0  0  0  0  0  0  0  0  0  0  0  0
    4.5908   72.4554    6.0473 C   0  0  0  0  0  0  0  0  0  0  0  0
    3.4983   72.6138    5.0365 O   0  0  0  0  0  0  0  0  0  0  0  0
    1.1660   77.9964    8.4295 S   0  0  0  0  0  0  0  0  0  0  0  0
    0.0460   76.9135    7.6248 C   0  0  0  0  0  0  0  0  0  0  0  0
   -1.2258   77.3124    7.3145 N   0  0  0  0  0  0  0  0  0  0  0  0
   -1.9549   77.0140    7.9048 H   0  0  0  0  0  0  0  0  0  0  0  0
   -1.5820   78.1549    6.1624 C   0  0  0  0  0  0  0  0  0  0  0  0
   -3.0438   77.8007    5.8818 C   0  0  0  0  0  0  0  0  0  0  0  0
   -3.2077   76.3344    6.2750 C   0  0  0  0  0  0  0  0  0  0  0  0
   -5.4055   75.5019    3.5835 C   0  0  0  0  0  0  0  0  0  0  0  0
   -4.8069   76.4313    4.3488 C   0  0  0  0  0  0  0  0  0  0  0  0
   -4.1201   74.4043    5.0097 C   0  0  0  0  0  0  0  0  0  0  0  0
   -4.9212   74.2833    3.9741 N   0  0  0  0  0  0  0  0  0  0  0  0
   -4.0064   75.7313    5.1900 N   0  0  0  0  0  0  0  0  0  0  0  0
  9 10  1  0  0  0
 11 12  1  0  0  0
 13 14  2  0  0  0
 20 21  2  0  0  0
 20 23  1  0  0  0
  3  4  2  0  0  0
  3  6  1  0  0  0
  4  7  1  0  0  0
 21 24  1  0  0  0
 22 23  2  0  0  0
 22 24  1  0  0  0
  5  6  2  0  0  0
  5  8  1  0  0  0
 18 17  1  0  0  0
 18 19  1  0  0  0
 17 15  1  0  0  0
 19 24  1  0  0  0
 15 14  1  0  0  0
  1 14  1  0  0  0
  1  6  1  0  0  0
 10  7  1  0  0  0
 12  8  1  0  0  0
  7  8  2  0  0  0
 15 16  1  0  0  0
  1  2  1  0  0  0
M  END
> <minimizedAffinity>
-5.90134

$$$$
3PBB_PBD_A_380


 24 25  0  0  0  0  0  0  0  0999 V2000
    0.9712   76.1238    5.3029 N   0  0  0  0  0  0  0  0  0  0  0  0
    0.9422   76.0218    4.3241 H   0  0  0  0  0  0  0  0  0  0  0  0
    2.4515   74.3114    5.3026 C   0  0  0  0  0  0  0  0  0  0  0  0
    3.1756   73.3491    6.0063 C   0  0  0  0  0  0  0  0  0  0  0  0
    1.4736   75.1139    7.3981 C   0  0  0  0  0  0  0  0  0  0  0  0
    1.6118   75.1985    5.9901 C   0  0  0  0  0  0  0  0  0  0  0  0
    3.0041   73.2860    7.3939 C   0  0  0  0  0  0  0  0  0  0  0  0
    2.1924   74.1397    8.1002 C   0  0  0  0  0  0  0  0  0  0  0  0
    4.7968   71.8689    7.6517 C   0  0  0  0  0  0  0  0  0  0  0  0
    3.6213   72.3943    8.1963 O   0  0  0  0  0  0  0  0  0  0  0  0
    2.7515   75.0895   10.2306 C   0  0  0  0  0  0  0  0  0  0  0  0
    2.1690   73.9347    9.4772 O   0  0  0  0  0  0  0  0  0  0  0  0
    1.3245   78.6244    6.1704 S   0  0  0  0  0  0  0  0  0  0  0  0
    0.3475   77.2070    5.8372 C   0  0  0  0  0  0  0  0  0  0  0  0
   -0.9916   77.1875    6.1188 N   0  0  0  0  0  0  0  0  0  0  0  0
   -1.4075   76.3137    6.2998 H   0  0  0  0  0  0  0  0  0  0  0  0
   -1.8543   78.3778    6.1708 C   0  0  0  0  0  0  0  0  0  0  0  0
   -3.2217   77.8650    5.7143 C   0  0  0  0  0  0  0  0  0  0  0  0
   -3.3138   76.4184    6.1943 C   0  0  0  0  0  0  0  0  0  0  0  0
   -5.3547   75.3363    3.4681 C   0  0  0  0  0  0  0  0  0  0  0  0
   -4.7335   76.3269    4.1319 C   0  0  0  0  0  0  0  0  0  0  0  0
   -4.3019   74.3874    5.1659 C   0  0  0  0  0  0  0  0  0  0  0  0
   -5.0238   74.1633    4.0900 N   0  0  0  0  0  0  0  0  0  0  0  0
   -4.0757   75.7121    5.1457 N   0  0  0  0  0  0  0  0  0  0  0  0
  9 10  1  0  0  0
 11 12  1  0  0  0
 13 14  2  0  0  0
 20 21  2  0  0  0
 20 23  1  0  0  0
  3  4  2  0  0  0
  3  6  1  0  0  0
  4  7  1  0  0  0
 21 24  1  0  0  0
 22 23  2  0  0  0
 22 24  1  0  0  0
  5  6  2  0  0  0
  5  8  1  0  0  0
 18 17  1  0  0  0
 18 19  1  0  0  0
 17 15  1  0  0  0
 19 24  1  0  0  0
 15 14  1  0  0  0
  1 14  1  0  0  0
  1  6  1  0  0  0
 10  7  1  0  0  0
 12  8  1  0  0  0
  7  8  2  0  0  0
 15 16  1  0  0  0
  1  2  1  0  0  0
M  END
> <minimizedAffinity>
-5.88026

$$$$
3PBB_PBD_A_380


 24 25  0  0  0  0  0  0  0  0999 V2000
    2.0295   76.9020    6.3399 N   0  0  0  0  0  0  0  0  0  0  0  0
    2.4796   76.9550    7.2138 H   0  0  0  0  0  0  0  0  0  0  0  0
    2.3090   74.6169    5.9203 C   0  0  0  0  0  0  0  0  0  0  0  0
    2.6756   73.5889    5.0517 C   0  0  0  0  0  0  0  0  0  0  0  0
    2.9270   76.2733    4.2276 C   0  0  0  0  0  0  0  0  0  0  0  0
    2.4218   75.9530    5.5125 C   0  0  0  0  0  0  0  0  0  0  0  0
    3.1828   73.9427    3.7961 C   0  0  0  0  0  0  0  0  0  0  0  0
    3.3050   75.2402    3.3626 C   0  0  0  0  0  0  0  0  0  0  0  0
    4.0862   71.8641    3.4062 C   0  0  0  0  0  0  0  0  0  0  0  0
    3.5962   73.0570    2.8663 O   0  0  0  0  0  0  0  0  0  0  0  0
    2.9475   76.2759    1.2288 C   0  0  0  0  0  0  0  0  0  0  0  0
    3.8099   75.3913    2.0738 O   0  0  0  0  0  0  0  0  0  0  0  0
    1.5517   79.4430    5.6726 S   0  0  0  0  0  0  0  0  0  0  0  0
    1.0535   77.8128    6.0831 C   0  0  0  0  0  0  0  0  0  0  0  0
   -0.2703   77.4739    6.1568 N   0  0  0  0  0  0  0  0  0  0  0  0
   -0.8872   77.9009    5.5192 H   0  0  0  0  0  0  0  0  0  0  0  0
   -0.8382   76.5178    7.1197 C   0  0  0  0  0  0  0  0  0  0  0  0
   -1.8500   75.7186    6.2959 C   0  0  0  0  0  0  0  0  0  0  0  0
   -3.1356   76.5424    6.2883 C   0  0  0  0  0  0  0  0  0  0  0  0
   -4.6598   74.7662    3.5883 C   0  0  0  0  0  0  0  0  0  0  0  0
   -3.9237   74.7603    4.7134 C   0  0  0  0  0  0  0  0  0  0  0  0
   -4.5521   76.8653    4.2763 C   0  0  0  0  0  0  0  0  0  0  0  0
   -5.0742   76.0539    3.3830 N   0  0  0  0  0  0  0  0  0  0  0  0
   -3.9008   76.0519    5.1252 N   0  0  0  0  0  0  0  0  0  0  0  0
  9 10  1  0  0  0
 11 12  1  0  0  0
 13 14  2  0  0  0
 20 21  2  0  0  0
 20 23  1  0  0  0
  3  4  2  0  0  0
  3  6  1  0  0  0
  4  7  1  0  0  0
 21 24  1  0  0  0
 22 23  2  0  0  0
 22 24  1  0  0  0
  5  6  2  0  0  0
  5  8  1  0  0  0
 18 17  1  0  0  0
 18 19  1  0  0  0
 17 15  1  0  0  0
 19 24  1  0  0  0
 15 14  1  0  0  0
  1 14  1  0  0  0
  1  6  1  0  0  0
 10  7  1  0  0  0
 12  8  1  0  0  0
  7  8  2  0  0  0
 15 16  1  0  0  0
  1  2  1  0  0  0
M  END
> <minimizedAffinity>
-5.60681

$$$$
