4B3C_5H1_A_1351


 12 13  0  0  0  0  0  0  0  0999 V2000
   11.8718   15.9903   17.9696 O   0  0  0  0  0  0  0  0  0  0  0  0
   11.1365   15.6554   19.0606 C   0  0  0  0  0  0  0  0  0  0  0  0
   10.6015   14.3747   19.1688 C   0  0  0  0  0  0  0  0  0  0  0  0
    9.8471   14.0371   20.2850 C   0  0  0  0  0  0  0  0  0  0  0  0
    9.6359   14.9813   21.2893 C   0  0  0  0  0  0  0  0  0  0  0  0
    8.9695   14.9327   22.4410 N   0  0  0  0  0  0  0  0  0  0  0  0
   10.9230   16.5961   20.0677 C   0  0  0  0  0  0  0  0  0  0  0  0
   10.1725   16.2544   21.1809 C   0  0  0  0  0  0  0  0  0  0  0  0
    9.8140   16.9277   22.2696 C   0  0  0  0  0  0  0  0  0  0  0  0
    9.0800   16.1202   23.0359 C   0  0  0  0  0  0  0  0  0  0  0  0
   12.0170   15.3605   17.2912 H   0  0  0  0  0  0  0  0  0  0  0  0
    8.4798   14.1542   22.7923 H   0  0  0  0  0  0  0  0  0  0  0  0
  2  1  1  0  0  0
  3  2  2  0  0  0
  7  2  1  0  0  0
  4  3  1  0  0  0
  5  4  2  0  0  0
  6  5  1  0  0  0
  5  8  1  0  0  0
  6 10  1  0  0  0
  8  7  2  0  0  0
  9  8  1  0  0  0
 10  9  2  0  0  0
  1 11  1  0  0  0
  6 12  1  0  0  0
M  END
> <minimizedAffinity>
-5.13957

$$$$
4B3C_5H1_A_1351


 12 13  0  0  0  0  0  0  0  0999 V2000
   11.9866   18.8009   20.5162 O   0  0  0  0  0  0  0  0  0  0  0  0
   11.4218   17.5732   20.6454 C   0  0  0  0  0  0  0  0  0  0  0  0
   11.0276   17.1208   21.9017 C   0  0  0  0  0  0  0  0  0  0  0  0
   10.4531   15.8628   22.0301 C   0  0  0  0  0  0  0  0  0  0  0  0
   10.2717   15.0661   20.9001 C   0  0  0  0  0  0  0  0  0  0  0  0
    9.7597   13.8483   20.7335 N   0  0  0  0  0  0  0  0  0  0  0  0
   11.2378   16.7730   19.5183 C   0  0  0  0  0  0  0  0  0  0  0  0
   10.6616   15.5201   19.6502 C   0  0  0  0  0  0  0  0  0  0  0  0
   10.3699   14.5636   18.7743 C   0  0  0  0  0  0  0  0  0  0  0  0
    9.8209   13.5451   19.4371 C   0  0  0  0  0  0  0  0  0  0  0  0
   12.1115   19.3410   21.2717 H   0  0  0  0  0  0  0  0  0  0  0  0
    9.3984   13.2715   21.4449 H   0  0  0  0  0  0  0  0  0  0  0  0
  2  1  1  0  0  0
  3  2  2  0  0  0
  7  2  1  0  0  0
  4  3  1  0  0  0
  5  4  2  0  0  0
  6  5  1  0  0  0
  5  8  1  0  0  0
  6 10  1  0  0  0
  8  7  2  0  0  0
  9  8  1  0  0  0
 10  9  2  0  0  0
  1 11  1  0  0  0
  6 12  1  0  0  0
M  END
> <minimizedAffinity>
-5.08831

$$$$
4B3C_5H1_A_1351


 12 13  0  0  0  0  0  0  0  0999 V2000
   10.3047   14.1657   17.0270 O   0  0  0  0  0  0  0  0  0  0  0  0
   10.3841   14.7454   18.2520 C   0  0  0  0  0  0  0  0  0  0  0  0
   11.0495   15.9591   18.4021 C   0  0  0  0  0  0  0  0  0  0  0  0
   11.1313   16.5472   19.6577 C   0  0  0  0  0  0  0  0  0  0  0  0
   10.5429   15.9202   20.7555 C   0  0  0  0  0  0  0  0  0  0  0  0
   10.4685   16.2493   22.0436 N   0  0  0  0  0  0  0  0  0  0  0  0
    9.7968   14.1224   19.3527 C   0  0  0  0  0  0  0  0  0  0  0  0
    9.8781   14.7139   20.6029 C   0  0  0  0  0  0  0  0  0  0  0  0
    9.4246   14.3589   21.8010 C   0  0  0  0  0  0  0  0  0  0  0  0
    9.7864   15.2960   22.6778 C   0  0  0  0  0  0  0  0  0  0  0  0
   10.6983   14.5817   16.2854 H   0  0  0  0  0  0  0  0  0  0  0  0
   10.8512   17.0572   22.4561 H   0  0  0  0  0  0  0  0  0  0  0  0
  2  1  1  0  0  0
  3  2  2  0  0  0
  7  2  1  0  0  0
  4  3  1  0  0  0
  5  4  2  0  0  0
  6  5  1  0  0  0
  5  8  1  0  0  0
  6 10  1  0  0  0
  8  7  2  0  0  0
  9  8  1  0  0  0
 10  9  2  0  0  0
  1 11  1  0  0  0
  6 12  1  0  0  0
M  END
> <minimizedAffinity>
-5.04958

$$$$
4B3C_5H1_A_1351


 12 13  0  0  0  0  0  0  0  0999 V2000
    9.6313   15.3834   23.4086 O   0  0  0  0  0  0  0  0  0  0  0  0
   10.0439   15.5663   22.1282 C   0  0  0  0  0  0  0  0  0  0  0  0
   10.7901   16.6935   21.7953 C   0  0  0  0  0  0  0  0  0  0  0  0
   11.2075   16.8786   20.4836 C   0  0  0  0  0  0  0  0  0  0  0  0
   10.8800   15.9326   19.5129 C   0  0  0  0  0  0  0  0  0  0  0  0
   11.1416   15.8565   18.2095 N   0  0  0  0  0  0  0  0  0  0  0  0
    9.7192   14.6228   21.1541 C   0  0  0  0  0  0  0  0  0  0  0  0
   10.1401   14.8096   19.8475 C   0  0  0  0  0  0  0  0  0  0  0  0
    9.9832   14.0952   18.7374 C   0  0  0  0  0  0  0  0  0  0  0  0
   10.5939   14.7358   17.7400 C   0  0  0  0  0  0  0  0  0  0  0  0
    9.8478   16.0156   24.0654 H   0  0  0  0  0  0  0  0  0  0  0  0
   11.6514   16.5143   17.6836 H   0  0  0  0  0  0  0  0  0  0  0  0
  2  1  1  0  0  0
  3  2  2  0  0  0
  7  2  1  0  0  0
  4  3  1  0  0  0
  5  4  2  0  0  0
  6  5  1  0  0  0
  5  8  1  0  0  0
  6 10  1  0  0  0
  8  7  2  0  0  0
  9  8  1  0  0  0
 10  9  2  0  0  0
  1 11  1  0  0  0
  6 12  1  0  0  0
M  END
> <minimizedAffinity>
-5.01616

$$$$
4B3C_5H1_A_1351


 12 13  0  0  0  0  0  0  0  0999 V2000
    9.5255   12.9215   19.4834 O   0  0  0  0  0  0  0  0  0  0  0  0
   10.0788   14.1526   19.6287 C   0  0  0  0  0  0  0  0  0  0  0  0
   10.6174   14.8048   18.5229 C   0  0  0  0  0  0  0  0  0  0  0  0
   11.1855   16.0629   18.6764 C   0  0  0  0  0  0  0  0  0  0  0  0
   11.2075   16.6638   19.9346 C   0  0  0  0  0  0  0  0  0  0  0  0
   11.6764   17.8344   20.3620 N   0  0  0  0  0  0  0  0  0  0  0  0
   10.1026   14.7577   20.8848 C   0  0  0  0  0  0  0  0  0  0  0  0
   10.6675   16.0140   21.0331 C   0  0  0  0  0  0  0  0  0  0  0  0
   10.8269   16.8143   22.0826 C   0  0  0  0  0  0  0  0  0  0  0  0
   11.4429   17.9230   21.6712 C   0  0  0  0  0  0  0  0  0  0  0  0
    9.5079   12.5122   18.6407 H   0  0  0  0  0  0  0  0  0  0  0  0
   12.1191   18.5164   19.8070 H   0  0  0  0  0  0  0  0  0  0  0  0
  2  1  1  0  0  0
  3  2  2  0  0  0
  7  2  1  0  0  0
  4  3  1  0  0  0
  5  4  2  0  0  0
  6  5  1  0  0  0
  5  8  1  0  0  0
  6 10  1  0  0  0
  8  7  2  0  0  0
  9  8  1  0  0  0
 10  9  2  0  0  0
  1 11  1  0  0  0
  6 12  1  0  0  0
M  END
> <minimizedAffinity>
-4.89444

$$$$
4B3C_5H1_A_1351


 12 13  0  0  0  0  0  0  0  0999 V2000
    9.7769   13.0881   19.7164 O   0  0  0  0  0  0  0  0  0  0  0  0
    9.9134   14.2674   20.3749 C   0  0  0  0  0  0  0  0  0  0  0  0
    9.3296   14.4325   21.6280 C   0  0  0  0  0  0  0  0  0  0  0  0
    9.4688   15.6417   22.2971 C   0  0  0  0  0  0  0  0  0  0  0  0
   10.1954   16.6776   21.7109 C   0  0  0  0  0  0  0  0  0  0  0  0
   10.4833   17.9129   22.1158 N   0  0  0  0  0  0  0  0  0  0  0  0
   10.6395   15.3060   19.7930 C   0  0  0  0  0  0  0  0  0  0  0  0
   10.7786   16.5095   20.4650 C   0  0  0  0  0  0  0  0  0  0  0  0
   11.3987   17.6460   20.1631 C   0  0  0  0  0  0  0  0  0  0  0  0
   11.2166   18.5003   21.1705 C   0  0  0  0  0  0  0  0  0  0  0  0
    9.2897   12.3883   20.1047 H   0  0  0  0  0  0  0  0  0  0  0  0
   10.2029   18.3218   22.9664 H   0  0  0  0  0  0  0  0  0  0  0  0
  2  1  1  0  0  0
  3  2  2  0  0  0
  7  2  1  0  0  0
  4  3  1  0  0  0
  5  4  2  0  0  0
  6  5  1  0  0  0
  5  8  1  0  0  0
  6 10  1  0  0  0
  8  7  2  0  0  0
  9  8  1  0  0  0
 10  9  2  0  0  0
  1 11  1  0  0  0
  6 12  1  0  0  0
M  END
> <minimizedAffinity>
-4.58077

$$$$
4B3C_5H1_A_1351


 12 13  0  0  0  0  0  0  0  0999 V2000
   10.0259   13.2256   19.9438 O   0  0  0  0  0  0  0  0  0  0  0  0
    9.9730   14.4231   20.5812 C   0  0  0  0  0  0  0  0  0  0  0  0
   10.6690   15.5133   20.0661 C   0  0  0  0  0  0  0  0  0  0  0  0
   10.6149   16.7358   20.7230 C   0  0  0  0  0  0  0  0  0  0  0  0
    9.8608   16.8623   21.8892 C   0  0  0  0  0  0  0  0  0  0  0  0
    9.6358   17.8900   22.7054 N   0  0  0  0  0  0  0  0  0  0  0  0
    9.2199   14.5546   21.7474 C   0  0  0  0  0  0  0  0  0  0  0  0
    9.1660   15.7765   22.3980 C   0  0  0  0  0  0  0  0  0  0  0  0
    8.5453   16.1864   23.4998 C   0  0  0  0  0  0  0  0  0  0  0  0
    8.8338   17.4748   23.6856 C   0  0  0  0  0  0  0  0  0  0  0  0
   10.5311   13.1340   19.1599 H   0  0  0  0  0  0  0  0  0  0  0  0
    9.9990   18.7992   22.6026 H   0  0  0  0  0  0  0  0  0  0  0  0
  2  1  1  0  0  0
  3  2  2  0  0  0
  7  2  1  0  0  0
  4  3  1  0  0  0
  5  4  2  0  0  0
  6  5  1  0  0  0
  5  8  1  0  0  0
  6 10  1  0  0  0
  8  7  2  0  0  0
  9  8  1  0  0  0
 10  9  2  0  0  0
  1 11  1  0  0  0
  6 12  1  0  0  0
M  END
> <minimizedAffinity>
-4.31767

$$$$
4B3C_5H1_A_1351


 12 13  0  0  0  0  0  0  0  0999 V2000
   10.1369   17.4242   23.5115 O   0  0  0  0  0  0  0  0  0  0  0  0
   10.0956   16.5390   22.4831 C   0  0  0  0  0  0  0  0  0  0  0  0
    9.4575   15.3129   22.6498 C   0  0  0  0  0  0  0  0  0  0  0  0
    9.4203   14.4087   21.5962 C   0  0  0  0  0  0  0  0  0  0  0  0
   10.0176   14.7380   20.3799 C   0  0  0  0  0  0  0  0  0  0  0  0
   10.1309   14.0793   19.2282 N   0  0  0  0  0  0  0  0  0  0  0  0
   10.6910   16.8641   21.2647 C   0  0  0  0  0  0  0  0  0  0  0  0
   10.6489   15.9606   20.2153 C   0  0  0  0  0  0  0  0  0  0  0  0
   11.1183   15.9982   18.9721 C   0  0  0  0  0  0  0  0  0  0  0  0
   10.8019   14.8499   18.3726 C   0  0  0  0  0  0  0  0  0  0  0  0
    9.7378   17.2088   24.3314 H   0  0  0  0  0  0  0  0  0  0  0  0
    9.7797   13.1788   19.0412 H   0  0  0  0  0  0  0  0  0  0  0  0
  2  1  1  0  0  0
  3  2  2  0  0  0
  7  2  1  0  0  0
  4  3  1  0  0  0
  5  4  2  0  0  0
  6  5  1  0  0  0
  5  8  1  0  0  0
  6 10  1  0  0  0
  8  7  2  0  0  0
  9  8  1  0  0  0
 10  9  2  0  0  0
  1 11  1  0  0  0
  6 12  1  0  0  0
M  END
> <minimizedAffinity>
-4.28110

$$$$
4B3C_5H1_A_1351


 12 13  0  0  0  0  0  0  0  0999 V2000
   11.6894   16.6732   19.2815 O   0  0  0  0  0  0  0  0  0  0  0  0
   10.7657   16.3978   20.2375 C   0  0  0  0  0  0  0  0  0  0  0  0
   10.3675   15.0820   20.4573 C   0  0  0  0  0  0  0  0  0  0  0  0
    9.4198   14.8048   21.4341 C   0  0  0  0  0  0  0  0  0  0  0  0
    8.8791   15.8451   22.1890 C   0  0  0  0  0  0  0  0  0  0  0  0
    7.9759   15.8689   23.1671 N   0  0  0  0  0  0  0  0  0  0  0  0
   10.2225   17.4348   20.9953 C   0  0  0  0  0  0  0  0  0  0  0  0
    9.2797   17.1537   21.9708 C   0  0  0  0  0  0  0  0  0  0  0  0
    8.6076   17.9198   22.8244 C   0  0  0  0  0  0  0  0  0  0  0  0
    7.8128   17.1344   23.5520 C   0  0  0  0  0  0  0  0  0  0  0  0
   12.0563   15.9787   18.7706 H   0  0  0  0  0  0  0  0  0  0  0  0
    7.5092   15.0869   23.5412 H   0  0  0  0  0  0  0  0  0  0  0  0
  2  1  1  0  0  0
  3  2  2  0  0  0
  7  2  1  0  0  0
  4  3  1  0  0  0
  5  4  2  0  0  0
  6  5  1  0  0  0
  5  8  1  0  0  0
  6 10  1  0  0  0
  8  7  2  0  0  0
  9  8  1  0  0  0
 10  9  2  0  0  0
  1 11  1  0  0  0
  6 12  1  0  0  0
M  END
> <minimizedAffinity>
-4.21440

$$$$
4B3C_5H1_A_1351


 12 13  0  0  0  0  0  0  0  0999 V2000
   11.2476   15.9645   18.1625 O   0  0  0  0  0  0  0  0  0  0  0  0
   11.0426   16.3297   19.4539 C   0  0  0  0  0  0  0  0  0  0  0  0
   11.3618   17.6202   19.8677 C   0  0  0  0  0  0  0  0  0  0  0  0
   11.1536   17.9889   21.1905 C   0  0  0  0  0  0  0  0  0  0  0  0
   10.6228   17.0660   22.0911 C   0  0  0  0  0  0  0  0  0  0  0  0
   10.3257   17.1451   23.3866 N   0  0  0  0  0  0  0  0  0  0  0  0
   10.5116   15.4105   20.3580 C   0  0  0  0  0  0  0  0  0  0  0  0
   10.3026   15.7832   21.6759 C   0  0  0  0  0  0  0  0  0  0  0  0
    9.8223   15.1348   22.7324 C   0  0  0  0  0  0  0  0  0  0  0  0
    9.8381   15.9668   23.7742 C   0  0  0  0  0  0  0  0  0  0  0  0
   11.6043   16.5798   17.5526 H   0  0  0  0  0  0  0  0  0  0  0  0
   10.4455   17.9369   23.9592 H   0  0  0  0  0  0  0  0  0  0  0  0
  2  1  1  0  0  0
  3  2  2  0  0  0
  7  2  1  0  0  0
  4  3  1  0  0  0
  5  4  2  0  0  0
  6  5  1  0  0  0
  5  8  1  0  0  0
  6 10  1  0  0  0
  8  7  2  0  0  0
  9  8  1  0  0  0
 10  9  2  0  0  0
  1 11  1  0  0  0
  6 12  1  0  0  0
M  END
> <minimizedAffinity>
-4.12569

$$$$
