2AL5_FWD_A_901


 19 19  0  0  0  0  0  0  0  0999 V2000
   20.5554   61.7385   28.7604 N   0  0  0  0  0  0  0  0  0  0  0  0
   21.1656   61.6244   27.4907 C   0  0  0  0  0  0  0  0  0  0  0  0
   20.5623   61.6067   26.4485 O   0  0  0  0  0  0  0  0  0  0  0  0
   22.5736   61.5230   27.5440 N   0  0  0  0  0  0  0  0  0  0  0  0
   23.3849   61.5319   28.6619 C   0  0  0  0  0  0  0  0  0  0  0  0
   24.5955   61.4206   28.6132 O   0  0  0  0  0  0  0  0  0  0  0  0
   22.6268   61.6557   29.9525 C   0  0  0  0  0  0  0  0  0  0  0  0
   23.3318   61.6955   31.1025 F   0  0  0  0  0  0  0  0  0  0  0  0
   21.2763   61.7781   29.9125 C   0  0  0  0  0  0  0  0  0  0  0  0
   23.0331   61.4353   26.6778 H   0  0  0  0  0  0  0  0  0  0  0  0
   19.1018   61.9168   28.8361 C   0  0  0  0  0  0  0  0  0  0  0  0
   18.6078   63.2962   28.4202 C   0  0  0  0  0  0  0  0  0  0  0  0
   18.9276   64.3078   29.4833 N   0  0  0  0  0  0  0  0  0  0  0  0
   18.4257   64.0717   30.3393 H   0  0  0  0  0  0  0  0  0  0  0  0
   18.6432   65.2349   29.1670 H   0  0  0  0  0  0  0  0  0  0  0  0
   17.1261   63.3422   28.0566 C   0  0  0  0  0  0  0  0  0  0  0  0
   16.3826   64.0129   28.7355 O   0  0  0  0  0  0  0  0  0  0  0  0
   16.8013   62.5980   27.0618 O   0  0  0  0  0  0  0  0  0  0  0  0
   17.4608   62.1171   26.6016 H   0  0  0  0  0  0  0  0  0  0  0  0
  1  2  1  0  0  0
  1  9  1  0  0  0
  1 11  1  0  0  0
  2  3  2  0  0  0
  2  4  1  0  0  0
  4  5  1  0  0  0
  5  6  2  0  0  0
  5  7  1  0  0  0
  7  8  1  0  0  0
  7  9  2  0  0  0
 11 12  1  0  0  0
 12 13  1  0  0  0
 12 16  1  0  0  0
 16 17  2  0  0  0
 16 18  1  0  0  0
  4 10  1  0  0  0
 13 14  1  0  0  0
 13 15  1  0  0  0
 18 19  1  0  0  0
M  END
> <minimizedAffinity>
-9.09396

$$$$
2AL5_FWD_A_901


 19 19  0  0  0  0  0  0  0  0999 V2000
   20.7397   61.8276   28.8787 N   0  0  0  0  0  0  0  0  0  0  0  0
   21.3404   62.2553   30.0844 C   0  0  0  0  0  0  0  0  0  0  0  0
   20.7342   62.7206   31.0151 O   0  0  0  0  0  0  0  0  0  0  0  0
   22.7438   62.0960   30.1078 N   0  0  0  0  0  0  0  0  0  0  0  0
   23.5573   61.5787   29.1185 C   0  0  0  0  0  0  0  0  0  0  0  0
   24.7669   61.4957   29.2199 O   0  0  0  0  0  0  0  0  0  0  0  0
   22.8098   61.1597   27.8850 C   0  0  0  0  0  0  0  0  0  0  0  0
   23.5137   60.6208   26.8676 F   0  0  0  0  0  0  0  0  0  0  0  0
   21.4592   61.2855   27.8604 C   0  0  0  0  0  0  0  0  0  0  0  0
   23.1979   62.3897   30.9304 H   0  0  0  0  0  0  0  0  0  0  0  0
   19.2794   61.8801   28.7553 C   0  0  0  0  0  0  0  0  0  0  0  0
   18.7233   63.2414   28.3586 C   0  0  0  0  0  0  0  0  0  0  0  0
   18.9950   64.2510   29.4369 N   0  0  0  0  0  0  0  0  0  0  0  0
   18.5033   63.9797   30.2883 H   0  0  0  0  0  0  0  0  0  0  0  0
   18.6689   65.1686   29.1335 H   0  0  0  0  0  0  0  0  0  0  0  0
   17.2416   63.2248   27.9926 C   0  0  0  0  0  0  0  0  0  0  0  0
   16.8649   62.4620   27.1325 O   0  0  0  0  0  0  0  0  0  0  0  0
   16.5304   64.0884   28.6229 O   0  0  0  0  0  0  0  0  0  0  0  0
   16.9246   64.6335   29.2752 H   0  0  0  0  0  0  0  0  0  0  0  0
  1  2  1  0  0  0
  1  9  1  0  0  0
  1 11  1  0  0  0
  2  3  2  0  0  0
  2  4  1  0  0  0
  4  5  1  0  0  0
  5  6  2  0  0  0
  5  7  1  0  0  0
  7  8  1  0  0  0
  7  9  2  0  0  0
 11 12  1  0  0  0
 12 13  1  0  0  0
 12 16  1  0  0  0
 16 17  2  0  0  0
 16 18  1  0  0  0
  4 10  1  0  0  0
 13 14  1  0  0  0
 13 15  1  0  0  0
 18 19  1  0  0  0
M  END
> <minimizedAffinity>
-7.80307

$$$$
2AL5_FWD_A_901


 19 19  0  0  0  0  0  0  0  0999 V2000
   21.9353   61.6247   28.3561 N   0  0  0  0  0  0  0  0  0  0  0  0
   22.0107   61.7827   29.7585 C   0  0  0  0  0  0  0  0  0  0  0  0
   21.1594   62.3105   30.4273 O   0  0  0  0  0  0  0  0  0  0  0  0
   23.1968   61.2660   30.3257 N   0  0  0  0  0  0  0  0  0  0  0  0
   24.2452   60.6398   29.6801 C   0  0  0  0  0  0  0  0  0  0  0  0
   25.2422   60.2400   30.2515 O   0  0  0  0  0  0  0  0  0  0  0  0
   24.0554   60.5302   28.1943 C   0  0  0  0  0  0  0  0  0  0  0  0
   25.0161   59.9137   27.4745 F   0  0  0  0  0  0  0  0  0  0  0  0
   22.9095   61.0012   27.6414 C   0  0  0  0  0  0  0  0  0  0  0  0
   23.2874   61.3643   31.3010 H   0  0  0  0  0  0  0  0  0  0  0  0
   20.7228   62.0615   27.6565 C   0  0  0  0  0  0  0  0  0  0  0  0
   19.4293   61.8478   28.4319 C   0  0  0  0  0  0  0  0  0  0  0  0
   18.7388   60.5997   27.9616 N   0  0  0  0  0  0  0  0  0  0  0  0
   18.4700   60.7077   26.9837 H   0  0  0  0  0  0  0  0  0  0  0  0
   17.9056   60.4383   28.5275 H   0  0  0  0  0  0  0  0  0  0  0  0
   18.4778   63.0406   28.3942 C   0  0  0  0  0  0  0  0  0  0  0  0
   17.5215   62.9967   27.6545 O   0  0  0  0  0  0  0  0  0  0  0  0
   18.8304   64.0235   29.1414 O   0  0  0  0  0  0  0  0  0  0  0  0
   19.5939   63.9523   29.6799 H   0  0  0  0  0  0  0  0  0  0  0  0
  1  2  1  0  0  0
  1  9  1  0  0  0
  1 11  1  0  0  0
  2  3  2  0  0  0
  2  4  1  0  0  0
  4  5  1  0  0  0
  5  6  2  0  0  0
  5  7  1  0  0  0
  7  8  1  0  0  0
  7  9  2  0  0  0
 11 12  1  0  0  0
 12 13  1  0  0  0
 12 16  1  0  0  0
 16 17  2  0  0  0
 16 18  1  0  0  0
  4 10  1  0  0  0
 13 14  1  0  0  0
 13 15  1  0  0  0
 18 19  1  0  0  0
M  END
> <minimizedAffinity>
-7.46223

$$$$
2AL5_FWD_A_901


 19 19  0  0  0  0  0  0  0  0999 V2000
   21.1060   61.6754   28.4874 N   0  0  0  0  0  0  0  0  0  0  0  0
   20.2769   61.8421   27.3550 C   0  0  0  0  0  0  0  0  0  0  0  0
   20.4764   61.3223   26.2872 O   0  0  0  0  0  0  0  0  0  0  0  0
   19.1728   62.6941   27.5797 N   0  0  0  0  0  0  0  0  0  0  0  0
   18.8275   63.3486   28.7461 C   0  0  0  0  0  0  0  0  0  0  0  0
   17.8614   64.0818   28.8431 O   0  0  0  0  0  0  0  0  0  0  0  0
   19.7808   63.0984   29.8794 C   0  0  0  0  0  0  0  0  0  0  0  0
   19.5184   63.6767   31.0701 F   0  0  0  0  0  0  0  0  0  0  0  0
   20.8312   62.2628   29.6824 C   0  0  0  0  0  0  0  0  0  0  0  0
   18.5760   62.8393   26.8103 H   0  0  0  0  0  0  0  0  0  0  0  0
   22.2499   60.7618   28.4015 C   0  0  0  0  0  0  0  0  0  0  0  0
   23.6074   61.4215   28.6065 C   0  0  0  0  0  0  0  0  0  0  0  0
   24.3310   61.5452   27.2962 N   0  0  0  0  0  0  0  0  0  0  0  0
   24.5200   60.6149   26.9230 H   0  0  0  0  0  0  0  0  0  0  0  0
   25.2117   62.0394   27.4395 H   0  0  0  0  0  0  0  0  0  0  0  0
   24.4841   60.7292   29.6466 C   0  0  0  0  0  0  0  0  0  0  0  0
   24.6123   59.5275   29.5901 O   0  0  0  0  0  0  0  0  0  0  0  0
   24.9726   61.5160   30.5361 O   0  0  0  0  0  0  0  0  0  0  0  0
   24.8114   62.4376   30.4857 H   0  0  0  0  0  0  0  0  0  0  0  0
  1  2  1  0  0  0
  1  9  1  0  0  0
  1 11  1  0  0  0
  2  3  2  0  0  0
  2  4  1  0  0  0
  4  5  1  0  0  0
  5  6  2  0  0  0
  5  7  1  0  0  0
  7  8  1  0  0  0
  7  9  2  0  0  0
 11 12  1  0  0  0
 12 13  1  0  0  0
 12 16  1  0  0  0
 16 17  2  0  0  0
 16 18  1  0  0  0
  4 10  1  0  0  0
 13 14  1  0  0  0
 13 15  1  0  0  0
 18 19  1  0  0  0
M  END
> <minimizedAffinity>
-6.63773

$$$$
2AL5_FWD_A_901


 19 19  0  0  0  0  0  0  0  0999 V2000
   22.0072   61.4379   28.3130 N   0  0  0  0  0  0  0  0  0  0  0  0
   22.8660   60.6315   27.5322 C   0  0  0  0  0  0  0  0  0  0  0  0
   22.6534   60.3275   26.3865 O   0  0  0  0  0  0  0  0  0  0  0  0
   24.0180   60.1939   28.2227 N   0  0  0  0  0  0  0  0  0  0  0  0
   24.3829   60.4676   29.5266 C   0  0  0  0  0  0  0  0  0  0  0  0
   25.3920   60.0299   30.0468 O   0  0  0  0  0  0  0  0  0  0  0  0
   23.3948   61.3306   30.2577 C   0  0  0  0  0  0  0  0  0  0  0  0
   23.6716   61.6730   31.5333 F   0  0  0  0  0  0  0  0  0  0  0  0
   22.2969   61.7768   29.5974 C   0  0  0  0  0  0  0  0  0  0  0  0
   24.6370   59.6237   27.7119 H   0  0  0  0  0  0  0  0  0  0  0  0
   20.8090   62.0094   27.6900 C   0  0  0  0  0  0  0  0  0  0  0  0
   19.5333   61.8589   28.5085 C   0  0  0  0  0  0  0  0  0  0  0  0
   18.8465   60.5663   28.1722 N   0  0  0  0  0  0  0  0  0  0  0  0
   18.5574   60.5794   27.1941 H   0  0  0  0  0  0  0  0  0  0  0  0
   18.0264   60.4520   28.7677 H   0  0  0  0  0  0  0  0  0  0  0  0
   18.5690   63.0348   28.3783 C   0  0  0  0  0  0  0  0  0  0  0  0
   17.6703   62.9616   27.5718 O   0  0  0  0  0  0  0  0  0  0  0  0
   18.8509   64.0370   29.1300 O   0  0  0  0  0  0  0  0  0  0  0  0
   19.5739   63.9883   29.7240 H   0  0  0  0  0  0  0  0  0  0  0  0
  1  2  1  0  0  0
  1  9  1  0  0  0
  1 11  1  0  0  0
  2  3  2  0  0  0
  2  4  1  0  0  0
  4  5  1  0  0  0
  5  6  2  0  0  0
  5  7  1  0  0  0
  7  8  1  0  0  0
  7  9  2  0  0  0
 11 12  1  0  0  0
 12 13  1  0  0  0
 12 16  1  0  0  0
 16 17  2  0  0  0
 16 18  1  0  0  0
  4 10  1  0  0  0
 13 14  1  0  0  0
 13 15  1  0  0  0
 18 19  1  0  0  0
M  END
> <minimizedAffinity>
-6.53155

$$$$
