4YXI_4J8_A_303


 13 13  0  0  0  0  0  0  0  0999 V2000
   -1.5380    4.9549   84.8045 C   0  0  0  0  0  0  0  0  0  0  0  0
   -0.6737    3.9058   85.0809 C   0  0  0  0  0  0  0  0  0  0  0  0
   -2.4152    2.6888   86.1745 C   0  0  0  0  0  0  0  0  0  0  0  0
   -2.8564    4.8386   85.2228 C   0  0  0  0  0  0  0  0  0  0  0  0
   -1.0971    2.7747   85.7616 C   0  0  0  0  0  0  0  0  0  0  0  0
   -3.3053    3.7164   85.9025 C   0  0  0  0  0  0  0  0  0  0  0  0
   -1.0616    6.1888   84.0817 C   0  0  0  0  0  0  0  0  0  0  0  0
   -2.2920    0.1367   86.5481 O   0  0  0  0  0  0  0  0  0  0  0  0
   -2.9632    1.2737   87.0959 S   0  0  0  0  0  0  0  0  0  0  0  0
   -4.4043    1.2759   87.0495 O   0  0  0  0  0  0  0  0  0  0  0  0
   -2.5070    1.4597   88.6100 N   0  0  0  0  0  0  0  0  0  0  0  0
   -1.4883    1.4604   88.6605 H   0  0  0  0  0  0  0  0  0  0  0  0
   -2.8748    0.6924   89.1726 H   0  0  0  0  0  0  0  0  0  0  0  0
  7  1  1  0  0  0
  1  4  2  0  0  0
  1  2  1  0  0  0
  4  6  1  0  0  0
  2  5  2  0  0  0
  6  3  2  0  0  0
  5  3  1  0  0  0
  3  9  1  0  0  0
 11  9  1  0  0  0
  8  9  2  0  0  0
  9 10  2  0  0  0
 11 12  1  0  0  0
 11 13  1  0  0  0
M  END
> <minimizedAffinity>
-6.05468

$$$$
4YXI_4J8_A_303


 13 13  0  0  0  0  0  0  0  0999 V2000
   -2.7221    2.2946   86.9956 C   0  0  0  0  0  0  0  0  0  0  0  0
   -1.7322    1.4994   86.4372 C   0  0  0  0  0  0  0  0  0  0  0  0
   -1.8501    2.7058   84.3779 C   0  0  0  0  0  0  0  0  0  0  0  0
   -3.2598    3.3081   86.2143 C   0  0  0  0  0  0  0  0  0  0  0  0
   -1.2907    1.6931   85.1373 C   0  0  0  0  0  0  0  0  0  0  0  0
   -2.8332    3.5243   84.9127 C   0  0  0  0  0  0  0  0  0  0  0  0
   -3.2088    2.0618   88.4030 C   0  0  0  0  0  0  0  0  0  0  0  0
   -0.0136    2.4074   82.5874 O   0  0  0  0  0  0  0  0  0  0  0  0
   -1.3381    2.9344   82.6935 S   0  0  0  0  0  0  0  0  0  0  0  0
   -1.5199    4.3313   82.3862 O   0  0  0  0  0  0  0  0  0  0  0  0
   -2.3066    2.0824   81.7600 N   0  0  0  0  0  0  0  0  0  0  0  0
   -2.1902    1.0900   81.9650 H   0  0  0  0  0  0  0  0  0  0  0  0
   -2.0760    2.2568   80.7818 H   0  0  0  0  0  0  0  0  0  0  0  0
  7  1  1  0  0  0
  1  4  2  0  0  0
  1  2  1  0  0  0
  4  6  1  0  0  0
  2  5  2  0  0  0
  6  3  2  0  0  0
  5  3  1  0  0  0
  3  9  1  0  0  0
 11  9  1  0  0  0
  8  9  2  0  0  0
  9 10  2  0  0  0
 11 12  1  0  0  0
 11 13  1  0  0  0
M  END
> <minimizedAffinity>
-5.77940

$$$$
4YXI_4J8_A_303


 13 13  0  0  0  0  0  0  0  0999 V2000
   -3.0211    2.1783   86.6931 C   0  0  0  0  0  0  0  0  0  0  0  0
   -1.7082    1.7310   86.6967 C   0  0  0  0  0  0  0  0  0  0  0  0
   -1.0495    3.4869   85.2159 C   0  0  0  0  0  0  0  0  0  0  0  0
   -3.3225    3.3036   85.9383 C   0  0  0  0  0  0  0  0  0  0  0  0
   -0.7193    2.3720   85.9663 C   0  0  0  0  0  0  0  0  0  0  0  0
   -2.3511    3.9643   85.2017 C   0  0  0  0  0  0  0  0  0  0  0  0
   -4.0921    1.4613   87.4747 C   0  0  0  0  0  0  0  0  0  0  0  0
   -0.2505    5.6322   84.0213 O   0  0  0  0  0  0  0  0  0  0  0  0
    0.1903    4.2885   84.2300 S   0  0  0  0  0  0  0  0  0  0  0  0
    0.3897    3.4695   83.0602 O   0  0  0  0  0  0  0  0  0  0  0  0
    1.5466    4.3161   85.0635 N   0  0  0  0  0  0  0  0  0  0  0  0
    1.4225    4.8924   85.8960 H   0  0  0  0  0  0  0  0  0  0  0  0
    2.2919    4.7072   84.4873 H   0  0  0  0  0  0  0  0  0  0  0  0
  7  1  1  0  0  0
  1  4  2  0  0  0
  1  2  1  0  0  0
  4  6  1  0  0  0
  2  5  2  0  0  0
  6  3  2  0  0  0
  5  3  1  0  0  0
  3  9  1  0  0  0
 11  9  1  0  0  0
  8  9  2  0  0  0
  9 10  2  0  0  0
 11 12  1  0  0  0
 11 13  1  0  0  0
M  END
> <minimizedAffinity>
-5.76742

$$$$
4YXI_4J8_A_303


 13 13  0  0  0  0  0  0  0  0999 V2000
   -3.0594    2.1728   86.6849 C   0  0  0  0  0  0  0  0  0  0  0  0
   -3.3981    3.3119   85.9696 C   0  0  0  0  0  0  0  0  0  0  0  0
   -1.1393    3.5917   85.2420 C   0  0  0  0  0  0  0  0  0  0  0  0
   -1.7361    1.7549   86.6535 C   0  0  0  0  0  0  0  0  0  0  0  0
   -2.4532    4.0263   85.2492 C   0  0  0  0  0  0  0  0  0  0  0  0
   -0.7728    2.4500   85.9381 C   0  0  0  0  0  0  0  0  0  0  0  0
   -4.0912    1.4158   87.4812 C   0  0  0  0  0  0  0  0  0  0  0  0
   -0.0160    4.1720   82.9905 O   0  0  0  0  0  0  0  0  0  0  0  0
    0.0959    4.5234   84.3716 S   0  0  0  0  0  0  0  0  0  0  0  0
    1.3558    4.2581   85.0207 O   0  0  0  0  0  0  0  0  0  0  0  0
   -0.2407    6.0708   84.5370 N   0  0  0  0  0  0  0  0  0  0  0  0
   -1.1305    6.2757   84.0825 H   0  0  0  0  0  0  0  0  0  0  0  0
    0.4974    6.6273   84.1058 H   0  0  0  0  0  0  0  0  0  0  0  0
  7  1  1  0  0  0
  1  4  2  0  0  0
  1  2  1  0  0  0
  4  6  1  0  0  0
  2  5  2  0  0  0
  6  3  2  0  0  0
  5  3  1  0  0  0
  3  9  1  0  0  0
 11  9  1  0  0  0
  8  9  2  0  0  0
  9 10  2  0  0  0
 11 12  1  0  0  0
 11 13  1  0  0  0
M  END
> <minimizedAffinity>
-5.58776

$$$$
4YXI_4J8_A_303


 13 13  0  0  0  0  0  0  0  0999 V2000
   -1.8003    1.9532   85.6916 C   0  0  0  0  0  0  0  0  0  0  0  0
   -1.3330    0.8969   84.9236 C   0  0  0  0  0  0  0  0  0  0  0  0
   -1.4491    2.2199   82.9371 C   0  0  0  0  0  0  0  0  0  0  0  0
   -2.0796    3.1511   85.0484 C   0  0  0  0  0  0  0  0  0  0  0  0
   -1.1549    1.0165   83.5539 C   0  0  0  0  0  0  0  0  0  0  0  0
   -1.9070    3.2971   83.6803 C   0  0  0  0  0  0  0  0  0  0  0  0
   -2.0096    1.8054   87.1770 C   0  0  0  0  0  0  0  0  0  0  0  0
    0.1189    2.3426   80.8892 O   0  0  0  0  0  0  0  0  0  0  0  0
   -1.2809    2.3761   81.1768 S   0  0  0  0  0  0  0  0  0  0  0  0
   -2.0065    3.5605   80.7899 O   0  0  0  0  0  0  0  0  0  0  0  0
   -1.9755    1.1147   80.4974 N   0  0  0  0  0  0  0  0  0  0  0  0
   -1.4735    0.2670   80.7614 H   0  0  0  0  0  0  0  0  0  0  0  0
   -1.9547    1.2204   79.4831 H   0  0  0  0  0  0  0  0  0  0  0  0
  7  1  1  0  0  0
  1  4  2  0  0  0
  1  2  1  0  0  0
  4  6  1  0  0  0
  2  5  2  0  0  0
  6  3  2  0  0  0
  5  3  1  0  0  0
  3  9  1  0  0  0
 11  9  1  0  0  0
  8  9  2  0  0  0
  9 10  2  0  0  0
 11 12  1  0  0  0
 11 13  1  0  0  0
M  END
> <minimizedAffinity>
-5.47272

$$$$
4YXI_4J8_A_303


 13 13  0  0  0  0  0  0  0  0999 V2000
   -2.3577    1.9970   86.3247 C   0  0  0  0  0  0  0  0  0  0  0  0
   -2.8481    3.1873   85.8083 C   0  0  0  0  0  0  0  0  0  0  0  0
   -1.7688    2.7858   83.7145 C   0  0  0  0  0  0  0  0  0  0  0  0
   -1.5716    1.2051   85.4991 C   0  0  0  0  0  0  0  0  0  0  0  0
   -2.5621    3.5909   84.5131 C   0  0  0  0  0  0  0  0  0  0  0  0
   -1.2737    1.5848   84.1991 C   0  0  0  0  0  0  0  0  0  0  0  0
   -2.6582    1.5782   87.7411 C   0  0  0  0  0  0  0  0  0  0  0  0
   -1.4360    4.7377   82.0570 O   0  0  0  0  0  0  0  0  0  0  0  0
   -1.3453    3.3112   82.0725 S   0  0  0  0  0  0  0  0  0  0  0  0
   -2.2002    2.5850   81.1666 O   0  0  0  0  0  0  0  0  0  0  0  0
    0.1637    2.8890   81.7895 N   0  0  0  0  0  0  0  0  0  0  0  0
    0.7827    3.3946   82.4232 H   0  0  0  0  0  0  0  0  0  0  0  0
    0.4051    3.1164   80.8249 H   0  0  0  0  0  0  0  0  0  0  0  0
  7  1  1  0  0  0
  1  4  2  0  0  0
  1  2  1  0  0  0
  4  6  1  0  0  0
  2  5  2  0  0  0
  6  3  2  0  0  0
  5  3  1  0  0  0
  3  9  1  0  0  0
 11  9  1  0  0  0
  8  9  2  0  0  0
  9 10  2  0  0  0
 11 12  1  0  0  0
 11 13  1  0  0  0
M  END
> <minimizedAffinity>
-5.26577

$$$$
4YXI_4J8_A_303


 13 13  0  0  0  0  0  0  0  0999 V2000
   -0.7906    3.5603   81.9058 C   0  0  0  0  0  0  0  0  0  0  0  0
   -0.5945    4.2867   83.0711 C   0  0  0  0  0  0  0  0  0  0  0  0
   -1.0446    2.3601   84.4111 C   0  0  0  0  0  0  0  0  0  0  0  0
   -1.1086    2.2144   82.0243 C   0  0  0  0  0  0  0  0  0  0  0  0
   -0.7185    3.7021   84.3221 C   0  0  0  0  0  0  0  0  0  0  0  0
   -1.2353    1.6055   83.2637 C   0  0  0  0  0  0  0  0  0  0  0  0
   -0.6733    4.2113   80.5514 C   0  0  0  0  0  0  0  0  0  0  0  0
   -2.3845    2.2469   86.6156 O   0  0  0  0  0  0  0  0  0  0  0  0
   -1.2627    1.6064   86.0036 S   0  0  0  0  0  0  0  0  0  0  0  0
    0.0036    1.6971   86.6871 O   0  0  0  0  0  0  0  0  0  0  0  0
   -1.6071    0.0677   85.7821 N   0  0  0  0  0  0  0  0  0  0  0  0
   -2.5017   -0.0142   85.2988 H   0  0  0  0  0  0  0  0  0  0  0  0
   -1.6647   -0.4013   86.6860 H   0  0  0  0  0  0  0  0  0  0  0  0
  7  1  1  0  0  0
  1  4  2  0  0  0
  1  2  1  0  0  0
  4  6  1  0  0  0
  2  5  2  0  0  0
  6  3  2  0  0  0
  5  3  1  0  0  0
  3  9  1  0  0  0
 11  9  1  0  0  0
  8  9  2  0  0  0
  9 10  2  0  0  0
 11 12  1  0  0  0
 11 13  1  0  0  0
M  END
> <minimizedAffinity>
-5.23037

$$$$
4YXI_4J8_A_303


 13 13  0  0  0  0  0  0  0  0999 V2000
   -1.5883    0.6748   81.4898 C   0  0  0  0  0  0  0  0  0  0  0  0
   -1.1838   -0.1187   82.5531 C   0  0  0  0  0  0  0  0  0  0  0  0
   -1.2431    1.7507   84.0403 C   0  0  0  0  0  0  0  0  0  0  0  0
   -1.8250    2.0203   81.7358 C   0  0  0  0  0  0  0  0  0  0  0  0
   -1.0079    0.4040   83.8251 C   0  0  0  0  0  0  0  0  0  0  0  0
   -1.6594    2.5666   82.9994 C   0  0  0  0  0  0  0  0  0  0  0  0
   -1.7564    0.0999   80.1066 C   0  0  0  0  0  0  0  0  0  0  0  0
   -0.3246    1.4455   86.4343 O   0  0  0  0  0  0  0  0  0  0  0  0
   -0.9700    2.4504   85.6488 S   0  0  0  0  0  0  0  0  0  0  0  0
   -2.2444    2.9368   86.1161 O   0  0  0  0  0  0  0  0  0  0  0  0
    0.0158    3.6907   85.4902 N   0  0  0  0  0  0  0  0  0  0  0  0
    0.9236    3.3634   85.1598 H   0  0  0  0  0  0  0  0  0  0  0  0
    0.1288    4.1527   86.3925 H   0  0  0  0  0  0  0  0  0  0  0  0
  7  1  1  0  0  0
  1  4  2  0  0  0
  1  2  1  0  0  0
  4  6  1  0  0  0
  2  5  2  0  0  0
  6  3  2  0  0  0
  5  3  1  0  0  0
  3  9  1  0  0  0
 11  9  1  0  0  0
  8  9  2  0  0  0
  9 10  2  0  0  0
 11 12  1  0  0  0
 11 13  1  0  0  0
M  END
> <minimizedAffinity>
-5.18817

$$$$
4YXI_4J8_A_303


 13 13  0  0  0  0  0  0  0  0999 V2000
    0.1310    6.3858   84.2132 C   0  0  0  0  0  0  0  0  0  0  0  0
   -1.1965    6.1173   84.5128 C   0  0  0  0  0  0  0  0  0  0  0  0
   -0.6601    3.8696   85.1213 C   0  0  0  0  0  0  0  0  0  0  0  0
    1.0561    5.3658   84.3878 C   0  0  0  0  0  0  0  0  0  0  0  0
   -1.6025    4.8708   84.9642 C   0  0  0  0  0  0  0  0  0  0  0  0
    0.6760    4.1116   84.8409 C   0  0  0  0  0  0  0  0  0  0  0  0
    0.5578    7.7386   83.7036 C   0  0  0  0  0  0  0  0  0  0  0  0
   -2.4604    2.3936   86.2387 O   0  0  0  0  0  0  0  0  0  0  0  0
   -1.1680    2.2510   85.6447 S   0  0  0  0  0  0  0  0  0  0  0  0
   -0.1124    1.7293   86.4769 O   0  0  0  0  0  0  0  0  0  0  0  0
   -1.2948    1.3283   84.3533 N   0  0  0  0  0  0  0  0  0  0  0  0
   -2.0385    1.6842   83.7529 H   0  0  0  0  0  0  0  0  0  0  0  0
   -1.5149    0.3738   84.6377 H   0  0  0  0  0  0  0  0  0  0  0  0
  7  1  1  0  0  0
  1  4  2  0  0  0
  1  2  1  0  0  0
  4  6  1  0  0  0
  2  5  2  0  0  0
  6  3  2  0  0  0
  5  3  1  0  0  0
  3  9  1  0  0  0
 11  9  1  0  0  0
  8  9  2  0  0  0
  9 10  2  0  0  0
 11 12  1  0  0  0
 11 13  1  0  0  0
M  END
> <minimizedAffinity>
-5.02294

$$$$
4YXI_4J8_A_303


 13 13  0  0  0  0  0  0  0  0999 V2000
   -1.6132    2.3930   85.5173 C   0  0  0  0  0  0  0  0  0  0  0  0
   -1.3210    1.4292   84.5636 C   0  0  0  0  0  0  0  0  0  0  0  0
   -1.1651    3.0915   82.8540 C   0  0  0  0  0  0  0  0  0  0  0  0
   -1.6670    3.7181   85.1074 C   0  0  0  0  0  0  0  0  0  0  0  0
   -1.0971    1.7632   83.2368 C   0  0  0  0  0  0  0  0  0  0  0  0
   -1.4438    4.0784   83.7871 C   0  0  0  0  0  0  0  0  0  0  0  0
   -1.8752    2.0161   86.9530 C   0  0  0  0  0  0  0  0  0  0  0  0
   -1.4643    2.4599   80.3682 O   0  0  0  0  0  0  0  0  0  0  0  0
   -0.9365    3.5339   81.1500 S   0  0  0  0  0  0  0  0  0  0  0  0
    0.4607    3.8484   80.9825 O   0  0  0  0  0  0  0  0  0  0  0  0
   -1.7875    4.8478   80.8594 N   0  0  0  0  0  0  0  0  0  0  0  0
   -2.7800    4.6422   80.9737 H   0  0  0  0  0  0  0  0  0  0  0  0
   -1.6131    5.1616   79.9047 H   0  0  0  0  0  0  0  0  0  0  0  0
  7  1  1  0  0  0
  1  4  2  0  0  0
  1  2  1  0  0  0
  4  6  1  0  0  0
  2  5  2  0  0  0
  6  3  2  0  0  0
  5  3  1  0  0  0
  3  9  1  0  0  0
 11  9  1  0  0  0
  8  9  2  0  0  0
  9 10  2  0  0  0
 11 12  1  0  0  0
 11 13  1  0  0  0
M  END
> <minimizedAffinity>
-4.99404

$$$$
