4AV5_FYZ_A_201


 31 33  0  0  0  0  0  0  0  0999 V2000
    4.9518  -13.9721  -13.8077 O   0  0  0  0  0  0  0  0  0  0  0  0
    3.4808  -13.9406  -10.5128 O   0  0  0  0  0  0  0  0  0  0  0  0
    4.0887  -14.5224  -11.6868 C   0  0  0  0  0  0  0  0  0  0  0  0
    3.2346  -15.6742  -12.1980 C   0  0  0  0  0  0  0  0  0  0  0  0
    3.0376  -16.6771  -11.1771 O   0  0  0  0  0  0  0  0  0  0  0  0
    1.8888  -15.1483  -12.6926 C   0  0  0  0  0  0  0  0  0  0  0  0
    1.1241  -16.2054  -13.2475 O   0  0  0  0  0  0  0  0  0  0  0  0
    2.1047  -14.0018  -13.7042 C   0  0  0  0  0  0  0  0  0  0  0  0
    2.9250  -12.9817  -13.1536 O   0  0  0  0  0  0  0  0  0  0  0  0
    4.2195  -13.4138  -12.7117 C   0  0  0  0  0  0  0  0  0  0  0  0
    3.3794  -14.6219   -9.8299 H   0  0  0  0  0  0  0  0  0  0  0  0
    2.5688  -16.2843  -10.4242 H   0  0  0  0  0  0  0  0  0  0  0  0
    1.5997  -16.5871  -14.0018 H   0  0  0  0  0  0  0  0  0  0  0  0
    0.7848  -13.3722  -14.1179 C   0  0  0  0  0  0  0  0  0  0  0  0
   -0.1484  -13.3242  -13.0421 O   0  0  0  0  0  0  0  0  0  0  0  0
   -0.3443  -14.2261  -12.7435 H   0  0  0  0  0  0  0  0  0  0  0  0
    5.6182  -12.9100  -14.5305 C   0  0  0  0  0  0  0  0  0  0  0  0
    5.1612  -12.7952  -15.9292 C   0  0  0  0  0  0  0  0  0  0  0  0
    4.7888  -12.7070  -17.0463 C   0  0  0  0  0  0  0  0  0  0  0  0
    4.3304  -12.5744  -18.2548 C   0  0  0  0  0  0  0  0  0  0  0  0
    3.3203  -13.4496  -18.6735 C   0  0  0  0  0  0  0  0  0  0  0  0
    2.7784  -13.3332  -19.9584 C   0  0  0  0  0  0  0  0  0  0  0  0
    3.2290  -12.3368  -20.8166 C   0  0  0  0  0  0  0  0  0  0  0  0
    4.2633  -11.4834  -20.4076 C   0  0  0  0  0  0  0  0  0  0  0  0
    4.8107  -11.5852  -19.1187 C   0  0  0  0  0  0  0  0  0  0  0  0
    2.6492  -12.2763  -22.1968 C   0  0  0  0  0  0  0  0  0  0  0  0
    2.9262  -13.3186  -23.0795 C   0  0  0  0  0  0  0  0  0  0  0  0
    2.4092  -13.2827  -24.3829 C   0  0  0  0  0  0  0  0  0  0  0  0
    1.6404  -12.1872  -24.7709 C   0  0  0  0  0  0  0  0  0  0  0  0
    1.3743  -11.1368  -23.9018 C   0  0  0  0  0  0  0  0  0  0  0  0
    1.8951  -11.1803  -22.6011 C   0  0  0  0  0  0  0  0  0  0  0  0
  2  3  1  0  0  0
  3  4  1  0  0  0
  3 10  1  0  0  0
  4  5  1  0  0  0
  4  6  1  0  0  0
  6  7  1  0  0  0
  6  8  1  0  0  0
  8  9  1  0  0  0
  8 14  1  0  0  0
  9 10  1  0  0  0
 14 15  1  0  0  0
 10  1  1  0  0  0
  1 17  1  0  0  0
 17 18  1  0  0  0
 18 19  3  0  0  0
 19 20  1  0  0  0
 20 21  1  0  0  0
 20 25  2  0  0  0
 21 22  2  0  0  0
 22 23  1  0  0  0
 23 24  2  0  0  0
 23 26  1  0  0  0
 24 25  1  0  0  0
 26 27  1  0  0  0
 26 31  2  0  0  0
 27 28  2  0  0  0
 28 29  1  0  0  0
 29 30  2  0  0  0
 30 31  1  0  0  0
  2 11  1  0  0  0
  5 12  1  0  0  0
  7 13  1  0  0  0
 15 16  1  0  0  0
M  END
> <minimizedAffinity>
-9.35833

$$$$
4AV5_FYZ_A_201


 31 33  0  0  0  0  0  0  0  0999 V2000
    4.7930  -13.7089  -13.5931 O   0  0  0  0  0  0  0  0  0  0  0  0
    3.1865  -13.9649  -10.3721 O   0  0  0  0  0  0  0  0  0  0  0  0
    3.9087  -14.4304  -11.5331 C   0  0  0  0  0  0  0  0  0  0  0  0
    3.2184  -15.6543  -12.1188 C   0  0  0  0  0  0  0  0  0  0  0  0
    3.0959  -16.7089  -11.1393 O   0  0  0  0  0  0  0  0  0  0  0  0
    1.8431  -15.2701  -12.6605 C   0  0  0  0  0  0  0  0  0  0  0  0
    1.2322  -16.3880  -13.2827 O   0  0  0  0  0  0  0  0  0  0  0  0
    1.9671  -14.0711  -13.6255 C   0  0  0  0  0  0  0  0  0  0  0  0
    2.6377  -12.9833  -13.0060 O   0  0  0  0  0  0  0  0  0  0  0  0
    3.9534  -13.2784  -12.5166 C   0  0  0  0  0  0  0  0  0  0  0  0
    3.1359  -14.6772   -9.7157 H   0  0  0  0  0  0  0  0  0  0  0  0
    2.5521  -16.3999  -10.3978 H   0  0  0  0  0  0  0  0  0  0  0  0
    1.7816  -16.6851  -14.0249 H   0  0  0  0  0  0  0  0  0  0  0  0
    0.6019  -13.5838  -14.0820 C   0  0  0  0  0  0  0  0  0  0  0  0
   -0.2122  -13.1652  -12.9899 O   0  0  0  0  0  0  0  0  0  0  0  0
   -0.3623  -13.9147  -12.3927 H   0  0  0  0  0  0  0  0  0  0  0  0
    5.0438  -12.5945  -14.4817 C   0  0  0  0  0  0  0  0  0  0  0  0
    4.8102  -12.9294  -15.9000 C   0  0  0  0  0  0  0  0  0  0  0  0
    4.6263  -13.2047  -17.0335 C   0  0  0  0  0  0  0  0  0  0  0  0
    4.3842  -13.5536  -18.2615 C   0  0  0  0  0  0  0  0  0  0  0  0
    4.9597  -14.7406  -18.7323 C   0  0  0  0  0  0  0  0  0  0  0  0
    4.7114  -15.1705  -20.0406 C   0  0  0  0  0  0  0  0  0  0  0  0
    3.8783  -14.4295  -20.8708 C   0  0  0  0  0  0  0  0  0  0  0  0
    3.3305  -13.2247  -20.4087 C   0  0  0  0  0  0  0  0  0  0  0  0
    3.5661  -12.7858  -19.0961 C   0  0  0  0  0  0  0  0  0  0  0  0
    3.6745  -14.9065  -22.2765 C   0  0  0  0  0  0  0  0  0  0  0  0
    3.1927  -14.0022  -23.2211 C   0  0  0  0  0  0  0  0  0  0  0  0
    2.9782  -14.4234  -24.5418 C   0  0  0  0  0  0  0  0  0  0  0  0
    3.2372  -15.7517  -24.8738 C   0  0  0  0  0  0  0  0  0  0  0  0
    3.7015  -16.6627  -23.9335 C   0  0  0  0  0  0  0  0  0  0  0  0
    3.9129  -16.2337  -22.6160 C   0  0  0  0  0  0  0  0  0  0  0  0
  2  3  1  0  0  0
  3  4  1  0  0  0
  3 10  1  0  0  0
  4  5  1  0  0  0
  4  6  1  0  0  0
  6  7  1  0  0  0
  6  8  1  0  0  0
  8  9  1  0  0  0
  8 14  1  0  0  0
  9 10  1  0  0  0
 14 15  1  0  0  0
 10  1  1  0  0  0
  1 17  1  0  0  0
 17 18  1  0  0  0
 18 19  3  0  0  0
 19 20  1  0  0  0
 20 21  1  0  0  0
 20 25  2  0  0  0
 21 22  2  0  0  0
 22 23  1  0  0  0
 23 24  2  0  0  0
 23 26  1  0  0  0
 24 25  1  0  0  0
 26 27  1  0  0  0
 26 31  2  0  0  0
 27 28  2  0  0  0
 28 29  1  0  0  0
 29 30  2  0  0  0
 30 31  1  0  0  0
  2 11  1  0  0  0
  5 12  1  0  0  0
  7 13  1  0  0  0
 15 16  1  0  0  0
M  END
> <minimizedAffinity>
-9.28522

$$$$
4AV5_FYZ_A_201


 31 33  0  0  0  0  0  0  0  0999 V2000
    4.0840  -13.2794  -14.2164 O   0  0  0  0  0  0  0  0  0  0  0  0
    4.0149  -16.8868  -14.1587 O   0  0  0  0  0  0  0  0  0  0  0  0
    3.4852  -15.5541  -14.3312 C   0  0  0  0  0  0  0  0  0  0  0  0
    2.2167  -15.3880  -13.5061 C   0  0  0  0  0  0  0  0  0  0  0  0
    1.2261  -16.3786  -13.8583 O   0  0  0  0  0  0  0  0  0  0  0  0
    2.5462  -15.4721  -12.0172 C   0  0  0  0  0  0  0  0  0  0  0  0
    1.3821  -15.2332  -11.2440 O   0  0  0  0  0  0  0  0  0  0  0  0
    3.6818  -14.4863  -11.6670 C   0  0  0  0  0  0  0  0  0  0  0  0
    4.8165  -14.6986  -12.4942 O   0  0  0  0  0  0  0  0  0  0  0  0
    4.5717  -14.5883  -13.9032 C   0  0  0  0  0  0  0  0  0  0  0  0
    3.3458  -17.5374  -14.4234 H   0  0  0  0  0  0  0  0  0  0  0  0
    1.5748  -17.2646  -13.6732 H   0  0  0  0  0  0  0  0  0  0  0  0
    1.0451  -14.3435  -11.4333 H   0  0  0  0  0  0  0  0  0  0  0  0
    4.1198  -14.6374  -10.2195 C   0  0  0  0  0  0  0  0  0  0  0  0
    3.1317  -14.1667   -9.3071 O   0  0  0  0  0  0  0  0  0  0  0  0
    2.9744  -13.2218   -9.4598 H   0  0  0  0  0  0  0  0  0  0  0  0
    5.0008  -12.6311  -15.1294 C   0  0  0  0  0  0  0  0  0  0  0  0
    4.7534  -12.9895  -16.5396 C   0  0  0  0  0  0  0  0  0  0  0  0
    4.5578  -13.2837  -17.6663 C   0  0  0  0  0  0  0  0  0  0  0  0
    4.2987  -13.6491  -18.8860 C   0  0  0  0  0  0  0  0  0  0  0  0
    3.4717  -12.8227  -19.6572 C   0  0  0  0  0  0  0  0  0  0  0  0
    3.1806  -13.1615  -20.9834 C   0  0  0  0  0  0  0  0  0  0  0  0
    3.7263  -14.3103  -21.5444 C   0  0  0  0  0  0  0  0  0  0  0  0
    4.5265  -15.1534  -20.7607 C   0  0  0  0  0  0  0  0  0  0  0  0
    4.8317  -14.8214  -19.4311 C   0  0  0  0  0  0  0  0  0  0  0  0
    3.3538  -14.6547  -22.9542 C   0  0  0  0  0  0  0  0  0  0  0  0
    2.7133  -13.6878  -23.7269 C   0  0  0  0  0  0  0  0  0  0  0  0
    2.3396  -13.9859  -25.0455 C   0  0  0  0  0  0  0  0  0  0  0  0
    2.6042  -15.2586  -25.5475 C   0  0  0  0  0  0  0  0  0  0  0  0
    3.2271  -16.2327  -24.7776 C   0  0  0  0  0  0  0  0  0  0  0  0
    3.5970  -15.9266  -23.4607 C   0  0  0  0  0  0  0  0  0  0  0  0
  2  3  1  0  0  0
  3  4  1  0  0  0
  3 10  1  0  0  0
  4  5  1  0  0  0
  4  6  1  0  0  0
  6  7  1  0  0  0
  6  8  1  0  0  0
  8  9  1  0  0  0
  8 14  1  0  0  0
  9 10  1  0  0  0
 14 15  1  0  0  0
 10  1  1  0  0  0
  1 17  1  0  0  0
 17 18  1  0  0  0
 18 19  3  0  0  0
 19 20  1  0  0  0
 20 21  1  0  0  0
 20 25  2  0  0  0
 21 22  2  0  0  0
 22 23  1  0  0  0
 23 24  2  0  0  0
 23 26  1  0  0  0
 24 25  1  0  0  0
 26 27  1  0  0  0
 26 31  2  0  0  0
 27 28  2  0  0  0
 28 29  1  0  0  0
 29 30  2  0  0  0
 30 31  1  0  0  0
  2 11  1  0  0  0
  5 12  1  0  0  0
  7 13  1  0  0  0
 15 16  1  0  0  0
M  END
> <minimizedAffinity>
-8.00825

$$$$
4AV5_FYZ_A_201


 31 33  0  0  0  0  0  0  0  0999 V2000
    4.3805  -13.4803  -14.1897 O   0  0  0  0  0  0  0  0  0  0  0  0
    3.9532  -17.0629  -14.1311 O   0  0  0  0  0  0  0  0  0  0  0  0
    3.5658  -15.6855  -14.3284 C   0  0  0  0  0  0  0  0  0  0  0  0
    2.2847  -15.3906  -13.5607 C   0  0  0  0  0  0  0  0  0  0  0  0
    1.2176  -16.2807  -13.9554 O   0  0  0  0  0  0  0  0  0  0  0  0
    2.5383  -15.4985  -12.0586 C   0  0  0  0  0  0  0  0  0  0  0  0
    1.3705  -15.1419  -11.3381 O   0  0  0  0  0  0  0  0  0  0  0  0
    3.7491  -14.6275  -11.6593 C   0  0  0  0  0  0  0  0  0  0  0  0
    4.8927  -14.9552  -12.4350 O   0  0  0  0  0  0  0  0  0  0  0  0
    4.7224  -14.8291  -13.8537 C   0  0  0  0  0  0  0  0  0  0  0  0
    3.2356  -17.6458  -14.4245 H   0  0  0  0  0  0  0  0  0  0  0  0
    1.4687  -17.1958  -13.7540 H   0  0  0  0  0  0  0  0  0  0  0  0
    1.1317  -14.2243  -11.5432 H   0  0  0  0  0  0  0  0  0  0  0  0
    4.1057  -14.8131  -10.1937 C   0  0  0  0  0  0  0  0  0  0  0  0
    3.1547  -14.2002   -9.3273 O   0  0  0  0  0  0  0  0  0  0  0  0
    3.1318  -13.2453   -9.4962 H   0  0  0  0  0  0  0  0  0  0  0  0
    5.4324  -12.9062  -15.0012 C   0  0  0  0  0  0  0  0  0  0  0  0
    5.0293  -12.7130  -16.4078 C   0  0  0  0  0  0  0  0  0  0  0  0
    4.6996  -12.5614  -17.5314 C   0  0  0  0  0  0  0  0  0  0  0  0
    4.2919  -12.3541  -18.7476 C   0  0  0  0  0  0  0  0  0  0  0  0
    4.9504  -11.3755  -19.5029 C   0  0  0  0  0  0  0  0  0  0  0  0
    4.5629  -11.1301  -20.8249 C   0  0  0  0  0  0  0  0  0  0  0  0
    3.5348  -11.8696  -21.3979 C   0  0  0  0  0  0  0  0  0  0  0  0
    2.8549  -12.8251  -20.6297 C   0  0  0  0  0  0  0  0  0  0  0  0
    3.2384  -13.0858  -19.3045 C   0  0  0  0  0  0  0  0  0  0  0  0
    3.1266  -11.5439  -22.8022 C   0  0  0  0  0  0  0  0  0  0  0  0
    1.7688  -11.4049  -23.0837 C   0  0  0  0  0  0  0  0  0  0  0  0
    1.3554  -11.1142  -24.3922 C   0  0  0  0  0  0  0  0  0  0  0  0
    2.3205  -10.9890  -25.3895 C   0  0  0  0  0  0  0  0  0  0  0  0
    3.6744  -11.1429  -25.1196 C   0  0  0  0  0  0  0  0  0  0  0  0
    4.0790  -11.4336  -23.8094 C   0  0  0  0  0  0  0  0  0  0  0  0
  2  3  1  0  0  0
  3  4  1  0  0  0
  3 10  1  0  0  0
  4  5  1  0  0  0
  4  6  1  0  0  0
  6  7  1  0  0  0
  6  8  1  0  0  0
  8  9  1  0  0  0
  8 14  1  0  0  0
  9 10  1  0  0  0
 14 15  1  0  0  0
 10  1  1  0  0  0
  1 17  1  0  0  0
 17 18  1  0  0  0
 18 19  3  0  0  0
 19 20  1  0  0  0
 20 21  1  0  0  0
 20 25  2  0  0  0
 21 22  2  0  0  0
 22 23  1  0  0  0
 23 24  2  0  0  0
 23 26  1  0  0  0
 24 25  1  0  0  0
 26 27  1  0  0  0
 26 31  2  0  0  0
 27 28  2  0  0  0
 28 29  1  0  0  0
 29 30  2  0  0  0
 30 31  1  0  0  0
  2 11  1  0  0  0
  5 12  1  0  0  0
  7 13  1  0  0  0
 15 16  1  0  0  0
M  END
> <minimizedAffinity>
-7.52260

$$$$
4AV5_FYZ_A_201


 31 33  0  0  0  0  0  0  0  0999 V2000
    5.2484  -12.7518  -13.9291 O   0  0  0  0  0  0  0  0  0  0  0  0
    6.6078  -16.0919  -13.7987 O   0  0  0  0  0  0  0  0  0  0  0  0
    5.8253  -14.9998  -14.3290 C   0  0  0  0  0  0  0  0  0  0  0  0
    4.3914  -15.4536  -14.5642 C   0  0  0  0  0  0  0  0  0  0  0  0
    4.3385  -16.5940  -15.4493 O   0  0  0  0  0  0  0  0  0  0  0  0
    3.7219  -15.7837  -13.2318 C   0  0  0  0  0  0  0  0  0  0  0  0
    2.3615  -16.1249  -13.4388 O   0  0  0  0  0  0  0  0  0  0  0  0
    3.8756  -14.6008  -12.2514 C   0  0  0  0  0  0  0  0  0  0  0  0
    5.2392  -14.2316  -12.1052 O   0  0  0  0  0  0  0  0  0  0  0  0
    5.9057  -13.8696  -13.3227 C   0  0  0  0  0  0  0  0  0  0  0  0
    6.5814  -16.8388  -14.4172 H   0  0  0  0  0  0  0  0  0  0  0  0
    4.8127  -17.3382  -15.0465 H   0  0  0  0  0  0  0  0  0  0  0  0
    1.8964  -15.3726  -13.8371 H   0  0  0  0  0  0  0  0  0  0  0  0
    3.3318  -14.9475  -10.8753 C   0  0  0  0  0  0  0  0  0  0  0  0
    3.3009  -16.3539  -10.6483 O   0  0  0  0  0  0  0  0  0  0  0  0
    2.7172  -16.7738  -11.2993 H   0  0  0  0  0  0  0  0  0  0  0  0
    6.1272  -12.1527  -14.9106 C   0  0  0  0  0  0  0  0  0  0  0  0
    5.5685  -12.1879  -16.2763 C   0  0  0  0  0  0  0  0  0  0  0  0
    5.1142  -12.2155  -17.3658 C   0  0  0  0  0  0  0  0  0  0  0  0
    4.5905  -12.1875  -18.5547 C   0  0  0  0  0  0  0  0  0  0  0  0
    3.5828  -13.1144  -18.8501 C   0  0  0  0  0  0  0  0  0  0  0  0
    2.9723  -13.1105  -20.1092 C   0  0  0  0  0  0  0  0  0  0  0  0
    3.3522  -12.1747  -21.0643 C   0  0  0  0  0  0  0  0  0  0  0  0
    4.3841  -11.2698  -20.7782 C   0  0  0  0  0  0  0  0  0  0  0  0
    4.9999  -11.2587  -19.5165 C   0  0  0  0  0  0  0  0  0  0  0  0
    2.7004  -12.2347  -22.4120 C   0  0  0  0  0  0  0  0  0  0  0  0
    1.9126  -11.1588  -22.8171 C   0  0  0  0  0  0  0  0  0  0  0  0
    1.2780  -11.1927  -24.0675 C   0  0  0  0  0  0  0  0  0  0  0  0
    1.4381  -12.3192  -24.8719 C   0  0  0  0  0  0  0  0  0  0  0  0
    2.2080  -13.4023  -24.4676 C   0  0  0  0  0  0  0  0  0  0  0  0
    2.8385  -13.3605  -23.2164 C   0  0  0  0  0  0  0  0  0  0  0  0
  2  3  1  0  0  0
  3  4  1  0  0  0
  3 10  1  0  0  0
  4  5  1  0  0  0
  4  6  1  0  0  0
  6  7  1  0  0  0
  6  8  1  0  0  0
  8  9  1  0  0  0
  8 14  1  0  0  0
  9 10  1  0  0  0
 14 15  1  0  0  0
 10  1  1  0  0  0
  1 17  1  0  0  0
 17 18  1  0  0  0
 18 19  3  0  0  0
 19 20  1  0  0  0
 20 21  1  0  0  0
 20 25  2  0  0  0
 21 22  2  0  0  0
 22 23  1  0  0  0
 23 24  2  0  0  0
 23 26  1  0  0  0
 24 25  1  0  0  0
 26 27  1  0  0  0
 26 31  2  0  0  0
 27 28  2  0  0  0
 28 29  1  0  0  0
 29 30  2  0  0  0
 30 31  1  0  0  0
  2 11  1  0  0  0
  5 12  1  0  0  0
  7 13  1  0  0  0
 15 16  1  0  0  0
M  END
> <minimizedAffinity>
-7.07018

$$$$
4AV5_FYZ_A_201


 31 33  0  0  0  0  0  0  0  0999 V2000
    4.4224  -13.0134  -14.6031 O   0  0  0  0  0  0  0  0  0  0  0  0
    6.2447  -16.0350  -13.8484 O   0  0  0  0  0  0  0  0  0  0  0  0
    5.2216  -15.2244  -14.4667 C   0  0  0  0  0  0  0  0  0  0  0  0
    3.8503  -15.8341  -14.2116 C   0  0  0  0  0  0  0  0  0  0  0  0
    3.7812  -17.1945  -14.6926 O   0  0  0  0  0  0  0  0  0  0  0  0
    3.5228  -15.7805  -12.7209 C   0  0  0  0  0  0  0  0  0  0  0  0
    2.2123  -16.2693  -12.4896 O   0  0  0  0  0  0  0  0  0  0  0  0
    3.7030  -14.3425  -12.1879 C   0  0  0  0  0  0  0  0  0  0  0  0
    5.0001  -13.8460  -12.4843 O   0  0  0  0  0  0  0  0  0  0  0  0
    5.3436  -13.8338  -13.8769 C   0  0  0  0  0  0  0  0  0  0  0  0
    6.1995  -16.9374  -14.2013 H   0  0  0  0  0  0  0  0  0  0  0  0
    4.4297  -17.7383  -14.2186 H   0  0  0  0  0  0  0  0  0  0  0  0
    1.5723  -15.7156  -12.9637 H   0  0  0  0  0  0  0  0  0  0  0  0
    3.5086  -14.2815  -10.6818 C   0  0  0  0  0  0  0  0  0  0  0  0
    3.2884  -15.5705  -10.1157 O   0  0  0  0  0  0  0  0  0  0  0  0
    2.4813  -15.9553  -10.4917 H   0  0  0  0  0  0  0  0  0  0  0  0
    5.1251  -12.3278  -15.6665 C   0  0  0  0  0  0  0  0  0  0  0  0
    4.7951  -12.8565  -17.0044 C   0  0  0  0  0  0  0  0  0  0  0  0
    4.5257  -13.2737  -18.0757 C   0  0  0  0  0  0  0  0  0  0  0  0
    4.2485  -13.6773  -19.2793 C   0  0  0  0  0  0  0  0  0  0  0  0
    3.3945  -12.8850  -20.0569 C   0  0  0  0  0  0  0  0  0  0  0  0
    3.0830  -13.2655  -21.3670 C   0  0  0  0  0  0  0  0  0  0  0  0
    3.6346  -14.4219  -21.9062 C   0  0  0  0  0  0  0  0  0  0  0  0
    4.4623  -15.2309  -21.1149 C   0  0  0  0  0  0  0  0  0  0  0  0
    4.7882  -14.8569  -19.8016 C   0  0  0  0  0  0  0  0  0  0  0  0
    3.2402  -14.8116  -23.2981 C   0  0  0  0  0  0  0  0  0  0  0  0
    3.4907  -16.1164  -23.7185 C   0  0  0  0  0  0  0  0  0  0  0  0
    3.1456  -16.5065  -25.0209 C   0  0  0  0  0  0  0  0  0  0  0  0
    2.5728  -15.5657  -25.8744 C   0  0  0  0  0  0  0  0  0  0  0  0
    2.3356  -14.2589  -25.4677 C   0  0  0  0  0  0  0  0  0  0  0  0
    2.6838  -13.8773  -24.1647 C   0  0  0  0  0  0  0  0  0  0  0  0
  2  3  1  0  0  0
  3  4  1  0  0  0
  3 10  1  0  0  0
  4  5  1  0  0  0
  4  6  1  0  0  0
  6  7  1  0  0  0
  6  8  1  0  0  0
  8  9  1  0  0  0
  8 14  1  0  0  0
  9 10  1  0  0  0
 14 15  1  0  0  0
 10  1  1  0  0  0
  1 17  1  0  0  0
 17 18  1  0  0  0
 18 19  3  0  0  0
 19 20  1  0  0  0
 20 21  1  0  0  0
 20 25  2  0  0  0
 21 22  2  0  0  0
 22 23  1  0  0  0
 23 24  2  0  0  0
 23 26  1  0  0  0
 24 25  1  0  0  0
 26 27  1  0  0  0
 26 31  2  0  0  0
 27 28  2  0  0  0
 28 29  1  0  0  0
 29 30  2  0  0  0
 30 31  1  0  0  0
  2 11  1  0  0  0
  5 12  1  0  0  0
  7 13  1  0  0  0
 15 16  1  0  0  0
M  END
> <minimizedAffinity>
-6.91319

$$$$
4AV5_FYZ_A_201


 31 33  0  0  0  0  0  0  0  0999 V2000
    3.7917  -13.1277  -14.5215 O   0  0  0  0  0  0  0  0  0  0  0  0
    2.5202  -16.4391  -13.8587 O   0  0  0  0  0  0  0  0  0  0  0  0
    2.5224  -14.9947  -13.8512 C   0  0  0  0  0  0  0  0  0  0  0  0
    2.2882  -14.4817  -12.4373 C   0  0  0  0  0  0  0  0  0  0  0  0
    1.0523  -14.9913  -11.8901 O   0  0  0  0  0  0  0  0  0  0  0  0
    3.4638  -14.8642  -11.5405 C   0  0  0  0  0  0  0  0  0  0  0  0
    3.2899  -14.3156  -10.2448 O   0  0  0  0  0  0  0  0  0  0  0  0
    4.7928  -14.4116  -12.1833 C   0  0  0  0  0  0  0  0  0  0  0  0
    4.9208  -14.9182  -13.5038 O   0  0  0  0  0  0  0  0  0  0  0  0
    3.8633  -14.5524  -14.4013 C   0  0  0  0  0  0  0  0  0  0  0  0
    1.6742  -16.7630  -13.5119 H   0  0  0  0  0  0  0  0  0  0  0  0
    1.0953  -15.9591  -11.8408 H   0  0  0  0  0  0  0  0  0  0  0  0
    3.2533  -13.3482  -10.3055 H   0  0  0  0  0  0  0  0  0  0  0  0
    5.9892  -14.8904  -11.3776 C   0  0  0  0  0  0  0  0  0  0  0  0
    7.0624  -15.3182  -12.2116 O   0  0  0  0  0  0  0  0  0  0  0  0
    6.7698  -16.0646  -12.7577 H   0  0  0  0  0  0  0  0  0  0  0  0
    4.7965  -12.6737  -15.4588 C   0  0  0  0  0  0  0  0  0  0  0  0
    4.4862  -13.0426  -16.8538 C   0  0  0  0  0  0  0  0  0  0  0  0
    4.2434  -13.3324  -17.9725 C   0  0  0  0  0  0  0  0  0  0  0  0
    4.0365  -13.6710  -19.2098 C   0  0  0  0  0  0  0  0  0  0  0  0
    4.5468  -14.8993  -19.6484 C   0  0  0  0  0  0  0  0  0  0  0  0
    4.3318  -15.3188  -20.9660 C   0  0  0  0  0  0  0  0  0  0  0  0
    3.5956  -14.5252  -21.8380 C   0  0  0  0  0  0  0  0  0  0  0  0
    3.1144  -13.2810  -21.4068 C   0  0  0  0  0  0  0  0  0  0  0  0
    3.3173  -12.8517  -20.0856 C   0  0  0  0  0  0  0  0  0  0  0  0
    3.4261  -14.9954  -23.2505 C   0  0  0  0  0  0  0  0  0  0  0  0
    3.7481  -16.3170  -23.5535 C   0  0  0  0  0  0  0  0  0  0  0  0
    3.6134  -16.7820  -24.8700 C   0  0  0  0  0  0  0  0  0  0  0  0
    3.1746  -15.8975  -25.8533 C   0  0  0  0  0  0  0  0  0  0  0  0
    2.8680  -14.5744  -25.5618 C   0  0  0  0  0  0  0  0  0  0  0  0
    3.0057  -14.1178  -24.2438 C   0  0  0  0  0  0  0  0  0  0  0  0
  2  3  1  0  0  0
  3  4  1  0  0  0
  3 10  1  0  0  0
  4  5  1  0  0  0
  4  6  1  0  0  0
  6  7  1  0  0  0
  6  8  1  0  0  0
  8  9  1  0  0  0
  8 14  1  0  0  0
  9 10  1  0  0  0
 14 15  1  0  0  0
 10  1  1  0  0  0
  1 17  1  0  0  0
 17 18  1  0  0  0
 18 19  3  0  0  0
 19 20  1  0  0  0
 20 21  1  0  0  0
 20 25  2  0  0  0
 21 22  2  0  0  0
 22 23  1  0  0  0
 23 24  2  0  0  0
 23 26  1  0  0  0
 24 25  1  0  0  0
 26 27  1  0  0  0
 26 31  2  0  0  0
 27 28  2  0  0  0
 28 29  1  0  0  0
 29 30  2  0  0  0
 30 31  1  0  0  0
  2 11  1  0  0  0
  5 12  1  0  0  0
  7 13  1  0  0  0
 15 16  1  0  0  0
M  END
> <minimizedAffinity>
-6.64145

$$$$
