6FGG_D9B_A_1901


 27 29  0  0  0  0  0  0  0  0999 V2000
  -17.2100   -4.9603  -14.6573 C   0  0  0  0  0  0  0  0  0  0  0  0
  -19.4068   -4.9620  -15.3194 C   0  0  0  0  0  0  0  0  0  0  0  0
  -19.1730   -6.1551  -14.6431 C   0  0  0  0  0  0  0  0  0  0  0  0
  -20.2170   -7.0745  -14.4991 C   0  0  0  0  0  0  0  0  0  0  0  0
  -21.4454   -6.7686  -15.0732 C   0  0  0  0  0  0  0  0  0  0  0  0
  -21.6832   -5.5445  -15.7100 C   0  0  0  0  0  0  0  0  0  0  0  0
  -20.6555   -4.6362  -15.8574 C   0  0  0  0  0  0  0  0  0  0  0  0
  -17.7993   -6.1777  -14.2177 N   0  0  0  0  0  0  0  0  0  0  0  0
  -16.0859   -4.6171  -14.4926 O   0  0  0  0  0  0  0  0  0  0  0  0
  -18.1901   -4.2111  -15.3339 O   0  0  0  0  0  0  0  0  0  0  0  0
  -22.8314   -8.7500  -15.6831 C   0  0  0  0  0  0  0  0  0  0  0  0
  -22.5763   -7.6036  -14.8759 N   0  0  0  0  0  0  0  0  0  0  0  0
  -22.1437   -9.1309  -16.5707 O   0  0  0  0  0  0  0  0  0  0  0  0
  -23.2083   -7.3824  -14.1541 H   0  0  0  0  0  0  0  0  0  0  0  0
  -23.9107   -9.6411  -15.2082 C   0  0  0  0  0  0  0  0  0  0  0  0
  -23.7054  -11.1300  -15.2975 C   0  0  0  0  0  0  0  0  0  0  0  0
  -24.6710  -13.4172  -15.0164 C   0  0  0  0  0  0  0  0  0  0  0  0
  -26.1003  -11.4313  -14.5695 C   0  0  0  0  0  0  0  0  0  0  0  0
  -26.3116   -9.9345  -14.5244 C   0  0  0  0  0  0  0  0  0  0  0  0
  -25.1973   -9.0441  -14.8645 C   0  0  0  0  0  0  0  0  0  0  0  0
  -24.8063  -11.9896  -14.9461 N   0  0  0  0  0  0  0  0  0  0  0  0
  -26.9892  -12.1725  -14.3521 O   0  0  0  0  0  0  0  0  0  0  0  0
  -17.1484   -7.2338  -13.4712 C   0  0  0  0  0  0  0  0  0  0  0  0
  -16.6110   -8.2970  -14.4264 C   0  0  0  0  0  0  0  0  0  0  0  0
  -16.9185  -10.4844  -15.3643 C   0  0  0  0  0  0  0  0  0  0  0  0
  -16.9677  -10.1998  -13.0207 C   0  0  0  0  0  0  0  0  0  0  0  0
  -17.3035   -9.5760  -14.2919 N   0  0  0  0  0  0  0  0  0  0  0  0
 20 19  2  0  0  0
 20 15  1  0  0  0
 13 11  2  0  0  0
 19 18  1  0  0  0
 11 15  1  0  0  0
 11 12  1  0  0  0
 15 16  2  0  0  0
 12  5  1  0  0  0
  5  4  2  0  0  0
  5  6  1  0  0  0
  4  3  1  0  0  0
 23  8  1  0  0  0
 23 24  1  0  0  0
 18 22  2  0  0  0
 18 21  1  0  0  0
  3  8  1  0  0  0
  3  2  2  0  0  0
  6  7  2  0  0  0
  8  1  1  0  0  0
  2  7  1  0  0  0
  2 10  1  0  0  0
 16 21  1  0  0  0
  1  9  2  0  0  0
  1 10  1  0  0  0
 21 17  1  0  0  0
 25 27  1  0  0  0
 27 24  1  0  0  0
 27 26  1  0  0  0
 12 14  1  0  0  0
M  END
> <minimizedAffinity>
-7.53105

$$$$
6FGG_D9B_A_1901


 27 29  0  0  0  0  0  0  0  0999 V2000
  -17.1892   -5.3939  -14.5171 C   0  0  0  0  0  0  0  0  0  0  0  0
  -19.3148   -4.8840  -15.2145 C   0  0  0  0  0  0  0  0  0  0  0  0
  -19.3475   -6.1667  -14.6769 C   0  0  0  0  0  0  0  0  0  0  0  0
  -20.5567   -6.8693  -14.6592 C   0  0  0  0  0  0  0  0  0  0  0  0
  -21.6768   -6.2630  -15.2160 C   0  0  0  0  0  0  0  0  0  0  0  0
  -21.6434   -4.9536  -15.7109 C   0  0  0  0  0  0  0  0  0  0  0  0
  -20.4523   -4.2582  -15.7335 C   0  0  0  0  0  0  0  0  0  0  0  0
  -18.0235   -6.5099  -14.2322 N   0  0  0  0  0  0  0  0  0  0  0  0
  -16.0272   -5.3023  -14.2936 O   0  0  0  0  0  0  0  0  0  0  0  0
  -17.9748   -4.3942  -15.1200 O   0  0  0  0  0  0  0  0  0  0  0  0
  -23.4537   -7.7424  -16.1501 C   0  0  0  0  0  0  0  0  0  0  0  0
  -22.9567   -6.8718  -15.1372 N   0  0  0  0  0  0  0  0  0  0  0  0
  -22.8685   -8.0571  -17.1321 O   0  0  0  0  0  0  0  0  0  0  0  0
  -23.5223   -6.6856  -14.3532 H   0  0  0  0  0  0  0  0  0  0  0  0
  -24.6929   -8.4747  -15.8144 C   0  0  0  0  0  0  0  0  0  0  0  0
  -26.0043   -7.9425  -16.3279 C   0  0  0  0  0  0  0  0  0  0  0  0
  -28.4960   -8.1253  -16.3504 C   0  0  0  0  0  0  0  0  0  0  0  0
  -27.1749   -9.6965  -14.9462 C   0  0  0  0  0  0  0  0  0  0  0  0
  -25.8561  -10.1972  -14.4009 C   0  0  0  0  0  0  0  0  0  0  0  0
  -24.6115   -9.5581  -14.8398 C   0  0  0  0  0  0  0  0  0  0  0  0
  -27.2159   -8.5915  -15.8974 N   0  0  0  0  0  0  0  0  0  0  0  0
  -28.1940  -10.1545  -14.5740 O   0  0  0  0  0  0  0  0  0  0  0  0
  -17.6235   -7.7503  -13.6015 C   0  0  0  0  0  0  0  0  0  0  0  0
  -16.3848   -8.3149  -14.2931 C   0  0  0  0  0  0  0  0  0  0  0  0
  -17.8563  -10.2101  -14.3326 C   0  0  0  0  0  0  0  0  0  0  0  0
  -16.1429  -10.0266  -15.9471 C   0  0  0  0  0  0  0  0  0  0  0  0
  -16.4943   -9.7462  -14.5629 N   0  0  0  0  0  0  0  0  0  0  0  0
 20 19  2  0  0  0
 20 15  1  0  0  0
 13 11  2  0  0  0
 19 18  1  0  0  0
 11 15  1  0  0  0
 11 12  1  0  0  0
 15 16  2  0  0  0
 12  5  1  0  0  0
  5  4  2  0  0  0
  5  6  1  0  0  0
  4  3  1  0  0  0
 23  8  1  0  0  0
 23 24  1  0  0  0
 18 22  2  0  0  0
 18 21  1  0  0  0
  3  8  1  0  0  0
  3  2  2  0  0  0
  6  7  2  0  0  0
  8  1  1  0  0  0
  2  7  1  0  0  0
  2 10  1  0  0  0
 16 21  1  0  0  0
  1  9  2  0  0  0
  1 10  1  0  0  0
 21 17  1  0  0  0
 25 27  1  0  0  0
 27 24  1  0  0  0
 27 26  1  0  0  0
 12 14  1  0  0  0
M  END
> <minimizedAffinity>
-6.68610

$$$$
6FGG_D9B_A_1901


 27 29  0  0  0  0  0  0  0  0999 V2000
  -25.4429   -5.0801  -18.4395 C   0  0  0  0  0  0  0  0  0  0  0  0
  -23.6088   -4.0476  -17.5260 C   0  0  0  0  0  0  0  0  0  0  0  0
  -23.4110   -5.4207  -17.4213 C   0  0  0  0  0  0  0  0  0  0  0  0
  -22.2394   -5.8985  -16.8257 C   0  0  0  0  0  0  0  0  0  0  0  0
  -21.3303   -4.9720  -16.3285 C   0  0  0  0  0  0  0  0  0  0  0  0
  -21.5168   -3.5928  -16.4819 C   0  0  0  0  0  0  0  0  0  0  0  0
  -22.6725   -3.1169  -17.0656 C   0  0  0  0  0  0  0  0  0  0  0  0
  -24.5504   -6.0911  -17.9880 N   0  0  0  0  0  0  0  0  0  0  0  0
  -26.4943   -5.2459  -18.9645 O   0  0  0  0  0  0  0  0  0  0  0  0
  -24.8718   -3.8253  -18.1585 O   0  0  0  0  0  0  0  0  0  0  0  0
  -19.9544   -6.1544  -14.6175 C   0  0  0  0  0  0  0  0  0  0  0  0
  -20.0744   -5.3816  -15.8088 N   0  0  0  0  0  0  0  0  0  0  0  0
  -20.8595   -6.5416  -13.9567 O   0  0  0  0  0  0  0  0  0  0  0  0
  -19.2554   -5.1220  -16.2895 H   0  0  0  0  0  0  0  0  0  0  0  0
  -18.6078   -6.6955  -14.3374 C   0  0  0  0  0  0  0  0  0  0  0  0
  -18.4613   -8.1762  -14.1073 C   0  0  0  0  0  0  0  0  0  0  0  0
  -16.9704  -10.0800  -13.4788 C   0  0  0  0  0  0  0  0  0  0  0  0
  -16.0497   -7.7696  -13.4951 C   0  0  0  0  0  0  0  0  0  0  0  0
  -16.2163   -6.2786  -13.6857 C   0  0  0  0  0  0  0  0  0  0  0  0
  -17.5209   -5.7514  -14.0979 C   0  0  0  0  0  0  0  0  0  0  0  0
  -17.1691   -8.6782  -13.7166 N   0  0  0  0  0  0  0  0  0  0  0  0
  -15.0295   -8.2185  -13.1149 O   0  0  0  0  0  0  0  0  0  0  0  0
  -24.7413   -7.5227  -18.0909 C   0  0  0  0  0  0  0  0  0  0  0  0
  -25.3866   -8.0589  -16.8151 C   0  0  0  0  0  0  0  0  0  0  0  0
  -23.5611   -9.5918  -17.0923 C   0  0  0  0  0  0  0  0  0  0  0  0
  -23.9518   -8.6085  -14.9812 C   0  0  0  0  0  0  0  0  0  0  0  0
  -24.5959   -9.1129  -16.1848 N   0  0  0  0  0  0  0  0  0  0  0  0
 20 19  2  0  0  0
 20 15  1  0  0  0
 13 11  2  0  0  0
 19 18  1  0  0  0
 11 15  1  0  0  0
 11 12  1  0  0  0
 15 16  2  0  0  0
 12  5  1  0  0  0
  5  4  2  0  0  0
  5  6  1  0  0  0
  4  3  1  0  0  0
 23  8  1  0  0  0
 23 24  1  0  0  0
 18 22  2  0  0  0
 18 21  1  0  0  0
  3  8  1  0  0  0
  3  2  2  0  0  0
  6  7  2  0  0  0
  8  1  1  0  0  0
  2  7  1  0  0  0
  2 10  1  0  0  0
 16 21  1  0  0  0
  1  9  2  0  0  0
  1 10  1  0  0  0
 21 17  1  0  0  0
 25 27  1  0  0  0
 27 24  1  0  0  0
 27 26  1  0  0  0
 12 14  1  0  0  0
M  END
> <minimizedAffinity>
-6.66157

$$$$
6FGG_D9B_A_1901


 27 29  0  0  0  0  0  0  0  0999 V2000
  -25.6539   -3.4228  -16.8592 C   0  0  0  0  0  0  0  0  0  0  0  0
  -24.7151   -5.2106  -15.7698 C   0  0  0  0  0  0  0  0  0  0  0  0
  -23.6884   -4.5272  -16.4135 C   0  0  0  0  0  0  0  0  0  0  0  0
  -22.3779   -5.0035  -16.3053 C   0  0  0  0  0  0  0  0  0  0  0  0
  -22.1607   -6.1696  -15.5807 C   0  0  0  0  0  0  0  0  0  0  0  0
  -23.1938   -6.8225  -14.8974 C   0  0  0  0  0  0  0  0  0  0  0  0
  -24.4884   -6.3583  -15.0041 C   0  0  0  0  0  0  0  0  0  0  0  0
  -24.2533   -3.3999  -17.1055 N   0  0  0  0  0  0  0  0  0  0  0  0
  -26.4575   -2.6498  -17.2655 O   0  0  0  0  0  0  0  0  0  0  0  0
  -25.9432   -4.5308  -16.0416 O   0  0  0  0  0  0  0  0  0  0  0  0
  -19.7521   -5.7810  -15.0646 C   0  0  0  0  0  0  0  0  0  0  0  0
  -20.8469   -6.6506  -15.3402 N   0  0  0  0  0  0  0  0  0  0  0  0
  -19.8157   -4.5992  -14.9930 O   0  0  0  0  0  0  0  0  0  0  0  0
  -20.6861   -7.6215  -15.3648 H   0  0  0  0  0  0  0  0  0  0  0  0
  -18.5097   -6.4392  -14.6087 C   0  0  0  0  0  0  0  0  0  0  0  0
  -18.5147   -7.9330  -14.4203 C   0  0  0  0  0  0  0  0  0  0  0  0
  -17.2882   -9.9706  -13.6546 C   0  0  0  0  0  0  0  0  0  0  0  0
  -16.2003   -7.7445  -13.4382 C   0  0  0  0  0  0  0  0  0  0  0  0
  -16.2204   -6.2399  -13.5903 C   0  0  0  0  0  0  0  0  0  0  0  0
  -17.4024   -5.5952  -14.1709 C   0  0  0  0  0  0  0  0  0  0  0  0
  -17.3397   -8.5509  -13.8618 N   0  0  0  0  0  0  0  0  0  0  0  0
  -15.2877   -8.2868  -12.9285 O   0  0  0  0  0  0  0  0  0  0  0  0
  -23.5287   -2.4221  -17.8898 C   0  0  0  0  0  0  0  0  0  0  0  0
  -22.7718   -1.4677  -16.9691 C   0  0  0  0  0  0  0  0  0  0  0  0
  -23.7312   -0.4176  -15.0362 C   0  0  0  0  0  0  0  0  0  0  0  0
  -23.0187    0.9093  -16.8549 C   0  0  0  0  0  0  0  0  0  0  0  0
  -23.6067   -0.3702  -16.4873 N   0  0  0  0  0  0  0  0  0  0  0  0
 20 19  2  0  0  0
 20 15  1  0  0  0
 13 11  2  0  0  0
 19 18  1  0  0  0
 11 15  1  0  0  0
 11 12  1  0  0  0
 15 16  2  0  0  0
 12  5  1  0  0  0
  5  4  2  0  0  0
  5  6  1  0  0  0
  4  3  1  0  0  0
 23  8  1  0  0  0
 23 24  1  0  0  0
 18 22  2  0  0  0
 18 21  1  0  0  0
  3  8  1  0  0  0
  3  2  2  0  0  0
  6  7  2  0  0  0
  8  1  1  0  0  0
  2  7  1  0  0  0
  2 10  1  0  0  0
 16 21  1  0  0  0
  1  9  2  0  0  0
  1 10  1  0  0  0
 21 17  1  0  0  0
 25 27  1  0  0  0
 27 24  1  0  0  0
 27 26  1  0  0  0
 12 14  1  0  0  0
M  END
> <minimizedAffinity>
-6.30420

$$$$
6FGG_D9B_A_1901


 27 29  0  0  0  0  0  0  0  0999 V2000
  -27.8915  -11.5712  -14.9304 C   0  0  0  0  0  0  0  0  0  0  0  0
  -27.0733   -9.4535  -15.2622 C   0  0  0  0  0  0  0  0  0  0  0  0
  -26.0038  -10.2613  -14.8894 C   0  0  0  0  0  0  0  0  0  0  0  0
  -24.7278   -9.6988  -14.7821 C   0  0  0  0  0  0  0  0  0  0  0  0
  -24.5884   -8.3366  -15.0214 C   0  0  0  0  0  0  0  0  0  0  0  0
  -25.6623   -7.5430  -15.4423 C   0  0  0  0  0  0  0  0  0  0  0  0
  -26.9232   -8.0927  -15.5462 C   0  0  0  0  0  0  0  0  0  0  0  0
  -26.4927  -11.5968  -14.6748 N   0  0  0  0  0  0  0  0  0  0  0  0
  -28.6422  -12.4876  -14.8571 O   0  0  0  0  0  0  0  0  0  0  0  0
  -28.2536  -10.2600  -15.2902 O   0  0  0  0  0  0  0  0  0  0  0  0
  -22.5473   -7.5661  -16.2294 C   0  0  0  0  0  0  0  0  0  0  0  0
  -23.3094   -7.7208  -15.0352 N   0  0  0  0  0  0  0  0  0  0  0  0
  -22.8901   -7.9093  -17.3114 O   0  0  0  0  0  0  0  0  0  0  0  0
  -22.9348   -7.3880  -14.1878 H   0  0  0  0  0  0  0  0  0  0  0  0
  -21.3519   -6.7039  -16.1198 C   0  0  0  0  0  0  0  0  0  0  0  0
  -20.4749   -6.8416  -14.9037 C   0  0  0  0  0  0  0  0  0  0  0  0
  -18.5151   -5.9966  -13.6047 C   0  0  0  0  0  0  0  0  0  0  0  0
  -19.1670   -4.8425  -15.7092 C   0  0  0  0  0  0  0  0  0  0  0  0
  -20.0789   -4.6839  -16.9053 C   0  0  0  0  0  0  0  0  0  0  0  0
  -21.1877   -5.6255  -17.0895 C   0  0  0  0  0  0  0  0  0  0  0  0
  -19.3820   -5.9169  -14.7463 N   0  0  0  0  0  0  0  0  0  0  0  0
  -18.2999   -4.0720  -15.5058 O   0  0  0  0  0  0  0  0  0  0  0  0
  -25.7050  -12.7481  -14.2872 C   0  0  0  0  0  0  0  0  0  0  0  0
  -25.3466  -13.5772  -15.5184 C   0  0  0  0  0  0  0  0  0  0  0  0
  -23.8910  -12.4813  -17.0802 C   0  0  0  0  0  0  0  0  0  0  0  0
  -23.1766  -12.8190  -14.8550 C   0  0  0  0  0  0  0  0  0  0  0  0
  -23.9614  -13.3872  -15.9409 N   0  0  0  0  0  0  0  0  0  0  0  0
 20 19  2  0  0  0
 20 15  1  0  0  0
 13 11  2  0  0  0
 19 18  1  0  0  0
 11 15  1  0  0  0
 11 12  1  0  0  0
 15 16  2  0  0  0
 12  5  1  0  0  0
  5  4  2  0  0  0
  5  6  1  0  0  0
  4  3  1  0  0  0
 23  8  1  0  0  0
 23 24  1  0  0  0
 18 22  2  0  0  0
 18 21  1  0  0  0
  3  8  1  0  0  0
  3  2  2  0  0  0
  6  7  2  0  0  0
  8  1  1  0  0  0
  2  7  1  0  0  0
  2 10  1  0  0  0
 16 21  1  0  0  0
  1  9  2  0  0  0
  1 10  1  0  0  0
 21 17  1  0  0  0
 25 27  1  0  0  0
 27 24  1  0  0  0
 27 26  1  0  0  0
 12 14  1  0  0  0
M  END
> <minimizedAffinity>
-6.21456

$$$$
6FGG_D9B_A_1901


 27 29  0  0  0  0  0  0  0  0999 V2000
  -19.4989   -4.6687  -15.8167 C   0  0  0  0  0  0  0  0  0  0  0  0
  -21.3400   -5.8185  -16.5601 C   0  0  0  0  0  0  0  0  0  0  0  0
  -20.8784   -6.4626  -15.4167 C   0  0  0  0  0  0  0  0  0  0  0  0
  -21.5470   -7.6020  -14.9575 C   0  0  0  0  0  0  0  0  0  0  0  0
  -22.6335   -8.0658  -15.6900 C   0  0  0  0  0  0  0  0  0  0  0  0
  -23.1187   -7.3827  -16.8118 C   0  0  0  0  0  0  0  0  0  0  0  0
  -22.4604   -6.2605  -17.2703 C   0  0  0  0  0  0  0  0  0  0  0  0
  -19.7217   -5.7591  -14.9312 N   0  0  0  0  0  0  0  0  0  0  0  0
  -18.6329   -3.8606  -15.7419 O   0  0  0  0  0  0  0  0  0  0  0  0
  -20.4873   -4.7001  -16.8177 O   0  0  0  0  0  0  0  0  0  0  0  0
  -24.8268   -9.0383  -15.0101 C   0  0  0  0  0  0  0  0  0  0  0  0
  -23.4226   -9.1506  -15.2258 N   0  0  0  0  0  0  0  0  0  0  0  0
  -25.4746   -8.0639  -15.2015 O   0  0  0  0  0  0  0  0  0  0  0  0
  -22.9833  -10.0131  -15.0461 H   0  0  0  0  0  0  0  0  0  0  0  0
  -25.5394  -10.3075  -14.7534 C   0  0  0  0  0  0  0  0  0  0  0  0
  -25.0489  -11.5580  -15.4335 C   0  0  0  0  0  0  0  0  0  0  0  0
  -25.4030  -13.9863  -15.9028 C   0  0  0  0  0  0  0  0  0  0  0  0
  -27.0690  -12.7599  -14.5222 C   0  0  0  0  0  0  0  0  0  0  0  0
  -27.5780  -11.4894  -13.8786 C   0  0  0  0  0  0  0  0  0  0  0  0
  -26.7989  -10.2551  -14.0179 C   0  0  0  0  0  0  0  0  0  0  0  0
  -25.8191  -12.7645  -15.2741 N   0  0  0  0  0  0  0  0  0  0  0  0
  -27.6973  -13.7546  -14.4720 O   0  0  0  0  0  0  0  0  0  0  0  0
  -18.9442   -6.0919  -13.7561 C   0  0  0  0  0  0  0  0  0  0  0  0
  -18.2134   -7.4158  -13.9682 C   0  0  0  0  0  0  0  0  0  0  0  0
  -16.3659   -5.8857  -13.9016 C   0  0  0  0  0  0  0  0  0  0  0  0
  -15.9999   -8.1797  -13.4776 C   0  0  0  0  0  0  0  0  0  0  0  0
  -16.7919   -7.2348  -14.2508 N   0  0  0  0  0  0  0  0  0  0  0  0
 20 19  2  0  0  0
 20 15  1  0  0  0
 13 11  2  0  0  0
 19 18  1  0  0  0
 11 15  1  0  0  0
 11 12  1  0  0  0
 15 16  2  0  0  0
 12  5  1  0  0  0
  5  4  2  0  0  0
  5  6  1  0  0  0
  4  3  1  0  0  0
 23  8  1  0  0  0
 23 24  1  0  0  0
 18 22  2  0  0  0
 18 21  1  0  0  0
  3  8  1  0  0  0
  3  2  2  0  0  0
  6  7  2  0  0  0
  8  1  1  0  0  0
  2  7  1  0  0  0
  2 10  1  0  0  0
 16 21  1  0  0  0
  1  9  2  0  0  0
  1 10  1  0  0  0
 21 17  1  0  0  0
 25 27  1  0  0  0
 27 24  1  0  0  0
 27 26  1  0  0  0
 12 14  1  0  0  0
M  END
> <minimizedAffinity>
-6.13995

$$$$
6FGG_D9B_A_1901


 27 29  0  0  0  0  0  0  0  0999 V2000
  -26.7238  -12.7281  -14.3286 C   0  0  0  0  0  0  0  0  0  0  0  0
  -24.5411  -12.4288  -14.9693 C   0  0  0  0  0  0  0  0  0  0  0  0
  -25.1470  -11.1766  -14.9511 C   0  0  0  0  0  0  0  0  0  0  0  0
  -24.3964  -10.0495  -15.3008 C   0  0  0  0  0  0  0  0  0  0  0  0
  -23.0744  -10.2351  -15.6881 C   0  0  0  0  0  0  0  0  0  0  0  0
  -22.4612  -11.4934  -15.6569 C   0  0  0  0  0  0  0  0  0  0  0  0
  -23.1986  -12.6084  -15.3160 C   0  0  0  0  0  0  0  0  0  0  0  0
  -26.5193  -11.3385  -14.5520 N   0  0  0  0  0  0  0  0  0  0  0  0
  -27.7336  -13.2498  -13.9867 O   0  0  0  0  0  0  0  0  0  0  0  0
  -25.5151  -13.4018  -14.5834 O   0  0  0  0  0  0  0  0  0  0  0  0
  -22.4624   -7.8339  -15.4079 C   0  0  0  0  0  0  0  0  0  0  0  0
  -22.2247   -9.1291  -15.9527 N   0  0  0  0  0  0  0  0  0  0  0  0
  -23.3576   -7.5472  -14.6852 O   0  0  0  0  0  0  0  0  0  0  0  0
  -21.4417   -9.2619  -16.5345 H   0  0  0  0  0  0  0  0  0  0  0  0
  -21.3697   -6.8543  -15.5835 C   0  0  0  0  0  0  0  0  0  0  0  0
  -20.2708   -6.8106  -14.5552 C   0  0  0  0  0  0  0  0  0  0  0  0
  -18.2074   -5.6806  -13.7139 C   0  0  0  0  0  0  0  0  0  0  0  0
  -19.3647   -4.7638  -15.7154 C   0  0  0  0  0  0  0  0  0  0  0  0
  -20.4963   -4.7886  -16.7185 C   0  0  0  0  0  0  0  0  0  0  0  0
  -21.5096   -5.8446  -16.6280 C   0  0  0  0  0  0  0  0  0  0  0  0
  -19.2762   -5.7750  -14.6678 N   0  0  0  0  0  0  0  0  0  0  0  0
  -18.5650   -3.8995  -15.7300 O   0  0  0  0  0  0  0  0  0  0  0  0
  -27.4984  -10.2836  -14.3943 C   0  0  0  0  0  0  0  0  0  0  0  0
  -28.3148  -10.1300  -15.6755 C   0  0  0  0  0  0  0  0  0  0  0  0
  -27.3957   -7.9250  -15.4470 C   0  0  0  0  0  0  0  0  0  0  0  0
  -27.2686   -9.0347  -17.5275 C   0  0  0  0  0  0  0  0  0  0  0  0
  -28.0862   -8.8484  -16.3380 N   0  0  0  0  0  0  0  0  0  0  0  0
 20 19  2  0  0  0
 20 15  1  0  0  0
 13 11  2  0  0  0
 19 18  1  0  0  0
 11 15  1  0  0  0
 11 12  1  0  0  0
 15 16  2  0  0  0
 12  5  1  0  0  0
  5  4  2  0  0  0
  5  6  1  0  0  0
  4  3  1  0  0  0
 23  8  1  0  0  0
 23 24  1  0  0  0
 18 22  2  0  0  0
 18 21  1  0  0  0
  3  8  1  0  0  0
  3  2  2  0  0  0
  6  7  2  0  0  0
  8  1  1  0  0  0
  2  7  1  0  0  0
  2 10  1  0  0  0
 16 21  1  0  0  0
  1  9  2  0  0  0
  1 10  1  0  0  0
 21 17  1  0  0  0
 25 27  1  0  0  0
 27 24  1  0  0  0
 27 26  1  0  0  0
 12 14  1  0  0  0
M  END
> <minimizedAffinity>
-6.07556

$$$$
6FGG_D9B_A_1901


 27 29  0  0  0  0  0  0  0  0999 V2000
  -26.3313   -8.4745  -18.6945 C   0  0  0  0  0  0  0  0  0  0  0  0
  -25.0728   -6.6803  -18.0151 C   0  0  0  0  0  0  0  0  0  0  0  0
  -24.3139   -7.8271  -17.8044 C   0  0  0  0  0  0  0  0  0  0  0  0
  -23.0322   -7.7070  -17.2577 C   0  0  0  0  0  0  0  0  0  0  0  0
  -22.5812   -6.4381  -16.9135 C   0  0  0  0  0  0  0  0  0  0  0  0
  -23.3340   -5.2866  -17.1741 C   0  0  0  0  0  0  0  0  0  0  0  0
  -24.6000   -5.4004  -17.7099 C   0  0  0  0  0  0  0  0  0  0  0  0
  -25.0834   -8.9678  -18.2231 N   0  0  0  0  0  0  0  0  0  0  0  0
  -27.2315   -9.1183  -19.1230 O   0  0  0  0  0  0  0  0  0  0  0  0
  -26.3312   -7.0731  -18.5690 O   0  0  0  0  0  0  0  0  0  0  0  0
  -20.8876   -6.3684  -15.0845 C   0  0  0  0  0  0  0  0  0  0  0  0
  -21.2541   -6.2300  -16.4546 N   0  0  0  0  0  0  0  0  0  0  0  0
  -21.6215   -6.6766  -14.2057 O   0  0  0  0  0  0  0  0  0  0  0  0
  -20.5608   -5.9807  -17.1076 H   0  0  0  0  0  0  0  0  0  0  0  0
  -19.4366   -6.3493  -14.8040 C   0  0  0  0  0  0  0  0  0  0  0  0
  -18.7928   -7.5969  -14.2599 C   0  0  0  0  0  0  0  0  0  0  0  0
  -16.7400   -8.6899  -13.3469 C   0  0  0  0  0  0  0  0  0  0  0  0
  -16.6636   -6.2807  -13.9596 C   0  0  0  0  0  0  0  0  0  0  0  0
  -17.3296   -5.0209  -14.4661 C   0  0  0  0  0  0  0  0  0  0  0  0
  -18.7368   -5.0705  -14.8752 C   0  0  0  0  0  0  0  0  0  0  0  0
  -17.4060   -7.5335  -13.8763 N   0  0  0  0  0  0  0  0  0  0  0  0
  -15.5506   -6.2614  -13.5753 O   0  0  0  0  0  0  0  0  0  0  0  0
  -24.6590  -10.3515  -18.1844 C   0  0  0  0  0  0  0  0  0  0  0  0
  -24.6811  -10.8671  -16.7473 C   0  0  0  0  0  0  0  0  0  0  0  0
  -26.8426  -11.8902  -16.5471 C   0  0  0  0  0  0  0  0  0  0  0  0
  -25.8914  -10.7933  -14.6849 C   0  0  0  0  0  0  0  0  0  0  0  0
  -26.0041  -10.7717  -16.1356 N   0  0  0  0  0  0  0  0  0  0  0  0
 20 19  2  0  0  0
 20 15  1  0  0  0
 13 11  2  0  0  0
 19 18  1  0  0  0
 11 15  1  0  0  0
 11 12  1  0  0  0
 15 16  2  0  0  0
 12  5  1  0  0  0
  5  4  2  0  0  0
  5  6  1  0  0  0
  4  3  1  0  0  0
 23  8  1  0  0  0
 23 24  1  0  0  0
 18 22  2  0  0  0
 18 21  1  0  0  0
  3  8  1  0  0  0
  3  2  2  0  0  0
  6  7  2  0  0  0
  8  1  1  0  0  0
  2  7  1  0  0  0
  2 10  1  0  0  0
 16 21  1  0  0  0
  1  9  2  0  0  0
  1 10  1  0  0  0
 21 17  1  0  0  0
 25 27  1  0  0  0
 27 24  1  0  0  0
 27 26  1  0  0  0
 12 14  1  0  0  0
M  END
> <minimizedAffinity>
-6.06729

$$$$
6FGG_D9B_A_1901


 27 29  0  0  0  0  0  0  0  0999 V2000
  -22.9775   -1.3103  -17.4659 C   0  0  0  0  0  0  0  0  0  0  0  0
  -21.6358   -3.1300  -17.0750 C   0  0  0  0  0  0  0  0  0  0  0  0
  -22.9404   -3.5938  -17.2100 C   0  0  0  0  0  0  0  0  0  0  0  0
  -23.1942   -4.9638  -17.0892 C   0  0  0  0  0  0  0  0  0  0  0  0
  -22.1268   -5.8068  -16.8026 C   0  0  0  0  0  0  0  0  0  0  0  0
  -20.8111   -5.3356  -16.7162 C   0  0  0  0  0  0  0  0  0  0  0  0
  -20.5565   -3.9848  -16.8313 C   0  0  0  0  0  0  0  0  0  0  0  0
  -23.8023   -2.4689  -17.4558 N   0  0  0  0  0  0  0  0  0  0  0  0
  -23.3307   -0.1905  -17.6388 O   0  0  0  0  0  0  0  0  0  0  0  0
  -21.6485   -1.7089  -17.2324 O   0  0  0  0  0  0  0  0  0  0  0  0
  -22.7813   -7.9046  -15.6239 C   0  0  0  0  0  0  0  0  0  0  0  0
  -22.2921   -7.2163  -16.7718 N   0  0  0  0  0  0  0  0  0  0  0  0
  -23.1081   -7.3937  -14.6050 O   0  0  0  0  0  0  0  0  0  0  0  0
  -22.0600   -7.7381  -17.5738 H   0  0  0  0  0  0  0  0  0  0  0  0
  -23.1160   -9.3301  -15.8254 C   0  0  0  0  0  0  0  0  0  0  0  0
  -24.3551   -9.8777  -15.1684 C   0  0  0  0  0  0  0  0  0  0  0  0
  -25.7719  -11.8717  -14.6594 C   0  0  0  0  0  0  0  0  0  0  0  0
  -23.6621  -12.1753  -15.9409 C   0  0  0  0  0  0  0  0  0  0  0  0
  -22.3975  -11.6238  -16.5605 C   0  0  0  0  0  0  0  0  0  0  0  0
  -22.1302  -10.1843  -16.4800 C   0  0  0  0  0  0  0  0  0  0  0  0
  -24.6089  -11.2918  -15.2697 N   0  0  0  0  0  0  0  0  0  0  0  0
  -23.8797  -13.3327  -15.9438 O   0  0  0  0  0  0  0  0  0  0  0  0
  -25.2340   -2.5135  -17.6670 C   0  0  0  0  0  0  0  0  0  0  0  0
  -25.9648   -2.0617  -16.4047 C   0  0  0  0  0  0  0  0  0  0  0  0
  -26.6618   -2.6019  -14.1728 C   0  0  0  0  0  0  0  0  0  0  0  0
  -26.6683   -4.2769  -15.8373 C   0  0  0  0  0  0  0  0  0  0  0  0
  -25.9771   -3.0868  -15.3643 N   0  0  0  0  0  0  0  0  0  0  0  0
 20 19  2  0  0  0
 20 15  1  0  0  0
 13 11  2  0  0  0
 19 18  1  0  0  0
 11 15  1  0  0  0
 11 12  1  0  0  0
 15 16  2  0  0  0
 12  5  1  0  0  0
  5  4  2  0  0  0
  5  6  1  0  0  0
  4  3  1  0  0  0
 23  8  1  0  0  0
 23 24  1  0  0  0
 18 22  2  0  0  0
 18 21  1  0  0  0
  3  8  1  0  0  0
  3  2  2  0  0  0
  6  7  2  0  0  0
  8  1  1  0  0  0
  2  7  1  0  0  0
  2 10  1  0  0  0
 16 21  1  0  0  0
  1  9  2  0  0  0
  1 10  1  0  0  0
 21 17  1  0  0  0
 25 27  1  0  0  0
 27 24  1  0  0  0
 27 26  1  0  0  0
 12 14  1  0  0  0
M  END
> <minimizedAffinity>
-5.74423

$$$$
6FGG_D9B_A_1901


 27 29  0  0  0  0  0  0  0  0999 V2000
  -23.5454   -1.6200  -17.0148 C   0  0  0  0  0  0  0  0  0  0  0  0
  -21.9697   -3.2834  -16.8936 C   0  0  0  0  0  0  0  0  0  0  0  0
  -23.1979   -3.8882  -17.1411 C   0  0  0  0  0  0  0  0  0  0  0  0
  -23.2626   -5.2804  -17.2569 C   0  0  0  0  0  0  0  0  0  0  0  0
  -22.0916   -6.0091  -17.0840 C   0  0  0  0  0  0  0  0  0  0  0  0
  -20.8532   -5.3874  -16.8829 C   0  0  0  0  0  0  0  0  0  0  0  0
  -20.7851   -4.0148  -16.7646 C   0  0  0  0  0  0  0  0  0  0  0  0
  -24.2041   -2.8636  -17.2210 N   0  0  0  0  0  0  0  0  0  0  0  0
  -24.0474   -0.5446  -17.0092 O   0  0  0  0  0  0  0  0  0  0  0  0
  -22.1757   -1.8708  -16.8129 O   0  0  0  0  0  0  0  0  0  0  0  0
  -22.3977   -8.3458  -16.2688 C   0  0  0  0  0  0  0  0  0  0  0  0
  -22.0628   -7.4129  -17.2926 N   0  0  0  0  0  0  0  0  0  0  0  0
  -22.7406   -8.0641  -15.1693 O   0  0  0  0  0  0  0  0  0  0  0  0
  -21.8016   -7.7549  -18.1781 H   0  0  0  0  0  0  0  0  0  0  0  0
  -22.5457   -9.7503  -16.7047 C   0  0  0  0  0  0  0  0  0  0  0  0
  -22.8340  -10.0262  -18.1565 C   0  0  0  0  0  0  0  0  0  0  0  0
  -23.3816  -11.7095  -19.9197 C   0  0  0  0  0  0  0  0  0  0  0  0
  -23.1367  -12.4570  -17.5602 C   0  0  0  0  0  0  0  0  0  0  0  0
  -22.8893  -12.1650  -16.0971 C   0  0  0  0  0  0  0  0  0  0  0  0
  -22.6062  -10.7880  -15.6802 C   0  0  0  0  0  0  0  0  0  0  0  0
  -23.0959  -11.3865  -18.5503 N   0  0  0  0  0  0  0  0  0  0  0  0
  -23.4174  -13.5429  -17.9192 O   0  0  0  0  0  0  0  0  0  0  0  0
  -25.6150   -3.0632  -17.4775 C   0  0  0  0  0  0  0  0  0  0  0  0
  -26.4282   -2.7227  -16.2307 C   0  0  0  0  0  0  0  0  0  0  0  0
  -26.8651   -3.1950  -13.9188 C   0  0  0  0  0  0  0  0  0  0  0  0
  -26.5690   -4.9764  -15.4403 C   0  0  0  0  0  0  0  0  0  0  0  0
  -26.1489   -3.6218  -15.1140 N   0  0  0  0  0  0  0  0  0  0  0  0
 20 19  2  0  0  0
 20 15  1  0  0  0
 13 11  2  0  0  0
 19 18  1  0  0  0
 11 15  1  0  0  0
 11 12  1  0  0  0
 15 16  2  0  0  0
 12  5  1  0  0  0
  5  4  2  0  0  0
  5  6  1  0  0  0
  4  3  1  0  0  0
 23  8  1  0  0  0
 23 24  1  0  0  0
 18 22  2  0  0  0
 18 21  1  0  0  0
  3  8  1  0  0  0
  3  2  2  0  0  0
  6  7  2  0  0  0
  8  1  1  0  0  0
  2  7  1  0  0  0
  2 10  1  0  0  0
 16 21  1  0  0  0
  1  9  2  0  0  0
  1 10  1  0  0  0
 21 17  1  0  0  0
 25 27  1  0  0  0
 27 24  1  0  0  0
 27 26  1  0  0  0
 12 14  1  0  0  0
M  END
> <minimizedAffinity>
-5.72330

$$$$
