3HKU_TOR_A_300


 24 26  0  0  0  0  0  0  0  0999 V2000
   16.7720    7.7840   13.5621 C   0  0  0  0  0  0  0  0  0  0  0  0
   16.0671    6.4341   13.7992 C   0  0  0  0  0  0  0  0  0  0  0  0
   14.7742    6.6135   14.6096 C   0  0  0  0  0  0  0  0  0  0  0  0
   17.0177    5.5314   14.4772 O   0  0  0  0  0  0  0  0  0  0  0  0
   15.7678    5.8395   12.5370 O   0  0  0  0  0  0  0  0  0  0  0  0
   15.8230    4.3962   12.7914 C   0  0  0  0  0  0  0  0  0  0  0  0
   16.1509    3.6657   11.4527 C   0  0  0  0  0  0  0  0  0  0  0  0
   16.1519    2.2729   11.7285 O   0  0  0  0  0  0  0  0  0  0  0  0
   17.0630    1.6730   10.7928 C   0  0  0  0  0  0  0  0  0  0  0  0
   16.3886    1.3672    9.4334 C   0  0  0  0  0  0  0  0  0  0  0  0
   17.6492    0.4097   11.4286 C   0  0  0  0  0  0  0  0  0  0  0  0
   18.1257    2.6395   10.6162 O   0  0  0  0  0  0  0  0  0  0  0  0
   17.5648    3.9399   10.9312 C   0  0  0  0  0  0  0  0  0  0  0  0
   18.4757    4.5710   11.9845 C   0  0  0  0  0  0  0  0  0  0  0  0
   18.2076    3.9771   13.2893 O   0  0  0  0  0  0  0  0  0  0  0  0
   16.9405    4.2749   13.8564 C   0  0  0  0  0  0  0  0  0  0  0  0
   16.6754    3.1948   14.9347 C   0  0  0  0  0  0  0  0  0  0  0  0
   15.9650    3.6970   16.0523 O   0  0  0  0  0  0  0  0  0  0  0  0
   15.3380    2.7906   17.0635 S   0  0  0  0  0  0  0  0  0  0  0  0
   15.7238    1.4055   16.6855 O   0  0  0  0  0  0  0  0  0  0  0  0
   15.8723    3.2716   18.3612 O   0  0  0  0  0  0  0  0  0  0  0  0
   13.7540    2.9768   16.9410 N   0  0  0  0  0  0  0  0  0  0  0  0
   13.4402    2.6315   16.0340 H   0  0  0  0  0  0  0  0  0  0  0  0
   13.5202    3.9658   17.0278 H   0  0  0  0  0  0  0  0  0  0  0  0
  1  2  1  0  0  0
  2  3  1  0  0  0
  2  4  1  0  0  0
  2  5  1  0  0  0
  4 16  1  0  0  0
  5  6  1  0  0  0
  6  7  1  0  0  0
  6 16  1  0  0  0
  7  8  1  0  0  0
  7 13  1  0  0  0
  8  9  1  0  0  0
  9 10  1  0  0  0
  9 11  1  0  0  0
  9 12  1  0  0  0
 12 13  1  0  0  0
 13 14  1  0  0  0
 14 15  1  0  0  0
 15 16  1  0  0  0
 16 17  1  0  0  0
 17 18  1  0  0  0
 18 19  1  0  0  0
 19 20  2  0  0  0
 19 21  2  0  0  0
 19 22  1  0  0  0
 22 23  1  0  0  0
 22 24  1  0  0  0
M  END
> <minimizedAffinity>
-8.80029

$$$$
3HKU_TOR_A_300


 24 26  0  0  0  0  0  0  0  0999 V2000
   16.2527    1.5909    9.3684 C   0  0  0  0  0  0  0  0  0  0  0  0
   16.7946    1.8920   10.7794 C   0  0  0  0  0  0  0  0  0  0  0  0
   16.9428    0.6063   11.6073 C   0  0  0  0  0  0  0  0  0  0  0  0
   15.8845    2.8577   11.4255 O   0  0  0  0  0  0  0  0  0  0  0  0
   18.0607    2.5395   10.6612 O   0  0  0  0  0  0  0  0  0  0  0  0
   18.1393    3.4055   11.8421 C   0  0  0  0  0  0  0  0  0  0  0  0
   19.1043    4.5904   11.5288 C   0  0  0  0  0  0  0  0  0  0  0  0
   19.1895    5.3797   12.7059 O   0  0  0  0  0  0  0  0  0  0  0  0
   19.4612    6.7239   12.2762 C   0  0  0  0  0  0  0  0  0  0  0  0
   20.9718    6.9702   12.0445 C   0  0  0  0  0  0  0  0  0  0  0  0
   18.8847    7.6907   13.3139 C   0  0  0  0  0  0  0  0  0  0  0  0
   18.7332    6.8864   11.0359 O   0  0  0  0  0  0  0  0  0  0  0  0
   18.5667    5.5601   10.4720 C   0  0  0  0  0  0  0  0  0  0  0  0
   17.0726    5.3786   10.2027 C   0  0  0  0  0  0  0  0  0  0  0  0
   16.3765    5.0938   11.4522 O   0  0  0  0  0  0  0  0  0  0  0  0
   16.6679    3.8399   12.0513 C   0  0  0  0  0  0  0  0  0  0  0  0
   16.2442    3.9523   13.5371 C   0  0  0  0  0  0  0  0  0  0  0  0
   17.2101    3.4197   14.4256 O   0  0  0  0  0  0  0  0  0  0  0  0
   16.8330    2.8561   15.7587 S   0  0  0  0  0  0  0  0  0  0  0  0
   16.5394    1.4152   15.5401 O   0  0  0  0  0  0  0  0  0  0  0  0
   18.0061    3.1463   16.6192 O   0  0  0  0  0  0  0  0  0  0  0  0
   15.5130    3.6237   16.2353 N   0  0  0  0  0  0  0  0  0  0  0  0
   14.7401    3.3899   15.6121 H   0  0  0  0  0  0  0  0  0  0  0  0
   15.6773    4.6301   16.2105 H   0  0  0  0  0  0  0  0  0  0  0  0
  1  2  1  0  0  0
  2  3  1  0  0  0
  2  4  1  0  0  0
  2  5  1  0  0  0
  4 16  1  0  0  0
  5  6  1  0  0  0
  6  7  1  0  0  0
  6 16  1  0  0  0
  7  8  1  0  0  0
  7 13  1  0  0  0
  8  9  1  0  0  0
  9 10  1  0  0  0
  9 11  1  0  0  0
  9 12  1  0  0  0
 12 13  1  0  0  0
 13 14  1  0  0  0
 14 15  1  0  0  0
 15 16  1  0  0  0
 16 17  1  0  0  0
 17 18  1  0  0  0
 18 19  1  0  0  0
 19 20  2  0  0  0
 19 21  2  0  0  0
 19 22  1  0  0  0
 22 23  1  0  0  0
 22 24  1  0  0  0
M  END
> <minimizedAffinity>
-8.68459

$$$$
3HKU_TOR_A_300


 24 26  0  0  0  0  0  0  0  0999 V2000
   17.0389    0.3633   11.8207 C   0  0  0  0  0  0  0  0  0  0  0  0
   16.9920    1.7355   11.1207 C   0  0  0  0  0  0  0  0  0  0  0  0
   16.8165    1.5825    9.6020 C   0  0  0  0  0  0  0  0  0  0  0  0
   18.2288    2.4668   11.4581 O   0  0  0  0  0  0  0  0  0  0  0  0
   15.9092    2.4935   11.6585 O   0  0  0  0  0  0  0  0  0  0  0  0
   16.3500    3.8879   11.5487 C   0  0  0  0  0  0  0  0  0  0  0  0
   15.6070    4.7327   12.6293 C   0  0  0  0  0  0  0  0  0  0  0  0
   16.0244    6.0796   12.4635 O   0  0  0  0  0  0  0  0  0  0  0  0
   15.9312    6.6972   13.7579 C   0  0  0  0  0  0  0  0  0  0  0  0
   14.5033    7.2140   14.0582 C   0  0  0  0  0  0  0  0  0  0  0  0
   16.9662    7.8228   13.8338 C   0  0  0  0  0  0  0  0  0  0  0  0
   16.2977    5.6654   14.7043 O   0  0  0  0  0  0  0  0  0  0  0  0
   16.0164    4.3934   14.0658 C   0  0  0  0  0  0  0  0  0  0  0  0
   17.3013    3.5680   14.1393 C   0  0  0  0  0  0  0  0  0  0  0  0
   18.2452    4.0323   13.1290 O   0  0  0  0  0  0  0  0  0  0  0  0
   17.8778    3.7872   11.7796 C   0  0  0  0  0  0  0  0  0  0  0  0
   18.7164    4.7580   10.9113 C   0  0  0  0  0  0  0  0  0  0  0  0
   18.0257    5.1974    9.7554 O   0  0  0  0  0  0  0  0  0  0  0  0
   17.8136    6.6493    9.4648 S   0  0  0  0  0  0  0  0  0  0  0  0
   18.6411    7.4011   10.4446 O   0  0  0  0  0  0  0  0  0  0  0  0
   18.2139    6.7961    8.0439 O   0  0  0  0  0  0  0  0  0  0  0  0
   16.2613    6.9527    9.7034 N   0  0  0  0  0  0  0  0  0  0  0  0
   16.0405    6.8377   10.6925 H   0  0  0  0  0  0  0  0  0  0  0  0
   15.6994    6.3041    9.1519 H   0  0  0  0  0  0  0  0  0  0  0  0
  1  2  1  0  0  0
  2  3  1  0  0  0
  2  4  1  0  0  0
  2  5  1  0  0  0
  4 16  1  0  0  0
  5  6  1  0  0  0
  6  7  1  0  0  0
  6 16  1  0  0  0
  7  8  1  0  0  0
  7 13  1  0  0  0
  8  9  1  0  0  0
  9 10  1  0  0  0
  9 11  1  0  0  0
  9 12  1  0  0  0
 12 13  1  0  0  0
 13 14  1  0  0  0
 14 15  1  0  0  0
 15 16  1  0  0  0
 16 17  1  0  0  0
 17 18  1  0  0  0
 18 19  1  0  0  0
 19 20  2  0  0  0
 19 21  2  0  0  0
 19 22  1  0  0  0
 22 23  1  0  0  0
 22 24  1  0  0  0
M  END
> <minimizedAffinity>
-7.37189

$$$$
3HKU_TOR_A_300


 24 26  0  0  0  0  0  0  0  0999 V2000
   18.1921    7.2291   14.4313 C   0  0  0  0  0  0  0  0  0  0  0  0
   18.6380    6.7280   13.0437 C   0  0  0  0  0  0  0  0  0  0  0  0
   19.8459    7.5227   12.5241 C   0  0  0  0  0  0  0  0  0  0  0  0
   17.4847    6.8231   12.1277 O   0  0  0  0  0  0  0  0  0  0  0  0
   18.9736    5.3442   13.1365 O   0  0  0  0  0  0  0  0  0  0  0  0
   18.6570    4.8024   11.8109 C   0  0  0  0  0  0  0  0  0  0  0  0
   18.3640    3.2768   11.9522 C   0  0  0  0  0  0  0  0  0  0  0  0
   18.1064    2.7802   10.6473 O   0  0  0  0  0  0  0  0  0  0  0  0
   17.2184    1.6613   10.8051 C   0  0  0  0  0  0  0  0  0  0  0  0
   17.9794    0.3496   11.1155 C   0  0  0  0  0  0  0  0  0  0  0  0
   16.3685    1.5342    9.5381 C   0  0  0  0  0  0  0  0  0  0  0  0
   16.3527    2.0096   11.9114 O   0  0  0  0  0  0  0  0  0  0  0  0
   17.0794    2.9651   12.7262 C   0  0  0  0  0  0  0  0  0  0  0  0
   16.1729    4.1853   12.8910 C   0  0  0  0  0  0  0  0  0  0  0  0
   16.1960    4.9861   11.6723 O   0  0  0  0  0  0  0  0  0  0  0  0
   17.4246    5.6357   11.3816 C   0  0  0  0  0  0  0  0  0  0  0  0
   17.3906    5.9884    9.8736 C   0  0  0  0  0  0  0  0  0  0  0  0
   18.6830    6.0755    9.3006 O   0  0  0  0  0  0  0  0  0  0  0  0
   18.9285    6.7854    8.0071 S   0  0  0  0  0  0  0  0  0  0  0  0
   19.0752    8.2272    8.3381 O   0  0  0  0  0  0  0  0  0  0  0  0
   20.1404    6.1287    7.4584 O   0  0  0  0  0  0  0  0  0  0  0  0
   17.6352    6.5560    7.0942 N   0  0  0  0  0  0  0  0  0  0  0  0
   16.8340    7.0263    7.5153 H   0  0  0  0  0  0  0  0  0  0  0  0
   17.4433    5.5568    7.0214 H   0  0  0  0  0  0  0  0  0  0  0  0
  1  2  1  0  0  0
  2  3  1  0  0  0
  2  4  1  0  0  0
  2  5  1  0  0  0
  4 16  1  0  0  0
  5  6  1  0  0  0
  6  7  1  0  0  0
  6 16  1  0  0  0
  7  8  1  0  0  0
  7 13  1  0  0  0
  8  9  1  0  0  0
  9 10  1  0  0  0
  9 11  1  0  0  0
  9 12  1  0  0  0
 12 13  1  0  0  0
 13 14  1  0  0  0
 14 15  1  0  0  0
 15 16  1  0  0  0
 16 17  1  0  0  0
 17 18  1  0  0  0
 18 19  1  0  0  0
 19 20  2  0  0  0
 19 21  2  0  0  0
 19 22  1  0  0  0
 22 23  1  0  0  0
 22 24  1  0  0  0
M  END
> <minimizedAffinity>
-7.34815

$$$$
3HKU_TOR_A_300


 24 26  0  0  0  0  0  0  0  0999 V2000
   20.6399    6.4550    8.4660 C   0  0  0  0  0  0  0  0  0  0  0  0
   20.6471    5.8223    9.8713 C   0  0  0  0  0  0  0  0  0  0  0  0
   22.0792    5.5331   10.3467 C   0  0  0  0  0  0  0  0  0  0  0  0
   19.8262    4.5965    9.8283 O   0  0  0  0  0  0  0  0  0  0  0  0
   20.0055    6.7124   10.7837 O   0  0  0  0  0  0  0  0  0  0  0  0
   19.4063    5.8319   11.7919 C   0  0  0  0  0  0  0  0  0  0  0  0
   18.1946    6.5689   12.4414 C   0  0  0  0  0  0  0  0  0  0  0  0
   17.6697    5.7063   13.4396 O   0  0  0  0  0  0  0  0  0  0  0  0
   16.2689    6.0100   13.5448 C   0  0  0  0  0  0  0  0  0  0  0  0
   15.9990    7.2074   14.4880 C   0  0  0  0  0  0  0  0  0  0  0  0
   15.5330    4.7500   14.0081 C   0  0  0  0  0  0  0  0  0  0  0  0
   15.8417    6.3286   12.1993 O   0  0  0  0  0  0  0  0  0  0  0  0
   17.0186    6.7839   11.4836 C   0  0  0  0  0  0  0  0  0  0  0  0
   17.1209    5.9355   10.2157 C   0  0  0  0  0  0  0  0  0  0  0  0
   17.6515    4.6175   10.5447 O   0  0  0  0  0  0  0  0  0  0  0  0
   19.0065    4.5836   10.9676 C   0  0  0  0  0  0  0  0  0  0  0  0
   19.2015    3.2405   11.7144 C   0  0  0  0  0  0  0  0  0  0  0  0
   19.1230    2.1175   10.8547 O   0  0  0  0  0  0  0  0  0  0  0  0
   17.9736    1.1617   10.9050 S   0  0  0  0  0  0  0  0  0  0  0  0
   17.4434    1.0660    9.5194 O   0  0  0  0  0  0  0  0  0  0  0  0
   18.5634   -0.0850   11.4515 O   0  0  0  0  0  0  0  0  0  0  0  0
   16.8745    1.8016   11.8751 N   0  0  0  0  0  0  0  0  0  0  0  0
   16.5028    2.6527   11.4534 H   0  0  0  0  0  0  0  0  0  0  0  0
   17.3030    2.0262   12.7731 H   0  0  0  0  0  0  0  0  0  0  0  0
  1  2  1  0  0  0
  2  3  1  0  0  0
  2  4  1  0  0  0
  2  5  1  0  0  0
  4 16  1  0  0  0
  5  6  1  0  0  0
  6  7  1  0  0  0
  6 16  1  0  0  0
  7  8  1  0  0  0
  7 13  1  0  0  0
  8  9  1  0  0  0
  9 10  1  0  0  0
  9 11  1  0  0  0
  9 12  1  0  0  0
 12 13  1  0  0  0
 13 14  1  0  0  0
 14 15  1  0  0  0
 15 16  1  0  0  0
 16 17  1  0  0  0
 17 18  1  0  0  0
 18 19  1  0  0  0
 19 20  2  0  0  0
 19 21  2  0  0  0
 19 22  1  0  0  0
 22 23  1  0  0  0
 22 24  1  0  0  0
M  END
> <minimizedAffinity>
-7.32065

$$$$
3HKU_TOR_A_300


 24 26  0  0  0  0  0  0  0  0999 V2000
   16.3829    1.6033    9.4078 C   0  0  0  0  0  0  0  0  0  0  0  0
   16.8554    1.9926   10.8223 C   0  0  0  0  0  0  0  0  0  0  0  0
   16.8851    0.7735   11.7568 C   0  0  0  0  0  0  0  0  0  0  0  0
   15.9614    3.0511   11.3310 O   0  0  0  0  0  0  0  0  0  0  0  0
   18.1591    2.5659   10.7340 O   0  0  0  0  0  0  0  0  0  0  0  0
   18.2136    3.5211   11.8455 C   0  0  0  0  0  0  0  0  0  0  0  0
   19.2575    4.6280   11.5016 C   0  0  0  0  0  0  0  0  0  0  0  0
   19.3146    5.5062   12.6158 O   0  0  0  0  0  0  0  0  0  0  0  0
   19.6829    6.7959   12.0994 C   0  0  0  0  0  0  0  0  0  0  0  0
   21.2156    6.9487   11.9455 C   0  0  0  0  0  0  0  0  0  0  0  0
   19.0983    7.8714   13.0189 C   0  0  0  0  0  0  0  0  0  0  0  0
   19.0397    6.8912   10.8065 O   0  0  0  0  0  0  0  0  0  0  0  0
   18.8362    5.5327   10.3395 C   0  0  0  0  0  0  0  0  0  0  0  0
   17.3533    5.4024    9.9910 C   0  0  0  0  0  0  0  0  0  0  0  0
   16.5699    5.2552   11.2124 O   0  0  0  0  0  0  0  0  0  0  0  0
   16.7576    4.0421   11.9258 C   0  0  0  0  0  0  0  0  0  0  0  0
   16.2530    4.2965   13.3681 C   0  0  0  0  0  0  0  0  0  0  0  0
   15.1163    5.1404   13.4115 O   0  0  0  0  0  0  0  0  0  0  0  0
   15.0834    6.3808   14.2469 S   0  0  0  0  0  0  0  0  0  0  0  0
   14.5567    5.9794   15.5779 O   0  0  0  0  0  0  0  0  0  0  0  0
   16.4862    6.8634   14.2333 O   0  0  0  0  0  0  0  0  0  0  0  0
   14.0739    7.3976   13.5359 N   0  0  0  0  0  0  0  0  0  0  0  0
   13.1276    7.0190   13.5730 H   0  0  0  0  0  0  0  0  0  0  0  0
   14.3506    7.5266   12.5626 H   0  0  0  0  0  0  0  0  0  0  0  0
  1  2  1  0  0  0
  2  3  1  0  0  0
  2  4  1  0  0  0
  2  5  1  0  0  0
  4 16  1  0  0  0
  5  6  1  0  0  0
  6  7  1  0  0  0
  6 16  1  0  0  0
  7  8  1  0  0  0
  7 13  1  0  0  0
  8  9  1  0  0  0
  9 10  1  0  0  0
  9 11  1  0  0  0
  9 12  1  0  0  0
 12 13  1  0  0  0
 13 14  1  0  0  0
 14 15  1  0  0  0
 15 16  1  0  0  0
 16 17  1  0  0  0
 17 18  1  0  0  0
 18 19  1  0  0  0
 19 20  2  0  0  0
 19 21  2  0  0  0
 19 22  1  0  0  0
 22 23  1  0  0  0
 22 24  1  0  0  0
M  END
> <minimizedAffinity>
-6.95751

$$$$
3HKU_TOR_A_300


 24 26  0  0  0  0  0  0  0  0999 V2000
   17.3982    6.6492   14.7436 C   0  0  0  0  0  0  0  0  0  0  0  0
   17.2372    5.8516   13.4346 C   0  0  0  0  0  0  0  0  0  0  0  0
   15.8511    5.1947   13.3473 C   0  0  0  0  0  0  0  0  0  0  0  0
   18.3219    4.8529   13.3680 O   0  0  0  0  0  0  0  0  0  0  0  0
   17.4248    6.7334   12.3286 O   0  0  0  0  0  0  0  0  0  0  0  0
   17.9844    5.8818   11.2738 C   0  0  0  0  0  0  0  0  0  0  0  0
   18.8056    6.7756   10.2939 C   0  0  0  0  0  0  0  0  0  0  0  0
   19.2929    5.9263    9.2658 O   0  0  0  0  0  0  0  0  0  0  0  0
   20.5183    6.5141    8.7985 C   0  0  0  0  0  0  0  0  0  0  0  0
   20.2728    7.6072    7.7303 C   0  0  0  0  0  0  0  0  0  0  0  0
   21.4197    5.3972    8.2658 C   0  0  0  0  0  0  0  0  0  0  0  0
   21.1396    7.0926    9.9706 O   0  0  0  0  0  0  0  0  0  0  0  0
   20.0740    7.3677   10.9160 C   0  0  0  0  0  0  0  0  0  0  0  0
   20.4638    6.6915   12.2306 C   0  0  0  0  0  0  0  0  0  0  0  0
   20.2129    5.2575   12.1420 O   0  0  0  0  0  0  0  0  0  0  0  0
   18.8487    4.8712   12.0671 C   0  0  0  0  0  0  0  0  0  0  0  0
   18.8290    3.4320   11.4944 C   0  0  0  0  0  0  0  0  0  0  0  0
   17.8530    3.2566   10.4832 O   0  0  0  0  0  0  0  0  0  0  0  0
   16.7769    2.2235   10.5932 S   0  0  0  0  0  0  0  0  0  0  0  0
   17.2045    1.2805   11.6600 O   0  0  0  0  0  0  0  0  0  0  0  0
   15.5516    3.0071   10.8859 O   0  0  0  0  0  0  0  0  0  0  0  0
   16.7055    1.4697    9.1842 N   0  0  0  0  0  0  0  0  0  0  0  0
   17.5692    0.9484    9.0334 H   0  0  0  0  0  0  0  0  0  0  0  0
   16.5870    2.1546    8.4377 H   0  0  0  0  0  0  0  0  0  0  0  0
  1  2  1  0  0  0
  2  3  1  0  0  0
  2  4  1  0  0  0
  2  5  1  0  0  0
  4 16  1  0  0  0
  5  6  1  0  0  0
  6  7  1  0  0  0
  6 16  1  0  0  0
  7  8  1  0  0  0
  7 13  1  0  0  0
  8  9  1  0  0  0
  9 10  1  0  0  0
  9 11  1  0  0  0
  9 12  1  0  0  0
 12 13  1  0  0  0
 13 14  1  0  0  0
 14 15  1  0  0  0
 15 16  1  0  0  0
 16 17  1  0  0  0
 17 18  1  0  0  0
 18 19  1  0  0  0
 19 20  2  0  0  0
 19 21  2  0  0  0
 19 22  1  0  0  0
 22 23  1  0  0  0
 22 24  1  0  0  0
M  END
> <minimizedAffinity>
-6.91652

$$$$
3HKU_TOR_A_300


 24 26  0  0  0  0  0  0  0  0999 V2000
   14.1323    7.8135   13.2342 C   0  0  0  0  0  0  0  0  0  0  0  0
   15.2240    6.9687   13.9198 C   0  0  0  0  0  0  0  0  0  0  0  0
   15.0994    7.0297   15.4499 C   0  0  0  0  0  0  0  0  0  0  0  0
   16.5391    7.4536   13.4576 O   0  0  0  0  0  0  0  0  0  0  0  0
   15.1088    5.6164   13.4789 O   0  0  0  0  0  0  0  0  0  0  0  0
   16.4797    5.0979   13.5301 C   0  0  0  0  0  0  0  0  0  0  0  0
   16.6059    3.9197   12.5157 C   0  0  0  0  0  0  0  0  0  0  0  0
   17.9290    3.4165   12.6254 O   0  0  0  0  0  0  0  0  0  0  0  0
   18.2657    2.8717   11.3388 C   0  0  0  0  0  0  0  0  0  0  0  0
   17.7643    1.4169   11.1700 C   0  0  0  0  0  0  0  0  0  0  0  0
   19.7819    2.9712   11.1517 C   0  0  0  0  0  0  0  0  0  0  0  0
   17.6214    3.7366   10.3737 O   0  0  0  0  0  0  0  0  0  0  0  0
   16.4962    4.3534   11.0507 C   0  0  0  0  0  0  0  0  0  0  0  0
   16.6421    5.8639   10.8646 C   0  0  0  0  0  0  0  0  0  0  0  0
   17.6590    6.3779   11.7749 O   0  0  0  0  0  0  0  0  0  0  0  0
   17.3320    6.3354   13.1559 C   0  0  0  0  0  0  0  0  0  0  0  0
   18.6701    6.4421   13.9291 C   0  0  0  0  0  0  0  0  0  0  0  0
   19.6938    7.0629   13.1723 O   0  0  0  0  0  0  0  0  0  0  0  0
   19.9642    8.5313   13.2623 S   0  0  0  0  0  0  0  0  0  0  0  0
   19.7009    8.9234   14.6719 O   0  0  0  0  0  0  0  0  0  0  0  0
   21.3713    8.6683   12.8127 O   0  0  0  0  0  0  0  0  0  0  0  0
   18.9297    9.2589   12.2830 N   0  0  0  0  0  0  0  0  0  0  0  0
   17.9812    9.1343   12.6371 H   0  0  0  0  0  0  0  0  0  0  0  0
   19.0006    8.8520   11.3504 H   0  0  0  0  0  0  0  0  0  0  0  0
  1  2  1  0  0  0
  2  3  1  0  0  0
  2  4  1  0  0  0
  2  5  1  0  0  0
  4 16  1  0  0  0
  5  6  1  0  0  0
  6  7  1  0  0  0
  6 16  1  0  0  0
  7  8  1  0  0  0
  7 13  1  0  0  0
  8  9  1  0  0  0
  9 10  1  0  0  0
  9 11  1  0  0  0
  9 12  1  0  0  0
 12 13  1  0  0  0
 13 14  1  0  0  0
 14 15  1  0  0  0
 15 16  1  0  0  0
 16 17  1  0  0  0
 17 18  1  0  0  0
 18 19  1  0  0  0
 19 20  2  0  0  0
 19 21  2  0  0  0
 19 22  1  0  0  0
 22 23  1  0  0  0
 22 24  1  0  0  0
M  END
> <minimizedAffinity>
-6.83781

$$$$
3HKU_TOR_A_300


 24 26  0  0  0  0  0  0  0  0999 V2000
   18.6843    1.8804   11.0435 C   0  0  0  0  0  0  0  0  0  0  0  0
   18.1012    3.1808   11.6304 C   0  0  0  0  0  0  0  0  0  0  0  0
   16.9747    2.8857   12.6326 C   0  0  0  0  0  0  0  0  0  0  0  0
   17.6324    4.0211   10.5112 O   0  0  0  0  0  0  0  0  0  0  0  0
   19.1457    3.9066   12.2771 O   0  0  0  0  0  0  0  0  0  0  0  0
   18.7572    5.3133   12.1308 C   0  0  0  0  0  0  0  0  0  0  0  0
   20.0420    6.1954   12.1984 C   0  0  0  0  0  0  0  0  0  0  0  0
   19.6231    7.5483   12.0983 O   0  0  0  0  0  0  0  0  0  0  0  0
   20.7098    8.2675   11.4922 C   0  0  0  0  0  0  0  0  0  0  0  0
   21.7698    8.7096   12.5300 C   0  0  0  0  0  0  0  0  0  0  0  0
   20.1342    9.4634   10.7292 C   0  0  0  0  0  0  0  0  0  0  0  0
   21.2964    7.3486   10.5404 O   0  0  0  0  0  0  0  0  0  0  0  0
   20.9805    6.0100   11.0022 C   0  0  0  0  0  0  0  0  0  0  0  0
   20.3168    5.2836    9.8319 C   0  0  0  0  0  0  0  0  0  0  0  0
   18.9323    5.7223    9.6994 O   0  0  0  0  0  0  0  0  0  0  0  0
   18.0577    5.3373   10.7496 C   0  0  0  0  0  0  0  0  0  0  0  0
   16.8343    6.2845   10.6739 C   0  0  0  0  0  0  0  0  0  0  0  0
   16.0837    6.3093   11.8748 O   0  0  0  0  0  0  0  0  0  0  0  0
   15.9083    7.5626   12.6722 S   0  0  0  0  0  0  0  0  0  0  0  0
   14.4755    7.9411   12.5539 O   0  0  0  0  0  0  0  0  0  0  0  0
   16.3609    7.1906   14.0352 O   0  0  0  0  0  0  0  0  0  0  0  0
   16.8334    8.6799   11.9981 N   0  0  0  0  0  0  0  0  0  0  0  0
   16.4793    8.8978   11.0666 H   0  0  0  0  0  0  0  0  0  0  0  0
   17.7893    8.3315   11.9255 H   0  0  0  0  0  0  0  0  0  0  0  0
  1  2  1  0  0  0
  2  3  1  0  0  0
  2  4  1  0  0  0
  2  5  1  0  0  0
  4 16  1  0  0  0
  5  6  1  0  0  0
  6  7  1  0  0  0
  6 16  1  0  0  0
  7  8  1  0  0  0
  7 13  1  0  0  0
  8  9  1  0  0  0
  9 10  1  0  0  0
  9 11  1  0  0  0
  9 12  1  0  0  0
 12 13  1  0  0  0
 13 14  1  0  0  0
 14 15  1  0  0  0
 15 16  1  0  0  0
 16 17  1  0  0  0
 17 18  1  0  0  0
 18 19  1  0  0  0
 19 20  2  0  0  0
 19 21  2  0  0  0
 19 22  1  0  0  0
 22 23  1  0  0  0
 22 24  1  0  0  0
M  END
> <minimizedAffinity>
-6.47255

$$$$
3HKU_TOR_A_300


 24 26  0  0  0  0  0  0  0  0999 V2000
   19.2063    2.5343   11.3808 C   0  0  0  0  0  0  0  0  0  0  0  0
   18.1265    3.6341   11.3894 C   0  0  0  0  0  0  0  0  0  0  0  0
   16.7186    3.0361   11.2459 C   0  0  0  0  0  0  0  0  0  0  0  0
   18.4306    4.5859   10.3032 O   0  0  0  0  0  0  0  0  0  0  0  0
   18.2191    4.3649   12.6114 O   0  0  0  0  0  0  0  0  0  0  0  0
   17.7687    5.7165   12.2632 C   0  0  0  0  0  0  0  0  0  0  0  0
   18.4014    6.7279   13.2682 C   0  0  0  0  0  0  0  0  0  0  0  0
   17.9089    8.0153   12.9281 O   0  0  0  0  0  0  0  0  0  0  0  0
   18.9206    8.9562   13.3240 C   0  0  0  0  0  0  0  0  0  0  0  0
   18.8051    9.3457   14.8176 C   0  0  0  0  0  0  0  0  0  0  0  0
   18.8260   10.1824   12.4122 C   0  0  0  0  0  0  0  0  0  0  0  0
   20.1824    8.2913   13.0779 O   0  0  0  0  0  0  0  0  0  0  0  0
   19.9208    6.8653   13.1299 C   0  0  0  0  0  0  0  0  0  0  0  0
   20.4562    6.2697   11.8276 C   0  0  0  0  0  0  0  0  0  0  0  0
   19.5272    6.5483   10.7383 O   0  0  0  0  0  0  0  0  0  0  0  0
   18.2735    5.8857   10.8092 C   0  0  0  0  0  0  0  0  0  0  0  0
   17.3068    6.6720    9.8889 C   0  0  0  0  0  0  0  0  0  0  0  0
   16.0993    7.0289   10.5376 O   0  0  0  0  0  0  0  0  0  0  0  0
   15.3647    8.2885   10.2043 S   0  0  0  0  0  0  0  0  0  0  0  0
   14.4685    8.5718   11.3561 O   0  0  0  0  0  0  0  0  0  0  0  0
   16.4400    9.2836    9.9710 O   0  0  0  0  0  0  0  0  0  0  0  0
   14.5012    7.9933    8.8906 N   0  0  0  0  0  0  0  0  0  0  0  0
   13.7792    7.3056    9.1057 H   0  0  0  0  0  0  0  0  0  0  0  0
   15.1103    7.6291    8.1581 H   0  0  0  0  0  0  0  0  0  0  0  0
  1  2  1  0  0  0
  2  3  1  0  0  0
  2  4  1  0  0  0
  2  5  1  0  0  0
  4 16  1  0  0  0
  5  6  1  0  0  0
  6  7  1  0  0  0
  6 16  1  0  0  0
  7  8  1  0  0  0
  7 13  1  0  0  0
  8  9  1  0  0  0
  9 10  1  0  0  0
  9 11  1  0  0  0
  9 12  1  0  0  0
 12 13  1  0  0  0
 13 14  1  0  0  0
 14 15  1  0  0  0
 15 16  1  0  0  0
 16 17  1  0  0  0
 17 18  1  0  0  0
 18 19  1  0  0  0
 19 20  2  0  0  0
 19 21  2  0  0  0
 19 22  1  0  0  0
 22 23  1  0  0  0
 22 24  1  0  0  0
M  END
> <minimizedAffinity>
-6.36084

$$$$
