4UFH_GIF_A_1001


 14 14  0  0  0  0  0  0  0  0999 V2000
   76.0144   88.6137   19.5353 C   0  0  0  0  0  0  0  0  0  0  0  0
   76.3680   88.6707   18.1007 N   0  0  0  0  0  0  0  0  0  0  0  0
   77.1531   88.9156   20.4765 C   0  0  0  0  0  0  0  0  0  0  0  0
   78.1779   86.8631   20.3468 O   0  0  0  0  0  0  0  0  0  0  0  0
   78.3970   88.2209   20.1175 C   0  0  0  0  0  0  0  0  0  0  0  0
   76.7587   88.5600   21.7651 O   0  0  0  0  0  0  0  0  0  0  0  0
   78.7861   88.3995   18.6957 C   0  0  0  0  0  0  0  0  0  0  0  0
   77.6562   88.0554   17.7536 C   0  0  0  0  0  0  0  0  0  0  0  0
   76.4004   89.6512   17.8215 H   0  0  0  0  0  0  0  0  0  0  0  0
   77.9224   86.7286   21.2728 H   0  0  0  0  0  0  0  0  0  0  0  0
   76.5696   87.6091   21.7945 H   0  0  0  0  0  0  0  0  0  0  0  0
   80.2337   87.3110   16.9815 O   0  0  0  0  0  0  0  0  0  0  0  0
   80.0351   87.6049   18.3218 C   0  0  0  0  0  0  0  0  0  0  0  0
   81.0560   86.8067   16.8795 H   0  0  0  0  0  0  0  0  0  0  0  0
  1  2  1  0  0  0
  1  3  1  0  0  0
  2  8  1  0  0  0
 12 13  1  0  0  0
  3  5  1  0  0  0
  3  6  1  0  0  0
  4  5  1  0  0  0
  5  7  1  0  0  0
  7  8  1  0  0  0
  7 13  1  0  0  0
  2  9  1  0  0  0
 12 14  1  0  0  0
  4 10  1  0  0  0
  6 11  1  0  0  0
M  END
> <minimizedAffinity>
-7.02547

$$$$
4UFH_GIF_A_1001


 14 14  0  0  0  0  0  0  0  0999 V2000
   77.1933   89.2005   20.4670 C   0  0  0  0  0  0  0  0  0  0  0  0
   78.3439   88.3368   20.8083 N   0  0  0  0  0  0  0  0  0  0  0  0
   76.0909   88.5083   19.7059 C   0  0  0  0  0  0  0  0  0  0  0  0
   77.1053   88.5453   17.6444 O   0  0  0  0  0  0  0  0  0  0  0  0
   76.5879   87.6747   18.6028 C   0  0  0  0  0  0  0  0  0  0  0  0
   75.2209   89.4818   19.2183 O   0  0  0  0  0  0  0  0  0  0  0  0
   77.6617   86.7331   19.0091 C   0  0  0  0  0  0  0  0  0  0  0  0
   78.7850   87.4366   19.7344 C   0  0  0  0  0  0  0  0  0  0  0  0
   78.0834   87.7661   21.6126 H   0  0  0  0  0  0  0  0  0  0  0  0
   76.4153   89.1684   17.3675 H   0  0  0  0  0  0  0  0  0  0  0  0
   75.6998   90.0699   18.6136 H   0  0  0  0  0  0  0  0  0  0  0  0
   79.2205   86.5216   17.0741 O   0  0  0  0  0  0  0  0  0  0  0  0
   78.2212   85.9340   17.8345 C   0  0  0  0  0  0  0  0  0  0  0  0
   79.4863   85.9151   16.3653 H   0  0  0  0  0  0  0  0  0  0  0  0
  1  2  1  0  0  0
  1  3  1  0  0  0
  2  8  1  0  0  0
 12 13  1  0  0  0
  3  5  1  0  0  0
  3  6  1  0  0  0
  4  5  1  0  0  0
  5  7  1  0  0  0
  7  8  1  0  0  0
  7 13  1  0  0  0
  2  9  1  0  0  0
 12 14  1  0  0  0
  4 10  1  0  0  0
  6 11  1  0  0  0
M  END
> <minimizedAffinity>
-7.00619

$$$$
4UFH_GIF_A_1001


 14 14  0  0  0  0  0  0  0  0999 V2000
   77.7656   87.2446   16.8400 C   0  0  0  0  0  0  0  0  0  0  0  0
   76.5145   87.1640   17.6240 N   0  0  0  0  0  0  0  0  0  0  0  0
   79.0277   87.2209   17.6646 C   0  0  0  0  0  0  0  0  0  0  0  0
   78.9646   89.4164   18.3400 O   0  0  0  0  0  0  0  0  0  0  0  0
   78.9702   88.1116   18.8317 C   0  0  0  0  0  0  0  0  0  0  0  0
   80.0932   87.5774   16.8401 O   0  0  0  0  0  0  0  0  0  0  0  0
   77.7559   87.9193   19.6645 C   0  0  0  0  0  0  0  0  0  0  0  0
   76.4906   87.9859   18.8416 C   0  0  0  0  0  0  0  0  0  0  0  0
   76.3739   86.1911   17.8963 H   0  0  0  0  0  0  0  0  0  0  0  0
   79.7527   89.5590   17.7927 H   0  0  0  0  0  0  0  0  0  0  0  0
   79.9544   88.4762   16.5027 H   0  0  0  0  0  0  0  0  0  0  0  0
   77.2406   90.1947   20.5452 O   0  0  0  0  0  0  0  0  0  0  0  0
   77.6740   88.9079   20.8251 C   0  0  0  0  0  0  0  0  0  0  0  0
   77.2340   90.7184   21.3616 H   0  0  0  0  0  0  0  0  0  0  0  0
  1  2  1  0  0  0
  1  3  1  0  0  0
  2  8  1  0  0  0
 12 13  1  0  0  0
  3  5  1  0  0  0
  3  6  1  0  0  0
  4  5  1  0  0  0
  5  7  1  0  0  0
  7  8  1  0  0  0
  7 13  1  0  0  0
  2  9  1  0  0  0
 12 14  1  0  0  0
  4 10  1  0  0  0
  6 11  1  0  0  0
M  END
> <minimizedAffinity>
-6.24057

$$$$
4UFH_GIF_A_1001


 14 14  0  0  0  0  0  0  0  0999 V2000
   78.9827   86.8306   17.7557 C   0  0  0  0  0  0  0  0  0  0  0  0
   79.6847   87.2091   19.0008 N   0  0  0  0  0  0  0  0  0  0  0  0
   77.9821   87.8458   17.2640 C   0  0  0  0  0  0  0  0  0  0  0  0
   76.2931   87.3083   18.7262 O   0  0  0  0  0  0  0  0  0  0  0  0
   77.1146   88.3633   18.3309 C   0  0  0  0  0  0  0  0  0  0  0  0
   77.2132   87.2508   16.2655 O   0  0  0  0  0  0  0  0  0  0  0  0
   77.8616   88.8467   19.5196 C   0  0  0  0  0  0  0  0  0  0  0  0
   78.8331   87.8110   20.0356 C   0  0  0  0  0  0  0  0  0  0  0  0
   80.4140   87.8808   18.7612 H   0  0  0  0  0  0  0  0  0  0  0  0
   75.7970   86.9801   17.9600 H   0  0  0  0  0  0  0  0  0  0  0  0
   76.7357   86.4913   16.6344 H   0  0  0  0  0  0  0  0  0  0  0  0
   76.5695   88.3641   21.5972 O   0  0  0  0  0  0  0  0  0  0  0  0
   76.9412   89.3044   20.6486 C   0  0  0  0  0  0  0  0  0  0  0  0
   75.9889   88.7795   22.2540 H   0  0  0  0  0  0  0  0  0  0  0  0
  1  2  1  0  0  0
  1  3  1  0  0  0
  2  8  1  0  0  0
 12 13  1  0  0  0
  3  5  1  0  0  0
  3  6  1  0  0  0
  4  5  1  0  0  0
  5  7  1  0  0  0
  7  8  1  0  0  0
  7 13  1  0  0  0
  2  9  1  0  0  0
 12 14  1  0  0  0
  4 10  1  0  0  0
  6 11  1  0  0  0
M  END
> <minimizedAffinity>
-6.13594

$$$$
4UFH_GIF_A_1001


 14 14  0  0  0  0  0  0  0  0999 V2000
   76.6244   85.5856   17.2555 C   0  0  0  0  0  0  0  0  0  0  0  0
   77.2758   85.0261   18.4593 N   0  0  0  0  0  0  0  0  0  0  0  0
   77.3114   86.7948   16.6729 C   0  0  0  0  0  0  0  0  0  0  0  0
   76.5065   88.3305   18.1807 O   0  0  0  0  0  0  0  0  0  0  0  0
   77.6920   87.7863   17.6881 C   0  0  0  0  0  0  0  0  0  0  0  0
   76.4569   87.3711   15.7348 O   0  0  0  0  0  0  0  0  0  0  0  0
   78.4507   87.2078   18.8260 C   0  0  0  0  0  0  0  0  0  0  0  0
   77.7388   86.0223   19.4347 C   0  0  0  0  0  0  0  0  0  0  0  0
   78.0828   84.4801   18.1574 H   0  0  0  0  0  0  0  0  0  0  0  0
   75.9978   88.7133   17.4489 H   0  0  0  0  0  0  0  0  0  0  0  0
   75.6393   87.6543   16.1733 H   0  0  0  0  0  0  0  0  0  0  0  0
   77.8385   88.4071   20.9249 O   0  0  0  0  0  0  0  0  0  0  0  0
   78.7660   88.2371   19.9087 C   0  0  0  0  0  0  0  0  0  0  0  0
   78.1562   89.0841   21.5428 H   0  0  0  0  0  0  0  0  0  0  0  0
  1  2  1  0  0  0
  1  3  1  0  0  0
  2  8  1  0  0  0
 12 13  1  0  0  0
  3  5  1  0  0  0
  3  6  1  0  0  0
  4  5  1  0  0  0
  5  7  1  0  0  0
  7  8  1  0  0  0
  7 13  1  0  0  0
  2  9  1  0  0  0
 12 14  1  0  0  0
  4 10  1  0  0  0
  6 11  1  0  0  0
M  END
> <minimizedAffinity>
-5.69331

$$$$
4UFH_GIF_A_1001


 14 14  0  0  0  0  0  0  0  0999 V2000
   78.5763   88.9733   19.3531 C   0  0  0  0  0  0  0  0  0  0  0  0
   79.1818   88.7422   18.0242 N   0  0  0  0  0  0  0  0  0  0  0  0
   77.9235   87.7605   19.9667 C   0  0  0  0  0  0  0  0  0  0  0  0
   75.9800   87.8369   18.7432 O   0  0  0  0  0  0  0  0  0  0  0  0
   77.0765   87.0214   19.0206 C   0  0  0  0  0  0  0  0  0  0  0  0
   77.1692   88.1790   21.0614 O   0  0  0  0  0  0  0  0  0  0  0  0
   77.7580   86.7008   17.7409 C   0  0  0  0  0  0  0  0  0  0  0  0
   78.3747   87.9259   17.1073 C   0  0  0  0  0  0  0  0  0  0  0  0
   80.0767   88.2723   18.1616 H   0  0  0  0  0  0  0  0  0  0  0  0
   75.5227   88.0561   19.5700 H   0  0  0  0  0  0  0  0  0  0  0  0
   76.4785   88.7912   20.7630 H   0  0  0  0  0  0  0  0  0  0  0  0
   76.1558   86.8008   15.8326 O   0  0  0  0  0  0  0  0  0  0  0  0
   76.8377   86.0055   16.7406 C   0  0  0  0  0  0  0  0  0  0  0  0
   75.6101   86.2410   15.2583 H   0  0  0  0  0  0  0  0  0  0  0  0
  1  2  1  0  0  0
  1  3  1  0  0  0
  2  8  1  0  0  0
 12 13  1  0  0  0
  3  5  1  0  0  0
  3  6  1  0  0  0
  4  5  1  0  0  0
  5  7  1  0  0  0
  7  8  1  0  0  0
  7 13  1  0  0  0
  2  9  1  0  0  0
 12 14  1  0  0  0
  4 10  1  0  0  0
  6 11  1  0  0  0
M  END
> <minimizedAffinity>
-5.55570

$$$$
4UFH_GIF_A_1001


 14 14  0  0  0  0  0  0  0  0999 V2000
   78.9846   87.4927   19.7595 C   0  0  0  0  0  0  0  0  0  0  0  0
   78.3500   86.2182   20.1586 N   0  0  0  0  0  0  0  0  0  0  0  0
   78.3417   88.1727   18.5773 C   0  0  0  0  0  0  0  0  0  0  0  0
   79.2833   86.8549   16.9473 O   0  0  0  0  0  0  0  0  0  0  0  0
   78.0528   87.2516   17.4697 C   0  0  0  0  0  0  0  0  0  0  0  0
   79.1899   89.1912   18.1465 O   0  0  0  0  0  0  0  0  0  0  0  0
   77.3076   86.0373   17.8880 C   0  0  0  0  0  0  0  0  0  0  0  0
   77.9776   85.3345   19.0455 C   0  0  0  0  0  0  0  0  0  0  0  0
   77.5043   86.4372   20.6852 H   0  0  0  0  0  0  0  0  0  0  0  0
   79.7838   87.6377   16.6687 H   0  0  0  0  0  0  0  0  0  0  0  0
   80.0373   88.8101   17.8680 H   0  0  0  0  0  0  0  0  0  0  0  0
   78.0946   84.1387   16.4757 O   0  0  0  0  0  0  0  0  0  0  0  0
   77.0883   85.0551   16.7399 C   0  0  0  0  0  0  0  0  0  0  0  0
   77.8330   83.5776   15.7289 H   0  0  0  0  0  0  0  0  0  0  0  0
  1  2  1  0  0  0
  1  3  1  0  0  0
  2  8  1  0  0  0
 12 13  1  0  0  0
  3  5  1  0  0  0
  3  6  1  0  0  0
  4  5  1  0  0  0
  5  7  1  0  0  0
  7  8  1  0  0  0
  7 13  1  0  0  0
  2  9  1  0  0  0
 12 14  1  0  0  0
  4 10  1  0  0  0
  6 11  1  0  0  0
M  END
> <minimizedAffinity>
-5.50931

$$$$
4UFH_GIF_A_1001


 14 14  0  0  0  0  0  0  0  0999 V2000
   77.3040   87.9826   17.1342 C   0  0  0  0  0  0  0  0  0  0  0  0
   76.5914   86.7567   16.7151 N   0  0  0  0  0  0  0  0  0  0  0  0
   78.6135   87.7387   17.8409 C   0  0  0  0  0  0  0  0  0  0  0  0
   77.7306   87.1987   19.8924 O   0  0  0  0  0  0  0  0  0  0  0  0
   78.5279   86.6910   18.8673 C   0  0  0  0  0  0  0  0  0  0  0  0
   79.0295   88.9394   18.4133 O   0  0  0  0  0  0  0  0  0  0  0  0
   77.9151   85.4303   18.3773 C   0  0  0  0  0  0  0  0  0  0  0  0
   76.5829   85.6733   17.7073 C   0  0  0  0  0  0  0  0  0  0  0  0
   77.0370   86.4059   15.8673 H   0  0  0  0  0  0  0  0  0  0  0  0
   78.1174   88.0239   20.2244 H   0  0  0  0  0  0  0  0  0  0  0  0
   78.3713   89.2333   19.0624 H   0  0  0  0  0  0  0  0  0  0  0  0
   78.3815   84.6293   20.6924 O   0  0  0  0  0  0  0  0  0  0  0  0
   77.7605   84.3831   19.4776 C   0  0  0  0  0  0  0  0  0  0  0  0
   78.2070   83.8934   21.2998 H   0  0  0  0  0  0  0  0  0  0  0  0
  1  2  1  0  0  0
  1  3  1  0  0  0
  2  8  1  0  0  0
 12 13  1  0  0  0
  3  5  1  0  0  0
  3  6  1  0  0  0
  4  5  1  0  0  0
  5  7  1  0  0  0
  7  8  1  0  0  0
  7 13  1  0  0  0
  2  9  1  0  0  0
 12 14  1  0  0  0
  4 10  1  0  0  0
  6 11  1  0  0  0
M  END
> <minimizedAffinity>
-5.19651

$$$$
4UFH_GIF_A_1001


 14 14  0  0  0  0  0  0  0  0999 V2000
   78.4757   88.3093   17.8069 C   0  0  0  0  0  0  0  0  0  0  0  0
   78.9919   88.1247   19.1802 N   0  0  0  0  0  0  0  0  0  0  0  0
   77.2587   87.4830   17.4759 C   0  0  0  0  0  0  0  0  0  0  0  0
   78.3564   85.4977   17.1106 O   0  0  0  0  0  0  0  0  0  0  0  0
   77.3763   86.0844   17.9101 C   0  0  0  0  0  0  0  0  0  0  0  0
   77.0533   87.5430   16.0987 O   0  0  0  0  0  0  0  0  0  0  0  0
   77.7807   85.9373   19.3313 C   0  0  0  0  0  0  0  0  0  0  0  0
   79.0251   86.7329   19.6494 C   0  0  0  0  0  0  0  0  0  0  0  0
   78.3990   88.6588   19.8155 H   0  0  0  0  0  0  0  0  0  0  0  0
   78.1073   85.5851   16.1772 H   0  0  0  0  0  0  0  0  0  0  0  0
   77.8220   87.1688   15.6405 H   0  0  0  0  0  0  0  0  0  0  0  0
   77.9672   84.1850   21.0957 O   0  0  0  0  0  0  0  0  0  0  0  0
   77.9766   84.4797   19.7410 C   0  0  0  0  0  0  0  0  0  0  0  0
   78.1008   83.2323   21.2203 H   0  0  0  0  0  0  0  0  0  0  0  0
  1  2  1  0  0  0
  1  3  1  0  0  0
  2  8  1  0  0  0
 12 13  1  0  0  0
  3  5  1  0  0  0
  3  6  1  0  0  0
  4  5  1  0  0  0
  5  7  1  0  0  0
  7  8  1  0  0  0
  7 13  1  0  0  0
  2  9  1  0  0  0
 12 14  1  0  0  0
  4 10  1  0  0  0
  6 11  1  0  0  0
M  END
> <minimizedAffinity>
-5.15900

$$$$
4UFH_GIF_A_1001


 14 14  0  0  0  0  0  0  0  0999 V2000
   78.1915   85.9698   17.2545 C   0  0  0  0  0  0  0  0  0  0  0  0
   77.6715   87.2713   16.7834 N   0  0  0  0  0  0  0  0  0  0  0  0
   77.5374   85.4476   18.5087 C   0  0  0  0  0  0  0  0  0  0  0  0
   78.6804   86.7743   19.9964 O   0  0  0  0  0  0  0  0  0  0  0  0
   77.3937   86.4713   19.5527 C   0  0  0  0  0  0  0  0  0  0  0  0
   78.2970   84.3800   18.9837 O   0  0  0  0  0  0  0  0  0  0  0  0
   76.7569   87.7232   19.0712 C   0  0  0  0  0  0  0  0  0  0  0  0
   77.4413   88.2670   17.8389 C   0  0  0  0  0  0  0  0  0  0  0  0
   76.7850   87.1043   16.3073 H   0  0  0  0  0  0  0  0  0  0  0  0
   79.1113   85.9657   20.3150 H   0  0  0  0  0  0  0  0  0  0  0  0
   79.1903   84.6898   19.2001 H   0  0  0  0  0  0  0  0  0  0  0  0
   76.5911   88.3908   21.4682 O   0  0  0  0  0  0  0  0  0  0  0  0
   76.6904   88.8033   20.1483 C   0  0  0  0  0  0  0  0  0  0  0  0
   76.5573   89.1677   22.0481 H   0  0  0  0  0  0  0  0  0  0  0  0
  1  2  1  0  0  0
  1  3  1  0  0  0
  2  8  1  0  0  0
 12 13  1  0  0  0
  3  5  1  0  0  0
  3  6  1  0  0  0
  4  5  1  0  0  0
  5  7  1  0  0  0
  7  8  1  0  0  0
  7 13  1  0  0  0
  2  9  1  0  0  0
 12 14  1  0  0  0
  4 10  1  0  0  0
  6 11  1  0  0  0
M  END
> <minimizedAffinity>
-5.13292

$$$$
