4EGK_RDC_A_301


 27 29  0  0  0  0  0  0  0  0999 V2000
   11.0452   -4.7997   12.3117 C   0  0  0  0  0  0  0  0  0  0  0  0
    9.7844   -5.4171   12.7202 C   0  0  0  0  0  0  0  0  0  0  0  0
    8.6046   -4.5753   12.7604 C   0  0  0  0  0  0  0  0  0  0  0  0
    7.4003   -5.1072   13.1658 C   0  0  0  0  0  0  0  0  0  0  0  0
    7.2530   -6.4284   13.4768 C   0  0  0  0  0  0  0  0  0  0  0  0
    8.3856   -7.3049   13.4006 C   0  0  0  0  0  0  0  0  0  0  0  0
    9.6886   -6.8316   13.0673 C   0  0  0  0  0  0  0  0  0  0  0  0
   10.7993   -7.8240   13.0611 C   0  0  0  0  0  0  0  0  0  0  0  0
   11.0510   -8.6637   14.3003 C   0  0  0  0  0  0  0  0  0  0  0  0
   11.3122   -8.0480   15.6099 C   0  0  0  0  0  0  0  0  0  0  0  0
   11.2577   -6.7762   15.9032 C   0  0  0  0  0  0  0  0  0  0  0  0
   11.6129   -6.2835   17.2217 C   0  0  0  0  0  0  0  0  0  0  0  0
   11.9875   -5.0247   17.4120 C   0  0  0  0  0  0  0  0  0  0  0  0
   12.0348   -4.0395   16.2771 C   0  0  0  0  0  0  0  0  0  0  0  0
   13.3867   -4.0288   15.6273 C   0  0  0  0  0  0  0  0  0  0  0  0
   13.5696   -3.4658   14.2332 C   0  0  0  0  0  0  0  0  0  0  0  0
   13.2876   -4.4727   13.1275 C   0  0  0  0  0  0  0  0  0  0  0  0
   14.2407   -5.6380   13.1834 C   0  0  0  0  0  0  0  0  0  0  0  0
   11.9867   -4.9647   13.3366 O   0  0  0  0  0  0  0  0  0  0  0  0
   11.2265   -4.2914   11.2735 O   0  0  0  0  0  0  0  0  0  0  0  0
    8.7678   -3.3125   12.4062 O   0  0  0  0  0  0  0  0  0  0  0  0
    6.1016   -6.9445   13.8321 O   0  0  0  0  0  0  0  0  0  0  0  0
    8.1192   -8.9785   13.7813 Cl  0  0  0  0  0  0  0  0  0  0  0  0
   11.1764   -9.8102   14.1834 O   0  0  0  0  0  0  0  0  0  0  0  0
   12.9674   -3.0192   16.5106 O   0  0  0  0  0  0  0  0  0  0  0  0
    9.6120   -3.0063   12.1388 H   0  0  0  0  0  0  0  0  0  0  0  0
    5.3421   -6.3990   13.8915 H   0  0  0  0  0  0  0  0  0  0  0  0
  1  2  1  0  0  0
  1 19  1  0  0  0
  1 20  2  0  0  0
  2  3  2  0  0  0
  2  7  1  0  0  0
  3  4  1  0  0  0
  3 21  1  0  0  0
  4  5  2  0  0  0
  5  6  1  0  0  0
  5 22  1  0  0  0
  6  7  2  0  0  0
  6 23  1  0  0  0
  7  8  1  0  0  0
  8  9  1  0  0  0
  9 10  1  0  0  0
  9 24  2  0  0  0
 10 11  2  0  0  0
 11 12  1  0  0  0
 12 13  2  0  0  0
 13 14  1  0  0  0
 14 15  1  0  0  0
 14 25  1  0  0  0
 15 16  1  0  0  0
 15 25  1  0  0  0
 16 17  1  0  0  0
 17 18  1  0  0  0
 17 19  1  0  0  0
 21 26  1  0  0  0
 22 27  1  0  0  0
M  END
> <minimizedAffinity>
-11.62983

$$$$
4EGK_RDC_A_301


 27 29  0  0  0  0  0  0  0  0999 V2000
   10.6851   -8.0381   14.5683 C   0  0  0  0  0  0  0  0  0  0  0  0
   11.2454   -6.8136   15.1379 C   0  0  0  0  0  0  0  0  0  0  0  0
   11.2689   -6.6925   16.5825 C   0  0  0  0  0  0  0  0  0  0  0  0
   11.7624   -5.5449   17.1631 C   0  0  0  0  0  0  0  0  0  0  0  0
   12.2963   -4.5257   16.4280 C   0  0  0  0  0  0  0  0  0  0  0  0
   12.3376   -4.6293   14.9982 C   0  0  0  0  0  0  0  0  0  0  0  0
   11.7805   -5.7425   14.3029 C   0  0  0  0  0  0  0  0  0  0  0  0
   11.8410   -5.7235   12.8149 C   0  0  0  0  0  0  0  0  0  0  0  0
   11.2688   -4.5348   12.0640 C   0  0  0  0  0  0  0  0  0  0  0  0
    9.8695   -4.1157   12.2336 C   0  0  0  0  0  0  0  0  0  0  0  0
    9.0030   -4.6012   13.0822 C   0  0  0  0  0  0  0  0  0  0  0  0
    7.6226   -4.1524   13.1007 C   0  0  0  0  0  0  0  0  0  0  0  0
    6.6572   -4.9055   13.6124 C   0  0  0  0  0  0  0  0  0  0  0  0
    6.9492   -6.2476   14.2241 C   0  0  0  0  0  0  0  0  0  0  0  0
    6.8491   -7.3404   13.2014 C   0  0  0  0  0  0  0  0  0  0  0  0
    7.4980   -8.6873   13.4437 C   0  0  0  0  0  0  0  0  0  0  0  0
    8.9635   -8.7397   13.0371 C   0  0  0  0  0  0  0  0  0  0  0  0
    9.1368   -8.5067   11.5589 C   0  0  0  0  0  0  0  0  0  0  0  0
    9.6210   -7.7013   13.7209 O   0  0  0  0  0  0  0  0  0  0  0  0
   11.1021   -9.1124   14.7709 O   0  0  0  0  0  0  0  0  0  0  0  0
   10.7910   -7.7159   17.2687 O   0  0  0  0  0  0  0  0  0  0  0  0
   12.7958   -3.4462   16.9788 O   0  0  0  0  0  0  0  0  0  0  0  0
   13.0574   -3.3092   14.1288 Cl  0  0  0  0  0  0  0  0  0  0  0  0
   11.9092   -4.0337   11.2379 O   0  0  0  0  0  0  0  0  0  0  0  0
    5.8423   -7.1051   14.1534 O   0  0  0  0  0  0  0  0  0  0  0  0
   10.4681   -8.4717   16.8189 H   0  0  0  0  0  0  0  0  0  0  0  0
   12.7843   -3.3475   17.9105 H   0  0  0  0  0  0  0  0  0  0  0  0
  1  2  1  0  0  0
  1 19  1  0  0  0
  1 20  2  0  0  0
  2  3  2  0  0  0
  2  7  1  0  0  0
  3  4  1  0  0  0
  3 21  1  0  0  0
  4  5  2  0  0  0
  5  6  1  0  0  0
  5 22  1  0  0  0
  6  7  2  0  0  0
  6 23  1  0  0  0
  7  8  1  0  0  0
  8  9  1  0  0  0
  9 10  1  0  0  0
  9 24  2  0  0  0
 10 11  2  0  0  0
 11 12  1  0  0  0
 12 13  2  0  0  0
 13 14  1  0  0  0
 14 15  1  0  0  0
 14 25  1  0  0  0
 15 16  1  0  0  0
 15 25  1  0  0  0
 16 17  1  0  0  0
 17 18  1  0  0  0
 17 19  1  0  0  0
 21 26  1  0  0  0
 22 27  1  0  0  0
M  END
> <minimizedAffinity>
-9.02242

$$$$
