4MC6_23K_A_101


 39 41  0  0  0  0  0  0  0  0999 V2000
   13.0503   24.2302    4.8365 C   0  0  0  0  0  0  0  0  0  0  0  0
   13.5588   25.4407    4.2932 O   0  0  0  0  0  0  0  0  0  0  0  0
   13.5385   25.3940    3.3245 H   0  0  0  0  0  0  0  0  0  0  0  0
   13.9765   23.0878    4.4665 C   0  0  0  0  0  0  0  0  0  0  0  0
   15.8786   18.7832    2.2418 C   0  0  0  0  0  0  0  0  0  0  0  0
   16.9885   18.6084    3.0371 C   0  0  0  0  0  0  0  0  0  0  0  0
   17.0231   18.9989    4.3564 C   0  0  0  0  0  0  0  0  0  0  0  0
   15.9155   19.6045    4.9194 C   0  0  0  0  0  0  0  0  0  0  0  0
   14.8084   19.7691    4.1044 C   0  0  0  0  0  0  0  0  0  0  0  0
   14.7624   19.3790    2.7809 C   0  0  0  0  0  0  0  0  0  0  0  0
   18.0686   18.0185    2.5154 F   0  0  0  0  0  0  0  0  0  0  0  0
   15.9906   19.9967    6.3631 C   0  0  0  0  0  0  0  0  0  0  0  0
   13.3285   20.4873    4.7724 S   0  0  0  0  0  0  0  0  0  0  0  0
   13.8064   21.9665    5.3935 N   0  0  0  0  0  0  0  0  0  0  0  0
   12.3975   20.6813    3.6862 O   0  0  0  0  0  0  0  0  0  0  0  0
   12.9349   19.6730    5.9068 O   0  0  0  0  0  0  0  0  0  0  0  0
   14.5043   21.9888    6.6855 C   0  0  0  0  0  0  0  0  0  0  0  0
   15.9416   21.4889    6.6168 C   0  0  0  0  0  0  0  0  0  0  0  0
   16.5731   21.7418    7.9786 C   0  0  0  0  0  0  0  0  0  0  0  0
   15.7120   21.3481    9.1542 C   0  0  0  0  0  0  0  0  0  0  0  0
   17.8612   20.9945    8.1531 C   0  0  0  0  0  0  0  0  0  0  0  0
   11.5526   24.0650    4.5209 C   0  0  0  0  0  0  0  0  0  0  0  0
   10.7844   24.9856    5.3489 N   0  0  0  0  0  0  0  0  0  0  0  0
   10.4015   24.6505    6.6332 C   0  0  0  0  0  0  0  0  0  0  0  0
    9.6605   25.6372    7.2639 N   0  0  0  0  0  0  0  0  0  0  0  0
   10.7373   23.6111    7.1761 O   0  0  0  0  0  0  0  0  0  0  0  0
   10.5329   25.8653    4.9852 H   0  0  0  0  0  0  0  0  0  0  0  0
    9.3896   26.4146    6.7239 H   0  0  0  0  0  0  0  0  0  0  0  0
    9.2536   25.6172    8.6490 C   0  0  0  0  0  0  0  0  0  0  0  0
    8.2431   24.5211    8.9285 C   0  0  0  0  0  0  0  0  0  0  0  0
   10.4434   25.4401    9.5670 C   0  0  0  0  0  0  0  0  0  0  0  0
    8.6468   26.9778    8.9414 C   0  0  0  0  0  0  0  0  0  0  0  0
   11.1685   24.1979    3.0465 C   0  0  0  0  0  0  0  0  0  0  0  0
    9.7512   23.7792    2.8349 C   0  0  0  0  0  0  0  0  0  0  0  0
    9.4058   22.4544    3.0279 C   0  0  0  0  0  0  0  0  0  0  0  0
    8.0937   22.0580    2.8789 C   0  0  0  0  0  0  0  0  0  0  0  0
    7.1379   22.9894    2.5326 C   0  0  0  0  0  0  0  0  0  0  0  0
    7.4823   24.3037    2.3217 C   0  0  0  0  0  0  0  0  0  0  0  0
    8.7934   24.7058    2.4605 C   0  0  0  0  0  0  0  0  0  0  0  0
  5 10  2  0  0  0
  5  6  1  0  0  0
 38 39  2  0  0  0
 38 37  1  0  0  0
 11  6  1  0  0  0
 39 34  1  0  0  0
 10  9  1  0  0  0
 37 36  2  0  0  0
 34 33  1  0  0  0
 34 35  2  0  0  0
  6  7  2  0  0  0
 36 35  1  0  0  0
 33 22  1  0  0  0
 15 13  2  0  0  0
  9 13  1  0  0  0
  9  8  2  0  0  0
  2  1  1  0  0  0
  7  8  1  0  0  0
  4  1  1  0  0  0
  4 14  1  0  0  0
 22  1  1  0  0  0
 22 23  1  0  0  0
 13 14  1  0  0  0
 13 16  2  0  0  0
  8 12  1  0  0  0
 23 24  1  0  0  0
 14 17  1  0  0  0
 12 18  1  0  0  0
 24 25  1  0  0  0
 24 26  2  0  0  0
 17 18  1  0  0  0
 18 19  1  0  0  0
 25 29  1  0  0  0
 19 20  1  0  0  0
 19 21  1  0  0  0
 29 32  1  0  0  0
 29 30  1  0  0  0
 29 31  1  0  0  0
  2  3  1  0  0  0
 23 27  1  0  0  0
 25 28  1  0  0  0
M  END
> <minimizedAffinity>
-11.54433

$$$$
4MC6_23K_A_101


 39 41  0  0  0  0  0  0  0  0999 V2000
   12.8985   24.5508    5.7806 C   0  0  0  0  0  0  0  0  0  0  0  0
   13.1286   25.7026    4.9807 O   0  0  0  0  0  0  0  0  0  0  0  0
   12.6415   25.6192    4.1461 H   0  0  0  0  0  0  0  0  0  0  0  0
   13.4856   23.3358    5.0886 C   0  0  0  0  0  0  0  0  0  0  0  0
   15.1020   19.1713    2.4163 C   0  0  0  0  0  0  0  0  0  0  0  0
   16.2931   18.9512    3.0704 C   0  0  0  0  0  0  0  0  0  0  0  0
   16.4777   19.2635    4.3980 C   0  0  0  0  0  0  0  0  0  0  0  0
   15.4436   19.8338    5.1162 C   0  0  0  0  0  0  0  0  0  0  0  0
   14.2530   20.0450    4.4417 C   0  0  0  0  0  0  0  0  0  0  0  0
   14.0567   19.7333    3.1113 C   0  0  0  0  0  0  0  0  0  0  0  0
   17.3046   18.3940    2.3970 F   0  0  0  0  0  0  0  0  0  0  0  0
   15.6824   20.1406    6.5629 C   0  0  0  0  0  0  0  0  0  0  0  0
   12.8614   20.7211    5.3126 S   0  0  0  0  0  0  0  0  0  0  0  0
   13.4143   22.1618    5.9616 N   0  0  0  0  0  0  0  0  0  0  0  0
   11.8156   20.9777    4.3511 O   0  0  0  0  0  0  0  0  0  0  0  0
   12.5930   19.8412    6.4344 O   0  0  0  0  0  0  0  0  0  0  0  0
   14.2527   22.1089    7.1661 C   0  0  0  0  0  0  0  0  0  0  0  0
   15.6704   21.6152    6.9073 C   0  0  0  0  0  0  0  0  0  0  0  0
   16.4522   21.7883    8.2020 C   0  0  0  0  0  0  0  0  0  0  0  0
   15.7315   21.3131    9.4403 C   0  0  0  0  0  0  0  0  0  0  0  0
   17.7537   21.0443    8.1815 C   0  0  0  0  0  0  0  0  0  0  0  0
   11.4293   24.4731    6.2339 C   0  0  0  0  0  0  0  0  0  0  0  0
   10.7450   23.4415    5.4653 N   0  0  0  0  0  0  0  0  0  0  0  0
    9.7203   23.7541    4.5933 C   0  0  0  0  0  0  0  0  0  0  0  0
    9.1727   22.6470    3.9647 N   0  0  0  0  0  0  0  0  0  0  0  0
    9.3756   24.9002    4.3576 O   0  0  0  0  0  0  0  0  0  0  0  0
   11.0188   22.5016    5.5698 H   0  0  0  0  0  0  0  0  0  0  0  0
    9.4766   21.7600    4.2646 H   0  0  0  0  0  0  0  0  0  0  0  0
    8.1927   22.6896    2.9055 C   0  0  0  0  0  0  0  0  0  0  0  0
    6.7802   22.5185    3.4311 C   0  0  0  0  0  0  0  0  0  0  0  0
    8.2794   23.9865    2.1306 C   0  0  0  0  0  0  0  0  0  0  0  0
    8.5380   21.5607    1.9508 C   0  0  0  0  0  0  0  0  0  0  0  0
   11.2094   24.2794    7.7350 C   0  0  0  0  0  0  0  0  0  0  0  0
   10.0519   25.0972    8.2043 C   0  0  0  0  0  0  0  0  0  0  0  0
   10.2364   26.4457    8.4475 C   0  0  0  0  0  0  0  0  0  0  0  0
    9.1690   27.2252    8.8400 C   0  0  0  0  0  0  0  0  0  0  0  0
    7.9260   26.6481    8.9915 C   0  0  0  0  0  0  0  0  0  0  0  0
    7.7442   25.3036    8.7685 C   0  0  0  0  0  0  0  0  0  0  0  0
    8.8084   24.5163    8.3841 C   0  0  0  0  0  0  0  0  0  0  0  0
  5 10  2  0  0  0
  5  6  1  0  0  0
 38 39  2  0  0  0
 38 37  1  0  0  0
 11  6  1  0  0  0
 39 34  1  0  0  0
 10  9  1  0  0  0
 37 36  2  0  0  0
 34 33  1  0  0  0
 34 35  2  0  0  0
  6  7  2  0  0  0
 36 35  1  0  0  0
 33 22  1  0  0  0
 15 13  2  0  0  0
  9 13  1  0  0  0
  9  8  2  0  0  0
  2  1  1  0  0  0
  7  8  1  0  0  0
  4  1  1  0  0  0
  4 14  1  0  0  0
 22  1  1  0  0  0
 22 23  1  0  0  0
 13 14  1  0  0  0
 13 16  2  0  0  0
  8 12  1  0  0  0
 23 24  1  0  0  0
 14 17  1  0  0  0
 12 18  1  0  0  0
 24 25  1  0  0  0
 24 26  2  0  0  0
 17 18  1  0  0  0
 18 19  1  0  0  0
 25 29  1  0  0  0
 19 20  1  0  0  0
 19 21  1  0  0  0
 29 32  1  0  0  0
 29 30  1  0  0  0
 29 31  1  0  0  0
  2  3  1  0  0  0
 23 27  1  0  0  0
 25 28  1  0  0  0
M  END
> <minimizedAffinity>
-10.95575

$$$$
4MC6_23K_A_101


 39 41  0  0  0  0  0  0  0  0999 V2000
   10.9911   22.0815    3.8489 C   0  0  0  0  0  0  0  0  0  0  0  0
   10.2270   20.9796    3.3785 O   0  0  0  0  0  0  0  0  0  0  0  0
    9.7513   20.5755    4.1210 H   0  0  0  0  0  0  0  0  0  0  0  0
   12.0659   21.5782    4.7930 C   0  0  0  0  0  0  0  0  0  0  0  0
   15.4008   21.7121    8.7877 C   0  0  0  0  0  0  0  0  0  0  0  0
   16.1289   20.5820    8.4916 C   0  0  0  0  0  0  0  0  0  0  0  0
   16.3275   20.1459    7.2014 C   0  0  0  0  0  0  0  0  0  0  0  0
   15.7709   20.8482    6.1491 C   0  0  0  0  0  0  0  0  0  0  0  0
   15.0443   21.9832    6.4669 C   0  0  0  0  0  0  0  0  0  0  0  0
   14.8411   22.4305    7.7571 C   0  0  0  0  0  0  0  0  0  0  0  0
   16.6824   19.8912    9.4933 F   0  0  0  0  0  0  0  0  0  0  0  0
   16.0276   20.3483    4.7606 C   0  0  0  0  0  0  0  0  0  0  0  0
   14.3469   22.9692    5.1655 S   0  0  0  0  0  0  0  0  0  0  0  0
   13.3974   21.9114    4.2813 N   0  0  0  0  0  0  0  0  0  0  0  0
   13.5237   23.9889    5.7711 O   0  0  0  0  0  0  0  0  0  0  0  0
   15.4405   23.3635    4.2976 O   0  0  0  0  0  0  0  0  0  0  0  0
   14.0602   20.9920    3.3475 C   0  0  0  0  0  0  0  0  0  0  0  0
   14.7986   19.8481    4.0308 C   0  0  0  0  0  0  0  0  0  0  0  0
   15.2706   18.8990    2.9383 C   0  0  0  0  0  0  0  0  0  0  0  0
   14.9181   19.3298    1.5352 C   0  0  0  0  0  0  0  0  0  0  0  0
   16.7596   18.7237    2.9449 C   0  0  0  0  0  0  0  0  0  0  0  0
   10.0797   23.2181    4.3465 C   0  0  0  0  0  0  0  0  0  0  0  0
   10.7398   23.9165    5.4417 N   0  0  0  0  0  0  0  0  0  0  0  0
   10.0162   24.4975    6.4650 C   0  0  0  0  0  0  0  0  0  0  0  0
   10.8069   25.1353    7.4078 N   0  0  0  0  0  0  0  0  0  0  0  0
    8.8036   24.4032    6.5573 O   0  0  0  0  0  0  0  0  0  0  0  0
   11.7225   23.9756    5.4527 H   0  0  0  0  0  0  0  0  0  0  0  0
   11.7696   25.2093    7.2155 H   0  0  0  0  0  0  0  0  0  0  0  0
   10.3328   25.6999    8.6490 C   0  0  0  0  0  0  0  0  0  0  0  0
    9.6939   27.0607    8.4468 C   0  0  0  0  0  0  0  0  0  0  0  0
    9.3381   24.7810    9.3243 C   0  0  0  0  0  0  0  0  0  0  0  0
   11.5413   25.8174    9.5605 C   0  0  0  0  0  0  0  0  0  0  0  0
    9.6012   24.1995    3.2755 C   0  0  0  0  0  0  0  0  0  0  0  0
    8.2000   23.8860    2.8667 C   0  0  0  0  0  0  0  0  0  0  0  0
    7.5033   22.9072    3.5509 C   0  0  0  0  0  0  0  0  0  0  0  0
    6.1942   22.6342    3.2152 C   0  0  0  0  0  0  0  0  0  0  0  0
    5.5938   23.3391    2.1937 C   0  0  0  0  0  0  0  0  0  0  0  0
    6.2906   24.2998    1.4995 C   0  0  0  0  0  0  0  0  0  0  0  0
    7.6023   24.5723    1.8237 C   0  0  0  0  0  0  0  0  0  0  0  0
  5 10  2  0  0  0
  5  6  1  0  0  0
 38 39  2  0  0  0
 38 37  1  0  0  0
 11  6  1  0  0  0
 39 34  1  0  0  0
 10  9  1  0  0  0
 37 36  2  0  0  0
 34 33  1  0  0  0
 34 35  2  0  0  0
  6  7  2  0  0  0
 36 35  1  0  0  0
 33 22  1  0  0  0
 15 13  2  0  0  0
  9 13  1  0  0  0
  9  8  2  0  0  0
  2  1  1  0  0  0
  7  8  1  0  0  0
  4  1  1  0  0  0
  4 14  1  0  0  0
 22  1  1  0  0  0
 22 23  1  0  0  0
 13 14  1  0  0  0
 13 16  2  0  0  0
  8 12  1  0  0  0
 23 24  1  0  0  0
 14 17  1  0  0  0
 12 18  1  0  0  0
 24 25  1  0  0  0
 24 26  2  0  0  0
 17 18  1  0  0  0
 18 19  1  0  0  0
 25 29  1  0  0  0
 19 20  1  0  0  0
 19 21  1  0  0  0
 29 32  1  0  0  0
 29 30  1  0  0  0
 29 31  1  0  0  0
  2  3  1  0  0  0
 23 27  1  0  0  0
 25 28  1  0  0  0
M  END
> <minimizedAffinity>
-10.79147

$$$$
4MC6_23K_A_101


 39 41  0  0  0  0  0  0  0  0999 V2000
   14.4512   22.6620    4.2400 C   0  0  0  0  0  0  0  0  0  0  0  0
   15.5756   23.4751    3.9337 O   0  0  0  0  0  0  0  0  0  0  0  0
   16.0817   23.6453    4.7434 H   0  0  0  0  0  0  0  0  0  0  0  0
   13.5123   23.4292    5.1509 C   0  0  0  0  0  0  0  0  0  0  0  0
   10.6050   25.9684    8.6433 C   0  0  0  0  0  0  0  0  0  0  0  0
    9.5951   26.3909    7.8086 C   0  0  0  0  0  0  0  0  0  0  0  0
    9.2037   25.6766    6.6993 C   0  0  0  0  0  0  0  0  0  0  0  0
    9.8463   24.4937    6.3861 C   0  0  0  0  0  0  0  0  0  0  0  0
   10.8574   24.0842    7.2388 C   0  0  0  0  0  0  0  0  0  0  0  0
   11.2562   24.7918    8.3551 C   0  0  0  0  0  0  0  0  0  0  0  0
    8.9550   27.5287    8.0963 F   0  0  0  0  0  0  0  0  0  0  0  0
    9.3757   23.7397    5.1803 C   0  0  0  0  0  0  0  0  0  0  0  0
   11.6907   22.5464    6.9338 S   0  0  0  0  0  0  0  0  0  0  0  0
   12.2771   22.6734    5.3710 N   0  0  0  0  0  0  0  0  0  0  0  0
   12.7857   22.4397    7.8686 O   0  0  0  0  0  0  0  0  0  0  0  0
   10.6758   21.5100    6.9091 O   0  0  0  0  0  0  0  0  0  0  0  0
   11.3397   22.4864    4.2561 C   0  0  0  0  0  0  0  0  0  0  0  0
   10.3840   23.6553    4.0535 C   0  0  0  0  0  0  0  0  0  0  0  0
    9.6121   23.3899    2.7686 C   0  0  0  0  0  0  0  0  0  0  0  0
    8.7436   22.1556    2.8001 C   0  0  0  0  0  0  0  0  0  0  0  0
    8.6936   24.5212    2.4158 C   0  0  0  0  0  0  0  0  0  0  0  0
   14.8878   21.2551    4.6873 C   0  0  0  0  0  0  0  0  0  0  0  0
   14.6563   21.1145    6.1190 N   0  0  0  0  0  0  0  0  0  0  0  0
   15.6961   20.8752    6.9963 C   0  0  0  0  0  0  0  0  0  0  0  0
   15.2886   20.7493    8.3149 N   0  0  0  0  0  0  0  0  0  0  0  0
   16.8644   20.8395    6.6472 O   0  0  0  0  0  0  0  0  0  0  0  0
   13.7391   21.1917    6.4685 H   0  0  0  0  0  0  0  0  0  0  0  0
   14.3198   20.7334    8.4895 H   0  0  0  0  0  0  0  0  0  0  0  0
   16.1700   20.6397    9.4530 C   0  0  0  0  0  0  0  0  0  0  0  0
   16.4423   19.1944    9.8237 C   0  0  0  0  0  0  0  0  0  0  0  0
   17.4857   21.3419    9.1967 C   0  0  0  0  0  0  0  0  0  0  0  0
   15.4837   21.3562   10.6023 C   0  0  0  0  0  0  0  0  0  0  0  0
   14.2676   20.0920    3.9116 C   0  0  0  0  0  0  0  0  0  0  0  0
   15.3270   19.3018    3.2173 C   0  0  0  0  0  0  0  0  0  0  0  0
   16.5151   19.0457    3.8765 C   0  0  0  0  0  0  0  0  0  0  0  0
   17.4876   18.2813    3.2674 C   0  0  0  0  0  0  0  0  0  0  0  0
   17.2660   17.7835    2.0009 C   0  0  0  0  0  0  0  0  0  0  0  0
   16.0931   18.0527    1.3360 C   0  0  0  0  0  0  0  0  0  0  0  0
   15.1197   18.8232    1.9351 C   0  0  0  0  0  0  0  0  0  0  0  0
  5 10  2  0  0  0
  5  6  1  0  0  0
 38 39  2  0  0  0
 38 37  1  0  0  0
 11  6  1  0  0  0
 39 34  1  0  0  0
 10  9  1  0  0  0
 37 36  2  0  0  0
 34 33  1  0  0  0
 34 35  2  0  0  0
  6  7  2  0  0  0
 36 35  1  0  0  0
 33 22  1  0  0  0
 15 13  2  0  0  0
  9 13  1  0  0  0
  9  8  2  0  0  0
  2  1  1  0  0  0
  7  8  1  0  0  0
  4  1  1  0  0  0
  4 14  1  0  0  0
 22  1  1  0  0  0
 22 23  1  0  0  0
 13 14  1  0  0  0
 13 16  2  0  0  0
  8 12  1  0  0  0
 23 24  1  0  0  0
 14 17  1  0  0  0
 12 18  1  0  0  0
 24 25  1  0  0  0
 24 26  2  0  0  0
 17 18  1  0  0  0
 18 19  1  0  0  0
 25 29  1  0  0  0
 19 20  1  0  0  0
 19 21  1  0  0  0
 29 32  1  0  0  0
 29 30  1  0  0  0
 29 31  1  0  0  0
  2  3  1  0  0  0
 23 27  1  0  0  0
 25 28  1  0  0  0
M  END
> <minimizedAffinity>
-10.02637

$$$$
4MC6_23K_A_101


 39 41  0  0  0  0  0  0  0  0999 V2000
   15.3302   21.8414    7.1259 C   0  0  0  0  0  0  0  0  0  0  0  0
   16.0873   22.3222    8.2282 O   0  0  0  0  0  0  0  0  0  0  0  0
   15.8091   21.8633    9.0363 H   0  0  0  0  0  0  0  0  0  0  0  0
   13.8726   22.2117    7.3207 C   0  0  0  0  0  0  0  0  0  0  0  0
   10.8228   21.4944    3.1636 C   0  0  0  0  0  0  0  0  0  0  0  0
    9.6604   22.0407    3.6590 C   0  0  0  0  0  0  0  0  0  0  0  0
    9.6565   23.0634    4.5799 C   0  0  0  0  0  0  0  0  0  0  0  0
   10.8557   23.5660    5.0485 C   0  0  0  0  0  0  0  0  0  0  0  0
   12.0137   23.0055    4.5365 C   0  0  0  0  0  0  0  0  0  0  0  0
   12.0287   21.9812    3.6111 C   0  0  0  0  0  0  0  0  0  0  0  0
    8.4889   21.5748    3.2144 F   0  0  0  0  0  0  0  0  0  0  0  0
   10.8047   24.6910    6.0362 C   0  0  0  0  0  0  0  0  0  0  0  0
   13.5923   23.6370    5.0478 S   0  0  0  0  0  0  0  0  0  0  0  0
   13.5879   23.5157    6.7174 N   0  0  0  0  0  0  0  0  0  0  0  0
   14.6153   22.7848    4.4899 O   0  0  0  0  0  0  0  0  0  0  0  0
   13.6038   25.0545    4.7387 O   0  0  0  0  0  0  0  0  0  0  0  0
   12.8402   24.5173    7.4883 C   0  0  0  0  0  0  0  0  0  0  0  0
   11.3282   24.3468    7.4149 C   0  0  0  0  0  0  0  0  0  0  0  0
   10.7142   25.3350    8.3965 C   0  0  0  0  0  0  0  0  0  0  0  0
    9.3444   24.9511    8.9017 C   0  0  0  0  0  0  0  0  0  0  0  0
   11.5600   25.5166    9.6211 C   0  0  0  0  0  0  0  0  0  0  0  0
   15.6580   20.3672    6.8270 C   0  0  0  0  0  0  0  0  0  0  0  0
   15.7657   19.6364    8.0830 N   0  0  0  0  0  0  0  0  0  0  0  0
   16.8629   18.8455    8.3638 C   0  0  0  0  0  0  0  0  0  0  0  0
   16.7859   18.2101    9.5930 N   0  0  0  0  0  0  0  0  0  0  0  0
   17.8303   18.7656    7.6250 O   0  0  0  0  0  0  0  0  0  0  0  0
   15.0411   19.7079    8.7457 H   0  0  0  0  0  0  0  0  0  0  0  0
   15.9401   18.2886   10.0908 H   0  0  0  0  0  0  0  0  0  0  0  0
   17.8457   17.4424   10.2026 C   0  0  0  0  0  0  0  0  0  0  0  0
   18.5200   16.5158    9.2089 C   0  0  0  0  0  0  0  0  0  0  0  0
   18.8885   18.3455   10.8245 C   0  0  0  0  0  0  0  0  0  0  0  0
   17.2089   16.6381   11.3218 C   0  0  0  0  0  0  0  0  0  0  0  0
   14.7079   19.6614    5.8583 C   0  0  0  0  0  0  0  0  0  0  0  0
   15.4173   19.3091    4.5928 C   0  0  0  0  0  0  0  0  0  0  0  0
   16.7500   18.9451    4.6483 C   0  0  0  0  0  0  0  0  0  0  0  0
   17.4095   18.5752    3.4954 C   0  0  0  0  0  0  0  0  0  0  0  0
   16.7319   18.5776    2.2947 C   0  0  0  0  0  0  0  0  0  0  0  0
   15.4118   18.9574    2.2343 C   0  0  0  0  0  0  0  0  0  0  0  0
   14.7481   19.3366    3.3813 C   0  0  0  0  0  0  0  0  0  0  0  0
  5 10  2  0  0  0
  5  6  1  0  0  0
 38 39  2  0  0  0
 38 37  1  0  0  0
 11  6  1  0  0  0
 39 34  1  0  0  0
 10  9  1  0  0  0
 37 36  2  0  0  0
 34 33  1  0  0  0
 34 35  2  0  0  0
  6  7  2  0  0  0
 36 35  1  0  0  0
 33 22  1  0  0  0
 15 13  2  0  0  0
  9 13  1  0  0  0
  9  8  2  0  0  0
  2  1  1  0  0  0
  7  8  1  0  0  0
  4  1  1  0  0  0
  4 14  1  0  0  0
 22  1  1  0  0  0
 22 23  1  0  0  0
 13 14  1  0  0  0
 13 16  2  0  0  0
  8 12  1  0  0  0
 23 24  1  0  0  0
 14 17  1  0  0  0
 12 18  1  0  0  0
 24 25  1  0  0  0
 24 26  2  0  0  0
 17 18  1  0  0  0
 18 19  1  0  0  0
 25 29  1  0  0  0
 19 20  1  0  0  0
 19 21  1  0  0  0
 29 32  1  0  0  0
 29 30  1  0  0  0
 29 31  1  0  0  0
  2  3  1  0  0  0
 23 27  1  0  0  0
 25 28  1  0  0  0
M  END
> <minimizedAffinity>
-9.58164

$$$$
4MC6_23K_A_101


 39 41  0  0  0  0  0  0  0  0999 V2000
   12.2974   22.0794    5.1468 C   0  0  0  0  0  0  0  0  0  0  0  0
   11.7919   21.1858    4.1643 O   0  0  0  0  0  0  0  0  0  0  0  0
   11.2386   20.5139    4.5925 H   0  0  0  0  0  0  0  0  0  0  0  0
   13.2252   21.3247    6.0793 C   0  0  0  0  0  0  0  0  0  0  0  0
   15.8041   20.2048   10.4601 C   0  0  0  0  0  0  0  0  0  0  0  0
   16.6543   19.2427    9.9634 C   0  0  0  0  0  0  0  0  0  0  0  0
   17.1036   19.2518    8.6626 C   0  0  0  0  0  0  0  0  0  0  0  0
   16.6856   20.2491    7.8019 C   0  0  0  0  0  0  0  0  0  0  0  0
   15.8329   21.2088    8.3206 C   0  0  0  0  0  0  0  0  0  0  0  0
   15.3782   21.2103    9.6241 C   0  0  0  0  0  0  0  0  0  0  0  0
   17.0770   18.2726   10.7802 F   0  0  0  0  0  0  0  0  0  0  0  0
   17.2137   20.2305    6.4002 C   0  0  0  0  0  0  0  0  0  0  0  0
   15.2983   22.5532    7.2915 S   0  0  0  0  0  0  0  0  0  0  0  0
   14.5963   21.8255    5.9573 N   0  0  0  0  0  0  0  0  0  0  0  0
   14.3097   23.3090    8.0234 O   0  0  0  0  0  0  0  0  0  0  0  0
   16.4925   23.2238    6.8131 O   0  0  0  0  0  0  0  0  0  0  0  0
   15.4762   21.2686    4.9219 C   0  0  0  0  0  0  0  0  0  0  0  0
   16.1691   19.9760    5.3338 C   0  0  0  0  0  0  0  0  0  0  0  0
   16.8912   19.4397    4.1057 C   0  0  0  0  0  0  0  0  0  0  0  0
   17.7815   18.2494    4.3693 C   0  0  0  0  0  0  0  0  0  0  0  0
   15.9381   19.0018    3.0344 C   0  0  0  0  0  0  0  0  0  0  0  0
   11.1646   22.9056    5.7824 C   0  0  0  0  0  0  0  0  0  0  0  0
    9.9369   22.6963    5.0261 N   0  0  0  0  0  0  0  0  0  0  0  0
    9.2229   23.7577    4.5045 C   0  0  0  0  0  0  0  0  0  0  0  0
    8.0726   23.3734    3.8340 N   0  0  0  0  0  0  0  0  0  0  0  0
    9.6042   24.9141    4.5776 O   0  0  0  0  0  0  0  0  0  0  0  0
    9.6092   21.7790    4.8839 H   0  0  0  0  0  0  0  0  0  0  0  0
    7.8177   22.4236    3.8803 H   0  0  0  0  0  0  0  0  0  0  0  0
    7.2177   24.2534    3.0731 C   0  0  0  0  0  0  0  0  0  0  0  0
    6.5531   25.2978    3.9495 C   0  0  0  0  0  0  0  0  0  0  0  0
    7.9883   24.9484    1.9717 C   0  0  0  0  0  0  0  0  0  0  0  0
    6.1684   23.3752    2.4152 C   0  0  0  0  0  0  0  0  0  0  0  0
   10.9372   22.6765    7.2774 C   0  0  0  0  0  0  0  0  0  0  0  0
   10.4179   23.9178    7.9242 C   0  0  0  0  0  0  0  0  0  0  0  0
    9.0755   23.9969    8.2458 C   0  0  0  0  0  0  0  0  0  0  0  0
    8.5867   25.1180    8.8824 C   0  0  0  0  0  0  0  0  0  0  0  0
    9.4439   26.1539    9.1874 C   0  0  0  0  0  0  0  0  0  0  0  0
   10.7755   26.0854    8.8515 C   0  0  0  0  0  0  0  0  0  0  0  0
   11.2697   24.9714    8.2075 C   0  0  0  0  0  0  0  0  0  0  0  0
  5 10  2  0  0  0
  5  6  1  0  0  0
 38 39  2  0  0  0
 38 37  1  0  0  0
 11  6  1  0  0  0
 39 34  1  0  0  0
 10  9  1  0  0  0
 37 36  2  0  0  0
 34 33  1  0  0  0
 34 35  2  0  0  0
  6  7  2  0  0  0
 36 35  1  0  0  0
 33 22  1  0  0  0
 15 13  2  0  0  0
  9 13  1  0  0  0
  9  8  2  0  0  0
  2  1  1  0  0  0
  7  8  1  0  0  0
  4  1  1  0  0  0
  4 14  1  0  0  0
 22  1  1  0  0  0
 22 23  1  0  0  0
 13 14  1  0  0  0
 13 16  2  0  0  0
  8 12  1  0  0  0
 23 24  1  0  0  0
 14 17  1  0  0  0
 12 18  1  0  0  0
 24 25  1  0  0  0
 24 26  2  0  0  0
 17 18  1  0  0  0
 18 19  1  0  0  0
 25 29  1  0  0  0
 19 20  1  0  0  0
 19 21  1  0  0  0
 29 32  1  0  0  0
 29 30  1  0  0  0
 29 31  1  0  0  0
  2  3  1  0  0  0
 23 27  1  0  0  0
 25 28  1  0  0  0
M  END
> <minimizedAffinity>
-9.20249

$$$$
4MC6_23K_A_101


 39 41  0  0  0  0  0  0  0  0999 V2000
   11.7090   21.5447    5.8951 C   0  0  0  0  0  0  0  0  0  0  0  0
   11.1555   20.3857    6.5030 O   0  0  0  0  0  0  0  0  0  0  0  0
   10.5741   20.6499    7.2331 H   0  0  0  0  0  0  0  0  0  0  0  0
   12.6065   22.2522    6.8919 C   0  0  0  0  0  0  0  0  0  0  0  0
   16.0191   20.5447   10.4325 C   0  0  0  0  0  0  0  0  0  0  0  0
   16.4380   19.4032    9.7872 C   0  0  0  0  0  0  0  0  0  0  0  0
   16.4763   19.2997    8.4154 C   0  0  0  0  0  0  0  0  0  0  0  0
   16.0691   20.3673    7.6376 C   0  0  0  0  0  0  0  0  0  0  0  0
   15.6537   21.5072    8.3049 C   0  0  0  0  0  0  0  0  0  0  0  0
   15.6138   21.6222    9.6801 C   0  0  0  0  0  0  0  0  0  0  0  0
   16.8430   18.3607   10.5195 F   0  0  0  0  0  0  0  0  0  0  0  0
   16.1445   20.2176    6.1491 C   0  0  0  0  0  0  0  0  0  0  0  0
   15.1701   22.9394    7.3739 S   0  0  0  0  0  0  0  0  0  0  0  0
   13.9591   22.4027    6.3502 N   0  0  0  0  0  0  0  0  0  0  0  0
   14.6436   23.9152    8.2984 O   0  0  0  0  0  0  0  0  0  0  0  0
   16.2939   23.2972    6.5290 O   0  0  0  0  0  0  0  0  0  0  0  0
   14.3424   21.6457    5.1516 C   0  0  0  0  0  0  0  0  0  0  0  0
   14.8043   20.2239    5.4439 C   0  0  0  0  0  0  0  0  0  0  0  0
   14.9898   19.5250    4.1043 C   0  0  0  0  0  0  0  0  0  0  0  0
   14.5012   20.3111    2.9118 C   0  0  0  0  0  0  0  0  0  0  0  0
   16.4292   19.2152    3.8216 C   0  0  0  0  0  0  0  0  0  0  0  0
   10.6206   22.3800    5.1968 C   0  0  0  0  0  0  0  0  0  0  0  0
   10.6139   23.7240    5.7595 N   0  0  0  0  0  0  0  0  0  0  0  0
    9.8701   24.0306    6.8825 C   0  0  0  0  0  0  0  0  0  0  0  0
    9.9671   25.3595    7.2635 N   0  0  0  0  0  0  0  0  0  0  0  0
    9.2394   23.1956    7.5093 O   0  0  0  0  0  0  0  0  0  0  0  0
   11.1509   24.4287    5.3302 H   0  0  0  0  0  0  0  0  0  0  0  0
   10.4515   25.9689    6.6608 H   0  0  0  0  0  0  0  0  0  0  0  0
    9.4151   25.9225    8.4729 C   0  0  0  0  0  0  0  0  0  0  0  0
    9.4476   27.4388    8.4602 C   0  0  0  0  0  0  0  0  0  0  0  0
    7.9915   25.4591    8.6929 C   0  0  0  0  0  0  0  0  0  0  0  0
   10.2539   25.3890    9.6205 C   0  0  0  0  0  0  0  0  0  0  0  0
   10.6965   22.4219    3.6698 C   0  0  0  0  0  0  0  0  0  0  0  0
    9.4734   23.0627    3.1023 C   0  0  0  0  0  0  0  0  0  0  0  0
    8.2691   22.3865    3.1661 C   0  0  0  0  0  0  0  0  0  0  0  0
    7.1214   22.9808    2.6859 C   0  0  0  0  0  0  0  0  0  0  0  0
    7.1885   24.2452    2.1403 C   0  0  0  0  0  0  0  0  0  0  0  0
    8.3882   24.9119    2.0586 C   0  0  0  0  0  0  0  0  0  0  0  0
    9.5412   24.3208    2.5289 C   0  0  0  0  0  0  0  0  0  0  0  0
  5 10  2  0  0  0
  5  6  1  0  0  0
 38 39  2  0  0  0
 38 37  1  0  0  0
 11  6  1  0  0  0
 39 34  1  0  0  0
 10  9  1  0  0  0
 37 36  2  0  0  0
 34 33  1  0  0  0
 34 35  2  0  0  0
  6  7  2  0  0  0
 36 35  1  0  0  0
 33 22  1  0  0  0
 15 13  2  0  0  0
  9 13  1  0  0  0
  9  8  2  0  0  0
  2  1  1  0  0  0
  7  8  1  0  0  0
  4  1  1  0  0  0
  4 14  1  0  0  0
 22  1  1  0  0  0
 22 23  1  0  0  0
 13 14  1  0  0  0
 13 16  2  0  0  0
  8 12  1  0  0  0
 23 24  1  0  0  0
 14 17  1  0  0  0
 12 18  1  0  0  0
 24 25  1  0  0  0
 24 26  2  0  0  0
 17 18  1  0  0  0
 18 19  1  0  0  0
 25 29  1  0  0  0
 19 20  1  0  0  0
 19 21  1  0  0  0
 29 32  1  0  0  0
 29 30  1  0  0  0
 29 31  1  0  0  0
  2  3  1  0  0  0
 23 27  1  0  0  0
 25 28  1  0  0  0
M  END
> <minimizedAffinity>
-8.94822

$$$$
4MC6_23K_A_101


 39 41  0  0  0  0  0  0  0  0999 V2000
   11.2505   22.0409    6.5791 C   0  0  0  0  0  0  0  0  0  0  0  0
   10.1941   21.4140    7.2935 O   0  0  0  0  0  0  0  0  0  0  0  0
   10.2388   21.6707    8.2279 H   0  0  0  0  0  0  0  0  0  0  0  0
   12.5788   21.5096    7.0822 C   0  0  0  0  0  0  0  0  0  0  0  0
   17.0944   20.7968    9.5719 C   0  0  0  0  0  0  0  0  0  0  0  0
   17.5859   19.7529    8.8211 C   0  0  0  0  0  0  0  0  0  0  0  0
   17.2897   19.5971    7.4861 C   0  0  0  0  0  0  0  0  0  0  0  0
   16.4571   20.5055    6.8600 C   0  0  0  0  0  0  0  0  0  0  0  0
   15.9751   21.5496    7.6311 C   0  0  0  0  0  0  0  0  0  0  0  0
   16.2677   21.7164    8.9699 C   0  0  0  0  0  0  0  0  0  0  0  0
   18.3987   18.8663    9.4044 F   0  0  0  0  0  0  0  0  0  0  0  0
   16.1762   20.3078    5.4020 C   0  0  0  0  0  0  0  0  0  0  0  0
   14.9459   22.7879    6.8830 S   0  0  0  0  0  0  0  0  0  0  0  0
   13.6706   21.9408    6.2059 N   0  0  0  0  0  0  0  0  0  0  0  0
   14.4648   23.6590    7.9288 O   0  0  0  0  0  0  0  0  0  0  0  0
   15.6962   23.3539    5.7778 O   0  0  0  0  0  0  0  0  0  0  0  0
   13.8953   21.2368    4.9369 C   0  0  0  0  0  0  0  0  0  0  0  0
   14.7359   19.9738    5.0747 C   0  0  0  0  0  0  0  0  0  0  0  0
   14.7250   19.2744    3.7226 C   0  0  0  0  0  0  0  0  0  0  0  0
   14.0870   20.0687    2.6087 C   0  0  0  0  0  0  0  0  0  0  0  0
   16.1072   18.9456    3.2439 C   0  0  0  0  0  0  0  0  0  0  0  0
   11.0632   23.5684    6.5365 C   0  0  0  0  0  0  0  0  0  0  0  0
    9.7502   23.8745    5.9837 N   0  0  0  0  0  0  0  0  0  0  0  0
    9.4809   23.7165    4.6381 C   0  0  0  0  0  0  0  0  0  0  0  0
    8.1890   24.0749    4.2874 N   0  0  0  0  0  0  0  0  0  0  0  0
   10.2865   23.2493    3.8503 O   0  0  0  0  0  0  0  0  0  0  0  0
    9.0398   24.2009    6.5821 H   0  0  0  0  0  0  0  0  0  0  0  0
    7.6324   24.4971    4.9811 H   0  0  0  0  0  0  0  0  0  0  0  0
    7.5933   23.8790    2.9870 C   0  0  0  0  0  0  0  0  0  0  0  0
    7.7896   22.4631    2.4796 C   0  0  0  0  0  0  0  0  0  0  0  0
    6.1141   24.1971    3.0083 C   0  0  0  0  0  0  0  0  0  0  0  0
    8.2623   24.8696    2.0510 C   0  0  0  0  0  0  0  0  0  0  0  0
   11.2882   24.2998    7.8607 C   0  0  0  0  0  0  0  0  0  0  0  0
   10.0759   25.0854    8.2373 C   0  0  0  0  0  0  0  0  0  0  0  0
   10.1363   26.4666    8.2150 C   0  0  0  0  0  0  0  0  0  0  0  0
    9.0142   27.2082    8.5182 C   0  0  0  0  0  0  0  0  0  0  0  0
    7.8415   26.5621    8.8468 C   0  0  0  0  0  0  0  0  0  0  0  0
    7.7841   25.1889    8.8880 C   0  0  0  0  0  0  0  0  0  0  0  0
    8.9041   24.4409    8.5944 C   0  0  0  0  0  0  0  0  0  0  0  0
  5 10  2  0  0  0
  5  6  1  0  0  0
 38 39  2  0  0  0
 38 37  1  0  0  0
 11  6  1  0  0  0
 39 34  1  0  0  0
 10  9  1  0  0  0
 37 36  2  0  0  0
 34 33  1  0  0  0
 34 35  2  0  0  0
  6  7  2  0  0  0
 36 35  1  0  0  0
 33 22  1  0  0  0
 15 13  2  0  0  0
  9 13  1  0  0  0
  9  8  2  0  0  0
  2  1  1  0  0  0
  7  8  1  0  0  0
  4  1  1  0  0  0
  4 14  1  0  0  0
 22  1  1  0  0  0
 22 23  1  0  0  0
 13 14  1  0  0  0
 13 16  2  0  0  0
  8 12  1  0  0  0
 23 24  1  0  0  0
 14 17  1  0  0  0
 12 18  1  0  0  0
 24 25  1  0  0  0
 24 26  2  0  0  0
 17 18  1  0  0  0
 18 19  1  0  0  0
 25 29  1  0  0  0
 19 20  1  0  0  0
 19 21  1  0  0  0
 29 32  1  0  0  0
 29 30  1  0  0  0
 29 31  1  0  0  0
  2  3  1  0  0  0
 23 27  1  0  0  0
 25 28  1  0  0  0
M  END
> <minimizedAffinity>
-8.88943

$$$$
4MC6_23K_A_101


 39 41  0  0  0  0  0  0  0  0999 V2000
   12.4377   20.8175    5.0642 C   0  0  0  0  0  0  0  0  0  0  0  0
   12.1475   20.5311    3.7029 O   0  0  0  0  0  0  0  0  0  0  0  0
   12.1672   21.3531    3.1882 H   0  0  0  0  0  0  0  0  0  0  0  0
   11.3330   21.6825    5.6398 C   0  0  0  0  0  0  0  0  0  0  0  0
    7.9817   24.8194    3.1852 C   0  0  0  0  0  0  0  0  0  0  0  0
    7.4153   25.4236    4.2849 C   0  0  0  0  0  0  0  0  0  0  0  0
    8.1088   25.6301    5.4556 C   0  0  0  0  0  0  0  0  0  0  0  0
    9.4215   25.2092    5.5559 C   0  0  0  0  0  0  0  0  0  0  0  0
    9.9740   24.6061    4.4387 C   0  0  0  0  0  0  0  0  0  0  0  0
    9.2882   24.3964    3.2592 C   0  0  0  0  0  0  0  0  0  0  0  0
    6.1490   25.8450    4.2078 F   0  0  0  0  0  0  0  0  0  0  0  0
   10.1437   25.4705    6.8420 C   0  0  0  0  0  0  0  0  0  0  0  0
   11.6726   24.0903    4.4722 S   0  0  0  0  0  0  0  0  0  0  0  0
   11.7890   23.0662    5.7913 N   0  0  0  0  0  0  0  0  0  0  0  0
   11.9421   23.3644    3.2538 O   0  0  0  0  0  0  0  0  0  0  0  0
   12.4669   25.2620    4.7901 O   0  0  0  0  0  0  0  0  0  0  0  0
   11.8524   23.6601    7.1329 C   0  0  0  0  0  0  0  0  0  0  0  0
   10.5243   24.2270    7.6179 C   0  0  0  0  0  0  0  0  0  0  0  0
   10.7120   24.6356    9.0723 C   0  0  0  0  0  0  0  0  0  0  0  0
   11.7244   25.7336    9.2915 C   0  0  0  0  0  0  0  0  0  0  0  0
    9.4389   25.1309    9.6902 C   0  0  0  0  0  0  0  0  0  0  0  0
   13.8877   21.3066    5.2326 C   0  0  0  0  0  0  0  0  0  0  0  0
   14.6039   20.3888    6.1088 N   0  0  0  0  0  0  0  0  0  0  0  0
   15.3100   20.8439    7.2054 C   0  0  0  0  0  0  0  0  0  0  0  0
   15.9450   19.8344    7.9114 N   0  0  0  0  0  0  0  0  0  0  0  0
   15.3204   22.0142    7.5494 O   0  0  0  0  0  0  0  0  0  0  0  0
   14.5841   19.4237    5.9152 H   0  0  0  0  0  0  0  0  0  0  0  0
   15.9278   18.9302    7.5223 H   0  0  0  0  0  0  0  0  0  0  0  0
   16.6296   20.0017    9.1714 C   0  0  0  0  0  0  0  0  0  0  0  0
   15.7691   20.7177   10.1949 C   0  0  0  0  0  0  0  0  0  0  0  0
   17.0679   18.6687    9.7379 C   0  0  0  0  0  0  0  0  0  0  0  0
   17.8811   20.8103    8.8798 C   0  0  0  0  0  0  0  0  0  0  0  0
   14.6603   21.5456    3.9345 C   0  0  0  0  0  0  0  0  0  0  0  0
   15.3595   20.2987    3.5043 C   0  0  0  0  0  0  0  0  0  0  0  0
   14.8720   19.5953    2.4183 C   0  0  0  0  0  0  0  0  0  0  0  0
   15.5297   18.4654    1.9805 C   0  0  0  0  0  0  0  0  0  0  0  0
   16.6672   18.0447    2.6361 C   0  0  0  0  0  0  0  0  0  0  0  0
   17.1431   18.7318    3.7278 C   0  0  0  0  0  0  0  0  0  0  0  0
   16.4862   19.8575    4.1765 C   0  0  0  0  0  0  0  0  0  0  0  0
  5 10  2  0  0  0
  5  6  1  0  0  0
 38 39  2  0  0  0
 38 37  1  0  0  0
 11  6  1  0  0  0
 39 34  1  0  0  0
 10  9  1  0  0  0
 37 36  2  0  0  0
 34 33  1  0  0  0
 34 35  2  0  0  0
  6  7  2  0  0  0
 36 35  1  0  0  0
 33 22  1  0  0  0
 15 13  2  0  0  0
  9 13  1  0  0  0
  9  8  2  0  0  0
  2  1  1  0  0  0
  7  8  1  0  0  0
  4  1  1  0  0  0
  4 14  1  0  0  0
 22  1  1  0  0  0
 22 23  1  0  0  0
 13 14  1  0  0  0
 13 16  2  0  0  0
  8 12  1  0  0  0
 23 24  1  0  0  0
 14 17  1  0  0  0
 12 18  1  0  0  0
 24 25  1  0  0  0
 24 26  2  0  0  0
 17 18  1  0  0  0
 18 19  1  0  0  0
 25 29  1  0  0  0
 19 20  1  0  0  0
 19 21  1  0  0  0
 29 32  1  0  0  0
 29 30  1  0  0  0
 29 31  1  0  0  0
  2  3  1  0  0  0
 23 27  1  0  0  0
 25 28  1  0  0  0
M  END
> <minimizedAffinity>
-8.87677

$$$$
4MC6_23K_A_101


 39 41  0  0  0  0  0  0  0  0999 V2000
   14.4441   23.3444    4.8333 C   0  0  0  0  0  0  0  0  0  0  0  0
   15.5106   24.1891    4.4228 O   0  0  0  0  0  0  0  0  0  0  0  0
   15.8397   24.6886    5.1864 H   0  0  0  0  0  0  0  0  0  0  0  0
   13.2778   24.1983    5.2920 C   0  0  0  0  0  0  0  0  0  0  0  0
   10.0502   26.7078    8.5141 C   0  0  0  0  0  0  0  0  0  0  0  0
    9.0554   27.0187    7.6149 C   0  0  0  0  0  0  0  0  0  0  0  0
    8.7639   26.2248    6.5291 C   0  0  0  0  0  0  0  0  0  0  0  0
    9.4962   25.0737    6.3077 C   0  0  0  0  0  0  0  0  0  0  0  0
   10.4906   24.7768    7.2243 C   0  0  0  0  0  0  0  0  0  0  0  0
   10.7895   25.5648    8.3176 C   0  0  0  0  0  0  0  0  0  0  0  0
    8.3297   28.1237    7.8134 F   0  0  0  0  0  0  0  0  0  0  0  0
    9.1330   24.2301    5.1244 C   0  0  0  0  0  0  0  0  0  0  0  0
   11.4357   23.2853    7.0382 S   0  0  0  0  0  0  0  0  0  0  0  0
   12.0854   23.3729    5.4979 N   0  0  0  0  0  0  0  0  0  0  0  0
   12.4901   23.2998    8.0243 O   0  0  0  0  0  0  0  0  0  0  0  0
   10.4927   22.1829    7.0245 O   0  0  0  0  0  0  0  0  0  0  0  0
   11.2157   23.0673    4.3548 C   0  0  0  0  0  0  0  0  0  0  0  0
   10.1965   24.1574    4.0488 C   0  0  0  0  0  0  0  0  0  0  0  0
    9.5048   23.7763    2.7474 C   0  0  0  0  0  0  0  0  0  0  0  0
    8.7202   22.4880    2.8059 C   0  0  0  0  0  0  0  0  0  0  0  0
    8.5303   24.8226    2.2965 C   0  0  0  0  0  0  0  0  0  0  0  0
   14.9421   22.2445    5.7884 C   0  0  0  0  0  0  0  0  0  0  0  0
   15.7263   21.2749    5.0348 N   0  0  0  0  0  0  0  0  0  0  0  0
   15.1448   20.4674    4.0766 C   0  0  0  0  0  0  0  0  0  0  0  0
   16.0364   19.5926    3.4763 N   0  0  0  0  0  0  0  0  0  0  0  0
   13.9729   20.5615    3.7516 O   0  0  0  0  0  0  0  0  0  0  0  0
   16.6913   21.1935    5.2123 H   0  0  0  0  0  0  0  0  0  0  0  0
   16.9471   19.5492    3.8476 H   0  0  0  0  0  0  0  0  0  0  0  0
   15.7373   18.7398    2.3504 C   0  0  0  0  0  0  0  0  0  0  0  0
   14.6494   17.7334    2.6731 C   0  0  0  0  0  0  0  0  0  0  0  0
   15.3193   19.5518    1.1439 C   0  0  0  0  0  0  0  0  0  0  0  0
   17.0277   18.0225    1.9962 C   0  0  0  0  0  0  0  0  0  0  0  0
   15.7057   22.7336    7.0200 C   0  0  0  0  0  0  0  0  0  0  0  0
   16.0602   21.5857    7.9062 C   0  0  0  0  0  0  0  0  0  0  0  0
   17.3897   21.2358    8.0534 C   0  0  0  0  0  0  0  0  0  0  0  0
   17.7391   20.2060    8.9010 C   0  0  0  0  0  0  0  0  0  0  0  0
   16.7549   19.5304    9.5907 C   0  0  0  0  0  0  0  0  0  0  0  0
   15.4306   19.8642    9.4315 C   0  0  0  0  0  0  0  0  0  0  0  0
   15.0729   20.8870    8.5794 C   0  0  0  0  0  0  0  0  0  0  0  0
  5 10  2  0  0  0
  5  6  1  0  0  0
 38 39  2  0  0  0
 38 37  1  0  0  0
 11  6  1  0  0  0
 39 34  1  0  0  0
 10  9  1  0  0  0
 37 36  2  0  0  0
 34 33  1  0  0  0
 34 35  2  0  0  0
  6  7  2  0  0  0
 36 35  1  0  0  0
 33 22  1  0  0  0
 15 13  2  0  0  0
  9 13  1  0  0  0
  9  8  2  0  0  0
  2  1  1  0  0  0
  7  8  1  0  0  0
  4  1  1  0  0  0
  4 14  1  0  0  0
 22  1  1  0  0  0
 22 23  1  0  0  0
 13 14  1  0  0  0
 13 16  2  0  0  0
  8 12  1  0  0  0
 23 24  1  0  0  0
 14 17  1  0  0  0
 12 18  1  0  0  0
 24 25  1  0  0  0
 24 26  2  0  0  0
 17 18  1  0  0  0
 18 19  1  0  0  0
 25 29  1  0  0  0
 19 20  1  0  0  0
 19 21  1  0  0  0
 29 32  1  0  0  0
 29 30  1  0  0  0
 29 31  1  0  0  0
  2  3  1  0  0  0
 23 27  1  0  0  0
 25 28  1  0  0  0
M  END
> <minimizedAffinity>
-8.86298

$$$$
