3CZV_AZM_A_263


 16 16  0  0  0  0  0  0  0  0999 V2000
   36.2228   60.8118   16.2623 C   0  0  0  0  0  0  0  0  0  0  0  0
   34.4127   59.5101   16.9774 C   0  0  0  0  0  0  0  0  0  0  0  0
   34.6439   59.3806   15.6931 N   0  0  0  0  0  0  0  0  0  0  0  0
   35.7096   60.1486   15.2794 N   0  0  0  0  0  0  0  0  0  0  0  0
   35.4822   60.5911   17.7931 S   0  0  0  0  0  0  0  0  0  0  0  0
   37.7296   62.8140   17.3181 N   0  0  0  0  0  0  0  0  0  0  0  0
   38.7374   61.0182   16.0210 O   0  0  0  0  0  0  0  0  0  0  0  0
   37.3089   62.7128   14.9198 O   0  0  0  0  0  0  0  0  0  0  0  0
   37.6178   61.8968   16.0508 S   0  0  0  0  0  0  0  0  0  0  0  0
   37.9502   62.2420   18.1333 H   0  0  0  0  0  0  0  0  0  0  0  0
   36.8426   63.2942   17.4697 H   0  0  0  0  0  0  0  0  0  0  0  0
   32.0279   59.1068   17.4754 C   0  0  0  0  0  0  0  0  0  0  0  0
   31.1607   58.4618   18.5094 C   0  0  0  0  0  0  0  0  0  0  0  0
   33.3861   58.8174   17.5897 N   0  0  0  0  0  0  0  0  0  0  0  0
   31.6035   59.8320   16.5841 O   0  0  0  0  0  0  0  0  0  0  0  0
   33.6361   58.0522   18.1565 H   0  0  0  0  0  0  0  0  0  0  0  0
  1  4  2  0  0  0
  1  9  1  0  0  0
  1  5  1  0  0  0
  2  3  2  0  0  0
  2 14  1  0  0  0
  2  5  1  0  0  0
 12 13  1  0  0  0
 12 14  1  0  0  0
 12 15  2  0  0  0
  6  9  1  0  0  0
  3  4  1  0  0  0
  7  9  2  0  0  0
  8  9  2  0  0  0
  6 10  1  0  0  0
  6 11  1  0  0  0
 14 16  1  0  0  0
M  END
> <minimizedAffinity>
-6.14948

$$$$
3CZV_AZM_A_263


 16 16  0  0  0  0  0  0  0  0999 V2000
   37.6027   61.0908   17.1695 C   0  0  0  0  0  0  0  0  0  0  0  0
   35.4015   60.4311   17.6190 C   0  0  0  0  0  0  0  0  0  0  0  0
   36.1104   60.5817   18.7119 N   0  0  0  0  0  0  0  0  0  0  0  0
   37.4037   60.9698   18.4403 N   0  0  0  0  0  0  0  0  0  0  0  0
   36.2615   60.7492   16.1571 S   0  0  0  0  0  0  0  0  0  0  0  0
   38.9419   62.7782   15.5102 N   0  0  0  0  0  0  0  0  0  0  0  0
   39.9021   62.0542   17.6260 O   0  0  0  0  0  0  0  0  0  0  0  0
   39.6485   60.4584   15.7515 O   0  0  0  0  0  0  0  0  0  0  0  0
   39.1757   61.5815   16.4967 S   0  0  0  0  0  0  0  0  0  0  0  0
   38.6038   63.5873   16.0312 H   0  0  0  0  0  0  0  0  0  0  0  0
   38.2499   62.5113   14.8099 H   0  0  0  0  0  0  0  0  0  0  0  0
   33.5198   58.9395   17.0428 C   0  0  0  0  0  0  0  0  0  0  0  0
   32.0268   58.9518   16.9526 C   0  0  0  0  0  0  0  0  0  0  0  0
   34.0752   60.0488   17.6773 N   0  0  0  0  0  0  0  0  0  0  0  0
   34.2228   58.0361   16.6070 O   0  0  0  0  0  0  0  0  0  0  0  0
   33.4694   60.6093   18.2141 H   0  0  0  0  0  0  0  0  0  0  0  0
  1  4  2  0  0  0
  1  9  1  0  0  0
  1  5  1  0  0  0
  2  3  2  0  0  0
  2 14  1  0  0  0
  2  5  1  0  0  0
 12 13  1  0  0  0
 12 14  1  0  0  0
 12 15  2  0  0  0
  6  9  1  0  0  0
  3  4  1  0  0  0
  7  9  2  0  0  0
  8  9  2  0  0  0
  6 10  1  0  0  0
  6 11  1  0  0  0
 14 16  1  0  0  0
M  END
> <minimizedAffinity>
-5.80480

$$$$
3CZV_AZM_A_263


 16 16  0  0  0  0  0  0  0  0999 V2000
   37.4996   61.1468   16.9381 C   0  0  0  0  0  0  0  0  0  0  0  0
   35.3527   60.3554   17.4349 C   0  0  0  0  0  0  0  0  0  0  0  0
   35.6109   60.3245   16.1496 N   0  0  0  0  0  0  0  0  0  0  0  0
   36.8749   60.7911   15.8645 N   0  0  0  0  0  0  0  0  0  0  0  0
   36.6393   60.9648   18.4102 S   0  0  0  0  0  0  0  0  0  0  0  0
   39.2587   62.8380   15.7381 N   0  0  0  0  0  0  0  0  0  0  0  0
   39.2894   62.4755   18.1445 O   0  0  0  0  0  0  0  0  0  0  0  0
   40.0020   60.6814   16.5958 O   0  0  0  0  0  0  0  0  0  0  0  0
   39.1580   61.7922   16.9026 S   0  0  0  0  0  0  0  0  0  0  0  0
   38.6595   63.6369   15.9459 H   0  0  0  0  0  0  0  0  0  0  0  0
   38.9573   62.4049   14.8652 H   0  0  0  0  0  0  0  0  0  0  0  0
   33.4171   58.8224   17.4686 C   0  0  0  0  0  0  0  0  0  0  0  0
   31.9852   58.7851   17.8996 C   0  0  0  0  0  0  0  0  0  0  0  0
   34.1363   59.9240   17.9278 N   0  0  0  0  0  0  0  0  0  0  0  0
   33.9430   57.9631   16.7719 O   0  0  0  0  0  0  0  0  0  0  0  0
   33.7431   60.4402   18.6682 H   0  0  0  0  0  0  0  0  0  0  0  0
  1  4  2  0  0  0
  1  9  1  0  0  0
  1  5  1  0  0  0
  2  3  2  0  0  0
  2 14  1  0  0  0
  2  5  1  0  0  0
 12 13  1  0  0  0
 12 14  1  0  0  0
 12 15  2  0  0  0
  6  9  1  0  0  0
  3  4  1  0  0  0
  7  9  2  0  0  0
  8  9  2  0  0  0
  6 10  1  0  0  0
  6 11  1  0  0  0
 14 16  1  0  0  0
M  END
> <minimizedAffinity>
-5.69753

$$$$
3CZV_AZM_A_263


 16 16  0  0  0  0  0  0  0  0999 V2000
   34.2412   60.1684   18.1468 C   0  0  0  0  0  0  0  0  0  0  0  0
   35.3027   61.6548   19.6118 C   0  0  0  0  0  0  0  0  0  0  0  0
   34.0884   61.3510   20.0024 N   0  0  0  0  0  0  0  0  0  0  0  0
   33.4700   60.4765   19.1366 N   0  0  0  0  0  0  0  0  0  0  0  0
   35.7939   60.8960   18.1418 S   0  0  0  0  0  0  0  0  0  0  0  0
   34.5451   59.3926   15.5584 N   0  0  0  0  0  0  0  0  0  0  0  0
   34.1313   57.7727   17.3269 O   0  0  0  0  0  0  0  0  0  0  0  0
   32.3512   59.3393   16.6183 O   0  0  0  0  0  0  0  0  0  0  0  0
   33.7307   59.0548   16.8556 S   0  0  0  0  0  0  0  0  0  0  0  0
   35.5330   59.1933   15.7156 H   0  0  0  0  0  0  0  0  0  0  0  0
   34.4293   60.3804   15.3319 H   0  0  0  0  0  0  0  0  0  0  0  0
   36.8098   62.1828   21.4954 C   0  0  0  0  0  0  0  0  0  0  0  0
   37.2749   63.3512   22.3052 C   0  0  0  0  0  0  0  0  0  0  0  0
   36.0932   62.5163   20.3478 N   0  0  0  0  0  0  0  0  0  0  0  0
   37.0320   61.0151   21.7913 O   0  0  0  0  0  0  0  0  0  0  0  0
   36.1556   63.4474   20.0340 H   0  0  0  0  0  0  0  0  0  0  0  0
  1  4  2  0  0  0
  1  9  1  0  0  0
  1  5  1  0  0  0
  2  3  2  0  0  0
  2 14  1  0  0  0
  2  5  1  0  0  0
 12 13  1  0  0  0
 12 14  1  0  0  0
 12 15  2  0  0  0
  6  9  1  0  0  0
  3  4  1  0  0  0
  7  9  2  0  0  0
  8  9  2  0  0  0
  6 10  1  0  0  0
  6 11  1  0  0  0
 14 16  1  0  0  0
M  END
> <minimizedAffinity>
-5.39283

$$$$
3CZV_AZM_A_263


 16 16  0  0  0  0  0  0  0  0999 V2000
   33.0951   59.9862   18.5985 C   0  0  0  0  0  0  0  0  0  0  0  0
   34.9215   60.7813   19.8292 C   0  0  0  0  0  0  0  0  0  0  0  0
   33.7796   60.9912   20.4388 N   0  0  0  0  0  0  0  0  0  0  0  0
   32.7099   60.5212   19.7097 N   0  0  0  0  0  0  0  0  0  0  0  0
   34.7841   59.9901   18.3018 S   0  0  0  0  0  0  0  0  0  0  0  0
   32.7593   58.7068   16.2228 N   0  0  0  0  0  0  0  0  0  0  0  0
   31.3527   58.2027   18.1438 O   0  0  0  0  0  0  0  0  0  0  0  0
   31.1458   60.3726   16.9717 O   0  0  0  0  0  0  0  0  0  0  0  0
   31.9469   59.2840   17.4338 S   0  0  0  0  0  0  0  0  0  0  0  0
   33.3360   57.9278   16.5406 H   0  0  0  0  0  0  0  0  0  0  0  0
   33.3573   59.4368   15.8356 H   0  0  0  0  0  0  0  0  0  0  0  0
   36.6792   60.6454   21.5584 C   0  0  0  0  0  0  0  0  0  0  0  0
   37.7629   61.4780   22.1665 C   0  0  0  0  0  0  0  0  0  0  0  0
   36.1165   61.1760   20.3993 N   0  0  0  0  0  0  0  0  0  0  0  0
   36.3004   59.5755   22.0189 O   0  0  0  0  0  0  0  0  0  0  0  0
   36.6140   61.8951   19.9470 H   0  0  0  0  0  0  0  0  0  0  0  0
  1  4  2  0  0  0
  1  9  1  0  0  0
  1  5  1  0  0  0
  2  3  2  0  0  0
  2 14  1  0  0  0
  2  5  1  0  0  0
 12 13  1  0  0  0
 12 14  1  0  0  0
 12 15  2  0  0  0
  6  9  1  0  0  0
  3  4  1  0  0  0
  7  9  2  0  0  0
  8  9  2  0  0  0
  6 10  1  0  0  0
  6 11  1  0  0  0
 14 16  1  0  0  0
M  END
> <minimizedAffinity>
-5.25576

$$$$
3CZV_AZM_A_263


 16 16  0  0  0  0  0  0  0  0999 V2000
   33.2553   59.8761   18.2241 C   0  0  0  0  0  0  0  0  0  0  0  0
   35.4770   60.4327   18.7106 C   0  0  0  0  0  0  0  0  0  0  0  0
   34.6425   60.8649   19.6252 N   0  0  0  0  0  0  0  0  0  0  0  0
   33.3379   60.5341   19.3329 N   0  0  0  0  0  0  0  0  0  0  0  0
   34.7334   59.5833   17.4055 S   0  0  0  0  0  0  0  0  0  0  0  0
   31.9917   58.3524   16.3598 N   0  0  0  0  0  0  0  0  0  0  0  0
   31.1444   58.5346   18.6339 O   0  0  0  0  0  0  0  0  0  0  0  0
   31.0270   60.4671   17.0922 O   0  0  0  0  0  0  0  0  0  0  0  0
   31.7012   59.3031   17.5729 S   0  0  0  0  0  0  0  0  0  0  0  0
   32.4735   57.5165   16.6907 H   0  0  0  0  0  0  0  0  0  0  0  0
   32.5790   58.8370   15.6810 H   0  0  0  0  0  0  0  0  0  0  0  0
   37.6432   61.2518   17.8534 C   0  0  0  0  0  0  0  0  0  0  0  0
   39.1116   61.0469   18.0515 C   0  0  0  0  0  0  0  0  0  0  0  0
   36.8354   60.6590   18.8218 N   0  0  0  0  0  0  0  0  0  0  0  0
   37.1619   61.8901   16.9254 O   0  0  0  0  0  0  0  0  0  0  0  0
   37.2707   60.3768   19.6584 H   0  0  0  0  0  0  0  0  0  0  0  0
  1  4  2  0  0  0
  1  9  1  0  0  0
  1  5  1  0  0  0
  2  3  2  0  0  0
  2 14  1  0  0  0
  2  5  1  0  0  0
 12 13  1  0  0  0
 12 14  1  0  0  0
 12 15  2  0  0  0
  6  9  1  0  0  0
  3  4  1  0  0  0
  7  9  2  0  0  0
  8  9  2  0  0  0
  6 10  1  0  0  0
  6 11  1  0  0  0
 14 16  1  0  0  0
M  END
> <minimizedAffinity>
-5.18387

$$$$
3CZV_AZM_A_263


 16 16  0  0  0  0  0  0  0  0999 V2000
   38.8901   61.0325   16.5573 C   0  0  0  0  0  0  0  0  0  0  0  0
   39.7683   60.0141   18.4740 C   0  0  0  0  0  0  0  0  0  0  0  0
   40.2427   59.4909   17.3690 N   0  0  0  0  0  0  0  0  0  0  0  0
   39.7222   60.0945   16.2459 N   0  0  0  0  0  0  0  0  0  0  0  0
   38.6358   61.2936   18.2329 S   0  0  0  0  0  0  0  0  0  0  0  0
   36.9028   62.8117   16.0286 N   0  0  0  0  0  0  0  0  0  0  0  0
   39.0400   62.9172   14.8692 O   0  0  0  0  0  0  0  0  0  0  0  0
   37.4607   61.0645   14.4238 O   0  0  0  0  0  0  0  0  0  0  0  0
   38.0485   62.0034   15.3256 S   0  0  0  0  0  0  0  0  0  0  0  0
   37.3105   63.4863   16.6759 H   0  0  0  0  0  0  0  0  0  0  0  0
   36.2994   62.1694   16.5422 H   0  0  0  0  0  0  0  0  0  0  0  0
   39.3394   58.9881   20.6788 C   0  0  0  0  0  0  0  0  0  0  0  0
   39.9349   58.9121   22.0488 C   0  0  0  0  0  0  0  0  0  0  0  0
   40.1703   59.5500   19.7116 N   0  0  0  0  0  0  0  0  0  0  0  0
   38.2149   58.5903   20.4001 O   0  0  0  0  0  0  0  0  0  0  0  0
   41.1277   59.6228   19.9293 H   0  0  0  0  0  0  0  0  0  0  0  0
  1  4  2  0  0  0
  1  9  1  0  0  0
  1  5  1  0  0  0
  2  3  2  0  0  0
  2 14  1  0  0  0
  2  5  1  0  0  0
 12 13  1  0  0  0
 12 14  1  0  0  0
 12 15  2  0  0  0
  6  9  1  0  0  0
  3  4  1  0  0  0
  7  9  2  0  0  0
  8  9  2  0  0  0
  6 10  1  0  0  0
  6 11  1  0  0  0
 14 16  1  0  0  0
M  END
> <minimizedAffinity>
-5.15778

$$$$
3CZV_AZM_A_263


 16 16  0  0  0  0  0  0  0  0999 V2000
   37.1806   60.6279   18.9611 C   0  0  0  0  0  0  0  0  0  0  0  0
   34.9709   59.9253   18.6355 C   0  0  0  0  0  0  0  0  0  0  0  0
   35.5051   59.4075   19.7153 N   0  0  0  0  0  0  0  0  0  0  0  0
   36.8045   59.8249   19.9008 N   0  0  0  0  0  0  0  0  0  0  0  0
   36.0186   60.9698   17.7472 S   0  0  0  0  0  0  0  0  0  0  0  0
   39.5867   60.7340   17.6988 N   0  0  0  0  0  0  0  0  0  0  0  0
   38.5746   62.7241   18.6673 O   0  0  0  0  0  0  0  0  0  0  0  0
   39.4507   60.9257   20.1245 O   0  0  0  0  0  0  0  0  0  0  0  0
   38.8100   61.3427   18.9179 S   0  0  0  0  0  0  0  0  0  0  0  0
   39.1381   61.0251   16.8302 H   0  0  0  0  0  0  0  0  0  0  0  0
   39.5757   59.7161   17.7627 H   0  0  0  0  0  0  0  0  0  0  0  0
   33.2835   58.8154   17.2145 C   0  0  0  0  0  0  0  0  0  0  0  0
   31.8518   58.9551   16.8047 C   0  0  0  0  0  0  0  0  0  0  0  0
   33.6696   59.6336   18.2744 N   0  0  0  0  0  0  0  0  0  0  0  0
   34.0744   58.0467   16.6817 O   0  0  0  0  0  0  0  0  0  0  0  0
   32.9523   60.0392   18.8131 H   0  0  0  0  0  0  0  0  0  0  0  0
  1  4  2  0  0  0
  1  9  1  0  0  0
  1  5  1  0  0  0
  2  3  2  0  0  0
  2 14  1  0  0  0
  2  5  1  0  0  0
 12 13  1  0  0  0
 12 14  1  0  0  0
 12 15  2  0  0  0
  6  9  1  0  0  0
  3  4  1  0  0  0
  7  9  2  0  0  0
  8  9  2  0  0  0
  6 10  1  0  0  0
  6 11  1  0  0  0
 14 16  1  0  0  0
M  END
> <minimizedAffinity>
-5.14308

$$$$
3CZV_AZM_A_263


 16 16  0  0  0  0  0  0  0  0999 V2000
   37.4537   61.2276   16.8156 C   0  0  0  0  0  0  0  0  0  0  0  0
   36.9955   60.8820   19.0856 C   0  0  0  0  0  0  0  0  0  0  0  0
   35.9099   60.8713   18.3502 N   0  0  0  0  0  0  0  0  0  0  0  0
   36.1865   61.0750   17.0165 N   0  0  0  0  0  0  0  0  0  0  0  0
   38.4556   61.1473   18.2049 S   0  0  0  0  0  0  0  0  0  0  0  0
   38.9130   62.8673   15.2107 N   0  0  0  0  0  0  0  0  0  0  0  0
   39.0638   60.4457   15.0211 O   0  0  0  0  0  0  0  0  0  0  0  0
   37.0096   61.6341   14.3189 O   0  0  0  0  0  0  0  0  0  0  0  0
   38.1315   61.5075   15.1938 S   0  0  0  0  0  0  0  0  0  0  0  0
   39.7176   62.7894   15.8328 H   0  0  0  0  0  0  0  0  0  0  0  0
   38.2970   63.6094   15.5427 H   0  0  0  0  0  0  0  0  0  0  0  0
   36.9913   59.4610   21.1052 C   0  0  0  0  0  0  0  0  0  0  0  0
   36.5327   59.4848   22.5288 C   0  0  0  0  0  0  0  0  0  0  0  0
   36.9320   60.6906   20.4524 N   0  0  0  0  0  0  0  0  0  0  0  0
   37.3968   58.4556   20.5352 O   0  0  0  0  0  0  0  0  0  0  0  0
   36.8364   61.4933   21.0143 H   0  0  0  0  0  0  0  0  0  0  0  0
  1  4  2  0  0  0
  1  9  1  0  0  0
  1  5  1  0  0  0
  2  3  2  0  0  0
  2 14  1  0  0  0
  2  5  1  0  0  0
 12 13  1  0  0  0
 12 14  1  0  0  0
 12 15  2  0  0  0
  6  9  1  0  0  0
  3  4  1  0  0  0
  7  9  2  0  0  0
  8  9  2  0  0  0
  6 10  1  0  0  0
  6 11  1  0  0  0
 14 16  1  0  0  0
M  END
> <minimizedAffinity>
-5.01025

$$$$
3CZV_AZM_A_263


 16 16  0  0  0  0  0  0  0  0999 V2000
   38.0991   61.1672   17.2192 C   0  0  0  0  0  0  0  0  0  0  0  0
   36.2802   60.7540   18.6347 C   0  0  0  0  0  0  0  0  0  0  0  0
   37.4281   60.6895   19.2653 N   0  0  0  0  0  0  0  0  0  0  0  0
   38.4933   60.9335   18.4271 N   0  0  0  0  0  0  0  0  0  0  0  0
   36.4059   61.1169   16.9523 S   0  0  0  0  0  0  0  0  0  0  0  0
   38.8453   62.8962   15.2576 N   0  0  0  0  0  0  0  0  0  0  0  0
   40.4943   61.6639   16.5558 O   0  0  0  0  0  0  0  0  0  0  0  0
   39.0447   60.4896   14.9295 O   0  0  0  0  0  0  0  0  0  0  0  0
   39.2395   61.5203   15.8991 S   0  0  0  0  0  0  0  0  0  0  0  0
   38.9803   63.6411   15.9412 H   0  0  0  0  0  0  0  0  0  0  0  0
   37.8665   62.8702   14.9720 H   0  0  0  0  0  0  0  0  0  0  0  0
   34.5383   61.3820   20.2685 C   0  0  0  0  0  0  0  0  0  0  0  0
   33.4561   60.7612   21.0935 C   0  0  0  0  0  0  0  0  0  0  0  0
   35.0885   60.5435   19.3011 N   0  0  0  0  0  0  0  0  0  0  0  0
   34.9260   62.5356   20.4072 O   0  0  0  0  0  0  0  0  0  0  0  0
   34.5837   59.7298   19.0724 H   0  0  0  0  0  0  0  0  0  0  0  0
  1  4  2  0  0  0
  1  9  1  0  0  0
  1  5  1  0  0  0
  2  3  2  0  0  0
  2 14  1  0  0  0
  2  5  1  0  0  0
 12 13  1  0  0  0
 12 14  1  0  0  0
 12 15  2  0  0  0
  6  9  1  0  0  0
  3  4  1  0  0  0
  7  9  2  0  0  0
  8  9  2  0  0  0
  6 10  1  0  0  0
  6 11  1  0  0  0
 14 16  1  0  0  0
M  END
> <minimizedAffinity>
-4.94700

$$$$
