1K22_MEL_H_999


 37 39  0  0  0  0  0  0  0  0999 V2000
   17.8802  -13.2549   22.2182 C   0  0  0  0  0  0  0  0  0  0  0  0
   16.8433  -12.6203   22.5798 O   0  0  0  0  0  0  0  0  0  0  0  0
   18.5553  -12.8847   21.1320 N   0  0  0  0  0  0  0  0  0  0  0  0
   18.3143  -11.7898   20.1772 C   0  0  0  0  0  0  0  0  0  0  0  0
   19.6110  -12.0685   19.4964 C   0  0  0  0  0  0  0  0  0  0  0  0
   19.7413  -13.3209   20.3999 C   0  0  0  0  0  0  0  0  0  0  0  0
   16.9147  -12.0291   19.6148 C   0  0  0  0  0  0  0  0  0  0  0  0
   16.6357  -13.1279   19.1584 O   0  0  0  0  0  0  0  0  0  0  0  0
   15.9573  -11.0171   19.6497 N   0  0  0  0  0  0  0  0  0  0  0  0
   16.2156  -10.1047   19.9143 H   0  0  0  0  0  0  0  0  0  0  0  0
   14.5862  -11.3056   19.2979 C   0  0  0  0  0  0  0  0  0  0  0  0
   13.7106  -11.1512   20.4714 C   0  0  0  0  0  0  0  0  0  0  0  0
   13.2657  -12.2971   21.1437 C   0  0  0  0  0  0  0  0  0  0  0  0
   12.4146  -12.1812   22.2907 C   0  0  0  0  0  0  0  0  0  0  0  0
   12.0159  -10.9140   22.7533 C   0  0  0  0  0  0  0  0  0  0  0  0
   12.4683   -9.7313   22.0680 C   0  0  0  0  0  0  0  0  0  0  0  0
   13.3239   -9.8591   20.9179 C   0  0  0  0  0  0  0  0  0  0  0  0
   11.1856  -10.8044   23.8780 C   0  0  0  0  0  0  0  0  0  0  0  0
   10.7551  -11.9257   24.5339 N   0  0  0  0  0  0  0  0  0  0  0  0
   10.8051   -9.5677   24.3393 N   0  0  0  0  0  0  0  0  0  0  0  0
   11.0216  -12.8171   24.2121 H   0  0  0  0  0  0  0  0  0  0  0  0
   11.1089   -8.7543   23.8752 H   0  0  0  0  0  0  0  0  0  0  0  0
   10.2286   -9.4948   25.1340 H   0  0  0  0  0  0  0  0  0  0  0  0
   18.3334  -14.4369   23.0163 C   0  0  0  0  0  0  0  0  0  0  0  0
   18.8182  -13.9564   24.4480 C   0  0  0  0  0  0  0  0  0  0  0  0
   19.0423  -15.1809   25.3837 C   0  0  0  0  0  0  0  0  0  0  0  0
   19.6205  -14.7682   26.7740 C   0  0  0  0  0  0  0  0  0  0  0  0
   20.9073  -13.9212   26.5714 C   0  0  0  0  0  0  0  0  0  0  0  0
   20.6260  -12.6559   25.6924 C   0  0  0  0  0  0  0  0  0  0  0  0
   20.1317  -13.1173   24.2876 C   0  0  0  0  0  0  0  0  0  0  0  0
   17.1765  -15.3635   23.1759 N   0  0  0  0  0  0  0  0  0  0  0  0
   16.4022  -14.8071   23.5382 H   0  0  0  0  0  0  0  0  0  0  0  0
   16.6506  -16.1171   21.9972 C   0  0  0  0  0  0  0  0  0  0  0  0
   15.1651  -15.7999   21.6924 C   0  0  0  0  0  0  0  0  0  0  0  0
   14.2595  -15.8096   22.6681 O   0  0  0  0  0  0  0  0  0  0  0  0
   14.7967  -15.5280   20.4682 O   0  0  0  0  0  0  0  0  0  0  0  0
   14.5197  -16.0040   23.5469 H   0  0  0  0  0  0  0  0  0  0  0  0
 25 26  1  0  0  0
 25 30  1  0  0  0
 25 24  1  0  0  0
 26 27  1  0  0  0
 27 28  1  0  0  0
 28 29  1  0  0  0
 29 30  1  0  0  0
 31 24  1  0  0  0
 31 33  1  0  0  0
 24  1  1  0  0  0
  1  2  2  0  0  0
  1  3  1  0  0  0
  3  4  1  0  0  0
  3  6  1  0  0  0
  4  7  1  0  0  0
  4  5  1  0  0  0
  7  8  2  0  0  0
  7  9  1  0  0  0
  9 11  1  0  0  0
 11 12  1  0  0  0
 12 13  2  0  0  0
 12 17  1  0  0  0
 13 14  1  0  0  0
 14 15  2  0  0  0
 15 16  1  0  0  0
 15 18  1  0  0  0
 16 17  2  0  0  0
 18 19  2  0  0  0
 18 20  1  0  0  0
  5  6  1  0  0  0
 33 34  1  0  0  0
 34 35  1  0  0  0
 34 36  2  0  0  0
 31 32  1  0  0  0
  9 10  1  0  0  0
 19 21  1  0  0  0
 20 22  1  0  0  0
 20 23  1  0  0  0
 35 37  1  0  0  0
M  END
> <minimizedAffinity>
-10.16694

$$$$
1K22_MEL_H_999


 37 39  0  0  0  0  0  0  0  0999 V2000
   17.8973  -13.2659   22.2744 C   0  0  0  0  0  0  0  0  0  0  0  0
   16.8344  -12.6823   22.6464 O   0  0  0  0  0  0  0  0  0  0  0  0
   18.5483  -12.8573   21.1873 N   0  0  0  0  0  0  0  0  0  0  0  0
   18.2516  -11.7679   20.2419 C   0  0  0  0  0  0  0  0  0  0  0  0
   19.5557  -11.9817   19.5520 C   0  0  0  0  0  0  0  0  0  0  0  0
   19.7488  -13.2332   20.4454 C   0  0  0  0  0  0  0  0  0  0  0  0
   16.8612  -12.0673   19.6855 C   0  0  0  0  0  0  0  0  0  0  0  0
   16.5610  -13.2221   19.4215 O   0  0  0  0  0  0  0  0  0  0  0  0
   15.9350  -11.0409   19.5100 N   0  0  0  0  0  0  0  0  0  0  0  0
   16.2140  -10.1029   19.6177 H   0  0  0  0  0  0  0  0  0  0  0  0
   14.5658  -11.3521   19.1704 C   0  0  0  0  0  0  0  0  0  0  0  0
   13.6995  -11.2198   20.3534 C   0  0  0  0  0  0  0  0  0  0  0  0
   13.4138   -9.9403   20.8478 C   0  0  0  0  0  0  0  0  0  0  0  0
   12.5720   -9.7770   21.9959 C   0  0  0  0  0  0  0  0  0  0  0  0
   12.0238  -10.9013   22.6395 C   0  0  0  0  0  0  0  0  0  0  0  0
   12.3125  -12.2198   22.1381 C   0  0  0  0  0  0  0  0  0  0  0  0
   13.1582  -12.3722   20.9837 C   0  0  0  0  0  0  0  0  0  0  0  0
   11.1979  -10.7375   23.7608 C   0  0  0  0  0  0  0  0  0  0  0  0
   10.9283   -9.4867   24.2466 N   0  0  0  0  0  0  0  0  0  0  0  0
   10.6416  -11.8322   24.3764 N   0  0  0  0  0  0  0  0  0  0  0  0
   11.3216   -8.6950   23.8133 H   0  0  0  0  0  0  0  0  0  0  0  0
   10.8286  -12.7367   24.0354 H   0  0  0  0  0  0  0  0  0  0  0  0
   10.0558  -11.7124   25.1585 H   0  0  0  0  0  0  0  0  0  0  0  0
   18.4090  -14.4315   23.0612 C   0  0  0  0  0  0  0  0  0  0  0  0
   18.8904  -13.9376   24.4894 C   0  0  0  0  0  0  0  0  0  0  0  0
   19.1246  -15.1540   25.4332 C   0  0  0  0  0  0  0  0  0  0  0  0
   19.7001  -14.7273   26.8204 C   0  0  0  0  0  0  0  0  0  0  0  0
   20.9800  -13.8714   26.6117 C   0  0  0  0  0  0  0  0  0  0  0  0
   20.6882  -12.6143   25.7244 C   0  0  0  0  0  0  0  0  0  0  0  0
   20.1971  -13.0891   24.3229 C   0  0  0  0  0  0  0  0  0  0  0  0
   17.2938  -15.4064   23.2298 N   0  0  0  0  0  0  0  0  0  0  0  0
   16.4527  -14.8610   23.4185 H   0  0  0  0  0  0  0  0  0  0  0  0
   16.9533  -16.3551   22.1263 C   0  0  0  0  0  0  0  0  0  0  0  0
   17.9600  -17.5264   22.0057 C   0  0  0  0  0  0  0  0  0  0  0  0
   18.2482  -18.2797   23.0649 O   0  0  0  0  0  0  0  0  0  0  0  0
   18.5361  -17.7727   20.8587 O   0  0  0  0  0  0  0  0  0  0  0  0
   17.8373  -18.1062   23.8889 H   0  0  0  0  0  0  0  0  0  0  0  0
 25 26  1  0  0  0
 25 30  1  0  0  0
 25 24  1  0  0  0
 26 27  1  0  0  0
 27 28  1  0  0  0
 28 29  1  0  0  0
 29 30  1  0  0  0
 31 24  1  0  0  0
 31 33  1  0  0  0
 24  1  1  0  0  0
  1  2  2  0  0  0
  1  3  1  0  0  0
  3  4  1  0  0  0
  3  6  1  0  0  0
  4  7  1  0  0  0
  4  5  1  0  0  0
  7  8  2  0  0  0
  7  9  1  0  0  0
  9 11  1  0  0  0
 11 12  1  0  0  0
 12 13  2  0  0  0
 12 17  1  0  0  0
 13 14  1  0  0  0
 14 15  2  0  0  0
 15 16  1  0  0  0
 15 18  1  0  0  0
 16 17  2  0  0  0
 18 19  2  0  0  0
 18 20  1  0  0  0
  5  6  1  0  0  0
 33 34  1  0  0  0
 34 35  1  0  0  0
 34 36  2  0  0  0
 31 32  1  0  0  0
  9 10  1  0  0  0
 19 21  1  0  0  0
 20 22  1  0  0  0
 20 23  1  0  0  0
 35 37  1  0  0  0
M  END
> <minimizedAffinity>
-9.46612

$$$$
1K22_MEL_H_999


 37 39  0  0  0  0  0  0  0  0999 V2000
   13.6360  -13.4035   21.4585 C   0  0  0  0  0  0  0  0  0  0  0  0
   14.6265  -13.2626   22.2379 O   0  0  0  0  0  0  0  0  0  0  0  0
   13.3398  -14.5979   20.9502 N   0  0  0  0  0  0  0  0  0  0  0  0
   13.9945  -15.9055   21.1238 C   0  0  0  0  0  0  0  0  0  0  0  0
   12.8974  -16.5793   20.3721 C   0  0  0  0  0  0  0  0  0  0  0  0
   12.3369  -15.1695   20.0557 C   0  0  0  0  0  0  0  0  0  0  0  0
   15.4373  -15.7128   20.6616 C   0  0  0  0  0  0  0  0  0  0  0  0
   15.6786  -15.6680   19.4645 O   0  0  0  0  0  0  0  0  0  0  0  0
   16.4623  -15.5587   21.5931 N   0  0  0  0  0  0  0  0  0  0  0  0
   16.2834  -15.7052   22.5500 H   0  0  0  0  0  0  0  0  0  0  0  0
   17.7872  -15.1841   21.1558 C   0  0  0  0  0  0  0  0  0  0  0  0
   18.5759  -14.6687   22.2870 C   0  0  0  0  0  0  0  0  0  0  0  0
   19.7108  -13.8895   22.0262 C   0  0  0  0  0  0  0  0  0  0  0  0
   20.4985  -13.3706   23.1048 C   0  0  0  0  0  0  0  0  0  0  0  0
   20.1404  -13.6394   24.4384 C   0  0  0  0  0  0  0  0  0  0  0  0
   18.9758  -14.4395   24.7153 C   0  0  0  0  0  0  0  0  0  0  0  0
   18.1911  -14.9546   23.6244 C   0  0  0  0  0  0  0  0  0  0  0  0
   20.9119  -13.1272   25.4913 C   0  0  0  0  0  0  0  0  0  0  0  0
   20.9660  -11.7788   25.7193 N   0  0  0  0  0  0  0  0  0  0  0  0
   21.6129  -13.9766   26.3124 N   0  0  0  0  0  0  0  0  0  0  0  0
   20.4676  -11.1608   25.1371 H   0  0  0  0  0  0  0  0  0  0  0  0
   21.5812  -14.9483   26.1577 H   0  0  0  0  0  0  0  0  0  0  0  0
   22.1470  -13.6136   27.0555 H   0  0  0  0  0  0  0  0  0  0  0  0
   12.8073  -12.2098   21.1008 C   0  0  0  0  0  0  0  0  0  0  0  0
   12.7446  -11.2175   22.3365 C   0  0  0  0  0  0  0  0  0  0  0  0
   12.7589   -9.7395   21.8463 C   0  0  0  0  0  0  0  0  0  0  0  0
   12.5935   -8.7229   23.0196 C   0  0  0  0  0  0  0  0  0  0  0  0
   11.3194   -9.0743   23.8366 C   0  0  0  0  0  0  0  0  0  0  0  0
   11.3766  -10.5417   24.3810 C   0  0  0  0  0  0  0  0  0  0  0  0
   11.4563  -11.5249   23.1737 C   0  0  0  0  0  0  0  0  0  0  0  0
   13.4562  -11.5192   19.9499 N   0  0  0  0  0  0  0  0  0  0  0  0
   13.7403  -10.5977   20.2824 H   0  0  0  0  0  0  0  0  0  0  0  0
   14.6513  -12.1254   19.2881 C   0  0  0  0  0  0  0  0  0  0  0  0
   15.8803  -11.1821   19.2811 C   0  0  0  0  0  0  0  0  0  0  0  0
   16.1479  -10.4153   20.3359 O   0  0  0  0  0  0  0  0  0  0  0  0
   16.6557  -11.1329   18.2302 O   0  0  0  0  0  0  0  0  0  0  0  0
   15.5943  -10.4478   21.0912 H   0  0  0  0  0  0  0  0  0  0  0  0
 25 26  1  0  0  0
 25 30  1  0  0  0
 25 24  1  0  0  0
 26 27  1  0  0  0
 27 28  1  0  0  0
 28 29  1  0  0  0
 29 30  1  0  0  0
 31 24  1  0  0  0
 31 33  1  0  0  0
 24  1  1  0  0  0
  1  2  2  0  0  0
  1  3  1  0  0  0
  3  4  1  0  0  0
  3  6  1  0  0  0
  4  7  1  0  0  0
  4  5  1  0  0  0
  7  8  2  0  0  0
  7  9  1  0  0  0
  9 11  1  0  0  0
 11 12  1  0  0  0
 12 13  2  0  0  0
 12 17  1  0  0  0
 13 14  1  0  0  0
 14 15  2  0  0  0
 15 16  1  0  0  0
 15 18  1  0  0  0
 16 17  2  0  0  0
 18 19  2  0  0  0
 18 20  1  0  0  0
  5  6  1  0  0  0
 33 34  1  0  0  0
 34 35  1  0  0  0
 34 36  2  0  0  0
 31 32  1  0  0  0
  9 10  1  0  0  0
 19 21  1  0  0  0
 20 22  1  0  0  0
 20 23  1  0  0  0
 35 37  1  0  0  0
M  END
> <minimizedAffinity>
-8.68020

$$$$
1K22_MEL_H_999


 37 39  0  0  0  0  0  0  0  0999 V2000
   17.7379  -13.5104   22.1440 C   0  0  0  0  0  0  0  0  0  0  0  0
   16.7548  -12.8130   22.5387 O   0  0  0  0  0  0  0  0  0  0  0  0
   18.5621  -13.0478   21.2062 N   0  0  0  0  0  0  0  0  0  0  0  0
   18.5572  -11.7755   20.4648 C   0  0  0  0  0  0  0  0  0  0  0  0
   19.8734  -12.1049   19.8471 C   0  0  0  0  0  0  0  0  0  0  0  0
   19.7550  -13.5059   20.4990 C   0  0  0  0  0  0  0  0  0  0  0  0
   17.2046  -11.7108   19.7586 C   0  0  0  0  0  0  0  0  0  0  0  0
   16.9313  -12.5529   18.9162 O   0  0  0  0  0  0  0  0  0  0  0  0
   16.2805  -10.7226   20.0924 N   0  0  0  0  0  0  0  0  0  0  0  0
   16.5438   -9.9838   20.6875 H   0  0  0  0  0  0  0  0  0  0  0  0
   14.9365  -10.7811   19.5661 C   0  0  0  0  0  0  0  0  0  0  0  0
   13.9540  -10.7791   20.6625 C   0  0  0  0  0  0  0  0  0  0  0  0
   13.6468   -9.5690   21.2984 C   0  0  0  0  0  0  0  0  0  0  0  0
   12.6930   -9.5323   22.3672 C   0  0  0  0  0  0  0  0  0  0  0  0
   12.0552  -10.7128   22.7898 C   0  0  0  0  0  0  0  0  0  0  0  0
   12.3653  -11.9607   22.1419 C   0  0  0  0  0  0  0  0  0  0  0  0
   13.3238  -11.9858   21.0687 C   0  0  0  0  0  0  0  0  0  0  0  0
   11.1200  -10.6726   23.8339 C   0  0  0  0  0  0  0  0  0  0  0  0
   10.5261  -11.8230   24.2775 N   0  0  0  0  0  0  0  0  0  0  0  0
   10.7991   -9.4772   24.4298 N   0  0  0  0  0  0  0  0  0  0  0  0
   10.7486  -12.6853   23.8578 H   0  0  0  0  0  0  0  0  0  0  0  0
   11.2202   -8.6434   24.1188 H   0  0  0  0  0  0  0  0  0  0  0  0
   10.1480   -9.4543   25.1679 H   0  0  0  0  0  0  0  0  0  0  0  0
   17.9577  -14.8689   22.7318 C   0  0  0  0  0  0  0  0  0  0  0  0
   17.9221  -15.9581   21.5794 C   0  0  0  0  0  0  0  0  0  0  0  0
   18.5140  -17.3055   22.0885 C   0  0  0  0  0  0  0  0  0  0  0  0
   18.4062  -18.4418   21.0232 C   0  0  0  0  0  0  0  0  0  0  0  0
   16.9323  -18.5721   20.5490 C   0  0  0  0  0  0  0  0  0  0  0  0
   16.3968  -17.2191   19.9697 C   0  0  0  0  0  0  0  0  0  0  0  0
   16.4442  -16.1365   21.0906 C   0  0  0  0  0  0  0  0  0  0  0  0
   19.3000  -14.8851   23.3804 N   0  0  0  0  0  0  0  0  0  0  0  0
   19.7924  -14.0523   23.0574 H   0  0  0  0  0  0  0  0  0  0  0  0
   19.4131  -14.9014   24.8706 C   0  0  0  0  0  0  0  0  0  0  0  0
   20.0805  -13.6239   25.4388 C   0  0  0  0  0  0  0  0  0  0  0  0
   20.4228  -13.5564   26.7235 O   0  0  0  0  0  0  0  0  0  0  0  0
   20.3026  -12.6028   24.6539 O   0  0  0  0  0  0  0  0  0  0  0  0
   20.2652  -14.2864   27.2894 H   0  0  0  0  0  0  0  0  0  0  0  0
 25 26  1  0  0  0
 25 30  1  0  0  0
 25 24  1  0  0  0
 26 27  1  0  0  0
 27 28  1  0  0  0
 28 29  1  0  0  0
 29 30  1  0  0  0
 31 24  1  0  0  0
 31 33  1  0  0  0
 24  1  1  0  0  0
  1  2  2  0  0  0
  1  3  1  0  0  0
  3  4  1  0  0  0
  3  6  1  0  0  0
  4  7  1  0  0  0
  4  5  1  0  0  0
  7  8  2  0  0  0
  7  9  1  0  0  0
  9 11  1  0  0  0
 11 12  1  0  0  0
 12 13  2  0  0  0
 12 17  1  0  0  0
 13 14  1  0  0  0
 14 15  2  0  0  0
 15 16  1  0  0  0
 15 18  1  0  0  0
 16 17  2  0  0  0
 18 19  2  0  0  0
 18 20  1  0  0  0
  5  6  1  0  0  0
 33 34  1  0  0  0
 34 35  1  0  0  0
 34 36  2  0  0  0
 31 32  1  0  0  0
  9 10  1  0  0  0
 19 21  1  0  0  0
 20 22  1  0  0  0
 20 23  1  0  0  0
 35 37  1  0  0  0
M  END
> <minimizedAffinity>
-8.18789

$$$$
1K22_MEL_H_999


 37 39  0  0  0  0  0  0  0  0999 V2000
   19.3940  -14.6892   21.6750 C   0  0  0  0  0  0  0  0  0  0  0  0
   19.5917  -13.8112   20.7814 O   0  0  0  0  0  0  0  0  0  0  0  0
   18.2423  -15.3554   21.7256 N   0  0  0  0  0  0  0  0  0  0  0  0
   17.0416  -15.2651   20.8779 C   0  0  0  0  0  0  0  0  0  0  0  0
   16.4416  -16.4448   21.5639 C   0  0  0  0  0  0  0  0  0  0  0  0
   17.6340  -16.3943   22.5524 C   0  0  0  0  0  0  0  0  0  0  0  0
   16.5736  -13.8145   20.9730 C   0  0  0  0  0  0  0  0  0  0  0  0
   16.9526  -13.1261   21.9088 O   0  0  0  0  0  0  0  0  0  0  0  0
   15.7495  -13.2726   19.9883 N   0  0  0  0  0  0  0  0  0  0  0  0
   15.3577  -13.8561   19.2990 H   0  0  0  0  0  0  0  0  0  0  0  0
   15.4697  -11.8554   19.9783 C   0  0  0  0  0  0  0  0  0  0  0  0
   14.3745  -11.5406   20.9104 C   0  0  0  0  0  0  0  0  0  0  0  0
   13.6417  -12.5908   21.4787 C   0  0  0  0  0  0  0  0  0  0  0  0
   12.5713  -12.3184   22.3916 C   0  0  0  0  0  0  0  0  0  0  0  0
   12.2445  -10.9917   22.7263 C   0  0  0  0  0  0  0  0  0  0  0  0
   12.9923   -9.9064   22.1465 C   0  0  0  0  0  0  0  0  0  0  0  0
   14.0662  -10.1915   21.2318 C   0  0  0  0  0  0  0  0  0  0  0  0
   11.1984  -10.7290   23.6224 C   0  0  0  0  0  0  0  0  0  0  0  0
   10.3583  -11.7331   24.0211 N   0  0  0  0  0  0  0  0  0  0  0  0
   11.0139   -9.4613   24.1182 N   0  0  0  0  0  0  0  0  0  0  0  0
   10.4812  -12.6454   23.6722 H   0  0  0  0  0  0  0  0  0  0  0  0
   11.6123   -8.7313   23.8383 H   0  0  0  0  0  0  0  0  0  0  0  0
   10.2832   -9.2826   24.7533 H   0  0  0  0  0  0  0  0  0  0  0  0
   20.4633  -14.9621   22.6858 C   0  0  0  0  0  0  0  0  0  0  0  0
   20.0939  -14.2511   24.0545 C   0  0  0  0  0  0  0  0  0  0  0  0
   20.0626  -15.2901   25.2141 C   0  0  0  0  0  0  0  0  0  0  0  0
   19.8059  -14.6234   26.6023 C   0  0  0  0  0  0  0  0  0  0  0  0
   20.8442  -13.4913   26.8356 C   0  0  0  0  0  0  0  0  0  0  0  0
   20.7915  -12.4231   25.6915 C   0  0  0  0  0  0  0  0  0  0  0  0
   21.1361  -13.1159   24.3381 C   0  0  0  0  0  0  0  0  0  0  0  0
   20.5354  -16.4353   22.9025 N   0  0  0  0  0  0  0  0  0  0  0  0
   19.6555  -16.8255   22.5647 H   0  0  0  0  0  0  0  0  0  0  0  0
   21.6305  -17.2337   22.2722 C   0  0  0  0  0  0  0  0  0  0  0  0
   21.3258  -17.6213   20.8035 C   0  0  0  0  0  0  0  0  0  0  0  0
   20.2564  -18.3571   20.5081 O   0  0  0  0  0  0  0  0  0  0  0  0
   22.1275  -17.2297   19.8484 O   0  0  0  0  0  0  0  0  0  0  0  0
   19.6793  -18.6397   21.1901 H   0  0  0  0  0  0  0  0  0  0  0  0
 25 26  1  0  0  0
 25 30  1  0  0  0
 25 24  1  0  0  0
 26 27  1  0  0  0
 27 28  1  0  0  0
 28 29  1  0  0  0
 29 30  1  0  0  0
 31 24  1  0  0  0
 31 33  1  0  0  0
 24  1  1  0  0  0
  1  2  2  0  0  0
  1  3  1  0  0  0
  3  4  1  0  0  0
  3  6  1  0  0  0
  4  7  1  0  0  0
  4  5  1  0  0  0
  7  8  2  0  0  0
  7  9  1  0  0  0
  9 11  1  0  0  0
 11 12  1  0  0  0
 12 13  2  0  0  0
 12 17  1  0  0  0
 13 14  1  0  0  0
 14 15  2  0  0  0
 15 16  1  0  0  0
 15 18  1  0  0  0
 16 17  2  0  0  0
 18 19  2  0  0  0
 18 20  1  0  0  0
  5  6  1  0  0  0
 33 34  1  0  0  0
 34 35  1  0  0  0
 34 36  2  0  0  0
 31 32  1  0  0  0
  9 10  1  0  0  0
 19 21  1  0  0  0
 20 22  1  0  0  0
 20 23  1  0  0  0
 35 37  1  0  0  0
M  END
> <minimizedAffinity>
-7.88117

$$$$
1K22_MEL_H_999


 37 39  0  0  0  0  0  0  0  0999 V2000
   13.5345  -14.4436   20.6978 C   0  0  0  0  0  0  0  0  0  0  0  0
   14.3182  -14.6112   21.6808 O   0  0  0  0  0  0  0  0  0  0  0  0
   12.7113  -15.4177   20.3153 N   0  0  0  0  0  0  0  0  0  0  0  0
   12.5145  -16.7753   20.8507 C   0  0  0  0  0  0  0  0  0  0  0  0
   11.3483  -16.9867   19.9462 C   0  0  0  0  0  0  0  0  0  0  0  0
   11.6991  -15.6301   19.2842 C   0  0  0  0  0  0  0  0  0  0  0  0
   13.8774  -17.4587   20.7626 C   0  0  0  0  0  0  0  0  0  0  0  0
   14.2408  -17.9282   19.6945 O   0  0  0  0  0  0  0  0  0  0  0  0
   14.7103  -17.5190   21.8784 N   0  0  0  0  0  0  0  0  0  0  0  0
   14.3722  -17.2407   22.7601 H   0  0  0  0  0  0  0  0  0  0  0  0
   16.0692  -17.9896   21.7423 C   0  0  0  0  0  0  0  0  0  0  0  0
   17.0194  -16.9467   22.1629 C   0  0  0  0  0  0  0  0  0  0  0  0
   17.5854  -16.1103   21.1916 C   0  0  0  0  0  0  0  0  0  0  0  0
   18.5116  -15.0838   21.5682 C   0  0  0  0  0  0  0  0  0  0  0  0
   18.8631  -14.9058   22.9186 C   0  0  0  0  0  0  0  0  0  0  0  0
   18.2864  -15.7612   23.9230 C   0  0  0  0  0  0  0  0  0  0  0  0
   17.3562  -16.7881   23.5339 C   0  0  0  0  0  0  0  0  0  0  0  0
   19.7674  -13.8982   23.2837 C   0  0  0  0  0  0  0  0  0  0  0  0
   20.7306  -13.4797   22.4061 N   0  0  0  0  0  0  0  0  0  0  0  0
   19.6876  -13.3130   24.5238 N   0  0  0  0  0  0  0  0  0  0  0  0
   20.7970  -13.8921   21.5146 H   0  0  0  0  0  0  0  0  0  0  0  0
   18.9987  -13.6062   25.1631 H   0  0  0  0  0  0  0  0  0  0  0  0
   20.3193  -12.6003   24.7734 H   0  0  0  0  0  0  0  0  0  0  0  0
   13.5518  -13.1428   19.9582 C   0  0  0  0  0  0  0  0  0  0  0  0
   13.5071  -11.9425   20.9940 C   0  0  0  0  0  0  0  0  0  0  0  0
   13.5603  -10.5780   20.2455 C   0  0  0  0  0  0  0  0  0  0  0  0
   13.4139   -9.3627   21.2146 C   0  0  0  0  0  0  0  0  0  0  0  0
   12.1274   -9.5312   22.0695 C   0  0  0  0  0  0  0  0  0  0  0  0
   12.1456  -10.8772   22.8700 C   0  0  0  0  0  0  0  0  0  0  0  0
   12.2074  -12.0637   21.8606 C   0  0  0  0  0  0  0  0  0  0  0  0
   14.8184  -13.0679   19.1755 N   0  0  0  0  0  0  0  0  0  0  0  0
   14.7143  -12.2921   18.5215 H   0  0  0  0  0  0  0  0  0  0  0  0
   16.1231  -12.8679   19.8767 C   0  0  0  0  0  0  0  0  0  0  0  0
   16.8148  -11.5352   19.4950 C   0  0  0  0  0  0  0  0  0  0  0  0
   17.5834  -10.8980   20.3757 O   0  0  0  0  0  0  0  0  0  0  0  0
   16.6372  -11.0289   18.3033 O   0  0  0  0  0  0  0  0  0  0  0  0
   17.7132  -11.2578   21.2310 H   0  0  0  0  0  0  0  0  0  0  0  0
 25 26  1  0  0  0
 25 30  1  0  0  0
 25 24  1  0  0  0
 26 27  1  0  0  0
 27 28  1  0  0  0
 28 29  1  0  0  0
 29 30  1  0  0  0
 31 24  1  0  0  0
 31 33  1  0  0  0
 24  1  1  0  0  0
  1  2  2  0  0  0
  1  3  1  0  0  0
  3  4  1  0  0  0
  3  6  1  0  0  0
  4  7  1  0  0  0
  4  5  1  0  0  0
  7  8  2  0  0  0
  7  9  1  0  0  0
  9 11  1  0  0  0
 11 12  1  0  0  0
 12 13  2  0  0  0
 12 17  1  0  0  0
 13 14  1  0  0  0
 14 15  2  0  0  0
 15 16  1  0  0  0
 15 18  1  0  0  0
 16 17  2  0  0  0
 18 19  2  0  0  0
 18 20  1  0  0  0
  5  6  1  0  0  0
 33 34  1  0  0  0
 34 35  1  0  0  0
 34 36  2  0  0  0
 31 32  1  0  0  0
  9 10  1  0  0  0
 19 21  1  0  0  0
 20 22  1  0  0  0
 20 23  1  0  0  0
 35 37  1  0  0  0
M  END
> <minimizedAffinity>
-7.84010

$$$$
1K22_MEL_H_999


 37 39  0  0  0  0  0  0  0  0999 V2000
   13.8775  -13.4680   20.0856 C   0  0  0  0  0  0  0  0  0  0  0  0
   14.4293  -13.6844   18.9643 O   0  0  0  0  0  0  0  0  0  0  0  0
   13.8301  -12.2365   20.5897 N   0  0  0  0  0  0  0  0  0  0  0  0
   14.3410  -10.9610   20.0602 C   0  0  0  0  0  0  0  0  0  0  0  0
   13.6801  -10.2116   21.1667 C   0  0  0  0  0  0  0  0  0  0  0  0
   13.3165  -11.5829   21.7904 C   0  0  0  0  0  0  0  0  0  0  0  0
   15.8413  -11.1647   19.8604 C   0  0  0  0  0  0  0  0  0  0  0  0
   16.3134  -11.0556   18.7385 O   0  0  0  0  0  0  0  0  0  0  0  0
   16.6674  -11.4406   20.9484 N   0  0  0  0  0  0  0  0  0  0  0  0
   16.2723  -11.6366   21.8286 H   0  0  0  0  0  0  0  0  0  0  0  0
   18.1027  -11.4393   20.7858 C   0  0  0  0  0  0  0  0  0  0  0  0
   18.6890  -12.6519   21.3804 C   0  0  0  0  0  0  0  0  0  0  0  0
   18.6209  -12.8303   22.7684 C   0  0  0  0  0  0  0  0  0  0  0  0
   19.1795  -14.0006   23.3781 C   0  0  0  0  0  0  0  0  0  0  0  0
   19.8035  -14.9832   22.5881 C   0  0  0  0  0  0  0  0  0  0  0  0
   19.8780  -14.8076   21.1609 C   0  0  0  0  0  0  0  0  0  0  0  0
   19.3126  -13.6290   20.5589 C   0  0  0  0  0  0  0  0  0  0  0  0
   20.3462  -16.1286   23.1878 C   0  0  0  0  0  0  0  0  0  0  0  0
   21.5669  -16.0764   23.8042 N   0  0  0  0  0  0  0  0  0  0  0  0
   19.6511  -17.3133   23.1720 N   0  0  0  0  0  0  0  0  0  0  0  0
   22.0739  -15.2326   23.8216 H   0  0  0  0  0  0  0  0  0  0  0  0
   18.7720  -17.3625   22.7315 H   0  0  0  0  0  0  0  0  0  0  0  0
   20.0320  -18.1133   23.6012 H   0  0  0  0  0  0  0  0  0  0  0  0
   13.2901  -14.6136   20.8483 C   0  0  0  0  0  0  0  0  0  0  0  0
   13.0523  -15.8377   19.8682 C   0  0  0  0  0  0  0  0  0  0  0  0
   13.0922  -17.1797   20.6572 C   0  0  0  0  0  0  0  0  0  0  0  0
   12.7597  -18.4095   19.7546 C   0  0  0  0  0  0  0  0  0  0  0  0
   11.4033  -18.1743   19.0341 C   0  0  0  0  0  0  0  0  0  0  0  0
   11.4274  -16.8575   18.1866 C   0  0  0  0  0  0  0  0  0  0  0  0
   11.6783  -15.6490   19.1392 C   0  0  0  0  0  0  0  0  0  0  0  0
   14.2594  -15.0149   21.9076 N   0  0  0  0  0  0  0  0  0  0  0  0
   14.0385  -15.9786   22.1582 H   0  0  0  0  0  0  0  0  0  0  0  0
   15.7286  -14.9660   21.6377 C   0  0  0  0  0  0  0  0  0  0  0  0
   16.4799  -16.2156   22.1613 C   0  0  0  0  0  0  0  0  0  0  0  0
   16.5653  -16.4525   23.4685 O   0  0  0  0  0  0  0  0  0  0  0  0
   17.0400  -17.0391   21.3150 O   0  0  0  0  0  0  0  0  0  0  0  0
   16.1651  -15.8645   24.0784 H   0  0  0  0  0  0  0  0  0  0  0  0
 25 26  1  0  0  0
 25 30  1  0  0  0
 25 24  1  0  0  0
 26 27  1  0  0  0
 27 28  1  0  0  0
 28 29  1  0  0  0
 29 30  1  0  0  0
 31 24  1  0  0  0
 31 33  1  0  0  0
 24  1  1  0  0  0
  1  2  2  0  0  0
  1  3  1  0  0  0
  3  4  1  0  0  0
  3  6  1  0  0  0
  4  7  1  0  0  0
  4  5  1  0  0  0
  7  8  2  0  0  0
  7  9  1  0  0  0
  9 11  1  0  0  0
 11 12  1  0  0  0
 12 13  2  0  0  0
 12 17  1  0  0  0
 13 14  1  0  0  0
 14 15  2  0  0  0
 15 16  1  0  0  0
 15 18  1  0  0  0
 16 17  2  0  0  0
 18 19  2  0  0  0
 18 20  1  0  0  0
  5  6  1  0  0  0
 33 34  1  0  0  0
 34 35  1  0  0  0
 34 36  2  0  0  0
 31 32  1  0  0  0
  9 10  1  0  0  0
 19 21  1  0  0  0
 20 22  1  0  0  0
 20 23  1  0  0  0
 35 37  1  0  0  0
M  END
> <minimizedAffinity>
-7.61794

$$$$
1K22_MEL_H_999


 37 39  0  0  0  0  0  0  0  0999 V2000
   15.1267  -13.5334   21.3015 C   0  0  0  0  0  0  0  0  0  0  0  0
   14.4765  -13.5075   22.3901 O   0  0  0  0  0  0  0  0  0  0  0  0
   15.0762  -14.6018   20.5086 N   0  0  0  0  0  0  0  0  0  0  0  0
   14.3551  -15.8769   20.6589 C   0  0  0  0  0  0  0  0  0  0  0  0
   14.7527  -16.2893   19.2825 C   0  0  0  0  0  0  0  0  0  0  0  0
   15.6460  -15.0240   19.2319 C   0  0  0  0  0  0  0  0  0  0  0  0
   14.8461  -16.4800   21.9732 C   0  0  0  0  0  0  0  0  0  0  0  0
   14.0711  -17.1341   22.6551 O   0  0  0  0  0  0  0  0  0  0  0  0
   16.1699  -16.3133   22.3755 N   0  0  0  0  0  0  0  0  0  0  0  0
   16.7595  -15.6971   21.8836 H   0  0  0  0  0  0  0  0  0  0  0  0
   16.6779  -17.0438   23.5135 C   0  0  0  0  0  0  0  0  0  0  0  0
   17.9173  -16.4243   24.0111 C   0  0  0  0  0  0  0  0  0  0  0  0
   19.1506  -16.9126   23.5598 C   0  0  0  0  0  0  0  0  0  0  0  0
   20.3753  -16.3301   24.0227 C   0  0  0  0  0  0  0  0  0  0  0  0
   20.3516  -15.2612   24.9368 C   0  0  0  0  0  0  0  0  0  0  0  0
   19.0885  -14.7535   25.4059 C   0  0  0  0  0  0  0  0  0  0  0  0
   17.8646  -15.3451   24.9335 C   0  0  0  0  0  0  0  0  0  0  0  0
   21.5519  -14.6915   25.3851 C   0  0  0  0  0  0  0  0  0  0  0  0
   21.6816  -14.2801   26.6839 N   0  0  0  0  0  0  0  0  0  0  0  0
   22.6146  -14.5513   24.5261 N   0  0  0  0  0  0  0  0  0  0  0  0
   20.9265  -14.3758   27.3083 H   0  0  0  0  0  0  0  0  0  0  0  0
   22.5325  -14.8439   23.5896 H   0  0  0  0  0  0  0  0  0  0  0  0
   23.4583  -14.1582   24.8468 H   0  0  0  0  0  0  0  0  0  0  0  0
   15.9665  -12.3551   20.9195 C   0  0  0  0  0  0  0  0  0  0  0  0
   17.4384  -12.8395   20.5815 C   0  0  0  0  0  0  0  0  0  0  0  0
   18.2099  -11.7303   19.8074 C   0  0  0  0  0  0  0  0  0  0  0  0
   19.6990  -12.1173   19.5419 C   0  0  0  0  0  0  0  0  0  0  0  0
   20.3831  -12.5032   20.8826 C   0  0  0  0  0  0  0  0  0  0  0  0
   19.6259  -13.6754   21.5937 C   0  0  0  0  0  0  0  0  0  0  0  0
   18.1713  -13.2151   21.9145 C   0  0  0  0  0  0  0  0  0  0  0  0
   15.3664  -11.7277   19.7075 N   0  0  0  0  0  0  0  0  0  0  0  0
   15.3883  -12.4325   18.9704 H   0  0  0  0  0  0  0  0  0  0  0  0
   13.9711  -11.1940   19.7516 C   0  0  0  0  0  0  0  0  0  0  0  0
   13.7234  -10.2523   20.9566 C   0  0  0  0  0  0  0  0  0  0  0  0
   13.0938  -10.6971   22.0419 O   0  0  0  0  0  0  0  0  0  0  0  0
   14.1285   -9.0107   20.9050 O   0  0  0  0  0  0  0  0  0  0  0  0
   12.8019  -11.5866   22.0827 H   0  0  0  0  0  0  0  0  0  0  0  0
 25 26  1  0  0  0
 25 30  1  0  0  0
 25 24  1  0  0  0
 26 27  1  0  0  0
 27 28  1  0  0  0
 28 29  1  0  0  0
 29 30  1  0  0  0
 31 24  1  0  0  0
 31 33  1  0  0  0
 24  1  1  0  0  0
  1  2  2  0  0  0
  1  3  1  0  0  0
  3  4  1  0  0  0
  3  6  1  0  0  0
  4  7  1  0  0  0
  4  5  1  0  0  0
  7  8  2  0  0  0
  7  9  1  0  0  0
  9 11  1  0  0  0
 11 12  1  0  0  0
 12 13  2  0  0  0
 12 17  1  0  0  0
 13 14  1  0  0  0
 14 15  2  0  0  0
 15 16  1  0  0  0
 15 18  1  0  0  0
 16 17  2  0  0  0
 18 19  2  0  0  0
 18 20  1  0  0  0
  5  6  1  0  0  0
 33 34  1  0  0  0
 34 35  1  0  0  0
 34 36  2  0  0  0
 31 32  1  0  0  0
  9 10  1  0  0  0
 19 21  1  0  0  0
 20 22  1  0  0  0
 20 23  1  0  0  0
 35 37  1  0  0  0
M  END
> <minimizedAffinity>
-7.47009

$$$$
1K22_MEL_H_999


 37 39  0  0  0  0  0  0  0  0999 V2000
   13.7178  -14.5139   19.9240 C   0  0  0  0  0  0  0  0  0  0  0  0
   13.9469  -14.2230   18.7110 O   0  0  0  0  0  0  0  0  0  0  0  0
   13.3391  -13.5721   20.7855 N   0  0  0  0  0  0  0  0  0  0  0  0
   13.1179  -12.1286   20.5956 C   0  0  0  0  0  0  0  0  0  0  0  0
   12.5783  -12.0068   21.9800 C   0  0  0  0  0  0  0  0  0  0  0  0
   12.9935  -13.4834   22.2017 C   0  0  0  0  0  0  0  0  0  0  0  0
   14.4408  -11.5699   20.0759 C   0  0  0  0  0  0  0  0  0  0  0  0
   14.5220  -10.3797   19.8110 O   0  0  0  0  0  0  0  0  0  0  0  0
   15.5511  -12.4003   19.9350 N   0  0  0  0  0  0  0  0  0  0  0  0
   15.4538  -13.3741   20.0424 H   0  0  0  0  0  0  0  0  0  0  0  0
   16.8447  -11.8336   19.6313 C   0  0  0  0  0  0  0  0  0  0  0  0
   17.8642  -12.3526   20.5580 C   0  0  0  0  0  0  0  0  0  0  0  0
   17.4596  -12.8601   21.7997 C   0  0  0  0  0  0  0  0  0  0  0  0
   18.4266  -13.3750   22.7234 C   0  0  0  0  0  0  0  0  0  0  0  0
   19.7938  -13.3753   22.3926 C   0  0  0  0  0  0  0  0  0  0  0  0
   20.2182  -12.8554   21.1188 C   0  0  0  0  0  0  0  0  0  0  0  0
   19.2385  -12.3418   20.1982 C   0  0  0  0  0  0  0  0  0  0  0  0
   20.7369  -13.8830   23.2977 C   0  0  0  0  0  0  0  0  0  0  0  0
   21.3563  -15.0791   23.0557 N   0  0  0  0  0  0  0  0  0  0  0  0
   21.0567  -13.1776   24.4322 N   0  0  0  0  0  0  0  0  0  0  0  0
   21.1349  -15.5931   22.2458 H   0  0  0  0  0  0  0  0  0  0  0  0
   20.6174  -12.3160   24.6164 H   0  0  0  0  0  0  0  0  0  0  0  0
   21.7252  -13.5336   25.0612 H   0  0  0  0  0  0  0  0  0  0  0  0
   13.8910  -15.9268   20.3858 C   0  0  0  0  0  0  0  0  0  0  0  0
   15.1885  -16.0340   21.2916 C   0  0  0  0  0  0  0  0  0  0  0  0
   14.9540  -17.0389   22.4579 C   0  0  0  0  0  0  0  0  0  0  0  0
   16.2375  -17.2595   23.3190 C   0  0  0  0  0  0  0  0  0  0  0  0
   17.4181  -17.6717   22.3968 C   0  0  0  0  0  0  0  0  0  0  0  0
   17.6762  -16.5990   21.2852 C   0  0  0  0  0  0  0  0  0  0  0  0
   16.3995  -16.4732   20.3994 C   0  0  0  0  0  0  0  0  0  0  0  0
   12.6963  -16.3032   21.1942 N   0  0  0  0  0  0  0  0  0  0  0  0
   12.3466  -15.4444   21.6192 H   0  0  0  0  0  0  0  0  0  0  0  0
   11.5274  -16.9674   20.5413 C   0  0  0  0  0  0  0  0  0  0  0  0
   11.6576  -18.5105   20.4975 C   0  0  0  0  0  0  0  0  0  0  0  0
   12.0415  -19.1859   21.5785 O   0  0  0  0  0  0  0  0  0  0  0  0
   11.3958  -19.1535   19.3901 O   0  0  0  0  0  0  0  0  0  0  0  0
   12.2301  -18.7285   22.3743 H   0  0  0  0  0  0  0  0  0  0  0  0
 25 26  1  0  0  0
 25 30  1  0  0  0
 25 24  1  0  0  0
 26 27  1  0  0  0
 27 28  1  0  0  0
 28 29  1  0  0  0
 29 30  1  0  0  0
 31 24  1  0  0  0
 31 33  1  0  0  0
 24  1  1  0  0  0
  1  2  2  0  0  0
  1  3  1  0  0  0
  3  4  1  0  0  0
  3  6  1  0  0  0
  4  7  1  0  0  0
  4  5  1  0  0  0
  7  8  2  0  0  0
  7  9  1  0  0  0
  9 11  1  0  0  0
 11 12  1  0  0  0
 12 13  2  0  0  0
 12 17  1  0  0  0
 13 14  1  0  0  0
 14 15  2  0  0  0
 15 16  1  0  0  0
 15 18  1  0  0  0
 16 17  2  0  0  0
 18 19  2  0  0  0
 18 20  1  0  0  0
  5  6  1  0  0  0
 33 34  1  0  0  0
 34 35  1  0  0  0
 34 36  2  0  0  0
 31 32  1  0  0  0
  9 10  1  0  0  0
 19 21  1  0  0  0
 20 22  1  0  0  0
 20 23  1  0  0  0
 35 37  1  0  0  0
M  END
> <minimizedAffinity>
-7.35114

$$$$
