6G3A_5ID_A_805


 25 27  0  0  0  0  0  0  0  0999 V2000
   13.3092   10.6632   12.5954 N   0  0  0  0  0  0  0  0  0  0  0  0
   12.6672   10.6349   11.3871 C   0  0  0  0  0  0  0  0  0  0  0  0
   11.7244   11.6163   11.3509 C   0  0  0  0  0  0  0  0  0  0  0  0
   11.7605   12.3106   12.5924 C   0  0  0  0  0  0  0  0  0  0  0  0
   11.0594   13.3483   13.2598 C   0  0  0  0  0  0  0  0  0  0  0  0
   11.4066   13.6828   14.5188 N   0  0  0  0  0  0  0  0  0  0  0  0
   12.3957   12.9996   15.0995 C   0  0  0  0  0  0  0  0  0  0  0  0
   13.1095   11.9985   14.5980 N   0  0  0  0  0  0  0  0  0  0  0  0
   12.7685   11.6766   13.3435 C   0  0  0  0  0  0  0  0  0  0  0  0
   10.0398   14.0053   12.7104 N   0  0  0  0  0  0  0  0  0  0  0  0
   10.4861   11.9779    9.7242 I   0  0  0  0  0  0  0  0  0  0  0  0
    9.7539   13.7919   11.7928 H   0  0  0  0  0  0  0  0  0  0  0  0
    9.5719   14.7043   13.2219 H   0  0  0  0  0  0  0  0  0  0  0  0
   14.7806    7.7490   11.9676 C   0  0  0  0  0  0  0  0  0  0  0  0
   14.9721    9.1746   11.8951 O   0  0  0  0  0  0  0  0  0  0  0  0
   14.4163    9.8136   13.0252 C   0  0  0  0  0  0  0  0  0  0  0  0
   14.0028    8.7067   13.9851 C   0  0  0  0  0  0  0  0  0  0  0  0
   15.1018    8.4431   14.8628 O   0  0  0  0  0  0  0  0  0  0  0  0
   13.6893    7.5806   13.0157 C   0  0  0  0  0  0  0  0  0  0  0  0
   13.7779    6.2772   13.6026 O   0  0  0  0  0  0  0  0  0  0  0  0
   15.8959    8.2538   14.3388 H   0  0  0  0  0  0  0  0  0  0  0  0
   14.6689    6.1445   13.9623 H   0  0  0  0  0  0  0  0  0  0  0  0
   15.2312    7.8186    9.5548 O   0  0  0  0  0  0  0  0  0  0  0  0
   14.4865    7.1834   10.5990 C   0  0  0  0  0  0  0  0  0  0  0  0
   15.0019    7.4156    8.7029 H   0  0  0  0  0  0  0  0  0  0  0  0
 23 24  1  0  0  0
 24 14  1  0  0  0
 14 15  1  0  0  0
 14 19  1  0  0  0
 15 16  1  0  0  0
 16  1  1  0  0  0
 16 17  1  0  0  0
  1  2  1  0  0  0
  1  9  1  0  0  0
  2  3  2  0  0  0
  3  4  1  0  0  0
  3 11  1  0  0  0
  4  5  2  0  0  0
  4  9  1  0  0  0
  5  6  1  0  0  0
  5 10  1  0  0  0
  6  7  2  0  0  0
  7  8  1  0  0  0
  8  9  2  0  0  0
 17 18  1  0  0  0
 17 19  1  0  0  0
 19 20  1  0  0  0
 23 25  1  0  0  0
 10 12  1  0  0  0
 10 13  1  0  0  0
 18 21  1  0  0  0
 20 22  1  0  0  0
M  END
> <minimizedAffinity>
-9.51342

$$$$
6G3A_5ID_A_805


 25 27  0  0  0  0  0  0  0  0999 V2000
   13.0586   11.1361   12.4334 N   0  0  0  0  0  0  0  0  0  0  0  0
   13.1005   10.2864   11.3614 C   0  0  0  0  0  0  0  0  0  0  0  0
   12.0605   10.5582   10.5260 C   0  0  0  0  0  0  0  0  0  0  0  0
   11.3139   11.6333   11.0840 C   0  0  0  0  0  0  0  0  0  0  0  0
   10.1280   12.3656   10.8171 C   0  0  0  0  0  0  0  0  0  0  0  0
    9.7317   13.3261   11.6762 N   0  0  0  0  0  0  0  0  0  0  0  0
   10.4716   13.5360   12.7675 C   0  0  0  0  0  0  0  0  0  0  0  0
   11.5797   12.9085   13.1439 N   0  0  0  0  0  0  0  0  0  0  0  0
   11.9755   11.9625   12.2824 C   0  0  0  0  0  0  0  0  0  0  0  0
    9.3550   12.1342    9.7580 N   0  0  0  0  0  0  0  0  0  0  0  0
   11.6946    9.5362    8.7562 I   0  0  0  0  0  0  0  0  0  0  0  0
    9.6079   11.4413    9.1059 H   0  0  0  0  0  0  0  0  0  0  0  0
    8.5304   12.6559    9.6270 H   0  0  0  0  0  0  0  0  0  0  0  0
   15.1128    9.2692   14.2628 C   0  0  0  0  0  0  0  0  0  0  0  0
   15.0812   10.3231   13.2816 O   0  0  0  0  0  0  0  0  0  0  0  0
   14.0141   11.2126   13.5350 C   0  0  0  0  0  0  0  0  0  0  0  0
   13.4299   10.8108   14.8823 C   0  0  0  0  0  0  0  0  0  0  0  0
   14.0983   11.5618   15.9006 O   0  0  0  0  0  0  0  0  0  0  0  0
   13.7310    9.3225   14.8997 C   0  0  0  0  0  0  0  0  0  0  0  0
   13.7826    8.7631   16.2171 O   0  0  0  0  0  0  0  0  0  0  0  0
   15.0567   11.4374   15.8176 H   0  0  0  0  0  0  0  0  0  0  0  0
   14.4558    9.2270   16.7392 H   0  0  0  0  0  0  0  0  0  0  0  0
   16.5665    7.2908   14.3083 O   0  0  0  0  0  0  0  0  0  0  0  0
   15.5037    7.9595   13.6215 C   0  0  0  0  0  0  0  0  0  0  0  0
   16.7733    6.4597   13.8528 H   0  0  0  0  0  0  0  0  0  0  0  0
 23 24  1  0  0  0
 24 14  1  0  0  0
 14 15  1  0  0  0
 14 19  1  0  0  0
 15 16  1  0  0  0
 16  1  1  0  0  0
 16 17  1  0  0  0
  1  2  1  0  0  0
  1  9  1  0  0  0
  2  3  2  0  0  0
  3  4  1  0  0  0
  3 11  1  0  0  0
  4  5  2  0  0  0
  4  9  1  0  0  0
  5  6  1  0  0  0
  5 10  1  0  0  0
  6  7  2  0  0  0
  7  8  1  0  0  0
  8  9  2  0  0  0
 17 18  1  0  0  0
 17 19  1  0  0  0
 19 20  1  0  0  0
 23 25  1  0  0  0
 10 12  1  0  0  0
 10 13  1  0  0  0
 18 21  1  0  0  0
 20 22  1  0  0  0
M  END
> <minimizedAffinity>
-8.99717

$$$$
6G3A_5ID_A_805


 25 27  0  0  0  0  0  0  0  0999 V2000
   13.8610    8.8375   11.7303 N   0  0  0  0  0  0  0  0  0  0  0  0
   14.2907    7.6123   12.1628 C   0  0  0  0  0  0  0  0  0  0  0  0
   13.8134    6.6448   11.3324 C   0  0  0  0  0  0  0  0  0  0  0  0
   13.0413    7.2748   10.3168 C   0  0  0  0  0  0  0  0  0  0  0  0
   12.2296    6.9142    9.2100 C   0  0  0  0  0  0  0  0  0  0  0  0
   11.6058    7.8765    8.5011 N   0  0  0  0  0  0  0  0  0  0  0  0
   11.7643    9.1441    8.8889 C   0  0  0  0  0  0  0  0  0  0  0  0
   12.4704    9.6095    9.9127 N   0  0  0  0  0  0  0  0  0  0  0  0
   13.0968    8.6512   10.6077 C   0  0  0  0  0  0  0  0  0  0  0  0
   12.0241    5.6513    8.8415 N   0  0  0  0  0  0  0  0  0  0  0  0
   14.1937    4.6178   11.5713 I   0  0  0  0  0  0  0  0  0  0  0  0
   12.4606    4.9181    9.3325 H   0  0  0  0  0  0  0  0  0  0  0  0
   11.4357    5.4508    8.0781 H   0  0  0  0  0  0  0  0  0  0  0  0
   14.9031   10.2795   14.5386 C   0  0  0  0  0  0  0  0  0  0  0  0
   15.2862    9.9949   13.1797 O   0  0  0  0  0  0  0  0  0  0  0  0
   14.1851   10.1392   12.3074 C   0  0  0  0  0  0  0  0  0  0  0  0
   13.0574   10.7412   13.1341 C   0  0  0  0  0  0  0  0  0  0  0  0
   13.1362   12.1659   13.0264 O   0  0  0  0  0  0  0  0  0  0  0  0
   13.3831   10.1967   14.5138 C   0  0  0  0  0  0  0  0  0  0  0  0
   12.8376   10.9786   15.5825 O   0  0  0  0  0  0  0  0  0  0  0  0
   14.0265   12.4602   13.2747 H   0  0  0  0  0  0  0  0  0  0  0  0
   13.1661   11.8890   15.5174 H   0  0  0  0  0  0  0  0  0  0  0  0
   14.7326    8.7721   16.4694 O   0  0  0  0  0  0  0  0  0  0  0  0
   15.6082    9.3474   15.4944 C   0  0  0  0  0  0  0  0  0  0  0  0
   15.2391    8.1854   17.0526 H   0  0  0  0  0  0  0  0  0  0  0  0
 23 24  1  0  0  0
 24 14  1  0  0  0
 14 15  1  0  0  0
 14 19  1  0  0  0
 15 16  1  0  0  0
 16  1  1  0  0  0
 16 17  1  0  0  0
  1  2  1  0  0  0
  1  9  1  0  0  0
  2  3  2  0  0  0
  3  4  1  0  0  0
  3 11  1  0  0  0
  4  5  2  0  0  0
  4  9  1  0  0  0
  5  6  1  0  0  0
  5 10  1  0  0  0
  6  7  2  0  0  0
  7  8  1  0  0  0
  8  9  2  0  0  0
 17 18  1  0  0  0
 17 19  1  0  0  0
 19 20  1  0  0  0
 23 25  1  0  0  0
 10 12  1  0  0  0
 10 13  1  0  0  0
 18 21  1  0  0  0
 20 22  1  0  0  0
M  END
> <minimizedAffinity>
-8.40859

$$$$
6G3A_5ID_A_805


 25 27  0  0  0  0  0  0  0  0999 V2000
   12.2340   10.5511   10.6026 N   0  0  0  0  0  0  0  0  0  0  0  0
   12.2493   11.1682   11.8240 C   0  0  0  0  0  0  0  0  0  0  0  0
   13.1113   10.5159   12.6514 C   0  0  0  0  0  0  0  0  0  0  0  0
   13.6793    9.4285   11.9304 C   0  0  0  0  0  0  0  0  0  0  0  0
   14.5562    8.3358   12.1558 C   0  0  0  0  0  0  0  0  0  0  0  0
   14.8036    7.4645   11.1571 N   0  0  0  0  0  0  0  0  0  0  0  0
   14.1880    7.6583    9.9884 C   0  0  0  0  0  0  0  0  0  0  0  0
   13.3324    8.6186    9.6581 N   0  0  0  0  0  0  0  0  0  0  0  0
   13.0978    9.4878   10.6496 C   0  0  0  0  0  0  0  0  0  0  0  0
   15.1392    8.1033   13.3301 N   0  0  0  0  0  0  0  0  0  0  0  0
   13.4829   11.0747   14.6161 I   0  0  0  0  0  0  0  0  0  0  0  0
   14.9851    8.7150   14.0859 H   0  0  0  0  0  0  0  0  0  0  0  0
   15.7244    7.3196   13.4425 H   0  0  0  0  0  0  0  0  0  0  0  0
   11.0793   13.2375    9.0210 C   0  0  0  0  0  0  0  0  0  0  0  0
   12.0297   12.1603    8.9173 O   0  0  0  0  0  0  0  0  0  0  0  0
   11.4827   10.9588    9.4187 C   0  0  0  0  0  0  0  0  0  0  0  0
   10.0112   11.2372    9.6921 C   0  0  0  0  0  0  0  0  0  0  0  0
    9.2680   10.9073    8.5147 O   0  0  0  0  0  0  0  0  0  0  0  0
   10.0492   12.7204   10.0158 C   0  0  0  0  0  0  0  0  0  0  0  0
    8.7979   13.3852    9.8074 O   0  0  0  0  0  0  0  0  0  0  0  0
    9.6390   11.3820    7.7545 H   0  0  0  0  0  0  0  0  0  0  0  0
    8.5208   13.2710    8.8849 H   0  0  0  0  0  0  0  0  0  0  0  0
   11.3121   15.6515    8.6365 O   0  0  0  0  0  0  0  0  0  0  0  0
   11.7760   14.5256    9.3883 C   0  0  0  0  0  0  0  0  0  0  0  0
   11.7934   16.4464    8.9144 H   0  0  0  0  0  0  0  0  0  0  0  0
 23 24  1  0  0  0
 24 14  1  0  0  0
 14 15  1  0  0  0
 14 19  1  0  0  0
 15 16  1  0  0  0
 16  1  1  0  0  0
 16 17  1  0  0  0
  1  2  1  0  0  0
  1  9  1  0  0  0
  2  3  2  0  0  0
  3  4  1  0  0  0
  3 11  1  0  0  0
  4  5  2  0  0  0
  4  9  1  0  0  0
  5  6  1  0  0  0
  5 10  1  0  0  0
  6  7  2  0  0  0
  7  8  1  0  0  0
  8  9  2  0  0  0
 17 18  1  0  0  0
 17 19  1  0  0  0
 19 20  1  0  0  0
 23 25  1  0  0  0
 10 12  1  0  0  0
 10 13  1  0  0  0
 18 21  1  0  0  0
 20 22  1  0  0  0
M  END
> <minimizedAffinity>
-8.27735

$$$$
6G3A_5ID_A_805


 25 27  0  0  0  0  0  0  0  0999 V2000
   14.0411    9.2932   11.9886 N   0  0  0  0  0  0  0  0  0  0  0  0
   13.0623   10.0959   11.4685 C   0  0  0  0  0  0  0  0  0  0  0  0
   12.6934   11.0211   12.3965 C   0  0  0  0  0  0  0  0  0  0  0  0
   13.4707   10.8064   13.5688 C   0  0  0  0  0  0  0  0  0  0  0  0
   13.5797   11.3143   14.8893 C   0  0  0  0  0  0  0  0  0  0  0  0
   14.4652   10.7627   15.7433 N   0  0  0  0  0  0  0  0  0  0  0  0
   15.1976    9.7340   15.3100 C   0  0  0  0  0  0  0  0  0  0  0  0
   15.1747    9.1522   14.1165 N   0  0  0  0  0  0  0  0  0  0  0  0
   14.3014    9.7100   13.2682 C   0  0  0  0  0  0  0  0  0  0  0  0
   12.8222   12.3079   15.3496 N   0  0  0  0  0  0  0  0  0  0  0  0
   11.2390   12.4684   12.0793 I   0  0  0  0  0  0  0  0  0  0  0  0
   12.1628   12.7385   14.7588 H   0  0  0  0  0  0  0  0  0  0  0  0
   12.9215   12.6120   16.2806 H   0  0  0  0  0  0  0  0  0  0  0  0
   13.5528    6.7292    9.9296 C   0  0  0  0  0  0  0  0  0  0  0  0
   14.1782    8.0228   10.0293 O   0  0  0  0  0  0  0  0  0  0  0  0
   14.7447    8.2088   11.3094 C   0  0  0  0  0  0  0  0  0  0  0  0
   14.6416    6.8686   12.0242 C   0  0  0  0  0  0  0  0  0  0  0  0
   15.8409    6.1317   11.7666 O   0  0  0  0  0  0  0  0  0  0  0  0
   13.3963    6.2873   11.3781 C   0  0  0  0  0  0  0  0  0  0  0  0
   13.3296    4.8582   11.4443 O   0  0  0  0  0  0  0  0  0  0  0  0
   15.9854    6.0737   10.8092 H   0  0  0  0  0  0  0  0  0  0  0  0
   14.1130    4.4778   11.0172 H   0  0  0  0  0  0  0  0  0  0  0  0
   11.6416    5.5487    8.9381 O   0  0  0  0  0  0  0  0  0  0  0  0
   12.2840    6.8152    9.1157 C   0  0  0  0  0  0  0  0  0  0  0  0
   10.8362    5.6659    8.4103 H   0  0  0  0  0  0  0  0  0  0  0  0
 23 24  1  0  0  0
 24 14  1  0  0  0
 14 15  1  0  0  0
 14 19  1  0  0  0
 15 16  1  0  0  0
 16  1  1  0  0  0
 16 17  1  0  0  0
  1  2  1  0  0  0
  1  9  1  0  0  0
  2  3  2  0  0  0
  3  4  1  0  0  0
  3 11  1  0  0  0
  4  5  2  0  0  0
  4  9  1  0  0  0
  5  6  1  0  0  0
  5 10  1  0  0  0
  6  7  2  0  0  0
  7  8  1  0  0  0
  8  9  2  0  0  0
 17 18  1  0  0  0
 17 19  1  0  0  0
 19 20  1  0  0  0
 23 25  1  0  0  0
 10 12  1  0  0  0
 10 13  1  0  0  0
 18 21  1  0  0  0
 20 22  1  0  0  0
M  END
> <minimizedAffinity>
-8.15089

$$$$
6G3A_5ID_A_805


 25 27  0  0  0  0  0  0  0  0999 V2000
   11.6553   12.1015   10.8886 N   0  0  0  0  0  0  0  0  0  0  0  0
   11.9401   11.0161   10.1051 C   0  0  0  0  0  0  0  0  0  0  0  0
   12.6089   10.0873   10.8422 C   0  0  0  0  0  0  0  0  0  0  0  0
   12.7617   10.5962   12.1622 C   0  0  0  0  0  0  0  0  0  0  0  0
   13.3804   10.2307   13.3858 C   0  0  0  0  0  0  0  0  0  0  0  0
   13.3216   11.0714   14.4382 N   0  0  0  0  0  0  0  0  0  0  0  0
   12.6924   12.2376   14.2753 C   0  0  0  0  0  0  0  0  0  0  0  0
   12.0985   12.7070   13.1843 N   0  0  0  0  0  0  0  0  0  0  0  0
   12.1501   11.8642   12.1447 C   0  0  0  0  0  0  0  0  0  0  0  0
   14.0522    9.0925   13.5479 N   0  0  0  0  0  0  0  0  0  0  0  0
   13.2593    8.2618   10.0971 I   0  0  0  0  0  0  0  0  0  0  0  0
   14.1195    8.4506   12.8045 H   0  0  0  0  0  0  0  0  0  0  0  0
   14.4815    8.8930   14.4111 H   0  0  0  0  0  0  0  0  0  0  0  0
    8.8763   13.0792    9.3480 C   0  0  0  0  0  0  0  0  0  0  0  0
    9.5275   13.0386   10.6320 O   0  0  0  0  0  0  0  0  0  0  0  0
   10.9098   13.2961   10.5019 C   0  0  0  0  0  0  0  0  0  0  0  0
   11.1345   13.7178    9.0564 C   0  0  0  0  0  0  0  0  0  0  0  0
   11.0162   15.1420    8.9832 O   0  0  0  0  0  0  0  0  0  0  0  0
   10.0230   12.9583    8.3538 C   0  0  0  0  0  0  0  0  0  0  0  0
    9.6395   13.5332    7.0994 O   0  0  0  0  0  0  0  0  0  0  0  0
   10.1657   15.4156    9.3609 H   0  0  0  0  0  0  0  0  0  0  0  0
    9.3560   14.4505    7.2373 H   0  0  0  0  0  0  0  0  0  0  0  0
    7.8329   11.2846    8.0365 O   0  0  0  0  0  0  0  0  0  0  0  0
    7.8037   12.0200    9.2639 C   0  0  0  0  0  0  0  0  0  0  0  0
    7.1247   10.6218    8.0397 H   0  0  0  0  0  0  0  0  0  0  0  0
 23 24  1  0  0  0
 24 14  1  0  0  0
 14 15  1  0  0  0
 14 19  1  0  0  0
 15 16  1  0  0  0
 16  1  1  0  0  0
 16 17  1  0  0  0
  1  2  1  0  0  0
  1  9  1  0  0  0
  2  3  2  0  0  0
  3  4  1  0  0  0
  3 11  1  0  0  0
  4  5  2  0  0  0
  4  9  1  0  0  0
  5  6  1  0  0  0
  5 10  1  0  0  0
  6  7  2  0  0  0
  7  8  1  0  0  0
  8  9  2  0  0  0
 17 18  1  0  0  0
 17 19  1  0  0  0
 19 20  1  0  0  0
 23 25  1  0  0  0
 10 12  1  0  0  0
 10 13  1  0  0  0
 18 21  1  0  0  0
 20 22  1  0  0  0
M  END
> <minimizedAffinity>
-7.86367

$$$$
6G3A_5ID_A_805


 25 27  0  0  0  0  0  0  0  0999 V2000
   13.7560   10.2027   12.1716 N   0  0  0  0  0  0  0  0  0  0  0  0
   13.6558   11.0030   13.2772 C   0  0  0  0  0  0  0  0  0  0  0  0
   12.6174   11.8688   13.1182 C   0  0  0  0  0  0  0  0  0  0  0  0
   12.0192   11.6148   11.8524 C   0  0  0  0  0  0  0  0  0  0  0  0
   10.9912   12.1422   11.0286 C   0  0  0  0  0  0  0  0  0  0  0  0
   10.7720   11.6044    9.8119 N   0  0  0  0  0  0  0  0  0  0  0  0
   11.5563   10.5974    9.4204 C   0  0  0  0  0  0  0  0  0  0  0  0
   12.5608   10.0322   10.0798 N   0  0  0  0  0  0  0  0  0  0  0  0
   12.7682   10.5625   11.2920 C   0  0  0  0  0  0  0  0  0  0  0  0
   10.2334   13.1769   11.3865 N   0  0  0  0  0  0  0  0  0  0  0  0
   12.0611   13.2870   14.5288 I   0  0  0  0  0  0  0  0  0  0  0  0
   10.3608   13.5992   12.2666 H   0  0  0  0  0  0  0  0  0  0  0  0
    9.5457   13.5196   10.7710 H   0  0  0  0  0  0  0  0  0  0  0  0
   13.9138    6.9907   11.3292 C   0  0  0  0  0  0  0  0  0  0  0  0
   14.2516    8.3167   10.8797 O   0  0  0  0  0  0  0  0  0  0  0  0
   14.7024    9.1116   11.9563 C   0  0  0  0  0  0  0  0  0  0  0  0
   14.8437    8.1782   13.1506 C   0  0  0  0  0  0  0  0  0  0  0  0
   16.1811    7.6694   13.1639 O   0  0  0  0  0  0  0  0  0  0  0  0
   13.7800    7.1403   12.8384 C   0  0  0  0  0  0  0  0  0  0  0  0
   14.0079    5.8767   13.4728 O   0  0  0  0  0  0  0  0  0  0  0  0
   16.3823    7.2666   12.3047 H   0  0  0  0  0  0  0  0  0  0  0  0
   14.8736    5.5314   13.2040 H   0  0  0  0  0  0  0  0  0  0  0  0
   12.3412    5.1404   10.9653 O   0  0  0  0  0  0  0  0  0  0  0  0
   12.6973    6.4768   10.5975 C   0  0  0  0  0  0  0  0  0  0  0  0
   11.5565    4.8656   10.4656 H   0  0  0  0  0  0  0  0  0  0  0  0
 23 24  1  0  0  0
 24 14  1  0  0  0
 14 15  1  0  0  0
 14 19  1  0  0  0
 15 16  1  0  0  0
 16  1  1  0  0  0
 16 17  1  0  0  0
  1  2  1  0  0  0
  1  9  1  0  0  0
  2  3  2  0  0  0
  3  4  1  0  0  0
  3 11  1  0  0  0
  4  5  2  0  0  0
  4  9  1  0  0  0
  5  6  1  0  0  0
  5 10  1  0  0  0
  6  7  2  0  0  0
  7  8  1  0  0  0
  8  9  2  0  0  0
 17 18  1  0  0  0
 17 19  1  0  0  0
 19 20  1  0  0  0
 23 25  1  0  0  0
 10 12  1  0  0  0
 10 13  1  0  0  0
 18 21  1  0  0  0
 20 22  1  0  0  0
M  END
> <minimizedAffinity>
-7.80076

$$$$
6G3A_5ID_A_805


 25 27  0  0  0  0  0  0  0  0999 V2000
   12.2312   10.9835   10.8513 N   0  0  0  0  0  0  0  0  0  0  0  0
   11.8885   12.0390   11.6522 C   0  0  0  0  0  0  0  0  0  0  0  0
   12.4153   11.8562   12.8941 C   0  0  0  0  0  0  0  0  0  0  0  0
   13.1320   10.6270   12.8943 C   0  0  0  0  0  0  0  0  0  0  0  0
   13.8428    9.8021   13.8041 C   0  0  0  0  0  0  0  0  0  0  0  0
   14.3529    8.6286   13.3792 N   0  0  0  0  0  0  0  0  0  0  0  0
   14.1467    8.2785   12.1075 C   0  0  0  0  0  0  0  0  0  0  0  0
   13.4831    8.9425   11.1683 N   0  0  0  0  0  0  0  0  0  0  0  0
   12.9872   10.1123   11.5918 C   0  0  0  0  0  0  0  0  0  0  0  0
   14.0147   10.1161   15.0866 N   0  0  0  0  0  0  0  0  0  0  0  0
   12.1732   13.1904   14.4663 I   0  0  0  0  0  0  0  0  0  0  0  0
   13.6579   10.9638   15.4379 H   0  0  0  0  0  0  0  0  0  0  0  0
   14.4985    9.5007   15.6836 H   0  0  0  0  0  0  0  0  0  0  0  0
   10.3713   12.2511    8.4047 C   0  0  0  0  0  0  0  0  0  0  0  0
   11.7315   12.0797    8.8463 O   0  0  0  0  0  0  0  0  0  0  0  0
   11.9108   10.8098    9.4372 C   0  0  0  0  0  0  0  0  0  0  0  0
   10.6236   10.0351    9.1910 C   0  0  0  0  0  0  0  0  0  0  0  0
   10.7636    9.3156    7.9621 O   0  0  0  0  0  0  0  0  0  0  0  0
    9.6074   11.1628    9.1462 C   0  0  0  0  0  0  0  0  0  0  0  0
    8.4145   10.8316    8.4263 O   0  0  0  0  0  0  0  0  0  0  0  0
   11.0121    9.9302    7.2540 H   0  0  0  0  0  0  0  0  0  0  0  0
    8.6444   10.5784    7.5186 H   0  0  0  0  0  0  0  0  0  0  0  0
   10.9719   14.5466    9.0368 O   0  0  0  0  0  0  0  0  0  0  0  0
    9.9122   13.6699    8.6408 C   0  0  0  0  0  0  0  0  0  0  0  0
   10.6187   15.4396    9.1734 H   0  0  0  0  0  0  0  0  0  0  0  0
 23 24  1  0  0  0
 24 14  1  0  0  0
 14 15  1  0  0  0
 14 19  1  0  0  0
 15 16  1  0  0  0
 16  1  1  0  0  0
 16 17  1  0  0  0
  1  2  1  0  0  0
  1  9  1  0  0  0
  2  3  2  0  0  0
  3  4  1  0  0  0
  3 11  1  0  0  0
  4  5  2  0  0  0
  4  9  1  0  0  0
  5  6  1  0  0  0
  5 10  1  0  0  0
  6  7  2  0  0  0
  7  8  1  0  0  0
  8  9  2  0  0  0
 17 18  1  0  0  0
 17 19  1  0  0  0
 19 20  1  0  0  0
 23 25  1  0  0  0
 10 12  1  0  0  0
 10 13  1  0  0  0
 18 21  1  0  0  0
 20 22  1  0  0  0
M  END
> <minimizedAffinity>
-7.74148

$$$$
6G3A_5ID_A_805


 25 27  0  0  0  0  0  0  0  0999 V2000
   13.9968    8.7992   12.8557 N   0  0  0  0  0  0  0  0  0  0  0  0
   14.7149    8.6574   14.0120 C   0  0  0  0  0  0  0  0  0  0  0  0
   14.4626    9.7119   14.8352 C   0  0  0  0  0  0  0  0  0  0  0  0
   13.5383   10.5731   14.1805 C   0  0  0  0  0  0  0  0  0  0  0  0
   12.9080   11.8268   14.3920 C   0  0  0  0  0  0  0  0  0  0  0  0
   12.0938   12.3306   13.4428 N   0  0  0  0  0  0  0  0  0  0  0  0
   11.9292   11.6278   12.3197 C   0  0  0  0  0  0  0  0  0  0  0  0
   12.4759   10.4635   11.9897 N   0  0  0  0  0  0  0  0  0  0  0  0
   13.2756    9.9617   12.9397 C   0  0  0  0  0  0  0  0  0  0  0  0
   13.1009   12.5606   15.4861 N   0  0  0  0  0  0  0  0  0  0  0  0
   15.3168    9.9505   16.7124 I   0  0  0  0  0  0  0  0  0  0  0  0
   13.6881   12.2297   16.2037 H   0  0  0  0  0  0  0  0  0  0  0  0
   12.6562   13.4342   15.5776 H   0  0  0  0  0  0  0  0  0  0  0  0
   14.5150    5.6139   12.0571 C   0  0  0  0  0  0  0  0  0  0  0  0
   13.4876    6.6139   12.1948 O   0  0  0  0  0  0  0  0  0  0  0  0
   13.9429    7.8680   11.7321 C   0  0  0  0  0  0  0  0  0  0  0  0
   15.2941    7.6198   11.0762 C   0  0  0  0  0  0  0  0  0  0  0  0
   15.0745    7.3566    9.6869 O   0  0  0  0  0  0  0  0  0  0  0  0
   15.7902    6.4247   11.8710 C   0  0  0  0  0  0  0  0  0  0  0  0
   16.7667    5.6397   11.1772 O   0  0  0  0  0  0  0  0  0  0  0  0
   14.4354    6.6330    9.5920 H   0  0  0  0  0  0  0  0  0  0  0  0
   16.3936    5.3272   10.3381 H   0  0  0  0  0  0  0  0  0  0  0  0
   15.7391    4.6000   13.9286 O   0  0  0  0  0  0  0  0  0  0  0  0
   14.4913    4.6644   13.2306 C   0  0  0  0  0  0  0  0  0  0  0  0
   15.6638    3.9774   14.6686 H   0  0  0  0  0  0  0  0  0  0  0  0
 23 24  1  0  0  0
 24 14  1  0  0  0
 14 15  1  0  0  0
 14 19  1  0  0  0
 15 16  1  0  0  0
 16  1  1  0  0  0
 16 17  1  0  0  0
  1  2  1  0  0  0
  1  9  1  0  0  0
  2  3  2  0  0  0
  3  4  1  0  0  0
  3 11  1  0  0  0
  4  5  2  0  0  0
  4  9  1  0  0  0
  5  6  1  0  0  0
  5 10  1  0  0  0
  6  7  2  0  0  0
  7  8  1  0  0  0
  8  9  2  0  0  0
 17 18  1  0  0  0
 17 19  1  0  0  0
 19 20  1  0  0  0
 23 25  1  0  0  0
 10 12  1  0  0  0
 10 13  1  0  0  0
 18 21  1  0  0  0
 20 22  1  0  0  0
M  END
> <minimizedAffinity>
-7.72792

$$$$
6G3A_5ID_A_805


 25 27  0  0  0  0  0  0  0  0999 V2000
   13.0597   10.3138   11.0956 N   0  0  0  0  0  0  0  0  0  0  0  0
   12.3025   11.4385   11.2811 C   0  0  0  0  0  0  0  0  0  0  0  0
   11.2467   11.4217   10.4218 C   0  0  0  0  0  0  0  0  0  0  0  0
   11.3256   10.2308    9.6471 C   0  0  0  0  0  0  0  0  0  0  0  0
   10.6457    9.6079    8.5684 C   0  0  0  0  0  0  0  0  0  0  0  0
   11.1054    8.4391    8.0784 N   0  0  0  0  0  0  0  0  0  0  0  0
   12.2084    7.9207    8.6233 C   0  0  0  0  0  0  0  0  0  0  0  0
   12.9470    8.4115    9.6117 N   0  0  0  0  0  0  0  0  0  0  0  0
   12.4808    9.5671   10.1025 C   0  0  0  0  0  0  0  0  0  0  0  0
    9.5729   10.1376    7.9841 N   0  0  0  0  0  0  0  0  0  0  0  0
    9.8072   12.9144   10.3210 I   0  0  0  0  0  0  0  0  0  0  0  0
    9.2047   10.9901    8.3109 H   0  0  0  0  0  0  0  0  0  0  0  0
    9.1477    9.6766    7.2251 H   0  0  0  0  0  0  0  0  0  0  0  0
   14.4042    7.7532   12.7351 C   0  0  0  0  0  0  0  0  0  0  0  0
   14.5484    8.5695   11.5573 O   0  0  0  0  0  0  0  0  0  0  0  0
   14.2506    9.9200   11.8434 C   0  0  0  0  0  0  0  0  0  0  0  0
   14.0847   10.0132   13.3538 C   0  0  0  0  0  0  0  0  0  0  0  0
   15.3581   10.3307   13.9241 O   0  0  0  0  0  0  0  0  0  0  0  0
   13.5809    8.6182   13.6796 C   0  0  0  0  0  0  0  0  0  0  0  0
   13.8234    8.2226   15.0345 O   0  0  0  0  0  0  0  0  0  0  0  0
   16.0166    9.6845   13.6248 H   0  0  0  0  0  0  0  0  0  0  0  0
   14.7749    8.2650   15.2183 H   0  0  0  0  0  0  0  0  0  0  0  0
   13.9749    5.4334   13.4157 O   0  0  0  0  0  0  0  0  0  0  0  0
   13.8191    6.4077   12.3791 C   0  0  0  0  0  0  0  0  0  0  0  0
   13.5819    4.5933   13.1315 H   0  0  0  0  0  0  0  0  0  0  0  0
 23 24  1  0  0  0
 24 14  1  0  0  0
 14 15  1  0  0  0
 14 19  1  0  0  0
 15 16  1  0  0  0
 16  1  1  0  0  0
 16 17  1  0  0  0
  1  2  1  0  0  0
  1  9  1  0  0  0
  2  3  2  0  0  0
  3  4  1  0  0  0
  3 11  1  0  0  0
  4  5  2  0  0  0
  4  9  1  0  0  0
  5  6  1  0  0  0
  5 10  1  0  0  0
  6  7  2  0  0  0
  7  8  1  0  0  0
  8  9  2  0  0  0
 17 18  1  0  0  0
 17 19  1  0  0  0
 19 20  1  0  0  0
 23 25  1  0  0  0
 10 12  1  0  0  0
 10 13  1  0  0  0
 18 21  1  0  0  0
 20 22  1  0  0  0
M  END
> <minimizedAffinity>
-7.42333

$$$$
