4XTZ_594_A_301


 44 48  0  0  0  0  0  0  0  0999 V2000
   -3.9379   -4.9819    6.3716 S   0  0  0  0  0  0  0  0  0  0  0  0
   -5.1051   -5.3813    5.6351 O   0  0  0  0  0  0  0  0  0  0  0  0
   -2.8218   -4.8571    5.4766 O   0  0  0  0  0  0  0  0  0  0  0  0
   -4.6011   -6.7240    8.1032 C   0  0  0  0  0  0  0  0  0  0  0  0
   -5.7769   -6.4326    7.9534 O   0  0  0  0  0  0  0  0  0  0  0  0
   -3.6124   -6.0702    7.5005 N   0  0  0  0  0  0  0  0  0  0  0  0
   -2.6779   -6.2556    7.7489 H   0  0  0  0  0  0  0  0  0  0  0  0
   -4.2026   -7.8554    9.0210 C   0  0  0  0  0  0  0  0  0  0  0  0
   -3.8833   -7.2987   10.4051 C   0  0  0  0  0  0  0  0  0  0  0  0
   -3.9222   -8.4009   11.4569 C   0  0  0  0  0  0  0  0  0  0  0  0
   -3.3803   -7.9363   12.8048 C   0  0  0  0  0  0  0  0  0  0  0  0
   -2.3943  -10.0656   13.7552 C   0  0  0  0  0  0  0  0  0  0  0  0
   -1.1424   -9.4189   13.4080 N   0  0  0  0  0  0  0  0  0  0  0  0
   -0.2120   -9.6158   14.3392 C   0  0  0  0  0  0  0  0  0  0  0  0
    0.9059   -9.1211   14.3361 O   0  0  0  0  0  0  0  0  0  0  0  0
   -0.6722  -10.4144   15.2915 N   0  0  0  0  0  0  0  0  0  0  0  0
   -2.0893  -10.6506   15.1358 C   0  0  0  0  0  0  0  0  0  0  0  0
   -2.8003   -9.8943   16.2471 C   0  0  0  0  0  0  0  0  0  0  0  0
   -3.5241   -8.4922   15.4794 S   0  0  0  0  0  0  0  0  0  0  0  0
   -3.5416   -9.0632   13.8169 C   0  0  0  0  0  0  0  0  0  0  0  0
   -0.9989   -8.8985   12.5847 H   0  0  0  0  0  0  0  0  0  0  0  0
   -0.1203  -10.7970   16.0113 H   0  0  0  0  0  0  0  0  0  0  0  0
   -4.2072   -3.6404    7.0695 O   0  0  0  0  0  0  0  0  0  0  0  0
   -3.1402   -2.8605    7.6074 C   0  0  0  0  0  0  0  0  0  0  0  0
   -3.5661   -1.3974    7.6245 C   0  0  0  0  0  0  0  0  0  0  0  0
   -4.7077   -1.1725    8.4645 O   0  0  0  0  0  0  0  0  0  0  0  0
   -2.4861   -0.4565    8.1307 C   0  0  0  0  0  0  0  0  0  0  0  0
   -1.6137   -0.0740    7.0657 O   0  0  0  0  0  0  0  0  0  0  0  0
   -3.3015    0.7198    8.6300 C   0  0  0  0  0  0  0  0  0  0  0  0
   -2.6375    1.4825    9.5551 F   0  0  0  0  0  0  0  0  0  0  0  0
   -4.5895    0.0839    9.1507 C   0  0  0  0  0  0  0  0  0  0  0  0
   -2.1334    0.3211    6.3483 H   0  0  0  0  0  0  0  0  0  0  0  0
   -4.6190   -0.1581   10.6208 N   0  0  0  0  0  0  0  0  0  0  0  0
   -3.5840   -0.2747   11.4701 C   0  0  0  0  0  0  0  0  0  0  0  0
   -4.0510   -0.5010   12.7193 N   0  0  0  0  0  0  0  0  0  0  0  0
   -5.3976   -0.5355   12.6421 C   0  0  0  0  0  0  0  0  0  0  0  0
   -5.7433   -0.3235   11.3202 C   0  0  0  0  0  0  0  0  0  0  0  0
   -7.0484   -0.3085   10.9613 N   0  0  0  0  0  0  0  0  0  0  0  0
   -8.0000   -0.5047   11.8816 C   0  0  0  0  0  0  0  0  0  0  0  0
   -7.6929   -0.7098   13.1691 N   0  0  0  0  0  0  0  0  0  0  0  0
   -6.4045   -0.7325   13.5762 C   0  0  0  0  0  0  0  0  0  0  0  0
   -6.1030   -0.9450   14.8803 N   0  0  0  0  0  0  0  0  0  0  0  0
   -5.1628   -0.9606   15.1719 H   0  0  0  0  0  0  0  0  0  0  0  0
   -6.8241   -1.0836   15.5360 H   0  0  0  0  0  0  0  0  0  0  0  0
  3  1  2  0  0  0
  2  1  2  0  0  0
  1 23  1  0  0  0
  1  6  1  0  0  0
 23 24  1  0  0  0
 28 27  1  0  0  0
  6  4  1  0  0  0
 24 25  1  0  0  0
 25 27  1  0  0  0
 25 26  1  0  0  0
 27 29  1  0  0  0
  4  5  2  0  0  0
  4  8  1  0  0  0
 26 31  1  0  0  0
 29 31  1  0  0  0
 29 30  1  0  0  0
  8  9  1  0  0  0
 31 33  1  0  0  0
  9 10  1  0  0  0
 33 37  1  0  0  0
 33 34  1  0  0  0
 38 37  2  0  0  0
 38 39  1  0  0  0
 37 36  1  0  0  0
 10 11  1  0  0  0
 34 35  2  0  0  0
 39 40  2  0  0  0
 36 35  1  0  0  0
 36 41  2  0  0  0
 11 20  1  0  0  0
 40 41  1  0  0  0
 13 12  1  0  0  0
 13 14  1  0  0  0
 41 42  1  0  0  0
 12 20  1  0  0  0
 12 17  1  0  0  0
 20 19  1  0  0  0
 14 15  2  0  0  0
 14 16  1  0  0  0
 17 16  1  0  0  0
 17 18  1  0  0  0
 19 18  1  0  0  0
 13 21  1  0  0  0
 16 22  1  0  0  0
  6  7  1  0  0  0
 28 32  1  0  0  0
 42 43  1  0  0  0
 42 44  1  0  0  0
M  END
> <minimizedAffinity>
-13.05837

$$$$
4XTZ_594_A_301


 44 48  0  0  0  0  0  0  0  0999 V2000
   -3.7000   -4.6247    6.5501 S   0  0  0  0  0  0  0  0  0  0  0  0
   -5.0623   -4.6837    6.0969 O   0  0  0  0  0  0  0  0  0  0  0  0
   -2.8127   -4.8216    5.4384 O   0  0  0  0  0  0  0  0  0  0  0  0
   -4.4316   -6.5817    8.0022 C   0  0  0  0  0  0  0  0  0  0  0  0
   -5.5848   -6.4323    7.6312 O   0  0  0  0  0  0  0  0  0  0  0  0
   -3.4486   -5.7560    7.6554 N   0  0  0  0  0  0  0  0  0  0  0  0
   -2.5640   -5.8403    8.0792 H   0  0  0  0  0  0  0  0  0  0  0  0
   -4.0618   -7.7277    8.9137 C   0  0  0  0  0  0  0  0  0  0  0  0
   -4.1491   -7.2702   10.3665 C   0  0  0  0  0  0  0  0  0  0  0  0
   -3.9648   -8.4457   11.3189 C   0  0  0  0  0  0  0  0  0  0  0  0
   -3.2323   -8.0482   12.5963 C   0  0  0  0  0  0  0  0  0  0  0  0
   -2.3001  -10.1315   13.6921 C   0  0  0  0  0  0  0  0  0  0  0  0
   -1.0309   -9.4977   13.3859 N   0  0  0  0  0  0  0  0  0  0  0  0
   -0.1531   -9.6512   14.3745 C   0  0  0  0  0  0  0  0  0  0  0  0
    0.9633   -9.1545   14.4109 O   0  0  0  0  0  0  0  0  0  0  0  0
   -0.6648  -10.4084   15.3343 N   0  0  0  0  0  0  0  0  0  0  0  0
   -2.0712  -10.6545   15.1118 C   0  0  0  0  0  0  0  0  0  0  0  0
   -2.8421   -9.8519   16.1481 C   0  0  0  0  0  0  0  0  0  0  0  0
   -3.5227   -8.4865   15.2809 S   0  0  0  0  0  0  0  0  0  0  0  0
   -3.4490   -9.1300   13.6466 C   0  0  0  0  0  0  0  0  0  0  0  0
   -0.8424   -9.0136   12.5497 H   0  0  0  0  0  0  0  0  0  0  0  0
   -0.1533  -10.7577   16.0995 H   0  0  0  0  0  0  0  0  0  0  0  0
   -3.4358   -3.2586    7.2007 O   0  0  0  0  0  0  0  0  0  0  0  0
   -4.2727   -2.7637    8.2450 C   0  0  0  0  0  0  0  0  0  0  0  0
   -4.5116   -1.2763    8.0150 C   0  0  0  0  0  0  0  0  0  0  0  0
   -4.3047   -0.8970    6.6466 O   0  0  0  0  0  0  0  0  0  0  0  0
   -5.9206   -0.8269    8.3622 C   0  0  0  0  0  0  0  0  0  0  0  0
   -6.0195   -0.5135    9.7527 O   0  0  0  0  0  0  0  0  0  0  0  0
   -6.0776    0.4111    7.5016 C   0  0  0  0  0  0  0  0  0  0  0  0
   -7.3865    0.7333    7.2538 F   0  0  0  0  0  0  0  0  0  0  0  0
   -5.2616    0.0976    6.2485 C   0  0  0  0  0  0  0  0  0  0  0  0
   -5.3571    0.1574    9.9808 H   0  0  0  0  0  0  0  0  0  0  0  0
   -6.0543   -0.4204    5.0979 N   0  0  0  0  0  0  0  0  0  0  0  0
   -6.2605   -1.6969    4.7315 C   0  0  0  0  0  0  0  0  0  0  0  0
   -7.0320   -1.7265    3.6208 N   0  0  0  0  0  0  0  0  0  0  0  0
   -7.3006   -0.4472    3.2867 C   0  0  0  0  0  0  0  0  0  0  0  0
   -6.6787    0.3644    4.2176 C   0  0  0  0  0  0  0  0  0  0  0  0
   -6.7883    1.7096    4.1157 N   0  0  0  0  0  0  0  0  0  0  0  0
   -7.4906    2.2520    3.1139 C   0  0  0  0  0  0  0  0  0  0  0  0
   -8.1049    1.4891    2.2003 N   0  0  0  0  0  0  0  0  0  0  0  0
   -8.0253    0.1414    2.2603 C   0  0  0  0  0  0  0  0  0  0  0  0
   -8.6465   -0.6225    1.3290 N   0  0  0  0  0  0  0  0  0  0  0  0
   -8.5856   -1.6040    1.3771 H   0  0  0  0  0  0  0  0  0  0  0  0
   -9.1587   -0.1960    0.6045 H   0  0  0  0  0  0  0  0  0  0  0  0
  3  1  2  0  0  0
  2  1  2  0  0  0
  1 23  1  0  0  0
  1  6  1  0  0  0
 23 24  1  0  0  0
 28 27  1  0  0  0
  6  4  1  0  0  0
 24 25  1  0  0  0
 25 27  1  0  0  0
 25 26  1  0  0  0
 27 29  1  0  0  0
  4  5  2  0  0  0
  4  8  1  0  0  0
 26 31  1  0  0  0
 29 31  1  0  0  0
 29 30  1  0  0  0
  8  9  1  0  0  0
 31 33  1  0  0  0
  9 10  1  0  0  0
 33 37  1  0  0  0
 33 34  1  0  0  0
 38 37  2  0  0  0
 38 39  1  0  0  0
 37 36  1  0  0  0
 10 11  1  0  0  0
 34 35  2  0  0  0
 39 40  2  0  0  0
 36 35  1  0  0  0
 36 41  2  0  0  0
 11 20  1  0  0  0
 40 41  1  0  0  0
 13 12  1  0  0  0
 13 14  1  0  0  0
 41 42  1  0  0  0
 12 20  1  0  0  0
 12 17  1  0  0  0
 20 19  1  0  0  0
 14 15  2  0  0  0
 14 16  1  0  0  0
 17 16  1  0  0  0
 17 18  1  0  0  0
 19 18  1  0  0  0
 13 21  1  0  0  0
 16 22  1  0  0  0
  6  7  1  0  0  0
 28 32  1  0  0  0
 42 43  1  0  0  0
 42 44  1  0  0  0
M  END
> <minimizedAffinity>
-11.25251

$$$$
4XTZ_594_A_301


 44 48  0  0  0  0  0  0  0  0999 V2000
   -4.0605   -4.9659    6.3344 S   0  0  0  0  0  0  0  0  0  0  0  0
   -5.4009   -5.2552    5.9054 O   0  0  0  0  0  0  0  0  0  0  0  0
   -3.1578   -5.1098    5.2269 O   0  0  0  0  0  0  0  0  0  0  0  0
   -4.5572   -6.7411    8.0882 C   0  0  0  0  0  0  0  0  0  0  0  0
   -5.7532   -6.6260    7.8730 O   0  0  0  0  0  0  0  0  0  0  0  0
   -3.6420   -5.9670    7.5124 N   0  0  0  0  0  0  0  0  0  0  0  0
   -2.7048   -6.0095    7.8109 H   0  0  0  0  0  0  0  0  0  0  0  0
   -4.0495   -7.7795    9.0603 C   0  0  0  0  0  0  0  0  0  0  0  0
   -3.5475   -7.0895   10.3250 C   0  0  0  0  0  0  0  0  0  0  0  0
   -4.1403   -7.7382   11.5702 C   0  0  0  0  0  0  0  0  0  0  0  0
   -3.1822   -7.6999   12.7564 C   0  0  0  0  0  0  0  0  0  0  0  0
   -2.3194   -9.9412   13.5574 C   0  0  0  0  0  0  0  0  0  0  0  0
   -1.0302   -9.3049   13.3590 N   0  0  0  0  0  0  0  0  0  0  0  0
   -0.1720   -9.6200   14.3262 C   0  0  0  0  0  0  0  0  0  0  0  0
    0.9558   -9.1636   14.4459 O   0  0  0  0  0  0  0  0  0  0  0  0
   -0.7173  -10.4910   15.1631 N   0  0  0  0  0  0  0  0  0  0  0  0
   -2.1258  -10.6654   14.8913 C   0  0  0  0  0  0  0  0  0  0  0  0
   -2.8924   -9.9967   16.0216 C   0  0  0  0  0  0  0  0  0  0  0  0
   -3.5252   -8.5047   15.3483 S   0  0  0  0  0  0  0  0  0  0  0  0
   -3.4421   -8.9128   13.6404 C   0  0  0  0  0  0  0  0  0  0  0  0
   -0.8168   -8.7129   12.6020 H   0  0  0  0  0  0  0  0  0  0  0  0
   -0.2266  -10.9585   15.8771 H   0  0  0  0  0  0  0  0  0  0  0  0
   -3.9970   -3.5332    6.8844 O   0  0  0  0  0  0  0  0  0  0  0  0
   -3.9201   -3.2834    8.2871 C   0  0  0  0  0  0  0  0  0  0  0  0
   -4.5598   -1.9310    8.5773 C   0  0  0  0  0  0  0  0  0  0  0  0
   -3.7142   -1.0887    9.3741 O   0  0  0  0  0  0  0  0  0  0  0  0
   -4.8829   -1.1314    7.3266 C   0  0  0  0  0  0  0  0  0  0  0  0
   -6.1633   -1.5008    6.8113 O   0  0  0  0  0  0  0  0  0  0  0  0
   -4.8856    0.2900    7.8533 C   0  0  0  0  0  0  0  0  0  0  0  0
   -4.6737    1.2276    6.8764 F   0  0  0  0  0  0  0  0  0  0  0  0
   -3.8247    0.2802    8.9528 C   0  0  0  0  0  0  0  0  0  0  0  0
   -6.8353   -1.3846    7.5012 H   0  0  0  0  0  0  0  0  0  0  0  0
   -2.4820    0.7714    8.5324 N   0  0  0  0  0  0  0  0  0  0  0  0
   -1.5798    0.1658    7.7417 C   0  0  0  0  0  0  0  0  0  0  0  0
   -0.4862    0.9529    7.6229 N   0  0  0  0  0  0  0  0  0  0  0  0
   -0.7093    2.0606    8.3601 C   0  0  0  0  0  0  0  0  0  0  0  0
   -1.9628    1.9345    8.9301 C   0  0  0  0  0  0  0  0  0  0  0  0
   -2.4402    2.9186    9.7275 N   0  0  0  0  0  0  0  0  0  0  0  0
   -1.6988    4.0064    9.9685 C   0  0  0  0  0  0  0  0  0  0  0  0
   -0.4827    4.1550    9.4273 N   0  0  0  0  0  0  0  0  0  0  0  0
    0.0366    3.2005    8.6239 C   0  0  0  0  0  0  0  0  0  0  0  0
    1.2698    3.3574    8.0841 N   0  0  0  0  0  0  0  0  0  0  0  0
    1.6437    2.6592    7.4994 H   0  0  0  0  0  0  0  0  0  0  0  0
    1.7917    4.1697    8.2767 H   0  0  0  0  0  0  0  0  0  0  0  0
  3  1  2  0  0  0
  2  1  2  0  0  0
  1 23  1  0  0  0
  1  6  1  0  0  0
 23 24  1  0  0  0
 28 27  1  0  0  0
  6  4  1  0  0  0
 24 25  1  0  0  0
 25 27  1  0  0  0
 25 26  1  0  0  0
 27 29  1  0  0  0
  4  5  2  0  0  0
  4  8  1  0  0  0
 26 31  1  0  0  0
 29 31  1  0  0  0
 29 30  1  0  0  0
  8  9  1  0  0  0
 31 33  1  0  0  0
  9 10  1  0  0  0
 33 37  1  0  0  0
 33 34  1  0  0  0
 38 37  2  0  0  0
 38 39  1  0  0  0
 37 36  1  0  0  0
 10 11  1  0  0  0
 34 35  2  0  0  0
 39 40  2  0  0  0
 36 35  1  0  0  0
 36 41  2  0  0  0
 11 20  1  0  0  0
 40 41  1  0  0  0
 13 12  1  0  0  0
 13 14  1  0  0  0
 41 42  1  0  0  0
 12 20  1  0  0  0
 12 17  1  0  0  0
 20 19  1  0  0  0
 14 15  2  0  0  0
 14 16  1  0  0  0
 17 16  1  0  0  0
 17 18  1  0  0  0
 19 18  1  0  0  0
 13 21  1  0  0  0
 16 22  1  0  0  0
  6  7  1  0  0  0
 28 32  1  0  0  0
 42 43  1  0  0  0
 42 44  1  0  0  0
M  END
> <minimizedAffinity>
-11.24530

$$$$
4XTZ_594_A_301


 44 48  0  0  0  0  0  0  0  0999 V2000
   -4.0518   -4.9928    6.3043 S   0  0  0  0  0  0  0  0  0  0  0  0
   -5.3460   -5.3949    5.8267 O   0  0  0  0  0  0  0  0  0  0  0  0
   -3.1010   -5.0528    5.2298 O   0  0  0  0  0  0  0  0  0  0  0  0
   -4.4830   -6.7213    8.1209 C   0  0  0  0  0  0  0  0  0  0  0  0
   -5.6858   -6.6173    7.9412 O   0  0  0  0  0  0  0  0  0  0  0  0
   -3.5907   -5.9594    7.4950 N   0  0  0  0  0  0  0  0  0  0  0  0
   -2.6443   -5.9896    7.7643 H   0  0  0  0  0  0  0  0  0  0  0  0
   -3.9391   -7.7305    9.1040 C   0  0  0  0  0  0  0  0  0  0  0  0
   -3.7186   -7.0564   10.4548 C   0  0  0  0  0  0  0  0  0  0  0  0
   -4.1481   -7.9711   11.5956 C   0  0  0  0  0  0  0  0  0  0  0  0
   -3.2831   -7.7930   12.8393 C   0  0  0  0  0  0  0  0  0  0  0  0
   -2.2843   -9.9700   13.6593 C   0  0  0  0  0  0  0  0  0  0  0  0
   -1.0360   -9.2647   13.4349 N   0  0  0  0  0  0  0  0  0  0  0  0
   -0.1490   -9.5166   14.3947 C   0  0  0  0  0  0  0  0  0  0  0  0
    0.9524   -8.9954   14.4928 O   0  0  0  0  0  0  0  0  0  0  0  0
   -0.6333  -10.4049   15.2507 N   0  0  0  0  0  0  0  0  0  0  0  0
   -2.0329  -10.6626   15.0003 C   0  0  0  0  0  0  0  0  0  0  0  0
   -2.8219  -10.0221   16.1315 C   0  0  0  0  0  0  0  0  0  0  0  0
   -3.5469   -8.5783   15.4464 S   0  0  0  0  0  0  0  0  0  0  0  0
   -3.4624   -9.0058   13.7433 C   0  0  0  0  0  0  0  0  0  0  0  0
   -0.8661   -8.6725   12.6669 H   0  0  0  0  0  0  0  0  0  0  0  0
   -0.1078  -10.8334   15.9644 H   0  0  0  0  0  0  0  0  0  0  0  0
   -4.1324   -3.5625    6.8584 O   0  0  0  0  0  0  0  0  0  0  0  0
   -2.9885   -2.9241    7.4238 C   0  0  0  0  0  0  0  0  0  0  0  0
   -3.4476   -1.6869    8.1860 C   0  0  0  0  0  0  0  0  0  0  0  0
   -2.6183   -0.5459    7.9218 O   0  0  0  0  0  0  0  0  0  0  0  0
   -4.8651   -1.2572    7.8486 C   0  0  0  0  0  0  0  0  0  0  0  0
   -5.8096   -1.9659    8.6530 O   0  0  0  0  0  0  0  0  0  0  0  0
   -4.8380    0.2184    8.1946 C   0  0  0  0  0  0  0  0  0  0  0  0
   -5.8080    0.9414    7.5506 F   0  0  0  0  0  0  0  0  0  0  0  0
   -3.4106    0.6509    7.8631 C   0  0  0  0  0  0  0  0  0  0  0  0
   -5.6018   -1.8302    9.5908 H   0  0  0  0  0  0  0  0  0  0  0  0
   -3.2422    1.2826    6.5240 N   0  0  0  0  0  0  0  0  0  0  0  0
   -3.2501    0.6952    5.3152 C   0  0  0  0  0  0  0  0  0  0  0  0
   -3.0521    1.6315    4.3593 N   0  0  0  0  0  0  0  0  0  0  0  0
   -2.9088    2.8178    4.9857 C   0  0  0  0  0  0  0  0  0  0  0  0
   -3.0255    2.5869    6.3441 C   0  0  0  0  0  0  0  0  0  0  0  0
   -2.9203    3.6198    7.2125 N   0  0  0  0  0  0  0  0  0  0  0  0
   -2.6976    4.8588    6.7582 C   0  0  0  0  0  0  0  0  0  0  0  0
   -2.5830    5.1107    5.4477 N   0  0  0  0  0  0  0  0  0  0  0  0
   -2.6816    4.1127    4.5419 C   0  0  0  0  0  0  0  0  0  0  0  0
   -2.5601    4.3762    3.2180 N   0  0  0  0  0  0  0  0  0  0  0  0
   -2.6327    3.6456    2.5620 H   0  0  0  0  0  0  0  0  0  0  0  0
   -2.3992    5.2981    2.9123 H   0  0  0  0  0  0  0  0  0  0  0  0
  3  1  2  0  0  0
  2  1  2  0  0  0
  1 23  1  0  0  0
  1  6  1  0  0  0
 23 24  1  0  0  0
 28 27  1  0  0  0
  6  4  1  0  0  0
 24 25  1  0  0  0
 25 27  1  0  0  0
 25 26  1  0  0  0
 27 29  1  0  0  0
  4  5  2  0  0  0
  4  8  1  0  0  0
 26 31  1  0  0  0
 29 31  1  0  0  0
 29 30  1  0  0  0
  8  9  1  0  0  0
 31 33  1  0  0  0
  9 10  1  0  0  0
 33 37  1  0  0  0
 33 34  1  0  0  0
 38 37  2  0  0  0
 38 39  1  0  0  0
 37 36  1  0  0  0
 10 11  1  0  0  0
 34 35  2  0  0  0
 39 40  2  0  0  0
 36 35  1  0  0  0
 36 41  2  0  0  0
 11 20  1  0  0  0
 40 41  1  0  0  0
 13 12  1  0  0  0
 13 14  1  0  0  0
 41 42  1  0  0  0
 12 20  1  0  0  0
 12 17  1  0  0  0
 20 19  1  0  0  0
 14 15  2  0  0  0
 14 16  1  0  0  0
 17 16  1  0  0  0
 17 18  1  0  0  0
 19 18  1  0  0  0
 13 21  1  0  0  0
 16 22  1  0  0  0
  6  7  1  0  0  0
 28 32  1  0  0  0
 42 43  1  0  0  0
 42 44  1  0  0  0
M  END
> <minimizedAffinity>
-11.04212

$$$$
4XTZ_594_A_301


 44 48  0  0  0  0  0  0  0  0999 V2000
   -3.9286   -4.9579    6.5532 S   0  0  0  0  0  0  0  0  0  0  0  0
   -5.2883   -5.0929    6.1086 O   0  0  0  0  0  0  0  0  0  0  0  0
   -3.0496   -4.9366    5.4178 O   0  0  0  0  0  0  0  0  0  0  0  0
   -4.4158   -6.6068    8.4286 C   0  0  0  0  0  0  0  0  0  0  0  0
   -5.4481   -6.0108    8.6912 O   0  0  0  0  0  0  0  0  0  0  0  0
   -3.5497   -6.1826    7.5131 N   0  0  0  0  0  0  0  0  0  0  0  0
   -2.6734   -6.6225    7.4251 H   0  0  0  0  0  0  0  0  0  0  0  0
   -4.0537   -7.8743    9.1658 C   0  0  0  0  0  0  0  0  0  0  0  0
   -3.3588   -7.5191   10.4767 C   0  0  0  0  0  0  0  0  0  0  0  0
   -4.1307   -8.0724   11.6687 C   0  0  0  0  0  0  0  0  0  0  0  0
   -3.4495   -7.7594   12.9970 C   0  0  0  0  0  0  0  0  0  0  0  0
   -2.4686   -9.9734   13.7357 C   0  0  0  0  0  0  0  0  0  0  0  0
   -1.2186   -9.3203   13.3933 N   0  0  0  0  0  0  0  0  0  0  0  0
   -0.2581   -9.6059   14.2693 C   0  0  0  0  0  0  0  0  0  0  0  0
    0.8679   -9.1300   14.2627 O   0  0  0  0  0  0  0  0  0  0  0  0
   -0.6973  -10.4714   15.1717 N   0  0  0  0  0  0  0  0  0  0  0  0
   -2.1233  -10.6723   15.0523 C   0  0  0  0  0  0  0  0  0  0  0  0
   -2.7784   -9.9971   16.2470 C   0  0  0  0  0  0  0  0  0  0  0  0
   -3.5042   -8.5266   15.6222 S   0  0  0  0  0  0  0  0  0  0  0  0
   -3.5940   -8.9616   13.9213 C   0  0  0  0  0  0  0  0  0  0  0  0
   -1.0961   -8.7376   12.6093 H   0  0  0  0  0  0  0  0  0  0  0  0
   -0.1263  -10.9193   15.8369 H   0  0  0  0  0  0  0  0  0  0  0  0
   -3.7803   -3.6593    7.3599 O   0  0  0  0  0  0  0  0  0  0  0  0
   -4.9196   -2.8792    7.7195 C   0  0  0  0  0  0  0  0  0  0  0  0
   -4.8212   -1.5248    7.0279 C   0  0  0  0  0  0  0  0  0  0  0  0
   -4.8069   -1.6436    5.5979 O   0  0  0  0  0  0  0  0  0  0  0  0
   -5.9736   -0.5907    7.3556 C   0  0  0  0  0  0  0  0  0  0  0  0
   -5.7084    0.1307    8.5601 O   0  0  0  0  0  0  0  0  0  0  0  0
   -5.9872    0.3281    6.1499 C   0  0  0  0  0  0  0  0  0  0  0  0
   -7.1965    0.9424    5.9535 F   0  0  0  0  0  0  0  0  0  0  0  0
   -5.5454   -0.5692    4.9949 C   0  0  0  0  0  0  0  0  0  0  0  0
   -4.8676    0.6066    8.4735 H   0  0  0  0  0  0  0  0  0  0  0  0
   -6.6577   -1.1372    4.1819 N   0  0  0  0  0  0  0  0  0  0  0  0
   -7.8486   -0.5855    3.8928 C   0  0  0  0  0  0  0  0  0  0  0  0
   -8.5687   -1.4431    3.1340 N   0  0  0  0  0  0  0  0  0  0  0  0
   -7.8164   -2.5491    2.9579 C   0  0  0  0  0  0  0  0  0  0  0  0
   -6.6209   -2.3484    3.6232 C   0  0  0  0  0  0  0  0  0  0  0  0
   -5.6730   -3.3145    3.6074 N   0  0  0  0  0  0  0  0  0  0  0  0
   -5.8948   -4.4622    2.9557 C   0  0  0  0  0  0  0  0  0  0  0  0
   -7.0427   -4.6814    2.3012 N   0  0  0  0  0  0  0  0  0  0  0  0
   -8.0187   -3.7469    2.2872 C   0  0  0  0  0  0  0  0  0  0  0  0
   -9.1786   -3.9791    1.6259 N   0  0  0  0  0  0  0  0  0  0  0  0
   -9.8866   -3.2951    1.6187 H   0  0  0  0  0  0  0  0  0  0  0  0
   -9.3132   -4.8318    1.1526 H   0  0  0  0  0  0  0  0  0  0  0  0
  3  1  2  0  0  0
  2  1  2  0  0  0
  1 23  1  0  0  0
  1  6  1  0  0  0
 23 24  1  0  0  0
 28 27  1  0  0  0
  6  4  1  0  0  0
 24 25  1  0  0  0
 25 27  1  0  0  0
 25 26  1  0  0  0
 27 29  1  0  0  0
  4  5  2  0  0  0
  4  8  1  0  0  0
 26 31  1  0  0  0
 29 31  1  0  0  0
 29 30  1  0  0  0
  8  9  1  0  0  0
 31 33  1  0  0  0
  9 10  1  0  0  0
 33 37  1  0  0  0
 33 34  1  0  0  0
 38 37  2  0  0  0
 38 39  1  0  0  0
 37 36  1  0  0  0
 10 11  1  0  0  0
 34 35  2  0  0  0
 39 40  2  0  0  0
 36 35  1  0  0  0
 36 41  2  0  0  0
 11 20  1  0  0  0
 40 41  1  0  0  0
 13 12  1  0  0  0
 13 14  1  0  0  0
 41 42  1  0  0  0
 12 20  1  0  0  0
 12 17  1  0  0  0
 20 19  1  0  0  0
 14 15  2  0  0  0
 14 16  1  0  0  0
 17 16  1  0  0  0
 17 18  1  0  0  0
 19 18  1  0  0  0
 13 21  1  0  0  0
 16 22  1  0  0  0
  6  7  1  0  0  0
 28 32  1  0  0  0
 42 43  1  0  0  0
 42 44  1  0  0  0
M  END
> <minimizedAffinity>
-10.62399

$$$$
4XTZ_594_A_301


 44 48  0  0  0  0  0  0  0  0999 V2000
   -3.7071   -4.3469    7.0498 S   0  0  0  0  0  0  0  0  0  0  0  0
   -4.6928   -4.6610    6.0527 O   0  0  0  0  0  0  0  0  0  0  0  0
   -2.4476   -4.0770    6.4152 O   0  0  0  0  0  0  0  0  0  0  0  0
   -4.5160   -6.4897    8.1579 C   0  0  0  0  0  0  0  0  0  0  0  0
   -5.6021   -6.3664    7.6148 O   0  0  0  0  0  0  0  0  0  0  0  0
   -3.5539   -5.5764    8.0646 N   0  0  0  0  0  0  0  0  0  0  0  0
   -2.7455   -5.6562    8.6207 H   0  0  0  0  0  0  0  0  0  0  0  0
   -4.2140   -7.7058    9.0010 C   0  0  0  0  0  0  0  0  0  0  0  0
   -4.2834   -7.3303   10.4781 C   0  0  0  0  0  0  0  0  0  0  0  0
   -3.6938   -8.4340   11.3481 C   0  0  0  0  0  0  0  0  0  0  0  0
   -3.3094   -7.9349   12.7372 C   0  0  0  0  0  0  0  0  0  0  0  0
   -2.3506  -10.0751   13.6910 C   0  0  0  0  0  0  0  0  0  0  0  0
   -1.0896   -9.4312   13.3726 N   0  0  0  0  0  0  0  0  0  0  0  0
   -0.1781   -9.6387   14.3200 C   0  0  0  0  0  0  0  0  0  0  0  0
    0.9417   -9.1487   14.3419 O   0  0  0  0  0  0  0  0  0  0  0  0
   -0.6598  -10.4421   15.2574 N   0  0  0  0  0  0  0  0  0  0  0  0
   -2.0745  -10.6711   15.0730 C   0  0  0  0  0  0  0  0  0  0  0  0
   -2.8036   -9.9199   16.1759 C   0  0  0  0  0  0  0  0  0  0  0  0
   -3.5069   -8.5092   15.4045 S   0  0  0  0  0  0  0  0  0  0  0  0
   -3.4948   -9.0683   13.7379 C   0  0  0  0  0  0  0  0  0  0  0  0
   -0.9282   -8.9056   12.5559 H   0  0  0  0  0  0  0  0  0  0  0  0
   -0.1234  -10.8322   15.9850 H   0  0  0  0  0  0  0  0  0  0  0  0
   -4.1657   -3.1217    7.8547 O   0  0  0  0  0  0  0  0  0  0  0  0
   -4.0804   -1.8058    7.3097 C   0  0  0  0  0  0  0  0  0  0  0  0
   -3.1217   -0.9853    8.1641 C   0  0  0  0  0  0  0  0  0  0  0  0
   -1.8214   -0.8723    7.5677 O   0  0  0  0  0  0  0  0  0  0  0  0
   -3.5923    0.4385    8.4076 C   0  0  0  0  0  0  0  0  0  0  0  0
   -4.4669    0.4924    9.5361 O   0  0  0  0  0  0  0  0  0  0  0  0
   -2.2872    1.1592    8.6820 C   0  0  0  0  0  0  0  0  0  0  0  0
   -2.3597    2.5097    8.4601 F   0  0  0  0  0  0  0  0  0  0  0  0
   -1.2706    0.4335    7.8019 C   0  0  0  0  0  0  0  0  0  0  0  0
   -4.0180    0.1200   10.3111 H   0  0  0  0  0  0  0  0  0  0  0  0
   -0.9946    1.0890    6.4924 N   0  0  0  0  0  0  0  0  0  0  0  0
   -1.8608    1.3961    5.5118 C   0  0  0  0  0  0  0  0  0  0  0  0
   -1.1932    1.9744    4.4873 N   0  0  0  0  0  0  0  0  0  0  0  0
    0.1101    2.0175    4.8335 C   0  0  0  0  0  0  0  0  0  0  0  0
    0.2243    1.4554    6.0917 C   0  0  0  0  0  0  0  0  0  0  0  0
    1.4393    1.3723    6.6826 N   0  0  0  0  0  0  0  0  0  0  0  0
    2.5267    1.8266    6.0483 C   0  0  0  0  0  0  0  0  0  0  0  0
    2.4440    2.3776    4.8303 N   0  0  0  0  0  0  0  0  0  0  0  0
    1.2533    2.4837    4.2002 C   0  0  0  0  0  0  0  0  0  0  0  0
    1.1797    3.0389    2.9660 N   0  0  0  0  0  0  0  0  0  0  0  0
    0.3098    3.1139    2.5111 H   0  0  0  0  0  0  0  0  0  0  0  0
    1.9960    3.3671    2.5244 H   0  0  0  0  0  0  0  0  0  0  0  0
  3  1  2  0  0  0
  2  1  2  0  0  0
  1 23  1  0  0  0
  1  6  1  0  0  0
 23 24  1  0  0  0
 28 27  1  0  0  0
  6  4  1  0  0  0
 24 25  1  0  0  0
 25 27  1  0  0  0
 25 26  1  0  0  0
 27 29  1  0  0  0
  4  5  2  0  0  0
  4  8  1  0  0  0
 26 31  1  0  0  0
 29 31  1  0  0  0
 29 30  1  0  0  0
  8  9  1  0  0  0
 31 33  1  0  0  0
  9 10  1  0  0  0
 33 37  1  0  0  0
 33 34  1  0  0  0
 38 37  2  0  0  0
 38 39  1  0  0  0
 37 36  1  0  0  0
 10 11  1  0  0  0
 34 35  2  0  0  0
 39 40  2  0  0  0
 36 35  1  0  0  0
 36 41  2  0  0  0
 11 20  1  0  0  0
 40 41  1  0  0  0
 13 12  1  0  0  0
 13 14  1  0  0  0
 41 42  1  0  0  0
 12 20  1  0  0  0
 12 17  1  0  0  0
 20 19  1  0  0  0
 14 15  2  0  0  0
 14 16  1  0  0  0
 17 16  1  0  0  0
 17 18  1  0  0  0
 19 18  1  0  0  0
 13 21  1  0  0  0
 16 22  1  0  0  0
  6  7  1  0  0  0
 28 32  1  0  0  0
 42 43  1  0  0  0
 42 44  1  0  0  0
M  END
> <minimizedAffinity>
-10.37836

$$$$
4XTZ_594_A_301


 44 48  0  0  0  0  0  0  0  0999 V2000
   -3.5685   -3.6428    7.2223 S   0  0  0  0  0  0  0  0  0  0  0  0
   -4.6319   -4.0429    6.3427 O   0  0  0  0  0  0  0  0  0  0  0  0
   -2.3020   -3.9467    6.6177 O   0  0  0  0  0  0  0  0  0  0  0  0
   -3.7560   -5.7416    8.6484 C   0  0  0  0  0  0  0  0  0  0  0  0
   -3.8600   -6.4228    7.6409 O   0  0  0  0  0  0  0  0  0  0  0  0
   -3.7043   -4.4131    8.6198 N   0  0  0  0  0  0  0  0  0  0  0  0
   -3.7496   -3.9018    9.4599 H   0  0  0  0  0  0  0  0  0  0  0  0
   -3.7022   -6.3910   10.0108 C   0  0  0  0  0  0  0  0  0  0  0  0
   -3.5782   -7.9029    9.8487 C   0  0  0  0  0  0  0  0  0  0  0  0
   -4.0252   -8.6241   11.1147 C   0  0  0  0  0  0  0  0  0  0  0  0
   -3.2480   -8.1703   12.3462 C   0  0  0  0  0  0  0  0  0  0  0  0
   -2.3844  -10.2227   13.5509 C   0  0  0  0  0  0  0  0  0  0  0  0
   -1.0963   -9.6777   13.1637 N   0  0  0  0  0  0  0  0  0  0  0  0
   -0.1939   -9.8115   14.1328 C   0  0  0  0  0  0  0  0  0  0  0  0
    0.9466   -9.3724   14.1013 O   0  0  0  0  0  0  0  0  0  0  0  0
   -0.7098  -10.4760   15.1568 N   0  0  0  0  0  0  0  0  0  0  0  0
   -2.1336  -10.6624   14.9949 C   0  0  0  0  0  0  0  0  0  0  0  0
   -2.8273   -9.7541   15.9979 C   0  0  0  0  0  0  0  0  0  0  0  0
   -3.4680   -8.4151   15.0619 S   0  0  0  0  0  0  0  0  0  0  0  0
   -3.4825   -9.1678   13.4733 C   0  0  0  0  0  0  0  0  0  0  0  0
   -0.9125   -9.2602   12.2912 H   0  0  0  0  0  0  0  0  0  0  0  0
   -0.1905  -10.8005   15.9277 H   0  0  0  0  0  0  0  0  0  0  0  0
   -3.6731   -2.1356    7.4992 O   0  0  0  0  0  0  0  0  0  0  0  0
   -2.5352   -1.2826    7.3823 C   0  0  0  0  0  0  0  0  0  0  0  0
   -2.8171   -0.2380    6.3092 C   0  0  0  0  0  0  0  0  0  0  0  0
   -3.9661   -0.5690    5.5157 O   0  0  0  0  0  0  0  0  0  0  0  0
   -3.0837    1.1495    6.8677 C   0  0  0  0  0  0  0  0  0  0  0  0
   -1.8570    1.8529    7.0719 O   0  0  0  0  0  0  0  0  0  0  0  0
   -3.9084    1.7807    5.7634 C   0  0  0  0  0  0  0  0  0  0  0  0
   -4.6756    2.8307    6.1961 F   0  0  0  0  0  0  0  0  0  0  0  0
   -4.7101    0.6149    5.1867 C   0  0  0  0  0  0  0  0  0  0  0  0
   -1.3604    1.8852    6.2393 H   0  0  0  0  0  0  0  0  0  0  0  0
   -6.0962    0.4839    5.7182 N   0  0  0  0  0  0  0  0  0  0  0  0
   -6.5010    0.4512    6.9993 C   0  0  0  0  0  0  0  0  0  0  0  0
   -7.8457    0.3111    7.0422 N   0  0  0  0  0  0  0  0  0  0  0  0
   -8.2813    0.2454    5.7670 C   0  0  0  0  0  0  0  0  0  0  0  0
   -7.1749    0.3506    4.9443 C   0  0  0  0  0  0  0  0  0  0  0  0
   -7.3314    0.3138    3.6003 N   0  0  0  0  0  0  0  0  0  0  0  0
   -8.5517    0.1697    3.0701 C   0  0  0  0  0  0  0  0  0  0  0  0
   -9.6403    0.0681    3.8438 N   0  0  0  0  0  0  0  0  0  0  0  0
   -9.5352    0.1004    5.1907 C   0  0  0  0  0  0  0  0  0  0  0  0
  -10.6417   -0.0073    5.9659 N   0  0  0  0  0  0  0  0  0  0  0  0
  -10.5599    0.0168    6.9467 H   0  0  0  0  0  0  0  0  0  0  0  0
  -11.5273   -0.1097    5.5481 H   0  0  0  0  0  0  0  0  0  0  0  0
  3  1  2  0  0  0
  2  1  2  0  0  0
  1 23  1  0  0  0
  1  6  1  0  0  0
 23 24  1  0  0  0
 28 27  1  0  0  0
  6  4  1  0  0  0
 24 25  1  0  0  0
 25 27  1  0  0  0
 25 26  1  0  0  0
 27 29  1  0  0  0
  4  5  2  0  0  0
  4  8  1  0  0  0
 26 31  1  0  0  0
 29 31  1  0  0  0
 29 30  1  0  0  0
  8  9  1  0  0  0
 31 33  1  0  0  0
  9 10  1  0  0  0
 33 37  1  0  0  0
 33 34  1  0  0  0
 38 37  2  0  0  0
 38 39  1  0  0  0
 37 36  1  0  0  0
 10 11  1  0  0  0
 34 35  2  0  0  0
 39 40  2  0  0  0
 36 35  1  0  0  0
 36 41  2  0  0  0
 11 20  1  0  0  0
 40 41  1  0  0  0
 13 12  1  0  0  0
 13 14  1  0  0  0
 41 42  1  0  0  0
 12 20  1  0  0  0
 12 17  1  0  0  0
 20 19  1  0  0  0
 14 15  2  0  0  0
 14 16  1  0  0  0
 17 16  1  0  0  0
 17 18  1  0  0  0
 19 18  1  0  0  0
 13 21  1  0  0  0
 16 22  1  0  0  0
  6  7  1  0  0  0
 28 32  1  0  0  0
 42 43  1  0  0  0
 42 44  1  0  0  0
M  END
> <minimizedAffinity>
-10.27284

$$$$
