4CJR_FYM_A_1215


 38 41  0  0  0  0  0  0  0  0999 V2000
   10.6586   36.3909   -3.8242 C   0  0  0  0  0  0  0  0  0  0  0  0
   12.5033   35.3348   -1.9805 C   0  0  0  0  0  0  0  0  0  0  0  0
   10.4824   36.5213   -2.4598 C   0  0  0  0  0  0  0  0  0  0  0  0
   11.3811   36.0078   -1.5432 C   0  0  0  0  0  0  0  0  0  0  0  0
   11.7843   35.7162   -4.2314 C   0  0  0  0  0  0  0  0  0  0  0  0
   12.6745   35.2071   -3.3396 C   0  0  0  0  0  0  0  0  0  0  0  0
   13.3303   34.7015   -5.3230 C   0  0  0  0  0  0  0  0  0  0  0  0
   12.1444   35.4764   -5.5353 O   0  0  0  0  0  0  0  0  0  0  0  0
   13.7220   34.5702   -3.9500 O   0  0  0  0  0  0  0  0  0  0  0  0
    9.2959   37.2350   -1.9846 C   0  0  0  0  0  0  0  0  0  0  0  0
    8.1546   36.4867   -2.0461 N   0  0  0  0  0  0  0  0  0  0  0  0
    9.3838   38.3869   -1.5830 O   0  0  0  0  0  0  0  0  0  0  0  0
    8.1828   35.5953   -2.4631 H   0  0  0  0  0  0  0  0  0  0  0  0
    6.9159   36.9766   -1.5141 C   0  0  0  0  0  0  0  0  0  0  0  0
    4.9483   36.1487   -0.2630 C   0  0  0  0  0  0  0  0  0  0  0  0
    6.8931   34.7677   -0.3289 C   0  0  0  0  0  0  0  0  0  0  0  0
    4.3063   35.2005    0.5016 C   0  0  0  0  0  0  0  0  0  0  0  0
    6.2557   33.8120    0.4376 C   0  0  0  0  0  0  0  0  0  0  0  0
    6.2426   35.9350   -0.6819 C   0  0  0  0  0  0  0  0  0  0  0  0
    4.9543   34.0344    0.8480 C   0  0  0  0  0  0  0  0  0  0  0  0
    5.1247   32.5383    2.5781 C   0  0  0  0  0  0  0  0  0  0  0  0
    4.2436   33.1223    1.6209 O   0  0  0  0  0  0  0  0  0  0  0  0
   11.1504   36.1765   -0.0790 C   0  0  0  0  0  0  0  0  0  0  0  0
   11.3824   35.2465    2.1352 C   0  0  0  0  0  0  0  0  0  0  0  0
   11.1687   34.9132    0.7030 N   0  0  0  0  0  0  0  0  0  0  0  0
   10.0299   33.9742    0.4342 C   0  0  0  0  0  0  0  0  0  0  0  0
    9.0126   32.3028    3.6303 C   0  0  0  0  0  0  0  0  0  0  0  0
    9.1169   33.1948    2.5869 C   0  0  0  0  0  0  0  0  0  0  0  0
    9.7679   31.1523    3.6191 C   0  0  0  0  0  0  0  0  0  0  0  0
   10.7299   31.7917    1.5012 C   0  0  0  0  0  0  0  0  0  0  0  0
    9.9642   32.9489    1.5228 C   0  0  0  0  0  0  0  0  0  0  0  0
   10.6178   30.9064    2.5593 C   0  0  0  0  0  0  0  0  0  0  0  0
   11.6497   31.4849    0.3668 C   0  0  0  0  0  0  0  0  0  0  0  0
   12.7852   32.0620    0.3867 O   0  0  0  0  0  0  0  0  0  0  0  0
   11.2685   30.6486   -0.5026 O   0  0  0  0  0  0  0  0  0  0  0  0
   10.4139   30.2688   -0.4443 H   0  0  0  0  0  0  0  0  0  0  0  0
   12.0386   29.6059    3.7975 C   0  0  0  0  0  0  0  0  0  0  0  0
   11.3911   29.7618    2.5422 O   0  0  0  0  0  0  0  0  0  0  0  0
 27 28  1  0  0  0
 27 29  2  0  0  0
 28 31  2  0  0  0
 15 17  1  0  0  0
 15 19  2  0  0  0
 16 18  2  0  0  0
 16 19  1  0  0  0
 29 32  1  0  0  0
 17 20  2  0  0  0
 18 20  1  0  0  0
  1  3  1  0  0  0
  1  5  2  0  0  0
  2  4  1  0  0  0
  2  6  2  0  0  0
  3  4  2  0  0  0
  3 10  1  0  0  0
 30 31  1  0  0  0
 30 32  2  0  0  0
 30 33  1  0  0  0
 19 14  1  0  0  0
 31 26  1  0  0  0
  4 23  1  0  0  0
  5  6  1  0  0  0
  5  8  1  0  0  0
  6  9  1  0  0  0
 20 22  1  0  0  0
 32 38  1  0  0  0
 10 11  1  0  0  0
 10 12  2  0  0  0
 33 34  2  0  0  0
 33 35  1  0  0  0
  7  8  1  0  0  0
  7  9  1  0  0  0
 24 25  1  0  0  0
 21 22  1  0  0  0
 37 38  1  0  0  0
 14 11  1  0  0  0
 26 25  1  0  0  0
 23 25  1  0  0  0
 11 13  1  0  0  0
 35 36  1  0  0  0
M  END
> <minimizedAffinity>
-8.35364

$$$$
4CJR_FYM_A_1215


 38 41  0  0  0  0  0  0  0  0999 V2000
    8.2408   37.7771   -3.2044 C   0  0  0  0  0  0  0  0  0  0  0  0
   10.6344   36.6942   -2.1967 C   0  0  0  0  0  0  0  0  0  0  0  0
    8.3781   37.4208   -1.8763 C   0  0  0  0  0  0  0  0  0  0  0  0
    9.5485   36.8884   -1.3681 C   0  0  0  0  0  0  0  0  0  0  0  0
    9.3376   37.5728   -4.0065 C   0  0  0  0  0  0  0  0  0  0  0  0
   10.4931   37.0501   -3.5181 C   0  0  0  0  0  0  0  0  0  0  0  0
   10.7313   37.3799   -5.6287 C   0  0  0  0  0  0  0  0  0  0  0  0
    9.4098   37.8564   -5.3488 O   0  0  0  0  0  0  0  0  0  0  0  0
   11.4595   36.9248   -4.4803 O   0  0  0  0  0  0  0  0  0  0  0  0
    7.2327   37.6240   -0.9876 C   0  0  0  0  0  0  0  0  0  0  0  0
    6.2581   36.6785   -1.1377 N   0  0  0  0  0  0  0  0  0  0  0  0
    7.2111   38.5664   -0.2083 O   0  0  0  0  0  0  0  0  0  0  0  0
    6.3415   36.0076   -1.8533 H   0  0  0  0  0  0  0  0  0  0  0  0
    5.1153   36.6459   -0.2714 C   0  0  0  0  0  0  0  0  0  0  0  0
    4.1861   34.4661    0.4404 C   0  0  0  0  0  0  0  0  0  0  0  0
    6.1158   35.2846    1.5807 C   0  0  0  0  0  0  0  0  0  0  0  0
    4.1970   33.3432    1.2372 C   0  0  0  0  0  0  0  0  0  0  0  0
    6.1333   34.1611    2.3836 C   0  0  0  0  0  0  0  0  0  0  0  0
    5.1458   35.4393    0.6083 C   0  0  0  0  0  0  0  0  0  0  0  0
    5.1683   33.1877    2.2027 C   0  0  0  0  0  0  0  0  0  0  0  0
    6.3255   31.2940    2.7819 C   0  0  0  0  0  0  0  0  0  0  0  0
    5.1174   32.0282    2.9692 O   0  0  0  0  0  0  0  0  0  0  0  0
    9.6510   36.5218    0.0743 C   0  0  0  0  0  0  0  0  0  0  0  0
    8.9329   34.3881   -0.7937 C   0  0  0  0  0  0  0  0  0  0  0  0
    9.5994   35.0627    0.3503 N   0  0  0  0  0  0  0  0  0  0  0  0
   10.8960   34.4439    0.7827 C   0  0  0  0  0  0  0  0  0  0  0  0
    9.6112   32.6878    3.8337 C   0  0  0  0  0  0  0  0  0  0  0  0
    9.8942   33.6491    2.8898 C   0  0  0  0  0  0  0  0  0  0  0  0
   10.0627   31.4007    3.6496 C   0  0  0  0  0  0  0  0  0  0  0  0
   11.0791   32.0448    1.5588 C   0  0  0  0  0  0  0  0  0  0  0  0
   10.6195   33.3396    1.7545 C   0  0  0  0  0  0  0  0  0  0  0  0
   10.7906   31.0900    2.5185 C   0  0  0  0  0  0  0  0  0  0  0  0
   11.8574   31.6679    0.3426 C   0  0  0  0  0  0  0  0  0  0  0  0
   13.0309   32.1546    0.2481 O   0  0  0  0  0  0  0  0  0  0  0  0
   11.3296   30.8644   -0.4798 O   0  0  0  0  0  0  0  0  0  0  0  0
   10.4578   30.5524   -0.3362 H   0  0  0  0  0  0  0  0  0  0  0  0
   11.2033   29.0904    3.5550 C   0  0  0  0  0  0  0  0  0  0  0  0
   11.2609   29.8051    2.3282 O   0  0  0  0  0  0  0  0  0  0  0  0
 27 28  1  0  0  0
 27 29  2  0  0  0
 28 31  2  0  0  0
 15 17  1  0  0  0
 15 19  2  0  0  0
 16 18  2  0  0  0
 16 19  1  0  0  0
 29 32  1  0  0  0
 17 20  2  0  0  0
 18 20  1  0  0  0
  1  3  1  0  0  0
  1  5  2  0  0  0
  2  4  1  0  0  0
  2  6  2  0  0  0
  3  4  2  0  0  0
  3 10  1  0  0  0
 30 31  1  0  0  0
 30 32  2  0  0  0
 30 33  1  0  0  0
 19 14  1  0  0  0
 31 26  1  0  0  0
  4 23  1  0  0  0
  5  6  1  0  0  0
  5  8  1  0  0  0
  6  9  1  0  0  0
 20 22  1  0  0  0
 32 38  1  0  0  0
 10 11  1  0  0  0
 10 12  2  0  0  0
 33 34  2  0  0  0
 33 35  1  0  0  0
  7  8  1  0  0  0
  7  9  1  0  0  0
 24 25  1  0  0  0
 21 22  1  0  0  0
 37 38  1  0  0  0
 14 11  1  0  0  0
 26 25  1  0  0  0
 23 25  1  0  0  0
 11 13  1  0  0  0
 35 36  1  0  0  0
M  END
> <minimizedAffinity>
-8.34825

$$$$
4CJR_FYM_A_1215


 38 41  0  0  0  0  0  0  0  0999 V2000
    5.1552   35.6977   -0.3409 C   0  0  0  0  0  0  0  0  0  0  0  0
    6.9486   34.2666    1.2880 C   0  0  0  0  0  0  0  0  0  0  0  0
    6.4939   36.0312   -0.2615 C   0  0  0  0  0  0  0  0  0  0  0  0
    7.3858   35.3363    0.5342 C   0  0  0  0  0  0  0  0  0  0  0  0
    4.7475   34.6287    0.4202 C   0  0  0  0  0  0  0  0  0  0  0  0
    5.6151   33.9383    1.2061 C   0  0  0  0  0  0  0  0  0  0  0  0
    3.6510   33.1030    1.4600 C   0  0  0  0  0  0  0  0  0  0  0  0
    3.4664   34.1370    0.4861 O   0  0  0  0  0  0  0  0  0  0  0  0
    5.0078   32.9146    1.8834 O   0  0  0  0  0  0  0  0  0  0  0  0
    6.9691   37.1635   -1.0583 C   0  0  0  0  0  0  0  0  0  0  0  0
    7.2893   36.8241   -2.3423 N   0  0  0  0  0  0  0  0  0  0  0  0
    7.0477   38.2800   -0.5652 O   0  0  0  0  0  0  0  0  0  0  0  0
    7.2650   35.8777   -2.6125 H   0  0  0  0  0  0  0  0  0  0  0  0
    7.6602   37.8218   -3.3037 C   0  0  0  0  0  0  0  0  0  0  0  0
    6.8741   38.3770   -5.5831 C   0  0  0  0  0  0  0  0  0  0  0  0
    5.2303   37.9615   -3.9040 C   0  0  0  0  0  0  0  0  0  0  0  0
    5.8730   38.5951   -6.5030 C   0  0  0  0  0  0  0  0  0  0  0  0
    4.2207   38.1787   -4.8210 C   0  0  0  0  0  0  0  0  0  0  0  0
    6.5564   38.0581   -4.2817 C   0  0  0  0  0  0  0  0  0  0  0  0
    4.5511   38.4928   -6.1262 C   0  0  0  0  0  0  0  0  0  0  0  0
    4.1047   38.2895   -8.3667 C   0  0  0  0  0  0  0  0  0  0  0  0
    3.5944   38.7256   -7.1086 O   0  0  0  0  0  0  0  0  0  0  0  0
    8.8234   35.7312    0.5850 C   0  0  0  0  0  0  0  0  0  0  0  0
   10.2334   34.7811   -1.1271 C   0  0  0  0  0  0  0  0  0  0  0  0
    9.7804   34.6360    0.2806 N   0  0  0  0  0  0  0  0  0  0  0  0
   10.8799   34.4459    1.2836 C   0  0  0  0  0  0  0  0  0  0  0  0
    9.5277   32.2709    4.0193 C   0  0  0  0  0  0  0  0  0  0  0  0
    9.8134   33.3538    3.2188 C   0  0  0  0  0  0  0  0  0  0  0  0
   10.0439   31.0353    3.7010 C   0  0  0  0  0  0  0  0  0  0  0  0
   11.1308   31.9765    1.7639 C   0  0  0  0  0  0  0  0  0  0  0  0
   10.6057   33.2179    2.0942 C   0  0  0  0  0  0  0  0  0  0  0  0
   10.8387   30.8978    2.5806 C   0  0  0  0  0  0  0  0  0  0  0  0
   11.9829   31.7859    0.5537 C   0  0  0  0  0  0  0  0  0  0  0  0
   13.1533   32.2868    0.6008 O   0  0  0  0  0  0  0  0  0  0  0  0
   11.5140   31.1094   -0.4071 O   0  0  0  0  0  0  0  0  0  0  0  0
   10.6397   30.7756   -0.3623 H   0  0  0  0  0  0  0  0  0  0  0  0
   11.6984   28.9607    3.4476 C   0  0  0  0  0  0  0  0  0  0  0  0
   11.3737   29.6659    2.2574 O   0  0  0  0  0  0  0  0  0  0  0  0
 27 28  1  0  0  0
 27 29  2  0  0  0
 28 31  2  0  0  0
 15 17  1  0  0  0
 15 19  2  0  0  0
 16 18  2  0  0  0
 16 19  1  0  0  0
 29 32  1  0  0  0
 17 20  2  0  0  0
 18 20  1  0  0  0
  1  3  1  0  0  0
  1  5  2  0  0  0
  2  4  1  0  0  0
  2  6  2  0  0  0
  3  4  2  0  0  0
  3 10  1  0  0  0
 30 31  1  0  0  0
 30 32  2  0  0  0
 30 33  1  0  0  0
 19 14  1  0  0  0
 31 26  1  0  0  0
  4 23  1  0  0  0
  5  6  1  0  0  0
  5  8  1  0  0  0
  6  9  1  0  0  0
 20 22  1  0  0  0
 32 38  1  0  0  0
 10 11  1  0  0  0
 10 12  2  0  0  0
 33 34  2  0  0  0
 33 35  1  0  0  0
  7  8  1  0  0  0
  7  9  1  0  0  0
 24 25  1  0  0  0
 21 22  1  0  0  0
 37 38  1  0  0  0
 14 11  1  0  0  0
 26 25  1  0  0  0
 23 25  1  0  0  0
 11 13  1  0  0  0
 35 36  1  0  0  0
M  END
> <minimizedAffinity>
-8.25962

$$$$
4CJR_FYM_A_1215


 38 41  0  0  0  0  0  0  0  0999 V2000
    9.4666   39.7861    1.9682 C   0  0  0  0  0  0  0  0  0  0  0  0
   11.9438   38.5214    1.5421 C   0  0  0  0  0  0  0  0  0  0  0  0
    9.6185   38.7728    1.0410 C   0  0  0  0  0  0  0  0  0  0  0  0
   10.8295   38.1427    0.8220 C   0  0  0  0  0  0  0  0  0  0  0  0
   10.5924   40.1429    2.6707 C   0  0  0  0  0  0  0  0  0  0  0  0
   11.7880   39.5307    2.4639 C   0  0  0  0  0  0  0  0  0  0  0  0
   12.0562   41.0727    3.9371 C   0  0  0  0  0  0  0  0  0  0  0  0
   10.6575   41.1219    3.6322 O   0  0  0  0  0  0  0  0  0  0  0  0
   12.7803   40.0361    3.2611 O   0  0  0  0  0  0  0  0  0  0  0  0
    8.4423   38.3617    0.2724 C   0  0  0  0  0  0  0  0  0  0  0  0
    7.6909   37.4103    0.9021 N   0  0  0  0  0  0  0  0  0  0  0  0
    8.2094   38.8600   -0.8200 O   0  0  0  0  0  0  0  0  0  0  0  0
    8.0143   37.0190    1.7457 H   0  0  0  0  0  0  0  0  0  0  0  0
    6.4393   36.9712    0.3563 C   0  0  0  0  0  0  0  0  0  0  0  0
    6.7422   35.1594    2.0139 C   0  0  0  0  0  0  0  0  0  0  0  0
    4.9322   34.9711    0.4703 C   0  0  0  0  0  0  0  0  0  0  0  0
    6.3737   33.9621    2.5853 C   0  0  0  0  0  0  0  0  0  0  0  0
    4.5564   33.7697    1.0383 C   0  0  0  0  0  0  0  0  0  0  0  0
    6.0222   35.6685    0.9561 C   0  0  0  0  0  0  0  0  0  0  0  0
    5.2830   33.2706    2.1034 C   0  0  0  0  0  0  0  0  0  0  0  0
    6.1324   31.2448    2.7629 C   0  0  0  0  0  0  0  0  0  0  0  0
    4.9693   32.0693    2.7302 O   0  0  0  0  0  0  0  0  0  0  0  0
   10.9443   37.0507   -0.1878 C   0  0  0  0  0  0  0  0  0  0  0  0
    9.8322   34.9869   -0.7584 C   0  0  0  0  0  0  0  0  0  0  0  0
   10.5763   35.7006    0.3116 N   0  0  0  0  0  0  0  0  0  0  0  0
   11.6949   34.9187    0.9349 C   0  0  0  0  0  0  0  0  0  0  0  0
    9.7404   33.2226    3.6453 C   0  0  0  0  0  0  0  0  0  0  0  0
   10.2929   34.1773    2.8216 C   0  0  0  0  0  0  0  0  0  0  0  0
   10.0250   31.8931    3.4312 C   0  0  0  0  0  0  0  0  0  0  0  0
   11.4174   32.4827    1.5516 C   0  0  0  0  0  0  0  0  0  0  0  0
   11.1243   33.8204    1.7765 C   0  0  0  0  0  0  0  0  0  0  0  0
   10.8583   31.5344    2.3906 C   0  0  0  0  0  0  0  0  0  0  0  0
   12.3029   32.0553    0.4289 C   0  0  0  0  0  0  0  0  0  0  0  0
   13.5192   32.4287    0.4936 O   0  0  0  0  0  0  0  0  0  0  0  0
   11.8093   31.3217   -0.4759 O   0  0  0  0  0  0  0  0  0  0  0  0
   10.9012   31.0923   -0.4496 H   0  0  0  0  0  0  0  0  0  0  0  0
   11.3715   29.5540    3.4190 C   0  0  0  0  0  0  0  0  0  0  0  0
   11.1624   30.2045    2.1731 O   0  0  0  0  0  0  0  0  0  0  0  0
 27 28  1  0  0  0
 27 29  2  0  0  0
 28 31  2  0  0  0
 15 17  1  0  0  0
 15 19  2  0  0  0
 16 18  2  0  0  0
 16 19  1  0  0  0
 29 32  1  0  0  0
 17 20  2  0  0  0
 18 20  1  0  0  0
  1  3  1  0  0  0
  1  5  2  0  0  0
  2  4  1  0  0  0
  2  6  2  0  0  0
  3  4  2  0  0  0
  3 10  1  0  0  0
 30 31  1  0  0  0
 30 32  2  0  0  0
 30 33  1  0  0  0
 19 14  1  0  0  0
 31 26  1  0  0  0
  4 23  1  0  0  0
  5  6  1  0  0  0
  5  8  1  0  0  0
  6  9  1  0  0  0
 20 22  1  0  0  0
 32 38  1  0  0  0
 10 11  1  0  0  0
 10 12  2  0  0  0
 33 34  2  0  0  0
 33 35  1  0  0  0
  7  8  1  0  0  0
  7  9  1  0  0  0
 24 25  1  0  0  0
 21 22  1  0  0  0
 37 38  1  0  0  0
 14 11  1  0  0  0
 26 25  1  0  0  0
 23 25  1  0  0  0
 11 13  1  0  0  0
 35 36  1  0  0  0
M  END
> <minimizedAffinity>
-8.19776

$$$$
4CJR_FYM_A_1215


 38 41  0  0  0  0  0  0  0  0999 V2000
    5.4770   35.8131   -1.0048 C   0  0  0  0  0  0  0  0  0  0  0  0
    7.7310   37.4864   -1.1979 C   0  0  0  0  0  0  0  0  0  0  0  0
    6.3311   36.0126    0.0630 C   0  0  0  0  0  0  0  0  0  0  0  0
    7.4416   36.8323   -0.0181 C   0  0  0  0  0  0  0  0  0  0  0  0
    5.7893   36.4765   -2.1670 C   0  0  0  0  0  0  0  0  0  0  0  0
    6.8781   37.2847   -2.2584 C   0  0  0  0  0  0  0  0  0  0  0  0
    5.9029   37.2339   -4.1731 C   0  0  0  0  0  0  0  0  0  0  0  0
    5.0754   36.4144   -3.3391 O   0  0  0  0  0  0  0  0  0  0  0  0
    7.0112   37.8462   -3.5004 O   0  0  0  0  0  0  0  0  0  0  0  0
    6.0328   35.3248    1.3203 C   0  0  0  0  0  0  0  0  0  0  0  0
    6.1793   33.9688    1.2423 N   0  0  0  0  0  0  0  0  0  0  0  0
    5.6919   35.9589    2.3090 O   0  0  0  0  0  0  0  0  0  0  0  0
    6.3806   33.5535    0.3727 H   0  0  0  0  0  0  0  0  0  0  0  0
    6.0453   33.1392    2.4048 C   0  0  0  0  0  0  0  0  0  0  0  0
    7.6377   31.2932    2.8268 C   0  0  0  0  0  0  0  0  0  0  0  0
    8.3466   33.5166    3.3246 C   0  0  0  0  0  0  0  0  0  0  0  0
    8.8603   30.8151    3.2423 C   0  0  0  0  0  0  0  0  0  0  0  0
    9.5752   33.0446    3.7429 C   0  0  0  0  0  0  0  0  0  0  0  0
    7.3774   32.6449    2.8650 C   0  0  0  0  0  0  0  0  0  0  0  0
    9.8278   31.6861    3.6950 C   0  0  0  0  0  0  0  0  0  0  0  0
   10.9539   29.7117    4.0017 C   0  0  0  0  0  0  0  0  0  0  0  0
   11.0384   31.1320    4.0974 O   0  0  0  0  0  0  0  0  0  0  0  0
    8.3333   37.0199    1.1630 C   0  0  0  0  0  0  0  0  0  0  0  0
   10.5698   37.5862    1.8697 C   0  0  0  0  0  0  0  0  0  0  0  0
    9.7771   36.7935    0.8943 N   0  0  0  0  0  0  0  0  0  0  0  0
   10.1889   35.3569    0.7621 C   0  0  0  0  0  0  0  0  0  0  0  0
   11.7457   35.3817   -2.6465 C   0  0  0  0  0  0  0  0  0  0  0  0
   10.8456   35.4853   -1.6101 C   0  0  0  0  0  0  0  0  0  0  0  0
   13.0464   35.0166   -2.3833 C   0  0  0  0  0  0  0  0  0  0  0  0
   12.5393   34.8668   -0.0296 C   0  0  0  0  0  0  0  0  0  0  0  0
   11.2302   35.2352   -0.3061 C   0  0  0  0  0  0  0  0  0  0  0  0
   13.4320   34.7625   -1.0823 C   0  0  0  0  0  0  0  0  0  0  0  0
   12.9967   34.5971    1.3651 C   0  0  0  0  0  0  0  0  0  0  0  0
   13.3794   35.6071    2.0407 O   0  0  0  0  0  0  0  0  0  0  0  0
   12.9313   33.4097    1.7967 O   0  0  0  0  0  0  0  0  0  0  0  0
   12.6379   32.7216    1.2323 H   0  0  0  0  0  0  0  0  0  0  0  0
   15.6161   35.4493   -1.1191 C   0  0  0  0  0  0  0  0  0  0  0  0
   14.7311   34.3824   -0.8061 O   0  0  0  0  0  0  0  0  0  0  0  0
 27 28  1  0  0  0
 27 29  2  0  0  0
 28 31  2  0  0  0
 15 17  1  0  0  0
 15 19  2  0  0  0
 16 18  2  0  0  0
 16 19  1  0  0  0
 29 32  1  0  0  0
 17 20  2  0  0  0
 18 20  1  0  0  0
  1  3  1  0  0  0
  1  5  2  0  0  0
  2  4  1  0  0  0
  2  6  2  0  0  0
  3  4  2  0  0  0
  3 10  1  0  0  0
 30 31  1  0  0  0
 30 32  2  0  0  0
 30 33  1  0  0  0
 19 14  1  0  0  0
 31 26  1  0  0  0
  4 23  1  0  0  0
  5  6  1  0  0  0
  5  8  1  0  0  0
  6  9  1  0  0  0
 20 22  1  0  0  0
 32 38  1  0  0  0
 10 11  1  0  0  0
 10 12  2  0  0  0
 33 34  2  0  0  0
 33 35  1  0  0  0
  7  8  1  0  0  0
  7  9  1  0  0  0
 24 25  1  0  0  0
 21 22  1  0  0  0
 37 38  1  0  0  0
 14 11  1  0  0  0
 26 25  1  0  0  0
 23 25  1  0  0  0
 11 13  1  0  0  0
 35 36  1  0  0  0
M  END
> <minimizedAffinity>
-7.90300

$$$$
4CJR_FYM_A_1215


 38 41  0  0  0  0  0  0  0  0999 V2000
    5.5111   37.3644   -3.5520 C   0  0  0  0  0  0  0  0  0  0  0  0
    8.1864   37.9407   -2.8974 C   0  0  0  0  0  0  0  0  0  0  0  0
    5.9668   37.3296   -2.2479 C   0  0  0  0  0  0  0  0  0  0  0  0
    7.2783   37.6110   -1.9124 C   0  0  0  0  0  0  0  0  0  0  0  0
    6.4367   37.6954   -4.5122 C   0  0  0  0  0  0  0  0  0  0  0  0
    7.7283   37.9739   -4.1943 C   0  0  0  0  0  0  0  0  0  0  0  0
    7.5109   38.0884   -6.3296 C   0  0  0  0  0  0  0  0  0  0  0  0
    6.1917   37.7849   -5.8610 O   0  0  0  0  0  0  0  0  0  0  0  0
    8.4856   38.2756   -5.2947 O   0  0  0  0  0  0  0  0  0  0  0  0
    5.0115   36.9825   -1.1944 C   0  0  0  0  0  0  0  0  0  0  0  0
    5.0334   35.6581   -0.8601 N   0  0  0  0  0  0  0  0  0  0  0  0
    4.2927   37.8404   -0.7010 O   0  0  0  0  0  0  0  0  0  0  0  0
    5.5958   35.0379   -1.3782 H   0  0  0  0  0  0  0  0  0  0  0  0
    4.2518   35.1549    0.2322 C   0  0  0  0  0  0  0  0  0  0  0  0
    6.1333   34.9411    1.8248 C   0  0  0  0  0  0  0  0  0  0  0  0
    4.8400   32.9918    1.3545 C   0  0  0  0  0  0  0  0  0  0  0  0
    6.9180   34.2074    2.6860 C   0  0  0  0  0  0  0  0  0  0  0  0
    5.6226   32.2493    2.2168 C   0  0  0  0  0  0  0  0  0  0  0  0
    5.0913   34.3366    1.1577 C   0  0  0  0  0  0  0  0  0  0  0  0
    6.6626   32.8677    2.8856 C   0  0  0  0  0  0  0  0  0  0  0  0
    8.2159   31.1888    3.0553 C   0  0  0  0  0  0  0  0  0  0  0  0
    7.4956   32.1907    3.7701 O   0  0  0  0  0  0  0  0  0  0  0  0
    7.7236   37.5640   -0.4894 C   0  0  0  0  0  0  0  0  0  0  0  0
    9.2047   36.7185    1.2174 C   0  0  0  0  0  0  0  0  0  0  0  0
    8.8138   36.5936   -0.2107 N   0  0  0  0  0  0  0  0  0  0  0  0
    8.5604   35.1905   -0.6777 C   0  0  0  0  0  0  0  0  0  0  0  0
   10.7950   32.4700    0.6062 C   0  0  0  0  0  0  0  0  0  0  0  0
    9.6997   33.2667    0.3595 C   0  0  0  0  0  0  0  0  0  0  0  0
   12.0039   32.7773    0.0244 C   0  0  0  0  0  0  0  0  0  0  0  0
   11.0077   34.6864   -1.0628 C   0  0  0  0  0  0  0  0  0  0  0  0
    9.7936   34.3679   -0.4707 C   0  0  0  0  0  0  0  0  0  0  0  0
   12.1011   33.8788   -0.8020 C   0  0  0  0  0  0  0  0  0  0  0  0
   11.1486   35.8612   -1.9723 C   0  0  0  0  0  0  0  0  0  0  0  0
   10.8358   35.6730   -3.1928 O   0  0  0  0  0  0  0  0  0  0  0  0
   11.5179   36.9632   -1.4726 O   0  0  0  0  0  0  0  0  0  0  0  0
   11.7309   37.0167   -0.5617 H   0  0  0  0  0  0  0  0  0  0  0  0
   14.2473   34.5493   -0.3687 C   0  0  0  0  0  0  0  0  0  0  0  0
   13.3118   34.2058   -1.3816 O   0  0  0  0  0  0  0  0  0  0  0  0
 27 28  1  0  0  0
 27 29  2  0  0  0
 28 31  2  0  0  0
 15 17  1  0  0  0
 15 19  2  0  0  0
 16 18  2  0  0  0
 16 19  1  0  0  0
 29 32  1  0  0  0
 17 20  2  0  0  0
 18 20  1  0  0  0
  1  3  1  0  0  0
  1  5  2  0  0  0
  2  4  1  0  0  0
  2  6  2  0  0  0
  3  4  2  0  0  0
  3 10  1  0  0  0
 30 31  1  0  0  0
 30 32  2  0  0  0
 30 33  1  0  0  0
 19 14  1  0  0  0
 31 26  1  0  0  0
  4 23  1  0  0  0
  5  6  1  0  0  0
  5  8  1  0  0  0
  6  9  1  0  0  0
 20 22  1  0  0  0
 32 38  1  0  0  0
 10 11  1  0  0  0
 10 12  2  0  0  0
 33 34  2  0  0  0
 33 35  1  0  0  0
  7  8  1  0  0  0
  7  9  1  0  0  0
 24 25  1  0  0  0
 21 22  1  0  0  0
 37 38  1  0  0  0
 14 11  1  0  0  0
 26 25  1  0  0  0
 23 25  1  0  0  0
 11 13  1  0  0  0
 35 36  1  0  0  0
M  END
> <minimizedAffinity>
-7.84983

$$$$
4CJR_FYM_A_1215


 38 41  0  0  0  0  0  0  0  0999 V2000
    5.1032   35.6380   -0.2271 C   0  0  0  0  0  0  0  0  0  0  0  0
    7.0968   34.1297    1.0643 C   0  0  0  0  0  0  0  0  0  0  0  0
    6.4399   35.9809   -0.3006 C   0  0  0  0  0  0  0  0  0  0  0  0
    7.4294   35.2483    0.3285 C   0  0  0  0  0  0  0  0  0  0  0  0
    4.8007   34.5199    0.5122 C   0  0  0  0  0  0  0  0  0  0  0  0
    5.7649   33.7923    1.1350 C   0  0  0  0  0  0  0  0  0  0  0  0
    3.8528   32.9213    1.5878 C   0  0  0  0  0  0  0  0  0  0  0  0
    3.5404   34.0110    0.7122 O   0  0  0  0  0  0  0  0  0  0  0  0
    5.2537   32.7223    1.8200 O   0  0  0  0  0  0  0  0  0  0  0  0
    6.8044   37.1651   -1.0801 C   0  0  0  0  0  0  0  0  0  0  0  0
    6.8633   36.9299   -2.4246 N   0  0  0  0  0  0  0  0  0  0  0  0
    7.0212   38.2322   -0.5232 O   0  0  0  0  0  0  0  0  0  0  0  0
    6.7488   36.0115   -2.7601 H   0  0  0  0  0  0  0  0  0  0  0  0
    7.0889   37.9972   -3.3559 C   0  0  0  0  0  0  0  0  0  0  0  0
    8.3729   37.9856   -5.4710 C   0  0  0  0  0  0  0  0  0  0  0  0
    9.5233   37.4084   -3.4617 C   0  0  0  0  0  0  0  0  0  0  0  0
    9.5366   37.8043   -6.1842 C   0  0  0  0  0  0  0  0  0  0  0  0
   10.6944   37.2247   -4.1702 C   0  0  0  0  0  0  0  0  0  0  0  0
    8.3626   37.7899   -4.1079 C   0  0  0  0  0  0  0  0  0  0  0  0
   10.6947   37.4294   -5.5376 C   0  0  0  0  0  0  0  0  0  0  0  0
   12.7171   36.3560   -5.6724 C   0  0  0  0  0  0  0  0  0  0  0  0
   11.8316   37.2658   -6.3219 O   0  0  0  0  0  0  0  0  0  0  0  0
    8.8603   35.6553    0.2177 C   0  0  0  0  0  0  0  0  0  0  0  0
   10.3208   34.5427   -1.3478 C   0  0  0  0  0  0  0  0  0  0  0  0
    9.8158   34.5299    0.0497 N   0  0  0  0  0  0  0  0  0  0  0  0
   10.8763   34.4238    1.1056 C   0  0  0  0  0  0  0  0  0  0  0  0
    9.5497   32.4248    3.9843 C   0  0  0  0  0  0  0  0  0  0  0  0
    9.8437   33.4595    3.1252 C   0  0  0  0  0  0  0  0  0  0  0  0
   10.0105   31.1581    3.7056 C   0  0  0  0  0  0  0  0  0  0  0  0
   11.0581   31.9710    1.6904 C   0  0  0  0  0  0  0  0  0  0  0  0
   10.5891   33.2443    1.9811 C   0  0  0  0  0  0  0  0  0  0  0  0
   10.7585   30.9415    2.5657 C   0  0  0  0  0  0  0  0  0  0  0  0
   11.8583   31.6952    0.4612 C   0  0  0  0  0  0  0  0  0  0  0  0
   13.0106   32.2354    0.4029 O   0  0  0  0  0  0  0  0  0  0  0  0
   11.3694   30.9173   -0.4084 O   0  0  0  0  0  0  0  0  0  0  0  0
   10.5108   30.5615   -0.2890 H   0  0  0  0  0  0  0  0  0  0  0  0
   11.5564   29.0054    3.4920 C   0  0  0  0  0  0  0  0  0  0  0  0
   11.2380   29.6775    2.2812 O   0  0  0  0  0  0  0  0  0  0  0  0
 27 28  1  0  0  0
 27 29  2  0  0  0
 28 31  2  0  0  0
 15 17  1  0  0  0
 15 19  2  0  0  0
 16 18  2  0  0  0
 16 19  1  0  0  0
 29 32  1  0  0  0
 17 20  2  0  0  0
 18 20  1  0  0  0
  1  3  1  0  0  0
  1  5  2  0  0  0
  2  4  1  0  0  0
  2  6  2  0  0  0
  3  4  2  0  0  0
  3 10  1  0  0  0
 30 31  1  0  0  0
 30 32  2  0  0  0
 30 33  1  0  0  0
 19 14  1  0  0  0
 31 26  1  0  0  0
  4 23  1  0  0  0
  5  6  1  0  0  0
  5  8  1  0  0  0
  6  9  1  0  0  0
 20 22  1  0  0  0
 32 38  1  0  0  0
 10 11  1  0  0  0
 10 12  2  0  0  0
 33 34  2  0  0  0
 33 35  1  0  0  0
  7  8  1  0  0  0
  7  9  1  0  0  0
 24 25  1  0  0  0
 21 22  1  0  0  0
 37 38  1  0  0  0
 14 11  1  0  0  0
 26 25  1  0  0  0
 23 25  1  0  0  0
 11 13  1  0  0  0
 35 36  1  0  0  0
M  END
> <minimizedAffinity>
-7.84807

$$$$
4CJR_FYM_A_1215


 38 41  0  0  0  0  0  0  0  0999 V2000
    5.7993   35.7441   -0.9840 C   0  0  0  0  0  0  0  0  0  0  0  0
    7.6196   37.8873   -1.0881 C   0  0  0  0  0  0  0  0  0  0  0  0
    6.5429   36.1239    0.1171 C   0  0  0  0  0  0  0  0  0  0  0  0
    7.4402   37.1751    0.0798 C   0  0  0  0  0  0  0  0  0  0  0  0
    5.9982   36.4704   -2.1334 C   0  0  0  0  0  0  0  0  0  0  0  0
    6.8775   37.5056   -2.1819 C   0  0  0  0  0  0  0  0  0  0  0  0
    6.0156   37.2499   -4.1342 C   0  0  0  0  0  0  0  0  0  0  0  0
    5.3640   36.2572   -3.3333 O   0  0  0  0  0  0  0  0  0  0  0  0
    6.9283   38.0926   -3.4181 O   0  0  0  0  0  0  0  0  0  0  0  0
    6.3594   35.3762    1.3622 C   0  0  0  0  0  0  0  0  0  0  0  0
    6.9522   34.1454    1.3457 N   0  0  0  0  0  0  0  0  0  0  0  0
    5.7278   35.8615    2.2904 O   0  0  0  0  0  0  0  0  0  0  0  0
    7.3681   33.8203    0.5147 H   0  0  0  0  0  0  0  0  0  0  0  0
    6.9794   33.3185    2.5174 C   0  0  0  0  0  0  0  0  0  0  0  0
    9.0815   32.4904    1.5086 C   0  0  0  0  0  0  0  0  0  0  0  0
    8.6702   31.9891    3.8050 C   0  0  0  0  0  0  0  0  0  0  0  0
   10.2806   31.8177    1.5810 C   0  0  0  0  0  0  0  0  0  0  0  0
    9.8717   31.3128    3.8854 C   0  0  0  0  0  0  0  0  0  0  0  0
    8.2733   32.5797    2.6201 C   0  0  0  0  0  0  0  0  0  0  0  0
   10.6777   31.2341    2.7649 C   0  0  0  0  0  0  0  0  0  0  0  0
   11.8418   29.4852    3.6849 C   0  0  0  0  0  0  0  0  0  0  0  0
   11.9010   30.5724    2.7639 O   0  0  0  0  0  0  0  0  0  0  0  0
    8.2186   37.5508    1.2956 C   0  0  0  0  0  0  0  0  0  0  0  0
   10.4272   38.2527    1.9676 C   0  0  0  0  0  0  0  0  0  0  0  0
    9.6629   37.2061    1.2405 N   0  0  0  0  0  0  0  0  0  0  0  0
   10.0020   35.7950    1.6206 C   0  0  0  0  0  0  0  0  0  0  0  0
   13.6424   35.0236    1.1781 C   0  0  0  0  0  0  0  0  0  0  0  0
   12.4277   35.3706    1.7252 C   0  0  0  0  0  0  0  0  0  0  0  0
   13.7192   34.7029   -0.1582 C   0  0  0  0  0  0  0  0  0  0  0  0
   11.3471   35.0726   -0.3944 C   0  0  0  0  0  0  0  0  0  0  0  0
   11.2809   35.3947    0.9538 C   0  0  0  0  0  0  0  0  0  0  0  0
   12.5760   34.7301   -0.9315 C   0  0  0  0  0  0  0  0  0  0  0  0
   10.1309   35.0778   -1.2592 C   0  0  0  0  0  0  0  0  0  0  0  0
    9.2026   34.2677   -0.9355 O   0  0  0  0  0  0  0  0  0  0  0  0
   10.0800   35.9060   -2.2143 O   0  0  0  0  0  0  0  0  0  0  0  0
   10.8094   36.4685   -2.3861 H   0  0  0  0  0  0  0  0  0  0  0  0
   13.7870   35.0388   -2.8502 C   0  0  0  0  0  0  0  0  0  0  0  0
   12.6418   34.4231   -2.2768 O   0  0  0  0  0  0  0  0  0  0  0  0
 27 28  1  0  0  0
 27 29  2  0  0  0
 28 31  2  0  0  0
 15 17  1  0  0  0
 15 19  2  0  0  0
 16 18  2  0  0  0
 16 19  1  0  0  0
 29 32  1  0  0  0
 17 20  2  0  0  0
 18 20  1  0  0  0
  1  3  1  0  0  0
  1  5  2  0  0  0
  2  4  1  0  0  0
  2  6  2  0  0  0
  3  4  2  0  0  0
  3 10  1  0  0  0
 30 31  1  0  0  0
 30 32  2  0  0  0
 30 33  1  0  0  0
 19 14  1  0  0  0
 31 26  1  0  0  0
  4 23  1  0  0  0
  5  6  1  0  0  0
  5  8  1  0  0  0
  6  9  1  0  0  0
 20 22  1  0  0  0
 32 38  1  0  0  0
 10 11  1  0  0  0
 10 12  2  0  0  0
 33 34  2  0  0  0
 33 35  1  0  0  0
  7  8  1  0  0  0
  7  9  1  0  0  0
 24 25  1  0  0  0
 21 22  1  0  0  0
 37 38  1  0  0  0
 14 11  1  0  0  0
 26 25  1  0  0  0
 23 25  1  0  0  0
 11 13  1  0  0  0
 35 36  1  0  0  0
M  END
> <minimizedAffinity>
-7.80890

$$$$
4CJR_FYM_A_1215


 38 41  0  0  0  0  0  0  0  0999 V2000
    5.5042   37.3067   -3.5600 C   0  0  0  0  0  0  0  0  0  0  0  0
    8.1174   38.0620   -2.8403 C   0  0  0  0  0  0  0  0  0  0  0  0
    5.9312   37.2947   -2.2458 C   0  0  0  0  0  0  0  0  0  0  0  0
    7.2120   37.6638   -1.8784 C   0  0  0  0  0  0  0  0  0  0  0  0
    6.4263   37.7072   -4.4966 C   0  0  0  0  0  0  0  0  0  0  0  0
    7.6880   38.0722   -4.1473 C   0  0  0  0  0  0  0  0  0  0  0  0
    7.5121   38.1857   -6.2865 C   0  0  0  0  0  0  0  0  0  0  0  0
    6.2067   37.7886   -5.8504 O   0  0  0  0  0  0  0  0  0  0  0  0
    8.4475   38.4328   -5.2282 O   0  0  0  0  0  0  0  0  0  0  0  0
    4.9783   36.8755   -1.2166 C   0  0  0  0  0  0  0  0  0  0  0  0
    5.1285   35.5707   -0.8407 N   0  0  0  0  0  0  0  0  0  0  0  0
    4.1536   37.6639   -0.7761 O   0  0  0  0  0  0  0  0  0  0  0  0
    5.7734   35.0009   -1.3189 H   0  0  0  0  0  0  0  0  0  0  0  0
    4.3634   35.0160    0.2383 C   0  0  0  0  0  0  0  0  0  0  0  0
    4.9531   32.9780    1.5115 C   0  0  0  0  0  0  0  0  0  0  0  0
    6.3410   34.9011    1.7746 C   0  0  0  0  0  0  0  0  0  0  0  0
    5.7539   32.2851    2.3915 C   0  0  0  0  0  0  0  0  0  0  0  0
    7.1490   34.2126    2.6580 C   0  0  0  0  0  0  0  0  0  0  0  0
    5.2446   34.2871    1.1990 C   0  0  0  0  0  0  0  0  0  0  0  0
    6.8502   32.8970    2.9603 C   0  0  0  0  0  0  0  0  0  0  0  0
    8.2117   31.0583    3.1212 C   0  0  0  0  0  0  0  0  0  0  0  0
    7.6136   32.1356    3.8389 O   0  0  0  0  0  0  0  0  0  0  0  0
    7.6268   37.6382   -0.4457 C   0  0  0  0  0  0  0  0  0  0  0  0
    9.3083   37.2054    1.2297 C   0  0  0  0  0  0  0  0  0  0  0  0
    8.9271   36.9675   -0.1867 N   0  0  0  0  0  0  0  0  0  0  0  0
    9.0137   35.5382   -0.6344 C   0  0  0  0  0  0  0  0  0  0  0  0
   12.4330   35.6255   -2.1655 C   0  0  0  0  0  0  0  0  0  0  0  0
   11.1184   35.9020   -1.8645 C   0  0  0  0  0  0  0  0  0  0  0  0
   13.0857   34.6155   -1.4960 C   0  0  0  0  0  0  0  0  0  0  0  0
   11.0937   34.1647   -0.2121 C   0  0  0  0  0  0  0  0  0  0  0  0
   10.4449   35.1847   -0.8935 C   0  0  0  0  0  0  0  0  0  0  0  0
   12.4140   33.8952   -0.5286 C   0  0  0  0  0  0  0  0  0  0  0  0
   10.4051   33.3730    0.8491 C   0  0  0  0  0  0  0  0  0  0  0  0
    9.7178   32.3754    0.4550 O   0  0  0  0  0  0  0  0  0  0  0  0
   10.5833   33.7086    2.0558 O   0  0  0  0  0  0  0  0  0  0  0  0
   11.1050   34.4594    2.2612 H   0  0  0  0  0  0  0  0  0  0  0  0
   14.0248   33.4127    1.0257 C   0  0  0  0  0  0  0  0  0  0  0  0
   13.0536   32.8703    0.1414 O   0  0  0  0  0  0  0  0  0  0  0  0
 27 28  1  0  0  0
 27 29  2  0  0  0
 28 31  2  0  0  0
 15 17  1  0  0  0
 15 19  2  0  0  0
 16 18  2  0  0  0
 16 19  1  0  0  0
 29 32  1  0  0  0
 17 20  2  0  0  0
 18 20  1  0  0  0
  1  3  1  0  0  0
  1  5  2  0  0  0
  2  4  1  0  0  0
  2  6  2  0  0  0
  3  4  2  0  0  0
  3 10  1  0  0  0
 30 31  1  0  0  0
 30 32  2  0  0  0
 30 33  1  0  0  0
 19 14  1  0  0  0
 31 26  1  0  0  0
  4 23  1  0  0  0
  5  6  1  0  0  0
  5  8  1  0  0  0
  6  9  1  0  0  0
 20 22  1  0  0  0
 32 38  1  0  0  0
 10 11  1  0  0  0
 10 12  2  0  0  0
 33 34  2  0  0  0
 33 35  1  0  0  0
  7  8  1  0  0  0
  7  9  1  0  0  0
 24 25  1  0  0  0
 21 22  1  0  0  0
 37 38  1  0  0  0
 14 11  1  0  0  0
 26 25  1  0  0  0
 23 25  1  0  0  0
 11 13  1  0  0  0
 35 36  1  0  0  0
M  END
> <minimizedAffinity>
-7.75039

$$$$
4CJR_FYM_A_1215


 38 41  0  0  0  0  0  0  0  0999 V2000
   12.7177   33.3350    0.5962 C   0  0  0  0  0  0  0  0  0  0  0  0
   11.4344   35.0138   -1.2618 C   0  0  0  0  0  0  0  0  0  0  0  0
   11.3406   33.4215    0.5207 C   0  0  0  0  0  0  0  0  0  0  0  0
   10.6974   34.2417   -0.3876 C   0  0  0  0  0  0  0  0  0  0  0  0
   13.4264   34.1147   -0.2858 C   0  0  0  0  0  0  0  0  0  0  0  0
   12.8050   34.9247   -1.1829 C   0  0  0  0  0  0  0  0  0  0  0  0
   14.9293   35.1755   -1.3936 C   0  0  0  0  0  0  0  0  0  0  0  0
   14.7959   34.1774   -0.3749 O   0  0  0  0  0  0  0  0  0  0  0  0
   13.6906   35.6175   -1.9646 O   0  0  0  0  0  0  0  0  0  0  0  0
   10.5485   32.6054    1.4424 C   0  0  0  0  0  0  0  0  0  0  0  0
   10.2428   33.2494    2.6079 N   0  0  0  0  0  0  0  0  0  0  0  0
   10.2228   31.4660    1.1397 O   0  0  0  0  0  0  0  0  0  0  0  0
   10.6251   34.1396    2.7830 H   0  0  0  0  0  0  0  0  0  0  0  0
    9.3749   32.6516    3.5809 C   0  0  0  0  0  0  0  0  0  0  0  0
    7.1965   31.5986    3.0634 C   0  0  0  0  0  0  0  0  0  0  0  0
    7.3697   33.9693    2.8546 C   0  0  0  0  0  0  0  0  0  0  0  0
    5.8767   31.6653    2.6767 C   0  0  0  0  0  0  0  0  0  0  0  0
    6.0466   34.0443    2.4662 C   0  0  0  0  0  0  0  0  0  0  0  0
    7.9467   32.7498    3.1551 C   0  0  0  0  0  0  0  0  0  0  0  0
    5.3012   32.8828    2.3829 C   0  0  0  0  0  0  0  0  0  0  0  0
    3.8295   33.5729    0.7647 C   0  0  0  0  0  0  0  0  0  0  0  0
    3.9640   32.8736    2.0003 O   0  0  0  0  0  0  0  0  0  0  0  0
    9.2074   34.2994   -0.4344 C   0  0  0  0  0  0  0  0  0  0  0  0
    9.4239   36.2584    0.9574 C   0  0  0  0  0  0  0  0  0  0  0  0
    8.6268   35.6327   -0.1294 N   0  0  0  0  0  0  0  0  0  0  0  0
    8.3770   36.5124   -1.3188 C   0  0  0  0  0  0  0  0  0  0  0  0
    4.7214   36.7216   -0.5211 C   0  0  0  0  0  0  0  0  0  0  0  0
    6.0258   36.2910   -0.6132 C   0  0  0  0  0  0  0  0  0  0  0  0
    4.3632   37.9285   -1.0773 C   0  0  0  0  0  0  0  0  0  0  0  0
    6.6340   38.2755   -1.8137 C   0  0  0  0  0  0  0  0  0  0  0  0
    6.9844   37.0567   -1.2500 C   0  0  0  0  0  0  0  0  0  0  0  0
    5.3179   38.6932   -1.7172 C   0  0  0  0  0  0  0  0  0  0  0  0
    7.6406   39.1360   -2.5017 C   0  0  0  0  0  0  0  0  0  0  0  0
    7.8929   38.8507   -3.7175 O   0  0  0  0  0  0  0  0  0  0  0  0
    8.1358   40.1070   -1.8596 O   0  0  0  0  0  0  0  0  0  0  0  0
    7.8967   40.2474   -0.9645 H   0  0  0  0  0  0  0  0  0  0  0  0
    4.5491   40.8051   -1.2786 C   0  0  0  0  0  0  0  0  0  0  0  0
    4.9686   39.9004   -2.2910 O   0  0  0  0  0  0  0  0  0  0  0  0
 27 28  1  0  0  0
 27 29  2  0  0  0
 28 31  2  0  0  0
 15 17  1  0  0  0
 15 19  2  0  0  0
 16 18  2  0  0  0
 16 19  1  0  0  0
 29 32  1  0  0  0
 17 20  2  0  0  0
 18 20  1  0  0  0
  1  3  1  0  0  0
  1  5  2  0  0  0
  2  4  1  0  0  0
  2  6  2  0  0  0
  3  4  2  0  0  0
  3 10  1  0  0  0
 30 31  1  0  0  0
 30 32  2  0  0  0
 30 33  1  0  0  0
 19 14  1  0  0  0
 31 26  1  0  0  0
  4 23  1  0  0  0
  5  6  1  0  0  0
  5  8  1  0  0  0
  6  9  1  0  0  0
 20 22  1  0  0  0
 32 38  1  0  0  0
 10 11  1  0  0  0
 10 12  2  0  0  0
 33 34  2  0  0  0
 33 35  1  0  0  0
  7  8  1  0  0  0
  7  9  1  0  0  0
 24 25  1  0  0  0
 21 22  1  0  0  0
 37 38  1  0  0  0
 14 11  1  0  0  0
 26 25  1  0  0  0
 23 25  1  0  0  0
 11 13  1  0  0  0
 35 36  1  0  0  0
M  END
> <minimizedAffinity>
-7.66397

$$$$
