6B59_CQS_A_302


 31 33  0  0  0  0  0  0  0  0999 V2000
   -1.7761    5.0341   11.9956 C   0  0  0  0  0  0  0  0  0  0  0  0
   -2.9833    5.4368   12.4983 N   0  0  0  0  0  0  0  0  0  0  0  0
   -0.7424    5.2159   12.4421 O   0  0  0  0  0  0  0  0  0  0  0  0
   -3.8142    5.2992   11.9886 H   0  0  0  0  0  0  0  0  0  0  0  0
   -2.0254    4.3762   10.6808 C   0  0  0  0  0  0  0  0  0  0  0  0
   -0.9186    2.3061   11.1782 C   0  0  0  0  0  0  0  0  0  0  0  0
   -2.6992    1.1216   11.3474 C   0  0  0  0  0  0  0  0  0  0  0  0
   -3.0271    2.3805   11.0594 C   0  0  0  0  0  0  0  0  0  0  0  0
   -3.7577    0.2362   11.4741 C   0  0  0  0  0  0  0  0  0  0  0  0
   -5.2076    1.8784   11.0301 C   0  0  0  0  0  0  0  0  0  0  0  0
   -1.9372    3.0408   10.9863 N   0  0  0  0  0  0  0  0  0  0  0  0
   -1.3451    1.0972   11.3867 N   0  0  0  0  0  0  0  0  0  0  0  0
   -4.9641    0.6366   11.3038 N   0  0  0  0  0  0  0  0  0  0  0  0
   -4.2991    2.7415   10.8910 N   0  0  0  0  0  0  0  0  0  0  0  0
   -3.5906   -1.1475   11.7900 N   0  0  0  0  0  0  0  0  0  0  0  0
   -4.3780   -1.7332   11.8682 H   0  0  0  0  0  0  0  0  0  0  0  0
   -2.6880   -1.5151   11.9295 H   0  0  0  0  0  0  0  0  0  0  0  0
   -3.0057    6.0546   13.7668 C   0  0  0  0  0  0  0  0  0  0  0  0
   -4.4358    6.0282   14.2082 C   0  0  0  0  0  0  0  0  0  0  0  0
   -4.1003    2.7492   15.9164 C   0  0  0  0  0  0  0  0  0  0  0  0
   -3.8043    3.8870   15.2279 C   0  0  0  0  0  0  0  0  0  0  0  0
   -4.7936    4.7504   14.9424 C   0  0  0  0  0  0  0  0  0  0  0  0
   -6.0717    4.5314   15.3260 C   0  0  0  0  0  0  0  0  0  0  0  0
   -6.3497    3.4005   16.0051 C   0  0  0  0  0  0  0  0  0  0  0  0
   -5.3739    2.5178   16.2837 C   0  0  0  0  0  0  0  0  0  0  0  0
   -7.4761    0.8906   17.1261 N   0  0  0  0  0  0  0  0  0  0  0  0
   -5.3421    0.0004   16.4888 O   0  0  0  0  0  0  0  0  0  0  0  0
   -5.3073    1.1074   18.3878 O   0  0  0  0  0  0  0  0  0  0  0  0
   -5.8364    1.0129   17.2180 S   0  0  0  0  0  0  0  0  0  0  0  0
   -7.9039    1.6420   17.6671 H   0  0  0  0  0  0  0  0  0  0  0  0
   -7.7715   -0.0102   17.5026 H   0  0  0  0  0  0  0  0  0  0  0  0
 15  9  1  0  0  0
  9 13  2  0  0  0
  9  7  1  0  0  0
 13 10  1  0  0  0
 12  7  1  0  0  0
 12  6  2  0  0  0
  7  8  2  0  0  0
 10 14  2  0  0  0
  6 11  1  0  0  0
  8 14  1  0  0  0
  8 11  1  0  0  0
 11  5  1  0  0  0
  5  1  1  0  0  0
  3  1  2  0  0  0
  1  2  1  0  0  0
  2 18  1  0  0  0
 19 18  1  0  0  0
 19 22  1  0  0  0
 22 23  2  0  0  0
 22 21  1  0  0  0
 23 24  1  0  0  0
 21 20  2  0  0  0
 24 25  2  0  0  0
 20 25  1  0  0  0
 25 29  1  0  0  0
 26 29  1  0  0  0
 28 29  2  0  0  0
 29 27  2  0  0  0
  2  4  1  0  0  0
 15 16  1  0  0  0
 15 17  1  0  0  0
 26 30  1  0  0  0
 26 31  1  0  0  0
M  END
> <minimizedAffinity>
-9.02478

$$$$
6B59_CQS_A_302


 31 33  0  0  0  0  0  0  0  0999 V2000
   -1.6263    4.8192   12.7345 C   0  0  0  0  0  0  0  0  0  0  0  0
   -2.4632    5.8903   12.8907 N   0  0  0  0  0  0  0  0  0  0  0  0
   -1.0828    4.2376   13.5515 O   0  0  0  0  0  0  0  0  0  0  0  0
   -2.8164    6.3738   12.1092 H   0  0  0  0  0  0  0  0  0  0  0  0
   -1.4587    4.5799   11.2722 C   0  0  0  0  0  0  0  0  0  0  0  0
   -3.7333    4.3696   10.5377 C   0  0  0  0  0  0  0  0  0  0  0  0
   -3.8387    2.2335   10.7062 C   0  0  0  0  0  0  0  0  0  0  0  0
   -2.6267    2.6500   11.0706 C   0  0  0  0  0  0  0  0  0  0  0  0
   -4.0541    0.8664   10.7782 C   0  0  0  0  0  0  0  0  0  0  0  0
   -1.9687    0.5593   11.5219 C   0  0  0  0  0  0  0  0  0  0  0  0
   -2.6143    3.9193   10.9368 N   0  0  0  0  0  0  0  0  0  0  0  0
   -4.5335    3.3558   10.4006 N   0  0  0  0  0  0  0  0  0  0  0  0
   -3.1254    0.0828   11.1883 N   0  0  0  0  0  0  0  0  0  0  0  0
   -1.6988    1.7905   11.4914 N   0  0  0  0  0  0  0  0  0  0  0  0
   -5.2895    0.2459   10.4163 N   0  0  0  0  0  0  0  0  0  0  0  0
   -5.3889   -0.7311   10.4866 H   0  0  0  0  0  0  0  0  0  0  0  0
   -6.0413    0.7953   10.0965 H   0  0  0  0  0  0  0  0  0  0  0  0
   -2.8067    6.2837   14.2016 C   0  0  0  0  0  0  0  0  0  0  0  0
   -4.2974    6.1756   14.2825 C   0  0  0  0  0  0  0  0  0  0  0  0
   -6.4866    3.6981   15.9715 C   0  0  0  0  0  0  0  0  0  0  0  0
   -6.0549    4.8197   15.3296 C   0  0  0  0  0  0  0  0  0  0  0  0
   -4.7502    4.9362   15.0302 C   0  0  0  0  0  0  0  0  0  0  0  0
   -3.8536    3.9710   15.3356 C   0  0  0  0  0  0  0  0  0  0  0  0
   -4.2951    2.8677   15.9721 C   0  0  0  0  0  0  0  0  0  0  0  0
   -5.5951    2.7435   16.2944 C   0  0  0  0  0  0  0  0  0  0  0  0
   -5.2385   -0.0161   16.4791 N   0  0  0  0  0  0  0  0  0  0  0  0
   -5.6555    1.3540   18.4030 O   0  0  0  0  0  0  0  0  0  0  0  0
   -7.3948    1.1400   17.0757 O   0  0  0  0  0  0  0  0  0  0  0  0
   -6.1115    1.2091   17.1491 S   0  0  0  0  0  0  0  0  0  0  0  0
   -5.5475   -0.1683   15.5191 H   0  0  0  0  0  0  0  0  0  0  0  0
   -5.3786   -0.8691   17.0207 H   0  0  0  0  0  0  0  0  0  0  0  0
 15  9  1  0  0  0
  9 13  2  0  0  0
  9  7  1  0  0  0
 13 10  1  0  0  0
 12  7  1  0  0  0
 12  6  2  0  0  0
  7  8  2  0  0  0
 10 14  2  0  0  0
  6 11  1  0  0  0
  8 14  1  0  0  0
  8 11  1  0  0  0
 11  5  1  0  0  0
  5  1  1  0  0  0
  3  1  2  0  0  0
  1  2  1  0  0  0
  2 18  1  0  0  0
 19 18  1  0  0  0
 19 22  1  0  0  0
 22 23  2  0  0  0
 22 21  1  0  0  0
 23 24  1  0  0  0
 21 20  2  0  0  0
 24 25  2  0  0  0
 20 25  1  0  0  0
 25 29  1  0  0  0
 26 29  1  0  0  0
 28 29  2  0  0  0
 29 27  2  0  0  0
  2  4  1  0  0  0
 15 16  1  0  0  0
 15 17  1  0  0  0
 26 30  1  0  0  0
 26 31  1  0  0  0
M  END
> <minimizedAffinity>
-8.53015

$$$$
6B59_CQS_A_302


 31 33  0  0  0  0  0  0  0  0999 V2000
   -4.0827    5.5756   11.1943 C   0  0  0  0  0  0  0  0  0  0  0  0
   -3.2669    6.5209   11.7538 N   0  0  0  0  0  0  0  0  0  0  0  0
   -5.1587    5.3292   11.4814 O   0  0  0  0  0  0  0  0  0  0  0  0
   -2.3226    6.5960   11.4856 H   0  0  0  0  0  0  0  0  0  0  0  0
   -3.2876    4.8310   10.1759 C   0  0  0  0  0  0  0  0  0  0  0  0
   -1.6888    3.5927   11.4674 C   0  0  0  0  0  0  0  0  0  0  0  0
   -2.8819    1.8231   11.6853 C   0  0  0  0  0  0  0  0  0  0  0  0
   -3.5522    2.7275   10.9725 C   0  0  0  0  0  0  0  0  0  0  0  0
   -3.5321    0.6174   11.8950 C   0  0  0  0  0  0  0  0  0  0  0  0
   -5.2936    1.3438   10.7264 C   0  0  0  0  0  0  0  0  0  0  0  0
   -2.8068    3.7602   10.8875 N   0  0  0  0  0  0  0  0  0  0  0  0
   -1.6834    2.3914   11.9613 N   0  0  0  0  0  0  0  0  0  0  0  0
   -4.7004    0.4152   11.4061 N   0  0  0  0  0  0  0  0  0  0  0  0
   -4.7647    2.4629   10.4862 N   0  0  0  0  0  0  0  0  0  0  0  0
   -2.9666   -0.4598   12.6448 N   0  0  0  0  0  0  0  0  0  0  0  0
   -3.4725   -1.2960   12.7633 H   0  0  0  0  0  0  0  0  0  0  0  0
   -2.0711   -0.3657   13.0429 H   0  0  0  0  0  0  0  0  0  0  0  0
   -3.8148    7.3852   12.7253 C   0  0  0  0  0  0  0  0  0  0  0  0
   -3.0698    7.0998   13.9919 C   0  0  0  0  0  0  0  0  0  0  0  0
   -5.0300    4.2555   15.3520 C   0  0  0  0  0  0  0  0  0  0  0  0
   -4.6983    5.4821   14.8603 C   0  0  0  0  0  0  0  0  0  0  0  0
   -3.4115    5.7414   14.5732 C   0  0  0  0  0  0  0  0  0  0  0  0
   -2.4367    4.8203   14.7463 C   0  0  0  0  0  0  0  0  0  0  0  0
   -2.7797    3.6117   15.2351 C   0  0  0  0  0  0  0  0  0  0  0  0
   -4.0608    3.3421   15.5438 C   0  0  0  0  0  0  0  0  0  0  0  0
   -4.8332    0.7431   14.8918 N   0  0  0  0  0  0  0  0  0  0  0  0
   -3.2637    1.2125   16.6437 O   0  0  0  0  0  0  0  0  0  0  0  0
   -5.3249    1.8115   17.1186 O   0  0  0  0  0  0  0  0  0  0  0  0
   -4.4410    1.6732   16.1930 S   0  0  0  0  0  0  0  0  0  0  0  0
   -5.7260    1.0536   14.5086 H   0  0  0  0  0  0  0  0  0  0  0  0
   -4.9080   -0.2321   15.1811 H   0  0  0  0  0  0  0  0  0  0  0  0
 15  9  1  0  0  0
  9 13  2  0  0  0
  9  7  1  0  0  0
 13 10  1  0  0  0
 12  7  1  0  0  0
 12  6  2  0  0  0
  7  8  2  0  0  0
 10 14  2  0  0  0
  6 11  1  0  0  0
  8 14  1  0  0  0
  8 11  1  0  0  0
 11  5  1  0  0  0
  5  1  1  0  0  0
  3  1  2  0  0  0
  1  2  1  0  0  0
  2 18  1  0  0  0
 19 18  1  0  0  0
 19 22  1  0  0  0
 22 23  2  0  0  0
 22 21  1  0  0  0
 23 24  1  0  0  0
 21 20  2  0  0  0
 24 25  2  0  0  0
 20 25  1  0  0  0
 25 29  1  0  0  0
 26 29  1  0  0  0
 28 29  2  0  0  0
 29 27  2  0  0  0
  2  4  1  0  0  0
 15 16  1  0  0  0
 15 17  1  0  0  0
 26 30  1  0  0  0
 26 31  1  0  0  0
M  END
> <minimizedAffinity>
-7.38213

$$$$
6B59_CQS_A_302


 31 33  0  0  0  0  0  0  0  0999 V2000
   -3.3179    3.5828   13.2428 C   0  0  0  0  0  0  0  0  0  0  0  0
   -3.5516    4.7393   13.9356 N   0  0  0  0  0  0  0  0  0  0  0  0
   -2.3218    3.2085   12.8320 O   0  0  0  0  0  0  0  0  0  0  0  0
   -4.4679    5.0094   14.1736 H   0  0  0  0  0  0  0  0  0  0  0  0
   -4.6299    2.9091   13.0229 C   0  0  0  0  0  0  0  0  0  0  0  0
   -4.1534    0.7949   14.0528 C   0  0  0  0  0  0  0  0  0  0  0  0
   -5.2145    1.1775   15.8777 C   0  0  0  0  0  0  0  0  0  0  0  0
   -5.3151    2.2351   15.0736 C   0  0  0  0  0  0  0  0  0  0  0  0
   -5.8676    1.2810   17.0956 C   0  0  0  0  0  0  0  0  0  0  0  0
   -6.5796    3.3308   16.5595 C   0  0  0  0  0  0  0  0  0  0  0  0
   -4.6563    1.9611   14.0152 N   0  0  0  0  0  0  0  0  0  0  0  0
   -4.4932    0.2616   15.1873 N   0  0  0  0  0  0  0  0  0  0  0  0
   -6.5298    2.3390   17.3902 N   0  0  0  0  0  0  0  0  0  0  0  0
   -6.0191    3.3092   15.4303 N   0  0  0  0  0  0  0  0  0  0  0  0
   -5.8565    0.2478   18.0830 N   0  0  0  0  0  0  0  0  0  0  0  0
   -6.3379    0.3736   18.9325 H   0  0  0  0  0  0  0  0  0  0  0  0
   -5.3674   -0.5896   17.9136 H   0  0  0  0  0  0  0  0  0  0  0  0
   -2.4444    5.5348   14.2999 C   0  0  0  0  0  0  0  0  0  0  0  0
   -2.9913    6.9058   14.5483 C   0  0  0  0  0  0  0  0  0  0  0  0
   -0.0528    9.0365   13.7684 C   0  0  0  0  0  0  0  0  0  0  0  0
   -1.0201    8.0812   13.6786 C   0  0  0  0  0  0  0  0  0  0  0  0
   -1.9003    7.9502   14.6855 C   0  0  0  0  0  0  0  0  0  0  0  0
   -1.8635    8.7436   15.7800 C   0  0  0  0  0  0  0  0  0  0  0  0
   -0.8999    9.6833   15.8555 C   0  0  0  0  0  0  0  0  0  0  0  0
   -0.0007    9.8157   14.8641 C   0  0  0  0  0  0  0  0  0  0  0  0
    1.0992   11.7351   16.5620 N   0  0  0  0  0  0  0  0  0  0  0  0
    2.4357   10.4611   15.0313 O   0  0  0  0  0  0  0  0  0  0  0  0
    1.1295   11.9331   14.0516 O   0  0  0  0  0  0  0  0  0  0  0  0
    1.2683   11.1231   15.0425 S   0  0  0  0  0  0  0  0  0  0  0  0
    0.2216   12.2512   16.6249 H   0  0  0  0  0  0  0  0  0  0  0  0
    1.8777   12.3621   16.7646 H   0  0  0  0  0  0  0  0  0  0  0  0
 15  9  1  0  0  0
  9 13  2  0  0  0
  9  7  1  0  0  0
 13 10  1  0  0  0
 12  7  1  0  0  0
 12  6  2  0  0  0
  7  8  2  0  0  0
 10 14  2  0  0  0
  6 11  1  0  0  0
  8 14  1  0  0  0
  8 11  1  0  0  0
 11  5  1  0  0  0
  5  1  1  0  0  0
  3  1  2  0  0  0
  1  2  1  0  0  0
  2 18  1  0  0  0
 19 18  1  0  0  0
 19 22  1  0  0  0
 22 23  2  0  0  0
 22 21  1  0  0  0
 23 24  1  0  0  0
 21 20  2  0  0  0
 24 25  2  0  0  0
 20 25  1  0  0  0
 25 29  1  0  0  0
 26 29  1  0  0  0
 28 29  2  0  0  0
 29 27  2  0  0  0
  2  4  1  0  0  0
 15 16  1  0  0  0
 15 17  1  0  0  0
 26 30  1  0  0  0
 26 31  1  0  0  0
M  END
> <minimizedAffinity>
-7.28055

$$$$
6B59_CQS_A_302


 31 33  0  0  0  0  0  0  0  0999 V2000
   -2.0961    6.7710   10.3377 C   0  0  0  0  0  0  0  0  0  0  0  0
   -1.3537    6.6640   11.4820 N   0  0  0  0  0  0  0  0  0  0  0  0
   -2.7340    7.6557   10.0040 O   0  0  0  0  0  0  0  0  0  0  0  0
   -0.9037    5.8200   11.7154 H   0  0  0  0  0  0  0  0  0  0  0  0
   -2.0098    5.4701    9.6139 C   0  0  0  0  0  0  0  0  0  0  0  0
   -4.2209    4.9632   10.3960 C   0  0  0  0  0  0  0  0  0  0  0  0
   -3.7317    3.0675   11.2731 C   0  0  0  0  0  0  0  0  0  0  0  0
   -2.6372    3.6065   10.7375 C   0  0  0  0  0  0  0  0  0  0  0  0
   -3.5594    1.8386   11.8900 C   0  0  0  0  0  0  0  0  0  0  0  0
   -1.3816    1.8721   11.3880 C   0  0  0  0  0  0  0  0  0  0  0  0
   -2.9867    4.7191   10.2187 N   0  0  0  0  0  0  0  0  0  0  0  0
   -4.7210    3.9700   11.0670 N   0  0  0  0  0  0  0  0  0  0  0  0
   -2.4007    1.2908   11.9354 N   0  0  0  0  0  0  0  0  0  0  0  0
   -1.4563    2.9933   10.8160 N   0  0  0  0  0  0  0  0  0  0  0  0
   -4.6252    1.1130   12.5064 N   0  0  0  0  0  0  0  0  0  0  0  0
   -4.4472    0.2428   12.9311 H   0  0  0  0  0  0  0  0  0  0  0  0
   -5.5374    1.4833   12.5063 H   0  0  0  0  0  0  0  0  0  0  0  0
   -1.2500    7.7954   12.3189 C   0  0  0  0  0  0  0  0  0  0  0  0
   -1.1789    7.2639   13.7165 C   0  0  0  0  0  0  0  0  0  0  0  0
   -2.9757    4.1891   14.7653 C   0  0  0  0  0  0  0  0  0  0  0  0
   -1.9788    5.0622   14.4486 C   0  0  0  0  0  0  0  0  0  0  0  0
   -2.3042    6.2961   14.0278 C   0  0  0  0  0  0  0  0  0  0  0  0
   -3.5894    6.7028   13.9189 C   0  0  0  0  0  0  0  0  0  0  0  0
   -4.5650    5.8275   14.2342 C   0  0  0  0  0  0  0  0  0  0  0  0
   -4.2562    4.5830   14.6404 C   0  0  0  0  0  0  0  0  0  0  0  0
   -6.5662    4.2529   16.1673 N   0  0  0  0  0  0  0  0  0  0  0  0
   -6.3731    3.3996   13.9342 O   0  0  0  0  0  0  0  0  0  0  0  0
   -5.1324    2.3300   15.4002 O   0  0  0  0  0  0  0  0  0  0  0  0
   -5.6418    3.4616   15.0578 S   0  0  0  0  0  0  0  0  0  0  0  0
   -6.0535    4.3276   17.0459 H   0  0  0  0  0  0  0  0  0  0  0  0
   -7.4310    3.7344   16.3214 H   0  0  0  0  0  0  0  0  0  0  0  0
 15  9  1  0  0  0
  9 13  2  0  0  0
  9  7  1  0  0  0
 13 10  1  0  0  0
 12  7  1  0  0  0
 12  6  2  0  0  0
  7  8  2  0  0  0
 10 14  2  0  0  0
  6 11  1  0  0  0
  8 14  1  0  0  0
  8 11  1  0  0  0
 11  5  1  0  0  0
  5  1  1  0  0  0
  3  1  2  0  0  0
  1  2  1  0  0  0
  2 18  1  0  0  0
 19 18  1  0  0  0
 19 22  1  0  0  0
 22 23  2  0  0  0
 22 21  1  0  0  0
 23 24  1  0  0  0
 21 20  2  0  0  0
 24 25  2  0  0  0
 20 25  1  0  0  0
 25 29  1  0  0  0
 26 29  1  0  0  0
 28 29  2  0  0  0
 29 27  2  0  0  0
  2  4  1  0  0  0
 15 16  1  0  0  0
 15 17  1  0  0  0
 26 30  1  0  0  0
 26 31  1  0  0  0
M  END
> <minimizedAffinity>
-7.22895

$$$$
6B59_CQS_A_302


 31 33  0  0  0  0  0  0  0  0999 V2000
   -3.4999    4.8832   10.2033 C   0  0  0  0  0  0  0  0  0  0  0  0
   -3.5440    5.5644   11.3891 N   0  0  0  0  0  0  0  0  0  0  0  0
   -4.1250    3.9792    9.8980 O   0  0  0  0  0  0  0  0  0  0  0  0
   -2.8997    6.2829   11.5833 H   0  0  0  0  0  0  0  0  0  0  0  0
   -2.4058    5.4719    9.3787 C   0  0  0  0  0  0  0  0  0  0  0  0
   -0.8769    3.6811    9.8404 C   0  0  0  0  0  0  0  0  0  0  0  0
    0.4972    4.8404   11.0110 C   0  0  0  0  0  0  0  0  0  0  0  0
   -0.5053    5.6170   10.6020 C   0  0  0  0  0  0  0  0  0  0  0  0
    1.4595    5.4591   11.7932 C   0  0  0  0  0  0  0  0  0  0  0  0
    0.3502    7.3949   11.6579 C   0  0  0  0  0  0  0  0  0  0  0  0
   -1.2804    4.8844    9.9008 N   0  0  0  0  0  0  0  0  0  0  0  0
    0.2174    3.6029   10.5356 N   0  0  0  0  0  0  0  0  0  0  0  0
    1.3512    6.7006   12.0960 N   0  0  0  0  0  0  0  0  0  0  0  0
   -0.5689    6.9024   10.9489 N   0  0  0  0  0  0  0  0  0  0  0  0
    2.6071    4.7813   12.3088 N   0  0  0  0  0  0  0  0  0  0  0  0
    3.2607    5.2694   12.8600 H   0  0  0  0  0  0  0  0  0  0  0  0
    2.7442    3.8263   12.1127 H   0  0  0  0  0  0  0  0  0  0  0  0
   -4.5375    5.2097   12.3263 C   0  0  0  0  0  0  0  0  0  0  0  0
   -3.8742    5.2714   13.6669 C   0  0  0  0  0  0  0  0  0  0  0  0
   -6.3430    3.4503   15.7577 C   0  0  0  0  0  0  0  0  0  0  0  0
   -5.7862    4.3500   14.8993 C   0  0  0  0  0  0  0  0  0  0  0  0
   -4.4667    4.2842   14.6540 C   0  0  0  0  0  0  0  0  0  0  0  0
   -3.6757    3.3467   15.2233 C   0  0  0  0  0  0  0  0  0  0  0  0
   -4.2404    2.4643   16.0716 C   0  0  0  0  0  0  0  0  0  0  0  0
   -5.5566    2.5276   16.3412 C   0  0  0  0  0  0  0  0  0  0  0  0
   -6.1053    1.9248   19.0080 N   0  0  0  0  0  0  0  0  0  0  0  0
   -7.5565    1.2582   17.2186 O   0  0  0  0  0  0  0  0  0  0  0  0
   -5.6476    0.1687   17.2620 O   0  0  0  0  0  0  0  0  0  0  0  0
   -6.2438    1.2852   17.4969 S   0  0  0  0  0  0  0  0  0  0  0  0
   -5.1205    1.9679   19.2701 H   0  0  0  0  0  0  0  0  0  0  0  0
   -6.6087    1.3378   19.6732 H   0  0  0  0  0  0  0  0  0  0  0  0
 15  9  1  0  0  0
  9 13  2  0  0  0
  9  7  1  0  0  0
 13 10  1  0  0  0
 12  7  1  0  0  0
 12  6  2  0  0  0
  7  8  2  0  0  0
 10 14  2  0  0  0
  6 11  1  0  0  0
  8 14  1  0  0  0
  8 11  1  0  0  0
 11  5  1  0  0  0
  5  1  1  0  0  0
  3  1  2  0  0  0
  1  2  1  0  0  0
  2 18  1  0  0  0
 19 18  1  0  0  0
 19 22  1  0  0  0
 22 23  2  0  0  0
 22 21  1  0  0  0
 23 24  1  0  0  0
 21 20  2  0  0  0
 24 25  2  0  0  0
 20 25  1  0  0  0
 25 29  1  0  0  0
 26 29  1  0  0  0
 28 29  2  0  0  0
 29 27  2  0  0  0
  2  4  1  0  0  0
 15 16  1  0  0  0
 15 17  1  0  0  0
 26 30  1  0  0  0
 26 31  1  0  0  0
M  END
> <minimizedAffinity>
-7.13788

$$$$
6B59_CQS_A_302


 31 33  0  0  0  0  0  0  0  0999 V2000
   -4.0945    3.3565   11.1071 C   0  0  0  0  0  0  0  0  0  0  0  0
   -3.5939    4.6138   11.3083 N   0  0  0  0  0  0  0  0  0  0  0  0
   -5.1672    3.0697   10.8459 O   0  0  0  0  0  0  0  0  0  0  0  0
   -2.6671    4.7459   11.6129 H   0  0  0  0  0  0  0  0  0  0  0  0
   -3.0012    2.3802   11.3813 C   0  0  0  0  0  0  0  0  0  0  0  0
   -4.0276    0.3969   12.2591 C   0  0  0  0  0  0  0  0  0  0  0  0
   -4.2200    1.1038   14.2754 C   0  0  0  0  0  0  0  0  0  0  0  0
   -3.6538    2.0476   13.5243 C   0  0  0  0  0  0  0  0  0  0  0  0
   -4.4186    1.4309   15.6073 C   0  0  0  0  0  0  0  0  0  0  0  0
   -3.5282    3.4518   15.2622 C   0  0  0  0  0  0  0  0  0  0  0  0
   -3.5494    1.5709   12.3449 N   0  0  0  0  0  0  0  0  0  0  0  0
   -4.4757    0.0729   13.4343 N   0  0  0  0  0  0  0  0  0  0  0  0
   -4.0787    2.5852   16.0509 N   0  0  0  0  0  0  0  0  0  0  0  0
   -3.3222    3.2321   14.0378 N   0  0  0  0  0  0  0  0  0  0  0  0
   -5.0023    0.5365   16.5570 N   0  0  0  0  0  0  0  0  0  0  0  0
   -5.1206    0.8202   17.4923 H   0  0  0  0  0  0  0  0  0  0  0  0
   -5.2863   -0.3633   16.2758 H   0  0  0  0  0  0  0  0  0  0  0  0
   -4.4412    5.7163   11.0675 C   0  0  0  0  0  0  0  0  0  0  0  0
   -4.8154    6.2455   12.4168 C   0  0  0  0  0  0  0  0  0  0  0  0
   -2.3939    7.7540   14.7924 C   0  0  0  0  0  0  0  0  0  0  0  0
   -3.3686    6.9610   14.2656 C   0  0  0  0  0  0  0  0  0  0  0  0
   -3.7558    7.1635   12.9949 C   0  0  0  0  0  0  0  0  0  0  0  0
   -3.2013    8.1221   12.2187 C   0  0  0  0  0  0  0  0  0  0  0  0
   -2.2393    8.9000   12.7541 C   0  0  0  0  0  0  0  0  0  0  0  0
   -1.8527    8.7215   14.0299 C   0  0  0  0  0  0  0  0  0  0  0  0
   -1.0014   11.3586   14.3425 N   0  0  0  0  0  0  0  0  0  0  0  0
   -0.6064    9.6783   16.0077 O   0  0  0  0  0  0  0  0  0  0  0  0
    0.5822    9.4073   14.1783 O   0  0  0  0  0  0  0  0  0  0  0  0
   -0.5335    9.8149   14.6746 S   0  0  0  0  0  0  0  0  0  0  0  0
   -0.9638   11.5161   13.3355 H   0  0  0  0  0  0  0  0  0  0  0  0
   -0.3751   12.0123   14.8125 H   0  0  0  0  0  0  0  0  0  0  0  0
 15  9  1  0  0  0
  9 13  2  0  0  0
  9  7  1  0  0  0
 13 10  1  0  0  0
 12  7  1  0  0  0
 12  6  2  0  0  0
  7  8  2  0  0  0
 10 14  2  0  0  0
  6 11  1  0  0  0
  8 14  1  0  0  0
  8 11  1  0  0  0
 11  5  1  0  0  0
  5  1  1  0  0  0
  3  1  2  0  0  0
  1  2  1  0  0  0
  2 18  1  0  0  0
 19 18  1  0  0  0
 19 22  1  0  0  0
 22 23  2  0  0  0
 22 21  1  0  0  0
 23 24  1  0  0  0
 21 20  2  0  0  0
 24 25  2  0  0  0
 20 25  1  0  0  0
 25 29  1  0  0  0
 26 29  1  0  0  0
 28 29  2  0  0  0
 29 27  2  0  0  0
  2  4  1  0  0  0
 15 16  1  0  0  0
 15 17  1  0  0  0
 26 30  1  0  0  0
 26 31  1  0  0  0
M  END
> <minimizedAffinity>
-7.10226

$$$$
6B59_CQS_A_302


 31 33  0  0  0  0  0  0  0  0999 V2000
   -2.2193    7.6637   10.9167 C   0  0  0  0  0  0  0  0  0  0  0  0
   -1.0802    6.9321   11.1151 N   0  0  0  0  0  0  0  0  0  0  0  0
   -2.6646    7.9992    9.9217 O   0  0  0  0  0  0  0  0  0  0  0  0
   -0.7376    6.7666   12.0232 H   0  0  0  0  0  0  0  0  0  0  0  0
   -2.7569    8.0438   12.2547 C   0  0  0  0  0  0  0  0  0  0  0  0
   -4.8909    6.9499   12.1711 C   0  0  0  0  0  0  0  0  0  0  0  0
   -4.3322    5.2526   13.3584 C   0  0  0  0  0  0  0  0  0  0  0  0
   -3.2892    6.0723   13.2341 C   0  0  0  0  0  0  0  0  0  0  0  0
   -4.1170    4.1127   14.1164 C   0  0  0  0  0  0  0  0  0  0  0  0
   -2.0049    4.7402   14.4925 C   0  0  0  0  0  0  0  0  0  0  0  0
   -3.6705    7.0515   12.5095 N   0  0  0  0  0  0  0  0  0  0  0  0
   -5.3495    5.8537   12.6953 N   0  0  0  0  0  0  0  0  0  0  0  0
   -2.9756    3.9001   14.6611 N   0  0  0  0  0  0  0  0  0  0  0  0
   -2.1249    5.8026   13.8243 N   0  0  0  0  0  0  0  0  0  0  0  0
   -5.1201    3.1207   14.3450 N   0  0  0  0  0  0  0  0  0  0  0  0
   -4.9135    2.3288   14.8923 H   0  0  0  0  0  0  0  0  0  0  0  0
   -6.0176    3.2292   13.9553 H   0  0  0  0  0  0  0  0  0  0  0  0
   -0.4093    6.4210    9.9838 C   0  0  0  0  0  0  0  0  0  0  0  0
    0.0434    5.0460   10.3646 C   0  0  0  0  0  0  0  0  0  0  0  0
   -1.9419    2.1521   11.5756 C   0  0  0  0  0  0  0  0  0  0  0  0
   -0.9044    3.0033   11.3407 C   0  0  0  0  0  0  0  0  0  0  0  0
   -1.1155    4.0924   10.5825 C   0  0  0  0  0  0  0  0  0  0  0  0
   -2.3276    4.3765   10.0542 C   0  0  0  0  0  0  0  0  0  0  0  0
   -3.3442    3.5242   10.2939 C   0  0  0  0  0  0  0  0  0  0  0  0
   -3.1451    2.4205   11.0364 C   0  0  0  0  0  0  0  0  0  0  0  0
   -5.9218    2.2769   11.2504 N   0  0  0  0  0  0  0  0  0  0  0  0
   -4.6228    0.5355   10.2341 O   0  0  0  0  0  0  0  0  0  0  0  0
   -4.3632    0.6761   12.4126 O   0  0  0  0  0  0  0  0  0  0  0  0
   -4.5818    1.3221   11.3208 S   0  0  0  0  0  0  0  0  0  0  0  0
   -5.9393    2.8983   12.0590 H   0  0  0  0  0  0  0  0  0  0  0  0
   -6.7570    1.6913   11.2535 H   0  0  0  0  0  0  0  0  0  0  0  0
 15  9  1  0  0  0
  9 13  2  0  0  0
  9  7  1  0  0  0
 13 10  1  0  0  0
 12  7  1  0  0  0
 12  6  2  0  0  0
  7  8  2  0  0  0
 10 14  2  0  0  0
  6 11  1  0  0  0
  8 14  1  0  0  0
  8 11  1  0  0  0
 11  5  1  0  0  0
  5  1  1  0  0  0
  3  1  2  0  0  0
  1  2  1  0  0  0
  2 18  1  0  0  0
 19 18  1  0  0  0
 19 22  1  0  0  0
 22 23  2  0  0  0
 22 21  1  0  0  0
 23 24  1  0  0  0
 21 20  2  0  0  0
 24 25  2  0  0  0
 20 25  1  0  0  0
 25 29  1  0  0  0
 26 29  1  0  0  0
 28 29  2  0  0  0
 29 27  2  0  0  0
  2  4  1  0  0  0
 15 16  1  0  0  0
 15 17  1  0  0  0
 26 30  1  0  0  0
 26 31  1  0  0  0
M  END
> <minimizedAffinity>
-6.98239

$$$$
6B59_CQS_A_302


 31 33  0  0  0  0  0  0  0  0999 V2000
   -1.1977    3.3823   10.7247 C   0  0  0  0  0  0  0  0  0  0  0  0
   -1.6142    3.6251   12.0052 N   0  0  0  0  0  0  0  0  0  0  0  0
   -1.8369    3.0646    9.8350 O   0  0  0  0  0  0  0  0  0  0  0  0
   -0.9648    3.8141   12.7205 H   0  0  0  0  0  0  0  0  0  0  0  0
    0.2873    3.5147   10.6946 C   0  0  0  0  0  0  0  0  0  0  0  0
   -0.2243    5.8223   10.2814 C   0  0  0  0  0  0  0  0  0  0  0  0
    1.5035    6.6266   11.2664 C   0  0  0  0  0  0  0  0  0  0  0  0
    1.5266    5.2965   11.3414 C   0  0  0  0  0  0  0  0  0  0  0  0
    2.5732    7.2829   11.8542 C   0  0  0  0  0  0  0  0  0  0  0  0
    3.4685    5.3244   12.4530 C   0  0  0  0  0  0  0  0  0  0  0  0
    0.4738    4.8732   10.7568 N   0  0  0  0  0  0  0  0  0  0  0  0
    0.3902    6.9328   10.5575 N   0  0  0  0  0  0  0  0  0  0  0  0
    3.5158    6.6176   12.4141 N   0  0  0  0  0  0  0  0  0  0  0  0
    2.5338    4.6558   11.9343 N   0  0  0  0  0  0  0  0  0  0  0  0
    2.7052    8.7058   11.8768 N   0  0  0  0  0  0  0  0  0  0  0  0
    3.4866    9.1208   12.3086 H   0  0  0  0  0  0  0  0  0  0  0  0
    2.0147    9.2709   11.4607 H   0  0  0  0  0  0  0  0  0  0  0  0
   -2.9993    3.5976   12.2733 C   0  0  0  0  0  0  0  0  0  0  0  0
   -3.1964    4.4479   13.4894 C   0  0  0  0  0  0  0  0  0  0  0  0
   -6.0750    3.4177   15.5953 C   0  0  0  0  0  0  0  0  0  0  0  0
   -5.3170    4.0583   14.6618 C   0  0  0  0  0  0  0  0  0  0  0  0
   -4.0131    3.7501   14.5599 C   0  0  0  0  0  0  0  0  0  0  0  0
   -3.4315    2.8166   15.3467 C   0  0  0  0  0  0  0  0  0  0  0  0
   -4.1937    2.1923   16.2668 C   0  0  0  0  0  0  0  0  0  0  0  0
   -5.4965    2.5017   16.3933 C   0  0  0  0  0  0  0  0  0  0  0  0
   -5.6580    0.1896   17.9439 N   0  0  0  0  0  0  0  0  0  0  0  0
   -6.3265    2.3385   18.7734 O   0  0  0  0  0  0  0  0  0  0  0  0
   -7.6750    1.5234   17.2404 O   0  0  0  0  0  0  0  0  0  0  0  0
   -6.4608    1.5995   17.6611 S   0  0  0  0  0  0  0  0  0  0  0  0
   -5.7294   -0.4127   17.1238 H   0  0  0  0  0  0  0  0  0  0  0  0
   -6.0713   -0.2814   18.7487 H   0  0  0  0  0  0  0  0  0  0  0  0
 15  9  1  0  0  0
  9 13  2  0  0  0
  9  7  1  0  0  0
 13 10  1  0  0  0
 12  7  1  0  0  0
 12  6  2  0  0  0
  7  8  2  0  0  0
 10 14  2  0  0  0
  6 11  1  0  0  0
  8 14  1  0  0  0
  8 11  1  0  0  0
 11  5  1  0  0  0
  5  1  1  0  0  0
  3  1  2  0  0  0
  1  2  1  0  0  0
  2 18  1  0  0  0
 19 18  1  0  0  0
 19 22  1  0  0  0
 22 23  2  0  0  0
 22 21  1  0  0  0
 23 24  1  0  0  0
 21 20  2  0  0  0
 24 25  2  0  0  0
 20 25  1  0  0  0
 25 29  1  0  0  0
 26 29  1  0  0  0
 28 29  2  0  0  0
 29 27  2  0  0  0
  2  4  1  0  0  0
 15 16  1  0  0  0
 15 17  1  0  0  0
 26 30  1  0  0  0
 26 31  1  0  0  0
M  END
> <minimizedAffinity>
-6.79810

$$$$
6B59_CQS_A_302


 31 33  0  0  0  0  0  0  0  0999 V2000
   -2.2961    5.5108   13.3304 C   0  0  0  0  0  0  0  0  0  0  0  0
   -2.3565    6.3902   14.3769 N   0  0  0  0  0  0  0  0  0  0  0  0
   -2.3116    5.7550   12.2163 O   0  0  0  0  0  0  0  0  0  0  0  0
   -2.4205    6.0677   15.3048 H   0  0  0  0  0  0  0  0  0  0  0  0
   -2.2984    4.1300   13.8934 C   0  0  0  0  0  0  0  0  0  0  0  0
   -4.6132    3.7128   13.4190 C   0  0  0  0  0  0  0  0  0  0  0  0
   -4.2803    2.2141   11.9205 C   0  0  0  0  0  0  0  0  0  0  0  0
   -3.1092    2.6468   12.3860 C   0  0  0  0  0  0  0  0  0  0  0  0
   -4.2164    1.2281   10.9488 C   0  0  0  0  0  0  0  0  0  0  0  0
   -1.9836    1.2470   11.0514 C   0  0  0  0  0  0  0  0  0  0  0  0
   -3.3644    3.5432   13.2581 N   0  0  0  0  0  0  0  0  0  0  0  0
   -5.2232    2.8902   12.6202 N   0  0  0  0  0  0  0  0  0  0  0  0
   -3.0827    0.7745   10.5566 N   0  0  0  0  0  0  0  0  0  0  0  0
   -1.9595    2.1378   11.9434 N   0  0  0  0  0  0  0  0  0  0  0  0
   -5.3723    0.6571   10.3323 N   0  0  0  0  0  0  0  0  0  0  0  0
   -5.2698   -0.0416    9.6463 H   0  0  0  0  0  0  0  0  0  0  0  0
   -6.2711    0.9623   10.5936 H   0  0  0  0  0  0  0  0  0  0  0  0
   -2.3245    7.7716   14.0909 C   0  0  0  0  0  0  0  0  0  0  0  0
   -1.9420    8.4447   15.3720 C   0  0  0  0  0  0  0  0  0  0  0  0
   -1.8005   12.0047   14.3285 C   0  0  0  0  0  0  0  0  0  0  0  0
   -2.2260   10.7222   14.5026 C   0  0  0  0  0  0  0  0  0  0  0  0
   -1.4329    9.8569   15.1567 C   0  0  0  0  0  0  0  0  0  0  0  0
   -0.2307   10.2212   15.6574 C   0  0  0  0  0  0  0  0  0  0  0  0
    0.1778   11.4931   15.4760 C   0  0  0  0  0  0  0  0  0  0  0  0
   -0.5967   12.3668   14.8083 C   0  0  0  0  0  0  0  0  0  0  0  0
   -0.0236   14.7654   16.1102 N   0  0  0  0  0  0  0  0  0  0  0  0
    1.3293   13.9255   14.3167 O   0  0  0  0  0  0  0  0  0  0  0  0
   -0.6509   14.6325   13.6748 O   0  0  0  0  0  0  0  0  0  0  0  0
    0.0296   14.0762   14.6155 S   0  0  0  0  0  0  0  0  0  0  0  0
   -0.9957   14.9027   16.3869 H   0  0  0  0  0  0  0  0  0  0  0  0
    0.4536   15.6666   16.0863 H   0  0  0  0  0  0  0  0  0  0  0  0
 15  9  1  0  0  0
  9 13  2  0  0  0
  9  7  1  0  0  0
 13 10  1  0  0  0
 12  7  1  0  0  0
 12  6  2  0  0  0
  7  8  2  0  0  0
 10 14  2  0  0  0
  6 11  1  0  0  0
  8 14  1  0  0  0
  8 11  1  0  0  0
 11  5  1  0  0  0
  5  1  1  0  0  0
  3  1  2  0  0  0
  1  2  1  0  0  0
  2 18  1  0  0  0
 19 18  1  0  0  0
 19 22  1  0  0  0
 22 23  2  0  0  0
 22 21  1  0  0  0
 23 24  1  0  0  0
 21 20  2  0  0  0
 24 25  2  0  0  0
 20 25  1  0  0  0
 25 29  1  0  0  0
 26 29  1  0  0  0
 28 29  2  0  0  0
 29 27  2  0  0  0
  2  4  1  0  0  0
 15 16  1  0  0  0
 15 17  1  0  0  0
 26 30  1  0  0  0
 26 31  1  0  0  0
M  END
> <minimizedAffinity>
-6.76018

$$$$
