5VM0_9EG_A_202


 21 22  0  0  0  0  0  0  0  0999 V2000
   -2.1271   15.2180  -10.2605 C   0  0  0  0  0  0  0  0  0  0  0  0
   -1.5649   14.3606   -9.4165 N   0  0  0  0  0  0  0  0  0  0  0  0
   -2.8949   16.0704   -9.6321 N   0  0  0  0  0  0  0  0  0  0  0  0
   -1.9072   15.2064  -11.4729 O   0  0  0  0  0  0  0  0  0  0  0  0
   -1.8303   14.4474   -8.4725 H   0  0  0  0  0  0  0  0  0  0  0  0
   -2.9140   15.9751   -8.6524 H   0  0  0  0  0  0  0  0  0  0  0  0
    0.6725   13.6968   -9.5307 C   0  0  0  0  0  0  0  0  0  0  0  0
   -0.6794   13.3900   -9.6921 C   0  0  0  0  0  0  0  0  0  0  0  0
    3.3657   13.0687   -9.6080 Cl  0  0  0  0  0  0  0  0  0  0  0  0
    1.6140   12.7075   -9.7876 C   0  0  0  0  0  0  0  0  0  0  0  0
    1.2383   11.4217  -10.2084 C   0  0  0  0  0  0  0  0  0  0  0  0
   -0.1100   11.1003  -10.3556 C   0  0  0  0  0  0  0  0  0  0  0  0
   -1.0444   12.0938  -10.1029 C   0  0  0  0  0  0  0  0  0  0  0  0
    2.4986   10.1764  -10.5035 Cl  0  0  0  0  0  0  0  0  0  0  0  0
   -6.2962   20.3447  -11.8008 Cl  0  0  0  0  0  0  0  0  0  0  0  0
   -3.6746   17.0737  -10.1352 C   0  0  0  0  0  0  0  0  0  0  0  0
   -4.9831   16.7712  -10.5062 C   0  0  0  0  0  0  0  0  0  0  0  0
   -5.7871   17.7909  -11.0040 C   0  0  0  0  0  0  0  0  0  0  0  0
   -5.2486   19.0608  -11.1923 C   0  0  0  0  0  0  0  0  0  0  0  0
   -3.9507   19.3757  -10.8161 C   0  0  0  0  0  0  0  0  0  0  0  0
   -3.1579   18.3586  -10.3243 C   0  0  0  0  0  0  0  0  0  0  0  0
 18 17  2  0  0  0
 18 19  1  0  0  0
 15 19  1  0  0  0
 17 16  1  0  0  0
 19 20  2  0  0  0
  4  1  2  0  0  0
 16  3  1  0  0  0
 16 21  2  0  0  0
 12 13  2  0  0  0
 12 11  1  0  0  0
  1  3  1  0  0  0
  1  2  1  0  0  0
 13  8  1  0  0  0
 20 21  1  0  0  0
 14 11  1  0  0  0
 11 10  2  0  0  0
  8  2  1  0  0  0
  8  7  2  0  0  0
 10  7  1  0  0  0
 10  9  1  0  0  0
  2  5  1  0  0  0
  3  6  1  0  0  0
M  END
> <minimizedAffinity>
-1.81178

$$$$
5VM0_9EG_A_202


 21 22  0  0  0  0  0  0  0  0999 V2000
   -2.2249   14.9542  -10.5025 C   0  0  0  0  0  0  0  0  0  0  0  0
   -1.6307   14.0297   -9.7570 N   0  0  0  0  0  0  0  0  0  0  0  0
   -2.8810   15.8118   -9.7641 N   0  0  0  0  0  0  0  0  0  0  0  0
   -2.1245   14.9911  -11.7301 O   0  0  0  0  0  0  0  0  0  0  0  0
   -1.7982   14.0832   -8.7884 H   0  0  0  0  0  0  0  0  0  0  0  0
   -2.8100   15.6697   -8.7925 H   0  0  0  0  0  0  0  0  0  0  0  0
   -1.4274   11.7930  -10.4017 C   0  0  0  0  0  0  0  0  0  0  0  0
   -0.8299   13.0311  -10.1615 C   0  0  0  0  0  0  0  0  0  0  0  0
   -1.3585    9.1293  -11.1458 Cl  0  0  0  0  0  0  0  0  0  0  0  0
   -0.6294   10.7439  -10.8417 C   0  0  0  0  0  0  0  0  0  0  0  0
    0.7519   10.8996  -11.0407 C   0  0  0  0  0  0  0  0  0  0  0  0
    1.3549   12.1368  -10.8204 C   0  0  0  0  0  0  0  0  0  0  0  0
    0.5538   13.1784  -10.3761 C   0  0  0  0  0  0  0  0  0  0  0  0
    1.7292    9.5138  -11.6327 Cl  0  0  0  0  0  0  0  0  0  0  0  0
   -6.2393   20.3493  -11.3996 Cl  0  0  0  0  0  0  0  0  0  0  0  0
   -3.6503   16.8759  -10.1428 C   0  0  0  0  0  0  0  0  0  0  0  0
   -4.9779   16.6400  -10.4936 C   0  0  0  0  0  0  0  0  0  0  0  0
   -5.7711   17.7205  -10.8645 C   0  0  0  0  0  0  0  0  0  0  0  0
   -5.2060   18.9898  -10.9520 C   0  0  0  0  0  0  0  0  0  0  0  0
   -3.8885   19.2377  -10.5944 C   0  0  0  0  0  0  0  0  0  0  0  0
   -3.1067   18.1607  -10.2288 C   0  0  0  0  0  0  0  0  0  0  0  0
 18 17  2  0  0  0
 18 19  1  0  0  0
 15 19  1  0  0  0
 17 16  1  0  0  0
 19 20  2  0  0  0
  4  1  2  0  0  0
 16  3  1  0  0  0
 16 21  2  0  0  0
 12 13  2  0  0  0
 12 11  1  0  0  0
  1  3  1  0  0  0
  1  2  1  0  0  0
 13  8  1  0  0  0
 20 21  1  0  0  0
 14 11  1  0  0  0
 11 10  2  0  0  0
  8  2  1  0  0  0
  8  7  2  0  0  0
 10  7  1  0  0  0
 10  9  1  0  0  0
  2  5  1  0  0  0
  3  6  1  0  0  0
M  END
> <minimizedAffinity>
-1.68446

$$$$
5VM0_9EG_A_202


 21 22  0  0  0  0  0  0  0  0999 V2000
   -2.1013   15.0392  -11.0747 C   0  0  0  0  0  0  0  0  0  0  0  0
   -1.4261   14.0091  -10.5783 N   0  0  0  0  0  0  0  0  0  0  0  0
   -2.7519   15.6784  -10.1371 N   0  0  0  0  0  0  0  0  0  0  0  0
   -2.0717   15.3474  -12.2674 O   0  0  0  0  0  0  0  0  0  0  0  0
   -1.5411   13.8416   -9.6150 H   0  0  0  0  0  0  0  0  0  0  0  0
   -2.6203   15.3328   -9.2246 H   0  0  0  0  0  0  0  0  0  0  0  0
   -1.1653   11.9895  -11.7241 C   0  0  0  0  0  0  0  0  0  0  0  0
   -0.6061   13.1680  -11.2281 C   0  0  0  0  0  0  0  0  0  0  0  0
   -1.0267    9.5706  -13.0596 Cl  0  0  0  0  0  0  0  0  0  0  0  0
   -0.3478   11.1071  -12.4199 C   0  0  0  0  0  0  0  0  0  0  0  0
    1.0161   11.3701  -12.6260 C   0  0  0  0  0  0  0  0  0  0  0  0
    1.5800   12.5524  -12.1497 C   0  0  0  0  0  0  0  0  0  0  0  0
    0.7598   13.4263  -11.4514 C   0  0  0  0  0  0  0  0  0  0  0  0
    2.0188   10.2033  -13.5529 Cl  0  0  0  0  0  0  0  0  0  0  0  0
   -6.2969   20.3476  -10.5537 Cl  0  0  0  0  0  0  0  0  0  0  0  0
   -3.5874   16.7552  -10.2375 C   0  0  0  0  0  0  0  0  0  0  0  0
   -3.0724   18.0196   -9.9592 C   0  0  0  0  0  0  0  0  0  0  0  0
   -3.9128   19.1215  -10.0750 C   0  0  0  0  0  0  0  0  0  0  0  0
   -5.2562   18.9314  -10.3867 C   0  0  0  0  0  0  0  0  0  0  0  0
   -5.7769   17.6784  -10.6766 C   0  0  0  0  0  0  0  0  0  0  0  0
   -4.9376   16.5891  -10.5582 C   0  0  0  0  0  0  0  0  0  0  0  0
 18 17  2  0  0  0
 18 19  1  0  0  0
 15 19  1  0  0  0
 17 16  1  0  0  0
 19 20  2  0  0  0
  4  1  2  0  0  0
 16  3  1  0  0  0
 16 21  2  0  0  0
 12 13  2  0  0  0
 12 11  1  0  0  0
  1  3  1  0  0  0
  1  2  1  0  0  0
 13  8  1  0  0  0
 20 21  1  0  0  0
 14 11  1  0  0  0
 11 10  2  0  0  0
  8  2  1  0  0  0
  8  7  2  0  0  0
 10  7  1  0  0  0
 10  9  1  0  0  0
  2  5  1  0  0  0
  3  6  1  0  0  0
M  END
> <minimizedAffinity>
-1.55808

$$$$
5VM0_9EG_A_202


 21 22  0  0  0  0  0  0  0  0999 V2000
   -4.1724   13.9261  -11.6765 C   0  0  0  0  0  0  0  0  0  0  0  0
   -4.3175   12.6579  -11.3103 N   0  0  0  0  0  0  0  0  0  0  0  0
   -5.2083   14.6441  -11.3265 N   0  0  0  0  0  0  0  0  0  0  0  0
   -3.1632   14.3484  -12.2436 O   0  0  0  0  0  0  0  0  0  0  0  0
   -5.1745   12.4270  -10.8845 H   0  0  0  0  0  0  0  0  0  0  0  0
   -5.9052   14.1601  -10.8273 H   0  0  0  0  0  0  0  0  0  0  0  0
   -2.3932   11.5880  -10.5277 C   0  0  0  0  0  0  0  0  0  0  0  0
   -3.4394   11.6520  -11.4492 C   0  0  0  0  0  0  0  0  0  0  0  0
   -0.1077   10.4393   -9.4739 Cl  0  0  0  0  0  0  0  0  0  0  0  0
   -1.4789   10.5467  -10.6312 C   0  0  0  0  0  0  0  0  0  0  0  0
   -1.5803    9.5719  -11.6368 C   0  0  0  0  0  0  0  0  0  0  0  0
   -2.6315    9.6172  -12.5510 C   0  0  0  0  0  0  0  0  0  0  0  0
   -3.5375   10.6622  -12.4456 C   0  0  0  0  0  0  0  0  0  0  0  0
   -0.3821    8.2357  -11.7073 Cl  0  0  0  0  0  0  0  0  0  0  0  0
   -6.2969   20.3476  -12.2362 Cl  0  0  0  0  0  0  0  0  0  0  0  0
   -5.4655   15.9672  -11.5518 C   0  0  0  0  0  0  0  0  0  0  0  0
   -5.2795   16.8648  -10.5026 C   0  0  0  0  0  0  0  0  0  0  0  0
   -5.5240   18.2149  -10.7294 C   0  0  0  0  0  0  0  0  0  0  0  0
   -6.0193   18.6256  -11.9639 C   0  0  0  0  0  0  0  0  0  0  0  0
   -6.1976   17.7423  -13.0190 C   0  0  0  0  0  0  0  0  0  0  0  0
   -5.9545   16.4037  -12.7864 C   0  0  0  0  0  0  0  0  0  0  0  0
 18 17  2  0  0  0
 18 19  1  0  0  0
 15 19  1  0  0  0
 17 16  1  0  0  0
 19 20  2  0  0  0
  4  1  2  0  0  0
 16  3  1  0  0  0
 16 21  2  0  0  0
 12 13  2  0  0  0
 12 11  1  0  0  0
  1  3  1  0  0  0
  1  2  1  0  0  0
 13  8  1  0  0  0
 20 21  1  0  0  0
 14 11  1  0  0  0
 11 10  2  0  0  0
  8  2  1  0  0  0
  8  7  2  0  0  0
 10  7  1  0  0  0
 10  9  1  0  0  0
  2  5  1  0  0  0
  3  6  1  0  0  0
M  END
> <minimizedAffinity>
-1.54654

$$$$
5VM0_9EG_A_202


 21 22  0  0  0  0  0  0  0  0999 V2000
   -3.4626   13.6014  -13.8701 C   0  0  0  0  0  0  0  0  0  0  0  0
   -3.6953   13.6711  -12.5645 N   0  0  0  0  0  0  0  0  0  0  0  0
   -3.1246   12.3899  -14.2294 N   0  0  0  0  0  0  0  0  0  0  0  0
   -3.5898   14.5664  -14.6257 O   0  0  0  0  0  0  0  0  0  0  0  0
   -3.5400   12.8440  -12.0537 H   0  0  0  0  0  0  0  0  0  0  0  0
   -3.1271   11.7216  -13.5064 H   0  0  0  0  0  0  0  0  0  0  0  0
   -3.1369   15.5432  -11.2827 C   0  0  0  0  0  0  0  0  0  0  0  0
   -4.1162   14.7305  -11.8555 C   0  0  0  0  0  0  0  0  0  0  0  0
   -2.3084   17.7218   -9.7923 Cl  0  0  0  0  0  0  0  0  0  0  0  0
   -3.5390   16.6599  -10.5598 C   0  0  0  0  0  0  0  0  0  0  0  0
   -4.8954   16.9804  -10.3895 C   0  0  0  0  0  0  0  0  0  0  0  0
   -5.8804   16.1848  -10.9724 C   0  0  0  0  0  0  0  0  0  0  0  0
   -5.4726   15.0687  -11.6880 C   0  0  0  0  0  0  0  0  0  0  0  0
   -5.3549   18.4496   -9.4641 Cl  0  0  0  0  0  0  0  0  0  0  0  0
   -1.6535   10.3329  -19.5347 Cl  0  0  0  0  0  0  0  0  0  0  0  0
   -2.7686   11.9152  -15.4604 C   0  0  0  0  0  0  0  0  0  0  0  0
   -3.7575   11.3489  -16.2619 C   0  0  0  0  0  0  0  0  0  0  0  0
   -3.4054   10.8784  -17.5223 C   0  0  0  0  0  0  0  0  0  0  0  0
   -2.0717   10.9117  -17.9203 C   0  0  0  0  0  0  0  0  0  0  0  0
   -1.0809   11.4834  -17.1350 C   0  0  0  0  0  0  0  0  0  0  0  0
   -1.4372   11.9469  -15.8848 C   0  0  0  0  0  0  0  0  0  0  0  0
 18 17  2  0  0  0
 18 19  1  0  0  0
 15 19  1  0  0  0
 17 16  1  0  0  0
 19 20  2  0  0  0
  4  1  2  0  0  0
 16  3  1  0  0  0
 16 21  2  0  0  0
 12 13  2  0  0  0
 12 11  1  0  0  0
  1  3  1  0  0  0
  1  2  1  0  0  0
 13  8  1  0  0  0
 20 21  1  0  0  0
 14 11  1  0  0  0
 11 10  2  0  0  0
  8  2  1  0  0  0
  8  7  2  0  0  0
 10  7  1  0  0  0
 10  9  1  0  0  0
  2  5  1  0  0  0
  3  6  1  0  0  0
M  END
> <minimizedAffinity>
-1.36317

$$$$
5VM0_9EG_A_202


 21 22  0  0  0  0  0  0  0  0999 V2000
   -2.1093   14.2921  -11.8459 C   0  0  0  0  0  0  0  0  0  0  0  0
   -2.6250   14.7725  -10.7204 N   0  0  0  0  0  0  0  0  0  0  0  0
   -1.9985   12.9895  -11.8008 N   0  0  0  0  0  0  0  0  0  0  0  0
   -1.8136   15.0062  -12.8056 O   0  0  0  0  0  0  0  0  0  0  0  0
   -2.8020   14.1133  -10.0109 H   0  0  0  0  0  0  0  0  0  0  0  0
   -2.3364   12.5677  -10.9779 H   0  0  0  0  0  0  0  0  0  0  0  0
   -4.2534   16.4467  -10.6504 C   0  0  0  0  0  0  0  0  0  0  0  0
   -2.9346   16.0462  -10.4308 C   0  0  0  0  0  0  0  0  0  0  0  0
   -6.2961   18.3123  -10.6256 Cl  0  0  0  0  0  0  0  0  0  0  0  0
   -4.6116   17.7533  -10.3410 C   0  0  0  0  0  0  0  0  0  0  0  0
   -3.6830   18.6712   -9.8245 C   0  0  0  0  0  0  0  0  0  0  0  0
   -2.3680   18.2758   -9.5853 C   0  0  0  0  0  0  0  0  0  0  0  0
   -2.0155   16.9720   -9.9012 C   0  0  0  0  0  0  0  0  0  0  0  0
   -4.2092   20.3407   -9.4218 Cl  0  0  0  0  0  0  0  0  0  0  0  0
    0.1623    9.2785  -15.8134 Cl  0  0  0  0  0  0  0  0  0  0  0  0
   -1.4827   12.1279  -12.7277 C   0  0  0  0  0  0  0  0  0  0  0  0
   -2.3486   11.5714  -13.6668 C   0  0  0  0  0  0  0  0  0  0  0  0
   -1.8277   10.7063  -14.6230 C   0  0  0  0  0  0  0  0  0  0  0  0
   -0.4809   10.3576  -14.5732 C   0  0  0  0  0  0  0  0  0  0  0  0
    0.3924   10.9142  -13.6497 C   0  0  0  0  0  0  0  0  0  0  0  0
   -0.1316   11.7707  -12.7028 C   0  0  0  0  0  0  0  0  0  0  0  0
 18 17  2  0  0  0
 18 19  1  0  0  0
 15 19  1  0  0  0
 17 16  1  0  0  0
 19 20  2  0  0  0
  4  1  2  0  0  0
 16  3  1  0  0  0
 16 21  2  0  0  0
 12 13  2  0  0  0
 12 11  1  0  0  0
  1  3  1  0  0  0
  1  2  1  0  0  0
 13  8  1  0  0  0
 20 21  1  0  0  0
 14 11  1  0  0  0
 11 10  2  0  0  0
  8  2  1  0  0  0
  8  7  2  0  0  0
 10  7  1  0  0  0
 10  9  1  0  0  0
  2  5  1  0  0  0
  3  6  1  0  0  0
M  END
> <minimizedAffinity>
-1.34443

$$$$
5VM0_9EG_A_202


 21 22  0  0  0  0  0  0  0  0999 V2000
   -1.6595   14.0468  -11.2716 C   0  0  0  0  0  0  0  0  0  0  0  0
   -0.9232   13.3852  -12.1569 N   0  0  0  0  0  0  0  0  0  0  0  0
   -2.3493   14.9998  -11.8434 N   0  0  0  0  0  0  0  0  0  0  0  0
   -1.6918   13.7543  -10.0751 O   0  0  0  0  0  0  0  0  0  0  0  0
   -0.9565   13.7200  -13.0822 H   0  0  0  0  0  0  0  0  0  0  0  0
   -2.2507   15.0608  -12.8210 H   0  0  0  0  0  0  0  0  0  0  0  0
    1.2092   12.5580  -11.6794 C   0  0  0  0  0  0  0  0  0  0  0  0
   -0.1392   12.3162  -11.9457 C   0  0  0  0  0  0  0  0  0  0  0  0
    3.7899   11.7429  -11.1055 Cl  0  0  0  0  0  0  0  0  0  0  0  0
    2.0436   11.4738  -11.4356 C   0  0  0  0  0  0  0  0  0  0  0  0
    1.5652   10.1538  -11.4583 C   0  0  0  0  0  0  0  0  0  0  0  0
    0.2166    9.9031  -11.7061 C   0  0  0  0  0  0  0  0  0  0  0  0
   -0.6097   10.9892  -11.9540 C   0  0  0  0  0  0  0  0  0  0  0  0
    2.6858    8.7933  -11.1130 Cl  0  0  0  0  0  0  0  0  0  0  0  0
   -5.9010   19.0051   -9.4174 Cl  0  0  0  0  0  0  0  0  0  0  0  0
   -3.1869   15.9232  -11.2835 C   0  0  0  0  0  0  0  0  0  0  0  0
   -2.6228   17.0179  -10.6317 C   0  0  0  0  0  0  0  0  0  0  0  0
   -3.4692   17.9697  -10.0736 C   0  0  0  0  0  0  0  0  0  0  0  0
   -4.8465   17.7700  -10.1094 C   0  0  0  0  0  0  0  0  0  0  0  0
   -5.4191   16.6897  -10.7653 C   0  0  0  0  0  0  0  0  0  0  0  0
   -4.5732   15.7481  -11.3156 C   0  0  0  0  0  0  0  0  0  0  0  0
 18 17  2  0  0  0
 18 19  1  0  0  0
 15 19  1  0  0  0
 17 16  1  0  0  0
 19 20  2  0  0  0
  4  1  2  0  0  0
 16  3  1  0  0  0
 16 21  2  0  0  0
 12 13  2  0  0  0
 12 11  1  0  0  0
  1  3  1  0  0  0
  1  2  1  0  0  0
 13  8  1  0  0  0
 20 21  1  0  0  0
 14 11  1  0  0  0
 11 10  2  0  0  0
  8  2  1  0  0  0
  8  7  2  0  0  0
 10  7  1  0  0  0
 10  9  1  0  0  0
  2  5  1  0  0  0
  3  6  1  0  0  0
M  END
> <minimizedAffinity>
-1.32114

$$$$
5VM0_9EG_A_202


 21 22  0  0  0  0  0  0  0  0999 V2000
   -2.0095   14.9782  -12.5599 C   0  0  0  0  0  0  0  0  0  0  0  0
   -1.3253   13.8418  -12.6231 N   0  0  0  0  0  0  0  0  0  0  0  0
   -2.6845   15.0660  -11.4429 N   0  0  0  0  0  0  0  0  0  0  0  0
   -1.9670   15.8358  -13.4438 O   0  0  0  0  0  0  0  0  0  0  0  0
   -1.4521   13.2193  -11.8710 H   0  0  0  0  0  0  0  0  0  0  0  0
   -2.5611   14.3155  -10.8178 H   0  0  0  0  0  0  0  0  0  0  0  0
    0.8702   13.7379  -13.4160 C   0  0  0  0  0  0  0  0  0  0  0  0
   -0.4820   13.4373  -13.5861 C   0  0  0  0  0  0  0  0  0  0  0  0
    3.5199   13.6974  -14.2105 Cl  0  0  0  0  0  0  0  0  0  0  0  0
    1.7723   13.3149  -14.3848 C   0  0  0  0  0  0  0  0  0  0  0  0
    1.3555   12.6051  -15.5224 C   0  0  0  0  0  0  0  0  0  0  0  0
    0.0096   12.2849  -15.6926 C   0  0  0  0  0  0  0  0  0  0  0  0
   -0.8863   12.7148  -14.7248 C   0  0  0  0  0  0  0  0  0  0  0  0
    2.5699   12.0639  -16.7300 Cl  0  0  0  0  0  0  0  0  0  0  0  0
   -6.2961   19.3129   -9.5823 Cl  0  0  0  0  0  0  0  0  0  0  0  0
   -3.5357   16.0461  -11.0159 C   0  0  0  0  0  0  0  0  0  0  0  0
   -3.0026   17.1246  -10.3130 C   0  0  0  0  0  0  0  0  0  0  0  0
   -3.8608   18.1336   -9.8894 C   0  0  0  0  0  0  0  0  0  0  0  0
   -5.2301   18.0069  -10.1059 C   0  0  0  0  0  0  0  0  0  0  0  0
   -5.7704   16.9431  -10.8143 C   0  0  0  0  0  0  0  0  0  0  0  0
   -4.9131   15.9447  -11.2304 C   0  0  0  0  0  0  0  0  0  0  0  0
 18 17  2  0  0  0
 18 19  1  0  0  0
 15 19  1  0  0  0
 17 16  1  0  0  0
 19 20  2  0  0  0
  4  1  2  0  0  0
 16  3  1  0  0  0
 16 21  2  0  0  0
 12 13  2  0  0  0
 12 11  1  0  0  0
  1  3  1  0  0  0
  1  2  1  0  0  0
 13  8  1  0  0  0
 20 21  1  0  0  0
 14 11  1  0  0  0
 11 10  2  0  0  0
  8  2  1  0  0  0
  8  7  2  0  0  0
 10  7  1  0  0  0
 10  9  1  0  0  0
  2  5  1  0  0  0
  3  6  1  0  0  0
M  END
> <minimizedAffinity>
-1.26070

$$$$
5VM0_9EG_A_202


 21 22  0  0  0  0  0  0  0  0999 V2000
   -0.4315   15.9063  -11.8012 C   0  0  0  0  0  0  0  0  0  0  0  0
   -1.2214   15.8718  -10.7343 N   0  0  0  0  0  0  0  0  0  0  0  0
    0.4777   14.9671  -11.7508 N   0  0  0  0  0  0  0  0  0  0  0  0
   -0.5824   16.7125  -12.7207 O   0  0  0  0  0  0  0  0  0  0  0  0
   -0.9945   15.2007  -10.0507 H   0  0  0  0  0  0  0  0  0  0  0  0
    0.4213   14.3697  -10.9704 H   0  0  0  0  0  0  0  0  0  0  0  0
   -3.5394   16.1425  -10.8514 C   0  0  0  0  0  0  0  0  0  0  0  0
   -2.2913   16.6394  -10.4730 C   0  0  0  0  0  0  0  0  0  0  0  0
   -6.2929   16.3056  -11.0631 Cl  0  0  0  0  0  0  0  0  0  0  0  0
   -4.6691   16.9033  -10.5762 C   0  0  0  0  0  0  0  0  0  0  0  0
   -4.5819   18.1515   -9.9389 C   0  0  0  0  0  0  0  0  0  0  0  0
   -3.3417   18.6484   -9.5415 C   0  0  0  0  0  0  0  0  0  0  0  0
   -2.2175   17.8866   -9.8239 C   0  0  0  0  0  0  0  0  0  0  0  0
   -6.0788   19.0802   -9.5885 Cl  0  0  0  0  0  0  0  0  0  0  0  0
    4.8879   13.8268  -15.4646 Cl  0  0  0  0  0  0  0  0  0  0  0  0
    1.4943   14.6932  -12.6221 C   0  0  0  0  0  0  0  0  0  0  0  0
    2.7234   15.3178  -12.4212 C   0  0  0  0  0  0  0  0  0  0  0  0
    3.7671   15.0313  -13.2945 C   0  0  0  0  0  0  0  0  0  0  0  0
    3.5408   14.1961  -14.3851 C   0  0  0  0  0  0  0  0  0  0  0  0
    2.3244   13.5602  -14.5884 C   0  0  0  0  0  0  0  0  0  0  0  0
    1.2927   13.8503  -13.7188 C   0  0  0  0  0  0  0  0  0  0  0  0
 18 17  2  0  0  0
 18 19  1  0  0  0
 15 19  1  0  0  0
 17 16  1  0  0  0
 19 20  2  0  0  0
  4  1  2  0  0  0
 16  3  1  0  0  0
 16 21  2  0  0  0
 12 13  2  0  0  0
 12 11  1  0  0  0
  1  3  1  0  0  0
  1  2  1  0  0  0
 13  8  1  0  0  0
 20 21  1  0  0  0
 14 11  1  0  0  0
 11 10  2  0  0  0
  8  2  1  0  0  0
  8  7  2  0  0  0
 10  7  1  0  0  0
 10  9  1  0  0  0
  2  5  1  0  0  0
  3  6  1  0  0  0
M  END
> <minimizedAffinity>
-1.25839

$$$$
5VM0_9EG_A_202


 21 22  0  0  0  0  0  0  0  0999 V2000
   -0.6684   13.9602  -11.4372 C   0  0  0  0  0  0  0  0  0  0  0  0
   -1.2579   15.0222  -11.9739 N   0  0  0  0  0  0  0  0  0  0  0  0
    0.1731   13.4093  -12.2735 N   0  0  0  0  0  0  0  0  0  0  0  0
   -0.8842   13.5861  -10.2831 O   0  0  0  0  0  0  0  0  0  0  0  0
   -1.0276   15.2159  -12.9113 H   0  0  0  0  0  0  0  0  0  0  0  0
    0.2682   13.8704  -13.1381 H   0  0  0  0  0  0  0  0  0  0  0  0
   -3.4861   15.5674  -11.5294 C   0  0  0  0  0  0  0  0  0  0  0  0
   -2.1290   15.8643  -11.3958 C   0  0  0  0  0  0  0  0  0  0  0  0
   -6.1708   16.0688  -11.0884 Cl  0  0  0  0  0  0  0  0  0  0  0  0
   -4.4131   16.4078  -10.9250 C   0  0  0  0  0  0  0  0  0  0  0  0
   -4.0178   17.5412  -10.1964 C   0  0  0  0  0  0  0  0  0  0  0  0
   -2.6643   17.8364  -10.0425 C   0  0  0  0  0  0  0  0  0  0  0  0
   -1.7443   16.9967  -10.6529 C   0  0  0  0  0  0  0  0  0  0  0  0
   -5.2603   18.5784   -9.4175 Cl  0  0  0  0  0  0  0  0  0  0  0  0
    3.5180    8.6226  -11.6095 Cl  0  0  0  0  0  0  0  0  0  0  0  0
    0.9397   12.2879  -12.1238 C   0  0  0  0  0  0  0  0  0  0  0  0
    2.2555   12.4396  -11.6913 C   0  0  0  0  0  0  0  0  0  0  0  0
    3.0364   11.3015  -11.5214 C   0  0  0  0  0  0  0  0  0  0  0  0
    2.5166   10.0548  -11.8587 C   0  0  0  0  0  0  0  0  0  0  0  0
    1.2046    9.8911  -12.2795 C   0  0  0  0  0  0  0  0  0  0  0  0
    0.4358   11.0250  -12.4474 C   0  0  0  0  0  0  0  0  0  0  0  0
 18 17  2  0  0  0
 18 19  1  0  0  0
 15 19  1  0  0  0
 17 16  1  0  0  0
 19 20  2  0  0  0
  4  1  2  0  0  0
 16  3  1  0  0  0
 16 21  2  0  0  0
 12 13  2  0  0  0
 12 11  1  0  0  0
  1  3  1  0  0  0
  1  2  1  0  0  0
 13  8  1  0  0  0
 20 21  1  0  0  0
 14 11  1  0  0  0
 11 10  2  0  0  0
  8  2  1  0  0  0
  8  7  2  0  0  0
 10  7  1  0  0  0
 10  9  1  0  0  0
  2  5  1  0  0  0
  3  6  1  0  0  0
M  END
> <minimizedAffinity>
-1.25003

$$$$
