4DKP_0LL_A_513


 28 30  0  0  0  0  0  0  0  0999 V2000
   27.4546  -14.8301   36.7140 N   0  0  0  0  0  0  0  0  0  0  0  0
   27.7840  -15.4235   37.9186 C   0  0  0  0  0  0  0  0  0  0  0  0
   28.7113  -16.2394   38.0196 O   0  0  0  0  0  0  0  0  0  0  0  0
   26.6848  -14.2164   36.7146 H   0  0  0  0  0  0  0  0  0  0  0  0
   27.8146  -18.6203   33.9403 C   0  0  0  0  0  0  0  0  0  0  0  0
   28.2615  -17.5942   34.7841 C   0  0  0  0  0  0  0  0  0  0  0  0
   27.8072  -16.2929   34.6318 C   0  0  0  0  0  0  0  0  0  0  0  0
   26.8726  -16.0316   33.6052 C   0  0  0  0  0  0  0  0  0  0  0  0
   26.4208  -17.0462   32.7587 C   0  0  0  0  0  0  0  0  0  0  0  0
   26.8963  -18.3554   32.9274 C   0  0  0  0  0  0  0  0  0  0  0  0
   28.1484  -15.0303   35.4289 C   0  0  0  0  0  0  0  0  0  0  0  0
   27.6304  -13.8930   34.4593 C   0  0  0  0  0  0  0  0  0  0  0  0
   26.5158  -14.5789   33.6108 C   0  0  0  0  0  0  0  0  0  0  0  0
   28.7320  -13.3909   33.6305 N   0  0  0  0  0  0  0  0  0  0  0  0
   29.1417  -14.1634   33.1053 H   0  0  0  0  0  0  0  0  0  0  0  0
   29.4436  -12.9713   34.2287 H   0  0  0  0  0  0  0  0  0  0  0  0
   26.9674  -15.0845   39.2086 C   0  0  0  0  0  0  0  0  0  0  0  0
   27.4862  -15.0980   40.5236 N   0  0  0  0  0  0  0  0  0  0  0  0
   25.7804  -14.8061   39.0028 O   0  0  0  0  0  0  0  0  0  0  0  0
   28.4276  -15.3685   40.6231 H   0  0  0  0  0  0  0  0  0  0  0  0
   26.7782  -14.7555   41.7397 C   0  0  0  0  0  0  0  0  0  0  0  0
   25.4121  -14.0042   44.1168 C   0  0  0  0  0  0  0  0  0  0  0  0
   24.7156  -14.3294   42.9660 C   0  0  0  0  0  0  0  0  0  0  0  0
   25.3743  -14.6909   41.7839 C   0  0  0  0  0  0  0  0  0  0  0  0
   27.4730  -14.4030   42.9292 C   0  0  0  0  0  0  0  0  0  0  0  0
   26.7960  -14.0436   44.0890 C   0  0  0  0  0  0  0  0  0  0  0  0
   24.5523  -13.5582   45.5109 Cl  0  0  0  0  0  0  0  0  0  0  0  0
   23.3895  -14.2978   42.9859 F   0  0  0  0  0  0  0  0  0  0  0  0
 14 12  1  0  0  0
 12 13  1  0  0  0
 12 11  1  0  0  0
 13  8  1  0  0  0
  8  9  2  0  0  0
  8  7  1  0  0  0
  9 10  1  0  0  0
 11  7  1  0  0  0
 11  1  1  0  0  0
  3  2  2  0  0  0
  7  6  2  0  0  0
 10  5  2  0  0  0
  2  1  1  0  0  0
  2 17  1  0  0  0
  6  5  1  0  0  0
 17 18  1  0  0  0
 17 19  2  0  0  0
 18 21  1  0  0  0
 25 21  2  0  0  0
 25 26  1  0  0  0
 21 24  1  0  0  0
 26 22  2  0  0  0
 24 23  2  0  0  0
 22 23  1  0  0  0
 22 27  1  0  0  0
 23 28  1  0  0  0
 14 15  1  0  0  0
 14 16  1  0  0  0
  1  4  1  0  0  0
 18 20  1  0  0  0
M  END
> <minimizedAffinity>
-9.41114

$$$$
4DKP_0LL_A_513


 28 30  0  0  0  0  0  0  0  0999 V2000
   27.3325  -14.3082   36.9524 N   0  0  0  0  0  0  0  0  0  0  0  0
   27.1047  -15.2768   37.9124 C   0  0  0  0  0  0  0  0  0  0  0  0
   27.4038  -16.4660   37.7329 O   0  0  0  0  0  0  0  0  0  0  0  0
   27.0372  -13.3930   37.1631 H   0  0  0  0  0  0  0  0  0  0  0  0
   25.7203  -16.2598   32.9799 C   0  0  0  0  0  0  0  0  0  0  0  0
   26.5395  -16.1260   34.1094 C   0  0  0  0  0  0  0  0  0  0  0  0
   27.0733  -14.8966   34.4652 C   0  0  0  0  0  0  0  0  0  0  0  0
   26.7606  -13.7787   33.6601 C   0  0  0  0  0  0  0  0  0  0  0  0
   25.9458  -13.9006   32.5326 C   0  0  0  0  0  0  0  0  0  0  0  0
   25.4192  -15.1547   32.1879 C   0  0  0  0  0  0  0  0  0  0  0  0
   27.9762  -14.5179   35.6430 C   0  0  0  0  0  0  0  0  0  0  0  0
   28.5234  -13.1069   35.1829 C   0  0  0  0  0  0  0  0  0  0  0  0
   27.4318  -12.5609   34.2118 C   0  0  0  0  0  0  0  0  0  0  0  0
   29.8275  -13.2565   34.5276 N   0  0  0  0  0  0  0  0  0  0  0  0
   29.7389  -13.8927   33.7353 H   0  0  0  0  0  0  0  0  0  0  0  0
   30.5012  -13.6347   35.1936 H   0  0  0  0  0  0  0  0  0  0  0  0
   26.4358  -14.8905   39.2723 C   0  0  0  0  0  0  0  0  0  0  0  0
   27.0119  -15.0966   40.5468 N   0  0  0  0  0  0  0  0  0  0  0  0
   25.3129  -14.3847   39.1631 O   0  0  0  0  0  0  0  0  0  0  0  0
   27.8897  -15.5418   40.5668 H   0  0  0  0  0  0  0  0  0  0  0  0
   26.4461  -14.7214   41.8261 C   0  0  0  0  0  0  0  0  0  0  0  0
   25.3551  -13.9056   44.3212 C   0  0  0  0  0  0  0  0  0  0  0  0
   24.5351  -14.3016   43.2792 C   0  0  0  0  0  0  0  0  0  0  0  0
   25.0567  -14.6957   42.0404 C   0  0  0  0  0  0  0  0  0  0  0  0
   27.2682  -14.2965   42.9057 C   0  0  0  0  0  0  0  0  0  0  0  0
   26.7258  -13.9060   44.1246 C   0  0  0  0  0  0  0  0  0  0  0  0
   24.6570  -13.4236   45.7916 Cl  0  0  0  0  0  0  0  0  0  0  0  0
   23.2209  -14.3077   43.4611 F   0  0  0  0  0  0  0  0  0  0  0  0
 14 12  1  0  0  0
 12 13  1  0  0  0
 12 11  1  0  0  0
 13  8  1  0  0  0
  8  9  2  0  0  0
  8  7  1  0  0  0
  9 10  1  0  0  0
 11  7  1  0  0  0
 11  1  1  0  0  0
  3  2  2  0  0  0
  7  6  2  0  0  0
 10  5  2  0  0  0
  2  1  1  0  0  0
  2 17  1  0  0  0
  6  5  1  0  0  0
 17 18  1  0  0  0
 17 19  2  0  0  0
 18 21  1  0  0  0
 25 21  2  0  0  0
 25 26  1  0  0  0
 21 24  1  0  0  0
 26 22  2  0  0  0
 24 23  2  0  0  0
 22 23  1  0  0  0
 22 27  1  0  0  0
 23 28  1  0  0  0
 14 15  1  0  0  0
 14 16  1  0  0  0
  1  4  1  0  0  0
 18 20  1  0  0  0
M  END
> <minimizedAffinity>
-9.32266

$$$$
4DKP_0LL_A_513


 28 30  0  0  0  0  0  0  0  0999 V2000
   27.4958  -14.6321   36.9109 N   0  0  0  0  0  0  0  0  0  0  0  0
   27.6084  -15.4372   38.0293 C   0  0  0  0  0  0  0  0  0  0  0  0
   28.3055  -16.4618   38.0364 O   0  0  0  0  0  0  0  0  0  0  0  0
   26.8973  -13.8535   36.9800 H   0  0  0  0  0  0  0  0  0  0  0  0
   26.0397  -14.0077   32.4748 C   0  0  0  0  0  0  0  0  0  0  0  0
   26.4971  -14.7191   33.5926 C   0  0  0  0  0  0  0  0  0  0  0  0
   27.5364  -14.2356   34.3730 C   0  0  0  0  0  0  0  0  0  0  0  0
   28.1170  -12.9988   34.0138 C   0  0  0  0  0  0  0  0  0  0  0  0
   27.6694  -12.2819   32.9021 C   0  0  0  0  0  0  0  0  0  0  0  0
   26.6191  -12.7911   32.1234 C   0  0  0  0  0  0  0  0  0  0  0  0
   28.1882  -14.8306   35.6248 C   0  0  0  0  0  0  0  0  0  0  0  0
   29.5323  -14.0008   35.7080 C   0  0  0  0  0  0  0  0  0  0  0  0
   29.2120  -12.6616   34.9755 C   0  0  0  0  0  0  0  0  0  0  0  0
   30.6259  -14.7390   35.0665 N   0  0  0  0  0  0  0  0  0  0  0  0
   30.3777  -14.9407   34.0979 H   0  0  0  0  0  0  0  0  0  0  0  0
   30.7844  -15.6140   35.5661 H   0  0  0  0  0  0  0  0  0  0  0  0
   26.8301  -15.0757   39.3369 C   0  0  0  0  0  0  0  0  0  0  0  0
   27.3834  -15.0819   40.6378 N   0  0  0  0  0  0  0  0  0  0  0  0
   25.6413  -14.7859   39.1595 O   0  0  0  0  0  0  0  0  0  0  0  0
   28.3240  -15.3622   40.7152 H   0  0  0  0  0  0  0  0  0  0  0  0
   26.7117  -14.7190   41.8685 C   0  0  0  0  0  0  0  0  0  0  0  0
   25.4153  -13.9276   44.2714 C   0  0  0  0  0  0  0  0  0  0  0  0
   24.6855  -14.2947   43.1545 C   0  0  0  0  0  0  0  0  0  0  0  0
   25.3094  -14.6766   41.9599 C   0  0  0  0  0  0  0  0  0  0  0  0
   27.4408  -14.3236   43.0235 C   0  0  0  0  0  0  0  0  0  0  0  0
   26.7979  -13.9448   44.1965 C   0  0  0  0  0  0  0  0  0  0  0  0
   24.5963  -13.4591   45.6826 Cl  0  0  0  0  0  0  0  0  0  0  0  0
   23.3604  -14.2847   43.2197 F   0  0  0  0  0  0  0  0  0  0  0  0
 14 12  1  0  0  0
 12 13  1  0  0  0
 12 11  1  0  0  0
 13  8  1  0  0  0
  8  9  2  0  0  0
  8  7  1  0  0  0
  9 10  1  0  0  0
 11  7  1  0  0  0
 11  1  1  0  0  0
  3  2  2  0  0  0
  7  6  2  0  0  0
 10  5  2  0  0  0
  2  1  1  0  0  0
  2 17  1  0  0  0
  6  5  1  0  0  0
 17 18  1  0  0  0
 17 19  2  0  0  0
 18 21  1  0  0  0
 25 21  2  0  0  0
 25 26  1  0  0  0
 21 24  1  0  0  0
 26 22  2  0  0  0
 24 23  2  0  0  0
 22 23  1  0  0  0
 22 27  1  0  0  0
 23 28  1  0  0  0
 14 15  1  0  0  0
 14 16  1  0  0  0
  1  4  1  0  0  0
 18 20  1  0  0  0
M  END
> <minimizedAffinity>
-9.13626

$$$$
4DKP_0LL_A_513


 28 30  0  0  0  0  0  0  0  0999 V2000
   27.1237  -14.6643   36.4045 N   0  0  0  0  0  0  0  0  0  0  0  0
   27.1739  -15.4340   37.5520 C   0  0  0  0  0  0  0  0  0  0  0  0
   27.6788  -16.5657   37.5650 O   0  0  0  0  0  0  0  0  0  0  0  0
   26.6779  -13.7892   36.4733 H   0  0  0  0  0  0  0  0  0  0  0  0
   25.0239  -15.3574   32.2452 C   0  0  0  0  0  0  0  0  0  0  0  0
   25.7568  -15.6966   33.3909 C   0  0  0  0  0  0  0  0  0  0  0  0
   26.7613  -14.8690   33.8695 C   0  0  0  0  0  0  0  0  0  0  0  0
   27.0200  -13.6675   33.1730 C   0  0  0  0  0  0  0  0  0  0  0  0
   26.2962  -13.3198   32.0306 C   0  0  0  0  0  0  0  0  0  0  0  0
   25.2867  -14.1735   31.5607 C   0  0  0  0  0  0  0  0  0  0  0  0
   27.6752  -15.0315   35.0878 C   0  0  0  0  0  0  0  0  0  0  0  0
   28.8151  -13.9813   34.7720 C   0  0  0  0  0  0  0  0  0  0  0  0
   28.1320  -12.9278   33.8469 C   0  0  0  0  0  0  0  0  0  0  0  0
   29.9497  -14.6437   34.1190 N   0  0  0  0  0  0  0  0  0  0  0  0
   29.6297  -15.1060   33.2680 H   0  0  0  0  0  0  0  0  0  0  0  0
   30.3496  -15.3362   34.7523 H   0  0  0  0  0  0  0  0  0  0  0  0
   26.5682  -14.8904   38.8876 C   0  0  0  0  0  0  0  0  0  0  0  0
   26.9639  -15.2976   40.1823 N   0  0  0  0  0  0  0  0  0  0  0  0
   25.6688  -14.0555   38.7374 O   0  0  0  0  0  0  0  0  0  0  0  0
   27.6560  -15.9960   40.2322 H   0  0  0  0  0  0  0  0  0  0  0  0
   26.4580  -14.7950   41.4428 C   0  0  0  0  0  0  0  0  0  0  0  0
   25.4467  -13.8866   43.9395 C   0  0  0  0  0  0  0  0  0  0  0  0
   26.8055  -13.8865   43.6774 C   0  0  0  0  0  0  0  0  0  0  0  0
   27.3201  -14.3411   42.4566 C   0  0  0  0  0  0  0  0  0  0  0  0
   25.0674  -14.7999   41.7397 C   0  0  0  0  0  0  0  0  0  0  0  0
   24.5817  -14.3471   42.9610 C   0  0  0  0  0  0  0  0  0  0  0  0
   24.8905  -13.3378   45.4465 Cl  0  0  0  0  0  0  0  0  0  0  0  0
   27.6403  -13.4430   44.6083 F   0  0  0  0  0  0  0  0  0  0  0  0
 14 12  1  0  0  0
 12 13  1  0  0  0
 12 11  1  0  0  0
 13  8  1  0  0  0
  8  9  2  0  0  0
  8  7  1  0  0  0
  9 10  1  0  0  0
 11  7  1  0  0  0
 11  1  1  0  0  0
  3  2  2  0  0  0
  7  6  2  0  0  0
 10  5  2  0  0  0
  2  1  1  0  0  0
  2 17  1  0  0  0
  6  5  1  0  0  0
 17 18  1  0  0  0
 17 19  2  0  0  0
 18 21  1  0  0  0
 25 21  2  0  0  0
 25 26  1  0  0  0
 21 24  1  0  0  0
 26 22  2  0  0  0
 24 23  2  0  0  0
 22 23  1  0  0  0
 22 27  1  0  0  0
 23 28  1  0  0  0
 14 15  1  0  0  0
 14 16  1  0  0  0
  1  4  1  0  0  0
 18 20  1  0  0  0
M  END
> <minimizedAffinity>
-8.44244

$$$$
4DKP_0LL_A_513


 28 30  0  0  0  0  0  0  0  0999 V2000
   27.0867  -14.7425   36.7494 N   0  0  0  0  0  0  0  0  0  0  0  0
   27.5502  -15.2453   37.9511 C   0  0  0  0  0  0  0  0  0  0  0  0
   28.5664  -15.9509   38.0222 O   0  0  0  0  0  0  0  0  0  0  0  0
   26.2551  -14.2163   36.7768 H   0  0  0  0  0  0  0  0  0  0  0  0
   31.5997  -14.5028   35.4209 C   0  0  0  0  0  0  0  0  0  0  0  0
   30.2478  -14.1346   35.4634 C   0  0  0  0  0  0  0  0  0  0  0  0
   29.2434  -15.0884   35.3971 C   0  0  0  0  0  0  0  0  0  0  0  0
   29.6220  -16.4454   35.2937 C   0  0  0  0  0  0  0  0  0  0  0  0
   30.9656  -16.8234   35.2502 C   0  0  0  0  0  0  0  0  0  0  0  0
   31.9663  -15.8420   35.3145 C   0  0  0  0  0  0  0  0  0  0  0  0
   27.7214  -14.9207   35.4309 C   0  0  0  0  0  0  0  0  0  0  0  0
   27.2352  -16.3241   34.8868 C   0  0  0  0  0  0  0  0  0  0  0  0
   28.3981  -17.3035   35.2343 C   0  0  0  0  0  0  0  0  0  0  0  0
   26.9820  -16.2496   33.4436 N   0  0  0  0  0  0  0  0  0  0  0  0
   27.8291  -15.9433   32.9652 H   0  0  0  0  0  0  0  0  0  0  0  0
   26.2304  -15.5837   33.2642 H   0  0  0  0  0  0  0  0  0  0  0  0
   26.7786  -14.9423   39.2773 C   0  0  0  0  0  0  0  0  0  0  0  0
   27.3373  -15.0106   40.5741 N   0  0  0  0  0  0  0  0  0  0  0  0
   25.5901  -14.6405   39.1187 O   0  0  0  0  0  0  0  0  0  0  0  0
   28.2771  -15.2974   40.6345 H   0  0  0  0  0  0  0  0  0  0  0  0
   26.6719  -14.7031   41.8232 C   0  0  0  0  0  0  0  0  0  0  0  0
   25.3912  -14.0204   44.2676 C   0  0  0  0  0  0  0  0  0  0  0  0
   24.6552  -14.2835   43.1256 C   0  0  0  0  0  0  0  0  0  0  0  0
   25.2717  -14.6105   41.9112 C   0  0  0  0  0  0  0  0  0  0  0  0
   27.4080  -14.4142   43.0050 C   0  0  0  0  0  0  0  0  0  0  0  0
   26.7725  -14.0880   44.1977 C   0  0  0  0  0  0  0  0  0  0  0  0
   24.5817  -13.6134   45.7031 Cl  0  0  0  0  0  0  0  0  0  0  0  0
   23.3312  -14.2246   43.1856 F   0  0  0  0  0  0  0  0  0  0  0  0
 14 12  1  0  0  0
 12 13  1  0  0  0
 12 11  1  0  0  0
 13  8  1  0  0  0
  8  9  2  0  0  0
  8  7  1  0  0  0
  9 10  1  0  0  0
 11  7  1  0  0  0
 11  1  1  0  0  0
  3  2  2  0  0  0
  7  6  2  0  0  0
 10  5  2  0  0  0
  2  1  1  0  0  0
  2 17  1  0  0  0
  6  5  1  0  0  0
 17 18  1  0  0  0
 17 19  2  0  0  0
 18 21  1  0  0  0
 25 21  2  0  0  0
 25 26  1  0  0  0
 21 24  1  0  0  0
 26 22  2  0  0  0
 24 23  2  0  0  0
 22 23  1  0  0  0
 22 27  1  0  0  0
 23 28  1  0  0  0
 14 15  1  0  0  0
 14 16  1  0  0  0
  1  4  1  0  0  0
 18 20  1  0  0  0
M  END
> <minimizedAffinity>
-8.38170

$$$$
4DKP_0LL_A_513


 28 30  0  0  0  0  0  0  0  0999 V2000
   28.3598  -16.6839   37.5048 N   0  0  0  0  0  0  0  0  0  0  0  0
   27.6333  -15.5233   37.6967 C   0  0  0  0  0  0  0  0  0  0  0  0
   27.5772  -14.6313   36.8383 O   0  0  0  0  0  0  0  0  0  0  0  0
   28.3768  -17.3280   38.2492 H   0  0  0  0  0  0  0  0  0  0  0  0
   27.5411  -15.7613   32.9586 C   0  0  0  0  0  0  0  0  0  0  0  0
   27.7052  -16.5535   34.1033 C   0  0  0  0  0  0  0  0  0  0  0  0
   28.7455  -16.3229   34.9907 C   0  0  0  0  0  0  0  0  0  0  0  0
   29.6323  -15.2591   34.7124 C   0  0  0  0  0  0  0  0  0  0  0  0
   29.4784  -14.4637   33.5749 C   0  0  0  0  0  0  0  0  0  0  0  0
   28.4213  -14.7167   32.6877 C   0  0  0  0  0  0  0  0  0  0  0  0
   29.1114  -17.0469   36.2898 C   0  0  0  0  0  0  0  0  0  0  0  0
   30.5972  -16.5553   36.5197 C   0  0  0  0  0  0  0  0  0  0  0  0
   30.6742  -15.1827   35.7831 C   0  0  0  0  0  0  0  0  0  0  0  0
   31.5460  -17.5333   35.9760 N   0  0  0  0  0  0  0  0  0  0  0  0
   31.3556  -17.6768   34.9843 H   0  0  0  0  0  0  0  0  0  0  0  0
   31.4446  -18.4181   36.4732 H   0  0  0  0  0  0  0  0  0  0  0  0
   26.8597  -15.2954   39.0367 C   0  0  0  0  0  0  0  0  0  0  0  0
   27.4644  -15.0393   40.2886 N   0  0  0  0  0  0  0  0  0  0  0  0
   25.6298  -15.3717   38.9353 O   0  0  0  0  0  0  0  0  0  0  0  0
   28.4487  -15.0326   40.3094 H   0  0  0  0  0  0  0  0  0  0  0  0
   26.7879  -14.7858   41.5438 C   0  0  0  0  0  0  0  0  0  0  0  0
   25.4951  -14.2127   44.0099 C   0  0  0  0  0  0  0  0  0  0  0  0
   24.7834  -14.2533   42.8238 C   0  0  0  0  0  0  0  0  0  0  0  0
   25.4077  -14.5234   41.5993 C   0  0  0  0  0  0  0  0  0  0  0  0
   27.5010  -14.7241   42.7725 C   0  0  0  0  0  0  0  0  0  0  0  0
   26.8589  -14.4500   43.9746 C   0  0  0  0  0  0  0  0  0  0  0  0
   24.6797  -13.8629   45.4571 Cl  0  0  0  0  0  0  0  0  0  0  0  0
   23.4758  -14.0309   42.8500 F   0  0  0  0  0  0  0  0  0  0  0  0
 14 12  1  0  0  0
 12 13  1  0  0  0
 12 11  1  0  0  0
 13  8  1  0  0  0
  8  9  2  0  0  0
  8  7  1  0  0  0
  9 10  1  0  0  0
 11  7  1  0  0  0
 11  1  1  0  0  0
  3  2  2  0  0  0
  7  6  2  0  0  0
 10  5  2  0  0  0
  2  1  1  0  0  0
  2 17  1  0  0  0
  6  5  1  0  0  0
 17 18  1  0  0  0
 17 19  2  0  0  0
 18 21  1  0  0  0
 25 21  2  0  0  0
 25 26  1  0  0  0
 21 24  1  0  0  0
 26 22  2  0  0  0
 24 23  2  0  0  0
 22 23  1  0  0  0
 22 27  1  0  0  0
 23 28  1  0  0  0
 14 15  1  0  0  0
 14 16  1  0  0  0
  1  4  1  0  0  0
 18 20  1  0  0  0
M  END
> <minimizedAffinity>
-8.14886

$$$$
4DKP_0LL_A_513


 28 30  0  0  0  0  0  0  0  0999 V2000
   28.8569  -14.9937   36.7374 N   0  0  0  0  0  0  0  0  0  0  0  0
   27.9646  -15.9307   37.2248 C   0  0  0  0  0  0  0  0  0  0  0  0
   27.8220  -17.0425   36.6962 O   0  0  0  0  0  0  0  0  0  0  0  0
   28.8863  -14.1239   37.1975 H   0  0  0  0  0  0  0  0  0  0  0  0
   27.9896  -15.7829   32.1751 C   0  0  0  0  0  0  0  0  0  0  0  0
   28.4740  -16.0593   33.4612 C   0  0  0  0  0  0  0  0  0  0  0  0
   29.1619  -15.0999   34.1888 C   0  0  0  0  0  0  0  0  0  0  0  0
   29.3537  -13.8305   33.5994 C   0  0  0  0  0  0  0  0  0  0  0  0
   28.8757  -13.5444   32.3189 C   0  0  0  0  0  0  0  0  0  0  0  0
   28.1858  -14.5308   31.5980 C   0  0  0  0  0  0  0  0  0  0  0  0
   29.7683  -15.1755   35.5932 C   0  0  0  0  0  0  0  0  0  0  0  0
   30.7357  -13.9241   35.5891 C   0  0  0  0  0  0  0  0  0  0  0  0
   30.1131  -12.9508   34.5413 C   0  0  0  0  0  0  0  0  0  0  0  0
   32.0969  -14.3351   35.2277 N   0  0  0  0  0  0  0  0  0  0  0  0
   32.0833  -14.7922   34.3160 H   0  0  0  0  0  0  0  0  0  0  0  0
   32.4532  -14.9849   35.9286 H   0  0  0  0  0  0  0  0  0  0  0  0
   27.0828  -15.5983   38.4730 C   0  0  0  0  0  0  0  0  0  0  0  0
   27.5821  -15.2467   39.7480 N   0  0  0  0  0  0  0  0  0  0  0  0
   25.8653  -15.6804   38.2742 O   0  0  0  0  0  0  0  0  0  0  0  0
   28.5611  -15.2399   39.8514 H   0  0  0  0  0  0  0  0  0  0  0  0
   26.8043  -14.8955   40.9182 C   0  0  0  0  0  0  0  0  0  0  0  0
   25.2339  -14.2764   43.2056 C   0  0  0  0  0  0  0  0  0  0  0  0
   26.5523  -14.6773   43.3324 C   0  0  0  0  0  0  0  0  0  0  0  0
   27.3358  -14.9963   42.2160 C   0  0  0  0  0  0  0  0  0  0  0  0
   25.4437  -14.4961   40.8130 C   0  0  0  0  0  0  0  0  0  0  0  0
   24.6856  -14.1886   41.9370 C   0  0  0  0  0  0  0  0  0  0  0  0
   24.3350  -13.9207   44.6010 Cl  0  0  0  0  0  0  0  0  0  0  0  0
   27.0859  -14.7600   44.5442 F   0  0  0  0  0  0  0  0  0  0  0  0
 14 12  1  0  0  0
 12 13  1  0  0  0
 12 11  1  0  0  0
 13  8  1  0  0  0
  8  9  2  0  0  0
  8  7  1  0  0  0
  9 10  1  0  0  0
 11  7  1  0  0  0
 11  1  1  0  0  0
  3  2  2  0  0  0
  7  6  2  0  0  0
 10  5  2  0  0  0
  2  1  1  0  0  0
  2 17  1  0  0  0
  6  5  1  0  0  0
 17 18  1  0  0  0
 17 19  2  0  0  0
 18 21  1  0  0  0
 25 21  2  0  0  0
 25 26  1  0  0  0
 21 24  1  0  0  0
 26 22  2  0  0  0
 24 23  2  0  0  0
 22 23  1  0  0  0
 22 27  1  0  0  0
 23 28  1  0  0  0
 14 15  1  0  0  0
 14 16  1  0  0  0
  1  4  1  0  0  0
 18 20  1  0  0  0
M  END
> <minimizedAffinity>
-7.81922

$$$$
4DKP_0LL_A_513


 28 30  0  0  0  0  0  0  0  0999 V2000
   27.4134  -15.7153   36.3398 N   0  0  0  0  0  0  0  0  0  0  0  0
   27.3620  -14.6270   37.1910 C   0  0  0  0  0  0  0  0  0  0  0  0
   27.5197  -13.4661   36.7868 O   0  0  0  0  0  0  0  0  0  0  0  0
   27.3084  -16.6056   36.7469 H   0  0  0  0  0  0  0  0  0  0  0  0
   31.2672  -14.9043   33.7552 C   0  0  0  0  0  0  0  0  0  0  0  0
   29.9812  -14.6676   34.2602 C   0  0  0  0  0  0  0  0  0  0  0  0
   29.0518  -15.6918   34.3612 C   0  0  0  0  0  0  0  0  0  0  0  0
   29.4413  -16.9852   33.9477 C   0  0  0  0  0  0  0  0  0  0  0  0
   30.7196  -17.2323   33.4429 C   0  0  0  0  0  0  0  0  0  0  0  0
   31.6436  -16.1809   33.3452 C   0  0  0  0  0  0  0  0  0  0  0  0
   27.6108  -15.6673   34.8798 C   0  0  0  0  0  0  0  0  0  0  0  0
   27.0441  -17.0286   34.3071 C   0  0  0  0  0  0  0  0  0  0  0  0
   28.3014  -17.9355   34.1360 C   0  0  0  0  0  0  0  0  0  0  0  0
   26.3485  -16.7951   33.0367 N   0  0  0  0  0  0  0  0  0  0  0  0
   26.9881  -16.3557   32.3747 H   0  0  0  0  0  0  0  0  0  0  0  0
   25.5487  -16.1822   33.1946 H   0  0  0  0  0  0  0  0  0  0  0  0
   27.1134  -14.8391   38.7204 C   0  0  0  0  0  0  0  0  0  0  0  0
   26.0619  -14.2512   39.4601 N   0  0  0  0  0  0  0  0  0  0  0  0
   27.9393  -15.5735   39.2747 O   0  0  0  0  0  0  0  0  0  0  0  0
   25.4633  -13.6435   38.9684 H   0  0  0  0  0  0  0  0  0  0  0  0
   25.7727  -14.4490   40.8654 C   0  0  0  0  0  0  0  0  0  0  0  0
   25.1529  -14.8988   43.6031 C   0  0  0  0  0  0  0  0  0  0  0  0
   26.3798  -15.2671   43.0794 C   0  0  0  0  0  0  0  0  0  0  0  0
   26.6962  -15.0622   41.7304 C   0  0  0  0  0  0  0  0  0  0  0  0
   24.5136  -14.0927   41.4217 C   0  0  0  0  0  0  0  0  0  0  0  0
   24.2222  -14.3102   42.7635 C   0  0  0  0  0  0  0  0  0  0  0  0
   24.8275  -15.1910   45.2433 Cl  0  0  0  0  0  0  0  0  0  0  0  0
   27.2782  -15.8279   43.8784 F   0  0  0  0  0  0  0  0  0  0  0  0
 14 12  1  0  0  0
 12 13  1  0  0  0
 12 11  1  0  0  0
 13  8  1  0  0  0
  8  9  2  0  0  0
  8  7  1  0  0  0
  9 10  1  0  0  0
 11  7  1  0  0  0
 11  1  1  0  0  0
  3  2  2  0  0  0
  7  6  2  0  0  0
 10  5  2  0  0  0
  2  1  1  0  0  0
  2 17  1  0  0  0
  6  5  1  0  0  0
 17 18  1  0  0  0
 17 19  2  0  0  0
 18 21  1  0  0  0
 25 21  2  0  0  0
 25 26  1  0  0  0
 21 24  1  0  0  0
 26 22  2  0  0  0
 24 23  2  0  0  0
 22 23  1  0  0  0
 22 27  1  0  0  0
 23 28  1  0  0  0
 14 15  1  0  0  0
 14 16  1  0  0  0
  1  4  1  0  0  0
 18 20  1  0  0  0
M  END
> <minimizedAffinity>
-7.27134

$$$$
4DKP_0LL_A_513


 28 30  0  0  0  0  0  0  0  0999 V2000
   27.2357  -14.3976   34.6270 N   0  0  0  0  0  0  0  0  0  0  0  0
   27.2777  -15.2908   35.6816 C   0  0  0  0  0  0  0  0  0  0  0  0
   27.4543  -16.5054   35.5100 O   0  0  0  0  0  0  0  0  0  0  0  0
   27.0605  -13.4543   34.8479 H   0  0  0  0  0  0  0  0  0  0  0  0
   24.5740  -16.8633   31.6228 C   0  0  0  0  0  0  0  0  0  0  0  0
   25.7048  -16.5634   32.3950 C   0  0  0  0  0  0  0  0  0  0  0  0
   26.2235  -15.2780   32.4361 C   0  0  0  0  0  0  0  0  0  0  0  0
   25.5736  -14.2752   31.6827 C   0  0  0  0  0  0  0  0  0  0  0  0
   24.4467  -14.5629   30.9097 C   0  0  0  0  0  0  0  0  0  0  0  0
   23.9405  -15.8711   30.8789 C   0  0  0  0  0  0  0  0  0  0  0  0
   27.4288  -14.7257   33.2030 C   0  0  0  0  0  0  0  0  0  0  0  0
   27.6774  -13.3528   32.4577 C   0  0  0  0  0  0  0  0  0  0  0  0
   26.2869  -12.9726   31.8624 C   0  0  0  0  0  0  0  0  0  0  0  0
   28.7018  -13.5160   31.4202 N   0  0  0  0  0  0  0  0  0  0  0  0
   28.4103  -14.2420   30.7657 H   0  0  0  0  0  0  0  0  0  0  0  0
   29.5853  -13.7839   31.8538 H   0  0  0  0  0  0  0  0  0  0  0  0
   27.0839  -14.7822   37.1478 C   0  0  0  0  0  0  0  0  0  0  0  0
   26.4922  -15.5277   38.1931 N   0  0  0  0  0  0  0  0  0  0  0  0
   27.4832  -13.6287   37.3447 O   0  0  0  0  0  0  0  0  0  0  0  0
   26.1573  -16.4237   37.9604 H   0  0  0  0  0  0  0  0  0  0  0  0
   26.3271  -15.1114   39.5704 C   0  0  0  0  0  0  0  0  0  0  0  0
   26.0494  -14.2272   42.2579 C   0  0  0  0  0  0  0  0  0  0  0  0
   24.9873  -14.1650   41.3729 C   0  0  0  0  0  0  0  0  0  0  0  0
   25.1113  -14.5865   40.0429 C   0  0  0  0  0  0  0  0  0  0  0  0
   27.4084  -15.1520   40.4931 C   0  0  0  0  0  0  0  0  0  0  0  0
   27.2610  -14.7238   41.8074 C   0  0  0  0  0  0  0  0  0  0  0  0
   25.8361  -13.6840   43.8520 Cl  0  0  0  0  0  0  0  0  0  0  0  0
   23.8221  -13.6941   41.7980 F   0  0  0  0  0  0  0  0  0  0  0  0
 14 12  1  0  0  0
 12 13  1  0  0  0
 12 11  1  0  0  0
 13  8  1  0  0  0
  8  9  2  0  0  0
  8  7  1  0  0  0
  9 10  1  0  0  0
 11  7  1  0  0  0
 11  1  1  0  0  0
  3  2  2  0  0  0
  7  6  2  0  0  0
 10  5  2  0  0  0
  2  1  1  0  0  0
  2 17  1  0  0  0
  6  5  1  0  0  0
 17 18  1  0  0  0
 17 19  2  0  0  0
 18 21  1  0  0  0
 25 21  2  0  0  0
 25 26  1  0  0  0
 21 24  1  0  0  0
 26 22  2  0  0  0
 24 23  2  0  0  0
 22 23  1  0  0  0
 22 27  1  0  0  0
 23 28  1  0  0  0
 14 15  1  0  0  0
 14 16  1  0  0  0
  1  4  1  0  0  0
 18 20  1  0  0  0
M  END
> <minimizedAffinity>
-7.11961

$$$$
4DKP_0LL_A_513


 28 30  0  0  0  0  0  0  0  0999 V2000
   27.6385  -14.3211   35.4507 N   0  0  0  0  0  0  0  0  0  0  0  0
   27.4295  -15.3781   36.3171 C   0  0  0  0  0  0  0  0  0  0  0  0
   27.2941  -16.5427   35.9156 O   0  0  0  0  0  0  0  0  0  0  0  0
   27.7052  -13.4236   35.8497 H   0  0  0  0  0  0  0  0  0  0  0  0
   27.1401  -11.0669   32.0816 C   0  0  0  0  0  0  0  0  0  0  0  0
   26.8472  -12.2364   32.7967 C   0  0  0  0  0  0  0  0  0  0  0  0
   27.8543  -13.0997   33.2010 C   0  0  0  0  0  0  0  0  0  0  0  0
   29.1875  -12.7623   32.8782 C   0  0  0  0  0  0  0  0  0  0  0  0
   29.4907  -11.6001   32.1660 C   0  0  0  0  0  0  0  0  0  0  0  0
   28.4562  -10.7421   31.7628 C   0  0  0  0  0  0  0  0  0  0  0  0
   27.7709  -14.4126   33.9854 C   0  0  0  0  0  0  0  0  0  0  0  0
   29.1945  -15.0418   33.7036 C   0  0  0  0  0  0  0  0  0  0  0  0
   30.1112  -13.8171   33.3998 C   0  0  0  0  0  0  0  0  0  0  0  0
   29.1224  -15.9772   32.5756 N   0  0  0  0  0  0  0  0  0  0  0  0
   28.7660  -15.4908   31.7529 H   0  0  0  0  0  0  0  0  0  0  0  0
   28.4975  -16.7478   32.8123 H   0  0  0  0  0  0  0  0  0  0  0  0
   27.3417  -15.1233   37.8577 C   0  0  0  0  0  0  0  0  0  0  0  0
   26.1410  -15.0484   38.6001 N   0  0  0  0  0  0  0  0  0  0  0  0
   28.4358  -14.9677   38.4124 O   0  0  0  0  0  0  0  0  0  0  0  0
   25.3025  -15.1393   38.0921 H   0  0  0  0  0  0  0  0  0  0  0  0
   26.0149  -14.8521   40.0294 C   0  0  0  0  0  0  0  0  0  0  0  0
   25.8125  -14.3970   42.8283 C   0  0  0  0  0  0  0  0  0  0  0  0
   24.7225  -14.2154   41.9952 C   0  0  0  0  0  0  0  0  0  0  0  0
   24.8091  -14.4249   40.6129 C   0  0  0  0  0  0  0  0  0  0  0  0
   27.1250  -15.0179   40.9024 C   0  0  0  0  0  0  0  0  0  0  0  0
   27.0145  -14.7997   42.2709 C   0  0  0  0  0  0  0  0  0  0  0  0
   25.6438  -14.1095   44.4927 Cl  0  0  0  0  0  0  0  0  0  0  0  0
   23.5664  -13.8336   42.5221 F   0  0  0  0  0  0  0  0  0  0  0  0
 14 12  1  0  0  0
 12 13  1  0  0  0
 12 11  1  0  0  0
 13  8  1  0  0  0
  8  9  2  0  0  0
  8  7  1  0  0  0
  9 10  1  0  0  0
 11  7  1  0  0  0
 11  1  1  0  0  0
  3  2  2  0  0  0
  7  6  2  0  0  0
 10  5  2  0  0  0
  2  1  1  0  0  0
  2 17  1  0  0  0
  6  5  1  0  0  0
 17 18  1  0  0  0
 17 19  2  0  0  0
 18 21  1  0  0  0
 25 21  2  0  0  0
 25 26  1  0  0  0
 21 24  1  0  0  0
 26 22  2  0  0  0
 24 23  2  0  0  0
 22 23  1  0  0  0
 22 27  1  0  0  0
 23 28  1  0  0  0
 14 15  1  0  0  0
 14 16  1  0  0  0
  1  4  1  0  0  0
 18 20  1  0  0  0
M  END
> <minimizedAffinity>
-7.05965

$$$$
