2UY5_H35_A_1313


 18 20  0  0  0  0  0  0  0  0999 V2000
   38.5753   22.7455   24.6876 C   0  0  0  0  0  0  0  0  0  0  0  0
   38.4545   21.5061   25.1505 N   0  0  0  0  0  0  0  0  0  0  0  0
   38.1886   20.4817   24.3298 C   0  0  0  0  0  0  0  0  0  0  0  0
   38.0223   20.6325   23.0027 N   0  0  0  0  0  0  0  0  0  0  0  0
   38.1111   21.8603   22.4766 C   0  0  0  0  0  0  0  0  0  0  0  0
   38.3914   22.9458   23.3044 C   0  0  0  0  0  0  0  0  0  0  0  0
   38.4237   24.0182   22.5187 N   0  0  0  0  0  0  0  0  0  0  0  0
   38.1971   23.6408   21.2549 C   0  0  0  0  0  0  0  0  0  0  0  0
   37.9961   22.3185   21.2216 N   0  0  0  0  0  0  0  0  0  0  0  0
   38.5880   24.9414   22.8185 H   0  0  0  0  0  0  0  0  0  0  0  0
   38.8556   23.7462   25.5057 N   0  0  0  0  0  0  0  0  0  0  0  0
   38.6014   24.6583   25.2361 H   0  0  0  0  0  0  0  0  0  0  0  0
   39.5451   23.5551   26.8299 C   0  0  0  0  0  0  0  0  0  0  0  0
   39.9620   25.6363   28.3553 C   0  0  0  0  0  0  0  0  0  0  0  0
   40.6602   26.7747   28.2178 C   0  0  0  0  0  0  0  0  0  0  0  0
   41.2487   26.7890   27.0108 C   0  0  0  0  0  0  0  0  0  0  0  0
   40.9223   25.6137   26.3880 O   0  0  0  0  0  0  0  0  0  0  0  0
   40.1095   24.9210   27.2300 C   0  0  0  0  0  0  0  0  0  0  0  0
 14 15  1  0  0  0
 15 16  2  0  0  0
 16 17  1  0  0  0
 14 18  2  0  0  0
 17 18  1  0  0  0
 18 13  1  0  0  0
 13 11  1  0  0  0
 11  1  1  0  0  0
  1  2  1  0  0  0
  2  3  2  0  0  0
  3  4  1  0  0  0
  4  5  2  0  0  0
  1  6  2  0  0  0
  5  6  1  0  0  0
  6  7  1  0  0  0
  7  8  1  0  0  0
  5  9  1  0  0  0
  8  9  2  0  0  0
 11 12  1  0  0  0
  7 10  1  0  0  0
M  END
> <minimizedAffinity>
-7.43287

$$$$
2UY5_H35_A_1313


 18 20  0  0  0  0  0  0  0  0999 V2000
   38.3252   22.8912   24.1423 C   0  0  0  0  0  0  0  0  0  0  0  0
   38.3813   23.8013   23.1761 N   0  0  0  0  0  0  0  0  0  0  0  0
   38.3354   23.4467   21.8854 C   0  0  0  0  0  0  0  0  0  0  0  0
   38.2363   22.1664   21.4823 N   0  0  0  0  0  0  0  0  0  0  0  0
   38.1964   21.1997   22.4074 C   0  0  0  0  0  0  0  0  0  0  0  0
   38.2378   21.5375   23.7589 C   0  0  0  0  0  0  0  0  0  0  0  0
   38.1780   20.3931   24.4335 N   0  0  0  0  0  0  0  0  0  0  0  0
   38.0834   19.3788   23.5657 C   0  0  0  0  0  0  0  0  0  0  0  0
   38.1022   19.8649   22.3194 N   0  0  0  0  0  0  0  0  0  0  0  0
   38.1999   20.3061   25.4139 H   0  0  0  0  0  0  0  0  0  0  0  0
   38.3537   23.2552   25.4136 N   0  0  0  0  0  0  0  0  0  0  0  0
   37.5823   23.7459   25.7788 H   0  0  0  0  0  0  0  0  0  0  0  0
   39.5109   22.9539   26.3276 C   0  0  0  0  0  0  0  0  0  0  0  0
   39.5871   24.7487   28.2263 C   0  0  0  0  0  0  0  0  0  0  0  0
   40.1539   25.9594   28.3499 C   0  0  0  0  0  0  0  0  0  0  0  0
   40.8091   26.2581   27.2163 C   0  0  0  0  0  0  0  0  0  0  0  0
   40.6614   25.1909   26.3708 O   0  0  0  0  0  0  0  0  0  0  0  0
   39.8857   24.2734   27.0079 C   0  0  0  0  0  0  0  0  0  0  0  0
 14 15  1  0  0  0
 15 16  2  0  0  0
 16 17  1  0  0  0
 14 18  2  0  0  0
 17 18  1  0  0  0
 18 13  1  0  0  0
 13 11  1  0  0  0
 11  1  1  0  0  0
  1  2  1  0  0  0
  2  3  2  0  0  0
  3  4  1  0  0  0
  4  5  2  0  0  0
  1  6  2  0  0  0
  5  6  1  0  0  0
  6  7  1  0  0  0
  7  8  1  0  0  0
  5  9  1  0  0  0
  8  9  2  0  0  0
 11 12  1  0  0  0
  7 10  1  0  0  0
M  END
> <minimizedAffinity>
-6.69135

$$$$
2UY5_H35_A_1313


 18 20  0  0  0  0  0  0  0  0999 V2000
   39.6876   24.4209   26.8307 C   0  0  0  0  0  0  0  0  0  0  0  0
   39.0673   23.9715   27.9162 N   0  0  0  0  0  0  0  0  0  0  0  0
   39.1653   24.6139   29.0873 C   0  0  0  0  0  0  0  0  0  0  0  0
   39.8900   25.7368   29.2466 N   0  0  0  0  0  0  0  0  0  0  0  0
   40.5562   26.2295   28.1953 C   0  0  0  0  0  0  0  0  0  0  0  0
   40.4703   25.5859   26.9621 C   0  0  0  0  0  0  0  0  0  0  0  0
   41.2179   26.2910   26.1181 N   0  0  0  0  0  0  0  0  0  0  0  0
   41.7385   27.3394   26.7668 C   0  0  0  0  0  0  0  0  0  0  0  0
   41.3438   27.3044   28.0446 N   0  0  0  0  0  0  0  0  0  0  0  0
   41.3647   26.0763   25.1686 H   0  0  0  0  0  0  0  0  0  0  0  0
   39.5689   23.7874   25.6757 N   0  0  0  0  0  0  0  0  0  0  0  0
   40.2246   23.9776   24.9664 H   0  0  0  0  0  0  0  0  0  0  0  0
   38.4778   22.7893   25.3956 C   0  0  0  0  0  0  0  0  0  0  0  0
   38.1583   21.6356   23.0720 C   0  0  0  0  0  0  0  0  0  0  0  0
   38.1201   22.0755   21.8042 C   0  0  0  0  0  0  0  0  0  0  0  0
   38.2914   23.4074   21.7934 C   0  0  0  0  0  0  0  0  0  0  0  0
   38.4195   23.8091   23.0964 O   0  0  0  0  0  0  0  0  0  0  0  0
   38.3525   22.6944   23.8726 C   0  0  0  0  0  0  0  0  0  0  0  0
 14 15  1  0  0  0
 15 16  2  0  0  0
 16 17  1  0  0  0
 14 18  2  0  0  0
 17 18  1  0  0  0
 18 13  1  0  0  0
 13 11  1  0  0  0
 11  1  1  0  0  0
  1  2  1  0  0  0
  2  3  2  0  0  0
  3  4  1  0  0  0
  4  5  2  0  0  0
  1  6  2  0  0  0
  5  6  1  0  0  0
  6  7  1  0  0  0
  7  8  1  0  0  0
  5  9  1  0  0  0
  8  9  2  0  0  0
 11 12  1  0  0  0
  7 10  1  0  0  0
M  END
> <minimizedAffinity>
-6.42718

$$$$
2UY5_H35_A_1313


 18 20  0  0  0  0  0  0  0  0999 V2000
   37.6823   20.8307   23.2295 C   0  0  0  0  0  0  0  0  0  0  0  0
   37.8597   20.9990   24.5354 N   0  0  0  0  0  0  0  0  0  0  0  0
   38.2753   22.1705   25.0338 C   0  0  0  0  0  0  0  0  0  0  0  0
   38.5433   23.2396   24.2613 N   0  0  0  0  0  0  0  0  0  0  0  0
   38.4041   23.1284   22.9346 C   0  0  0  0  0  0  0  0  0  0  0  0
   37.9689   21.9234   22.3862 C   0  0  0  0  0  0  0  0  0  0  0  0
   37.9204   22.1060   21.0700 N   0  0  0  0  0  0  0  0  0  0  0  0
   38.2844   23.3629   20.7896 C   0  0  0  0  0  0  0  0  0  0  0  0
   38.5909   23.9949   21.9283 N   0  0  0  0  0  0  0  0  0  0  0  0
   37.6587   21.4259   20.4081 H   0  0  0  0  0  0  0  0  0  0  0  0
   37.2546   19.6742   22.7510 N   0  0  0  0  0  0  0  0  0  0  0  0
   36.4073   19.6580   22.2499 H   0  0  0  0  0  0  0  0  0  0  0  0
   38.0032   18.3818   22.9371 C   0  0  0  0  0  0  0  0  0  0  0  0
   39.6576   17.1733   21.3140 C   0  0  0  0  0  0  0  0  0  0  0  0
   40.1186   17.4335   20.0803 C   0  0  0  0  0  0  0  0  0  0  0  0
   39.5758   18.5796   19.6385 C   0  0  0  0  0  0  0  0  0  0  0  0
   38.7361   19.0340   20.6204 O   0  0  0  0  0  0  0  0  0  0  0  0
   38.8144   18.1584   21.6579 C   0  0  0  0  0  0  0  0  0  0  0  0
 14 15  1  0  0  0
 15 16  2  0  0  0
 16 17  1  0  0  0
 14 18  2  0  0  0
 17 18  1  0  0  0
 18 13  1  0  0  0
 13 11  1  0  0  0
 11  1  1  0  0  0
  1  2  1  0  0  0
  2  3  2  0  0  0
  3  4  1  0  0  0
  4  5  2  0  0  0
  1  6  2  0  0  0
  5  6  1  0  0  0
  6  7  1  0  0  0
  7  8  1  0  0  0
  5  9  1  0  0  0
  8  9  2  0  0  0
 11 12  1  0  0  0
  7 10  1  0  0  0
M  END
> <minimizedAffinity>
-6.08561

$$$$
2UY5_H35_A_1313


 18 20  0  0  0  0  0  0  0  0999 V2000
   37.5613   20.8930   22.5754 C   0  0  0  0  0  0  0  0  0  0  0  0
   37.7121   21.4754   21.3909 N   0  0  0  0  0  0  0  0  0  0  0  0
   38.2003   22.7181   21.2858 C   0  0  0  0  0  0  0  0  0  0  0  0
   38.5614   23.4542   22.3532 N   0  0  0  0  0  0  0  0  0  0  0  0
   38.4145   22.9318   23.5770 C   0  0  0  0  0  0  0  0  0  0  0  0
   37.9133   21.6391   23.7185 C   0  0  0  0  0  0  0  0  0  0  0  0
   37.8834   21.3893   25.0243 N   0  0  0  0  0  0  0  0  0  0  0  0
   38.3572   22.4531   25.6836 C   0  0  0  0  0  0  0  0  0  0  0  0
   38.6778   23.4077   24.8027 N   0  0  0  0  0  0  0  0  0  0  0  0
   37.5640   20.5556   25.4393 H   0  0  0  0  0  0  0  0  0  0  0  0
   37.0946   19.6587   22.6651 N   0  0  0  0  0  0  0  0  0  0  0  0
   36.1381   19.5046   22.4902 H   0  0  0  0  0  0  0  0  0  0  0  0
   37.9582   18.4788   23.0220 C   0  0  0  0  0  0  0  0  0  0  0  0
   39.6931   17.3129   21.4526 C   0  0  0  0  0  0  0  0  0  0  0  0
   39.7427   17.0575   20.1356 C   0  0  0  0  0  0  0  0  0  0  0  0
   38.6297   17.5305   19.5517 C   0  0  0  0  0  0  0  0  0  0  0  0
   37.8562   18.0784   20.5402 O   0  0  0  0  0  0  0  0  0  0  0  0
   38.5406   17.9500   21.7084 C   0  0  0  0  0  0  0  0  0  0  0  0
 14 15  1  0  0  0
 15 16  2  0  0  0
 16 17  1  0  0  0
 14 18  2  0  0  0
 17 18  1  0  0  0
 18 13  1  0  0  0
 13 11  1  0  0  0
 11  1  1  0  0  0
  1  2  1  0  0  0
  2  3  2  0  0  0
  3  4  1  0  0  0
  4  5  2  0  0  0
  1  6  2  0  0  0
  5  6  1  0  0  0
  6  7  1  0  0  0
  7  8  1  0  0  0
  5  9  1  0  0  0
  8  9  2  0  0  0
 11 12  1  0  0  0
  7 10  1  0  0  0
M  END
> <minimizedAffinity>
-5.84609

$$$$
2UY5_H35_A_1313


 18 20  0  0  0  0  0  0  0  0999 V2000
   37.7533   22.8480   24.6580 C   0  0  0  0  0  0  0  0  0  0  0  0
   38.6503   23.0604   23.7013 N   0  0  0  0  0  0  0  0  0  0  0  0
   38.2785   23.2212   22.4248 C   0  0  0  0  0  0  0  0  0  0  0  0
   36.9938   23.1745   22.0263 N   0  0  0  0  0  0  0  0  0  0  0  0
   36.0428   22.9429   22.9396 C   0  0  0  0  0  0  0  0  0  0  0  0
   36.3980   22.7759   24.2768 C   0  0  0  0  0  0  0  0  0  0  0  0
   35.2657   22.5695   24.9427 N   0  0  0  0  0  0  0  0  0  0  0  0
   34.2392   22.6207   24.0856 C   0  0  0  0  0  0  0  0  0  0  0  0
   34.7085   22.8415   22.8523 N   0  0  0  0  0  0  0  0  0  0  0  0
   35.1939   22.4053   25.9108 H   0  0  0  0  0  0  0  0  0  0  0  0
   38.1315   22.7082   25.9177 N   0  0  0  0  0  0  0  0  0  0  0  0
   37.4366   22.6196   26.6094 H   0  0  0  0  0  0  0  0  0  0  0  0
   39.5751   22.6785   26.3425 C   0  0  0  0  0  0  0  0  0  0  0  0
   39.4582   24.5147   28.1991 C   0  0  0  0  0  0  0  0  0  0  0  0
   39.9789   25.7445   28.3355 C   0  0  0  0  0  0  0  0  0  0  0  0
   40.7074   26.0391   27.2465 C   0  0  0  0  0  0  0  0  0  0  0  0
   40.6538   24.9502   26.4176 O   0  0  0  0  0  0  0  0  0  0  0  0
   39.8600   24.0230   27.0173 C   0  0  0  0  0  0  0  0  0  0  0  0
 14 15  1  0  0  0
 15 16  2  0  0  0
 16 17  1  0  0  0
 14 18  2  0  0  0
 17 18  1  0  0  0
 18 13  1  0  0  0
 13 11  1  0  0  0
 11  1  1  0  0  0
  1  2  1  0  0  0
  2  3  2  0  0  0
  3  4  1  0  0  0
  4  5  2  0  0  0
  1  6  2  0  0  0
  5  6  1  0  0  0
  6  7  1  0  0  0
  7  8  1  0  0  0
  5  9  1  0  0  0
  8  9  2  0  0  0
 11 12  1  0  0  0
  7 10  1  0  0  0
M  END
> <minimizedAffinity>
-5.84599

$$$$
2UY5_H35_A_1313


 18 20  0  0  0  0  0  0  0  0999 V2000
   38.3938   22.1439   23.4924 C   0  0  0  0  0  0  0  0  0  0  0  0
   38.2960   20.8577   23.8103 N   0  0  0  0  0  0  0  0  0  0  0  0
   38.1364   19.9201   22.8674 C   0  0  0  0  0  0  0  0  0  0  0  0
   38.0597   20.2090   21.5550 N   0  0  0  0  0  0  0  0  0  0  0  0
   38.1307   21.4893   21.1708 C   0  0  0  0  0  0  0  0  0  0  0  0
   38.3013   22.4875   22.1284 C   0  0  0  0  0  0  0  0  0  0  0  0
   38.3418   23.6398   21.4660 N   0  0  0  0  0  0  0  0  0  0  0  0
   38.2241   23.3948   20.1557 C   0  0  0  0  0  0  0  0  0  0  0  0
   38.0859   22.0776   19.9666 N   0  0  0  0  0  0  0  0  0  0  0  0
   38.4422   24.5301   21.8740 H   0  0  0  0  0  0  0  0  0  0  0  0
   38.5689   23.0588   24.4314 N   0  0  0  0  0  0  0  0  0  0  0  0
   38.6682   23.9993   24.1578 H   0  0  0  0  0  0  0  0  0  0  0  0
   38.6233   22.7286   25.8989 C   0  0  0  0  0  0  0  0  0  0  0  0
   39.3982   24.3129   27.8281 C   0  0  0  0  0  0  0  0  0  0  0  0
   40.2929   25.3095   27.9206 C   0  0  0  0  0  0  0  0  0  0  0  0
   40.8850   25.4837   26.7279 C   0  0  0  0  0  0  0  0  0  0  0  0
   40.3558   24.5528   25.8741 O   0  0  0  0  0  0  0  0  0  0  0  0
   39.4231   23.8487   26.5696 C   0  0  0  0  0  0  0  0  0  0  0  0
 14 15  1  0  0  0
 15 16  2  0  0  0
 16 17  1  0  0  0
 14 18  2  0  0  0
 17 18  1  0  0  0
 18 13  1  0  0  0
 13 11  1  0  0  0
 11  1  1  0  0  0
  1  2  1  0  0  0
  2  3  2  0  0  0
  3  4  1  0  0  0
  4  5  2  0  0  0
  1  6  2  0  0  0
  5  6  1  0  0  0
  6  7  1  0  0  0
  7  8  1  0  0  0
  5  9  1  0  0  0
  8  9  2  0  0  0
 11 12  1  0  0  0
  7 10  1  0  0  0
M  END
> <minimizedAffinity>
-5.81064

$$$$
2UY5_H35_A_1313


 18 20  0  0  0  0  0  0  0  0999 V2000
   36.3597   22.1464   22.1811 C   0  0  0  0  0  0  0  0  0  0  0  0
   36.7017   22.9219   21.1580 N   0  0  0  0  0  0  0  0  0  0  0  0
   37.7055   23.8026   21.2600 C   0  0  0  0  0  0  0  0  0  0  0  0
   38.4228   23.9658   22.3871 N   0  0  0  0  0  0  0  0  0  0  0  0
   38.1142   23.2286   23.4610 C   0  0  0  0  0  0  0  0  0  0  0  0
   37.0776   22.3002   23.3845 C   0  0  0  0  0  0  0  0  0  0  0  0
   37.0034   21.7214   24.5794 N   0  0  0  0  0  0  0  0  0  0  0  0
   37.9514   22.2341   25.3727 C   0  0  0  0  0  0  0  0  0  0  0  0
   38.6325   23.1659   24.6962 N   0  0  0  0  0  0  0  0  0  0  0  0
   36.3553   21.0272   24.8387 H   0  0  0  0  0  0  0  0  0  0  0  0
   35.3780   21.2681   22.0624 N   0  0  0  0  0  0  0  0  0  0  0  0
   34.5522   21.4144   22.5781 H   0  0  0  0  0  0  0  0  0  0  0  0
   35.4649   20.0552   21.1754 C   0  0  0  0  0  0  0  0  0  0  0  0
   37.8280   18.9741   20.8941 C   0  0  0  0  0  0  0  0  0  0  0  0
   38.6571   18.3066   21.7123 C   0  0  0  0  0  0  0  0  0  0  0  0
   38.0910   18.2024   22.9257 C   0  0  0  0  0  0  0  0  0  0  0  0
   36.8821   18.8429   22.8641 O   0  0  0  0  0  0  0  0  0  0  0  0
   36.7292   19.2986   21.5920 C   0  0  0  0  0  0  0  0  0  0  0  0
 14 15  1  0  0  0
 15 16  2  0  0  0
 16 17  1  0  0  0
 14 18  2  0  0  0
 17 18  1  0  0  0
 18 13  1  0  0  0
 13 11  1  0  0  0
 11  1  1  0  0  0
  1  2  1  0  0  0
  2  3  2  0  0  0
  3  4  1  0  0  0
  4  5  2  0  0  0
  1  6  2  0  0  0
  5  6  1  0  0  0
  6  7  1  0  0  0
  7  8  1  0  0  0
  5  9  1  0  0  0
  8  9  2  0  0  0
 11 12  1  0  0  0
  7 10  1  0  0  0
M  END
> <minimizedAffinity>
-5.74967

$$$$
2UY5_H35_A_1313


 18 20  0  0  0  0  0  0  0  0999 V2000
   38.1017   21.4742   21.5241 C   0  0  0  0  0  0  0  0  0  0  0  0
   38.2187   22.5951   20.8207 N   0  0  0  0  0  0  0  0  0  0  0  0
   38.3905   23.7783   21.4242 C   0  0  0  0  0  0  0  0  0  0  0  0
   38.4505   23.9145   22.7619 N   0  0  0  0  0  0  0  0  0  0  0  0
   38.3185   22.8248   23.5282 C   0  0  0  0  0  0  0  0  0  0  0  0
   38.1430   21.5787   22.9293 C   0  0  0  0  0  0  0  0  0  0  0  0
   38.0479   20.6966   23.9198 N   0  0  0  0  0  0  0  0  0  0  0  0
   38.1752   21.3363   25.0883 C   0  0  0  0  0  0  0  0  0  0  0  0
   38.3335   22.6445   24.8569 N   0  0  0  0  0  0  0  0  0  0  0  0
   37.9066   19.7284   23.8110 H   0  0  0  0  0  0  0  0  0  0  0  0
   37.9500   20.3095   20.9159 N   0  0  0  0  0  0  0  0  0  0  0  0
   37.6597   19.5352   21.4501 H   0  0  0  0  0  0  0  0  0  0  0  0
   38.2007   20.1132   19.4448 C   0  0  0  0  0  0  0  0  0  0  0  0
   39.9218   18.1461   19.4296 C   0  0  0  0  0  0  0  0  0  0  0  0
   41.2478   18.0620   19.2373 C   0  0  0  0  0  0  0  0  0  0  0  0
   41.7400   19.2906   19.0097 C   0  0  0  0  0  0  0  0  0  0  0  0
   40.6835   20.1615   19.0414 O   0  0  0  0  0  0  0  0  0  0  0  0
   39.5681   19.4356   19.3210 C   0  0  0  0  0  0  0  0  0  0  0  0
 14 15  1  0  0  0
 15 16  2  0  0  0
 16 17  1  0  0  0
 14 18  2  0  0  0
 17 18  1  0  0  0
 18 13  1  0  0  0
 13 11  1  0  0  0
 11  1  1  0  0  0
  1  2  1  0  0  0
  2  3  2  0  0  0
  3  4  1  0  0  0
  4  5  2  0  0  0
  1  6  2  0  0  0
  5  6  1  0  0  0
  6  7  1  0  0  0
  7  8  1  0  0  0
  5  9  1  0  0  0
  8  9  2  0  0  0
 11 12  1  0  0  0
  7 10  1  0  0  0
M  END
> <minimizedAffinity>
-5.39686

$$$$
2UY5_H35_A_1313


 18 20  0  0  0  0  0  0  0  0999 V2000
   38.3381   22.8448   23.1064 C   0  0  0  0  0  0  0  0  0  0  0  0
   38.3182   23.2663   24.3662 N   0  0  0  0  0  0  0  0  0  0  0  0
   38.1859   22.4058   25.3838 C   0  0  0  0  0  0  0  0  0  0  0  0
   38.0605   21.0776   25.2062 N   0  0  0  0  0  0  0  0  0  0  0  0
   38.0522   20.5912   23.9590 C   0  0  0  0  0  0  0  0  0  0  0  0
   38.1926   21.4611   22.8794 C   0  0  0  0  0  0  0  0  0  0  0  0
   38.1538   20.7086   21.7837 N   0  0  0  0  0  0  0  0  0  0  0  0
   38.0165   19.4258   22.1394 C   0  0  0  0  0  0  0  0  0  0  0  0
   37.9451   19.3459   23.4730 N   0  0  0  0  0  0  0  0  0  0  0  0
   38.2161   21.0416   20.8594 H   0  0  0  0  0  0  0  0  0  0  0  0
   38.4871   23.7027   22.1109 N   0  0  0  0  0  0  0  0  0  0  0  0
   39.3886   24.0500   21.9213 H   0  0  0  0  0  0  0  0  0  0  0  0
   37.3421   24.1727   21.2544 C   0  0  0  0  0  0  0  0  0  0  0  0
   36.6823   23.4288   18.8371 C   0  0  0  0  0  0  0  0  0  0  0  0
   37.2922   22.7171   17.8758 C   0  0  0  0  0  0  0  0  0  0  0  0
   38.5012   22.3292   18.3131 C   0  0  0  0  0  0  0  0  0  0  0  0
   38.6546   22.8330   19.5774 O   0  0  0  0  0  0  0  0  0  0  0  0
   37.5095   23.4960   19.8911 C   0  0  0  0  0  0  0  0  0  0  0  0
 14 15  1  0  0  0
 15 16  2  0  0  0
 16 17  1  0  0  0
 14 18  2  0  0  0
 17 18  1  0  0  0
 18 13  1  0  0  0
 13 11  1  0  0  0
 11  1  1  0  0  0
  1  2  1  0  0  0
  2  3  2  0  0  0
  3  4  1  0  0  0
  4  5  2  0  0  0
  1  6  2  0  0  0
  5  6  1  0  0  0
  6  7  1  0  0  0
  7  8  1  0  0  0
  5  9  1  0  0  0
  8  9  2  0  0  0
 11 12  1  0  0  0
  7 10  1  0  0  0
M  END
> <minimizedAffinity>
-5.35749

$$$$
