4MJP_27O_B_403


 22 24  0  0  0  0  0  0  0  0999 V2000
  -18.7552  -18.3778   45.6603 C   0  0  0  0  0  0  0  0  0  0  0  0
  -17.9109  -17.2788   45.4233 C   0  0  0  0  0  0  0  0  0  0  0  0
  -17.3353  -17.0021   44.1699 C   0  0  0  0  0  0  0  0  0  0  0  0
  -17.6342  -17.9453   43.0443 C   0  0  0  0  0  0  0  0  0  0  0  0
  -17.4110  -18.6726   40.7429 C   0  0  0  0  0  0  0  0  0  0  0  0
  -18.7917  -19.9936   42.2267 C   0  0  0  0  0  0  0  0  0  0  0  0
  -19.0899  -19.3140   44.6589 C   0  0  0  0  0  0  0  0  0  0  0  0
  -18.5140  -19.1237   43.2884 C   0  0  0  0  0  0  0  0  0  0  0  0
  -18.2478  -19.7632   40.9644 C   0  0  0  0  0  0  0  0  0  0  0  0
  -17.1055  -17.7749   41.7656 C   0  0  0  0  0  0  0  0  0  0  0  0
  -16.4217  -15.8288   43.9316 C   0  0  0  0  0  0  0  0  0  0  0  0
  -14.9970  -16.2395   44.3257 C   0  0  0  0  0  0  0  0  0  0  0  0
  -14.4116  -13.6768   44.3773 C   0  0  0  0  0  0  0  0  0  0  0  0
  -16.7875  -14.5789   44.7181 C   0  0  0  0  0  0  0  0  0  0  0  0
  -15.9136  -13.4023   44.3143 C   0  0  0  0  0  0  0  0  0  0  0  0
  -14.0089  -15.1228   44.6786 C   0  0  0  0  0  0  0  0  0  0  0  0
  -19.9873  -20.4881   44.9303 C   0  0  0  0  0  0  0  0  0  0  0  0
  -19.8994  -20.9609   46.3809 C   0  0  0  0  0  0  0  0  0  0  0  0
  -21.9247  -20.5936   43.5256 O   0  0  0  0  0  0  0  0  0  0  0  0
  -21.4374  -20.2162   44.5877 C   0  0  0  0  0  0  0  0  0  0  0  0
  -22.2386  -19.5842   45.4367 O   0  0  0  0  0  0  0  0  0  0  0  0
  -21.9050  -19.2804   46.2579 H   0  0  0  0  0  0  0  0  0  0  0  0
  5  9  2  0  0  0
  5 10  1  0  0  0
  9  6  1  0  0  0
 10  4  2  0  0  0
  6  8  2  0  0  0
  4  8  1  0  0  0
  4  3  1  0  0  0
  8  7  1  0  0  0
 11 12  1  0  0  0
 11  3  1  0  0  0
 11 14  1  0  0  0
 19 20  2  0  0  0
 13 15  1  0  0  0
 13 16  1  0  0  0
 12 16  1  0  0  0
 15 14  1  0  0  0
  3  2  2  0  0  0
 20 21  1  0  0  0
 20 17  1  0  0  0
  7 17  1  0  0  0
  7  1  2  0  0  0
 17 18  1  0  0  0
  2  1  1  0  0  0
 21 22  1  0  0  0
M  END
> <minimizedAffinity>
-7.99157

$$$$
4MJP_27O_B_403


 22 24  0  0  0  0  0  0  0  0999 V2000
  -17.6199  -16.4212   45.5520 C   0  0  0  0  0  0  0  0  0  0  0  0
  -18.2749  -17.6153   45.9011 C   0  0  0  0  0  0  0  0  0  0  0  0
  -18.5346  -18.6510   44.9852 C   0  0  0  0  0  0  0  0  0  0  0  0
  -18.0989  -18.4489   43.5655 C   0  0  0  0  0  0  0  0  0  0  0  0
  -17.8940  -19.1795   41.2634 C   0  0  0  0  0  0  0  0  0  0  0  0
  -17.0103  -17.0057   41.8522 C   0  0  0  0  0  0  0  0  0  0  0  0
  -17.1756  -16.1487   44.2406 C   0  0  0  0  0  0  0  0  0  0  0  0
  -17.4192  -17.1794   43.1802 C   0  0  0  0  0  0  0  0  0  0  0  0
  -17.2421  -18.0022   40.9060 C   0  0  0  0  0  0  0  0  0  0  0  0
  -18.3186  -19.4030   42.5731 C   0  0  0  0  0  0  0  0  0  0  0  0
  -19.2489  -19.9202   45.3682 C   0  0  0  0  0  0  0  0  0  0  0  0
  -20.7598  -19.6659   45.2884 C   0  0  0  0  0  0  0  0  0  0  0  0
  -21.0702  -21.8318   46.7464 C   0  0  0  0  0  0  0  0  0  0  0  0
  -18.9279  -20.4229   46.7679 C   0  0  0  0  0  0  0  0  0  0  0  0
  -19.5684  -21.7777   47.0237 C   0  0  0  0  0  0  0  0  0  0  0  0
  -21.6771  -20.5795   46.1081 C   0  0  0  0  0  0  0  0  0  0  0  0
  -16.4843  -14.8639   43.8819 C   0  0  0  0  0  0  0  0  0  0  0  0
  -17.0495  -13.6686   44.6483 C   0  0  0  0  0  0  0  0  0  0  0  0
  -14.2036  -14.8141   43.1509 O   0  0  0  0  0  0  0  0  0  0  0  0
  -14.9853  -14.9197   44.0921 C   0  0  0  0  0  0  0  0  0  0  0  0
  -14.4648  -15.0573   45.3055 O   0  0  0  0  0  0  0  0  0  0  0  0
  -15.0277  -15.1409   46.0499 H   0  0  0  0  0  0  0  0  0  0  0  0
  5  9  2  0  0  0
  5 10  1  0  0  0
  9  6  1  0  0  0
 10  4  2  0  0  0
  6  8  2  0  0  0
  4  8  1  0  0  0
  4  3  1  0  0  0
  8  7  1  0  0  0
 11 12  1  0  0  0
 11  3  1  0  0  0
 11 14  1  0  0  0
 19 20  2  0  0  0
 13 15  1  0  0  0
 13 16  1  0  0  0
 12 16  1  0  0  0
 15 14  1  0  0  0
  3  2  2  0  0  0
 20 21  1  0  0  0
 20 17  1  0  0  0
  7 17  1  0  0  0
  7  1  2  0  0  0
 17 18  1  0  0  0
  2  1  1  0  0  0
 21 22  1  0  0  0
M  END
> <minimizedAffinity>
-7.20081

$$$$
4MJP_27O_B_403


 22 24  0  0  0  0  0  0  0  0999 V2000
  -17.8413  -18.8907   42.3262 C   0  0  0  0  0  0  0  0  0  0  0  0
  -17.1175  -17.7621   42.7495 C   0  0  0  0  0  0  0  0  0  0  0  0
  -17.1502  -17.2722   44.0678 C   0  0  0  0  0  0  0  0  0  0  0  0
  -18.0183  -17.9917   45.0552 C   0  0  0  0  0  0  0  0  0  0  0  0
  -18.9519  -18.2828   47.2731 C   0  0  0  0  0  0  0  0  0  0  0  0
  -19.6055  -19.8471   45.5472 C   0  0  0  0  0  0  0  0  0  0  0  0
  -18.6810  -19.6273   43.1885 C   0  0  0  0  0  0  0  0  0  0  0  0
  -18.8038  -19.1790   44.6133 C   0  0  0  0  0  0  0  0  0  0  0  0
  -19.6715  -19.4033   46.8666 C   0  0  0  0  0  0  0  0  0  0  0  0
  -18.1366  -17.5838   46.3831 C   0  0  0  0  0  0  0  0  0  0  0  0
  -16.3806  -16.0543   44.5061 C   0  0  0  0  0  0  0  0  0  0  0  0
  -17.2912  -14.8287   44.3557 C   0  0  0  0  0  0  0  0  0  0  0  0
  -15.1171  -13.3572   44.5010 C   0  0  0  0  0  0  0  0  0  0  0  0
  -15.1080  -15.7973   43.7130 C   0  0  0  0  0  0  0  0  0  0  0  0
  -14.3156  -14.6439   44.3071 C   0  0  0  0  0  0  0  0  0  0  0  0
  -16.6194  -13.4579   44.2237 C   0  0  0  0  0  0  0  0  0  0  0  0
  -19.4545  -20.8266   42.7185 C   0  0  0  0  0  0  0  0  0  0  0  0
  -20.7236  -20.4370   41.9617 C   0  0  0  0  0  0  0  0  0  0  0  0
  -18.8518  -21.8762   40.6514 O   0  0  0  0  0  0  0  0  0  0  0  0
  -18.6321  -21.7596   41.8539 C   0  0  0  0  0  0  0  0  0  0  0  0
  -17.6273  -22.4627   42.3621 O   0  0  0  0  0  0  0  0  0  0  0  0
  -17.4274  -22.4014   43.2754 H   0  0  0  0  0  0  0  0  0  0  0  0
  5  9  2  0  0  0
  5 10  1  0  0  0
  9  6  1  0  0  0
 10  4  2  0  0  0
  6  8  2  0  0  0
  4  8  1  0  0  0
  4  3  1  0  0  0
  8  7  1  0  0  0
 11 12  1  0  0  0
 11  3  1  0  0  0
 11 14  1  0  0  0
 19 20  2  0  0  0
 13 15  1  0  0  0
 13 16  1  0  0  0
 12 16  1  0  0  0
 15 14  1  0  0  0
  3  2  2  0  0  0
 20 21  1  0  0  0
 20 17  1  0  0  0
  7 17  1  0  0  0
  7  1  2  0  0  0
 17 18  1  0  0  0
  2  1  1  0  0  0
 21 22  1  0  0  0
M  END
> <minimizedAffinity>
-7.11422

$$$$
4MJP_27O_B_403


 22 24  0  0  0  0  0  0  0  0999 V2000
  -18.0405  -19.1993   42.3538 C   0  0  0  0  0  0  0  0  0  0  0  0
  -17.3615  -18.0400   42.7682 C   0  0  0  0  0  0  0  0  0  0  0  0
  -17.4600  -17.5090   44.0672 C   0  0  0  0  0  0  0  0  0  0  0  0
  -18.3505  -18.2178   45.0422 C   0  0  0  0  0  0  0  0  0  0  0  0
  -19.3673  -18.4606   47.2291 C   0  0  0  0  0  0  0  0  0  0  0  0
  -19.9122  -20.0955   45.5311 C   0  0  0  0  0  0  0  0  0  0  0  0
  -18.8972  -19.9286   43.2055 C   0  0  0  0  0  0  0  0  0  0  0  0
  -19.0890  -19.4380   44.6086 C   0  0  0  0  0  0  0  0  0  0  0  0
  -20.0429  -19.6113   46.8314 C   0  0  0  0  0  0  0  0  0  0  0  0
  -18.5329  -17.7705   46.3500 C   0  0  0  0  0  0  0  0  0  0  0  0
  -16.7380  -16.2587   44.4956 C   0  0  0  0  0  0  0  0  0  0  0  0
  -17.6736  -15.0627   44.2764 C   0  0  0  0  0  0  0  0  0  0  0  0
  -15.5445  -13.5303   44.4538 C   0  0  0  0  0  0  0  0  0  0  0  0
  -15.4447  -15.9912   43.7403 C   0  0  0  0  0  0  0  0  0  0  0  0
  -14.7040  -14.8003   44.3271 C   0  0  0  0  0  0  0  0  0  0  0  0
  -17.0328  -13.6789   44.1269 C   0  0  0  0  0  0  0  0  0  0  0  0
  -19.6222  -21.1614   42.7448 C   0  0  0  0  0  0  0  0  0  0  0  0
  -19.4853  -22.3175   43.7348 C   0  0  0  0  0  0  0  0  0  0  0  0
  -21.4618  -20.2532   41.5084 O   0  0  0  0  0  0  0  0  0  0  0  0
  -21.0921  -20.9168   42.4732 C   0  0  0  0  0  0  0  0  0  0  0  0
  -22.0321  -21.4350   43.2542 O   0  0  0  0  0  0  0  0  0  0  0  0
  -21.7910  -21.9477   44.0005 H   0  0  0  0  0  0  0  0  0  0  0  0
  5  9  2  0  0  0
  5 10  1  0  0  0
  9  6  1  0  0  0
 10  4  2  0  0  0
  6  8  2  0  0  0
  4  8  1  0  0  0
  4  3  1  0  0  0
  8  7  1  0  0  0
 11 12  1  0  0  0
 11  3  1  0  0  0
 11 14  1  0  0  0
 19 20  2  0  0  0
 13 15  1  0  0  0
 13 16  1  0  0  0
 12 16  1  0  0  0
 15 14  1  0  0  0
  3  2  2  0  0  0
 20 21  1  0  0  0
 20 17  1  0  0  0
  7 17  1  0  0  0
  7  1  2  0  0  0
 17 18  1  0  0  0
  2  1  1  0  0  0
 21 22  1  0  0  0
M  END
> <minimizedAffinity>
-6.53564

$$$$
4MJP_27O_B_403


 22 24  0  0  0  0  0  0  0  0999 V2000
  -16.9510  -17.4818   42.9772 C   0  0  0  0  0  0  0  0  0  0  0  0
  -17.5801  -18.6933   42.6405 C   0  0  0  0  0  0  0  0  0  0  0  0
  -18.3743  -19.4282   43.5395 C   0  0  0  0  0  0  0  0  0  0  0  0
  -18.5350  -18.8868   44.9277 C   0  0  0  0  0  0  0  0  0  0  0  0
  -19.4164  -19.0018   47.1828 C   0  0  0  0  0  0  0  0  0  0  0  0
  -18.0221  -17.1128   46.5992 C   0  0  0  0  0  0  0  0  0  0  0  0
  -17.0498  -16.9002   44.2591 C   0  0  0  0  0  0  0  0  0  0  0  0
  -17.8582  -17.6121   45.3011 C   0  0  0  0  0  0  0  0  0  0  0  0
  -18.8005  -17.8016   47.5275 C   0  0  0  0  0  0  0  0  0  0  0  0
  -19.2872  -19.5404   45.9027 C   0  0  0  0  0  0  0  0  0  0  0  0
  -19.0324  -20.7317   43.1710 C   0  0  0  0  0  0  0  0  0  0  0  0
  -18.0501  -21.5427   42.3159 C   0  0  0  0  0  0  0  0  0  0  0  0
  -20.1064  -23.0008   41.5685 C   0  0  0  0  0  0  0  0  0  0  0  0
  -20.3277  -20.5810   42.3875 C   0  0  0  0  0  0  0  0  0  0  0  0
  -21.0039  -21.9272   42.1828 C   0  0  0  0  0  0  0  0  0  0  0  0
  -18.6329  -22.6220   41.3975 C   0  0  0  0  0  0  0  0  0  0  0  0
  -16.3646  -15.6087   44.6057 C   0  0  0  0  0  0  0  0  0  0  0  0
  -14.9062  -15.5864   44.1495 C   0  0  0  0  0  0  0  0  0  0  0  0
  -16.4863  -13.3277   43.8846 O   0  0  0  0  0  0  0  0  0  0  0  0
  -17.0745  -14.3934   44.0459 C   0  0  0  0  0  0  0  0  0  0  0  0
  -18.3508  -14.4472   43.6848 O   0  0  0  0  0  0  0  0  0  0  0  0
  -18.8349  -15.2423   43.7918 H   0  0  0  0  0  0  0  0  0  0  0  0
  5  9  2  0  0  0
  5 10  1  0  0  0
  9  6  1  0  0  0
 10  4  2  0  0  0
  6  8  2  0  0  0
  4  8  1  0  0  0
  4  3  1  0  0  0
  8  7  1  0  0  0
 11 12  1  0  0  0
 11  3  1  0  0  0
 11 14  1  0  0  0
 19 20  2  0  0  0
 13 15  1  0  0  0
 13 16  1  0  0  0
 12 16  1  0  0  0
 15 14  1  0  0  0
  3  2  2  0  0  0
 20 21  1  0  0  0
 20 17  1  0  0  0
  7 17  1  0  0  0
  7  1  2  0  0  0
 17 18  1  0  0  0
  2  1  1  0  0  0
 21 22  1  0  0  0
M  END
> <minimizedAffinity>
-6.16010

$$$$
4MJP_27O_B_403


 22 24  0  0  0  0  0  0  0  0999 V2000
  -16.5993  -16.9739   45.5029 C   0  0  0  0  0  0  0  0  0  0  0  0
  -16.9042  -18.3044   45.8400 C   0  0  0  0  0  0  0  0  0  0  0  0
  -17.3063  -19.2682   44.8974 C   0  0  0  0  0  0  0  0  0  0  0  0
  -17.4264  -18.8345   43.4679 C   0  0  0  0  0  0  0  0  0  0  0  0
  -17.9258  -19.2620   41.1348 C   0  0  0  0  0  0  0  0  0  0  0  0
  -17.2314  -17.0308   41.7614 C   0  0  0  0  0  0  0  0  0  0  0  0
  -16.6844  -16.4814   44.1833 C   0  0  0  0  0  0  0  0  0  0  0  0
  -17.1226  -17.4218   43.1016 C   0  0  0  0  0  0  0  0  0  0  0  0
  -17.6241  -17.9476   40.7881 C   0  0  0  0  0  0  0  0  0  0  0  0
  -17.8304  -19.7027   42.4547 C   0  0  0  0  0  0  0  0  0  0  0  0
  -17.6429  -20.6872   45.2728 C   0  0  0  0  0  0  0  0  0  0  0  0
  -18.4527  -20.6620   46.5756 C   0  0  0  0  0  0  0  0  0  0  0  0
  -17.8865  -23.2175   46.8249 C   0  0  0  0  0  0  0  0  0  0  0  0
  -16.4324  -21.5837   45.4864 C   0  0  0  0  0  0  0  0  0  0  0  0
  -16.8529  -23.0266   45.7155 C   0  0  0  0  0  0  0  0  0  0  0  0
  -18.4618  -21.9341   47.4298 C   0  0  0  0  0  0  0  0  0  0  0  0
  -16.3630  -15.0543   43.8405 C   0  0  0  0  0  0  0  0  0  0  0  0
  -17.2451  -14.0637   44.5996 C   0  0  0  0  0  0  0  0  0  0  0  0
  -14.4887  -14.4483   45.2036 O   0  0  0  0  0  0  0  0  0  0  0  0
  -14.9091  -14.7017   44.0781 C   0  0  0  0  0  0  0  0  0  0  0  0
  -14.0337  -14.6816   43.0804 O   0  0  0  0  0  0  0  0  0  0  0  0
  -14.3148  -14.8695   42.2065 H   0  0  0  0  0  0  0  0  0  0  0  0
  5  9  2  0  0  0
  5 10  1  0  0  0
  9  6  1  0  0  0
 10  4  2  0  0  0
  6  8  2  0  0  0
  4  8  1  0  0  0
  4  3  1  0  0  0
  8  7  1  0  0  0
 11 12  1  0  0  0
 11  3  1  0  0  0
 11 14  1  0  0  0
 19 20  2  0  0  0
 13 15  1  0  0  0
 13 16  1  0  0  0
 12 16  1  0  0  0
 15 14  1  0  0  0
  3  2  2  0  0  0
 20 21  1  0  0  0
 20 17  1  0  0  0
  7 17  1  0  0  0
  7  1  2  0  0  0
 17 18  1  0  0  0
  2  1  1  0  0  0
 21 22  1  0  0  0
M  END
> <minimizedAffinity>
-6.04577

$$$$
4MJP_27O_B_403


 22 24  0  0  0  0  0  0  0  0999 V2000
  -14.3926  -19.2675   44.7130 C   0  0  0  0  0  0  0  0  0  0  0  0
  -15.5838  -19.4718   43.9947 C   0  0  0  0  0  0  0  0  0  0  0  0
  -16.4345  -18.4253   43.5942 C   0  0  0  0  0  0  0  0  0  0  0  0
  -16.0451  -17.0289   43.9745 C   0  0  0  0  0  0  0  0  0  0  0  0
  -16.4225  -14.6349   44.0107 C   0  0  0  0  0  0  0  0  0  0  0  0
  -14.4364  -15.4919   45.0941 C   0  0  0  0  0  0  0  0  0  0  0  0
  -13.9501  -17.9879   45.1106 C   0  0  0  0  0  0  0  0  0  0  0  0
  -14.7932  -16.8020   44.7513 C   0  0  0  0  0  0  0  0  0  0  0  0
  -15.2437  -14.4195   44.7198 C   0  0  0  0  0  0  0  0  0  0  0  0
  -16.8213  -15.9196   43.6422 C   0  0  0  0  0  0  0  0  0  0  0  0
  -17.7149  -18.6579   42.8364 C   0  0  0  0  0  0  0  0  0  0  0  0
  -18.5763  -19.6435   43.6364 C   0  0  0  0  0  0  0  0  0  0  0  0
  -19.9594  -20.0226   41.4327 C   0  0  0  0  0  0  0  0  0  0  0  0
  -17.5220  -19.2261   41.4383 C   0  0  0  0  0  0  0  0  0  0  0  0
  -18.8422  -19.2933   40.6874 C   0  0  0  0  0  0  0  0  0  0  0  0
  -19.6431  -20.4352   42.8727 C   0  0  0  0  0  0  0  0  0  0  0  0
  -12.6784  -17.7870   45.8852 C   0  0  0  0  0  0  0  0  0  0  0  0
  -12.6936  -18.5234   47.2242 C   0  0  0  0  0  0  0  0  0  0  0  0
  -10.7725  -19.1702   45.4466 O   0  0  0  0  0  0  0  0  0  0  0  0
  -11.4429  -18.1976   45.1111 C   0  0  0  0  0  0  0  0  0  0  0  0
  -11.0583  -17.5355   44.0267 O   0  0  0  0  0  0  0  0  0  0  0  0
  -11.5432  -16.7877   43.7378 H   0  0  0  0  0  0  0  0  0  0  0  0
  5  9  2  0  0  0
  5 10  1  0  0  0
  9  6  1  0  0  0
 10  4  2  0  0  0
  6  8  2  0  0  0
  4  8  1  0  0  0
  4  3  1  0  0  0
  8  7  1  0  0  0
 11 12  1  0  0  0
 11  3  1  0  0  0
 11 14  1  0  0  0
 19 20  2  0  0  0
 13 15  1  0  0  0
 13 16  1  0  0  0
 12 16  1  0  0  0
 15 14  1  0  0  0
  3  2  2  0  0  0
 20 21  1  0  0  0
 20 17  1  0  0  0
  7 17  1  0  0  0
  7  1  2  0  0  0
 17 18  1  0  0  0
  2  1  1  0  0  0
 21 22  1  0  0  0
M  END
> <minimizedAffinity>
-6.00599

$$$$
4MJP_27O_B_403


 22 24  0  0  0  0  0  0  0  0999 V2000
  -15.4282  -19.1446   46.1987 C   0  0  0  0  0  0  0  0  0  0  0  0
  -16.7949  -19.4009   45.9917 C   0  0  0  0  0  0  0  0  0  0  0  0
  -17.6868  -18.4541   45.4557 C   0  0  0  0  0  0  0  0  0  0  0  0
  -17.1396  -17.1029   45.1079 C   0  0  0  0  0  0  0  0  0  0  0  0
  -17.3887  -14.8423   44.2696 C   0  0  0  0  0  0  0  0  0  0  0  0
  -15.1949  -15.5502   45.0036 C   0  0  0  0  0  0  0  0  0  0  0  0
  -14.8299  -17.9022   45.8988 C   0  0  0  0  0  0  0  0  0  0  0  0
  -15.6956  -16.8141   45.3396 C   0  0  0  0  0  0  0  0  0  0  0  0
  -16.0362  -14.5772   44.4676 C   0  0  0  0  0  0  0  0  0  0  0  0
  -17.9365  -16.0857   44.5847 C   0  0  0  0  0  0  0  0  0  0  0  0
  -19.1518  -18.7362   45.2508 C   0  0  0  0  0  0  0  0  0  0  0  0
  -19.8416  -18.7221   46.6211 C   0  0  0  0  0  0  0  0  0  0  0  0
  -21.8488  -19.9790   45.4790 C   0  0  0  0  0  0  0  0  0  0  0  0
  -19.4464  -20.0733   44.5875 C   0  0  0  0  0  0  0  0  0  0  0  0
  -20.9287  -20.2187   44.2826 C   0  0  0  0  0  0  0  0  0  0  0  0
  -21.1680  -19.4775   46.7553 C   0  0  0  0  0  0  0  0  0  0  0  0
  -13.3689  -17.6414   46.1336 C   0  0  0  0  0  0  0  0  0  0  0  0
  -12.8159  -18.4555   47.3026 C   0  0  0  0  0  0  0  0  0  0  0  0
  -11.6202  -17.1270   44.5794 O   0  0  0  0  0  0  0  0  0  0  0  0
  -12.5174  -17.8986   44.9076 C   0  0  0  0  0  0  0  0  0  0  0  0
  -12.6942  -18.9821   44.1614 O   0  0  0  0  0  0  0  0  0  0  0  0
  -13.3683  -19.5956   44.3786 H   0  0  0  0  0  0  0  0  0  0  0  0
  5  9  2  0  0  0
  5 10  1  0  0  0
  9  6  1  0  0  0
 10  4  2  0  0  0
  6  8  2  0  0  0
  4  8  1  0  0  0
  4  3  1  0  0  0
  8  7  1  0  0  0
 11 12  1  0  0  0
 11  3  1  0  0  0
 11 14  1  0  0  0
 19 20  2  0  0  0
 13 15  1  0  0  0
 13 16  1  0  0  0
 12 16  1  0  0  0
 15 14  1  0  0  0
  3  2  2  0  0  0
 20 21  1  0  0  0
 20 17  1  0  0  0
  7 17  1  0  0  0
  7  1  2  0  0  0
 17 18  1  0  0  0
  2  1  1  0  0  0
 21 22  1  0  0  0
M  END
> <minimizedAffinity>
-5.98620

$$$$
4MJP_27O_B_403


 22 24  0  0  0  0  0  0  0  0999 V2000
  -17.6200  -19.2156   42.9236 C   0  0  0  0  0  0  0  0  0  0  0  0
  -17.2797  -17.8884   43.2391 C   0  0  0  0  0  0  0  0  0  0  0  0
  -16.5547  -17.5287   44.3898 C   0  0  0  0  0  0  0  0  0  0  0  0
  -16.1457  -18.6261   45.3249 C   0  0  0  0  0  0  0  0  0  0  0  0
  -15.0713  -19.4307   47.3433 C   0  0  0  0  0  0  0  0  0  0  0  0
  -16.1218  -21.0524   45.8873 C   0  0  0  0  0  0  0  0  0  0  0  0
  -17.2747  -20.3090   43.7461 C   0  0  0  0  0  0  0  0  0  0  0  0
  -16.5162  -20.0352   45.0094 C   0  0  0  0  0  0  0  0  0  0  0  0
  -15.4002  -20.7494   47.0404 C   0  0  0  0  0  0  0  0  0  0  0  0
  -15.4377  -18.3814   46.5006 C   0  0  0  0  0  0  0  0  0  0  0  0
  -16.2075  -16.1019   44.7238 C   0  0  0  0  0  0  0  0  0  0  0  0
  -17.4038  -15.2154   44.3538 C   0  0  0  0  0  0  0  0  0  0  0  0
  -15.7567  -13.1691   44.4664 C   0  0  0  0  0  0  0  0  0  0  0  0
  -14.9817  -15.5681   43.9977 C   0  0  0  0  0  0  0  0  0  0  0  0
  -14.6112  -14.1803   44.4957 C   0  0  0  0  0  0  0  0  0  0  0  0
  -17.1328  -13.7293   44.0971 C   0  0  0  0  0  0  0  0  0  0  0  0
  -17.6530  -21.7210   43.3989 C   0  0  0  0  0  0  0  0  0  0  0  0
  -19.1673  -21.9134   43.3256 C   0  0  0  0  0  0  0  0  0  0  0  0
  -15.8691  -22.5886   42.0562 O   0  0  0  0  0  0  0  0  0  0  0  0
  -17.0324  -22.1982   42.1022 C   0  0  0  0  0  0  0  0  0  0  0  0
  -17.7342  -22.2363   40.9761 O   0  0  0  0  0  0  0  0  0  0  0  0
  -18.6255  -21.9471   40.9695 H   0  0  0  0  0  0  0  0  0  0  0  0
  5  9  2  0  0  0
  5 10  1  0  0  0
  9  6  1  0  0  0
 10  4  2  0  0  0
  6  8  2  0  0  0
  4  8  1  0  0  0
  4  3  1  0  0  0
  8  7  1  0  0  0
 11 12  1  0  0  0
 11  3  1  0  0  0
 11 14  1  0  0  0
 19 20  2  0  0  0
 13 15  1  0  0  0
 13 16  1  0  0  0
 12 16  1  0  0  0
 15 14  1  0  0  0
  3  2  2  0  0  0
 20 21  1  0  0  0
 20 17  1  0  0  0
  7 17  1  0  0  0
  7  1  2  0  0  0
 17 18  1  0  0  0
  2  1  1  0  0  0
 21 22  1  0  0  0
M  END
> <minimizedAffinity>
-5.73189

$$$$
4MJP_27O_B_403


 22 24  0  0  0  0  0  0  0  0999 V2000
  -15.4619  -19.5866   42.6896 C   0  0  0  0  0  0  0  0  0  0  0  0
  -15.8491  -18.2840   43.0502 C   0  0  0  0  0  0  0  0  0  0  0  0
  -15.3648  -17.6219   44.1931 C   0  0  0  0  0  0  0  0  0  0  0  0
  -14.4001  -18.3624   45.0689 C   0  0  0  0  0  0  0  0  0  0  0  0
  -12.9703  -18.5276   47.0192 C   0  0  0  0  0  0  0  0  0  0  0  0
  -13.0883  -20.4292   45.5283 C   0  0  0  0  0  0  0  0  0  0  0  0
  -14.5589  -20.3547   43.4550 C   0  0  0  0  0  0  0  0  0  0  0  0
  -13.9960  -19.7506   44.7058 C   0  0  0  0  0  0  0  0  0  0  0  0
  -12.5772  -19.8172   46.6712 C   0  0  0  0  0  0  0  0  0  0  0  0
  -13.8693  -17.8076   46.2325 C   0  0  0  0  0  0  0  0  0  0  0  0
  -15.7972  -16.2311   44.5761 C   0  0  0  0  0  0  0  0  0  0  0  0
  -17.2692  -16.0577   44.1799 C   0  0  0  0  0  0  0  0  0  0  0  0
  -16.8912  -13.4659   44.4100 C   0  0  0  0  0  0  0  0  0  0  0  0
  -14.9959  -15.1203   43.9139 C   0  0  0  0  0  0  0  0  0  0  0  0
  -15.3921  -13.7582   44.4608 C   0  0  0  0  0  0  0  0  0  0  0  0
  -17.7841  -14.6296   43.9712 C   0  0  0  0  0  0  0  0  0  0  0  0
  -14.1613  -21.7489   43.0603 C   0  0  0  0  0  0  0  0  0  0  0  0
  -15.3660  -22.6089   42.6803 C   0  0  0  0  0  0  0  0  0  0  0  0
  -12.2039  -21.0057   41.8965 O   0  0  0  0  0  0  0  0  0  0  0  0
  -13.1571  -21.7793   41.9268 C   0  0  0  0  0  0  0  0  0  0  0  0
  -13.2582  -22.6625   40.9409 O   0  0  0  0  0  0  0  0  0  0  0  0
  -13.9712  -23.2703   40.9277 H   0  0  0  0  0  0  0  0  0  0  0  0
  5  9  2  0  0  0
  5 10  1  0  0  0
  9  6  1  0  0  0
 10  4  2  0  0  0
  6  8  2  0  0  0
  4  8  1  0  0  0
  4  3  1  0  0  0
  8  7  1  0  0  0
 11 12  1  0  0  0
 11  3  1  0  0  0
 11 14  1  0  0  0
 19 20  2  0  0  0
 13 15  1  0  0  0
 13 16  1  0  0  0
 12 16  1  0  0  0
 15 14  1  0  0  0
  3  2  2  0  0  0
 20 21  1  0  0  0
 20 17  1  0  0  0
  7 17  1  0  0  0
  7  1  2  0  0  0
 17 18  1  0  0  0
  2  1  1  0  0  0
 21 22  1  0  0  0
M  END
> <minimizedAffinity>
-5.68166

$$$$
