4TUN_MVH_A_201


 15 14  0  0  0  0  0  0  0  0999 V2000
   -4.7757   15.7342    5.6531 C   0  0  0  0  0  0  0  0  0  0  0  0
   -3.5782   16.4556    5.0037 C   0  0  0  0  0  0  0  0  0  0  0  0
   -4.8935   16.0646    7.1542 C   0  0  0  0  0  0  0  0  0  0  0  0
   -3.9529   15.2952    8.0980 C   0  0  0  0  0  0  0  0  0  0  0  0
   -2.9234   15.8214    8.4642 O   0  0  0  0  0  0  0  0  0  0  0  0
   -4.3810   14.0545    8.4769 N   0  0  0  0  0  0  0  0  0  0  0  0
   -3.6104   13.2052    9.3811 C   0  0  0  0  0  0  0  0  0  0  0  0
   -5.2392   13.7211    8.1282 H   0  0  0  0  0  0  0  0  0  0  0  0
   -5.9441   16.2627    5.0549 O   0  0  0  0  0  0  0  0  0  0  0  0
   -6.6105   16.3887    3.2319 O   0  0  0  0  0  0  0  0  0  0  0  0
   -7.0299   15.3530    4.3752 P   0  0  0  0  0  0  0  0  0  0  0  0
   -6.0863   14.2591    4.7881 O   0  0  0  0  0  0  0  0  0  0  0  0
   -7.1167   16.2028    2.4257 H   0  0  0  0  0  0  0  0  0  0  0  0
   -7.9411   16.0418    5.6077 O   0  0  0  0  0  0  0  0  0  0  0  0
   -9.2374   15.5402    5.8766 C   0  0  0  0  0  0  0  0  0  0  0  0
 15 14  1  0  0  0
 14 11  1  0  0  0
 12 11  2  0  0  0
 11  9  1  0  0  0
 11 10  1  0  0  0
  9  1  1  0  0  0
  2  1  1  0  0  0
  1  3  2  0  0  0
  3  4  1  0  0  0
  4  5  2  0  0  0
  4  6  1  0  0  0
  6  7  1  0  0  0
 10 13  1  0  0  0
  6  8  1  0  0  0
M  END
> <minimizedAffinity>
-5.16426

$$$$
4TUN_MVH_A_201


 15 14  0  0  0  0  0  0  0  0999 V2000
   -5.3880   15.3554    5.4163 C   0  0  0  0  0  0  0  0  0  0  0  0
   -6.3176   14.5081    6.3073 C   0  0  0  0  0  0  0  0  0  0  0  0
   -6.1609   16.0286    4.2651 C   0  0  0  0  0  0  0  0  0  0  0  0
   -6.4777   15.1439    3.0467 C   0  0  0  0  0  0  0  0  0  0  0  0
   -5.6183   14.4065    2.6125 O   0  0  0  0  0  0  0  0  0  0  0  0
   -7.7482   15.2474    2.5554 N   0  0  0  0  0  0  0  0  0  0  0  0
   -8.2097   14.4631    1.4132 C   0  0  0  0  0  0  0  0  0  0  0  0
   -8.3747   15.8726    2.9865 H   0  0  0  0  0  0  0  0  0  0  0  0
   -4.9055   16.4148    6.2207 O   0  0  0  0  0  0  0  0  0  0  0  0
   -3.4199   15.4741    5.3891 O   0  0  0  0  0  0  0  0  0  0  0  0
   -3.3721   16.6748    6.4435 P   0  0  0  0  0  0  0  0  0  0  0  0
   -3.7492   18.0668    6.0222 O   0  0  0  0  0  0  0  0  0  0  0  0
   -2.5155   15.2123    5.1559 H   0  0  0  0  0  0  0  0  0  0  0  0
   -3.8315   16.2270    7.9966 O   0  0  0  0  0  0  0  0  0  0  0  0
   -3.3105   15.0367    8.5589 C   0  0  0  0  0  0  0  0  0  0  0  0
 15 14  1  0  0  0
 14 11  1  0  0  0
 12 11  2  0  0  0
 11  9  1  0  0  0
 11 10  1  0  0  0
  9  1  1  0  0  0
  2  1  1  0  0  0
  1  3  2  0  0  0
  3  4  1  0  0  0
  4  5  2  0  0  0
  4  6  1  0  0  0
  6  7  1  0  0  0
 10 13  1  0  0  0
  6  8  1  0  0  0
M  END
> <minimizedAffinity>
-5.06125

$$$$
4TUN_MVH_A_201


 15 14  0  0  0  0  0  0  0  0999 V2000
   -5.5998   15.8717    5.5652 C   0  0  0  0  0  0  0  0  0  0  0  0
   -5.6661   15.1957    4.1815 C   0  0  0  0  0  0  0  0  0  0  0  0
   -6.5387   15.1878    6.5785 C   0  0  0  0  0  0  0  0  0  0  0  0
   -8.0272   15.5681    6.4940 C   0  0  0  0  0  0  0  0  0  0  0  0
   -8.4416   16.1148    5.4939 O   0  0  0  0  0  0  0  0  0  0  0  0
   -8.7873   15.2250    7.5761 N   0  0  0  0  0  0  0  0  0  0  0  0
  -10.2195   15.5024    7.6435 C   0  0  0  0  0  0  0  0  0  0  0  0
   -8.3543   14.7750    8.3372 H   0  0  0  0  0  0  0  0  0  0  0  0
   -4.2905   15.6629    6.0594 O   0  0  0  0  0  0  0  0  0  0  0  0
   -2.4460   15.7508    5.4481 O   0  0  0  0  0  0  0  0  0  0  0  0
   -3.2725   16.8398    6.2768 P   0  0  0  0  0  0  0  0  0  0  0  0
   -4.3560   17.6371    5.6076 O   0  0  0  0  0  0  0  0  0  0  0  0
   -1.5469   16.0787    5.2902 H   0  0  0  0  0  0  0  0  0  0  0  0
   -3.5649   16.3948    7.8706 O   0  0  0  0  0  0  0  0  0  0  0  0
   -3.1062   15.1391    8.3363 C   0  0  0  0  0  0  0  0  0  0  0  0
 15 14  1  0  0  0
 14 11  1  0  0  0
 12 11  2  0  0  0
 11  9  1  0  0  0
 11 10  1  0  0  0
  9  1  1  0  0  0
  2  1  1  0  0  0
  1  3  2  0  0  0
  3  4  1  0  0  0
  4  5  2  0  0  0
  4  6  1  0  0  0
  6  7  1  0  0  0
 10 13  1  0  0  0
  6  8  1  0  0  0
M  END
> <minimizedAffinity>
-4.93329

$$$$
4TUN_MVH_A_201


 15 14  0  0  0  0  0  0  0  0999 V2000
   -4.5899   15.7231    5.2960 C   0  0  0  0  0  0  0  0  0  0  0  0
   -3.3003   16.5375    5.0731 C   0  0  0  0  0  0  0  0  0  0  0  0
   -5.3728   16.2221    6.5265 C   0  0  0  0  0  0  0  0  0  0  0  0
   -4.8656   15.7433    7.8980 C   0  0  0  0  0  0  0  0  0  0  0  0
   -4.9511   16.4870    8.8522 O   0  0  0  0  0  0  0  0  0  0  0  0
   -4.3686   14.4713    7.9333 N   0  0  0  0  0  0  0  0  0  0  0  0
   -3.8630   13.8645    9.1617 C   0  0  0  0  0  0  0  0  0  0  0  0
   -4.3506   13.9451    7.1014 H   0  0  0  0  0  0  0  0  0  0  0  0
   -5.4287   15.9744    4.1845 O   0  0  0  0  0  0  0  0  0  0  0  0
   -5.1111   15.8414    2.2701 O   0  0  0  0  0  0  0  0  0  0  0  0
   -5.9135   14.8345    3.2179 P   0  0  0  0  0  0  0  0  0  0  0  0
   -5.1746   13.9642    4.1946 O   0  0  0  0  0  0  0  0  0  0  0  0
   -5.1230   15.5072    1.3596 H   0  0  0  0  0  0  0  0  0  0  0  0
   -7.3925   15.4358    3.7418 O   0  0  0  0  0  0  0  0  0  0  0  0
   -8.4454   14.5348    4.0312 C   0  0  0  0  0  0  0  0  0  0  0  0
 15 14  1  0  0  0
 14 11  1  0  0  0
 12 11  2  0  0  0
 11  9  1  0  0  0
 11 10  1  0  0  0
  9  1  1  0  0  0
  2  1  1  0  0  0
  1  3  2  0  0  0
  3  4  1  0  0  0
  4  5  2  0  0  0
  4  6  1  0  0  0
  6  7  1  0  0  0
 10 13  1  0  0  0
  6  8  1  0  0  0
M  END
> <minimizedAffinity>
-4.75996

$$$$
4TUN_MVH_A_201


 15 14  0  0  0  0  0  0  0  0999 V2000
   -6.5410   15.2172    6.5237 C   0  0  0  0  0  0  0  0  0  0  0  0
   -8.0562   15.4227    6.7187 C   0  0  0  0  0  0  0  0  0  0  0  0
   -6.0590   15.7828    5.1732 C   0  0  0  0  0  0  0  0  0  0  0  0
   -6.3101   14.9030    3.9362 C   0  0  0  0  0  0  0  0  0  0  0  0
   -5.6424   13.9031    3.7768 O   0  0  0  0  0  0  0  0  0  0  0  0
   -7.3127   15.3206    3.1074 N   0  0  0  0  0  0  0  0  0  0  0  0
   -7.6844   14.5869    1.9007 C   0  0  0  0  0  0  0  0  0  0  0  0
   -7.8017   16.1452    3.3316 H   0  0  0  0  0  0  0  0  0  0  0  0
   -5.8930   15.9932    7.5137 O   0  0  0  0  0  0  0  0  0  0  0  0
   -6.1562   16.0789    9.4390 O   0  0  0  0  0  0  0  0  0  0  0  0
   -4.9852   15.3551    8.6262 P   0  0  0  0  0  0  0  0  0  0  0  0
   -5.2659   14.0968    7.8547 O   0  0  0  0  0  0  0  0  0  0  0  0
   -6.0185   15.9476   10.3902 H   0  0  0  0  0  0  0  0  0  0  0  0
   -3.8948   16.4218    7.9212 O   0  0  0  0  0  0  0  0  0  0  0  0
   -2.8353   15.9119    7.1328 C   0  0  0  0  0  0  0  0  0  0  0  0
 15 14  1  0  0  0
 14 11  1  0  0  0
 12 11  2  0  0  0
 11  9  1  0  0  0
 11 10  1  0  0  0
  9  1  1  0  0  0
  2  1  1  0  0  0
  1  3  2  0  0  0
  3  4  1  0  0  0
  4  5  2  0  0  0
  4  6  1  0  0  0
  6  7  1  0  0  0
 10 13  1  0  0  0
  6  8  1  0  0  0
M  END
> <minimizedAffinity>
-4.58557

$$$$
4TUN_MVH_A_201


 15 14  0  0  0  0  0  0  0  0999 V2000
   -4.8828   16.0507    7.5475 C   0  0  0  0  0  0  0  0  0  0  0  0
   -3.9789   16.9698    6.7025 C   0  0  0  0  0  0  0  0  0  0  0  0
   -5.6430   15.0368    6.6699 C   0  0  0  0  0  0  0  0  0  0  0  0
   -6.8969   15.5628    5.9499 C   0  0  0  0  0  0  0  0  0  0  0  0
   -6.7705   16.1518    4.8973 O   0  0  0  0  0  0  0  0  0  0  0  0
   -8.0876   15.2923    6.5627 N   0  0  0  0  0  0  0  0  0  0  0  0
   -9.3683   15.7097    5.9987 C   0  0  0  0  0  0  0  0  0  0  0  0
   -8.0820   14.7986    7.4145 H   0  0  0  0  0  0  0  0  0  0  0  0
   -4.0268   15.2773    8.3669 O   0  0  0  0  0  0  0  0  0  0  0  0
   -2.5368   15.4000    9.6112 O   0  0  0  0  0  0  0  0  0  0  0  0
   -4.0998   15.3143    9.9360 P   0  0  0  0  0  0  0  0  0  0  0  0
   -4.9935   16.4921    9.6690 O   0  0  0  0  0  0  0  0  0  0  0  0
   -2.0365   15.4521   10.4406 H   0  0  0  0  0  0  0  0  0  0  0  0
   -4.7683   13.8017    9.6378 O   0  0  0  0  0  0  0  0  0  0  0  0
   -3.9174   12.7186    9.3104 C   0  0  0  0  0  0  0  0  0  0  0  0
 15 14  1  0  0  0
 14 11  1  0  0  0
 12 11  2  0  0  0
 11  9  1  0  0  0
 11 10  1  0  0  0
  9  1  1  0  0  0
  2  1  1  0  0  0
  1  3  2  0  0  0
  3  4  1  0  0  0
  4  5  2  0  0  0
  4  6  1  0  0  0
  6  7  1  0  0  0
 10 13  1  0  0  0
  6  8  1  0  0  0
M  END
> <minimizedAffinity>
-4.52051

$$$$
4TUN_MVH_A_201


 15 14  0  0  0  0  0  0  0  0999 V2000
   -6.1218   14.8730    3.9046 C   0  0  0  0  0  0  0  0  0  0  0  0
   -4.7545   15.3401    3.3678 C   0  0  0  0  0  0  0  0  0  0  0  0
   -6.5218   13.5011    3.3266 C   0  0  0  0  0  0  0  0  0  0  0  0
   -7.1115   13.5051    1.9055 C   0  0  0  0  0  0  0  0  0  0  0  0
   -6.6719   12.7319    1.0811 O   0  0  0  0  0  0  0  0  0  0  0  0
   -8.1303   14.3897    1.6908 N   0  0  0  0  0  0  0  0  0  0  0  0
   -8.8056   14.5044    0.4010 C   0  0  0  0  0  0  0  0  0  0  0  0
   -8.4193   14.9702    2.4315 H   0  0  0  0  0  0  0  0  0  0  0  0
   -5.9659   14.6682    5.2960 O   0  0  0  0  0  0  0  0  0  0  0  0
   -7.3723   15.9712    4.9681 O   0  0  0  0  0  0  0  0  0  0  0  0
   -6.9215   15.3223    6.3579 P   0  0  0  0  0  0  0  0  0  0  0  0
   -7.2425   13.8863    6.6616 O   0  0  0  0  0  0  0  0  0  0  0  0
   -8.1032   16.5900    5.1221 H   0  0  0  0  0  0  0  0  0  0  0  0
   -5.4335   15.8754    6.9090 O   0  0  0  0  0  0  0  0  0  0  0  0
   -5.2137   16.0069    8.3014 C   0  0  0  0  0  0  0  0  0  0  0  0
 15 14  1  0  0  0
 14 11  1  0  0  0
 12 11  2  0  0  0
 11  9  1  0  0  0
 11 10  1  0  0  0
  9  1  1  0  0  0
  2  1  1  0  0  0
  1  3  2  0  0  0
  3  4  1  0  0  0
  4  5  2  0  0  0
  4  6  1  0  0  0
  6  7  1  0  0  0
 10 13  1  0  0  0
  6  8  1  0  0  0
M  END
> <minimizedAffinity>
-4.39287

$$$$
4TUN_MVH_A_201


 15 14  0  0  0  0  0  0  0  0999 V2000
   -6.1639   14.8655    4.1130 C   0  0  0  0  0  0  0  0  0  0  0  0
   -4.7844   15.3791    3.6558 C   0  0  0  0  0  0  0  0  0  0  0  0
   -6.4802   13.4783    3.5197 C   0  0  0  0  0  0  0  0  0  0  0  0
   -6.9841   13.4567    2.0661 C   0  0  0  0  0  0  0  0  0  0  0  0
   -6.4503   12.7173    1.2666 O   0  0  0  0  0  0  0  0  0  0  0  0
   -8.0402   14.2796    1.7942 N   0  0  0  0  0  0  0  0  0  0  0  0
   -8.6439   14.3623    0.4671 C   0  0  0  0  0  0  0  0  0  0  0  0
   -8.4072   14.8363    2.5185 H   0  0  0  0  0  0  0  0  0  0  0  0
   -6.0840   14.6710    5.5123 O   0  0  0  0  0  0  0  0  0  0  0  0
   -5.6545   15.7589    7.0665 O   0  0  0  0  0  0  0  0  0  0  0  0
   -7.0943   15.3348    6.5159 P   0  0  0  0  0  0  0  0  0  0  0  0
   -7.6339   15.9508    5.2563 O   0  0  0  0  0  0  0  0  0  0  0  0
   -5.7602   16.3052    7.8610 H   0  0  0  0  0  0  0  0  0  0  0  0
   -7.4553   13.7109    6.7533 O   0  0  0  0  0  0  0  0  0  0  0  0
   -7.4874   13.1919    8.0701 C   0  0  0  0  0  0  0  0  0  0  0  0
 15 14  1  0  0  0
 14 11  1  0  0  0
 12 11  2  0  0  0
 11  9  1  0  0  0
 11 10  1  0  0  0
  9  1  1  0  0  0
  2  1  1  0  0  0
  1  3  2  0  0  0
  3  4  1  0  0  0
  4  5  2  0  0  0
  4  6  1  0  0  0
  6  7  1  0  0  0
 10 13  1  0  0  0
  6  8  1  0  0  0
M  END
> <minimizedAffinity>
-4.38623

$$$$
4TUN_MVH_A_201


 15 14  0  0  0  0  0  0  0  0999 V2000
   -7.0721   15.4425    5.1064 C   0  0  0  0  0  0  0  0  0  0  0  0
   -8.4536   15.5889    5.7743 C   0  0  0  0  0  0  0  0  0  0  0  0
   -6.0711   14.7120    6.0231 C   0  0  0  0  0  0  0  0  0  0  0  0
   -5.4165   15.5576    7.1294 C   0  0  0  0  0  0  0  0  0  0  0  0
   -4.6667   16.4588    6.8187 O   0  0  0  0  0  0  0  0  0  0  0  0
   -5.7647   15.2288    8.4088 N   0  0  0  0  0  0  0  0  0  0  0  0
   -5.2421   15.9458    9.5688 C   0  0  0  0  0  0  0  0  0  0  0  0
   -6.3899   14.4823    8.5540 H   0  0  0  0  0  0  0  0  0  0  0  0
   -7.2481   14.5968    3.9856 O   0  0  0  0  0  0  0  0  0  0  0  0
   -6.6451   16.3494    3.3957 O   0  0  0  0  0  0  0  0  0  0  0  0
   -6.7970   15.0088    2.5381 P   0  0  0  0  0  0  0  0  0  0  0  0
   -5.8309   13.8743    2.7305 O   0  0  0  0  0  0  0  0  0  0  0  0
   -6.3212   17.0635    2.8247 H   0  0  0  0  0  0  0  0  0  0  0  0
   -8.3933   14.5733    2.2448 O   0  0  0  0  0  0  0  0  0  0  0  0
   -8.8743   14.5533    0.9135 C   0  0  0  0  0  0  0  0  0  0  0  0
 15 14  1  0  0  0
 14 11  1  0  0  0
 12 11  2  0  0  0
 11  9  1  0  0  0
 11 10  1  0  0  0
  9  1  1  0  0  0
  2  1  1  0  0  0
  1  3  2  0  0  0
  3  4  1  0  0  0
  4  5  2  0  0  0
  4  6  1  0  0  0
  6  7  1  0  0  0
 10 13  1  0  0  0
  6  8  1  0  0  0
M  END
> <minimizedAffinity>
-4.32927

$$$$
4TUN_MVH_A_201


 15 14  0  0  0  0  0  0  0  0999 V2000
   -7.6180   14.7985    4.0601 C   0  0  0  0  0  0  0  0  0  0  0  0
   -6.3712   15.7045    4.0356 C   0  0  0  0  0  0  0  0  0  0  0  0
   -7.3203   13.4042    3.4742 C   0  0  0  0  0  0  0  0  0  0  0  0
   -7.3065   13.2978    1.9393 C   0  0  0  0  0  0  0  0  0  0  0  0
   -6.3590   12.7750    1.3917 O   0  0  0  0  0  0  0  0  0  0  0  0
   -8.4086   13.7940    1.3025 N   0  0  0  0  0  0  0  0  0  0  0  0
   -8.5550   13.7539   -0.1499 C   0  0  0  0  0  0  0  0  0  0  0  0
   -9.1294   14.1927    1.8417 H   0  0  0  0  0  0  0  0  0  0  0  0
   -7.9363   14.5787    5.4213 O   0  0  0  0  0  0  0  0  0  0  0  0
   -9.3800   15.5594    4.5627 O   0  0  0  0  0  0  0  0  0  0  0  0
   -9.3521   14.9033    6.0203 P   0  0  0  0  0  0  0  0  0  0  0  0
   -9.4082   13.4103    6.1789 O   0  0  0  0  0  0  0  0  0  0  0  0
  -10.2402   15.9828    4.4151 H   0  0  0  0  0  0  0  0  0  0  0  0
   -8.3682   15.7218    7.1092 O   0  0  0  0  0  0  0  0  0  0  0  0
   -7.4780   14.9870    7.9289 C   0  0  0  0  0  0  0  0  0  0  0  0
 15 14  1  0  0  0
 14 11  1  0  0  0
 12 11  2  0  0  0
 11  9  1  0  0  0
 11 10  1  0  0  0
  9  1  1  0  0  0
  2  1  1  0  0  0
  1  3  2  0  0  0
  3  4  1  0  0  0
  4  5  2  0  0  0
  4  6  1  0  0  0
  6  7  1  0  0  0
 10 13  1  0  0  0
  6  8  1  0  0  0
M  END
> <minimizedAffinity>
-4.31080

$$$$
