3SW8_5LI_P_205


 19 19  0  0  0  0  0  0  0  0999 V2000
   25.9235   -6.6086    6.9803 C   0  0  0  0  0  0  0  0  0  0  0  0
   26.3696   -5.8579    5.9314 N   0  0  0  0  0  0  0  0  0  0  0  0
   25.9501   -7.8321    7.0011 O   0  0  0  0  0  0  0  0  0  0  0  0
   26.3176   -4.8754    5.9668 H   0  0  0  0  0  0  0  0  0  0  0  0
   25.9946   -4.5219   10.0527 C   0  0  0  0  0  0  0  0  0  0  0  0
   26.3825   -5.2615    8.9624 C   0  0  0  0  0  0  0  0  0  0  0  0
   24.6582   -4.3323   10.3237 C   0  0  0  0  0  0  0  0  0  0  0  0
   25.4379   -5.8228    8.1328 C   0  0  0  0  0  0  0  0  0  0  0  0
   23.7225   -4.8937    9.4870 C   0  0  0  0  0  0  0  0  0  0  0  0
   24.0953   -5.6408    8.3887 C   0  0  0  0  0  0  0  0  0  0  0  0
   22.0680   -4.6300    9.8679 Cl  0  0  0  0  0  0  0  0  0  0  0  0
   22.8916   -6.3376    7.3548 Cl  0  0  0  0  0  0  0  0  0  0  0  0
   26.9181   -6.5157    4.7699 C   0  0  0  0  0  0  0  0  0  0  0  0
   27.4220   -5.5228    3.7405 C   0  0  0  0  0  0  0  0  0  0  0  0
   28.9874   -3.8465    4.7842 C   0  0  0  0  0  0  0  0  0  0  0  0
   27.7578   -4.2639    4.3571 N   0  0  0  0  0  0  0  0  0  0  0  0
   29.2330   -2.7731    5.3115 O   0  0  0  0  0  0  0  0  0  0  0  0
   26.7161   -3.3475    4.5529 O   0  0  0  0  0  0  0  0  0  0  0  0
   27.0654   -2.5457    4.9723 H   0  0  0  0  0  0  0  0  0  0  0  0
  6  5  2  0  0  0
  5  7  1  0  0  0
  8  6  1  0  0  0
  9  7  2  0  0  0
  1  8  1  0  0  0
  8 10  2  0  0  0
 10  9  1  0  0  0
  9 11  1  0  0  0
 12 10  1  0  0  0
 16 15  1  0  0  0
 15 17  2  0  0  0
  3  1  2  0  0  0
  2  1  1  0  0  0
 14 13  1  0  0  0
 13  2  1  0  0  0
 14 16  1  0  0  0
 18 16  1  0  0  0
  2  4  1  0  0  0
 18 19  1  0  0  0
M  END
> <minimizedAffinity>
-7.04711

$$$$
3SW8_5LI_P_205


 19 19  0  0  0  0  0  0  0  0999 V2000
   25.5923   -5.7053    5.9537 C   0  0  0  0  0  0  0  0  0  0  0  0
   26.7562   -6.2142    5.4547 N   0  0  0  0  0  0  0  0  0  0  0  0
   24.6788   -5.2856    5.2555 O   0  0  0  0  0  0  0  0  0  0  0  0
   27.4606   -6.5317    6.0647 H   0  0  0  0  0  0  0  0  0  0  0  0
   24.9148   -6.9953    9.3707 C   0  0  0  0  0  0  0  0  0  0  0  0
   25.0342   -6.9019    8.0057 C   0  0  0  0  0  0  0  0  0  0  0  0
   25.2541   -5.9286   10.1723 C   0  0  0  0  0  0  0  0  0  0  0  0
   25.4910   -5.7392    7.4269 C   0  0  0  0  0  0  0  0  0  0  0  0
   25.7129   -4.7732    9.5849 C   0  0  0  0  0  0  0  0  0  0  0  0
   25.8371   -4.6623    8.2153 C   0  0  0  0  0  0  0  0  0  0  0  0
   26.1220   -3.4699   10.6271 Cl  0  0  0  0  0  0  0  0  0  0  0  0
   26.4160   -3.1912    7.5053 Cl  0  0  0  0  0  0  0  0  0  0  0  0
   26.9462   -6.2831    4.0258 C   0  0  0  0  0  0  0  0  0  0  0  0
   28.1364   -5.4608    3.5712 C   0  0  0  0  0  0  0  0  0  0  0  0
   29.1817   -3.5897    4.8965 C   0  0  0  0  0  0  0  0  0  0  0  0
   28.1495   -4.1707    4.2140 N   0  0  0  0  0  0  0  0  0  0  0  0
   29.1533   -2.4953    5.4368 O   0  0  0  0  0  0  0  0  0  0  0  0
   26.9763   -3.4077    4.1451 O   0  0  0  0  0  0  0  0  0  0  0  0
   27.1092   -2.5674    4.6110 H   0  0  0  0  0  0  0  0  0  0  0  0
  6  5  2  0  0  0
  5  7  1  0  0  0
  8  6  1  0  0  0
  9  7  2  0  0  0
  1  8  1  0  0  0
  8 10  2  0  0  0
 10  9  1  0  0  0
  9 11  1  0  0  0
 12 10  1  0  0  0
 16 15  1  0  0  0
 15 17  2  0  0  0
  3  1  2  0  0  0
  2  1  1  0  0  0
 14 13  1  0  0  0
 13  2  1  0  0  0
 14 16  1  0  0  0
 18 16  1  0  0  0
  2  4  1  0  0  0
 18 19  1  0  0  0
M  END
> <minimizedAffinity>
-6.73406

$$$$
3SW8_5LI_P_205


 19 19  0  0  0  0  0  0  0  0999 V2000
   26.7843   -3.3026    6.8653 C   0  0  0  0  0  0  0  0  0  0  0  0
   27.9988   -3.7927    6.4814 N   0  0  0  0  0  0  0  0  0  0  0  0
   26.1539   -2.4703    6.2267 O   0  0  0  0  0  0  0  0  0  0  0  0
   28.4644   -4.4573    7.0389 H   0  0  0  0  0  0  0  0  0  0  0  0
   25.7312   -3.5838   10.4165 C   0  0  0  0  0  0  0  0  0  0  0  0
   26.2133   -3.0919    9.2283 C   0  0  0  0  0  0  0  0  0  0  0  0
   25.2781   -4.8813   10.4986 C   0  0  0  0  0  0  0  0  0  0  0  0
   26.2510   -3.8935    8.1096 C   0  0  0  0  0  0  0  0  0  0  0  0
   25.3162   -5.6725    9.3747 C   0  0  0  0  0  0  0  0  0  0  0  0
   25.7992   -5.1945    8.1740 C   0  0  0  0  0  0  0  0  0  0  0  0
   24.7412   -7.2844    9.5279 Cl  0  0  0  0  0  0  0  0  0  0  0  0
   25.8366   -6.2181    6.7760 Cl  0  0  0  0  0  0  0  0  0  0  0  0
   28.5952   -3.3291    5.2518 C   0  0  0  0  0  0  0  0  0  0  0  0
   28.9905   -4.4780    4.3443 C   0  0  0  0  0  0  0  0  0  0  0  0
   27.8708   -6.6988    3.9390 C   0  0  0  0  0  0  0  0  0  0  0  0
   27.8652   -5.3391    4.0800 N   0  0  0  0  0  0  0  0  0  0  0  0
   26.8960   -7.3960    3.7063 O   0  0  0  0  0  0  0  0  0  0  0  0
   26.6098   -4.7312    3.9459 O   0  0  0  0  0  0  0  0  0  0  0  0
   25.9390   -5.4098    3.7714 H   0  0  0  0  0  0  0  0  0  0  0  0
  6  5  2  0  0  0
  5  7  1  0  0  0
  8  6  1  0  0  0
  9  7  2  0  0  0
  1  8  1  0  0  0
  8 10  2  0  0  0
 10  9  1  0  0  0
  9 11  1  0  0  0
 12 10  1  0  0  0
 16 15  1  0  0  0
 15 17  2  0  0  0
  3  1  2  0  0  0
  2  1  1  0  0  0
 14 13  1  0  0  0
 13  2  1  0  0  0
 14 16  1  0  0  0
 18 16  1  0  0  0
  2  4  1  0  0  0
 18 19  1  0  0  0
M  END
> <minimizedAffinity>
-6.71042

$$$$
3SW8_5LI_P_205


 19 19  0  0  0  0  0  0  0  0999 V2000
   26.7004   -4.2859    6.1240 C   0  0  0  0  0  0  0  0  0  0  0  0
   27.7776   -4.9640    5.6317 N   0  0  0  0  0  0  0  0  0  0  0  0
   26.1581   -3.3557    5.5420 O   0  0  0  0  0  0  0  0  0  0  0  0
   28.1778   -5.7010    6.1472 H   0  0  0  0  0  0  0  0  0  0  0  0
   25.3870   -6.6605    8.6608 C   0  0  0  0  0  0  0  0  0  0  0  0
   25.8651   -6.1284    7.4884 C   0  0  0  0  0  0  0  0  0  0  0  0
   25.2372   -5.8652    9.7746 C   0  0  0  0  0  0  0  0  0  0  0  0
   26.1952   -4.7937    7.4158 C   0  0  0  0  0  0  0  0  0  0  0  0
   25.5734   -4.5344    9.6930 C   0  0  0  0  0  0  0  0  0  0  0  0
   26.0532   -3.9838    8.5225 C   0  0  0  0  0  0  0  0  0  0  0  0
   25.3674   -3.5830   11.1088 Cl  0  0  0  0  0  0  0  0  0  0  0  0
   26.4656   -2.3020    8.4512 Cl  0  0  0  0  0  0  0  0  0  0  0  0
   28.3252   -4.5922    4.3494 C   0  0  0  0  0  0  0  0  0  0  0  0
   27.6464   -5.3248    3.2083 C   0  0  0  0  0  0  0  0  0  0  0  0
   27.9674   -7.7881    3.6314 C   0  0  0  0  0  0  0  0  0  0  0  0
   27.2241   -6.6409    3.6172 N   0  0  0  0  0  0  0  0  0  0  0  0
   27.5720   -8.8902    3.9774 O   0  0  0  0  0  0  0  0  0  0  0  0
   25.8998   -6.7834    4.0521 O   0  0  0  0  0  0  0  0  0  0  0  0
   25.7379   -7.7076    4.2981 H   0  0  0  0  0  0  0  0  0  0  0  0
  6  5  2  0  0  0
  5  7  1  0  0  0
  8  6  1  0  0  0
  9  7  2  0  0  0
  1  8  1  0  0  0
  8 10  2  0  0  0
 10  9  1  0  0  0
  9 11  1  0  0  0
 12 10  1  0  0  0
 16 15  1  0  0  0
 15 17  2  0  0  0
  3  1  2  0  0  0
  2  1  1  0  0  0
 14 13  1  0  0  0
 13  2  1  0  0  0
 14 16  1  0  0  0
 18 16  1  0  0  0
  2  4  1  0  0  0
 18 19  1  0  0  0
M  END
> <minimizedAffinity>
-6.48225

$$$$
3SW8_5LI_P_205


 19 19  0  0  0  0  0  0  0  0999 V2000
   25.3827   -6.8062    6.6070 C   0  0  0  0  0  0  0  0  0  0  0  0
   25.5683   -6.0902    5.4601 N   0  0  0  0  0  0  0  0  0  0  0  0
   25.9655   -7.8529    6.8574 O   0  0  0  0  0  0  0  0  0  0  0  0
   25.0665   -5.2569    5.3087 H   0  0  0  0  0  0  0  0  0  0  0  0
   22.1721   -5.8406    8.2067 C   0  0  0  0  0  0  0  0  0  0  0  0
   23.0968   -6.3880    7.3514 C   0  0  0  0  0  0  0  0  0  0  0  0
   22.5825   -5.0948    9.2887 C   0  0  0  0  0  0  0  0  0  0  0  0
   24.4426   -6.1923    7.5667 C   0  0  0  0  0  0  0  0  0  0  0  0
   23.9287   -4.9085    9.4973 C   0  0  0  0  0  0  0  0  0  0  0  0
   24.8705   -5.4498    8.6468 C   0  0  0  0  0  0  0  0  0  0  0  0
   24.3908   -3.9693   10.8599 Cl  0  0  0  0  0  0  0  0  0  0  0  0
   26.5601   -5.1944    8.9356 Cl  0  0  0  0  0  0  0  0  0  0  0  0
   26.5061   -6.5643    4.4709 C   0  0  0  0  0  0  0  0  0  0  0  0
   27.6291   -5.5735    4.2327 C   0  0  0  0  0  0  0  0  0  0  0  0
   27.9327   -3.9011    6.0929 C   0  0  0  0  0  0  0  0  0  0  0  0
   27.3778   -4.3318    4.9202 N   0  0  0  0  0  0  0  0  0  0  0  0
   27.6885   -2.8433    6.6516 O   0  0  0  0  0  0  0  0  0  0  0  0
   26.4587   -3.4499    4.3364 O   0  0  0  0  0  0  0  0  0  0  0  0
   26.3762   -2.6566    4.8885 H   0  0  0  0  0  0  0  0  0  0  0  0
  6  5  2  0  0  0
  5  7  1  0  0  0
  8  6  1  0  0  0
  9  7  2  0  0  0
  1  8  1  0  0  0
  8 10  2  0  0  0
 10  9  1  0  0  0
  9 11  1  0  0  0
 12 10  1  0  0  0
 16 15  1  0  0  0
 15 17  2  0  0  0
  3  1  2  0  0  0
  2  1  1  0  0  0
 14 13  1  0  0  0
 13  2  1  0  0  0
 14 16  1  0  0  0
 18 16  1  0  0  0
  2  4  1  0  0  0
 18 19  1  0  0  0
M  END
> <minimizedAffinity>
-6.29489

$$$$
3SW8_5LI_P_205


 19 19  0  0  0  0  0  0  0  0999 V2000
   26.5744   -4.6240    5.4122 C   0  0  0  0  0  0  0  0  0  0  0  0
   27.0619   -4.5120    6.6819 N   0  0  0  0  0  0  0  0  0  0  0  0
   26.1669   -3.6760    4.7539 O   0  0  0  0  0  0  0  0  0  0  0  0
   27.3704   -5.3111    7.1672 H   0  0  0  0  0  0  0  0  0  0  0  0
   27.8576   -7.6326    3.6512 C   0  0  0  0  0  0  0  0  0  0  0  0
   27.7584   -6.3737    4.1912 C   0  0  0  0  0  0  0  0  0  0  0  0
   26.8174   -8.5259    3.7757 C   0  0  0  0  0  0  0  0  0  0  0  0
   26.6161   -5.9928    4.8587 C   0  0  0  0  0  0  0  0  0  0  0  0
   25.6824   -8.1373    4.4475 C   0  0  0  0  0  0  0  0  0  0  0  0
   25.5659   -6.8759    4.9942 C   0  0  0  0  0  0  0  0  0  0  0  0
   24.4116   -9.2867    4.5750 Cl  0  0  0  0  0  0  0  0  0  0  0  0
   24.1209   -6.4156    5.8329 Cl  0  0  0  0  0  0  0  0  0  0  0  0
   27.1218   -3.2130    7.3076 C   0  0  0  0  0  0  0  0  0  0  0  0
   26.1511   -3.0961    8.4668 C   0  0  0  0  0  0  0  0  0  0  0  0
   24.6449   -5.0330    9.0409 C   0  0  0  0  0  0  0  0  0  0  0  0
   25.8520   -4.3915    9.0235 N   0  0  0  0  0  0  0  0  0  0  0  0
   24.4269   -6.1299    9.5308 O   0  0  0  0  0  0  0  0  0  0  0  0
   26.9073   -5.0908    9.6241 O   0  0  0  0  0  0  0  0  0  0  0  0
   26.5827   -5.9417    9.9582 H   0  0  0  0  0  0  0  0  0  0  0  0
  6  5  2  0  0  0
  5  7  1  0  0  0
  8  6  1  0  0  0
  9  7  2  0  0  0
  1  8  1  0  0  0
  8 10  2  0  0  0
 10  9  1  0  0  0
  9 11  1  0  0  0
 12 10  1  0  0  0
 16 15  1  0  0  0
 15 17  2  0  0  0
  3  1  2  0  0  0
  2  1  1  0  0  0
 14 13  1  0  0  0
 13  2  1  0  0  0
 14 16  1  0  0  0
 18 16  1  0  0  0
  2  4  1  0  0  0
 18 19  1  0  0  0
M  END
> <minimizedAffinity>
-6.27159

$$$$
3SW8_5LI_P_205


 19 19  0  0  0  0  0  0  0  0999 V2000
   26.1043   -5.5540    5.7083 C   0  0  0  0  0  0  0  0  0  0  0  0
   27.3705   -5.9104    5.3446 N   0  0  0  0  0  0  0  0  0  0  0  0
   25.2595   -5.1476    4.9214 O   0  0  0  0  0  0  0  0  0  0  0  0
   28.0115   -6.2248    6.0225 H   0  0  0  0  0  0  0  0  0  0  0  0
   25.9283   -4.8506    9.3516 C   0  0  0  0  0  0  0  0  0  0  0  0
   26.1774   -4.7355    8.0059 C   0  0  0  0  0  0  0  0  0  0  0  0
   25.2994   -5.9701    9.8484 C   0  0  0  0  0  0  0  0  0  0  0  0
   25.8036   -5.7406    7.1423 C   0  0  0  0  0  0  0  0  0  0  0  0
   24.9265   -6.9665    8.9773 C   0  0  0  0  0  0  0  0  0  0  0  0
   25.1710   -6.8673    7.6232 C   0  0  0  0  0  0  0  0  0  0  0  0
   24.1463   -8.3438    9.6456 Cl  0  0  0  0  0  0  0  0  0  0  0  0
   24.6909   -8.1420    6.5516 Cl  0  0  0  0  0  0  0  0  0  0  0  0
   27.7625   -5.8226    3.9586 C   0  0  0  0  0  0  0  0  0  0  0  0
   27.6173   -4.4141    3.4158 C   0  0  0  0  0  0  0  0  0  0  0  0
   29.5563   -3.1069    4.3545 C   0  0  0  0  0  0  0  0  0  0  0  0
   28.2355   -3.4544    4.2958 N   0  0  0  0  0  0  0  0  0  0  0  0
   30.0465   -2.2931    5.1215 O   0  0  0  0  0  0  0  0  0  0  0  0
   27.4034   -2.7905    5.2070 O   0  0  0  0  0  0  0  0  0  0  0  0
   27.9322   -2.1755    5.7390 H   0  0  0  0  0  0  0  0  0  0  0  0
  6  5  2  0  0  0
  5  7  1  0  0  0
  8  6  1  0  0  0
  9  7  2  0  0  0
  1  8  1  0  0  0
  8 10  2  0  0  0
 10  9  1  0  0  0
  9 11  1  0  0  0
 12 10  1  0  0  0
 16 15  1  0  0  0
 15 17  2  0  0  0
  3  1  2  0  0  0
  2  1  1  0  0  0
 14 13  1  0  0  0
 13  2  1  0  0  0
 14 16  1  0  0  0
 18 16  1  0  0  0
  2  4  1  0  0  0
 18 19  1  0  0  0
M  END
> <minimizedAffinity>
-5.96342

$$$$
3SW8_5LI_P_205


 19 19  0  0  0  0  0  0  0  0999 V2000
   25.6219   -5.2314    8.6075 C   0  0  0  0  0  0  0  0  0  0  0  0
   25.8786   -4.8235    7.3306 N   0  0  0  0  0  0  0  0  0  0  0  0
   26.4339   -5.1603    9.5205 O   0  0  0  0  0  0  0  0  0  0  0  0
   25.1886   -4.9107    6.6338 H   0  0  0  0  0  0  0  0  0  0  0  0
   22.0117   -5.2365    9.4825 C   0  0  0  0  0  0  0  0  0  0  0  0
   23.3045   -4.8308    9.2584 C   0  0  0  0  0  0  0  0  0  0  0  0
   21.6489   -6.5480    9.2733 C   0  0  0  0  0  0  0  0  0  0  0  0
   24.2500   -5.7334    8.8259 C   0  0  0  0  0  0  0  0  0  0  0  0
   22.5995   -7.4407    8.8375 C   0  0  0  0  0  0  0  0  0  0  0  0
   23.9029   -7.0501    8.6094 C   0  0  0  0  0  0  0  0  0  0  0  0
   22.0983   -9.0659    8.5924 Cl  0  0  0  0  0  0  0  0  0  0  0  0
   25.0783   -8.2003    8.0629 Cl  0  0  0  0  0  0  0  0  0  0  0  0
   27.1693   -4.2634    7.0100 C   0  0  0  0  0  0  0  0  0  0  0  0
   27.2258   -3.7471    5.5853 C   0  0  0  0  0  0  0  0  0  0  0  0
   29.4847   -3.4888    4.4988 C   0  0  0  0  0  0  0  0  0  0  0  0
   28.4068   -4.2225    4.9093 N   0  0  0  0  0  0  0  0  0  0  0  0
   30.4666   -3.9261    3.9196 O   0  0  0  0  0  0  0  0  0  0  0  0
   28.4771   -5.5935    4.6286 O   0  0  0  0  0  0  0  0  0  0  0  0
   29.3125   -5.7883    4.1758 H   0  0  0  0  0  0  0  0  0  0  0  0
  6  5  2  0  0  0
  5  7  1  0  0  0
  8  6  1  0  0  0
  9  7  2  0  0  0
  1  8  1  0  0  0
  8 10  2  0  0  0
 10  9  1  0  0  0
  9 11  1  0  0  0
 12 10  1  0  0  0
 16 15  1  0  0  0
 15 17  2  0  0  0
  3  1  2  0  0  0
  2  1  1  0  0  0
 14 13  1  0  0  0
 13  2  1  0  0  0
 14 16  1  0  0  0
 18 16  1  0  0  0
  2  4  1  0  0  0
 18 19  1  0  0  0
M  END
> <minimizedAffinity>
-5.90189

$$$$
3SW8_5LI_P_205


 19 19  0  0  0  0  0  0  0  0999 V2000
   26.3573   -5.1092    5.7409 C   0  0  0  0  0  0  0  0  0  0  0  0
   27.1360   -6.1793    5.4074 N   0  0  0  0  0  0  0  0  0  0  0  0
   26.0849   -4.1993    4.9689 O   0  0  0  0  0  0  0  0  0  0  0  0
   27.3279   -6.8796    6.0723 H   0  0  0  0  0  0  0  0  0  0  0  0
   26.1293   -4.5892    9.4120 C   0  0  0  0  0  0  0  0  0  0  0  0
   26.5757   -4.5811    8.1132 C   0  0  0  0  0  0  0  0  0  0  0  0
   24.9177   -5.1624    9.7266 C   0  0  0  0  0  0  0  0  0  0  0  0
   25.8168   -5.1497    7.1149 C   0  0  0  0  0  0  0  0  0  0  0  0
   24.1655   -5.7240    8.7220 C   0  0  0  0  0  0  0  0  0  0  0  0
   24.6002   -5.7260    7.4126 C   0  0  0  0  0  0  0  0  0  0  0  0
   22.6620   -6.4279    9.1650 Cl  0  0  0  0  0  0  0  0  0  0  0  0
   23.6297   -6.4445    6.1695 Cl  0  0  0  0  0  0  0  0  0  0  0  0
   27.6759   -6.2762    4.0727 C   0  0  0  0  0  0  0  0  0  0  0  0
   27.8520   -7.7173    3.6349 C   0  0  0  0  0  0  0  0  0  0  0  0
   26.8009   -9.7196    4.7467 C   0  0  0  0  0  0  0  0  0  0  0  0
   26.7461   -8.5303    4.0749 N   0  0  0  0  0  0  0  0  0  0  0  0
   25.8399  -10.3864    5.0966 O   0  0  0  0  0  0  0  0  0  0  0  0
   25.4552   -8.0667    3.7884 O   0  0  0  0  0  0  0  0  0  0  0  0
   24.8019   -8.6957    4.1325 H   0  0  0  0  0  0  0  0  0  0  0  0
  6  5  2  0  0  0
  5  7  1  0  0  0
  8  6  1  0  0  0
  9  7  2  0  0  0
  1  8  1  0  0  0
  8 10  2  0  0  0
 10  9  1  0  0  0
  9 11  1  0  0  0
 12 10  1  0  0  0
 16 15  1  0  0  0
 15 17  2  0  0  0
  3  1  2  0  0  0
  2  1  1  0  0  0
 14 13  1  0  0  0
 13  2  1  0  0  0
 14 16  1  0  0  0
 18 16  1  0  0  0
  2  4  1  0  0  0
 18 19  1  0  0  0
M  END
> <minimizedAffinity>
-5.87672

$$$$
3SW8_5LI_P_205


 19 19  0  0  0  0  0  0  0  0999 V2000
   25.6476   -6.4829    5.4392 C   0  0  0  0  0  0  0  0  0  0  0  0
   26.9494   -6.6673    5.0733 N   0  0  0  0  0  0  0  0  0  0  0  0
   24.8627   -5.7720    4.8255 O   0  0  0  0  0  0  0  0  0  0  0  0
   27.5382   -7.2464    5.6093 H   0  0  0  0  0  0  0  0  0  0  0  0
   24.9928   -7.3140    9.0000 C   0  0  0  0  0  0  0  0  0  0  0  0
   25.3607   -6.6478    7.8568 C   0  0  0  0  0  0  0  0  0  0  0  0
   24.4872   -8.5924    8.9270 C   0  0  0  0  0  0  0  0  0  0  0  0
   25.2304   -7.2544    6.6277 C   0  0  0  0  0  0  0  0  0  0  0  0
   24.3572   -9.1880    7.6945 C   0  0  0  0  0  0  0  0  0  0  0  0
   24.7237   -8.5335    6.5366 C   0  0  0  0  0  0  0  0  0  0  0  0
   23.7228  -10.7843    7.6554 Cl  0  0  0  0  0  0  0  0  0  0  0  0
   24.5501   -9.3127    4.9984 Cl  0  0  0  0  0  0  0  0  0  0  0  0
   27.4562   -6.0068    3.8946 C   0  0  0  0  0  0  0  0  0  0  0  0
   28.3209   -4.8105    4.2419 C   0  0  0  0  0  0  0  0  0  0  0  0
   27.8176   -3.5528    6.3667 C   0  0  0  0  0  0  0  0  0  0  0  0
   27.5957   -3.8667    5.0549 N   0  0  0  0  0  0  0  0  0  0  0  0
   27.1752   -2.7517    7.0272 O   0  0  0  0  0  0  0  0  0  0  0  0
   26.5337   -3.1818    4.4496 O   0  0  0  0  0  0  0  0  0  0  0  0
   26.1280   -2.5803    5.0935 H   0  0  0  0  0  0  0  0  0  0  0  0
  6  5  2  0  0  0
  5  7  1  0  0  0
  8  6  1  0  0  0
  9  7  2  0  0  0
  1  8  1  0  0  0
  8 10  2  0  0  0
 10  9  1  0  0  0
  9 11  1  0  0  0
 12 10  1  0  0  0
 16 15  1  0  0  0
 15 17  2  0  0  0
  3  1  2  0  0  0
  2  1  1  0  0  0
 14 13  1  0  0  0
 13  2  1  0  0  0
 14 16  1  0  0  0
 18 16  1  0  0  0
  2  4  1  0  0  0
 18 19  1  0  0  0
M  END
> <minimizedAffinity>
-5.86629

$$$$
