3S78_EVJ_B_1


 11 11  0  0  0  0  0  0  0  0999 V2000
   16.5373    1.1147   15.5934 S   0  0  0  0  0  0  0  0  0  0  0  0
   17.7962    1.2806   16.3384 O   0  0  0  0  0  0  0  0  0  0  0  0
   16.7318    0.3807   14.3463 O   0  0  0  0  0  0  0  0  0  0  0  0
   15.4453    0.4381   16.4976 N   0  0  0  0  0  0  0  0  0  0  0  0
   14.5816    0.3316   15.9655 H   0  0  0  0  0  0  0  0  0  0  0  0
   15.2710    1.0226   17.3152 H   0  0  0  0  0  0  0  0  0  0  0  0
   16.9744    3.7132   14.2191 S   0  0  0  0  0  0  0  0  0  0  0  0
   16.0677    2.6833   15.2180 C   0  0  0  0  0  0  0  0  0  0  0  0
   14.9155    3.3668   15.6014 C   0  0  0  0  0  0  0  0  0  0  0  0
   14.8255    4.6806   15.0715 C   0  0  0  0  0  0  0  0  0  0  0  0
   15.9065    5.0554   14.2585 C   0  0  0  0  0  0  0  0  0  0  0  0
  8  1  1  0  0  0
  3  1  2  0  0  0
  2  1  2  0  0  0
  1  4  1  0  0  0
 11  7  1  0  0  0
  8  7  1  0  0  0
  9  8  2  0  0  0
 10  9  1  0  0  0
 10 11  2  0  0  0
  4  5  1  0  0  0
  4  6  1  0  0  0
M  END
> <minimizedAffinity>
-5.35584

$$$$
3S78_EVJ_B_1


 11 11  0  0  0  0  0  0  0  0999 V2000
   16.5919    1.0780   15.5503 S   0  0  0  0  0  0  0  0  0  0  0  0
   15.6030    0.2586   16.2701 O   0  0  0  0  0  0  0  0  0  0  0  0
   17.8419    1.2064   16.2942 O   0  0  0  0  0  0  0  0  0  0  0  0
   16.8350    0.5090   14.1063 N   0  0  0  0  0  0  0  0  0  0  0  0
   17.5217    1.0885   13.6237 H   0  0  0  0  0  0  0  0  0  0  0  0
   15.9578    0.5165   13.5858 H   0  0  0  0  0  0  0  0  0  0  0  0
   16.3528    3.7737   14.3223 S   0  0  0  0  0  0  0  0  0  0  0  0
   15.8777    2.5949   15.4473 C   0  0  0  0  0  0  0  0  0  0  0  0
   14.8189    3.1153   16.1887 C   0  0  0  0  0  0  0  0  0  0  0  0
   14.4484    4.4328   15.8120 C   0  0  0  0  0  0  0  0  0  0  0  0
   15.2094    4.9740   14.7641 C   0  0  0  0  0  0  0  0  0  0  0  0
  8  1  1  0  0  0
  3  1  2  0  0  0
  2  1  2  0  0  0
  1  4  1  0  0  0
 11  7  1  0  0  0
  8  7  1  0  0  0
  9  8  2  0  0  0
 10  9  1  0  0  0
 10 11  2  0  0  0
  4  5  1  0  0  0
  4  6  1  0  0  0
M  END
> <minimizedAffinity>
-5.22247

$$$$
3S78_EVJ_B_1


 11 11  0  0  0  0  0  0  0  0999 V2000
   14.8770    1.5270   17.1893 S   0  0  0  0  0  0  0  0  0  0  0  0
   13.4804    1.2824   16.7932 O   0  0  0  0  0  0  0  0  0  0  0  0
   14.9793    2.0140   18.5621 O   0  0  0  0  0  0  0  0  0  0  0  0
   15.7482    0.2388   16.9670 N   0  0  0  0  0  0  0  0  0  0  0  0
   16.7109    0.4271   17.2464 H   0  0  0  0  0  0  0  0  0  0  0  0
   15.7250   -0.0212   15.9809 H   0  0  0  0  0  0  0  0  0  0  0  0
   16.9325    2.7665   15.4370 S   0  0  0  0  0  0  0  0  0  0  0  0
   15.3945    2.7449   16.1545 C   0  0  0  0  0  0  0  0  0  0  0  0
   14.6965    3.8623   15.7008 C   0  0  0  0  0  0  0  0  0  0  0  0
   15.4367    4.6742   14.8018 C   0  0  0  0  0  0  0  0  0  0  0  0
   16.7328    4.2090   14.5300 C   0  0  0  0  0  0  0  0  0  0  0  0
  8  1  1  0  0  0
  3  1  2  0  0  0
  2  1  2  0  0  0
  1  4  1  0  0  0
 11  7  1  0  0  0
  8  7  1  0  0  0
  9  8  2  0  0  0
 10  9  1  0  0  0
 10 11  2  0  0  0
  4  5  1  0  0  0
  4  6  1  0  0  0
M  END
> <minimizedAffinity>
-5.11893

$$$$
3S78_EVJ_B_1


 11 11  0  0  0  0  0  0  0  0999 V2000
   14.9860    1.5816   17.4022 S   0  0  0  0  0  0  0  0  0  0  0  0
   14.9335    2.4111   18.6174 O   0  0  0  0  0  0  0  0  0  0  0  0
   15.8032    0.3862   17.5904 O   0  0  0  0  0  0  0  0  0  0  0  0
   13.5362    1.2197   16.9174 N   0  0  0  0  0  0  0  0  0  0  0  0
   13.5924    0.6458   16.0760 H   0  0  0  0  0  0  0  0  0  0  0  0
   13.0230    2.0766   16.7107 H   0  0  0  0  0  0  0  0  0  0  0  0
   14.9230    3.7820   15.4057 S   0  0  0  0  0  0  0  0  0  0  0  0
   15.7349    2.5623   16.2624 C   0  0  0  0  0  0  0  0  0  0  0  0
   17.0699    2.5773   15.8636 C   0  0  0  0  0  0  0  0  0  0  0  0
   17.3663    3.5680   14.8910 C   0  0  0  0  0  0  0  0  0  0  0  0
   16.2682    4.3533   14.5070 C   0  0  0  0  0  0  0  0  0  0  0  0
  8  1  1  0  0  0
  3  1  2  0  0  0
  2  1  2  0  0  0
  1  4  1  0  0  0
 11  7  1  0  0  0
  8  7  1  0  0  0
  9  8  2  0  0  0
 10  9  1  0  0  0
 10 11  2  0  0  0
  4  5  1  0  0  0
  4  6  1  0  0  0
M  END
> <minimizedAffinity>
-5.06867

$$$$
3S78_EVJ_B_1


 11 11  0  0  0  0  0  0  0  0999 V2000
   16.5737    1.3865   15.6880 S   0  0  0  0  0  0  0  0  0  0  0  0
   15.7082    2.5432   15.9717 O   0  0  0  0  0  0  0  0  0  0  0  0
   17.9254    1.5738   16.2073 O   0  0  0  0  0  0  0  0  0  0  0  0
   15.9240    0.0637   16.2320 N   0  0  0  0  0  0  0  0  0  0  0  0
   16.5367   -0.7255   16.0266 H   0  0  0  0  0  0  0  0  0  0  0  0
   15.0202   -0.0813   15.7819 H   0  0  0  0  0  0  0  0  0  0  0  0
   16.4913    2.7000   13.0234 S   0  0  0  0  0  0  0  0  0  0  0  0
   16.6528    1.3292   14.0110 C   0  0  0  0  0  0  0  0  0  0  0  0
   16.8826    0.2320   13.1832 C   0  0  0  0  0  0  0  0  0  0  0  0
   16.9155    0.5539   11.8010 C   0  0  0  0  0  0  0  0  0  0  0  0
   16.7135    1.9131   11.5152 C   0  0  0  0  0  0  0  0  0  0  0  0
  8  1  1  0  0  0
  3  1  2  0  0  0
  2  1  2  0  0  0
  1  4  1  0  0  0
 11  7  1  0  0  0
  8  7  1  0  0  0
  9  8  2  0  0  0
 10  9  1  0  0  0
 10 11  2  0  0  0
  4  5  1  0  0  0
  4  6  1  0  0  0
M  END
> <minimizedAffinity>
-5.02523

$$$$
3S78_EVJ_B_1


 11 11  0  0  0  0  0  0  0  0999 V2000
   15.8725    3.7499   14.5198 S   0  0  0  0  0  0  0  0  0  0  0  0
   15.8413    3.0209   13.2412 O   0  0  0  0  0  0  0  0  0  0  0  0
   17.2236    4.1746   14.8750 O   0  0  0  0  0  0  0  0  0  0  0  0
   14.8750    4.9631   14.4886 N   0  0  0  0  0  0  0  0  0  0  0  0
   14.9103    5.4553   15.3813 H   0  0  0  0  0  0  0  0  0  0  0  0
   13.9281    4.6207   14.3263 H   0  0  0  0  0  0  0  0  0  0  0  0
   16.2329    1.2220   16.0403 S   0  0  0  0  0  0  0  0  0  0  0  0
   15.3558    2.6224   15.6528 C   0  0  0  0  0  0  0  0  0  0  0  0
   14.2128    2.6438   16.4497 C   0  0  0  0  0  0  0  0  0  0  0  0
   14.1051    1.5332   17.3272 C   0  0  0  0  0  0  0  0  0  0  0  0
   15.1641    0.6163   17.2379 C   0  0  0  0  0  0  0  0  0  0  0  0
  8  1  1  0  0  0
  3  1  2  0  0  0
  2  1  2  0  0  0
  1  4  1  0  0  0
 11  7  1  0  0  0
  8  7  1  0  0  0
  9  8  2  0  0  0
 10  9  1  0  0  0
 10 11  2  0  0  0
  4  5  1  0  0  0
  4  6  1  0  0  0
M  END
> <minimizedAffinity>
-4.90388

$$$$
3S78_EVJ_B_1


 11 11  0  0  0  0  0  0  0  0999 V2000
   16.5377    1.2312   15.6563 S   0  0  0  0  0  0  0  0  0  0  0  0
   17.8811    1.5549   16.1641 O   0  0  0  0  0  0  0  0  0  0  0  0
   16.1962   -0.1727   15.8674 O   0  0  0  0  0  0  0  0  0  0  0  0
   15.4633    2.1882   16.2869 N   0  0  0  0  0  0  0  0  0  0  0  0
   14.5405    1.9494   15.9240 H   0  0  0  0  0  0  0  0  0  0  0  0
   15.6844    3.1541   16.0449 H   0  0  0  0  0  0  0  0  0  0  0  0
   16.9590    0.2853   12.8707 S   0  0  0  0  0  0  0  0  0  0  0  0
   16.6411    1.5092   14.0028 C   0  0  0  0  0  0  0  0  0  0  0  0
   16.4646    2.7015   13.3036 C   0  0  0  0  0  0  0  0  0  0  0  0
   16.5951    2.5655   11.8966 C   0  0  0  0  0  0  0  0  0  0  0  0
   16.8758    1.2608   11.4618 C   0  0  0  0  0  0  0  0  0  0  0  0
  8  1  1  0  0  0
  3  1  2  0  0  0
  2  1  2  0  0  0
  1  4  1  0  0  0
 11  7  1  0  0  0
  8  7  1  0  0  0
  9  8  2  0  0  0
 10  9  1  0  0  0
 10 11  2  0  0  0
  4  5  1  0  0  0
  4  6  1  0  0  0
M  END
> <minimizedAffinity>
-4.86692

$$$$
3S78_EVJ_B_1


 11 11  0  0  0  0  0  0  0  0999 V2000
   16.6145    2.3867   13.7696 S   0  0  0  0  0  0  0  0  0  0  0  0
   17.7934    3.2348   14.0112 O   0  0  0  0  0  0  0  0  0  0  0  0
   15.7955    2.8883   12.6697 O   0  0  0  0  0  0  0  0  0  0  0  0
   17.0460    0.8946   13.5347 N   0  0  0  0  0  0  0  0  0  0  0  0
   16.2175    0.3231   13.3694 H   0  0  0  0  0  0  0  0  0  0  0  0
   17.5383    0.5493   14.3586 H   0  0  0  0  0  0  0  0  0  0  0  0
   15.8055    1.3509   16.4351 S   0  0  0  0  0  0  0  0  0  0  0  0
   15.7236    2.5007   15.1892 C   0  0  0  0  0  0  0  0  0  0  0  0
   14.8434    3.5033   15.5913 C   0  0  0  0  0  0  0  0  0  0  0  0
   14.2831    3.2916   16.8784 C   0  0  0  0  0  0  0  0  0  0  0  0
   14.7141    2.1171   17.5146 C   0  0  0  0  0  0  0  0  0  0  0  0
  8  1  1  0  0  0
  3  1  2  0  0  0
  2  1  2  0  0  0
  1  4  1  0  0  0
 11  7  1  0  0  0
  8  7  1  0  0  0
  9  8  2  0  0  0
 10  9  1  0  0  0
 10 11  2  0  0  0
  4  5  1  0  0  0
  4  6  1  0  0  0
M  END
> <minimizedAffinity>
-4.83979

$$$$
3S78_EVJ_B_1


 11 11  0  0  0  0  0  0  0  0999 V2000
   16.7173    1.2807   11.6755 S   0  0  0  0  0  0  0  0  0  0  0  0
   16.6093   -0.1750   11.4837 O   0  0  0  0  0  0  0  0  0  0  0  0
   17.9730    1.8102   11.1512 O   0  0  0  0  0  0  0  0  0  0  0  0
   15.4759    2.0138   11.0514 N   0  0  0  0  0  0  0  0  0  0  0  0
   15.5681    3.0196   11.1937 H   0  0  0  0  0  0  0  0  0  0  0  0
   14.6233    1.6832   11.5033 H   0  0  0  0  0  0  0  0  0  0  0  0
   16.5987    2.9963   14.0992 S   0  0  0  0  0  0  0  0  0  0  0  0
   16.7123    1.4809   13.3434 C   0  0  0  0  0  0  0  0  0  0  0  0
   16.7627    0.5095   14.3410 C   0  0  0  0  0  0  0  0  0  0  0  0
   16.7077    1.0369   15.6578 C   0  0  0  0  0  0  0  0  0  0  0  0
   16.6113    2.4358   15.7207 C   0  0  0  0  0  0  0  0  0  0  0  0
  8  1  1  0  0  0
  3  1  2  0  0  0
  2  1  2  0  0  0
  1  4  1  0  0  0
 11  7  1  0  0  0
  8  7  1  0  0  0
  9  8  2  0  0  0
 10  9  1  0  0  0
 10 11  2  0  0  0
  4  5  1  0  0  0
  4  6  1  0  0  0
M  END
> <minimizedAffinity>
-4.71120

$$$$
3S78_EVJ_B_1


 11 11  0  0  0  0  0  0  0  0999 V2000
   16.5144    1.2794   15.3578 S   0  0  0  0  0  0  0  0  0  0  0  0
   16.7972    0.7075   14.0310 O   0  0  0  0  0  0  0  0  0  0  0  0
   15.3358    0.6763   15.9739 O   0  0  0  0  0  0  0  0  0  0  0  0
   17.7748    1.1656   16.2886 N   0  0  0  0  0  0  0  0  0  0  0  0
   17.5603    1.5662   17.2018 H   0  0  0  0  0  0  0  0  0  0  0  0
   18.5540    1.6730   15.8692 H   0  0  0  0  0  0  0  0  0  0  0  0
   14.6750    3.6136   15.3559 S   0  0  0  0  0  0  0  0  0  0  0  0
   16.1830    2.8972   15.0502 C   0  0  0  0  0  0  0  0  0  0  0  0
   17.0321    3.8852   14.5555 C   0  0  0  0  0  0  0  0  0  0  0  0
   16.4234    5.1632   14.4491 C   0  0  0  0  0  0  0  0  0  0  0  0
   15.0820    5.2049   14.8603 C   0  0  0  0  0  0  0  0  0  0  0  0
  8  1  1  0  0  0
  3  1  2  0  0  0
  2  1  2  0  0  0
  1  4  1  0  0  0
 11  7  1  0  0  0
  8  7  1  0  0  0
  9  8  2  0  0  0
 10  9  1  0  0  0
 10 11  2  0  0  0
  4  5  1  0  0  0
  4  6  1  0  0  0
M  END
> <minimizedAffinity>
-4.66988

$$$$
