4CJQ_VXO_A_1214


 35 38  0  0  0  0  0  0  0  0999 V2000
   -8.6949   44.3291   -0.1476 C   0  0  0  0  0  0  0  0  0  0  0  0
  -10.1465   44.3576    0.2899 C   0  0  0  0  0  0  0  0  0  0  0  0
  -10.8158   43.6504   -1.9716 C   0  0  0  0  0  0  0  0  0  0  0  0
  -11.6703   43.5633   -3.0490 C   0  0  0  0  0  0  0  0  0  0  0  0
  -12.3790   44.9909   -0.7382 C   0  0  0  0  0  0  0  0  0  0  0  0
  -11.1466   44.3570   -0.8260 C   0  0  0  0  0  0  0  0  0  0  0  0
  -12.8770   44.1995   -2.9494 C   0  0  0  0  0  0  0  0  0  0  0  0
  -13.2118   44.8916   -1.8287 C   0  0  0  0  0  0  0  0  0  0  0  0
  -14.9218   44.7659   -3.1119 C   0  0  0  0  0  0  0  0  0  0  0  0
  -13.8613   44.2174   -3.9010 O   0  0  0  0  0  0  0  0  0  0  0  0
  -14.4567   45.4360   -1.9319 O   0  0  0  0  0  0  0  0  0  0  0  0
  -12.8492   45.7751    0.4321 C   0  0  0  0  0  0  0  0  0  0  0  0
  -12.2452   46.8492    0.7074 O   0  0  0  0  0  0  0  0  0  0  0  0
  -13.7997   45.2810    1.0978 O   0  0  0  0  0  0  0  0  0  0  0  0
  -14.1948   44.4766    0.8242 H   0  0  0  0  0  0  0  0  0  0  0  0
   -7.7751   44.1076    1.0441 C   0  0  0  0  0  0  0  0  0  0  0  0
   -7.4225   41.8650   -0.0748 C   0  0  0  0  0  0  0  0  0  0  0  0
   -5.6209   42.9364    1.2678 C   0  0  0  0  0  0  0  0  0  0  0  0
   -7.1185   42.7338    1.1302 C   0  0  0  0  0  0  0  0  0  0  0  0
   -8.3240   45.6526   -0.7933 C   0  0  0  0  0  0  0  0  0  0  0  0
   -6.7983   47.4667   -0.1274 C   0  0  0  0  0  0  0  0  0  0  0  0
   -7.8615   46.6358    0.1638 N   0  0  0  0  0  0  0  0  0  0  0  0
   -6.3813   47.7296   -1.2448 O   0  0  0  0  0  0  0  0  0  0  0  0
   -8.3121   46.7128    1.0357 H   0  0  0  0  0  0  0  0  0  0  0  0
   -6.1490   48.0240    1.1038 C   0  0  0  0  0  0  0  0  0  0  0  0
   -6.1090   45.1685    4.6509 C   0  0  0  0  0  0  0  0  0  0  0  0
   -4.8969   44.5480    4.8486 C   0  0  0  0  0  0  0  0  0  0  0  0
   -6.3027   46.0643    3.6230 C   0  0  0  0  0  0  0  0  0  0  0  0
   -3.8194   44.7910    4.0254 C   0  0  0  0  0  0  0  0  0  0  0  0
   -3.7830   47.0196    1.2180 C   0  0  0  0  0  0  0  0  0  0  0  0
   -5.2348   46.3248    2.7851 C   0  0  0  0  0  0  0  0  0  0  0  0
   -5.0814   47.1692    1.6552 C   0  0  0  0  0  0  0  0  0  0  0  0
   -4.0298   45.6869    3.0035 C   0  0  0  0  0  0  0  0  0  0  0  0
   -3.1616   46.1226    2.0408 N   0  0  0  0  0  0  0  0  0  0  0  0
   -2.2250   45.8322    1.9532 H   0  0  0  0  0  0  0  0  0  0  0  0
 26 27  1  0  0  0
 26 28  2  0  0  0
 27 29  2  0  0  0
 28 31  1  0  0  0
  3  4  1  0  0  0
  3  6  2  0  0  0
 29 33  1  0  0  0
  4  7  2  0  0  0
 30 32  2  0  0  0
 30 34  1  0  0  0
 31 32  1  0  0  0
 31 33  2  0  0  0
  5  6  1  0  0  0
  5  8  2  0  0  0
  5 12  1  0  0  0
  6  2  1  0  0  0
 32 25  1  0  0  0
 33 34  1  0  0  0
  7  8  1  0  0  0
  7 10  1  0  0  0
  8 11  1  0  0  0
 12 13  2  0  0  0
 12 14  1  0  0  0
 21 25  1  0  0  0
 21 22  1  0  0  0
 21 23  2  0  0  0
  9 10  1  0  0  0
  9 11  1  0  0  0
 17 19  1  0  0  0
 18 19  1  0  0  0
  2  1  1  0  0  0
 16 19  1  0  0  0
 16  1  1  0  0  0
 20  1  1  0  0  0
 20 22  1  0  0  0
 34 35  1  0  0  0
 22 24  1  0  0  0
 14 15  1  0  0  0
M  END
> <minimizedAffinity>
-8.12351

$$$$
4CJQ_VXO_A_1214


 35 38  0  0  0  0  0  0  0  0999 V2000
   -8.7242   44.3633   -0.4210 C   0  0  0  0  0  0  0  0  0  0  0  0
  -10.1478   44.4503    0.0937 C   0  0  0  0  0  0  0  0  0  0  0  0
  -10.9216   43.7597   -2.1394 C   0  0  0  0  0  0  0  0  0  0  0  0
  -11.8320   43.6645   -3.1693 C   0  0  0  0  0  0  0  0  0  0  0  0
  -12.4515   45.0334   -0.7981 C   0  0  0  0  0  0  0  0  0  0  0  0
  -11.2082   44.4378   -0.9650 C   0  0  0  0  0  0  0  0  0  0  0  0
  -13.0490   44.2629   -2.9920 C   0  0  0  0  0  0  0  0  0  0  0  0
  -13.3406   44.9267   -1.8424 C   0  0  0  0  0  0  0  0  0  0  0  0
  -15.1153   44.7708   -3.0311 C   0  0  0  0  0  0  0  0  0  0  0  0
  -14.0850   44.2667   -3.8872 O   0  0  0  0  0  0  0  0  0  0  0  0
  -14.6045   45.4355   -1.8671 O   0  0  0  0  0  0  0  0  0  0  0  0
  -12.8782   45.7844    0.4101 C   0  0  0  0  0  0  0  0  0  0  0  0
  -12.1925   46.7859    0.7584 O   0  0  0  0  0  0  0  0  0  0  0  0
  -13.8795   45.3339    1.0306 O   0  0  0  0  0  0  0  0  0  0  0  0
  -14.3346   44.5831    0.7033 H   0  0  0  0  0  0  0  0  0  0  0  0
   -7.7453   44.1641    0.7268 C   0  0  0  0  0  0  0  0  0  0  0  0
   -5.9881   42.7024    1.8135 C   0  0  0  0  0  0  0  0  0  0  0  0
   -7.3970   41.8558   -0.0559 C   0  0  0  0  0  0  0  0  0  0  0  0
   -6.7004   43.0716    0.5267 C   0  0  0  0  0  0  0  0  0  0  0  0
   -8.3558   45.6487   -1.1408 C   0  0  0  0  0  0  0  0  0  0  0  0
   -7.0899   47.6014   -0.3363 C   0  0  0  0  0  0  0  0  0  0  0  0
   -8.1877   46.7699   -0.2400 N   0  0  0  0  0  0  0  0  0  0  0  0
   -6.3756   47.7318   -1.3184 O   0  0  0  0  0  0  0  0  0  0  0  0
   -8.8667   46.9418    0.4517 H   0  0  0  0  0  0  0  0  0  0  0  0
   -6.8179   48.3456    0.9365 C   0  0  0  0  0  0  0  0  0  0  0  0
   -3.3861   45.6275    2.1902 C   0  0  0  0  0  0  0  0  0  0  0  0
   -3.6103   44.9628    3.3739 C   0  0  0  0  0  0  0  0  0  0  0  0
   -4.3173   46.4926    1.6600 C   0  0  0  0  0  0  0  0  0  0  0  0
   -4.7762   45.1334    4.0874 C   0  0  0  0  0  0  0  0  0  0  0  0
   -7.5121   47.2565    3.1617 C   0  0  0  0  0  0  0  0  0  0  0  0
   -5.4956   46.6781    2.3581 C   0  0  0  0  0  0  0  0  0  0  0  0
   -6.6447   47.4737    2.1130 C   0  0  0  0  0  0  0  0  0  0  0  0
   -5.6949   46.0012    3.5450 C   0  0  0  0  0  0  0  0  0  0  0  0
   -6.9254   46.3665    4.0170 N   0  0  0  0  0  0  0  0  0  0  0  0
   -7.3298   46.0364    4.8517 H   0  0  0  0  0  0  0  0  0  0  0  0
 26 27  1  0  0  0
 26 28  2  0  0  0
 27 29  2  0  0  0
 28 31  1  0  0  0
  3  4  1  0  0  0
  3  6  2  0  0  0
 29 33  1  0  0  0
  4  7  2  0  0  0
 30 32  2  0  0  0
 30 34  1  0  0  0
 31 32  1  0  0  0
 31 33  2  0  0  0
  5  6  1  0  0  0
  5  8  2  0  0  0
  5 12  1  0  0  0
  6  2  1  0  0  0
 32 25  1  0  0  0
 33 34  1  0  0  0
  7  8  1  0  0  0
  7 10  1  0  0  0
  8 11  1  0  0  0
 12 13  2  0  0  0
 12 14  1  0  0  0
 21 25  1  0  0  0
 21 22  1  0  0  0
 21 23  2  0  0  0
  9 10  1  0  0  0
  9 11  1  0  0  0
 17 19  1  0  0  0
 18 19  1  0  0  0
  2  1  1  0  0  0
 16 19  1  0  0  0
 16  1  1  0  0  0
 20  1  1  0  0  0
 20 22  1  0  0  0
 34 35  1  0  0  0
 22 24  1  0  0  0
 14 15  1  0  0  0
M  END
> <minimizedAffinity>
-8.03355

$$$$
4CJQ_VXO_A_1214


 35 38  0  0  0  0  0  0  0  0999 V2000
   -8.6600   44.8259    0.6788 C   0  0  0  0  0  0  0  0  0  0  0  0
  -10.1404   44.5773    0.8935 C   0  0  0  0  0  0  0  0  0  0  0  0
  -10.4108   43.6854   -1.3855 C   0  0  0  0  0  0  0  0  0  0  0  0
  -11.0796   43.4783   -2.5723 C   0  0  0  0  0  0  0  0  0  0  0  0
  -12.2101   45.0112   -0.5101 C   0  0  0  0  0  0  0  0  0  0  0  0
  -10.9509   44.4454   -0.3600 C   0  0  0  0  0  0  0  0  0  0  0  0
  -12.3155   44.0487   -2.7070 C   0  0  0  0  0  0  0  0  0  0  0  0
  -12.8550   44.7923   -1.7055 C   0  0  0  0  0  0  0  0  0  0  0  0
  -14.3335   44.4836   -3.2238 C   0  0  0  0  0  0  0  0  0  0  0  0
  -13.1372   43.9469   -3.7975 O   0  0  0  0  0  0  0  0  0  0  0  0
  -14.0923   45.2556   -2.0391 O   0  0  0  0  0  0  0  0  0  0  0  0
  -12.8954   45.8419    0.5126 C   0  0  0  0  0  0  0  0  0  0  0  0
  -12.3809   46.9550    0.8142 O   0  0  0  0  0  0  0  0  0  0  0  0
  -13.9281   45.3479    1.0419 O   0  0  0  0  0  0  0  0  0  0  0  0
  -14.2456   44.5129    0.7593 H   0  0  0  0  0  0  0  0  0  0  0  0
   -7.8250   43.7911    1.4184 C   0  0  0  0  0  0  0  0  0  0  0  0
   -5.5074   42.7743    1.3985 C   0  0  0  0  0  0  0  0  0  0  0  0
   -7.3515   41.8134    0.0302 C   0  0  0  0  0  0  0  0  0  0  0  0
   -6.7523   43.0893    0.5921 C   0  0  0  0  0  0  0  0  0  0  0  0
   -8.2857   46.2007    1.2042 C   0  0  0  0  0  0  0  0  0  0  0  0
   -9.2214   47.9063    2.7135 C   0  0  0  0  0  0  0  0  0  0  0  0
   -9.4108   46.9098    1.7771 N   0  0  0  0  0  0  0  0  0  0  0  0
   -8.1866   48.5287    2.8961 O   0  0  0  0  0  0  0  0  0  0  0  0
  -10.3248   46.6776    1.4944 H   0  0  0  0  0  0  0  0  0  0  0  0
  -10.4431   48.1528    3.5470 C   0  0  0  0  0  0  0  0  0  0  0  0
  -12.9454   50.9230    6.1551 C   0  0  0  0  0  0  0  0  0  0  0  0
  -13.4226   52.0286    5.4896 C   0  0  0  0  0  0  0  0  0  0  0  0
  -12.1691   49.9780    5.5218 C   0  0  0  0  0  0  0  0  0  0  0  0
  -13.1441   52.2451    4.1580 C   0  0  0  0  0  0  0  0  0  0  0  0
  -11.1813   50.1109    2.0502 C   0  0  0  0  0  0  0  0  0  0  0  0
  -11.8780   50.1737    4.1849 C   0  0  0  0  0  0  0  0  0  0  0  0
  -11.1270   49.4235    3.2434 C   0  0  0  0  0  0  0  0  0  0  0  0
  -12.3670   51.2929    3.5409 C   0  0  0  0  0  0  0  0  0  0  0  0
  -11.9324   51.2360    2.2454 N   0  0  0  0  0  0  0  0  0  0  0  0
  -12.1316   51.9078    1.5539 H   0  0  0  0  0  0  0  0  0  0  0  0
 26 27  1  0  0  0
 26 28  2  0  0  0
 27 29  2  0  0  0
 28 31  1  0  0  0
  3  4  1  0  0  0
  3  6  2  0  0  0
 29 33  1  0  0  0
  4  7  2  0  0  0
 30 32  2  0  0  0
 30 34  1  0  0  0
 31 32  1  0  0  0
 31 33  2  0  0  0
  5  6  1  0  0  0
  5  8  2  0  0  0
  5 12  1  0  0  0
  6  2  1  0  0  0
 32 25  1  0  0  0
 33 34  1  0  0  0
  7  8  1  0  0  0
  7 10  1  0  0  0
  8 11  1  0  0  0
 12 13  2  0  0  0
 12 14  1  0  0  0
 21 25  1  0  0  0
 21 22  1  0  0  0
 21 23  2  0  0  0
  9 10  1  0  0  0
  9 11  1  0  0  0
 17 19  1  0  0  0
 18 19  1  0  0  0
  2  1  1  0  0  0
 16 19  1  0  0  0
 16  1  1  0  0  0
 20  1  1  0  0  0
 20 22  1  0  0  0
 34 35  1  0  0  0
 22 24  1  0  0  0
 14 15  1  0  0  0
M  END
> <minimizedAffinity>
-7.89372

$$$$
4CJQ_VXO_A_1214


 35 38  0  0  0  0  0  0  0  0999 V2000
   -8.6481   44.5119   -0.2613 C   0  0  0  0  0  0  0  0  0  0  0  0
  -10.0886   44.4220    0.2035 C   0  0  0  0  0  0  0  0  0  0  0  0
  -10.7875   43.6850   -2.0394 C   0  0  0  0  0  0  0  0  0  0  0  0
  -11.6605   43.5737   -3.0996 C   0  0  0  0  0  0  0  0  0  0  0  0
  -12.3518   45.0057   -0.7863 C   0  0  0  0  0  0  0  0  0  0  0  0
  -11.1096   44.3942   -0.8930 C   0  0  0  0  0  0  0  0  0  0  0  0
  -12.8768   44.1881   -2.9816 C   0  0  0  0  0  0  0  0  0  0  0  0
  -13.2031   44.8825   -1.8598 C   0  0  0  0  0  0  0  0  0  0  0  0
  -14.9346   44.7151   -3.1091 C   0  0  0  0  0  0  0  0  0  0  0  0
  -13.8791   44.1803   -3.9143 O   0  0  0  0  0  0  0  0  0  0  0  0
  -14.4598   45.4028   -1.9432 O   0  0  0  0  0  0  0  0  0  0  0  0
  -12.8143   45.7900    0.3871 C   0  0  0  0  0  0  0  0  0  0  0  0
  -13.6729   45.2650    1.1498 O   0  0  0  0  0  0  0  0  0  0  0  0
  -12.3423   46.9530    0.5105 O   0  0  0  0  0  0  0  0  0  0  0  0
  -11.7060   47.2677   -0.1010 H   0  0  0  0  0  0  0  0  0  0  0  0
   -7.6961   44.5168    0.9256 C   0  0  0  0  0  0  0  0  0  0  0  0
   -6.4700   42.8349    2.3656 C   0  0  0  0  0  0  0  0  0  0  0  0
   -7.1654   42.2814    0.0405 C   0  0  0  0  0  0  0  0  0  0  0  0
   -6.6794   43.3809    0.9665 C   0  0  0  0  0  0  0  0  0  0  0  0
   -8.4371   45.7962   -1.0438 C   0  0  0  0  0  0  0  0  0  0  0  0
   -9.4004   48.0259   -0.6401 C   0  0  0  0  0  0  0  0  0  0  0  0
   -8.5938   46.9834   -0.2297 N   0  0  0  0  0  0  0  0  0  0  0  0
  -10.2958   47.9543   -1.4677 O   0  0  0  0  0  0  0  0  0  0  0  0
   -8.1179   47.0481    0.6296 H   0  0  0  0  0  0  0  0  0  0  0  0
   -9.0496   49.3222    0.0265 C   0  0  0  0  0  0  0  0  0  0  0  0
   -9.9350   48.2102    4.3529 C   0  0  0  0  0  0  0  0  0  0  0  0
  -10.9992   48.8945    4.8938 C   0  0  0  0  0  0  0  0  0  0  0  0
   -9.5255   48.4207    3.0550 C   0  0  0  0  0  0  0  0  0  0  0  0
  -11.7043   49.8257    4.1636 C   0  0  0  0  0  0  0  0  0  0  0  0
  -11.0597   50.7506    0.7608 C   0  0  0  0  0  0  0  0  0  0  0  0
  -10.2194   49.3496    2.3027 C   0  0  0  0  0  0  0  0  0  0  0  0
  -10.0765   49.8072    0.9673 C   0  0  0  0  0  0  0  0  0  0  0  0
  -11.2820   50.0247    2.8700 C   0  0  0  0  0  0  0  0  0  0  0  0
  -11.7783   50.8709    1.9171 N   0  0  0  0  0  0  0  0  0  0  0  0
  -12.5423   51.4784    2.0454 H   0  0  0  0  0  0  0  0  0  0  0  0
 26 27  1  0  0  0
 26 28  2  0  0  0
 27 29  2  0  0  0
 28 31  1  0  0  0
  3  4  1  0  0  0
  3  6  2  0  0  0
 29 33  1  0  0  0
  4  7  2  0  0  0
 30 32  2  0  0  0
 30 34  1  0  0  0
 31 32  1  0  0  0
 31 33  2  0  0  0
  5  6  1  0  0  0
  5  8  2  0  0  0
  5 12  1  0  0  0
  6  2  1  0  0  0
 32 25  1  0  0  0
 33 34  1  0  0  0
  7  8  1  0  0  0
  7 10  1  0  0  0
  8 11  1  0  0  0
 12 13  2  0  0  0
 12 14  1  0  0  0
 21 25  1  0  0  0
 21 22  1  0  0  0
 21 23  2  0  0  0
  9 10  1  0  0  0
  9 11  1  0  0  0
 17 19  1  0  0  0
 18 19  1  0  0  0
  2  1  1  0  0  0
 16 19  1  0  0  0
 16  1  1  0  0  0
 20  1  1  0  0  0
 20 22  1  0  0  0
 34 35  1  0  0  0
 22 24  1  0  0  0
 14 15  1  0  0  0
M  END
> <minimizedAffinity>
-7.64019

$$$$
4CJQ_VXO_A_1214


 35 38  0  0  0  0  0  0  0  0999 V2000
   -8.6229   44.4499   -0.1874 C   0  0  0  0  0  0  0  0  0  0  0  0
  -10.0518   44.1917    0.2497 C   0  0  0  0  0  0  0  0  0  0  0  0
  -10.7788   43.5710   -2.0193 C   0  0  0  0  0  0  0  0  0  0  0  0
  -11.6546   43.5373   -3.0826 C   0  0  0  0  0  0  0  0  0  0  0  0
  -12.2870   44.9084   -0.7161 C   0  0  0  0  0  0  0  0  0  0  0  0
  -11.0718   44.2491   -0.8466 C   0  0  0  0  0  0  0  0  0  0  0  0
  -12.8438   44.1979   -2.9407 C   0  0  0  0  0  0  0  0  0  0  0  0
  -13.1416   44.8624   -1.7931 C   0  0  0  0  0  0  0  0  0  0  0  0
  -14.8772   44.8164   -3.0469 C   0  0  0  0  0  0  0  0  0  0  0  0
  -13.8445   44.2682   -3.8724 O   0  0  0  0  0  0  0  0  0  0  0  0
  -14.3749   45.4385   -1.8560 O   0  0  0  0  0  0  0  0  0  0  0  0
  -12.7171   45.6664    0.4865 C   0  0  0  0  0  0  0  0  0  0  0  0
  -11.9705   46.5977    0.8986 O   0  0  0  0  0  0  0  0  0  0  0  0
  -13.7865   45.2898    1.0387 O   0  0  0  0  0  0  0  0  0  0  0  0
  -14.2838   44.5880    0.6670 H   0  0  0  0  0  0  0  0  0  0  0  0
   -7.6600   44.2676    0.9766 C   0  0  0  0  0  0  0  0  0  0  0  0
   -7.2778   42.0121   -0.1061 C   0  0  0  0  0  0  0  0  0  0  0  0
   -5.5459   43.0598    1.3427 C   0  0  0  0  0  0  0  0  0  0  0  0
   -7.0352   42.8830    1.1113 C   0  0  0  0  0  0  0  0  0  0  0  0
   -8.4878   45.8744   -0.6960 C   0  0  0  0  0  0  0  0  0  0  0  0
   -7.7479   48.0839    0.0997 C   0  0  0  0  0  0  0  0  0  0  0  0
   -8.2668   46.8329    0.3667 N   0  0  0  0  0  0  0  0  0  0  0  0
   -7.7535   48.6436   -0.9858 O   0  0  0  0  0  0  0  0  0  0  0  0
   -8.4901   46.5885    1.2939 H   0  0  0  0  0  0  0  0  0  0  0  0
   -7.1212   48.7167    1.3058 C   0  0  0  0  0  0  0  0  0  0  0  0
  -11.1197   49.8639    3.1588 C   0  0  0  0  0  0  0  0  0  0  0  0
  -11.3477   49.2850    4.3861 C   0  0  0  0  0  0  0  0  0  0  0  0
   -9.9612   49.6276    2.4527 C   0  0  0  0  0  0  0  0  0  0  0  0
  -10.4288   48.4384    4.9662 C   0  0  0  0  0  0  0  0  0  0  0  0
   -7.2689   47.4913    3.5633 C   0  0  0  0  0  0  0  0  0  0  0  0
   -9.0240   48.7824    3.0162 C   0  0  0  0  0  0  0  0  0  0  0  0
   -7.7525   48.3277    2.5805 C   0  0  0  0  0  0  0  0  0  0  0  0
   -9.2781   48.2122    4.2478 C   0  0  0  0  0  0  0  0  0  0  0  0
   -8.2000   47.4315    4.5620 N   0  0  0  0  0  0  0  0  0  0  0  0
   -8.1081   46.9031    5.3876 H   0  0  0  0  0  0  0  0  0  0  0  0
 26 27  1  0  0  0
 26 28  2  0  0  0
 27 29  2  0  0  0
 28 31  1  0  0  0
  3  4  1  0  0  0
  3  6  2  0  0  0
 29 33  1  0  0  0
  4  7  2  0  0  0
 30 32  2  0  0  0
 30 34  1  0  0  0
 31 32  1  0  0  0
 31 33  2  0  0  0
  5  6  1  0  0  0
  5  8  2  0  0  0
  5 12  1  0  0  0
  6  2  1  0  0  0
 32 25  1  0  0  0
 33 34  1  0  0  0
  7  8  1  0  0  0
  7 10  1  0  0  0
  8 11  1  0  0  0
 12 13  2  0  0  0
 12 14  1  0  0  0
 21 25  1  0  0  0
 21 22  1  0  0  0
 21 23  2  0  0  0
  9 10  1  0  0  0
  9 11  1  0  0  0
 17 19  1  0  0  0
 18 19  1  0  0  0
  2  1  1  0  0  0
 16 19  1  0  0  0
 16  1  1  0  0  0
 20  1  1  0  0  0
 20 22  1  0  0  0
 34 35  1  0  0  0
 22 24  1  0  0  0
 14 15  1  0  0  0
M  END
> <minimizedAffinity>
-7.48817

$$$$
4CJQ_VXO_A_1214


 35 38  0  0  0  0  0  0  0  0999 V2000
   -9.2043   45.4839   -0.1531 C   0  0  0  0  0  0  0  0  0  0  0  0
  -10.3940   44.5804    0.1071 C   0  0  0  0  0  0  0  0  0  0  0  0
  -11.0129   43.7603   -2.1305 C   0  0  0  0  0  0  0  0  0  0  0  0
  -11.8537   43.5954   -3.2096 C   0  0  0  0  0  0  0  0  0  0  0  0
  -12.6433   45.0761   -0.9592 C   0  0  0  0  0  0  0  0  0  0  0  0
  -11.3838   44.4941   -1.0147 C   0  0  0  0  0  0  0  0  0  0  0  0
  -13.0877   44.1813   -3.1422 C   0  0  0  0  0  0  0  0  0  0  0  0
  -13.4618   44.8995   -2.0507 C   0  0  0  0  0  0  0  0  0  0  0  0
  -15.1540   44.6509   -3.3397 C   0  0  0  0  0  0  0  0  0  0  0  0
  -14.0639   44.1203   -4.1004 O   0  0  0  0  0  0  0  0  0  0  0  0
  -14.7284   45.3845   -2.1828 O   0  0  0  0  0  0  0  0  0  0  0  0
  -13.1572   45.8821    0.1775 C   0  0  0  0  0  0  0  0  0  0  0  0
  -13.7069   45.2716    1.1364 O   0  0  0  0  0  0  0  0  0  0  0  0
  -13.0444   47.1343    0.0783 O   0  0  0  0  0  0  0  0  0  0  0  0
  -12.6209   47.5089   -0.6689 H   0  0  0  0  0  0  0  0  0  0  0  0
   -9.6494   46.7972   -0.7796 C   0  0  0  0  0  0  0  0  0  0  0  0
   -8.3636   47.8388    1.1355 C   0  0  0  0  0  0  0  0  0  0  0  0
   -7.9211   48.4933   -1.2251 C   0  0  0  0  0  0  0  0  0  0  0  0
   -8.9816   48.0543   -0.2324 C   0  0  0  0  0  0  0  0  0  0  0  0
   -8.2397   44.8051   -1.1096 C   0  0  0  0  0  0  0  0  0  0  0  0
   -7.2415   42.7339   -0.2285 C   0  0  0  0  0  0  0  0  0  0  0  0
   -7.1754   44.0983   -0.4282 N   0  0  0  0  0  0  0  0  0  0  0  0
   -7.9400   41.9525   -0.8555 O   0  0  0  0  0  0  0  0  0  0  0  0
   -6.3925   44.5984   -0.1023 H   0  0  0  0  0  0  0  0  0  0  0  0
   -6.3630   42.2733    0.8958 C   0  0  0  0  0  0  0  0  0  0  0  0
   -3.0671   45.2295    1.9612 C   0  0  0  0  0  0  0  0  0  0  0  0
   -3.3323   45.9717    3.0890 C   0  0  0  0  0  0  0  0  0  0  0  0
   -3.9546   44.2870    1.4914 C   0  0  0  0  0  0  0  0  0  0  0  0
   -4.5004   45.8096    3.8010 C   0  0  0  0  0  0  0  0  0  0  0  0
   -7.1342   43.5077    3.0174 C   0  0  0  0  0  0  0  0  0  0  0  0
   -5.1329   44.1061    2.1909 C   0  0  0  0  0  0  0  0  0  0  0  0
   -6.2444   43.2456    1.9981 C   0  0  0  0  0  0  0  0  0  0  0  0
   -5.3761   44.8655    3.3182 C   0  0  0  0  0  0  0  0  0  0  0  0
   -6.5968   44.4869    3.8050 N   0  0  0  0  0  0  0  0  0  0  0  0
   -7.0260   44.8647    4.6064 H   0  0  0  0  0  0  0  0  0  0  0  0
 26 27  1  0  0  0
 26 28  2  0  0  0
 27 29  2  0  0  0
 28 31  1  0  0  0
  3  4  1  0  0  0
  3  6  2  0  0  0
 29 33  1  0  0  0
  4  7  2  0  0  0
 30 32  2  0  0  0
 30 34  1  0  0  0
 31 32  1  0  0  0
 31 33  2  0  0  0
  5  6  1  0  0  0
  5  8  2  0  0  0
  5 12  1  0  0  0
  6  2  1  0  0  0
 32 25  1  0  0  0
 33 34  1  0  0  0
  7  8  1  0  0  0
  7 10  1  0  0  0
  8 11  1  0  0  0
 12 13  2  0  0  0
 12 14  1  0  0  0
 21 25  1  0  0  0
 21 22  1  0  0  0
 21 23  2  0  0  0
  9 10  1  0  0  0
  9 11  1  0  0  0
 17 19  1  0  0  0
 18 19  1  0  0  0
  2  1  1  0  0  0
 16 19  1  0  0  0
 16  1  1  0  0  0
 20  1  1  0  0  0
 20 22  1  0  0  0
 34 35  1  0  0  0
 22 24  1  0  0  0
 14 15  1  0  0  0
M  END
> <minimizedAffinity>
-7.43196

$$$$
4CJQ_VXO_A_1214


 35 38  0  0  0  0  0  0  0  0999 V2000
   -6.5062   45.5084    2.1204 C   0  0  0  0  0  0  0  0  0  0  0  0
   -6.3854   46.7531    1.2628 C   0  0  0  0  0  0  0  0  0  0  0  0
   -7.8370   46.8913   -0.7211 C   0  0  0  0  0  0  0  0  0  0  0  0
   -8.9802   47.2376   -1.4081 C   0  0  0  0  0  0  0  0  0  0  0  0
   -8.6603   47.8780    1.3063 C   0  0  0  0  0  0  0  0  0  0  0  0
   -7.6595   47.2059    0.6170 C   0  0  0  0  0  0  0  0  0  0  0  0
   -9.9529   47.9057   -0.7166 C   0  0  0  0  0  0  0  0  0  0  0  0
   -9.7895   48.2152    0.5966 C   0  0  0  0  0  0  0  0  0  0  0  0
  -11.8009   48.6660    0.0153 C   0  0  0  0  0  0  0  0  0  0  0  0
  -11.1585   48.3202   -1.2160 O   0  0  0  0  0  0  0  0  0  0  0  0
  -10.8776   48.8672    1.0945 O   0  0  0  0  0  0  0  0  0  0  0  0
   -8.5904   48.2692    2.7373 C   0  0  0  0  0  0  0  0  0  0  0  0
   -7.8654   49.2555    3.0475 O   0  0  0  0  0  0  0  0  0  0  0  0
   -9.2330   47.5512    3.5510 O   0  0  0  0  0  0  0  0  0  0  0  0
   -9.7496   46.8351    3.2373 H   0  0  0  0  0  0  0  0  0  0  0  0
   -5.7023   45.6558    3.4038 C   0  0  0  0  0  0  0  0  0  0  0  0
   -3.2424   45.1719    3.7510 C   0  0  0  0  0  0  0  0  0  0  0  0
   -4.9969   43.8526    4.9247 C   0  0  0  0  0  0  0  0  0  0  0  0
   -4.6389   44.5902    3.6478 C   0  0  0  0  0  0  0  0  0  0  0  0
   -5.9731   44.3053    1.3624 C   0  0  0  0  0  0  0  0  0  0  0  0
   -7.5447   43.2324   -0.2000 C   0  0  0  0  0  0  0  0  0  0  0  0
   -6.9991   43.3280    1.0645 N   0  0  0  0  0  0  0  0  0  0  0  0
   -7.0377   43.6470   -1.2308 O   0  0  0  0  0  0  0  0  0  0  0  0
   -7.3123   42.7223    1.7746 H   0  0  0  0  0  0  0  0  0  0  0  0
   -8.8900   42.5704   -0.1980 C   0  0  0  0  0  0  0  0  0  0  0  0
  -11.8210   43.7409   -3.4808 C   0  0  0  0  0  0  0  0  0  0  0  0
  -12.7478   44.6786   -3.0870 C   0  0  0  0  0  0  0  0  0  0  0  0
  -10.8578   43.2700   -2.6164 C   0  0  0  0  0  0  0  0  0  0  0  0
  -12.7585   45.1893   -1.8078 C   0  0  0  0  0  0  0  0  0  0  0  0
  -10.4868   44.3107    0.8223 C   0  0  0  0  0  0  0  0  0  0  0  0
  -10.8484   43.7696   -1.3278 C   0  0  0  0  0  0  0  0  0  0  0  0
  -10.0213   43.5162   -0.2031 C   0  0  0  0  0  0  0  0  0  0  0  0
  -11.7910   44.7081   -0.9570 C   0  0  0  0  0  0  0  0  0  0  0  0
  -11.5542   45.0234    0.3525 N   0  0  0  0  0  0  0  0  0  0  0  0
  -12.0767   45.6698    0.8801 H   0  0  0  0  0  0  0  0  0  0  0  0
 26 27  1  0  0  0
 26 28  2  0  0  0
 27 29  2  0  0  0
 28 31  1  0  0  0
  3  4  1  0  0  0
  3  6  2  0  0  0
 29 33  1  0  0  0
  4  7  2  0  0  0
 30 32  2  0  0  0
 30 34  1  0  0  0
 31 32  1  0  0  0
 31 33  2  0  0  0
  5  6  1  0  0  0
  5  8  2  0  0  0
  5 12  1  0  0  0
  6  2  1  0  0  0
 32 25  1  0  0  0
 33 34  1  0  0  0
  7  8  1  0  0  0
  7 10  1  0  0  0
  8 11  1  0  0  0
 12 13  2  0  0  0
 12 14  1  0  0  0
 21 25  1  0  0  0
 21 22  1  0  0  0
 21 23  2  0  0  0
  9 10  1  0  0  0
  9 11  1  0  0  0
 17 19  1  0  0  0
 18 19  1  0  0  0
  2  1  1  0  0  0
 16 19  1  0  0  0
 16  1  1  0  0  0
 20  1  1  0  0  0
 20 22  1  0  0  0
 34 35  1  0  0  0
 22 24  1  0  0  0
 14 15  1  0  0  0
M  END
> <minimizedAffinity>
-7.35074

$$$$
4CJQ_VXO_A_1214


 35 38  0  0  0  0  0  0  0  0999 V2000
   -9.6725   45.9650    0.8395 C   0  0  0  0  0  0  0  0  0  0  0  0
  -10.5515   44.7310    0.7763 C   0  0  0  0  0  0  0  0  0  0  0  0
  -10.6987   43.7760   -1.4883 C   0  0  0  0  0  0  0  0  0  0  0  0
  -11.3081   43.5242   -2.6982 C   0  0  0  0  0  0  0  0  0  0  0  0
  -12.5634   45.0836   -0.7303 C   0  0  0  0  0  0  0  0  0  0  0  0
  -11.3009   44.5496   -0.5086 C   0  0  0  0  0  0  0  0  0  0  0  0
  -12.5480   44.0637   -2.9036 C   0  0  0  0  0  0  0  0  0  0  0  0
  -13.1481   44.8204   -1.9474 C   0  0  0  0  0  0  0  0  0  0  0  0
  -14.5489   44.4410   -3.5224 C   0  0  0  0  0  0  0  0  0  0  0  0
  -13.3166   43.9163   -4.0271 O   0  0  0  0  0  0  0  0  0  0  0  0
  -14.3782   45.2479   -2.3487 O   0  0  0  0  0  0  0  0  0  0  0  0
  -13.3119   45.9248    0.2382 C   0  0  0  0  0  0  0  0  0  0  0  0
  -13.9866   45.3416    1.1321 O   0  0  0  0  0  0  0  0  0  0  0  0
  -13.2525   47.1727    0.0661 O   0  0  0  0  0  0  0  0  0  0  0  0
  -12.7258   47.5260   -0.6236 H   0  0  0  0  0  0  0  0  0  0  0  0
   -8.2595   45.6010    1.2708 C   0  0  0  0  0  0  0  0  0  0  0  0
   -7.2697   43.6934   -0.0659 C   0  0  0  0  0  0  0  0  0  0  0  0
   -7.7466   45.8979   -1.1190 C   0  0  0  0  0  0  0  0  0  0  0  0
   -7.3073   45.1936    0.1514 C   0  0  0  0  0  0  0  0  0  0  0  0
  -10.2372   46.9502    1.8478 C   0  0  0  0  0  0  0  0  0  0  0  0
  -10.1401   49.2842    1.0697 C   0  0  0  0  0  0  0  0  0  0  0  0
   -9.5905   48.2446    1.7928 N   0  0  0  0  0  0  0  0  0  0  0  0
  -11.3074   49.3750    0.7222 O   0  0  0  0  0  0  0  0  0  0  0  0
   -8.7459   48.3855    2.2786 H   0  0  0  0  0  0  0  0  0  0  0  0
   -9.1289   50.3293    0.7045 C   0  0  0  0  0  0  0  0  0  0  0  0
   -5.0384   48.3869    0.2226 C   0  0  0  0  0  0  0  0  0  0  0  0
   -4.6378   48.2574   -1.0874 C   0  0  0  0  0  0  0  0  0  0  0  0
   -6.2495   48.9519    0.5550 C   0  0  0  0  0  0  0  0  0  0  0  0
   -5.4308   48.6841   -2.1297 C   0  0  0  0  0  0  0  0  0  0  0  0
   -8.6574   50.2153   -1.8222 C   0  0  0  0  0  0  0  0  0  0  0  0
   -7.0613   49.3888   -0.4747 C   0  0  0  0  0  0  0  0  0  0  0  0
   -8.3402   50.0030   -0.4980 C   0  0  0  0  0  0  0  0  0  0  0  0
   -6.6371   49.2449   -1.7808 C   0  0  0  0  0  0  0  0  0  0  0  0
   -7.6209   49.7528   -2.5836 N   0  0  0  0  0  0  0  0  0  0  0  0
   -7.5873   49.7812   -3.5672 H   0  0  0  0  0  0  0  0  0  0  0  0
 26 27  1  0  0  0
 26 28  2  0  0  0
 27 29  2  0  0  0
 28 31  1  0  0  0
  3  4  1  0  0  0
  3  6  2  0  0  0
 29 33  1  0  0  0
  4  7  2  0  0  0
 30 32  2  0  0  0
 30 34  1  0  0  0
 31 32  1  0  0  0
 31 33  2  0  0  0
  5  6  1  0  0  0
  5  8  2  0  0  0
  5 12  1  0  0  0
  6  2  1  0  0  0
 32 25  1  0  0  0
 33 34  1  0  0  0
  7  8  1  0  0  0
  7 10  1  0  0  0
  8 11  1  0  0  0
 12 13  2  0  0  0
 12 14  1  0  0  0
 21 25  1  0  0  0
 21 22  1  0  0  0
 21 23  2  0  0  0
  9 10  1  0  0  0
  9 11  1  0  0  0
 17 19  1  0  0  0
 18 19  1  0  0  0
  2  1  1  0  0  0
 16 19  1  0  0  0
 16  1  1  0  0  0
 20  1  1  0  0  0
 20 22  1  0  0  0
 34 35  1  0  0  0
 22 24  1  0  0  0
 14 15  1  0  0  0
M  END
> <minimizedAffinity>
-7.29619

$$$$
4CJQ_VXO_A_1214


 35 38  0  0  0  0  0  0  0  0999 V2000
   -8.7700   45.0946    0.0959 C   0  0  0  0  0  0  0  0  0  0  0  0
  -10.0051   44.2417    0.3111 C   0  0  0  0  0  0  0  0  0  0  0  0
  -10.7024   43.6494   -1.9749 C   0  0  0  0  0  0  0  0  0  0  0  0
  -11.5691   43.6187   -3.0456 C   0  0  0  0  0  0  0  0  0  0  0  0
  -12.2463   44.9330   -0.6593 C   0  0  0  0  0  0  0  0  0  0  0  0
  -11.0176   44.2998   -0.7922 C   0  0  0  0  0  0  0  0  0  0  0  0
  -12.7720   44.2535   -2.9011 C   0  0  0  0  0  0  0  0  0  0  0  0
  -13.0915   44.8906   -1.7439 C   0  0  0  0  0  0  0  0  0  0  0  0
  -14.8162   44.8345   -3.0124 C   0  0  0  0  0  0  0  0  0  0  0  0
  -13.7667   44.3218   -3.8395 O   0  0  0  0  0  0  0  0  0  0  0  0
  -14.3353   45.4438   -1.8061 O   0  0  0  0  0  0  0  0  0  0  0  0
  -12.7003   45.6600    0.5535 C   0  0  0  0  0  0  0  0  0  0  0  0
  -11.9797   46.6035    0.9837 O   0  0  0  0  0  0  0  0  0  0  0  0
  -13.7617   45.2469    1.0953 O   0  0  0  0  0  0  0  0  0  0  0  0
  -14.2392   44.5386    0.7102 H   0  0  0  0  0  0  0  0  0  0  0  0
   -7.5675   44.2280   -0.2478 C   0  0  0  0  0  0  0  0  0  0  0  0
   -7.5923   41.6978   -0.1941 C   0  0  0  0  0  0  0  0  0  0  0  0
   -5.9938   43.0039    1.1971 C   0  0  0  0  0  0  0  0  0  0  0  0
   -7.3887   42.9732    0.6004 C   0  0  0  0  0  0  0  0  0  0  0  0
   -8.4500   45.8689    1.3625 C   0  0  0  0  0  0  0  0  0  0  0  0
   -8.3446   48.3276    1.4414 C   0  0  0  0  0  0  0  0  0  0  0  0
   -7.7693   47.1198    1.1007 N   0  0  0  0  0  0  0  0  0  0  0  0
   -9.2350   48.4895    2.2615 O   0  0  0  0  0  0  0  0  0  0  0  0
   -6.8826   47.1088    0.6732 H   0  0  0  0  0  0  0  0  0  0  0  0
   -7.7772   49.4758    0.6620 C   0  0  0  0  0  0  0  0  0  0  0  0
  -11.4889   51.9221   -0.3260 C   0  0  0  0  0  0  0  0  0  0  0  0
  -11.8233   51.9066   -1.6606 C   0  0  0  0  0  0  0  0  0  0  0  0
  -10.3942   51.2371    0.1524 C   0  0  0  0  0  0  0  0  0  0  0  0
  -11.0767   51.2072   -2.5832 C   0  0  0  0  0  0  0  0  0  0  0  0
   -8.1465   49.2673   -1.8757 C   0  0  0  0  0  0  0  0  0  0  0  0
   -9.6311   50.5269   -0.7551 C   0  0  0  0  0  0  0  0  0  0  0  0
   -8.4664   49.7284   -0.6170 C   0  0  0  0  0  0  0  0  0  0  0  0
   -9.9866   50.5296   -2.0894 C   0  0  0  0  0  0  0  0  0  0  0  0
   -9.0721   49.7590   -2.7529 N   0  0  0  0  0  0  0  0  0  0  0  0
   -9.0794   49.5839   -3.7217 H   0  0  0  0  0  0  0  0  0  0  0  0
 26 27  1  0  0  0
 26 28  2  0  0  0
 27 29  2  0  0  0
 28 31  1  0  0  0
  3  4  1  0  0  0
  3  6  2  0  0  0
 29 33  1  0  0  0
  4  7  2  0  0  0
 30 32  2  0  0  0
 30 34  1  0  0  0
 31 32  1  0  0  0
 31 33  2  0  0  0
  5  6  1  0  0  0
  5  8  2  0  0  0
  5 12  1  0  0  0
  6  2  1  0  0  0
 32 25  1  0  0  0
 33 34  1  0  0  0
  7  8  1  0  0  0
  7 10  1  0  0  0
  8 11  1  0  0  0
 12 13  2  0  0  0
 12 14  1  0  0  0
 21 25  1  0  0  0
 21 22  1  0  0  0
 21 23  2  0  0  0
  9 10  1  0  0  0
  9 11  1  0  0  0
 17 19  1  0  0  0
 18 19  1  0  0  0
  2  1  1  0  0  0
 16 19  1  0  0  0
 16  1  1  0  0  0
 20  1  1  0  0  0
 20 22  1  0  0  0
 34 35  1  0  0  0
 22 24  1  0  0  0
 14 15  1  0  0  0
M  END
> <minimizedAffinity>
-7.28276

$$$$
4CJQ_VXO_A_1214


 35 38  0  0  0  0  0  0  0  0999 V2000
   -8.2506   45.6196    1.0541 C   0  0  0  0  0  0  0  0  0  0  0  0
   -9.4496   44.6929    1.1089 C   0  0  0  0  0  0  0  0  0  0  0  0
   -9.4496   43.6851   -1.1376 C   0  0  0  0  0  0  0  0  0  0  0  0
   -9.9897   43.3831   -2.3688 C   0  0  0  0  0  0  0  0  0  0  0  0
  -11.3994   44.9308   -0.4986 C   0  0  0  0  0  0  0  0  0  0  0  0
  -10.1286   44.4539   -0.2054 C   0  0  0  0  0  0  0  0  0  0  0  0
  -11.2390   43.8668   -2.6447 C   0  0  0  0  0  0  0  0  0  0  0  0
  -11.9141   44.6183   -1.7354 C   0  0  0  0  0  0  0  0  0  0  0  0
  -13.2213   44.1486   -3.3655 C   0  0  0  0  0  0  0  0  0  0  0  0
  -11.9463   43.6644   -3.7994 O   0  0  0  0  0  0  0  0  0  0  0  0
  -13.1396   44.9863   -2.2040 O   0  0  0  0  0  0  0  0  0  0  0  0
  -12.2265   45.7607    0.4141 C   0  0  0  0  0  0  0  0  0  0  0  0
  -11.8249   46.9276    0.6817 O   0  0  0  0  0  0  0  0  0  0  0  0
  -13.2575   45.2156    0.8942 O   0  0  0  0  0  0  0  0  0  0  0  0
  -13.4862   44.3426    0.6425 H   0  0  0  0  0  0  0  0  0  0  0  0
   -7.0035   44.9219    1.5769 C   0  0  0  0  0  0  0  0  0  0  0  0
   -6.3812   42.5763    0.8582 C   0  0  0  0  0  0  0  0  0  0  0  0
   -6.6479   43.1629    3.2626 C   0  0  0  0  0  0  0  0  0  0  0  0
   -7.1442   43.4288    1.8534 C   0  0  0  0  0  0  0  0  0  0  0  0
   -8.5048   46.8445    1.9150 C   0  0  0  0  0  0  0  0  0  0  0  0
   -7.9029   47.7147    4.1382 C   0  0  0  0  0  0  0  0  0  0  0  0
   -7.5933   46.9439    3.0356 N   0  0  0  0  0  0  0  0  0  0  0  0
   -9.0219   48.0792    4.4644 O   0  0  0  0  0  0  0  0  0  0  0  0
   -6.7396   46.4542    3.0108 H   0  0  0  0  0  0  0  0  0  0  0  0
   -6.6886   48.1097    4.9239 C   0  0  0  0  0  0  0  0  0  0  0  0
   -3.6581   44.7115    4.8446 C   0  0  0  0  0  0  0  0  0  0  0  0
   -3.5864   44.0059    6.0236 C   0  0  0  0  0  0  0  0  0  0  0  0
   -4.5206   45.7739    4.6899 C   0  0  0  0  0  0  0  0  0  0  0  0
   -4.3722   44.3304    7.1074 C   0  0  0  0  0  0  0  0  0  0  0  0
   -6.7714   46.9906    7.2392 C   0  0  0  0  0  0  0  0  0  0  0  0
   -5.3201   46.1167    5.7639 C   0  0  0  0  0  0  0  0  0  0  0  0
   -6.2972   47.1281    5.9526 C   0  0  0  0  0  0  0  0  0  0  0  0
   -5.2271   45.3942    6.9369 C   0  0  0  0  0  0  0  0  0  0  0  0
   -6.1165   45.9411    7.8202 N   0  0  0  0  0  0  0  0  0  0  0  0
   -6.2636   45.6247    8.7408 H   0  0  0  0  0  0  0  0  0  0  0  0
 26 27  1  0  0  0
 26 28  2  0  0  0
 27 29  2  0  0  0
 28 31  1  0  0  0
  3  4  1  0  0  0
  3  6  2  0  0  0
 29 33  1  0  0  0
  4  7  2  0  0  0
 30 32  2  0  0  0
 30 34  1  0  0  0
 31 32  1  0  0  0
 31 33  2  0  0  0
  5  6  1  0  0  0
  5  8  2  0  0  0
  5 12  1  0  0  0
  6  2  1  0  0  0
 32 25  1  0  0  0
 33 34  1  0  0  0
  7  8  1  0  0  0
  7 10  1  0  0  0
  8 11  1  0  0  0
 12 13  2  0  0  0
 12 14  1  0  0  0
 21 25  1  0  0  0
 21 22  1  0  0  0
 21 23  2  0  0  0
  9 10  1  0  0  0
  9 11  1  0  0  0
 17 19  1  0  0  0
 18 19  1  0  0  0
  2  1  1  0  0  0
 16 19  1  0  0  0
 16  1  1  0  0  0
 20  1  1  0  0  0
 20 22  1  0  0  0
 34 35  1  0  0  0
 22 24  1  0  0  0
 14 15  1  0  0  0
M  END
> <minimizedAffinity>
-7.21323

$$$$
