1B38_ATP_A_381


 39 41  0  0  0  0  0  0  0  0999 V2000
   -0.9682   28.2194   10.9719 C   0  0  0  0  0  0  0  0  0  0  0  0
    0.2165   28.6089   10.2667 O   0  0  0  0  0  0  0  0  0  0  0  0
   -2.1507   28.7222   10.1363 C   0  0  0  0  0  0  0  0  0  0  0  0
   -2.5486   30.0024   10.6624 O   0  0  0  0  0  0  0  0  0  0  0  0
   -1.5138   28.9440    8.7204 C   0  0  0  0  0  0  0  0  0  0  0  0
   -2.1254   30.1591    8.2155 O   0  0  0  0  0  0  0  0  0  0  0  0
   -0.0616   29.3111    9.0951 C   0  0  0  0  0  0  0  0  0  0  0  0
   -1.7849   30.6004   10.6699 H   0  0  0  0  0  0  0  0  0  0  0  0
   -2.0178   30.8700    8.8667 H   0  0  0  0  0  0  0  0  0  0  0  0
    0.9040   28.8469    8.1036 N   0  0  0  0  0  0  0  0  0  0  0  0
    1.1942   29.5644    6.9941 C   0  0  0  0  0  0  0  0  0  0  0  0
    2.2874   29.2559    6.4372 N   0  0  0  0  0  0  0  0  0  0  0  0
    2.8097   28.2915    7.1661 C   0  0  0  0  0  0  0  0  0  0  0  0
    3.9922   27.5667    6.9915 C   0  0  0  0  0  0  0  0  0  0  0  0
    4.9062   27.6867    6.0448 N   0  0  0  0  0  0  0  0  0  0  0  0
    4.2225   26.6220    7.9304 N   0  0  0  0  0  0  0  0  0  0  0  0
    3.3099   26.4024    8.9094 C   0  0  0  0  0  0  0  0  0  0  0  0
    2.2017   27.0548    9.1536 N   0  0  0  0  0  0  0  0  0  0  0  0
    1.9754   27.9829    8.2156 C   0  0  0  0  0  0  0  0  0  0  0  0
    4.7930   28.3579    5.3335 H   0  0  0  0  0  0  0  0  0  0  0  0
    5.7004   27.1050    6.0508 H   0  0  0  0  0  0  0  0  0  0  0  0
   -1.0105   26.6911   11.1030 C   0  0  0  0  0  0  0  0  0  0  0  0
   -2.4210   26.4171   11.2106 O   0  0  0  0  0  0  0  0  0  0  0  0
   -2.9015   24.9728   11.6748 P   0  0  0  0  0  0  0  0  0  0  0  0
   -1.6665   24.1090   11.7929 O   0  0  0  0  0  0  0  0  0  0  0  0
   -3.9484   24.5018   10.8061 O   0  0  0  0  0  0  0  0  0  0  0  0
   -4.2364   23.6217   11.0946 H   0  0  0  0  0  0  0  0  0  0  0  0
   -3.3054   25.1322   13.2503 O   0  0  0  0  0  0  0  0  0  0  0  0
   -2.6700   24.3043   14.4723 P   0  0  0  0  0  0  0  0  0  0  0  0
   -1.5013   25.0737   14.9489 O   0  0  0  0  0  0  0  0  0  0  0  0
   -2.4503   22.9113   14.1072 O   0  0  0  0  0  0  0  0  0  0  0  0
   -2.0673   22.4360   14.8610 H   0  0  0  0  0  0  0  0  0  0  0  0
   -3.9215   24.5026   15.4381 O   0  0  0  0  0  0  0  0  0  0  0  0
   -4.5761   25.8359   15.9714 P   0  0  0  0  0  0  0  0  0  0  0  0
   -5.8122   26.1591   15.2727 O   0  0  0  0  0  0  0  0  0  0  0  0
   -4.6756   25.7977   17.4539 O   0  0  0  0  0  0  0  0  0  0  0  0
   -3.6042   26.9423   15.6075 O   0  0  0  0  0  0  0  0  0  0  0  0
   -5.0788   26.6206   17.7722 H   0  0  0  0  0  0  0  0  0  0  0  0
   -3.9548   27.7939   15.9122 H   0  0  0  0  0  0  0  0  0  0  0  0
 34 35  2  0  0  0
 34 36  1  0  0  0
 34 37  1  0  0  0
 34 33  1  0  0  0
 29 30  2  0  0  0
 29 31  1  0  0  0
 29 33  1  0  0  0
 29 28  1  0  0  0
 24 25  2  0  0  0
 24 26  1  0  0  0
 24 28  1  0  0  0
 24 23  1  0  0  0
 23 22  1  0  0  0
 22  1  1  0  0  0
  1  2  1  0  0  0
  1  3  1  0  0  0
  2  7  1  0  0  0
  3  4  1  0  0  0
  3  5  1  0  0  0
  5  6  1  0  0  0
  5  7  1  0  0  0
  7 10  1  0  0  0
 10 11  1  0  0  0
 10 19  1  0  0  0
 11 12  2  0  0  0
 12 13  1  0  0  0
 13 14  1  0  0  0
 13 19  2  0  0  0
 14 15  1  0  0  0
 14 16  2  0  0  0
 16 17  1  0  0  0
 17 18  2  0  0  0
 18 19  1  0  0  0
 36 38  1  0  0  0
 37 39  1  0  0  0
 31 32  1  0  0  0
 26 27  1  0  0  0
  4  8  1  0  0  0
  6  9  1  0  0  0
 15 20  1  0  0  0
 15 21  1  0  0  0
M  END
> <minimizedAffinity>
-10.78084

$$$$
1B38_ATP_A_381


 39 41  0  0  0  0  0  0  0  0999 V2000
    0.2623   24.5813   10.4296 C   0  0  0  0  0  0  0  0  0  0  0  0
   -0.1325   25.3973    9.3202 O   0  0  0  0  0  0  0  0  0  0  0  0
    1.7070   24.9734   10.7590 C   0  0  0  0  0  0  0  0  0  0  0  0
    2.5793   24.0505   10.0797 O   0  0  0  0  0  0  0  0  0  0  0  0
    1.8532   26.3819   10.0848 C   0  0  0  0  0  0  0  0  0  0  0  0
    3.1920   26.3975    9.5256 O   0  0  0  0  0  0  0  0  0  0  0  0
    0.8841   26.2485    8.8902 C   0  0  0  0  0  0  0  0  0  0  0  0
    2.3743   24.0500    9.1316 H   0  0  0  0  0  0  0  0  0  0  0  0
    3.3150   25.6197    8.9592 H   0  0  0  0  0  0  0  0  0  0  0  0
    0.2395   27.5138    8.5518 N   0  0  0  0  0  0  0  0  0  0  0  0
   -0.8071   27.9975    9.2593 C   0  0  0  0  0  0  0  0  0  0  0  0
   -1.0143   29.2371    9.1143 N   0  0  0  0  0  0  0  0  0  0  0  0
   -0.0881   29.6678    8.2832 C   0  0  0  0  0  0  0  0  0  0  0  0
    0.1322   30.9451    7.7596 C   0  0  0  0  0  0  0  0  0  0  0  0
   -0.5351   32.0621    7.9899 N   0  0  0  0  0  0  0  0  0  0  0  0
    1.1779   31.0366    6.9081 N   0  0  0  0  0  0  0  0  0  0  0  0
    1.8854   29.9266    6.5813 C   0  0  0  0  0  0  0  0  0  0  0  0
    1.7586   28.7107    7.0490 N   0  0  0  0  0  0  0  0  0  0  0  0
    0.7162   28.6251    7.8849 C   0  0  0  0  0  0  0  0  0  0  0  0
   -1.3067   32.0574    8.6014 H   0  0  0  0  0  0  0  0  0  0  0  0
   -0.2608   32.8990    7.5501 H   0  0  0  0  0  0  0  0  0  0  0  0
   -0.6585   24.8577   11.6256 C   0  0  0  0  0  0  0  0  0  0  0  0
   -1.9306   24.3534   11.1746 O   0  0  0  0  0  0  0  0  0  0  0  0
   -3.2642   24.8573   11.8816 P   0  0  0  0  0  0  0  0  0  0  0  0
   -4.4200   24.4417   11.0002 O   0  0  0  0  0  0  0  0  0  0  0  0
   -3.1528   26.2575   12.1970 O   0  0  0  0  0  0  0  0  0  0  0  0
   -3.9685   26.5579   12.6274 H   0  0  0  0  0  0  0  0  0  0  0  0
   -3.4873   23.8589   13.1559 O   0  0  0  0  0  0  0  0  0  0  0  0
   -3.3840   24.2739   14.7050 P   0  0  0  0  0  0  0  0  0  0  0  0
   -2.1779   25.1174   14.8427 O   0  0  0  0  0  0  0  0  0  0  0  0
   -3.4867   23.1070   15.5711 O   0  0  0  0  0  0  0  0  0  0  0  0
   -3.4215   23.3855   16.4979 H   0  0  0  0  0  0  0  0  0  0  0  0
   -4.7078   25.1603   14.6985 O   0  0  0  0  0  0  0  0  0  0  0  0
   -5.0489   26.4604   15.5254 P   0  0  0  0  0  0  0  0  0  0  0  0
   -5.8688   26.1697   16.6933 O   0  0  0  0  0  0  0  0  0  0  0  0
   -3.8082   27.2325   15.7965 O   0  0  0  0  0  0  0  0  0  0  0  0
   -5.9228   27.3048   14.6173 O   0  0  0  0  0  0  0  0  0  0  0  0
   -4.0276   28.0291   16.3047 H   0  0  0  0  0  0  0  0  0  0  0  0
   -6.1669   28.1247   15.0745 H   0  0  0  0  0  0  0  0  0  0  0  0
 34 35  2  0  0  0
 34 36  1  0  0  0
 34 37  1  0  0  0
 34 33  1  0  0  0
 29 30  2  0  0  0
 29 31  1  0  0  0
 29 33  1  0  0  0
 29 28  1  0  0  0
 24 25  2  0  0  0
 24 26  1  0  0  0
 24 28  1  0  0  0
 24 23  1  0  0  0
 23 22  1  0  0  0
 22  1  1  0  0  0
  1  2  1  0  0  0
  1  3  1  0  0  0
  2  7  1  0  0  0
  3  4  1  0  0  0
  3  5  1  0  0  0
  5  6  1  0  0  0
  5  7  1  0  0  0
  7 10  1  0  0  0
 10 11  1  0  0  0
 10 19  1  0  0  0
 11 12  2  0  0  0
 12 13  1  0  0  0
 13 14  1  0  0  0
 13 19  2  0  0  0
 14 15  1  0  0  0
 14 16  2  0  0  0
 16 17  1  0  0  0
 17 18  2  0  0  0
 18 19  1  0  0  0
 36 38  1  0  0  0
 37 39  1  0  0  0
 31 32  1  0  0  0
 26 27  1  0  0  0
  4  8  1  0  0  0
  6  9  1  0  0  0
 15 20  1  0  0  0
 15 21  1  0  0  0
M  END
> <minimizedAffinity>
-10.73298

$$$$
1B38_ATP_A_381


 39 41  0  0  0  0  0  0  0  0999 V2000
   -0.1974   24.0694    9.4190 C   0  0  0  0  0  0  0  0  0  0  0  0
    0.2452   25.2312    8.7070 O   0  0  0  0  0  0  0  0  0  0  0  0
    0.5978   24.0392   10.7290 C   0  0  0  0  0  0  0  0  0  0  0  0
    1.7409   23.1860   10.5304 O   0  0  0  0  0  0  0  0  0  0  0  0
    1.1010   25.5178   10.8710 C   0  0  0  0  0  0  0  0  0  0  0  0
    2.4522   25.4105   11.3888 O   0  0  0  0  0  0  0  0  0  0  0  0
    1.2342   25.9363    9.3907 C   0  0  0  0  0  0  0  0  0  0  0  0
    2.2483   23.4983    9.7650 H   0  0  0  0  0  0  0  0  0  0  0  0
    2.9699   24.8182   10.8212 H   0  0  0  0  0  0  0  0  0  0  0  0
    0.9421   27.3515    9.1834 N   0  0  0  0  0  0  0  0  0  0  0  0
    1.5950   28.0907    8.2575 C   0  0  0  0  0  0  0  0  0  0  0  0
    1.0027   29.1562    7.9195 N   0  0  0  0  0  0  0  0  0  0  0  0
   -0.1154   29.1891    8.6145 C   0  0  0  0  0  0  0  0  0  0  0  0
   -1.1277   30.1526    8.6516 C   0  0  0  0  0  0  0  0  0  0  0  0
   -1.2246   31.2802    7.9698 N   0  0  0  0  0  0  0  0  0  0  0  0
   -2.1429   29.8764    9.5003 N   0  0  0  0  0  0  0  0  0  0  0  0
   -2.0970   28.7624   10.2726 C   0  0  0  0  0  0  0  0  0  0  0  0
   -1.2038   27.8057   10.2731 N   0  0  0  0  0  0  0  0  0  0  0  0
   -0.1973   28.0894    9.4370 C   0  0  0  0  0  0  0  0  0  0  0  0
   -0.5154   31.5348    7.3361 H   0  0  0  0  0  0  0  0  0  0  0  0
   -2.0060   31.8658    8.0954 H   0  0  0  0  0  0  0  0  0  0  0  0
   -1.7014   24.1810    9.7025 C   0  0  0  0  0  0  0  0  0  0  0  0
   -1.7578   24.1768   11.1422 O   0  0  0  0  0  0  0  0  0  0  0  0
   -3.0415   24.7676   11.8739 P   0  0  0  0  0  0  0  0  0  0  0  0
   -4.2424   24.4008   11.0320 O   0  0  0  0  0  0  0  0  0  0  0  0
   -2.8442   26.1650   12.1580 O   0  0  0  0  0  0  0  0  0  0  0  0
   -3.6299   26.5184   12.6037 H   0  0  0  0  0  0  0  0  0  0  0  0
   -3.2843   23.8071   13.1736 O   0  0  0  0  0  0  0  0  0  0  0  0
   -3.2724   24.2816   14.7089 P   0  0  0  0  0  0  0  0  0  0  0  0
   -2.0643   25.1138   14.8903 O   0  0  0  0  0  0  0  0  0  0  0  0
   -3.4480   23.1514   15.6111 O   0  0  0  0  0  0  0  0  0  0  0  0
   -3.4369   23.4655   16.5288 H   0  0  0  0  0  0  0  0  0  0  0  0
   -4.5790   25.1846   14.5839 O   0  0  0  0  0  0  0  0  0  0  0  0
   -5.0171   26.4390   15.4355 P   0  0  0  0  0  0  0  0  0  0  0  0
   -5.8667   26.0708   16.5595 O   0  0  0  0  0  0  0  0  0  0  0  0
   -3.8282   27.2615   15.7805 O   0  0  0  0  0  0  0  0  0  0  0  0
   -5.8958   27.2687   14.5186 O   0  0  0  0  0  0  0  0  0  0  0  0
   -4.1071   28.0295   16.3034 H   0  0  0  0  0  0  0  0  0  0  0  0
   -6.1985   28.0604   14.9903 H   0  0  0  0  0  0  0  0  0  0  0  0
 34 35  2  0  0  0
 34 36  1  0  0  0
 34 37  1  0  0  0
 34 33  1  0  0  0
 29 30  2  0  0  0
 29 31  1  0  0  0
 29 33  1  0  0  0
 29 28  1  0  0  0
 24 25  2  0  0  0
 24 26  1  0  0  0
 24 28  1  0  0  0
 24 23  1  0  0  0
 23 22  1  0  0  0
 22  1  1  0  0  0
  1  2  1  0  0  0
  1  3  1  0  0  0
  2  7  1  0  0  0
  3  4  1  0  0  0
  3  5  1  0  0  0
  5  6  1  0  0  0
  5  7  1  0  0  0
  7 10  1  0  0  0
 10 11  1  0  0  0
 10 19  1  0  0  0
 11 12  2  0  0  0
 12 13  1  0  0  0
 13 14  1  0  0  0
 13 19  2  0  0  0
 14 15  1  0  0  0
 14 16  2  0  0  0
 16 17  1  0  0  0
 17 18  2  0  0  0
 18 19  1  0  0  0
 36 38  1  0  0  0
 37 39  1  0  0  0
 31 32  1  0  0  0
 26 27  1  0  0  0
  4  8  1  0  0  0
  6  9  1  0  0  0
 15 20  1  0  0  0
 15 21  1  0  0  0
M  END
> <minimizedAffinity>
-10.53510

$$$$
1B38_ATP_A_381


 39 41  0  0  0  0  0  0  0  0999 V2000
    0.2378   24.6328   10.7420 C   0  0  0  0  0  0  0  0  0  0  0  0
   -0.1990   25.3882    9.6057 O   0  0  0  0  0  0  0  0  0  0  0  0
    1.7230   24.9609   10.9311 C   0  0  0  0  0  0  0  0  0  0  0  0
    2.4879   23.9408   10.2615 O   0  0  0  0  0  0  0  0  0  0  0  0
    1.8912   26.3055   10.1416 C   0  0  0  0  0  0  0  0  0  0  0  0
    3.1804   26.2007    9.4841 O   0  0  0  0  0  0  0  0  0  0  0  0
    0.8248   26.1439    9.0367 C   0  0  0  0  0  0  0  0  0  0  0  0
    2.2088   23.8837    9.3342 H   0  0  0  0  0  0  0  0  0  0  0  0
    3.2161   25.3779    8.9717 H   0  0  0  0  0  0  0  0  0  0  0  0
    0.2245   27.4175    8.6511 N   0  0  0  0  0  0  0  0  0  0  0  0
   -0.8018   27.9650    9.3416 C   0  0  0  0  0  0  0  0  0  0  0  0
   -0.9652   29.2047    9.1495 N   0  0  0  0  0  0  0  0  0  0  0  0
   -0.0271   29.5699    8.3005 C   0  0  0  0  0  0  0  0  0  0  0  0
    0.2367   30.8175    7.7277 C   0  0  0  0  0  0  0  0  0  0  0  0
   -0.3896   31.9656    7.9162 N   0  0  0  0  0  0  0  0  0  0  0  0
    1.2822   30.8388    6.8712 N   0  0  0  0  0  0  0  0  0  0  0  0
    1.9486   29.6924    6.5858 C   0  0  0  0  0  0  0  0  0  0  0  0
    1.7801   28.5007    7.1003 N   0  0  0  0  0  0  0  0  0  0  0  0
    0.7382   28.4846    7.9410 C   0  0  0  0  0  0  0  0  0  0  0  0
   -1.1587   32.0119    8.5290 H   0  0  0  0  0  0  0  0  0  0  0  0
   -0.0870   32.7747    7.4439 H   0  0  0  0  0  0  0  0  0  0  0  0
   -0.5692   25.0496   11.9787 C   0  0  0  0  0  0  0  0  0  0  0  0
   -1.7599   24.2454   11.8711 O   0  0  0  0  0  0  0  0  0  0  0  0
   -3.1824   24.9256   12.0858 P   0  0  0  0  0  0  0  0  0  0  0  0
   -4.1096   24.3608   11.0338 O   0  0  0  0  0  0  0  0  0  0  0  0
   -3.0393   26.3573   12.1308 O   0  0  0  0  0  0  0  0  0  0  0  0
   -3.9095   26.7653   12.2618 H   0  0  0  0  0  0  0  0  0  0  0  0
   -3.7999   24.2320   13.4305 O   0  0  0  0  0  0  0  0  0  0  0  0
   -3.3918   24.5869   14.9437 P   0  0  0  0  0  0  0  0  0  0  0  0
   -4.5191   25.3468   15.5241 O   0  0  0  0  0  0  0  0  0  0  0  0
   -2.0712   25.1988   15.0037 O   0  0  0  0  0  0  0  0  0  0  0  0
   -1.8506   25.4022   15.9261 H   0  0  0  0  0  0  0  0  0  0  0  0
   -3.3985   23.0750   15.4462 O   0  0  0  0  0  0  0  0  0  0  0  0
   -2.3113   21.9479   15.2510 P   0  0  0  0  0  0  0  0  0  0  0  0
   -1.3038   21.9680   16.3023 O   0  0  0  0  0  0  0  0  0  0  0  0
   -2.9718   20.6351   15.0291 O   0  0  0  0  0  0  0  0  0  0  0  0
   -1.5730   22.3087   13.9759 O   0  0  0  0  0  0  0  0  0  0  0  0
   -2.2963   19.9492   14.9103 H   0  0  0  0  0  0  0  0  0  0  0  0
   -0.8859   21.6465   13.8017 H   0  0  0  0  0  0  0  0  0  0  0  0
 34 35  2  0  0  0
 34 36  1  0  0  0
 34 37  1  0  0  0
 34 33  1  0  0  0
 29 30  2  0  0  0
 29 31  1  0  0  0
 29 33  1  0  0  0
 29 28  1  0  0  0
 24 25  2  0  0  0
 24 26  1  0  0  0
 24 28  1  0  0  0
 24 23  1  0  0  0
 23 22  1  0  0  0
 22  1  1  0  0  0
  1  2  1  0  0  0
  1  3  1  0  0  0
  2  7  1  0  0  0
  3  4  1  0  0  0
  3  5  1  0  0  0
  5  6  1  0  0  0
  5  7  1  0  0  0
  7 10  1  0  0  0
 10 11  1  0  0  0
 10 19  1  0  0  0
 11 12  2  0  0  0
 12 13  1  0  0  0
 13 14  1  0  0  0
 13 19  2  0  0  0
 14 15  1  0  0  0
 14 16  2  0  0  0
 16 17  1  0  0  0
 17 18  2  0  0  0
 18 19  1  0  0  0
 36 38  1  0  0  0
 37 39  1  0  0  0
 31 32  1  0  0  0
 26 27  1  0  0  0
  4  8  1  0  0  0
  6  9  1  0  0  0
 15 20  1  0  0  0
 15 21  1  0  0  0
M  END
> <minimizedAffinity>
-10.36217

$$$$
1B38_ATP_A_381


 39 41  0  0  0  0  0  0  0  0999 V2000
    0.1470   24.8209   11.0294 C   0  0  0  0  0  0  0  0  0  0  0  0
   -0.3395   25.4967    9.8635 O   0  0  0  0  0  0  0  0  0  0  0  0
    1.6642   25.0381   11.0503 C   0  0  0  0  0  0  0  0  0  0  0  0
    2.2809   23.8962   10.4259 O   0  0  0  0  0  0  0  0  0  0  0  0
    1.8562   26.2803   10.1124 C   0  0  0  0  0  0  0  0  0  0  0  0
    3.0639   26.0025    9.3575 O   0  0  0  0  0  0  0  0  0  0  0  0
    0.6785   26.1034    9.1297 C   0  0  0  0  0  0  0  0  0  0  0  0
    1.9096   23.7733    9.5383 H   0  0  0  0  0  0  0  0  0  0  0  0
    2.9872   25.1337    8.9330 H   0  0  0  0  0  0  0  0  0  0  0  0
    0.1418   27.3799    8.6676 N   0  0  0  0  0  0  0  0  0  0  0  0
   -0.9068   27.9798    9.2764 C   0  0  0  0  0  0  0  0  0  0  0  0
   -1.0202   29.2165    9.0350 N   0  0  0  0  0  0  0  0  0  0  0  0
   -0.0220   29.5256    8.2336 C   0  0  0  0  0  0  0  0  0  0  0  0
    0.3139   30.7450    7.6381 C   0  0  0  0  0  0  0  0  0  0  0  0
   -0.2870   31.9163    7.7513 N   0  0  0  0  0  0  0  0  0  0  0  0
    1.4090   30.7072    6.8467 N   0  0  0  0  0  0  0  0  0  0  0  0
    2.0557   29.5332    6.6395 C   0  0  0  0  0  0  0  0  0  0  0  0
    1.8202   28.3650    7.1806 N   0  0  0  0  0  0  0  0  0  0  0  0
    0.7297   28.4072    7.9563 C   0  0  0  0  0  0  0  0  0  0  0  0
   -1.0898   32.0054    8.3142 H   0  0  0  0  0  0  0  0  0  0  0  0
    0.0680   32.6999    7.2726 H   0  0  0  0  0  0  0  0  0  0  0  0
   -0.5022   25.4234   12.2824 C   0  0  0  0  0  0  0  0  0  0  0  0
   -1.6987   24.6352   12.4345 O   0  0  0  0  0  0  0  0  0  0  0  0
   -2.0346   23.9931   13.8513 P   0  0  0  0  0  0  0  0  0  0  0  0
   -1.6833   25.0223   14.9014 O   0  0  0  0  0  0  0  0  0  0  0  0
   -1.4077   22.7022   13.9654 O   0  0  0  0  0  0  0  0  0  0  0  0
   -1.6164   22.3168   14.8307 H   0  0  0  0  0  0  0  0  0  0  0  0
   -3.6652   24.0017   13.9594 O   0  0  0  0  0  0  0  0  0  0  0  0
   -4.6288   25.2183   13.5425 P   0  0  0  0  0  0  0  0  0  0  0  0
   -5.6014   24.6795   12.5685 O   0  0  0  0  0  0  0  0  0  0  0  0
   -3.8579   26.3874   13.1413 O   0  0  0  0  0  0  0  0  0  0  0  0
   -4.4628   27.1048   12.8955 H   0  0  0  0  0  0  0  0  0  0  0  0
   -5.2862   25.3737   14.9853 O   0  0  0  0  0  0  0  0  0  0  0  0
   -4.9207   26.3712   16.1524 P   0  0  0  0  0  0  0  0  0  0  0  0
   -5.8683   27.4726   16.2512 O   0  0  0  0  0  0  0  0  0  0  0  0
   -4.6881   25.6184   17.4126 O   0  0  0  0  0  0  0  0  0  0  0  0
   -3.6030   27.0058   15.7499 O   0  0  0  0  0  0  0  0  0  0  0  0
   -4.4643   26.2392   18.1235 H   0  0  0  0  0  0  0  0  0  0  0  0
   -3.3244   27.6343   16.4343 H   0  0  0  0  0  0  0  0  0  0  0  0
 34 35  2  0  0  0
 34 36  1  0  0  0
 34 37  1  0  0  0
 34 33  1  0  0  0
 29 30  2  0  0  0
 29 31  1  0  0  0
 29 33  1  0  0  0
 29 28  1  0  0  0
 24 25  2  0  0  0
 24 26  1  0  0  0
 24 28  1  0  0  0
 24 23  1  0  0  0
 23 22  1  0  0  0
 22  1  1  0  0  0
  1  2  1  0  0  0
  1  3  1  0  0  0
  2  7  1  0  0  0
  3  4  1  0  0  0
  3  5  1  0  0  0
  5  6  1  0  0  0
  5  7  1  0  0  0
  7 10  1  0  0  0
 10 11  1  0  0  0
 10 19  1  0  0  0
 11 12  2  0  0  0
 12 13  1  0  0  0
 13 14  1  0  0  0
 13 19  2  0  0  0
 14 15  1  0  0  0
 14 16  2  0  0  0
 16 17  1  0  0  0
 17 18  2  0  0  0
 18 19  1  0  0  0
 36 38  1  0  0  0
 37 39  1  0  0  0
 31 32  1  0  0  0
 26 27  1  0  0  0
  4  8  1  0  0  0
  6  9  1  0  0  0
 15 20  1  0  0  0
 15 21  1  0  0  0
M  END
> <minimizedAffinity>
-10.34506

$$$$
1B38_ATP_A_381


 39 41  0  0  0  0  0  0  0  0999 V2000
   -1.5294   24.4460   11.0877 C   0  0  0  0  0  0  0  0  0  0  0  0
   -1.1458   25.3427   10.0383 O   0  0  0  0  0  0  0  0  0  0  0  0
   -0.2461   24.1073   11.8542 C   0  0  0  0  0  0  0  0  0  0  0  0
    0.2739   22.8754   11.3193 O   0  0  0  0  0  0  0  0  0  0  0  0
    0.7240   25.2717   11.4511 C   0  0  0  0  0  0  0  0  0  0  0  0
    2.0228   24.6450   11.2906 O   0  0  0  0  0  0  0  0  0  0  0  0
    0.2231   25.6053   10.0292 C   0  0  0  0  0  0  0  0  0  0  0  0
    0.3956   22.9648   10.3612 H   0  0  0  0  0  0  0  0  0  0  0  0
    1.9476   23.8977   10.6768 H   0  0  0  0  0  0  0  0  0  0  0  0
    0.3636   27.0222    9.7071 N   0  0  0  0  0  0  0  0  0  0  0  0
    1.3403   27.4788    8.8901 C   0  0  0  0  0  0  0  0  0  0  0  0
    1.1243   28.6243    8.3984 N   0  0  0  0  0  0  0  0  0  0  0  0
   -0.0454   29.0082    8.8660 C   0  0  0  0  0  0  0  0  0  0  0  0
   -0.7510   30.1985    8.6671 C   0  0  0  0  0  0  0  0  0  0  0  0
   -0.4218   31.2443    7.9295 N   0  0  0  0  0  0  0  0  0  0  0  0
   -1.9329   30.2730    9.3188 N   0  0  0  0  0  0  0  0  0  0  0  0
   -2.3223   29.2620   10.1347 C   0  0  0  0  0  0  0  0  0  0  0  0
   -1.7340   28.1123   10.3477 N   0  0  0  0  0  0  0  0  0  0  0  0
   -0.5605   28.0484    9.7063 C   0  0  0  0  0  0  0  0  0  0  0  0
    0.4274   31.2476    7.4315 H   0  0  0  0  0  0  0  0  0  0  0  0
   -1.0258   32.0200    7.8781 H   0  0  0  0  0  0  0  0  0  0  0  0
   -2.5432   25.1362   12.0099 C   0  0  0  0  0  0  0  0  0  0  0  0
   -2.7625   24.1523   13.0394 O   0  0  0  0  0  0  0  0  0  0  0  0
   -3.1921   24.6295   14.4954 P   0  0  0  0  0  0  0  0  0  0  0  0
   -1.9574   25.1920   15.1622 O   0  0  0  0  0  0  0  0  0  0  0  0
   -3.8761   23.5631   15.1788 O   0  0  0  0  0  0  0  0  0  0  0  0
   -4.1350   23.8606   16.0651 H   0  0  0  0  0  0  0  0  0  0  0  0
   -4.0577   25.9971   14.2692 O   0  0  0  0  0  0  0  0  0  0  0  0
   -5.6540   26.1314   14.3962 P   0  0  0  0  0  0  0  0  0  0  0  0
   -6.2417   25.0964   13.5195 O   0  0  0  0  0  0  0  0  0  0  0  0
   -6.0852   27.5073   14.1890 O   0  0  0  0  0  0  0  0  0  0  0  0
   -7.0504   27.5595   14.2709 H   0  0  0  0  0  0  0  0  0  0  0  0
   -5.7082   25.6878   15.9254 O   0  0  0  0  0  0  0  0  0  0  0  0
   -5.4387   26.5384   17.2271 P   0  0  0  0  0  0  0  0  0  0  0  0
   -5.7017   27.9559   17.0217 O   0  0  0  0  0  0  0  0  0  0  0  0
   -6.1329   25.9255   18.3896 O   0  0  0  0  0  0  0  0  0  0  0  0
   -3.9466   26.4361   17.4805 O   0  0  0  0  0  0  0  0  0  0  0  0
   -5.9616   26.4547   19.1843 H   0  0  0  0  0  0  0  0  0  0  0  0
   -3.7180   26.9434   18.2751 H   0  0  0  0  0  0  0  0  0  0  0  0
 34 35  2  0  0  0
 34 36  1  0  0  0
 34 37  1  0  0  0
 34 33  1  0  0  0
 29 30  2  0  0  0
 29 31  1  0  0  0
 29 33  1  0  0  0
 29 28  1  0  0  0
 24 25  2  0  0  0
 24 26  1  0  0  0
 24 28  1  0  0  0
 24 23  1  0  0  0
 23 22  1  0  0  0
 22  1  1  0  0  0
  1  2  1  0  0  0
  1  3  1  0  0  0
  2  7  1  0  0  0
  3  4  1  0  0  0
  3  5  1  0  0  0
  5  6  1  0  0  0
  5  7  1  0  0  0
  7 10  1  0  0  0
 10 11  1  0  0  0
 10 19  1  0  0  0
 11 12  2  0  0  0
 12 13  1  0  0  0
 13 14  1  0  0  0
 13 19  2  0  0  0
 14 15  1  0  0  0
 14 16  2  0  0  0
 16 17  1  0  0  0
 17 18  2  0  0  0
 18 19  1  0  0  0
 36 38  1  0  0  0
 37 39  1  0  0  0
 31 32  1  0  0  0
 26 27  1  0  0  0
  4  8  1  0  0  0
  6  9  1  0  0  0
 15 20  1  0  0  0
 15 21  1  0  0  0
M  END
> <minimizedAffinity>
-10.26224

$$$$
1B38_ATP_A_381


 39 41  0  0  0  0  0  0  0  0999 V2000
   -0.6434   22.3829   14.2226 C   0  0  0  0  0  0  0  0  0  0  0  0
   -1.0977   23.7074   14.5256 O   0  0  0  0  0  0  0  0  0  0  0  0
   -1.6007   21.4252   14.9407 C   0  0  0  0  0  0  0  0  0  0  0  0
   -1.0089   21.0790   16.2072 O   0  0  0  0  0  0  0  0  0  0  0  0
   -2.8600   22.3204   15.2098 C   0  0  0  0  0  0  0  0  0  0  0  0
   -3.3211   21.9389   16.5316 O   0  0  0  0  0  0  0  0  0  0  0  0
   -2.2144   23.7150   15.3599 C   0  0  0  0  0  0  0  0  0  0  0  0
   -0.8106   21.8884   16.7035 H   0  0  0  0  0  0  0  0  0  0  0  0
   -2.5868   22.0053   17.1619 H   0  0  0  0  0  0  0  0  0  0  0  0
   -3.0795   24.7849   14.8721 N   0  0  0  0  0  0  0  0  0  0  0  0
   -3.5783   24.7871   13.6147 C   0  0  0  0  0  0  0  0  0  0  0  0
   -4.5870   25.5323   13.4485 N   0  0  0  0  0  0  0  0  0  0  0  0
   -4.8324   26.0821   14.6197 C   0  0  0  0  0  0  0  0  0  0  0  0
   -5.8122   27.0052   14.9966 C   0  0  0  0  0  0  0  0  0  0  0  0
   -6.7659   27.5489   14.2612 N   0  0  0  0  0  0  0  0  0  0  0  0
   -5.7705   27.3783   16.2951 N   0  0  0  0  0  0  0  0  0  0  0  0
   -4.7930   26.9029   17.1062 C   0  0  0  0  0  0  0  0  0  0  0  0
   -3.8651   26.0203   16.8355 N   0  0  0  0  0  0  0  0  0  0  0  0
   -3.9065   25.6615   15.5463 C   0  0  0  0  0  0  0  0  0  0  0  0
   -6.8462   27.3154   13.3082 H   0  0  0  0  0  0  0  0  0  0  0  0
   -7.3962   28.1876   14.6663 H   0  0  0  0  0  0  0  0  0  0  0  0
   -0.6902   22.1568   12.7056 C   0  0  0  0  0  0  0  0  0  0  0  0
    0.2434   23.1340   12.2063 O   0  0  0  0  0  0  0  0  0  0  0  0
    0.7554   23.0268   10.7035 P   0  0  0  0  0  0  0  0  0  0  0  0
   -0.3055   22.2843    9.9233 O   0  0  0  0  0  0  0  0  0  0  0  0
    2.0877   22.4822   10.6772 O   0  0  0  0  0  0  0  0  0  0  0  0
    2.3934   22.4196    9.7587 H   0  0  0  0  0  0  0  0  0  0  0  0
    0.5901   24.5272   10.0775 O   0  0  0  0  0  0  0  0  0  0  0  0
    1.5959   25.7589   10.3093 P   0  0  0  0  0  0  0  0  0  0  0  0
    2.2818   25.9996    9.0222 O   0  0  0  0  0  0  0  0  0  0  0  0
    2.4318   25.5430   11.4827 O   0  0  0  0  0  0  0  0  0  0  0  0
    3.0277   26.2995   11.5988 H   0  0  0  0  0  0  0  0  0  0  0  0
    0.4446   26.8320   10.5566 O   0  0  0  0  0  0  0  0  0  0  0  0
   -0.6392   26.8950   11.7020 P   0  0  0  0  0  0  0  0  0  0  0  0
   -1.9969   26.8472   11.1774 O   0  0  0  0  0  0  0  0  0  0  0  0
   -0.3288   25.8916   12.7535 O   0  0  0  0  0  0  0  0  0  0  0  0
   -0.4946   28.2701   12.3261 O   0  0  0  0  0  0  0  0  0  0  0  0
   -0.9997   25.9378   13.4526 H   0  0  0  0  0  0  0  0  0  0  0  0
   -1.1404   28.3692   13.0432 H   0  0  0  0  0  0  0  0  0  0  0  0
 34 35  2  0  0  0
 34 36  1  0  0  0
 34 37  1  0  0  0
 34 33  1  0  0  0
 29 30  2  0  0  0
 29 31  1  0  0  0
 29 33  1  0  0  0
 29 28  1  0  0  0
 24 25  2  0  0  0
 24 26  1  0  0  0
 24 28  1  0  0  0
 24 23  1  0  0  0
 23 22  1  0  0  0
 22  1  1  0  0  0
  1  2  1  0  0  0
  1  3  1  0  0  0
  2  7  1  0  0  0
  3  4  1  0  0  0
  3  5  1  0  0  0
  5  6  1  0  0  0
  5  7  1  0  0  0
  7 10  1  0  0  0
 10 11  1  0  0  0
 10 19  1  0  0  0
 11 12  2  0  0  0
 12 13  1  0  0  0
 13 14  1  0  0  0
 13 19  2  0  0  0
 14 15  1  0  0  0
 14 16  2  0  0  0
 16 17  1  0  0  0
 17 18  2  0  0  0
 18 19  1  0  0  0
 36 38  1  0  0  0
 37 39  1  0  0  0
 31 32  1  0  0  0
 26 27  1  0  0  0
  4  8  1  0  0  0
  6  9  1  0  0  0
 15 20  1  0  0  0
 15 21  1  0  0  0
M  END
> <minimizedAffinity>
-9.76819

$$$$
1B38_ATP_A_381


 39 41  0  0  0  0  0  0  0  0999 V2000
    0.7136   22.5410   11.1901 C   0  0  0  0  0  0  0  0  0  0  0  0
   -0.2730   23.3331   10.5179 O   0  0  0  0  0  0  0  0  0  0  0  0
    2.0742   23.1358   10.8102 C   0  0  0  0  0  0  0  0  0  0  0  0
    2.5846   22.3874    9.6907 O   0  0  0  0  0  0  0  0  0  0  0  0
    1.7039   24.5774   10.3158 C   0  0  0  0  0  0  0  0  0  0  0  0
    2.5698   24.8220    9.1774 O   0  0  0  0  0  0  0  0  0  0  0  0
    0.2881   24.3477    9.7441 C   0  0  0  0  0  0  0  0  0  0  0  0
    1.9330   22.3957    8.9721 H   0  0  0  0  0  0  0  0  0  0  0  0
    2.4780   24.0970    8.5396 H   0  0  0  0  0  0  0  0  0  0  0  0
   -0.5760   25.5123    9.9116 N   0  0  0  0  0  0  0  0  0  0  0  0
   -1.4321   25.6267   10.9527 C   0  0  0  0  0  0  0  0  0  0  0  0
   -1.8223   26.8069   11.1878 N   0  0  0  0  0  0  0  0  0  0  0  0
   -1.2278   27.5728   10.2967 C   0  0  0  0  0  0  0  0  0  0  0  0
   -1.3226   28.9512   10.0835 C   0  0  0  0  0  0  0  0  0  0  0  0
   -2.0299   29.8466   10.7499 N   0  0  0  0  0  0  0  0  0  0  0  0
   -0.5785   29.4189    9.0566 N   0  0  0  0  0  0  0  0  0  0  0  0
    0.1389   28.5585    8.2920 C   0  0  0  0  0  0  0  0  0  0  0  0
    0.2993   27.2687    8.4461 N   0  0  0  0  0  0  0  0  0  0  0  0
   -0.4467   26.8106    9.4591 C   0  0  0  0  0  0  0  0  0  0  0  0
   -2.5913   29.5653   11.5081 H   0  0  0  0  0  0  0  0  0  0  0  0
   -1.9955   30.7950   10.4881 H   0  0  0  0  0  0  0  0  0  0  0  0
    0.4931   22.6219   12.7065 C   0  0  0  0  0  0  0  0  0  0  0  0
   -0.9336   22.4649   12.8323 O   0  0  0  0  0  0  0  0  0  0  0  0
   -1.5370   21.8717   14.1800 P   0  0  0  0  0  0  0  0  0  0  0  0
   -0.5287   22.1378   15.2746 O   0  0  0  0  0  0  0  0  0  0  0  0
   -1.9368   20.5037   13.9777 O   0  0  0  0  0  0  0  0  0  0  0  0
   -2.3034   20.1486   14.8025 H   0  0  0  0  0  0  0  0  0  0  0  0
   -2.7285   22.9017   14.6158 O   0  0  0  0  0  0  0  0  0  0  0  0
   -2.6871   24.5019   14.4733 P   0  0  0  0  0  0  0  0  0  0  0  0
   -3.4816   24.8457   13.2752 O   0  0  0  0  0  0  0  0  0  0  0  0
   -1.3200   25.0012   14.5355 O   0  0  0  0  0  0  0  0  0  0  0  0
   -1.3243   25.9672   14.4473 H   0  0  0  0  0  0  0  0  0  0  0  0
   -3.5106   24.7801   15.8085 O   0  0  0  0  0  0  0  0  0  0  0  0
   -4.5257   25.9429   16.1374 P   0  0  0  0  0  0  0  0  0  0  0  0
   -5.6199   26.0051   15.1784 O   0  0  0  0  0  0  0  0  0  0  0  0
   -4.9350   25.8741   17.5646 O   0  0  0  0  0  0  0  0  0  0  0  0
   -3.7472   27.2309   15.9474 O   0  0  0  0  0  0  0  0  0  0  0  0
   -5.5582   26.5919   17.7572 H   0  0  0  0  0  0  0  0  0  0  0  0
   -4.3234   27.9879   16.1368 H   0  0  0  0  0  0  0  0  0  0  0  0
 34 35  2  0  0  0
 34 36  1  0  0  0
 34 37  1  0  0  0
 34 33  1  0  0  0
 29 30  2  0  0  0
 29 31  1  0  0  0
 29 33  1  0  0  0
 29 28  1  0  0  0
 24 25  2  0  0  0
 24 26  1  0  0  0
 24 28  1  0  0  0
 24 23  1  0  0  0
 23 22  1  0  0  0
 22  1  1  0  0  0
  1  2  1  0  0  0
  1  3  1  0  0  0
  2  7  1  0  0  0
  3  4  1  0  0  0
  3  5  1  0  0  0
  5  6  1  0  0  0
  5  7  1  0  0  0
  7 10  1  0  0  0
 10 11  1  0  0  0
 10 19  1  0  0  0
 11 12  2  0  0  0
 12 13  1  0  0  0
 13 14  1  0  0  0
 13 19  2  0  0  0
 14 15  1  0  0  0
 14 16  2  0  0  0
 16 17  1  0  0  0
 17 18  2  0  0  0
 18 19  1  0  0  0
 36 38  1  0  0  0
 37 39  1  0  0  0
 31 32  1  0  0  0
 26 27  1  0  0  0
  4  8  1  0  0  0
  6  9  1  0  0  0
 15 20  1  0  0  0
 15 21  1  0  0  0
M  END
> <minimizedAffinity>
-9.75286

$$$$
1B38_ATP_A_381


 39 41  0  0  0  0  0  0  0  0999 V2000
    0.2234   22.8956   10.7557 C   0  0  0  0  0  0  0  0  0  0  0  0
   -0.3441   23.9162    9.9258 O   0  0  0  0  0  0  0  0  0  0  0  0
    1.4266   23.5332   11.4592 C   0  0  0  0  0  0  0  0  0  0  0  0
    2.6026   23.2231   10.6879 O   0  0  0  0  0  0  0  0  0  0  0  0
    1.1388   25.0694   11.3288 C   0  0  0  0  0  0  0  0  0  0  0  0
    2.4303   25.6763   11.0660 O   0  0  0  0  0  0  0  0  0  0  0  0
    0.3557   25.1195    9.9991 C   0  0  0  0  0  0  0  0  0  0  0  0
    2.4759   23.5178    9.7725 H   0  0  0  0  0  0  0  0  0  0  0  0
    2.8457   25.2369   10.3076 H   0  0  0  0  0  0  0  0  0  0  0  0
   -0.6505   26.1770    9.9846 N   0  0  0  0  0  0  0  0  0  0  0  0
   -1.5988   26.2781   10.9440 C   0  0  0  0  0  0  0  0  0  0  0  0
   -2.1437   27.4167   11.0295 N   0  0  0  0  0  0  0  0  0  0  0  0
   -1.5706   28.1661   10.1108 C   0  0  0  0  0  0  0  0  0  0  0  0
   -1.8088   29.4963    9.7528 C   0  0  0  0  0  0  0  0  0  0  0  0
   -2.6701   30.3533   10.2720 N   0  0  0  0  0  0  0  0  0  0  0  0
   -1.0410   29.9574    8.7404 N   0  0  0  0  0  0  0  0  0  0  0  0
   -0.1654   29.1274    8.1209 C   0  0  0  0  0  0  0  0  0  0  0  0
    0.1322   27.8874    8.4161 N   0  0  0  0  0  0  0  0  0  0  0  0
   -0.6374   27.4343    9.4136 C   0  0  0  0  0  0  0  0  0  0  0  0
   -3.2564   30.0745   11.0122 H   0  0  0  0  0  0  0  0  0  0  0  0
   -2.7257   31.2705    9.9187 H   0  0  0  0  0  0  0  0  0  0  0  0
   -0.8174   22.4286   11.7821 C   0  0  0  0  0  0  0  0  0  0  0  0
   -0.0044   21.8682   12.8314 O   0  0  0  0  0  0  0  0  0  0  0  0
   -0.4821   20.5374   13.5615 P   0  0  0  0  0  0  0  0  0  0  0  0
    0.4583   20.3039   14.7220 O   0  0  0  0  0  0  0  0  0  0  0  0
   -0.6139   19.4723   12.6021 O   0  0  0  0  0  0  0  0  0  0  0  0
   -0.9052   18.6647   13.0536 H   0  0  0  0  0  0  0  0  0  0  0  0
   -1.8476   20.9442   14.3618 O   0  0  0  0  0  0  0  0  0  0  0  0
   -2.0331   22.2248   15.3147 P   0  0  0  0  0  0  0  0  0  0  0  0
   -3.0472   23.0902   14.6762 O   0  0  0  0  0  0  0  0  0  0  0  0
   -0.7484   22.8288   15.6417 O   0  0  0  0  0  0  0  0  0  0  0  0
   -0.8893   23.5974   16.2163 H   0  0  0  0  0  0  0  0  0  0  0  0
   -2.6595   21.4039   16.5279 O   0  0  0  0  0  0  0  0  0  0  0  0
   -1.9516   20.4448   17.5621 P   0  0  0  0  0  0  0  0  0  0  0  0
   -0.7582   21.0456   18.1414 O   0  0  0  0  0  0  0  0  0  0  0  0
   -2.9435   19.9304   18.5422 O   0  0  0  0  0  0  0  0  0  0  0  0
   -1.4565   19.2627   16.7505 O   0  0  0  0  0  0  0  0  0  0  0  0
   -2.4997   19.3423   19.1731 H   0  0  0  0  0  0  0  0  0  0  0  0
   -1.0085   18.6329   17.3367 H   0  0  0  0  0  0  0  0  0  0  0  0
 34 35  2  0  0  0
 34 36  1  0  0  0
 34 37  1  0  0  0
 34 33  1  0  0  0
 29 30  2  0  0  0
 29 31  1  0  0  0
 29 33  1  0  0  0
 29 28  1  0  0  0
 24 25  2  0  0  0
 24 26  1  0  0  0
 24 28  1  0  0  0
 24 23  1  0  0  0
 23 22  1  0  0  0
 22  1  1  0  0  0
  1  2  1  0  0  0
  1  3  1  0  0  0
  2  7  1  0  0  0
  3  4  1  0  0  0
  3  5  1  0  0  0
  5  6  1  0  0  0
  5  7  1  0  0  0
  7 10  1  0  0  0
 10 11  1  0  0  0
 10 19  1  0  0  0
 11 12  2  0  0  0
 12 13  1  0  0  0
 13 14  1  0  0  0
 13 19  2  0  0  0
 14 15  1  0  0  0
 14 16  2  0  0  0
 16 17  1  0  0  0
 17 18  2  0  0  0
 18 19  1  0  0  0
 36 38  1  0  0  0
 37 39  1  0  0  0
 31 32  1  0  0  0
 26 27  1  0  0  0
  4  8  1  0  0  0
  6  9  1  0  0  0
 15 20  1  0  0  0
 15 21  1  0  0  0
M  END
> <minimizedAffinity>
-9.57531

$$$$
1B38_ATP_A_381


 39 41  0  0  0  0  0  0  0  0999 V2000
    1.1547   23.2930   10.0579 C   0  0  0  0  0  0  0  0  0  0  0  0
    1.0524   23.6917   11.4301 O   0  0  0  0  0  0  0  0  0  0  0  0
    0.5607   21.8825    9.9747 C   0  0  0  0  0  0  0  0  0  0  0  0
    1.6456   20.9411   10.0786 O   0  0  0  0  0  0  0  0  0  0  0  0
   -0.3058   21.7866   11.2784 C   0  0  0  0  0  0  0  0  0  0  0  0
   -0.1140   20.4323   11.7626 O   0  0  0  0  0  0  0  0  0  0  0  0
    0.4830   22.7066   12.2352 C   0  0  0  0  0  0  0  0  0  0  0  0
    2.1467   21.1137   10.8911 H   0  0  0  0  0  0  0  0  0  0  0  0
    0.8351   20.2502   11.8463 H   0  0  0  0  0  0  0  0  0  0  0  0
   -0.3850   23.4040   13.1793 N   0  0  0  0  0  0  0  0  0  0  0  0
   -0.7309   24.7011   13.0123 C   0  0  0  0  0  0  0  0  0  0  0  0
   -1.7584   25.0604   13.6570 N   0  0  0  0  0  0  0  0  0  0  0  0
   -2.1749   23.9927   14.3056 C   0  0  0  0  0  0  0  0  0  0  0  0
   -3.2493   23.8324   15.1855 C   0  0  0  0  0  0  0  0  0  0  0  0
   -4.1422   24.7250   15.5753 N   0  0  0  0  0  0  0  0  0  0  0  0
   -3.3852   22.5874   15.6941 N   0  0  0  0  0  0  0  0  0  0  0  0
   -2.4819   21.6251   15.3819 C   0  0  0  0  0  0  0  0  0  0  0  0
   -1.4742   21.6907   14.5492 N   0  0  0  0  0  0  0  0  0  0  0  0
   -1.3401   22.9281   14.0558 C   0  0  0  0  0  0  0  0  0  0  0  0
   -4.0943   25.6488   15.2382 H   0  0  0  0  0  0  0  0  0  0  0  0
   -4.8554   24.4664   16.2027 H   0  0  0  0  0  0  0  0  0  0  0  0
    0.3596   24.2667    9.1779 C   0  0  0  0  0  0  0  0  0  0  0  0
    1.2872   25.3513    8.9803 O   0  0  0  0  0  0  0  0  0  0  0  0
    1.0420   26.7335    9.7298 P   0  0  0  0  0  0  0  0  0  0  0  0
    1.6093   27.8242    8.8500 O   0  0  0  0  0  0  0  0  0  0  0  0
    1.5405   26.6552   11.0780 O   0  0  0  0  0  0  0  0  0  0  0  0
    1.3879   27.5005   11.5287 H   0  0  0  0  0  0  0  0  0  0  0  0
   -0.5577   27.0331    9.5815 O   0  0  0  0  0  0  0  0  0  0  0  0
   -1.4572   27.8715   10.6161 P   0  0  0  0  0  0  0  0  0  0  0  0
   -0.5307   28.7048   11.4112 O   0  0  0  0  0  0  0  0  0  0  0  0
   -2.3692   27.0016   11.3466 O   0  0  0  0  0  0  0  0  0  0  0  0
   -2.8986   27.5322   11.9623 H   0  0  0  0  0  0  0  0  0  0  0  0
   -2.1882   28.7350    9.4943 O   0  0  0  0  0  0  0  0  0  0  0  0
   -1.7504   30.1002    8.8347 P   0  0  0  0  0  0  0  0  0  0  0  0
   -2.4750   30.3720    7.6010 O   0  0  0  0  0  0  0  0  0  0  0  0
   -1.7857   31.1894    9.8453 O   0  0  0  0  0  0  0  0  0  0  0  0
   -0.3037   29.9085    8.4205 O   0  0  0  0  0  0  0  0  0  0  0  0
   -1.5153   32.0237    9.4310 H   0  0  0  0  0  0  0  0  0  0  0  0
    0.0242   30.7214    8.0052 H   0  0  0  0  0  0  0  0  0  0  0  0
 34 35  2  0  0  0
 34 36  1  0  0  0
 34 37  1  0  0  0
 34 33  1  0  0  0
 29 30  2  0  0  0
 29 31  1  0  0  0
 29 33  1  0  0  0
 29 28  1  0  0  0
 24 25  2  0  0  0
 24 26  1  0  0  0
 24 28  1  0  0  0
 24 23  1  0  0  0
 23 22  1  0  0  0
 22  1  1  0  0  0
  1  2  1  0  0  0
  1  3  1  0  0  0
  2  7  1  0  0  0
  3  4  1  0  0  0
  3  5  1  0  0  0
  5  6  1  0  0  0
  5  7  1  0  0  0
  7 10  1  0  0  0
 10 11  1  0  0  0
 10 19  1  0  0  0
 11 12  2  0  0  0
 12 13  1  0  0  0
 13 14  1  0  0  0
 13 19  2  0  0  0
 14 15  1  0  0  0
 14 16  2  0  0  0
 16 17  1  0  0  0
 17 18  2  0  0  0
 18 19  1  0  0  0
 36 38  1  0  0  0
 37 39  1  0  0  0
 31 32  1  0  0  0
 26 27  1  0  0  0
  4  8  1  0  0  0
  6  9  1  0  0  0
 15 20  1  0  0  0
 15 21  1  0  0  0
M  END
> <minimizedAffinity>
-9.49674

$$$$
