2PWD_NOJ_A_8000


 16 16  0  0  0  0  0  0  0  0999 V2000
    7.9906    3.2134    2.9510 C   0  0  0  0  0  0  0  0  0  0  0  0
    6.9893    3.5488    1.7882 C   0  0  0  0  0  0  0  0  0  0  0  0
    7.2557    2.7366    0.6662 O   0  0  0  0  0  0  0  0  0  0  0  0
    7.1262    5.0405    1.4180 C   0  0  0  0  0  0  0  0  0  0  0  0
    6.2401    5.4122    0.3539 O   0  0  0  0  0  0  0  0  0  0  0  0
    6.7891    5.8966    2.6682 C   0  0  0  0  0  0  0  0  0  0  0  0
    6.9174    7.3113    2.3511 O   0  0  0  0  0  0  0  0  0  0  0  0
    7.7448    5.4860    3.8408 C   0  0  0  0  0  0  0  0  0  0  0  0
    7.6843    4.0600    4.1205 N   0  0  0  0  0  0  0  0  0  0  0  0
    8.1610    2.8983    0.3577 H   0  0  0  0  0  0  0  0  0  0  0  0
    5.3222    5.2662    0.6316 H   0  0  0  0  0  0  0  0  0  0  0  0
    7.8272    7.4987    2.0716 H   0  0  0  0  0  0  0  0  0  0  0  0
    8.3569    3.8473    4.8572 H   0  0  0  0  0  0  0  0  0  0  0  0
    7.3650    6.2221    5.1388 C   0  0  0  0  0  0  0  0  0  0  0  0
    8.2513    7.3901    5.1708 O   0  0  0  0  0  0  0  0  0  0  0  0
    9.1752    7.0957    5.1462 H   0  0  0  0  0  0  0  0  0  0  0  0
  1  2  1  0  0  0
  1  9  1  0  0  0
  2  3  1  0  0  0
  2  4  1  0  0  0
  4  5  1  0  0  0
  4  6  1  0  0  0
  6  7  1  0  0  0
  6  8  1  0  0  0
  8  9  1  0  0  0
  8 14  1  0  0  0
 14 15  1  0  0  0
  3 10  1  0  0  0
  5 11  1  0  0  0
  7 12  1  0  0  0
  9 13  1  0  0  0
 15 16  1  0  0  0
M  END
> <minimizedAffinity>
-6.87201

$$$$
2PWD_NOJ_A_8000


 16 16  0  0  0  0  0  0  0  0999 V2000
    7.0048    5.9431    2.1809 C   0  0  0  0  0  0  0  0  0  0  0  0
    6.8091    4.8282    3.2699 C   0  0  0  0  0  0  0  0  0  0  0  0
    7.0594    5.3531    4.5550 O   0  0  0  0  0  0  0  0  0  0  0  0
    7.7672    3.6561    2.9710 C   0  0  0  0  0  0  0  0  0  0  0  0
    7.6429    2.6029    3.9358 O   0  0  0  0  0  0  0  0  0  0  0  0
    7.4333    3.0861    1.5663 C   0  0  0  0  0  0  0  0  0  0  0  0
    8.3277    1.9817    1.2526 O   0  0  0  0  0  0  0  0  0  0  0  0
    7.5532    4.2355    0.5074 C   0  0  0  0  0  0  0  0  0  0  0  0
    6.7213    5.3794    0.8467 N   0  0  0  0  0  0  0  0  0  0  0  0
    7.9720    5.6788    4.5992 H   0  0  0  0  0  0  0  0  0  0  0  0
    6.7395    2.2504    3.9151 H   0  0  0  0  0  0  0  0  0  0  0  0
    9.2452    2.2967    1.2596 H   0  0  0  0  0  0  0  0  0  0  0  0
    6.8756    6.1080    0.1497 H   0  0  0  0  0  0  0  0  0  0  0  0
    7.1102    3.7457   -0.8836 C   0  0  0  0  0  0  0  0  0  0  0  0
    6.2952    2.5572   -0.6114 O   0  0  0  0  0  0  0  0  0  0  0  0
    6.8233    1.9086   -0.1202 H   0  0  0  0  0  0  0  0  0  0  0  0
  1  2  1  0  0  0
  1  9  1  0  0  0
  2  3  1  0  0  0
  2  4  1  0  0  0
  4  5  1  0  0  0
  4  6  1  0  0  0
  6  7  1  0  0  0
  6  8  1  0  0  0
  8  9  1  0  0  0
  8 14  1  0  0  0
 14 15  1  0  0  0
  3 10  1  0  0  0
  5 11  1  0  0  0
  7 12  1  0  0  0
  9 13  1  0  0  0
 15 16  1  0  0  0
M  END
> <minimizedAffinity>
-6.44036

$$$$
2PWD_NOJ_A_8000


 16 16  0  0  0  0  0  0  0  0999 V2000
    7.4719    6.2306    2.5563 C   0  0  0  0  0  0  0  0  0  0  0  0
    6.1731    5.3964    2.8466 C   0  0  0  0  0  0  0  0  0  0  0  0
    5.9038    5.3799    4.2311 O   0  0  0  0  0  0  0  0  0  0  0  0
    6.3669    3.9595    2.3186 C   0  0  0  0  0  0  0  0  0  0  0  0
    5.2149    3.1403    2.5586 O   0  0  0  0  0  0  0  0  0  0  0  0
    6.6233    4.0216    0.7889 C   0  0  0  0  0  0  0  0  0  0  0  0
    6.8180    2.6788    0.2626 O   0  0  0  0  0  0  0  0  0  0  0  0
    7.8733    4.9274    0.5173 C   0  0  0  0  0  0  0  0  0  0  0  0
    7.7262    6.2508    1.1026 N   0  0  0  0  0  0  0  0  0  0  0  0
    6.6493    4.9743    4.7007 H   0  0  0  0  0  0  0  0  0  0  0  0
    4.4488    3.5168    2.0979 H   0  0  0  0  0  0  0  0  0  0  0  0
    7.5815    2.2684    0.6980 H   0  0  0  0  0  0  0  0  0  0  0  0
    8.5844    6.7753    0.9329 H   0  0  0  0  0  0  0  0  0  0  0  0
    8.0914    5.1189   -0.9948 C   0  0  0  0  0  0  0  0  0  0  0  0
    7.9834    6.5671   -1.2004 O   0  0  0  0  0  0  0  0  0  0  0  0
    7.1172    6.8740   -0.8899 H   0  0  0  0  0  0  0  0  0  0  0  0
  1  2  1  0  0  0
  1  9  1  0  0  0
  2  3  1  0  0  0
  2  4  1  0  0  0
  4  5  1  0  0  0
  4  6  1  0  0  0
  6  7  1  0  0  0
  6  8  1  0  0  0
  8  9  1  0  0  0
  8 14  1  0  0  0
 14 15  1  0  0  0
  3 10  1  0  0  0
  5 11  1  0  0  0
  7 12  1  0  0  0
  9 13  1  0  0  0
 15 16  1  0  0  0
M  END
> <minimizedAffinity>
-6.30957

$$$$
2PWD_NOJ_A_8000


 16 16  0  0  0  0  0  0  0  0999 V2000
    8.5999    2.5042    1.1932 C   0  0  0  0  0  0  0  0  0  0  0  0
    7.7465    3.6261    1.8862 C   0  0  0  0  0  0  0  0  0  0  0  0
    6.8852    3.0588    2.8484 O   0  0  0  0  0  0  0  0  0  0  0  0
    6.9330    4.3782    0.8121 C   0  0  0  0  0  0  0  0  0  0  0  0
    6.1240    5.4159    1.3815 O   0  0  0  0  0  0  0  0  0  0  0  0
    7.9190    5.0163   -0.2029 C   0  0  0  0  0  0  0  0  0  0  0  0
    7.1790    5.7277   -1.2346 O   0  0  0  0  0  0  0  0  0  0  0  0
    8.8171    3.8894   -0.8196 C   0  0  0  0  0  0  0  0  0  0  0  0
    9.5062    3.1191    0.2039 N   0  0  0  0  0  0  0  0  0  0  0  0
    6.2862    2.4304    2.4157 H   0  0  0  0  0  0  0  0  0  0  0  0
    6.6942    6.0663    1.8205 H   0  0  0  0  0  0  0  0  0  0  0  0
    6.5974    5.1073   -1.7013 H   0  0  0  0  0  0  0  0  0  0  0  0
   10.0355    2.3767   -0.2534 H   0  0  0  0  0  0  0  0  0  0  0  0
    9.8944    4.4914   -1.7403 C   0  0  0  0  0  0  0  0  0  0  0  0
   10.0179    5.8844   -1.2983 O   0  0  0  0  0  0  0  0  0  0  0  0
    9.1559    6.3236   -1.3685 H   0  0  0  0  0  0  0  0  0  0  0  0
  1  2  1  0  0  0
  1  9  1  0  0  0
  2  3  1  0  0  0
  2  4  1  0  0  0
  4  5  1  0  0  0
  4  6  1  0  0  0
  6  7  1  0  0  0
  6  8  1  0  0  0
  8  9  1  0  0  0
  8 14  1  0  0  0
 14 15  1  0  0  0
  3 10  1  0  0  0
  5 11  1  0  0  0
  7 12  1  0  0  0
  9 13  1  0  0  0
 15 16  1  0  0  0
M  END
> <minimizedAffinity>
-6.27970

$$$$
2PWD_NOJ_A_8000


 16 16  0  0  0  0  0  0  0  0999 V2000
    6.9368    5.0736    2.4428 C   0  0  0  0  0  0  0  0  0  0  0  0
    7.1701    3.5288    2.6049 C   0  0  0  0  0  0  0  0  0  0  0  0
    7.5263    3.2268    3.9359 O   0  0  0  0  0  0  0  0  0  0  0  0
    8.2834    3.0813    1.6347 C   0  0  0  0  0  0  0  0  0  0  0  0
    8.5509    1.6765    1.7372 O   0  0  0  0  0  0  0  0  0  0  0  0
    7.8351    3.3978    0.1827 C   0  0  0  0  0  0  0  0  0  0  0  0
    8.8705    2.9929   -0.7565 O   0  0  0  0  0  0  0  0  0  0  0  0
    7.5270    4.9302    0.0662 C   0  0  0  0  0  0  0  0  0  0  0  0
    6.5480    5.3666    1.0495 N   0  0  0  0  0  0  0  0  0  0  0  0
    8.3448    3.6940    4.1655 H   0  0  0  0  0  0  0  0  0  0  0  0
    7.7508    1.1775    1.5093 H   0  0  0  0  0  0  0  0  0  0  0  0
    9.6893    3.4755   -0.5628 H   0  0  0  0  0  0  0  0  0  0  0  0
    6.4236    6.3745    0.9549 H   0  0  0  0  0  0  0  0  0  0  0  0
    6.9594    5.2695   -1.3243 C   0  0  0  0  0  0  0  0  0  0  0  0
    7.6788    6.4821   -1.7282 O   0  0  0  0  0  0  0  0  0  0  0  0
    7.5349    7.1783   -1.0683 H   0  0  0  0  0  0  0  0  0  0  0  0
  1  2  1  0  0  0
  1  9  1  0  0  0
  2  3  1  0  0  0
  2  4  1  0  0  0
  4  5  1  0  0  0
  4  6  1  0  0  0
  6  7  1  0  0  0
  6  8  1  0  0  0
  8  9  1  0  0  0
  8 14  1  0  0  0
 14 15  1  0  0  0
  3 10  1  0  0  0
  5 11  1  0  0  0
  7 12  1  0  0  0
  9 13  1  0  0  0
 15 16  1  0  0  0
M  END
> <minimizedAffinity>
-6.21167

$$$$
2PWD_NOJ_A_8000


 16 16  0  0  0  0  0  0  0  0999 V2000
    8.0761    5.6003    0.1910 C   0  0  0  0  0  0  0  0  0  0  0  0
    8.6640    4.1743    0.4874 C   0  0  0  0  0  0  0  0  0  0  0  0
    9.1864    3.6075   -0.6939 O   0  0  0  0  0  0  0  0  0  0  0  0
    7.5493    3.2786    1.0672 C   0  0  0  0  0  0  0  0  0  0  0  0
    8.0203    1.9554    1.3551 O   0  0  0  0  0  0  0  0  0  0  0  0
    7.0298    3.9190    2.3823 C   0  0  0  0  0  0  0  0  0  0  0  0
    5.9699    3.0988    2.9497 O   0  0  0  0  0  0  0  0  0  0  0  0
    6.5259    5.3717    2.0783 C   0  0  0  0  0  0  0  0  0  0  0  0
    7.5513    6.1832    1.4413 N   0  0  0  0  0  0  0  0  0  0  0  0
    8.4796    3.5252   -1.3531 H   0  0  0  0  0  0  0  0  0  0  0  0
    8.7281    2.0010    2.0168 H   0  0  0  0  0  0  0  0  0  0  0  0
    5.2383    3.0323    2.3162 H   0  0  0  0  0  0  0  0  0  0  0  0
    7.1524    7.0974    1.2281 H   0  0  0  0  0  0  0  0  0  0  0  0
    6.1161    6.0910    3.3766 C   0  0  0  0  0  0  0  0  0  0  0  0
    5.6670    7.4158    2.9358 O   0  0  0  0  0  0  0  0  0  0  0  0
    6.3850    7.8575    2.4560 H   0  0  0  0  0  0  0  0  0  0  0  0
  1  2  1  0  0  0
  1  9  1  0  0  0
  2  3  1  0  0  0
  2  4  1  0  0  0
  4  5  1  0  0  0
  4  6  1  0  0  0
  6  7  1  0  0  0
  6  8  1  0  0  0
  8  9  1  0  0  0
  8 14  1  0  0  0
 14 15  1  0  0  0
  3 10  1  0  0  0
  5 11  1  0  0  0
  7 12  1  0  0  0
  9 13  1  0  0  0
 15 16  1  0  0  0
M  END
> <minimizedAffinity>
-6.18893

$$$$
2PWD_NOJ_A_8000


 16 16  0  0  0  0  0  0  0  0999 V2000
    7.6782    3.3401    3.6459 C   0  0  0  0  0  0  0  0  0  0  0  0
    7.7789    4.9076    3.6396 C   0  0  0  0  0  0  0  0  0  0  0  0
    7.4877    5.4197    4.9211 O   0  0  0  0  0  0  0  0  0  0  0  0
    6.7923    5.4731    2.5966 C   0  0  0  0  0  0  0  0  0  0  0  0
    6.8300    6.9054    2.5446 O   0  0  0  0  0  0  0  0  0  0  0  0
    7.1711    4.9143    1.1988 C   0  0  0  0  0  0  0  0  0  0  0  0
    6.2513    5.4253    0.1934 O   0  0  0  0  0  0  0  0  0  0  0  0
    7.1459    3.3480    1.2513 C   0  0  0  0  0  0  0  0  0  0  0  0
    8.0036    2.8231    2.3023 N   0  0  0  0  0  0  0  0  0  0  0  0
    6.5870    5.1637    5.1746 H   0  0  0  0  0  0  0  0  0  0  0  0
    7.7193    7.1964    2.2890 H   0  0  0  0  0  0  0  0  0  0  0  0
    5.3472    5.1506    0.4128 H   0  0  0  0  0  0  0  0  0  0  0  0
    7.9107    1.8074    2.3167 H   0  0  0  0  0  0  0  0  0  0  0  0
    7.6360    2.7485   -0.0795 C   0  0  0  0  0  0  0  0  0  0  0  0
    6.4075    2.4664   -0.8292 O   0  0  0  0  0  0  0  0  0  0  0  0
    5.8456    1.8658   -0.3150 H   0  0  0  0  0  0  0  0  0  0  0  0
  1  2  1  0  0  0
  1  9  1  0  0  0
  2  3  1  0  0  0
  2  4  1  0  0  0
  4  5  1  0  0  0
  4  6  1  0  0  0
  6  7  1  0  0  0
  6  8  1  0  0  0
  8  9  1  0  0  0
  8 14  1  0  0  0
 14 15  1  0  0  0
  3 10  1  0  0  0
  5 11  1  0  0  0
  7 12  1  0  0  0
  9 13  1  0  0  0
 15 16  1  0  0  0
M  END
> <minimizedAffinity>
-6.09684

$$$$
2PWD_NOJ_A_8000


 16 16  0  0  0  0  0  0  0  0999 V2000
    7.3643    6.5050    3.2238 C   0  0  0  0  0  0  0  0  0  0  0  0
    5.9275    6.6389    2.6034 C   0  0  0  0  0  0  0  0  0  0  0  0
    5.3030    7.8145    3.0697 O   0  0  0  0  0  0  0  0  0  0  0  0
    5.0940    5.3980    2.9865 C   0  0  0  0  0  0  0  0  0  0  0  0
    3.7641    5.4606    2.4545 O   0  0  0  0  0  0  0  0  0  0  0  0
    5.7963    4.1335    2.4233 C   0  0  0  0  0  0  0  0  0  0  0  0
    5.0356    2.9439    2.7762 O   0  0  0  0  0  0  0  0  0  0  0  0
    7.2563    4.0656    2.9895 C   0  0  0  0  0  0  0  0  0  0  0  0
    8.0071    5.2796    2.7103 N   0  0  0  0  0  0  0  0  0  0  0  0
    5.2259    7.7782    4.0359 H   0  0  0  0  0  0  0  0  0  0  0  0
    3.8046    5.4940    1.4859 H   0  0  0  0  0  0  0  0  0  0  0  0
    4.9761    2.8728    3.7417 H   0  0  0  0  0  0  0  0  0  0  0  0
    8.9283    5.1948    3.1401 H   0  0  0  0  0  0  0  0  0  0  0  0
    8.0326    2.8941    2.3604 C   0  0  0  0  0  0  0  0  0  0  0  0
    7.4243    2.7194    1.0373 O   0  0  0  0  0  0  0  0  0  0  0  0
    6.4749    2.5480    1.1381 H   0  0  0  0  0  0  0  0  0  0  0  0
  1  2  1  0  0  0
  1  9  1  0  0  0
  2  3  1  0  0  0
  2  4  1  0  0  0
  4  5  1  0  0  0
  4  6  1  0  0  0
  6  7  1  0  0  0
  6  8  1  0  0  0
  8  9  1  0  0  0
  8 14  1  0  0  0
 14 15  1  0  0  0
  3 10  1  0  0  0
  5 11  1  0  0  0
  7 12  1  0  0  0
  9 13  1  0  0  0
 15 16  1  0  0  0
M  END
> <minimizedAffinity>
-6.08630

$$$$
2PWD_NOJ_A_8000


 16 16  0  0  0  0  0  0  0  0999 V2000
    8.1086    3.7892    3.8227 C   0  0  0  0  0  0  0  0  0  0  0  0
    7.8264    2.8156    2.6229 C   0  0  0  0  0  0  0  0  0  0  0  0
    8.8918    1.9032    2.4748 O   0  0  0  0  0  0  0  0  0  0  0  0
    7.6426    3.6429    1.3333 C   0  0  0  0  0  0  0  0  0  0  0  0
    7.3870    2.8104    0.1944 O   0  0  0  0  0  0  0  0  0  0  0  0
    6.4399    4.6050    1.5264 C   0  0  0  0  0  0  0  0  0  0  0  0
    6.2464    5.4057    0.3265 O   0  0  0  0  0  0  0  0  0  0  0  0
    6.7055    5.5093    2.7788 C   0  0  0  0  0  0  0  0  0  0  0  0
    6.9756    4.7232    3.9724 N   0  0  0  0  0  0  0  0  0  0  0  0
    9.7121    2.3899    2.2983 H   0  0  0  0  0  0  0  0  0  0  0  0
    6.5679    2.3105    0.3365 H   0  0  0  0  0  0  0  0  0  0  0  0
    7.0465    5.9257    0.1523 H   0  0  0  0  0  0  0  0  0  0  0  0
    7.1844    5.3628    4.7390 H   0  0  0  0  0  0  0  0  0  0  0  0
    5.4832    6.3949    3.0827 C   0  0  0  0  0  0  0  0  0  0  0  0
    4.3643    5.7153    2.4215 O   0  0  0  0  0  0  0  0  0  0  0  0
    4.5545    5.6257    1.4745 H   0  0  0  0  0  0  0  0  0  0  0  0
  1  2  1  0  0  0
  1  9  1  0  0  0
  2  3  1  0  0  0
  2  4  1  0  0  0
  4  5  1  0  0  0
  4  6  1  0  0  0
  6  7  1  0  0  0
  6  8  1  0  0  0
  8  9  1  0  0  0
  8 14  1  0  0  0
 14 15  1  0  0  0
  3 10  1  0  0  0
  5 11  1  0  0  0
  7 12  1  0  0  0
  9 13  1  0  0  0
 15 16  1  0  0  0
M  END
> <minimizedAffinity>
-5.99133

$$$$
2PWD_NOJ_A_8000


 16 16  0  0  0  0  0  0  0  0999 V2000
    7.4970    4.9196   -0.9270 C   0  0  0  0  0  0  0  0  0  0  0  0
    8.9834    4.5239   -0.6089 C   0  0  0  0  0  0  0  0  0  0  0  0
    9.7172    4.3844   -1.8055 O   0  0  0  0  0  0  0  0  0  0  0  0
    8.9951    3.2021    0.1872 C   0  0  0  0  0  0  0  0  0  0  0  0
   10.3278    2.7800    0.5055 O   0  0  0  0  0  0  0  0  0  0  0  0
    8.2099    3.4107    1.5099 C   0  0  0  0  0  0  0  0  0  0  0  0
    8.1972    2.1761    2.2803 O   0  0  0  0  0  0  0  0  0  0  0  0
    6.7555    3.8863    1.1705 C   0  0  0  0  0  0  0  0  0  0  0  0
    6.7513    5.0781    0.3368 N   0  0  0  0  0  0  0  0  0  0  0  0
    9.3169    3.6895   -2.3511 H   0  0  0  0  0  0  0  0  0  0  0  0
   10.7573    3.4531    1.0562 H   0  0  0  0  0  0  0  0  0  0  0  0
    7.7698    1.4761    1.7623 H   0  0  0  0  0  0  0  0  0  0  0  0
    5.7839    5.3114    0.1130 H   0  0  0  0  0  0  0  0  0  0  0  0
    5.9775    4.2254    2.4552 C   0  0  0  0  0  0  0  0  0  0  0  0
    5.1189    3.0584    2.6829 O   0  0  0  0  0  0  0  0  0  0  0  0
    4.5509    2.9190    1.9090 H   0  0  0  0  0  0  0  0  0  0  0  0
  1  2  1  0  0  0
  1  9  1  0  0  0
  2  3  1  0  0  0
  2  4  1  0  0  0
  4  5  1  0  0  0
  4  6  1  0  0  0
  6  7  1  0  0  0
  6  8  1  0  0  0
  8  9  1  0  0  0
  8 14  1  0  0  0
 14 15  1  0  0  0
  3 10  1  0  0  0
  5 11  1  0  0  0
  7 12  1  0  0  0
  9 13  1  0  0  0
 15 16  1  0  0  0
M  END
> <minimizedAffinity>
-5.93844

$$$$
