4W9I_3JS_C_301


 36 39  0  0  0  0  0  0  0  0999 V2000
   12.2873   53.6412   92.0819 C   0  0  0  0  0  0  0  0  0  0  0  0
   11.0910   53.4069   92.0090 O   0  0  0  0  0  0  0  0  0  0  0  0
   12.9976   54.0711   91.0130 N   0  0  0  0  0  0  0  0  0  0  0  0
   14.4520   54.3985   90.9770 C   0  0  0  0  0  0  0  0  0  0  0  0
   14.6202   55.2572   89.7483 C   0  0  0  0  0  0  0  0  0  0  0  0
   14.3171   56.6173   90.0647 O   0  0  0  0  0  0  0  0  0  0  0  0
   13.5953   54.7236   88.7810 C   0  0  0  0  0  0  0  0  0  0  0  0
   12.4067   54.2963   89.6407 C   0  0  0  0  0  0  0  0  0  0  0  0
   13.4172   56.6733   90.4224 H   0  0  0  0  0  0  0  0  0  0  0  0
   10.9864   54.8870   96.1110 C   0  0  0  0  0  0  0  0  0  0  0  0
   11.8574   54.7784   94.8541 C   0  0  0  0  0  0  0  0  0  0  0  0
   12.2043   55.7715   94.2181 O   0  0  0  0  0  0  0  0  0  0  0  0
   12.1912   53.5467   94.4899 N   0  0  0  0  0  0  0  0  0  0  0  0
   11.8575   52.2541   95.1212 C   0  0  0  0  0  0  0  0  0  0  0  0
   12.2288   51.2273   94.0702 C   0  0  0  0  0  0  0  0  0  0  0  0
   12.7561   50.0487   94.7048 O   0  0  0  0  0  0  0  0  0  0  0  0
   13.3238   51.8737   93.2664 C   0  0  0  0  0  0  0  0  0  0  0  0
   12.9998   53.3562   93.2743 C   0  0  0  0  0  0  0  0  0  0  0  0
   13.5217   50.2898   95.2495 H   0  0  0  0  0  0  0  0  0  0  0  0
   11.9187   53.0824   89.1233 C   0  0  0  0  0  0  0  0  0  0  0  0
   12.3950   52.0124   89.5140 O   0  0  0  0  0  0  0  0  0  0  0  0
   10.9491   53.1537   88.1669 N   0  0  0  0  0  0  0  0  0  0  0  0
   10.6015   54.0332   87.8934 H   0  0  0  0  0  0  0  0  0  0  0  0
   10.4154   51.9368   87.5383 C   0  0  0  0  0  0  0  0  0  0  0  0
   11.1187   51.6713   86.3275 C   0  0  0  0  0  0  0  0  0  0  0  0
   11.3325   52.7171   85.4181 C   0  0  0  0  0  0  0  0  0  0  0  0
   12.0122   52.5067   84.2177 C   0  0  0  0  0  0  0  0  0  0  0  0
   11.6077   50.4031   85.9909 C   0  0  0  0  0  0  0  0  0  0  0  0
   12.2930   50.1891   84.7857 C   0  0  0  0  0  0  0  0  0  0  0  0
   12.5107   51.2298   83.8928 C   0  0  0  0  0  0  0  0  0  0  0  0
   13.1785   50.9766   82.7521 C   0  0  0  0  0  0  0  0  0  0  0  0
   12.6986   49.8975   81.5080 S   0  0  0  0  0  0  0  0  0  0  0  0
   14.0160   50.1663   80.5537 C   0  0  0  0  0  0  0  0  0  0  0  0
   14.8064   51.0531   81.1733 N   0  0  0  0  0  0  0  0  0  0  0  0
   14.3601   51.4927   82.3701 C   0  0  0  0  0  0  0  0  0  0  0  0
   15.1825   52.5117   83.1714 C   0  0  0  0  0  0  0  0  0  0  0  0
 34 33  2  0  0  0
 34 35  1  0  0  0
 33 32  1  0  0  0
 36 35  1  0  0  0
 35 31  2  0  0  0
 32 31  1  0  0  0
 31 30  1  0  0  0
 30 27  2  0  0  0
 30 29  1  0  0  0
 27 26  1  0  0  0
 29 28  2  0  0  0
 26 25  2  0  0  0
 28 25  1  0  0  0
 25 24  1  0  0  0
 24 22  1  0  0  0
 22 20  1  0  0  0
  7  8  1  0  0  0
  7  5  1  0  0  0
 20 21  2  0  0  0
 20  8  1  0  0  0
  8  3  1  0  0  0
  5  6  1  0  0  0
  5  4  1  0  0  0
  3  4  1  0  0  0
  3  1  1  0  0  0
  2  1  2  0  0  0
  1 18  1  0  0  0
 17 18  1  0  0  0
 17 15  1  0  0  0
 18 13  1  0  0  0
 15 16  1  0  0  0
 15 14  1  0  0  0
 13 14  1  0  0  0
 13 11  1  0  0  0
 12 11  2  0  0  0
 11 10  1  0  0  0
 16 19  1  0  0  0
  6  9  1  0  0  0
 22 23  1  0  0  0
M  END
> <minimizedAffinity>
-9.00895

$$$$
4W9I_3JS_C_301


 36 39  0  0  0  0  0  0  0  0999 V2000
   11.6898   53.2517   89.8001 C   0  0  0  0  0  0  0  0  0  0  0  0
   12.5367   52.3727   89.7629 O   0  0  0  0  0  0  0  0  0  0  0  0
   10.5214   53.1474   89.1249 N   0  0  0  0  0  0  0  0  0  0  0  0
    9.4106   54.1419   89.0980 C   0  0  0  0  0  0  0  0  0  0  0  0
    8.2087   53.3597   88.6299 C   0  0  0  0  0  0  0  0  0  0  0  0
    7.5984   52.7010   89.7414 O   0  0  0  0  0  0  0  0  0  0  0  0
    8.7801   52.3330   87.6864 C   0  0  0  0  0  0  0  0  0  0  0  0
   10.1458   51.9641   88.2635 C   0  0  0  0  0  0  0  0  0  0  0  0
    8.2509   52.1311   90.1776 H   0  0  0  0  0  0  0  0  0  0  0  0
   12.8116   53.5629   94.0572 C   0  0  0  0  0  0  0  0  0  0  0  0
   12.0011   53.7506   92.7695 C   0  0  0  0  0  0  0  0  0  0  0  0
   10.8249   53.4031   92.6875 O   0  0  0  0  0  0  0  0  0  0  0  0
   12.6572   54.2902   91.7500 N   0  0  0  0  0  0  0  0  0  0  0  0
   14.0579   54.7509   91.6684 C   0  0  0  0  0  0  0  0  0  0  0  0
   14.2944   54.9406   90.1835 C   0  0  0  0  0  0  0  0  0  0  0  0
   15.1584   56.0707   89.9679 O   0  0  0  0  0  0  0  0  0  0  0  0
   12.9387   55.2533   89.6118 C   0  0  0  0  0  0  0  0  0  0  0  0
   11.9575   54.4738   90.4677 C   0  0  0  0  0  0  0  0  0  0  0  0
   14.7622   56.8613   90.3666 H   0  0  0  0  0  0  0  0  0  0  0  0
   11.0470   51.8472   87.1895 C   0  0  0  0  0  0  0  0  0  0  0  0
   11.6370   50.7801   86.9959 O   0  0  0  0  0  0  0  0  0  0  0  0
   11.2557   52.9560   86.4234 N   0  0  0  0  0  0  0  0  0  0  0  0
   10.7563   53.7816   86.6190 H   0  0  0  0  0  0  0  0  0  0  0  0
   12.2152   52.9367   85.3100 C   0  0  0  0  0  0  0  0  0  0  0  0
   11.5791   52.4438   84.1336 C   0  0  0  0  0  0  0  0  0  0  0  0
   12.2561   51.5169   83.3281 C   0  0  0  0  0  0  0  0  0  0  0  0
   11.6771   51.0077   82.1651 C   0  0  0  0  0  0  0  0  0  0  0  0
   10.3000   52.8470   83.7313 C   0  0  0  0  0  0  0  0  0  0  0  0
    9.7147   52.3354   82.5635 C   0  0  0  0  0  0  0  0  0  0  0  0
   10.3850   51.4105   81.7742 C   0  0  0  0  0  0  0  0  0  0  0  0
    9.7801   50.9441   80.6663 C   0  0  0  0  0  0  0  0  0  0  0  0
    9.8580   51.6310   79.0963 S   0  0  0  0  0  0  0  0  0  0  0  0
    8.8785   50.5096   78.3882 C   0  0  0  0  0  0  0  0  0  0  0  0
    8.4956   49.6360   79.3291 N   0  0  0  0  0  0  0  0  0  0  0  0
    8.9771   49.8696   80.5694 C   0  0  0  0  0  0  0  0  0  0  0  0
    8.6062   48.9335   81.7281 C   0  0  0  0  0  0  0  0  0  0  0  0
 34 33  2  0  0  0
 34 35  1  0  0  0
 33 32  1  0  0  0
 36 35  1  0  0  0
 35 31  2  0  0  0
 32 31  1  0  0  0
 31 30  1  0  0  0
 30 27  2  0  0  0
 30 29  1  0  0  0
 27 26  1  0  0  0
 29 28  2  0  0  0
 26 25  2  0  0  0
 28 25  1  0  0  0
 25 24  1  0  0  0
 24 22  1  0  0  0
 22 20  1  0  0  0
  7  8  1  0  0  0
  7  5  1  0  0  0
 20 21  2  0  0  0
 20  8  1  0  0  0
  8  3  1  0  0  0
  5  6  1  0  0  0
  5  4  1  0  0  0
  3  4  1  0  0  0
  3  1  1  0  0  0
  2  1  2  0  0  0
  1 18  1  0  0  0
 17 18  1  0  0  0
 17 15  1  0  0  0
 18 13  1  0  0  0
 15 16  1  0  0  0
 15 14  1  0  0  0
 13 14  1  0  0  0
 13 11  1  0  0  0
 12 11  2  0  0  0
 11 10  1  0  0  0
 16 19  1  0  0  0
  6  9  1  0  0  0
 22 23  1  0  0  0
M  END
> <minimizedAffinity>
-7.59883

$$$$
4W9I_3JS_C_301


 36 39  0  0  0  0  0  0  0  0999 V2000
   11.6750   53.1386   89.4095 C   0  0  0  0  0  0  0  0  0  0  0  0
   12.5024   52.9035   88.5426 O   0  0  0  0  0  0  0  0  0  0  0  0
   10.4007   52.6913   89.3211 N   0  0  0  0  0  0  0  0  0  0  0  0
    9.3064   52.9027   90.3119 C   0  0  0  0  0  0  0  0  0  0  0  0
    8.2890   51.8363   89.9909 C   0  0  0  0  0  0  0  0  0  0  0  0
    8.6479   50.6153   90.6406 O   0  0  0  0  0  0  0  0  0  0  0  0
    8.3933   51.6630   88.4977 C   0  0  0  0  0  0  0  0  0  0  0  0
    9.8689   51.8775   88.1643 C   0  0  0  0  0  0  0  0  0  0  0  0
    9.5412   50.3541   90.3675 H   0  0  0  0  0  0  0  0  0  0  0  0
   13.7114   51.8211   93.0967 C   0  0  0  0  0  0  0  0  0  0  0  0
   12.6175   52.3938   92.1880 C   0  0  0  0  0  0  0  0  0  0  0  0
   11.4819   51.9237   92.1654 O   0  0  0  0  0  0  0  0  0  0  0  0
   12.9833   53.4102   91.4173 N   0  0  0  0  0  0  0  0  0  0  0  0
   14.2914   54.0866   91.3073 C   0  0  0  0  0  0  0  0  0  0  0  0
   14.1691   54.9161   90.0448 C   0  0  0  0  0  0  0  0  0  0  0  0
   14.8770   56.1581   90.2070 O   0  0  0  0  0  0  0  0  0  0  0  0
   12.6997   55.2111   89.9156 C   0  0  0  0  0  0  0  0  0  0  0  0
   11.9984   53.9952   90.4923 C   0  0  0  0  0  0  0  0  0  0  0  0
   14.5258   56.6323   90.9768 H   0  0  0  0  0  0  0  0  0  0  0  0
    9.9345   52.6305   86.9776 C   0  0  0  0  0  0  0  0  0  0  0  0
    9.0869   53.4998   86.7540 O   0  0  0  0  0  0  0  0  0  0  0  0
   10.9318   52.3278   86.0980 N   0  0  0  0  0  0  0  0  0  0  0  0
   11.5843   51.6271   86.3270 H   0  0  0  0  0  0  0  0  0  0  0  0
   11.0469   53.0323   84.8130 C   0  0  0  0  0  0  0  0  0  0  0  0
   11.4183   52.1120   83.7901 C   0  0  0  0  0  0  0  0  0  0  0  0
   10.6664   52.0652   82.6073 C   0  0  0  0  0  0  0  0  0  0  0  0
   10.9879   51.1793   81.5783 C   0  0  0  0  0  0  0  0  0  0  0  0
   12.5044   51.2363   83.9085 C   0  0  0  0  0  0  0  0  0  0  0  0
   12.8310   50.3458   82.8748 C   0  0  0  0  0  0  0  0  0  0  0  0
   12.0894   50.3098   81.7016 C   0  0  0  0  0  0  0  0  0  0  0  0
   12.4450   49.4424   80.7360 C   0  0  0  0  0  0  0  0  0  0  0  0
   11.6482   47.9761   80.3389 S   0  0  0  0  0  0  0  0  0  0  0  0
   12.6892   47.5569   79.1310 C   0  0  0  0  0  0  0  0  0  0  0  0
   13.6264   48.5098   79.0379 N   0  0  0  0  0  0  0  0  0  0  0  0
   13.5027   49.5336   79.9105 C   0  0  0  0  0  0  0  0  0  0  0  0
   14.5188   50.6843   79.8961 C   0  0  0  0  0  0  0  0  0  0  0  0
 34 33  2  0  0  0
 34 35  1  0  0  0
 33 32  1  0  0  0
 36 35  1  0  0  0
 35 31  2  0  0  0
 32 31  1  0  0  0
 31 30  1  0  0  0
 30 27  2  0  0  0
 30 29  1  0  0  0
 27 26  1  0  0  0
 29 28  2  0  0  0
 26 25  2  0  0  0
 28 25  1  0  0  0
 25 24  1  0  0  0
 24 22  1  0  0  0
 22 20  1  0  0  0
  7  8  1  0  0  0
  7  5  1  0  0  0
 20 21  2  0  0  0
 20  8  1  0  0  0
  8  3  1  0  0  0
  5  6  1  0  0  0
  5  4  1  0  0  0
  3  4  1  0  0  0
  3  1  1  0  0  0
  2  1  2  0  0  0
  1 18  1  0  0  0
 17 18  1  0  0  0
 17 15  1  0  0  0
 18 13  1  0  0  0
 15 16  1  0  0  0
 15 14  1  0  0  0
 13 14  1  0  0  0
 13 11  1  0  0  0
 12 11  2  0  0  0
 11 10  1  0  0  0
 16 19  1  0  0  0
  6  9  1  0  0  0
 22 23  1  0  0  0
M  END
> <minimizedAffinity>
-7.56364

$$$$
4W9I_3JS_C_301


 36 39  0  0  0  0  0  0  0  0999 V2000
   11.8280   53.3713   89.1305 C   0  0  0  0  0  0  0  0  0  0  0  0
   12.7530   52.8176   88.5570 O   0  0  0  0  0  0  0  0  0  0  0  0
   10.5396   53.1717   88.7669 N   0  0  0  0  0  0  0  0  0  0  0  0
    9.3285   53.7783   89.3907 C   0  0  0  0  0  0  0  0  0  0  0  0
    8.1897   52.8884   88.9585 C   0  0  0  0  0  0  0  0  0  0  0  0
    8.0896   51.7693   89.8413 O   0  0  0  0  0  0  0  0  0  0  0  0
    8.5913   52.4141   87.5858 C   0  0  0  0  0  0  0  0  0  0  0  0
   10.1116   52.2696   87.6327 C   0  0  0  0  0  0  0  0  0  0  0  0
    8.9339   51.2919   89.8552 H   0  0  0  0  0  0  0  0  0  0  0  0
   13.3054   52.4250   93.1802 C   0  0  0  0  0  0  0  0  0  0  0  0
   12.3744   52.9402   92.0765 C   0  0  0  0  0  0  0  0  0  0  0  0
   11.2164   52.5425   91.9673 O   0  0  0  0  0  0  0  0  0  0  0  0
   12.9066   53.8223   91.2400 N   0  0  0  0  0  0  0  0  0  0  0  0
   14.2670   54.3962   91.2154 C   0  0  0  0  0  0  0  0  0  0  0  0
   14.3597   55.0589   89.8556 C   0  0  0  0  0  0  0  0  0  0  0  0
   15.1376   56.2653   89.9532 O   0  0  0  0  0  0  0  0  0  0  0  0
   12.9432   55.4249   89.5053 C   0  0  0  0  0  0  0  0  0  0  0  0
   12.0864   54.3408   90.1326 C   0  0  0  0  0  0  0  0  0  0  0  0
   14.7357   56.8572   90.6082 H   0  0  0  0  0  0  0  0  0  0  0  0
   10.6253   52.7528   86.4153 C   0  0  0  0  0  0  0  0  0  0  0  0
    9.9948   53.5998   85.7755 O   0  0  0  0  0  0  0  0  0  0  0  0
   11.8014   52.2201   85.9762 N   0  0  0  0  0  0  0  0  0  0  0  0
   12.2656   51.5492   86.5272 H   0  0  0  0  0  0  0  0  0  0  0  0
   12.3863   52.6327   84.6923 C   0  0  0  0  0  0  0  0  0  0  0  0
   12.1997   51.6034   83.7243 C   0  0  0  0  0  0  0  0  0  0  0  0
   10.8964   51.2133   83.3844 C   0  0  0  0  0  0  0  0  0  0  0  0
   10.6620   50.2082   82.4452 C   0  0  0  0  0  0  0  0  0  0  0  0
   13.2634   50.9481   83.0920 C   0  0  0  0  0  0  0  0  0  0  0  0
   13.0307   49.9386   82.1460 C   0  0  0  0  0  0  0  0  0  0  0  0
   11.7383   49.5624   81.8056 C   0  0  0  0  0  0  0  0  0  0  0  0
   11.5654   48.5928   80.8884 C   0  0  0  0  0  0  0  0  0  0  0  0
   11.4808   48.8018   79.1878 S   0  0  0  0  0  0  0  0  0  0  0  0
   11.2536   47.2047   78.8471 C   0  0  0  0  0  0  0  0  0  0  0  0
   11.2358   46.5294   80.0041 N   0  0  0  0  0  0  0  0  0  0  0  0
   11.3988   47.2781   81.1166 C   0  0  0  0  0  0  0  0  0  0  0  0
   11.3966   46.6122   82.4997 C   0  0  0  0  0  0  0  0  0  0  0  0
 34 33  2  0  0  0
 34 35  1  0  0  0
 33 32  1  0  0  0
 36 35  1  0  0  0
 35 31  2  0  0  0
 32 31  1  0  0  0
 31 30  1  0  0  0
 30 27  2  0  0  0
 30 29  1  0  0  0
 27 26  1  0  0  0
 29 28  2  0  0  0
 26 25  2  0  0  0
 28 25  1  0  0  0
 25 24  1  0  0  0
 24 22  1  0  0  0
 22 20  1  0  0  0
  7  8  1  0  0  0
  7  5  1  0  0  0
 20 21  2  0  0  0
 20  8  1  0  0  0
  8  3  1  0  0  0
  5  6  1  0  0  0
  5  4  1  0  0  0
  3  4  1  0  0  0
  3  1  1  0  0  0
  2  1  2  0  0  0
  1 18  1  0  0  0
 17 18  1  0  0  0
 17 15  1  0  0  0
 18 13  1  0  0  0
 15 16  1  0  0  0
 15 14  1  0  0  0
 13 14  1  0  0  0
 13 11  1  0  0  0
 12 11  2  0  0  0
 11 10  1  0  0  0
 16 19  1  0  0  0
  6  9  1  0  0  0
 22 23  1  0  0  0
M  END
> <minimizedAffinity>
-7.46455

$$$$
4W9I_3JS_C_301


 36 39  0  0  0  0  0  0  0  0999 V2000
   10.9057   51.5816   85.4019 C   0  0  0  0  0  0  0  0  0  0  0  0
   11.3887   52.7020   85.3508 O   0  0  0  0  0  0  0  0  0  0  0  0
   10.2152   51.1497   86.4829 N   0  0  0  0  0  0  0  0  0  0  0  0
    9.5731   49.8157   86.6614 C   0  0  0  0  0  0  0  0  0  0  0  0
    8.5691   50.0198   87.7685 C   0  0  0  0  0  0  0  0  0  0  0  0
    7.3524   50.5382   87.2275 O   0  0  0  0  0  0  0  0  0  0  0  0
    9.2064   51.0543   88.6597 C   0  0  0  0  0  0  0  0  0  0  0  0
    9.9770   51.9820   87.7215 C   0  0  0  0  0  0  0  0  0  0  0  0
    7.5359   51.3633   86.7515 H   0  0  0  0  0  0  0  0  0  0  0  0
    9.1652   51.8419   81.3546 C   0  0  0  0  0  0  0  0  0  0  0  0
    9.4807   51.2852   82.7477 C   0  0  0  0  0  0  0  0  0  0  0  0
    8.5927   51.0062   83.5506 O   0  0  0  0  0  0  0  0  0  0  0  0
   10.7691   51.1463   83.0337 N   0  0  0  0  0  0  0  0  0  0  0  0
   11.9555   51.4390   82.2045 C   0  0  0  0  0  0  0  0  0  0  0  0
   13.1078   51.3994   83.1881 C   0  0  0  0  0  0  0  0  0  0  0  0
   14.2732   50.8454   82.5517 O   0  0  0  0  0  0  0  0  0  0  0  0
   12.6585   50.4603   84.2740 C   0  0  0  0  0  0  0  0  0  0  0  0
   11.1553   50.6480   84.3642 C   0  0  0  0  0  0  0  0  0  0  0  0
   14.0668   49.9602   82.2132 H   0  0  0  0  0  0  0  0  0  0  0  0
   11.2045   52.2893   88.3364 C   0  0  0  0  0  0  0  0  0  0  0  0
   12.0084   51.3867   88.5883 O   0  0  0  0  0  0  0  0  0  0  0  0
   11.4316   53.5933   88.6647 N   0  0  0  0  0  0  0  0  0  0  0  0
   10.7582   54.2748   88.4381 H   0  0  0  0  0  0  0  0  0  0  0  0
   12.6669   53.9965   89.3518 C   0  0  0  0  0  0  0  0  0  0  0  0
   12.4411   54.0498   90.7581 C   0  0  0  0  0  0  0  0  0  0  0  0
   13.4674   54.5054   91.5980 C   0  0  0  0  0  0  0  0  0  0  0  0
   13.2962   54.5727   92.9812 C   0  0  0  0  0  0  0  0  0  0  0  0
   11.2352   53.6597   91.3530 C   0  0  0  0  0  0  0  0  0  0  0  0
   11.0596   53.7280   92.7432 C   0  0  0  0  0  0  0  0  0  0  0  0
   12.0754   54.1889   93.5700 C   0  0  0  0  0  0  0  0  0  0  0  0
   11.8577   54.2417   94.8970 C   0  0  0  0  0  0  0  0  0  0  0  0
   11.9330   52.9263   95.9956 S   0  0  0  0  0  0  0  0  0  0  0  0
   11.5394   53.8148   97.3276 C   0  0  0  0  0  0  0  0  0  0  0  0
   11.3482   55.0835   96.9417 N   0  0  0  0  0  0  0  0  0  0  0  0
   11.5140   55.3208   95.6222 C   0  0  0  0  0  0  0  0  0  0  0  0
   11.3218   56.7382   95.0650 C   0  0  0  0  0  0  0  0  0  0  0  0
 34 33  2  0  0  0
 34 35  1  0  0  0
 33 32  1  0  0  0
 36 35  1  0  0  0
 35 31  2  0  0  0
 32 31  1  0  0  0
 31 30  1  0  0  0
 30 27  2  0  0  0
 30 29  1  0  0  0
 27 26  1  0  0  0
 29 28  2  0  0  0
 26 25  2  0  0  0
 28 25  1  0  0  0
 25 24  1  0  0  0
 24 22  1  0  0  0
 22 20  1  0  0  0
  7  8  1  0  0  0
  7  5  1  0  0  0
 20 21  2  0  0  0
 20  8  1  0  0  0
  8  3  1  0  0  0
  5  6  1  0  0  0
  5  4  1  0  0  0
  3  4  1  0  0  0
  3  1  1  0  0  0
  2  1  2  0  0  0
  1 18  1  0  0  0
 17 18  1  0  0  0
 17 15  1  0  0  0
 18 13  1  0  0  0
 15 16  1  0  0  0
 15 14  1  0  0  0
 13 14  1  0  0  0
 13 11  1  0  0  0
 12 11  2  0  0  0
 11 10  1  0  0  0
 16 19  1  0  0  0
  6  9  1  0  0  0
 22 23  1  0  0  0
M  END
> <minimizedAffinity>
-6.95605

$$$$
4W9I_3JS_C_301


 36 39  0  0  0  0  0  0  0  0999 V2000
   11.8955   50.3822   80.2068 C   0  0  0  0  0  0  0  0  0  0  0  0
   11.8119   51.5949   80.3231 O   0  0  0  0  0  0  0  0  0  0  0  0
   11.0510   49.6804   79.4155 N   0  0  0  0  0  0  0  0  0  0  0  0
   11.0565   48.2072   79.1841 C   0  0  0  0  0  0  0  0  0  0  0  0
   10.2769   48.0181   77.9066 C   0  0  0  0  0  0  0  0  0  0  0  0
   11.1397   48.2026   76.7826 O   0  0  0  0  0  0  0  0  0  0  0  0
    9.2455   49.1163   77.9367 C   0  0  0  0  0  0  0  0  0  0  0  0
    9.9319   50.3021   78.6128 C   0  0  0  0  0  0  0  0  0  0  0  0
   11.5473   49.0816   76.8287 H   0  0  0  0  0  0  0  0  0  0  0  0
   16.0553   51.6421   80.9729 C   0  0  0  0  0  0  0  0  0  0  0  0
   14.8831   50.7870   80.4778 C   0  0  0  0  0  0  0  0  0  0  0  0
   14.7724   50.4596   79.2982 O   0  0  0  0  0  0  0  0  0  0  0  0
   13.9911   50.4448   81.3988 N   0  0  0  0  0  0  0  0  0  0  0  0
   13.9598   50.7559   82.8421 C   0  0  0  0  0  0  0  0  0  0  0  0
   12.5518   50.3876   83.2650 C   0  0  0  0  0  0  0  0  0  0  0  0
   12.5699   49.8390   84.5950 O   0  0  0  0  0  0  0  0  0  0  0  0
   12.1276   49.3106   82.3043 C   0  0  0  0  0  0  0  0  0  0  0  0
   12.8184   49.6506   80.9966 C   0  0  0  0  0  0  0  0  0  0  0  0
   13.1591   49.0688   84.6190 H   0  0  0  0  0  0  0  0  0  0  0  0
    8.9974   50.9018   79.4769 C   0  0  0  0  0  0  0  0  0  0  0  0
    8.4251   51.9415   79.1368 O   0  0  0  0  0  0  0  0  0  0  0  0
    8.7962   50.3107   80.6894 N   0  0  0  0  0  0  0  0  0  0  0  0
    9.2763   49.4799   80.9095 H   0  0  0  0  0  0  0  0  0  0  0  0
    7.8731   50.8957   81.6724 C   0  0  0  0  0  0  0  0  0  0  0  0
    8.5834   51.2291   82.8622 C   0  0  0  0  0  0  0  0  0  0  0  0
    9.2307   52.4702   82.9464 C   0  0  0  0  0  0  0  0  0  0  0  0
    9.9417   52.8412   84.0883 C   0  0  0  0  0  0  0  0  0  0  0  0
    8.6756   50.3685   83.9628 C   0  0  0  0  0  0  0  0  0  0  0  0
    9.3882   50.7396   85.1129 C   0  0  0  0  0  0  0  0  0  0  0  0
   10.0195   51.9734   85.1953 C   0  0  0  0  0  0  0  0  0  0  0  0
   10.6860   52.2868   86.3217 C   0  0  0  0  0  0  0  0  0  0  0  0
   10.1490   52.0263   87.9299 S   0  0  0  0  0  0  0  0  0  0  0  0
   11.4836   52.6780   88.6459 C   0  0  0  0  0  0  0  0  0  0  0  0
   12.3158   53.0909   87.6804 N   0  0  0  0  0  0  0  0  0  0  0  0
   11.8860   52.8865   86.4162 C   0  0  0  0  0  0  0  0  0  0  0  0
   12.7567   53.3183   85.2279 C   0  0  0  0  0  0  0  0  0  0  0  0
 34 33  2  0  0  0
 34 35  1  0  0  0
 33 32  1  0  0  0
 36 35  1  0  0  0
 35 31  2  0  0  0
 32 31  1  0  0  0
 31 30  1  0  0  0
 30 27  2  0  0  0
 30 29  1  0  0  0
 27 26  1  0  0  0
 29 28  2  0  0  0
 26 25  2  0  0  0
 28 25  1  0  0  0
 25 24  1  0  0  0
 24 22  1  0  0  0
 22 20  1  0  0  0
  7  8  1  0  0  0
  7  5  1  0  0  0
 20 21  2  0  0  0
 20  8  1  0  0  0
  8  3  1  0  0  0
  5  6  1  0  0  0
  5  4  1  0  0  0
  3  4  1  0  0  0
  3  1  1  0  0  0
  2  1  2  0  0  0
  1 18  1  0  0  0
 17 18  1  0  0  0
 17 15  1  0  0  0
 18 13  1  0  0  0
 15 16  1  0  0  0
 15 14  1  0  0  0
 13 14  1  0  0  0
 13 11  1  0  0  0
 12 11  2  0  0  0
 11 10  1  0  0  0
 16 19  1  0  0  0
  6  9  1  0  0  0
 22 23  1  0  0  0
M  END
> <minimizedAffinity>
-6.82890

$$$$
4W9I_3JS_C_301


 36 39  0  0  0  0  0  0  0  0999 V2000
   12.1576   50.8995   83.1068 C   0  0  0  0  0  0  0  0  0  0  0  0
   11.8225   51.9592   82.6007 O   0  0  0  0  0  0  0  0  0  0  0  0
   11.5902   50.4412   84.2470 N   0  0  0  0  0  0  0  0  0  0  0  0
   11.9040   49.1663   84.9539 C   0  0  0  0  0  0  0  0  0  0  0  0
   10.7081   48.9154   85.8384 C   0  0  0  0  0  0  0  0  0  0  0  0
    9.6849   48.2547   85.0912 O   0  0  0  0  0  0  0  0  0  0  0  0
   10.2393   50.2940   86.2265 C   0  0  0  0  0  0  0  0  0  0  0  0
   10.5105   51.1750   85.0079 C   0  0  0  0  0  0  0  0  0  0  0  0
    9.4533   48.7904   84.3164 H   0  0  0  0  0  0  0  0  0  0  0  0
   12.0202   48.6883   79.2897 C   0  0  0  0  0  0  0  0  0  0  0  0
   12.1568   48.9454   80.7949 C   0  0  0  0  0  0  0  0  0  0  0  0
   11.4448   48.3732   81.6175 O   0  0  0  0  0  0  0  0  0  0  0  0
   13.0748   49.8374   81.1454 N   0  0  0  0  0  0  0  0  0  0  0  0
   13.9998   50.6195   80.3008 C   0  0  0  0  0  0  0  0  0  0  0  0
   14.5396   51.6821   81.2369 C   0  0  0  0  0  0  0  0  0  0  0  0
   15.9185   51.9509   80.9260 O   0  0  0  0  0  0  0  0  0  0  0  0
   14.4650   51.0659   82.6072 C   0  0  0  0  0  0  0  0  0  0  0  0
   13.2450   50.1640   82.5709 C   0  0  0  0  0  0  0  0  0  0  0  0
   16.4306   51.1296   80.9907 H   0  0  0  0  0  0  0  0  0  0  0  0
   11.0043   52.4078   85.4725 C   0  0  0  0  0  0  0  0  0  0  0  0
   10.5722   53.4616   84.9958 O   0  0  0  0  0  0  0  0  0  0  0  0
   11.9847   52.3731   86.4197 N   0  0  0  0  0  0  0  0  0  0  0  0
   12.2913   51.5050   86.7688 H   0  0  0  0  0  0  0  0  0  0  0  0
   12.5907   53.6123   86.9273 C   0  0  0  0  0  0  0  0  0  0  0  0
   12.6292   53.5822   88.3517 C   0  0  0  0  0  0  0  0  0  0  0  0
   13.5476   54.3981   89.0278 C   0  0  0  0  0  0  0  0  0  0  0  0
   13.6261   54.4015   90.4210 C   0  0  0  0  0  0  0  0  0  0  0  0
   11.7920   52.7649   89.1210 C   0  0  0  0  0  0  0  0  0  0  0  0
   11.8675   52.7676   90.5218 C   0  0  0  0  0  0  0  0  0  0  0  0
   12.7719   53.5843   91.1872 C   0  0  0  0  0  0  0  0  0  0  0  0
   12.8030   53.5564   92.5323 C   0  0  0  0  0  0  0  0  0  0  0  0
   12.2923   54.8067   93.5899 S   0  0  0  0  0  0  0  0  0  0  0  0
   12.6707   53.9998   94.9771 C   0  0  0  0  0  0  0  0  0  0  0  0
   13.1811   52.8076   94.6406 N   0  0  0  0  0  0  0  0  0  0  0  0
   13.2610   52.5630   93.3145 C   0  0  0  0  0  0  0  0  0  0  0  0
   13.8288   51.2287   92.8108 C   0  0  0  0  0  0  0  0  0  0  0  0
 34 33  2  0  0  0
 34 35  1  0  0  0
 33 32  1  0  0  0
 36 35  1  0  0  0
 35 31  2  0  0  0
 32 31  1  0  0  0
 31 30  1  0  0  0
 30 27  2  0  0  0
 30 29  1  0  0  0
 27 26  1  0  0  0
 29 28  2  0  0  0
 26 25  2  0  0  0
 28 25  1  0  0  0
 25 24  1  0  0  0
 24 22  1  0  0  0
 22 20  1  0  0  0
  7  8  1  0  0  0
  7  5  1  0  0  0
 20 21  2  0  0  0
 20  8  1  0  0  0
  8  3  1  0  0  0
  5  6  1  0  0  0
  5  4  1  0  0  0
  3  4  1  0  0  0
  3  1  1  0  0  0
  2  1  2  0  0  0
  1 18  1  0  0  0
 17 18  1  0  0  0
 17 15  1  0  0  0
 18 13  1  0  0  0
 15 16  1  0  0  0
 15 14  1  0  0  0
 13 14  1  0  0  0
 13 11  1  0  0  0
 12 11  2  0  0  0
 11 10  1  0  0  0
 16 19  1  0  0  0
  6  9  1  0  0  0
 22 23  1  0  0  0
M  END
> <minimizedAffinity>
-6.75937

$$$$
4W9I_3JS_C_301


 36 39  0  0  0  0  0  0  0  0999 V2000
   10.9533   51.5292   83.8337 C   0  0  0  0  0  0  0  0  0  0  0  0
   10.6437   52.6115   83.3605 O   0  0  0  0  0  0  0  0  0  0  0  0
   10.0912   50.4860   83.8559 N   0  0  0  0  0  0  0  0  0  0  0  0
   10.3518   49.1199   84.3940 C   0  0  0  0  0  0  0  0  0  0  0  0
    9.2976   48.2501   83.7556 C   0  0  0  0  0  0  0  0  0  0  0  0
    9.7368   47.8296   82.4625 O   0  0  0  0  0  0  0  0  0  0  0  0
    8.1047   49.1596   83.6124 C   0  0  0  0  0  0  0  0  0  0  0  0
    8.6802   50.5440   83.3182 C   0  0  0  0  0  0  0  0  0  0  0  0
    9.9376   48.6084   81.9202 H   0  0  0  0  0  0  0  0  0  0  0  0
   14.8644   51.7308   81.7989 C   0  0  0  0  0  0  0  0  0  0  0  0
   13.6917   51.1531   82.5996 C   0  0  0  0  0  0  0  0  0  0  0  0
   13.1062   50.1317   82.2461 O   0  0  0  0  0  0  0  0  0  0  0  0
   13.3404   51.8376   83.6808 N   0  0  0  0  0  0  0  0  0  0  0  0
   13.9177   53.0760   84.2412 C   0  0  0  0  0  0  0  0  0  0  0  0
   12.8893   53.5318   85.2568 C   0  0  0  0  0  0  0  0  0  0  0  0
   13.5511   54.1224   86.3895 O   0  0  0  0  0  0  0  0  0  0  0  0
   12.2003   52.2713   85.7034 C   0  0  0  0  0  0  0  0  0  0  0  0
   12.2017   51.3654   84.4859 C   0  0  0  0  0  0  0  0  0  0  0  0
   14.1678   53.4803   86.7747 H   0  0  0  0  0  0  0  0  0  0  0  0
    7.9277   51.4839   84.0461 C   0  0  0  0  0  0  0  0  0  0  0  0
    7.1464   52.2354   83.4553 O   0  0  0  0  0  0  0  0  0  0  0  0
    8.1336   51.5435   85.3929 N   0  0  0  0  0  0  0  0  0  0  0  0
    8.7664   50.9183   85.8149 H   0  0  0  0  0  0  0  0  0  0  0  0
    7.4249   52.5272   86.2239 C   0  0  0  0  0  0  0  0  0  0  0  0
    8.1683   52.7784   87.4137 C   0  0  0  0  0  0  0  0  0  0  0  0
    9.1471   51.8579   87.8149 C   0  0  0  0  0  0  0  0  0  0  0  0
    9.8986   52.0574   88.9735 C   0  0  0  0  0  0  0  0  0  0  0  0
    7.9651   53.9072   88.2169 C   0  0  0  0  0  0  0  0  0  0  0  0
    8.7204   54.1113   89.3813 C   0  0  0  0  0  0  0  0  0  0  0  0
    9.6952   53.2019   89.7694 C   0  0  0  0  0  0  0  0  0  0  0  0
   10.3981   53.4439   90.8912 C   0  0  0  0  0  0  0  0  0  0  0  0
    9.8706   53.1789   92.5018 S   0  0  0  0  0  0  0  0  0  0  0  0
   11.2555   53.7257   93.2099 C   0  0  0  0  0  0  0  0  0  0  0  0
   12.0974   54.1080   92.2403 N   0  0  0  0  0  0  0  0  0  0  0  0
   11.6356   53.9628   90.9792 C   0  0  0  0  0  0  0  0  0  0  0  0
   12.5137   54.3670   89.7867 C   0  0  0  0  0  0  0  0  0  0  0  0
 34 33  2  0  0  0
 34 35  1  0  0  0
 33 32  1  0  0  0
 36 35  1  0  0  0
 35 31  2  0  0  0
 32 31  1  0  0  0
 31 30  1  0  0  0
 30 27  2  0  0  0
 30 29  1  0  0  0
 27 26  1  0  0  0
 29 28  2  0  0  0
 26 25  2  0  0  0
 28 25  1  0  0  0
 25 24  1  0  0  0
 24 22  1  0  0  0
 22 20  1  0  0  0
  7  8  1  0  0  0
  7  5  1  0  0  0
 20 21  2  0  0  0
 20  8  1  0  0  0
  8  3  1  0  0  0
  5  6  1  0  0  0
  5  4  1  0  0  0
  3  4  1  0  0  0
  3  1  1  0  0  0
  2  1  2  0  0  0
  1 18  1  0  0  0
 17 18  1  0  0  0
 17 15  1  0  0  0
 18 13  1  0  0  0
 15 16  1  0  0  0
 15 14  1  0  0  0
 13 14  1  0  0  0
 13 11  1  0  0  0
 12 11  2  0  0  0
 11 10  1  0  0  0
 16 19  1  0  0  0
  6  9  1  0  0  0
 22 23  1  0  0  0
M  END
> <minimizedAffinity>
-6.33417

$$$$
4W9I_3JS_C_301


 36 39  0  0  0  0  0  0  0  0999 V2000
   11.5427   51.0129   91.5272 C   0  0  0  0  0  0  0  0  0  0  0  0
   12.4571   51.3741   90.8029 O   0  0  0  0  0  0  0  0  0  0  0  0
   10.5071   50.2783   91.0582 N   0  0  0  0  0  0  0  0  0  0  0  0
    9.3423   49.7713   91.8392 C   0  0  0  0  0  0  0  0  0  0  0  0
    8.7750   48.6550   90.9981 C   0  0  0  0  0  0  0  0  0  0  0  0
    9.4850   47.4433   91.2614 O   0  0  0  0  0  0  0  0  0  0  0  0
    9.0329   49.0930   89.5795 C   0  0  0  0  0  0  0  0  0  0  0  0
   10.3651   49.8401   89.6191 C   0  0  0  0  0  0  0  0  0  0  0  0
   10.4301   47.5785   91.0898 H   0  0  0  0  0  0  0  0  0  0  0  0
   14.5580   50.0488   94.6024 C   0  0  0  0  0  0  0  0  0  0  0  0
   13.2010   50.1046   93.8911 C   0  0  0  0  0  0  0  0  0  0  0  0
   12.5758   49.0852   93.6068 O   0  0  0  0  0  0  0  0  0  0  0  0
   12.7605   51.3188   93.5863 N   0  0  0  0  0  0  0  0  0  0  0  0
   13.3780   52.6363   93.8385 C   0  0  0  0  0  0  0  0  0  0  0  0
   12.5776   53.5872   92.9713 C   0  0  0  0  0  0  0  0  0  0  0  0
   12.4345   54.8533   93.6395 O   0  0  0  0  0  0  0  0  0  0  0  0
   11.2204   52.9502   92.8479 C   0  0  0  0  0  0  0  0  0  0  0  0
   11.4798   51.4552   92.8730 C   0  0  0  0  0  0  0  0  0  0  0  0
   12.0097   54.7180   94.5010 H   0  0  0  0  0  0  0  0  0  0  0  0
   10.2492   50.9663   88.7838 C   0  0  0  0  0  0  0  0  0  0  0  0
    9.1691   51.5579   88.6966 O   0  0  0  0  0  0  0  0  0  0  0  0
   11.3511   51.3313   88.0680 N   0  0  0  0  0  0  0  0  0  0  0  0
   12.1895   50.8268   88.1773 H   0  0  0  0  0  0  0  0  0  0  0  0
   11.3057   52.4668   87.1357 C   0  0  0  0  0  0  0  0  0  0  0  0
   11.8993   52.0956   85.8942 C   0  0  0  0  0  0  0  0  0  0  0  0
   12.7271   53.0129   85.2313 C   0  0  0  0  0  0  0  0  0  0  0  0
   13.3283   52.6979   84.0121 C   0  0  0  0  0  0  0  0  0  0  0  0
   11.6910   50.8494   85.2907 C   0  0  0  0  0  0  0  0  0  0  0  0
   12.2955   50.5292   84.0660 C   0  0  0  0  0  0  0  0  0  0  0  0
   13.1221   51.4373   83.4180 C   0  0  0  0  0  0  0  0  0  0  0  0
   13.6842   51.0822   82.2479 C   0  0  0  0  0  0  0  0  0  0  0  0
   12.9498   50.1583   81.0031 S   0  0  0  0  0  0  0  0  0  0  0  0
   14.2613   50.1752   80.0040 C   0  0  0  0  0  0  0  0  0  0  0  0
   15.2384   50.8635   80.6092 N   0  0  0  0  0  0  0  0  0  0  0  0
   14.9334   51.3539   81.8304 C   0  0  0  0  0  0  0  0  0  0  0  0
   15.9752   52.1602   82.6184 C   0  0  0  0  0  0  0  0  0  0  0  0
 34 33  2  0  0  0
 34 35  1  0  0  0
 33 32  1  0  0  0
 36 35  1  0  0  0
 35 31  2  0  0  0
 32 31  1  0  0  0
 31 30  1  0  0  0
 30 27  2  0  0  0
 30 29  1  0  0  0
 27 26  1  0  0  0
 29 28  2  0  0  0
 26 25  2  0  0  0
 28 25  1  0  0  0
 25 24  1  0  0  0
 24 22  1  0  0  0
 22 20  1  0  0  0
  7  8  1  0  0  0
  7  5  1  0  0  0
 20 21  2  0  0  0
 20  8  1  0  0  0
  8  3  1  0  0  0
  5  6  1  0  0  0
  5  4  1  0  0  0
  3  4  1  0  0  0
  3  1  1  0  0  0
  2  1  2  0  0  0
  1 18  1  0  0  0
 17 18  1  0  0  0
 17 15  1  0  0  0
 18 13  1  0  0  0
 15 16  1  0  0  0
 15 14  1  0  0  0
 13 14  1  0  0  0
 13 11  1  0  0  0
 12 11  2  0  0  0
 11 10  1  0  0  0
 16 19  1  0  0  0
  6  9  1  0  0  0
 22 23  1  0  0  0
M  END
> <minimizedAffinity>
-6.32661

$$$$
4W9I_3JS_C_301


 36 39  0  0  0  0  0  0  0  0999 V2000
   11.7909   51.0115   91.1384 C   0  0  0  0  0  0  0  0  0  0  0  0
   12.9701   50.7248   91.2744 O   0  0  0  0  0  0  0  0  0  0  0  0
   11.3991   52.2065   90.6381 N   0  0  0  0  0  0  0  0  0  0  0  0
    9.9990   52.6690   90.4160 C   0  0  0  0  0  0  0  0  0  0  0  0
   10.1235   53.8060   89.4326 C   0  0  0  0  0  0  0  0  0  0  0  0
   10.1693   53.2899   88.1009 O   0  0  0  0  0  0  0  0  0  0  0  0
   11.4453   54.4453   89.7718 C   0  0  0  0  0  0  0  0  0  0  0  0
   12.3533   53.2972   90.2097 C   0  0  0  0  0  0  0  0  0  0  0  0
   10.9059   52.6636   88.0221 H   0  0  0  0  0  0  0  0  0  0  0  0
   11.4146   46.7797   89.9430 C   0  0  0  0  0  0  0  0  0  0  0  0
   11.0514   48.2587   90.1193 C   0  0  0  0  0  0  0  0  0  0  0  0
   10.7652   48.9744   89.1618 O   0  0  0  0  0  0  0  0  0  0  0  0
   11.0876   48.7157   91.3647 N   0  0  0  0  0  0  0  0  0  0  0  0
   11.4173   48.0090   92.6187 C   0  0  0  0  0  0  0  0  0  0  0  0
   11.6127   49.1241   93.6263 C   0  0  0  0  0  0  0  0  0  0  0  0
   11.1248   48.7085   94.9144 O   0  0  0  0  0  0  0  0  0  0  0  0
   10.7539   50.2534   93.1261 C   0  0  0  0  0  0  0  0  0  0  0  0
   10.7831   50.1345   91.6135 C   0  0  0  0  0  0  0  0  0  0  0  0
   10.1906   48.4581   94.8409 H   0  0  0  0  0  0  0  0  0  0  0  0
   13.1019   53.7412   91.3151 C   0  0  0  0  0  0  0  0  0  0  0  0
   14.3250   53.5743   91.3358 O   0  0  0  0  0  0  0  0  0  0  0  0
   12.4168   54.3116   92.3472 N   0  0  0  0  0  0  0  0  0  0  0  0
   11.4412   54.4240   92.2783 H   0  0  0  0  0  0  0  0  0  0  0  0
   13.1135   54.7611   93.5610 C   0  0  0  0  0  0  0  0  0  0  0  0
   12.1828   54.8857   94.6331 C   0  0  0  0  0  0  0  0  0  0  0  0
   11.6881   56.1554   94.9643 C   0  0  0  0  0  0  0  0  0  0  0  0
   10.7781   56.3296   96.0076 C   0  0  0  0  0  0  0  0  0  0  0  0
   11.7360   53.7938   95.3872 C   0  0  0  0  0  0  0  0  0  0  0  0
   10.8198   53.9657   96.4355 C   0  0  0  0  0  0  0  0  0  0  0  0
   10.3254   55.2236   96.7535 C   0  0  0  0  0  0  0  0  0  0  0  0
    9.4437   55.3374   97.7639 C   0  0  0  0  0  0  0  0  0  0  0  0
    7.7354   55.4063   97.6231 S   0  0  0  0  0  0  0  0  0  0  0  0
    7.4530   55.5539   99.2408 C   0  0  0  0  0  0  0  0  0  0  0  0
    8.6346   55.5575   99.8723 N   0  0  0  0  0  0  0  0  0  0  0  0
    9.7197   55.4461   99.0755 C   0  0  0  0  0  0  0  0  0  0  0  0
   11.1272   55.4379   99.6884 C   0  0  0  0  0  0  0  0  0  0  0  0
 34 33  2  0  0  0
 34 35  1  0  0  0
 33 32  1  0  0  0
 36 35  1  0  0  0
 35 31  2  0  0  0
 32 31  1  0  0  0
 31 30  1  0  0  0
 30 27  2  0  0  0
 30 29  1  0  0  0
 27 26  1  0  0  0
 29 28  2  0  0  0
 26 25  2  0  0  0
 28 25  1  0  0  0
 25 24  1  0  0  0
 24 22  1  0  0  0
 22 20  1  0  0  0
  7  8  1  0  0  0
  7  5  1  0  0  0
 20 21  2  0  0  0
 20  8  1  0  0  0
  8  3  1  0  0  0
  5  6  1  0  0  0
  5  4  1  0  0  0
  3  4  1  0  0  0
  3  1  1  0  0  0
  2  1  2  0  0  0
  1 18  1  0  0  0
 17 18  1  0  0  0
 17 15  1  0  0  0
 18 13  1  0  0  0
 15 16  1  0  0  0
 15 14  1  0  0  0
 13 14  1  0  0  0
 13 11  1  0  0  0
 12 11  2  0  0  0
 11 10  1  0  0  0
 16 19  1  0  0  0
  6  9  1  0  0  0
 22 23  1  0  0  0
M  END
> <minimizedAffinity>
-6.30416

$$$$
