6GL8_F3Q_A_301


 54 62  0  0  0  0  0  0  0  0999 V2000
   16.3272    3.3667   13.9230 C   0  0  0  0  0  0  0  0  0  0  0  0
   15.8219    3.7070   12.7082 C   0  0  0  0  0  0  0  0  0  0  0  0
   17.5325    2.6823   13.9610 C   0  0  0  0  0  0  0  0  0  0  0  0
   17.6307    2.7165   11.5756 C   0  0  0  0  0  0  0  0  0  0  0  0
   16.4350    3.3993   11.5442 C   0  0  0  0  0  0  0  0  0  0  0  0
   16.0790    3.6680   10.2841 O   0  0  0  0  0  0  0  0  0  0  0  0
   17.0478    3.0677    9.4947 C   0  0  0  0  0  0  0  0  0  0  0  0
   18.0567    2.5398   10.2854 O   0  0  0  0  0  0  0  0  0  0  0  0
   18.1789    2.3655   12.7799 C   0  0  0  0  0  0  0  0  0  0  0  0
   18.1665    2.3691   15.3076 C   0  0  0  0  0  0  0  0  0  0  0  0
   18.0599    1.2073   15.8641 N   0  0  0  0  0  0  0  0  0  0  0  0
   18.7373    3.3544   15.8189 O   0  0  0  0  0  0  0  0  0  0  0  0
   18.5703    1.1006   17.2359 C   0  0  0  0  0  0  0  0  0  0  0  0
   17.3266    0.8534   18.1175 C   0  0  0  0  0  0  0  0  0  0  0  0
   17.3210    0.1079   15.3066 C   0  0  0  0  0  0  0  0  0  0  0  0
   16.4406   -0.6483   16.3161 C   0  0  0  0  0  0  0  0  0  0  0  0
   16.4092   -0.2416   17.6659 C   0  0  0  0  0  0  0  0  0  0  0  0
   15.5694   -0.9647   18.5133 C   0  0  0  0  0  0  0  0  0  0  0  0
   14.7668   -2.0023   18.0290 C   0  0  0  0  0  0  0  0  0  0  0  0
   14.8118   -2.3975   16.6990 C   0  0  0  0  0  0  0  0  0  0  0  0
   15.6433   -1.6575   15.8670 C   0  0  0  0  0  0  0  0  0  0  0  0
   19.4938   -0.1275   17.2195 C   0  0  0  0  0  0  0  0  0  0  0  0
   20.8337    0.2158   16.6709 N   0  0  0  0  0  0  0  0  0  0  0  0
   21.7121   -0.9633   16.7757 C   0  0  0  0  0  0  0  0  0  0  0  0
   23.1263   -0.6409   16.3028 C   0  0  0  0  0  0  0  0  0  0  0  0
   23.5849    0.5151   17.0682 O   0  0  0  0  0  0  0  0  0  0  0  0
   22.7701    1.7199   16.8659 C   0  0  0  0  0  0  0  0  0  0  0  0
   21.3467    1.4306   17.3556 C   0  0  0  0  0  0  0  0  0  0  0  0
   14.6296    6.2597   17.5963 C   0  0  0  0  0  0  0  0  0  0  0  0
   15.0527    7.4666   16.8581 C   0  0  0  0  0  0  0  0  0  0  0  0
   16.1771    6.1497   15.0065 C   0  0  0  0  0  0  0  0  0  0  0  0
   16.3115    7.3021   16.0085 C   0  0  0  0  0  0  0  0  0  0  0  0
   14.8701    4.9937   16.8020 C   0  0  0  0  0  0  0  0  0  0  0  0
   15.5612    5.0041   15.6386 N   0  0  0  0  0  0  0  0  0  0  0  0
   15.6160    3.7287   15.1763 C   0  0  0  0  0  0  0  0  0  0  0  0
   14.9500    2.9332   16.0271 C   0  0  0  0  0  0  0  0  0  0  0  0
   14.4527    3.7681   17.0995 C   0  0  0  0  0  0  0  0  0  0  0  0
   13.6810    3.3354   18.3024 C   0  0  0  0  0  0  0  0  0  0  0  0
   13.8881    3.9778   19.3650 O   0  0  0  0  0  0  0  0  0  0  0  0
   12.8284    2.3206   18.2903 N   0  0  0  0  0  0  0  0  0  0  0  0
   12.3256    1.7110   17.0772 C   0  0  0  0  0  0  0  0  0  0  0  0
   11.6659    2.4864   16.1243 C   0  0  0  0  0  0  0  0  0  0  0  0
   11.2181    1.8782   15.0112 C   0  0  0  0  0  0  0  0  0  0  0  0
   11.3745    0.5494   14.7254 C   0  0  0  0  0  0  0  0  0  0  0  0
   12.0237   -0.2872   15.6377 C   0  0  0  0  0  0  0  0  0  0  0  0
   12.5195    0.3477   16.7910 C   0  0  0  0  0  0  0  0  0  0  0  0
   10.9494   -0.0637   13.5775 O   0  0  0  0  0  0  0  0  0  0  0  0
   10.5056    0.4325   12.9181 H   0  0  0  0  0  0  0  0  0  0  0  0
   12.3173    1.8103   19.5115 C   0  0  0  0  0  0  0  0  0  0  0  0
   11.0124    2.0695   19.9104 C   0  0  0  0  0  0  0  0  0  0  0  0
   10.5072    1.5421   21.1135 C   0  0  0  0  0  0  0  0  0  0  0  0
   11.3432    0.7633   21.9423 C   0  0  0  0  0  0  0  0  0  0  0  0
   12.6297    0.5274   21.5645 C   0  0  0  0  0  0  0  0  0  0  0  0
   13.1499    1.0260   20.3590 C   0  0  0  0  0  0  0  0  0  0  0  0
  7  8  1  0  0  0
  7  6  1  0  0  0
  8  4  1  0  0  0
  6  5  1  0  0  0
  4  5  2  0  0  0
  4  9  1  0  0  0
  5  2  1  0  0  0
  9  3  2  0  0  0
  2  1  2  0  0  0
 47 44  1  0  0  0
  3  1  1  0  0  0
  3 10  1  0  0  0
  1 35  1  0  0  0
 44 43  2  0  0  0
 44 45  1  0  0  0
 31 34  1  0  0  0
 31 32  1  0  0  0
 43 42  1  0  0  0
 10 12  2  0  0  0
 10 11  1  0  0  0
 35 34  1  0  0  0
 35 36  2  0  0  0
 15 11  1  0  0  0
 15 16  1  0  0  0
 34 33  1  0  0  0
 11 13  1  0  0  0
 45 46  2  0  0  0
 21 16  2  0  0  0
 21 20  1  0  0  0
 36 37  1  0  0  0
 32 30  1  0  0  0
 42 41  2  0  0  0
 16 17  1  0  0  0
 20 19  2  0  0  0
 24 25  1  0  0  0
 24 23  1  0  0  0
 33 37  2  0  0  0
 33 29  1  0  0  0
 46 41  1  0  0  0
 22 13  1  0  0  0
 22 23  1  0  0  0
 30 29  1  0  0  0
 26 25  1  0  0  0
 26 27  1  0  0  0
 13 14  1  0  0  0
 37 38  1  0  0  0
 41 40  1  0  0  0
 28 23  1  0  0  0
 28 27  1  0  0  0
 17 14  1  0  0  0
 17 18  2  0  0  0
 19 18  1  0  0  0
 38 40  1  0  0  0
 38 39  2  0  0  0
 40 49  1  0  0  0
 49 50  2  0  0  0
 49 54  1  0  0  0
 50 51  1  0  0  0
 54 53  2  0  0  0
 51 52  2  0  0  0
 53 52  1  0  0  0
 47 48  1  0  0  0
M  END
> <minimizedAffinity>
-12.22929

$$$$
6GL8_F3Q_A_301


 54 62  0  0  0  0  0  0  0  0999 V2000
   16.7846    3.5449   13.1362 C   0  0  0  0  0  0  0  0  0  0  0  0
   16.3004    3.8579   11.9056 C   0  0  0  0  0  0  0  0  0  0  0  0
   17.8791    2.6970   13.2116 C   0  0  0  0  0  0  0  0  0  0  0  0
   17.9154    2.5272   10.8302 C   0  0  0  0  0  0  0  0  0  0  0  0
   16.8303    3.3726   10.7615 C   0  0  0  0  0  0  0  0  0  0  0  0
   16.4821    3.5896    9.4892 O   0  0  0  0  0  0  0  0  0  0  0  0
   17.3320    2.7936    8.7369 C   0  0  0  0  0  0  0  0  0  0  0  0
   18.2757    2.1884    9.5525 O   0  0  0  0  0  0  0  0  0  0  0  0
   18.4403    2.1965   12.0507 C   0  0  0  0  0  0  0  0  0  0  0  0
   18.4982    2.4025   14.5692 C   0  0  0  0  0  0  0  0  0  0  0  0
   18.2839    1.2926   15.1964 N   0  0  0  0  0  0  0  0  0  0  0  0
   19.1723    3.3539   15.0148 O   0  0  0  0  0  0  0  0  0  0  0  0
   18.8011    1.2170   16.5677 C   0  0  0  0  0  0  0  0  0  0  0  0
   17.5520    1.1496   17.4733 C   0  0  0  0  0  0  0  0  0  0  0  0
   17.4306    0.2420   14.7131 C   0  0  0  0  0  0  0  0  0  0  0  0
   16.4938   -0.3599   15.7743 C   0  0  0  0  0  0  0  0  0  0  0  0
   16.5230    0.1277   17.0970 C   0  0  0  0  0  0  0  0  0  0  0  0
   15.6275   -0.4552   17.9941 C   0  0  0  0  0  0  0  0  0  0  0  0
   14.7180   -1.4335   17.5807 C   0  0  0  0  0  0  0  0  0  0  0  0
   14.7038   -1.9100   16.2769 C   0  0  0  0  0  0  0  0  0  0  0  0
   15.5930   -1.3086   15.3943 C   0  0  0  0  0  0  0  0  0  0  0  0
   19.5967   -0.0967   16.6181 C   0  0  0  0  0  0  0  0  0  0  0  0
   20.9319    0.1080   17.2422 N   0  0  0  0  0  0  0  0  0  0  0  0
   20.8606   -0.2718   18.6648 C   0  0  0  0  0  0  0  0  0  0  0  0
   22.1840   -0.0021   19.3743 C   0  0  0  0  0  0  0  0  0  0  0  0
   22.5180    1.4012   19.1470 O   0  0  0  0  0  0  0  0  0  0  0  0
   22.7025    1.7438   17.7310 C   0  0  0  0  0  0  0  0  0  0  0  0
   21.3781    1.5039   16.9975 C   0  0  0  0  0  0  0  0  0  0  0  0
   13.7717    3.7960   17.0865 C   0  0  0  0  0  0  0  0  0  0  0  0
   13.3604    2.3933   16.8775 C   0  0  0  0  0  0  0  0  0  0  0  0
   14.6568    2.1552   14.7120 C   0  0  0  0  0  0  0  0  0  0  0  0
   13.3144    1.9387   15.4198 C   0  0  0  0  0  0  0  0  0  0  0  0
   14.8399    4.2277   16.1045 C   0  0  0  0  0  0  0  0  0  0  0  0
   15.2072    3.4456   15.0632 N   0  0  0  0  0  0  0  0  0  0  0  0
   16.1679    4.1051   14.3665 C   0  0  0  0  0  0  0  0  0  0  0  0
   16.4146    5.2752   14.9750 C   0  0  0  0  0  0  0  0  0  0  0  0
   15.5413    5.3559   16.1262 C   0  0  0  0  0  0  0  0  0  0  0  0
   15.4218    6.4844   17.0967 C   0  0  0  0  0  0  0  0  0  0  0  0
   14.4442    7.2615   16.9387 O   0  0  0  0  0  0  0  0  0  0  0  0
   16.2924    6.6955   18.0736 N   0  0  0  0  0  0  0  0  0  0  0  0
   17.2727    5.7184   18.4984 C   0  0  0  0  0  0  0  0  0  0  0  0
   18.5877    5.8006   18.0418 C   0  0  0  0  0  0  0  0  0  0  0  0
   19.4650    4.8727   18.4648 C   0  0  0  0  0  0  0  0  0  0  0  0
   19.1743    3.8540   19.3305 C   0  0  0  0  0  0  0  0  0  0  0  0
   17.8749    3.7103   19.8252 C   0  0  0  0  0  0  0  0  0  0  0  0
   16.9591    4.6938   19.4093 C   0  0  0  0  0  0  0  0  0  0  0  0
   20.0744    2.9297   19.7884 O   0  0  0  0  0  0  0  0  0  0  0  0
   20.9658    2.9616   19.5012 H   0  0  0  0  0  0  0  0  0  0  0  0
   16.2589    7.9131   18.8013 C   0  0  0  0  0  0  0  0  0  0  0  0
   16.4429    9.1356   18.1682 C   0  0  0  0  0  0  0  0  0  0  0  0
   16.3874   10.3399   18.8945 C   0  0  0  0  0  0  0  0  0  0  0  0
   16.1711   10.3075   20.2889 C   0  0  0  0  0  0  0  0  0  0  0  0
   16.0138    9.1089   20.9150 C   0  0  0  0  0  0  0  0  0  0  0  0
   16.0449    7.8955   20.2086 C   0  0  0  0  0  0  0  0  0  0  0  0
  7  8  1  0  0  0
  7  6  1  0  0  0
  8  4  1  0  0  0
  6  5  1  0  0  0
  4  5  2  0  0  0
  4  9  1  0  0  0
  5  2  1  0  0  0
  9  3  2  0  0  0
  2  1  2  0  0  0
 47 44  1  0  0  0
  3  1  1  0  0  0
  3 10  1  0  0  0
  1 35  1  0  0  0
 44 43  2  0  0  0
 44 45  1  0  0  0
 31 34  1  0  0  0
 31 32  1  0  0  0
 43 42  1  0  0  0
 10 12  2  0  0  0
 10 11  1  0  0  0
 35 34  1  0  0  0
 35 36  2  0  0  0
 15 11  1  0  0  0
 15 16  1  0  0  0
 34 33  1  0  0  0
 11 13  1  0  0  0
 45 46  2  0  0  0
 21 16  2  0  0  0
 21 20  1  0  0  0
 36 37  1  0  0  0
 32 30  1  0  0  0
 42 41  2  0  0  0
 16 17  1  0  0  0
 20 19  2  0  0  0
 24 25  1  0  0  0
 24 23  1  0  0  0
 33 37  2  0  0  0
 33 29  1  0  0  0
 46 41  1  0  0  0
 22 13  1  0  0  0
 22 23  1  0  0  0
 30 29  1  0  0  0
 26 25  1  0  0  0
 26 27  1  0  0  0
 13 14  1  0  0  0
 37 38  1  0  0  0
 41 40  1  0  0  0
 28 23  1  0  0  0
 28 27  1  0  0  0
 17 14  1  0  0  0
 17 18  2  0  0  0
 19 18  1  0  0  0
 38 40  1  0  0  0
 38 39  2  0  0  0
 40 49  1  0  0  0
 49 50  2  0  0  0
 49 54  1  0  0  0
 50 51  1  0  0  0
 54 53  2  0  0  0
 51 52  2  0  0  0
 53 52  1  0  0  0
 47 48  1  0  0  0
M  END
> <minimizedAffinity>
-9.54840

$$$$
6GL8_F3Q_A_301


 54 62  0  0  0  0  0  0  0  0999 V2000
   16.1551    2.9499   14.0397 C   0  0  0  0  0  0  0  0  0  0  0  0
   15.5380    3.4499   12.9370 C   0  0  0  0  0  0  0  0  0  0  0  0
   17.4930    2.5999   13.9376 C   0  0  0  0  0  0  0  0  0  0  0  0
   17.4937    3.2599   11.6430 C   0  0  0  0  0  0  0  0  0  0  0  0
   16.1658    3.6091   11.7513 C   0  0  0  0  0  0  0  0  0  0  0  0
   15.7092    4.0907   10.5910 O   0  0  0  0  0  0  0  0  0  0  0  0
   16.7674    3.9700    9.7035 C   0  0  0  0  0  0  0  0  0  0  0  0
   17.9035    3.5271   10.3631 O   0  0  0  0  0  0  0  0  0  0  0  0
   18.1548    2.7633   12.7341 C   0  0  0  0  0  0  0  0  0  0  0  0
   18.2328    2.1240   15.1783 C   0  0  0  0  0  0  0  0  0  0  0  0
   18.0413    0.9504   15.6851 N   0  0  0  0  0  0  0  0  0  0  0  0
   18.9825    2.9960   15.6638 O   0  0  0  0  0  0  0  0  0  0  0  0
   18.6892    0.6923   16.9763 C   0  0  0  0  0  0  0  0  0  0  0  0
   17.5347    0.5433   17.9912 C   0  0  0  0  0  0  0  0  0  0  0  0
   17.1059   -0.0110   15.1688 C   0  0  0  0  0  0  0  0  0  0  0  0
   16.2578   -0.7172   16.2403 C   0  0  0  0  0  0  0  0  0  0  0  0
   16.4365   -0.3986   17.6022 C   0  0  0  0  0  0  0  0  0  0  0  0
   15.6138   -1.0665   18.5097 C   0  0  0  0  0  0  0  0  0  0  0  0
   14.6323   -1.9634   18.0770 C   0  0  0  0  0  0  0  0  0  0  0  0
   14.4708   -2.2737   16.7336 C   0  0  0  0  0  0  0  0  0  0  0  0
   15.2893   -1.5891   15.8433 C   0  0  0  0  0  0  0  0  0  0  0  0
   19.4369   -0.6364   16.7848 C   0  0  0  0  0  0  0  0  0  0  0  0
   20.8646   -0.5115   17.1851 N   0  0  0  0  0  0  0  0  0  0  0  0
   20.9521   -0.5052   18.6566 C   0  0  0  0  0  0  0  0  0  0  0  0
   22.3896   -0.2950   19.1224 C   0  0  0  0  0  0  0  0  0  0  0  0
   22.8740    0.9290   18.4902 O   0  0  0  0  0  0  0  0  0  0  0  0
   22.8932    0.8698   17.0231 C   0  0  0  0  0  0  0  0  0  0  0  0
   21.4552    0.6822   16.5264 C   0  0  0  0  0  0  0  0  0  0  0  0
   12.5733    1.4734   17.1598 C   0  0  0  0  0  0  0  0  0  0  0  0
   12.0078    0.5962   16.1152 C   0  0  0  0  0  0  0  0  0  0  0  0
   13.6108    1.4052   14.3256 C   0  0  0  0  0  0  0  0  0  0  0  0
   12.1495    1.1128   14.6846 C   0  0  0  0  0  0  0  0  0  0  0  0
   13.8456    2.1547   16.7028 C   0  0  0  0  0  0  0  0  0  0  0  0
   14.2713    2.0807   15.4205 N   0  0  0  0  0  0  0  0  0  0  0  0
   15.4221    2.7944   15.3227 C   0  0  0  0  0  0  0  0  0  0  0  0
   15.7250    3.2910   16.5318 C   0  0  0  0  0  0  0  0  0  0  0  0
   14.6868    2.8656   17.4458 C   0  0  0  0  0  0  0  0  0  0  0  0
   14.5644    3.1964   18.8968 C   0  0  0  0  0  0  0  0  0  0  0  0
   14.4870    2.2232   19.6914 O   0  0  0  0  0  0  0  0  0  0  0  0
   14.5186    4.4392   19.3555 N   0  0  0  0  0  0  0  0  0  0  0  0
   14.8724    5.5989   18.5644 C   0  0  0  0  0  0  0  0  0  0  0  0
   13.9572    6.1361   17.6598 C   0  0  0  0  0  0  0  0  0  0  0  0
   14.3281    7.2156   16.9479 C   0  0  0  0  0  0  0  0  0  0  0  0
   15.5367    7.8481   17.0529 C   0  0  0  0  0  0  0  0  0  0  0  0
   16.5026    7.3612   17.9380 C   0  0  0  0  0  0  0  0  0  0  0  0
   16.1111    6.2496   18.7062 C   0  0  0  0  0  0  0  0  0  0  0  0
   15.9023    8.9670   16.3539 O   0  0  0  0  0  0  0  0  0  0  0  0
   15.3071    9.3520   15.7411 H   0  0  0  0  0  0  0  0  0  0  0  0
   14.1583    4.6828   20.7060 C   0  0  0  0  0  0  0  0  0  0  0  0
   15.0876    5.1510   21.6260 C   0  0  0  0  0  0  0  0  0  0  0  0
   14.7165    5.4096   22.9588 C   0  0  0  0  0  0  0  0  0  0  0  0
   13.3910    5.1637   23.3770 C   0  0  0  0  0  0  0  0  0  0  0  0
   12.4844    4.6826   22.4825 C   0  0  0  0  0  0  0  0  0  0  0  0
   12.8260    4.4363   21.1428 C   0  0  0  0  0  0  0  0  0  0  0  0
  7  8  1  0  0  0
  7  6  1  0  0  0
  8  4  1  0  0  0
  6  5  1  0  0  0
  4  5  2  0  0  0
  4  9  1  0  0  0
  5  2  1  0  0  0
  9  3  2  0  0  0
  2  1  2  0  0  0
 47 44  1  0  0  0
  3  1  1  0  0  0
  3 10  1  0  0  0
  1 35  1  0  0  0
 44 43  2  0  0  0
 44 45  1  0  0  0
 31 34  1  0  0  0
 31 32  1  0  0  0
 43 42  1  0  0  0
 10 12  2  0  0  0
 10 11  1  0  0  0
 35 34  1  0  0  0
 35 36  2  0  0  0
 15 11  1  0  0  0
 15 16  1  0  0  0
 34 33  1  0  0  0
 11 13  1  0  0  0
 45 46  2  0  0  0
 21 16  2  0  0  0
 21 20  1  0  0  0
 36 37  1  0  0  0
 32 30  1  0  0  0
 42 41  2  0  0  0
 16 17  1  0  0  0
 20 19  2  0  0  0
 24 25  1  0  0  0
 24 23  1  0  0  0
 33 37  2  0  0  0
 33 29  1  0  0  0
 46 41  1  0  0  0
 22 13  1  0  0  0
 22 23  1  0  0  0
 30 29  1  0  0  0
 26 25  1  0  0  0
 26 27  1  0  0  0
 13 14  1  0  0  0
 37 38  1  0  0  0
 41 40  1  0  0  0
 28 23  1  0  0  0
 28 27  1  0  0  0
 17 14  1  0  0  0
 17 18  2  0  0  0
 19 18  1  0  0  0
 38 40  1  0  0  0
 38 39  2  0  0  0
 40 49  1  0  0  0
 49 50  2  0  0  0
 49 54  1  0  0  0
 50 51  1  0  0  0
 54 53  2  0  0  0
 51 52  2  0  0  0
 53 52  1  0  0  0
 47 48  1  0  0  0
M  END
> <minimizedAffinity>
-9.40084

$$$$
6GL8_F3Q_A_301


 54 62  0  0  0  0  0  0  0  0999 V2000
   17.6740    3.7053   19.5038 C   0  0  0  0  0  0  0  0  0  0  0  0
   18.6754    4.2899   20.2125 C   0  0  0  0  0  0  0  0  0  0  0  0
   16.9214    2.7209   20.1263 C   0  0  0  0  0  0  0  0  0  0  0  0
   18.2311    2.9678   22.1073 C   0  0  0  0  0  0  0  0  0  0  0  0
   18.9730    3.9473   21.4851 C   0  0  0  0  0  0  0  0  0  0  0  0
   19.9069    4.4277   22.3121 O   0  0  0  0  0  0  0  0  0  0  0  0
   19.7949    3.6712   23.4685 C   0  0  0  0  0  0  0  0  0  0  0  0
   18.7090    2.8139   23.3821 O   0  0  0  0  0  0  0  0  0  0  0  0
   17.2060    2.3624   21.4314 C   0  0  0  0  0  0  0  0  0  0  0  0
   15.7373    2.1143   19.3893 C   0  0  0  0  0  0  0  0  0  0  0  0
   14.5150    2.3810   19.7147 N   0  0  0  0  0  0  0  0  0  0  0  0
   16.0778    1.3113   18.4963 O   0  0  0  0  0  0  0  0  0  0  0  0
   13.4804    1.5931   19.0347 C   0  0  0  0  0  0  0  0  0  0  0  0
   12.8389    0.7218   20.1366 C   0  0  0  0  0  0  0  0  0  0  0  0
   14.1366    3.2368   20.8056 C   0  0  0  0  0  0  0  0  0  0  0  0
   12.9951    2.6909   21.6803 C   0  0  0  0  0  0  0  0  0  0  0  0
   12.4116    1.4433   21.3782 C   0  0  0  0  0  0  0  0  0  0  0  0
   11.3976    1.0085   22.2320 C   0  0  0  0  0  0  0  0  0  0  0  0
   11.0234    1.7536   23.3545 C   0  0  0  0  0  0  0  0  0  0  0  0
   11.6010    2.9839   23.6374 C   0  0  0  0  0  0  0  0  0  0  0  0
   12.6183    3.3946   22.7843 C   0  0  0  0  0  0  0  0  0  0  0  0
   12.4839    2.6310   18.4953 C   0  0  0  0  0  0  0  0  0  0  0  0
   11.7525    2.1075   17.3099 N   0  0  0  0  0  0  0  0  0  0  0  0
   12.0300    0.6664   17.1721 C   0  0  0  0  0  0  0  0  0  0  0  0
   11.3698    0.0950   15.9210 C   0  0  0  0  0  0  0  0  0  0  0  0
   11.8195    0.9005   14.7890 O   0  0  0  0  0  0  0  0  0  0  0  0
   11.4357    2.3150   14.8796 C   0  0  0  0  0  0  0  0  0  0  0  0
   12.1060    2.9210   16.1179 C   0  0  0  0  0  0  0  0  0  0  0  0
   15.4853    6.1684   15.7773 C   0  0  0  0  0  0  0  0  0  0  0  0
   14.8180    7.0632   16.7441 C   0  0  0  0  0  0  0  0  0  0  0  0
   15.6566    5.7857   18.7670 C   0  0  0  0  0  0  0  0  0  0  0  0
   14.4424    6.4174   18.0766 C   0  0  0  0  0  0  0  0  0  0  0  0
   16.4208    5.1921   16.4580 C   0  0  0  0  0  0  0  0  0  0  0  0
   16.4653    5.0704   17.8049 N   0  0  0  0  0  0  0  0  0  0  0  0
   17.3841    4.1173   18.1060 C   0  0  0  0  0  0  0  0  0  0  0  0
   17.9234    3.6630   16.9645 C   0  0  0  0  0  0  0  0  0  0  0  0
   17.2914    4.3753   15.8748 C   0  0  0  0  0  0  0  0  0  0  0  0
   17.5320    4.1941   14.4123 C   0  0  0  0  0  0  0  0  0  0  0  0
   18.1126    5.1386   13.8162 O   0  0  0  0  0  0  0  0  0  0  0  0
   17.1508    3.1153   13.7431 N   0  0  0  0  0  0  0  0  0  0  0  0
   16.7344    1.8833   14.3794 C   0  0  0  0  0  0  0  0  0  0  0  0
   15.3871    1.6607   14.6618 C   0  0  0  0  0  0  0  0  0  0  0  0
   15.0459    0.5007   15.2511 C   0  0  0  0  0  0  0  0  0  0  0  0
   15.9198   -0.4981   15.5835 C   0  0  0  0  0  0  0  0  0  0  0  0
   17.2856   -0.3405   15.3316 C   0  0  0  0  0  0  0  0  0  0  0  0
   17.6460    0.8583   14.6897 C   0  0  0  0  0  0  0  0  0  0  0  0
   15.5692   -1.6932   16.1520 O   0  0  0  0  0  0  0  0  0  0  0  0
   14.6711   -1.8721   16.3504 H   0  0  0  0  0  0  0  0  0  0  0  0
   17.1892    3.1113   12.3248 C   0  0  0  0  0  0  0  0  0  0  0  0
   18.2694    2.5760   11.6352 C   0  0  0  0  0  0  0  0  0  0  0  0
   18.2898    2.5575   10.2280 C   0  0  0  0  0  0  0  0  0  0  0  0
   17.2138    3.1153    9.5047 C   0  0  0  0  0  0  0  0  0  0  0  0
   16.1647    3.6615   10.1788 C   0  0  0  0  0  0  0  0  0  0  0  0
   16.1125    3.6733   11.5822 C   0  0  0  0  0  0  0  0  0  0  0  0
  7  8  1  0  0  0
  7  6  1  0  0  0
  8  4  1  0  0  0
  6  5  1  0  0  0
  4  5  2  0  0  0
  4  9  1  0  0  0
  5  2  1  0  0  0
  9  3  2  0  0  0
  2  1  2  0  0  0
 47 44  1  0  0  0
  3  1  1  0  0  0
  3 10  1  0  0  0
  1 35  1  0  0  0
 44 43  2  0  0  0
 44 45  1  0  0  0
 31 34  1  0  0  0
 31 32  1  0  0  0
 43 42  1  0  0  0
 10 12  2  0  0  0
 10 11  1  0  0  0
 35 34  1  0  0  0
 35 36  2  0  0  0
 15 11  1  0  0  0
 15 16  1  0  0  0
 34 33  1  0  0  0
 11 13  1  0  0  0
 45 46  2  0  0  0
 21 16  2  0  0  0
 21 20  1  0  0  0
 36 37  1  0  0  0
 32 30  1  0  0  0
 42 41  2  0  0  0
 16 17  1  0  0  0
 20 19  2  0  0  0
 24 25  1  0  0  0
 24 23  1  0  0  0
 33 37  2  0  0  0
 33 29  1  0  0  0
 46 41  1  0  0  0
 22 13  1  0  0  0
 22 23  1  0  0  0
 30 29  1  0  0  0
 26 25  1  0  0  0
 26 27  1  0  0  0
 13 14  1  0  0  0
 37 38  1  0  0  0
 41 40  1  0  0  0
 28 23  1  0  0  0
 28 27  1  0  0  0
 17 14  1  0  0  0
 17 18  2  0  0  0
 19 18  1  0  0  0
 38 40  1  0  0  0
 38 39  2  0  0  0
 40 49  1  0  0  0
 49 50  2  0  0  0
 49 54  1  0  0  0
 50 51  1  0  0  0
 54 53  2  0  0  0
 51 52  2  0  0  0
 53 52  1  0  0  0
 47 48  1  0  0  0
M  END
> <minimizedAffinity>
-9.33253

$$$$
6GL8_F3Q_A_301


 54 62  0  0  0  0  0  0  0  0999 V2000
   16.4429    3.2294   14.0925 C   0  0  0  0  0  0  0  0  0  0  0  0
   16.4016    3.9989   12.9732 C   0  0  0  0  0  0  0  0  0  0  0  0
   17.2191    2.0806   14.0675 C   0  0  0  0  0  0  0  0  0  0  0  0
   17.8415    2.5467   11.8100 C   0  0  0  0  0  0  0  0  0  0  0  0
   17.0717    3.6882   11.8419 C   0  0  0  0  0  0  0  0  0  0  0  0
   17.1429    4.3371   10.6753 O   0  0  0  0  0  0  0  0  0  0  0  0
   17.9254    3.5355    9.8585 C   0  0  0  0  0  0  0  0  0  0  0  0
   18.4278    2.4601   10.5747 O   0  0  0  0  0  0  0  0  0  0  0  0
   17.9187    1.7504   12.9210 C   0  0  0  0  0  0  0  0  0  0  0  0
   17.3566    1.2497   15.3339 C   0  0  0  0  0  0  0  0  0  0  0  0
   18.2533    1.5046   16.2295 N   0  0  0  0  0  0  0  0  0  0  0  0
   16.5601    0.2896   15.3764 O   0  0  0  0  0  0  0  0  0  0  0  0
   18.3836    0.5197   17.3096 C   0  0  0  0  0  0  0  0  0  0  0  0
   19.7756   -0.1201   17.1146 C   0  0  0  0  0  0  0  0  0  0  0  0
   19.2251    2.5582   16.1243 C   0  0  0  0  0  0  0  0  0  0  0  0
   20.6543    2.1519   16.5223 C   0  0  0  0  0  0  0  0  0  0  0  0
   20.9187    0.8338   16.9477 C   0  0  0  0  0  0  0  0  0  0  0  0
   22.2437    0.5388   17.2698 C   0  0  0  0  0  0  0  0  0  0  0  0
   23.2563    1.4922   17.1251 C   0  0  0  0  0  0  0  0  0  0  0  0
   22.9820    2.7887   16.7116 C   0  0  0  0  0  0  0  0  0  0  0  0
   21.6595    3.0606   16.3822 C   0  0  0  0  0  0  0  0  0  0  0  0
   18.3266    1.3441   18.6051 C   0  0  0  0  0  0  0  0  0  0  0  0
   17.5624    0.6293   19.6631 N   0  0  0  0  0  0  0  0  0  0  0  0
   18.5103    0.0523   20.6335 C   0  0  0  0  0  0  0  0  0  0  0  0
   17.7820   -0.7643   21.6967 C   0  0  0  0  0  0  0  0  0  0  0  0
   16.9665   -1.7539   20.9980 O   0  0  0  0  0  0  0  0  0  0  0  0
   15.9454   -1.1666   20.1211 C   0  0  0  0  0  0  0  0  0  0  0  0
   16.6522   -0.3581   19.0273 C   0  0  0  0  0  0  0  0  0  0  0  0
   14.6275    6.1860   17.6573 C   0  0  0  0  0  0  0  0  0  0  0  0
   15.0823    7.3795   16.9162 C   0  0  0  0  0  0  0  0  0  0  0  0
   16.2666    6.0294   15.1269 C   0  0  0  0  0  0  0  0  0  0  0  0
   16.3701    7.1967   16.1152 C   0  0  0  0  0  0  0  0  0  0  0  0
   14.8907    4.9068   16.8917 C   0  0  0  0  0  0  0  0  0  0  0  0
   15.6232    4.8963   15.7540 N   0  0  0  0  0  0  0  0  0  0  0  0
   15.6887    3.6136   15.3137 C   0  0  0  0  0  0  0  0  0  0  0  0
   14.9890    2.8341   16.1521 C   0  0  0  0  0  0  0  0  0  0  0  0
   14.4572    3.6876   17.1928 C   0  0  0  0  0  0  0  0  0  0  0  0
   13.6408    3.2768   18.3737 C   0  0  0  0  0  0  0  0  0  0  0  0
   13.8159    3.9317   19.4344 O   0  0  0  0  0  0  0  0  0  0  0  0
   12.7811    2.2683   18.3451 N   0  0  0  0  0  0  0  0  0  0  0  0
   12.3159    1.6463   17.1233 C   0  0  0  0  0  0  0  0  0  0  0  0
   12.5659    0.2953   16.8853 C   0  0  0  0  0  0  0  0  0  0  0  0
   12.1127   -0.2410   15.7379 C   0  0  0  0  0  0  0  0  0  0  0  0
   11.4025    0.4333   14.7826 C   0  0  0  0  0  0  0  0  0  0  0  0
   11.1187    1.7911   14.9550 C   0  0  0  0  0  0  0  0  0  0  0  0
   11.5652    2.3515   16.1657 C   0  0  0  0  0  0  0  0  0  0  0  0
   10.9112   -0.1198   13.6307 O   0  0  0  0  0  0  0  0  0  0  0  0
   11.0611   -1.0260   13.4451 H   0  0  0  0  0  0  0  0  0  0  0  0
   12.2239    1.7781   19.5544 C   0  0  0  0  0  0  0  0  0  0  0  0
   10.9121    2.0635   19.9105 C   0  0  0  0  0  0  0  0  0  0  0  0
   10.3610    1.5559   21.1020 C   0  0  0  0  0  0  0  0  0  0  0  0
   11.1573    0.7705   21.9629 C   0  0  0  0  0  0  0  0  0  0  0  0
   12.4505    0.5091   21.6271 C   0  0  0  0  0  0  0  0  0  0  0  0
   13.0162    0.9874   20.4340 C   0  0  0  0  0  0  0  0  0  0  0  0
  7  8  1  0  0  0
  7  6  1  0  0  0
  8  4  1  0  0  0
  6  5  1  0  0  0
  4  5  2  0  0  0
  4  9  1  0  0  0
  5  2  1  0  0  0
  9  3  2  0  0  0
  2  1  2  0  0  0
 47 44  1  0  0  0
  3  1  1  0  0  0
  3 10  1  0  0  0
  1 35  1  0  0  0
 44 43  2  0  0  0
 44 45  1  0  0  0
 31 34  1  0  0  0
 31 32  1  0  0  0
 43 42  1  0  0  0
 10 12  2  0  0  0
 10 11  1  0  0  0
 35 34  1  0  0  0
 35 36  2  0  0  0
 15 11  1  0  0  0
 15 16  1  0  0  0
 34 33  1  0  0  0
 11 13  1  0  0  0
 45 46  2  0  0  0
 21 16  2  0  0  0
 21 20  1  0  0  0
 36 37  1  0  0  0
 32 30  1  0  0  0
 42 41  2  0  0  0
 16 17  1  0  0  0
 20 19  2  0  0  0
 24 25  1  0  0  0
 24 23  1  0  0  0
 33 37  2  0  0  0
 33 29  1  0  0  0
 46 41  1  0  0  0
 22 13  1  0  0  0
 22 23  1  0  0  0
 30 29  1  0  0  0
 26 25  1  0  0  0
 26 27  1  0  0  0
 13 14  1  0  0  0
 37 38  1  0  0  0
 41 40  1  0  0  0
 28 23  1  0  0  0
 28 27  1  0  0  0
 17 14  1  0  0  0
 17 18  2  0  0  0
 19 18  1  0  0  0
 38 40  1  0  0  0
 38 39  2  0  0  0
 40 49  1  0  0  0
 49 50  2  0  0  0
 49 54  1  0  0  0
 50 51  1  0  0  0
 54 53  2  0  0  0
 51 52  2  0  0  0
 53 52  1  0  0  0
 47 48  1  0  0  0
M  END
> <minimizedAffinity>
-9.23537

$$$$
