4RSK_U3P_A_125


 26 27  0  0  0  0  0  0  0  0999 V2000
  -18.5749   43.0696   26.8053 C   0  0  0  0  0  0  0  0  0  0  0  0
  -19.1117   41.7304   27.0372 O   0  0  0  0  0  0  0  0  0  0  0  0
  -17.0590   42.8665   26.7372 C   0  0  0  0  0  0  0  0  0  0  0  0
  -16.7989   41.6529   27.6407 C   0  0  0  0  0  0  0  0  0  0  0  0
  -16.6822   41.9993   29.0178 O   0  0  0  0  0  0  0  0  0  0  0  0
  -18.0827   40.8573   27.4874 C   0  0  0  0  0  0  0  0  0  0  0  0
  -17.4889   42.4541   29.3063 H   0  0  0  0  0  0  0  0  0  0  0  0
  -17.9877   39.7182   26.5757 N   0  0  0  0  0  0  0  0  0  0  0  0
  -17.0610   38.7229   26.8052 C   0  0  0  0  0  0  0  0  0  0  0  0
  -17.1161   37.6551   25.9447 N   0  0  0  0  0  0  0  0  0  0  0  0
  -17.9699   37.5054   24.8650 C   0  0  0  0  0  0  0  0  0  0  0  0
  -18.9224   38.5830   24.7049 C   0  0  0  0  0  0  0  0  0  0  0  0
  -18.9023   39.6300   25.5518 C   0  0  0  0  0  0  0  0  0  0  0  0
  -16.2562   38.7580   27.7102 O   0  0  0  0  0  0  0  0  0  0  0  0
  -17.8765   36.5092   24.1379 O   0  0  0  0  0  0  0  0  0  0  0  0
  -16.4833   36.9198   26.1124 H   0  0  0  0  0  0  0  0  0  0  0  0
  -18.4522   43.3043   24.3418 O   0  0  0  0  0  0  0  0  0  0  0  0
  -19.1506   43.6915   25.5251 C   0  0  0  0  0  0  0  0  0  0  0  0
  -18.8618   43.7280   23.5714 H   0  0  0  0  0  0  0  0  0  0  0  0
  -16.4100   44.0367   27.2360 O   0  0  0  0  0  0  0  0  0  0  0  0
  -15.7833   45.1141   26.2338 P   0  0  0  0  0  0  0  0  0  0  0  0
  -14.4440   45.4745   26.7612 O   0  0  0  0  0  0  0  0  0  0  0  0
  -16.6415   46.3180   26.2433 O   0  0  0  0  0  0  0  0  0  0  0  0
  -15.7579   44.4046   24.9295 O   0  0  0  0  0  0  0  0  0  0  0  0
  -14.0316   46.1292   26.1763 H   0  0  0  0  0  0  0  0  0  0  0  0
  -15.3874   44.9897   24.2503 H   0  0  0  0  0  0  0  0  0  0  0  0
  8  9  1  0  0  0
  8 13  1  0  0  0
  8  6  1  0  0  0
  9 10  1  0  0  0
  9 14  2  0  0  0
 10 11  1  0  0  0
 11 12  1  0  0  0
 11 15  2  0  0  0
 12 13  2  0  0  0
 21 22  1  0  0  0
 21 23  2  0  0  0
 21 24  1  0  0  0
 21 20  1  0  0  0
 17 18  1  0  0  0
 18  1  1  0  0  0
  1  2  1  0  0  0
  1  3  1  0  0  0
  2  6  1  0  0  0
  3 20  1  0  0  0
  3  4  1  0  0  0
  4  5  1  0  0  0
  4  6  1  0  0  0
 10 16  1  0  0  0
 22 25  1  0  0  0
 24 26  1  0  0  0
 17 19  1  0  0  0
  5  7  1  0  0  0
M  END
> <minimizedAffinity>
-6.85014

$$$$
4RSK_U3P_A_125


 26 27  0  0  0  0  0  0  0  0999 V2000
  -17.2655   41.3624   26.7081 C   0  0  0  0  0  0  0  0  0  0  0  0
  -18.6033   40.8147   26.4945 O   0  0  0  0  0  0  0  0  0  0  0  0
  -17.4594   42.8796   26.6425 C   0  0  0  0  0  0  0  0  0  0  0  0
  -18.6523   43.0680   25.6947 C   0  0  0  0  0  0  0  0  0  0  0  0
  -18.2767   43.0650   24.3204 O   0  0  0  0  0  0  0  0  0  0  0  0
  -19.4597   41.8060   25.9400 C   0  0  0  0  0  0  0  0  0  0  0  0
  -17.8217   42.2343   24.1113 H   0  0  0  0  0  0  0  0  0  0  0  0
  -20.6166   41.9844   26.8160 N   0  0  0  0  0  0  0  0  0  0  0  0
  -21.8494   42.2944   26.2807 C   0  0  0  0  0  0  0  0  0  0  0  0
  -22.8860   42.3492   27.1786 N   0  0  0  0  0  0  0  0  0  0  0  0
  -22.8048   42.1667   28.5487 C   0  0  0  0  0  0  0  0  0  0  0  0
  -21.4819   41.8268   29.0271 C   0  0  0  0  0  0  0  0  0  0  0  0
  -20.4540   41.7444   28.1608 C   0  0  0  0  0  0  0  0  0  0  0  0
  -22.0323   42.4900   25.0991 O   0  0  0  0  0  0  0  0  0  0  0  0
  -23.8159   42.2953   29.2494 O   0  0  0  0  0  0  0  0  0  0  0  0
  -23.7795   42.5376   26.8105 H   0  0  0  0  0  0  0  0  0  0  0  0
  -16.5899   41.9318   29.0229 O   0  0  0  0  0  0  0  0  0  0  0  0
  -16.6741   40.8948   28.0455 C   0  0  0  0  0  0  0  0  0  0  0  0
  -16.2103   41.5750   29.8411 H   0  0  0  0  0  0  0  0  0  0  0  0
  -16.2746   43.4776   26.1151 O   0  0  0  0  0  0  0  0  0  0  0  0
  -15.7297   44.8641   26.6971 P   0  0  0  0  0  0  0  0  0  0  0  0
  -15.5712   44.6908   28.1623 O   0  0  0  0  0  0  0  0  0  0  0  0
  -16.7447   45.9092   26.4456 O   0  0  0  0  0  0  0  0  0  0  0  0
  -14.4559   45.0744   25.9634 O   0  0  0  0  0  0  0  0  0  0  0  0
  -15.2407   45.5156   28.5515 H   0  0  0  0  0  0  0  0  0  0  0  0
  -14.0479   45.9046   26.2554 H   0  0  0  0  0  0  0  0  0  0  0  0
  8  9  1  0  0  0
  8 13  1  0  0  0
  8  6  1  0  0  0
  9 10  1  0  0  0
  9 14  2  0  0  0
 10 11  1  0  0  0
 11 12  1  0  0  0
 11 15  2  0  0  0
 12 13  2  0  0  0
 21 22  1  0  0  0
 21 23  2  0  0  0
 21 24  1  0  0  0
 21 20  1  0  0  0
 17 18  1  0  0  0
 18  1  1  0  0  0
  1  2  1  0  0  0
  1  3  1  0  0  0
  2  6  1  0  0  0
  3 20  1  0  0  0
  3  4  1  0  0  0
  4  5  1  0  0  0
  4  6  1  0  0  0
 10 16  1  0  0  0
 22 25  1  0  0  0
 24 26  1  0  0  0
 17 19  1  0  0  0
  5  7  1  0  0  0
M  END
> <minimizedAffinity>
-5.99625

$$$$
4RSK_U3P_A_125


 26 27  0  0  0  0  0  0  0  0999 V2000
  -16.9659   40.3132   26.5289 C   0  0  0  0  0  0  0  0  0  0  0  0
  -16.7838   39.0537   25.8109 O   0  0  0  0  0  0  0  0  0  0  0  0
  -18.4530   40.6363   26.3616 C   0  0  0  0  0  0  0  0  0  0  0  0
  -18.8280   40.0048   25.0135 C   0  0  0  0  0  0  0  0  0  0  0  0
  -18.5290   40.8456   23.9029 O   0  0  0  0  0  0  0  0  0  0  0  0
  -17.8848   38.8174   24.9417 C   0  0  0  0  0  0  0  0  0  0  0  0
  -17.5843   41.0654   23.9089 H   0  0  0  0  0  0  0  0  0  0  0  0
  -18.4960   37.5332   25.2805 N   0  0  0  0  0  0  0  0  0  0  0  0
  -17.7057   36.4195   25.4742 C   0  0  0  0  0  0  0  0  0  0  0  0
  -18.3689   35.2879   25.8781 N   0  0  0  0  0  0  0  0  0  0  0  0
  -19.7339   35.1510   26.0659 C   0  0  0  0  0  0  0  0  0  0  0  0
  -20.4885   36.3688   25.8608 C   0  0  0  0  0  0  0  0  0  0  0  0
  -19.8557   37.4973   25.4869 C   0  0  0  0  0  0  0  0  0  0  0  0
  -16.5036   36.4215   25.3229 O   0  0  0  0  0  0  0  0  0  0  0  0
  -20.2059   34.0531   26.3844 O   0  0  0  0  0  0  0  0  0  0  0  0
  -17.8173   34.4913   26.0524 H   0  0  0  0  0  0  0  0  0  0  0  0
  -16.6047   41.4208   28.7156 O   0  0  0  0  0  0  0  0  0  0  0  0
  -16.5457   40.1869   28.0002 C   0  0  0  0  0  0  0  0  0  0  0  0
  -16.3288   41.2754   29.6342 H   0  0  0  0  0  0  0  0  0  0  0  0
  -18.6212   42.0542   26.3382 O   0  0  0  0  0  0  0  0  0  0  0  0
  -19.3686   42.8088   27.5340 P   0  0  0  0  0  0  0  0  0  0  0  0
  -20.5510   43.4892   26.9502 O   0  0  0  0  0  0  0  0  0  0  0  0
  -18.4540   43.8295   28.0885 O   0  0  0  0  0  0  0  0  0  0  0  0
  -19.6975   41.7165   28.4848 O   0  0  0  0  0  0  0  0  0  0  0  0
  -21.0312   43.9597   27.6494 H   0  0  0  0  0  0  0  0  0  0  0  0
  -20.1598   42.0854   29.2536 H   0  0  0  0  0  0  0  0  0  0  0  0
  8  9  1  0  0  0
  8 13  1  0  0  0
  8  6  1  0  0  0
  9 10  1  0  0  0
  9 14  2  0  0  0
 10 11  1  0  0  0
 11 12  1  0  0  0
 11 15  2  0  0  0
 12 13  2  0  0  0
 21 22  1  0  0  0
 21 23  2  0  0  0
 21 24  1  0  0  0
 21 20  1  0  0  0
 17 18  1  0  0  0
 18  1  1  0  0  0
  1  2  1  0  0  0
  1  3  1  0  0  0
  2  6  1  0  0  0
  3 20  1  0  0  0
  3  4  1  0  0  0
  4  5  1  0  0  0
  4  6  1  0  0  0
 10 16  1  0  0  0
 22 25  1  0  0  0
 24 26  1  0  0  0
 17 19  1  0  0  0
  5  7  1  0  0  0
M  END
> <minimizedAffinity>
-5.78505

$$$$
4RSK_U3P_A_125


 26 27  0  0  0  0  0  0  0  0999 V2000
  -18.2762   41.5667   27.6197 C   0  0  0  0  0  0  0  0  0  0  0  0
  -18.6325   40.1501   27.5809 O   0  0  0  0  0  0  0  0  0  0  0  0
  -17.1627   41.7087   26.5788 C   0  0  0  0  0  0  0  0  0  0  0  0
  -16.4709   40.3383   26.5754 C   0  0  0  0  0  0  0  0  0  0  0  0
  -15.4871   40.2091   27.5979 O   0  0  0  0  0  0  0  0  0  0  0  0
  -17.6114   39.4019   26.9319 C   0  0  0  0  0  0  0  0  0  0  0  0
  -15.8973   40.3656   28.4628 H   0  0  0  0  0  0  0  0  0  0  0  0
  -18.1899   38.6870   25.7953 N   0  0  0  0  0  0  0  0  0  0  0  0
  -17.6569   37.4805   25.3920 C   0  0  0  0  0  0  0  0  0  0  0  0
  -18.3293   36.8481   24.3762 N   0  0  0  0  0  0  0  0  0  0  0  0
  -19.4453   37.3174   23.7044 C   0  0  0  0  0  0  0  0  0  0  0  0
  -19.9523   38.5790   24.2001 C   0  0  0  0  0  0  0  0  0  0  0  0
  -19.3224   39.2062   25.2118 C   0  0  0  0  0  0  0  0  0  0  0  0
  -16.6745   36.9839   25.8982 O   0  0  0  0  0  0  0  0  0  0  0  0
  -19.9223   36.6641   22.7688 O   0  0  0  0  0  0  0  0  0  0  0  0
  -17.9822   35.9703   24.0965 H   0  0  0  0  0  0  0  0  0  0  0  0
  -19.2135   43.8539   27.4494 O   0  0  0  0  0  0  0  0  0  0  0  0
  -19.4890   42.4593   27.3201 C   0  0  0  0  0  0  0  0  0  0  0  0
  -20.0150   44.3619   27.2482 H   0  0  0  0  0  0  0  0  0  0  0  0
  -16.2690   42.7432   26.9919 O   0  0  0  0  0  0  0  0  0  0  0  0
  -16.1984   44.1288   26.1961 P   0  0  0  0  0  0  0  0  0  0  0  0
  -14.7851   44.3281   25.7901 O   0  0  0  0  0  0  0  0  0  0  0  0
  -16.5906   45.2179   27.1157 O   0  0  0  0  0  0  0  0  0  0  0  0
  -17.1390   43.9299   25.0644 O   0  0  0  0  0  0  0  0  0  0  0  0
  -14.7034   45.1627   25.3027 H   0  0  0  0  0  0  0  0  0  0  0  0
  -17.1621   44.7314   24.5185 H   0  0  0  0  0  0  0  0  0  0  0  0
  8  9  1  0  0  0
  8 13  1  0  0  0
  8  6  1  0  0  0
  9 10  1  0  0  0
  9 14  2  0  0  0
 10 11  1  0  0  0
 11 12  1  0  0  0
 11 15  2  0  0  0
 12 13  2  0  0  0
 21 22  1  0  0  0
 21 23  2  0  0  0
 21 24  1  0  0  0
 21 20  1  0  0  0
 17 18  1  0  0  0
 18  1  1  0  0  0
  1  2  1  0  0  0
  1  3  1  0  0  0
  2  6  1  0  0  0
  3 20  1  0  0  0
  3  4  1  0  0  0
  4  5  1  0  0  0
  4  6  1  0  0  0
 10 16  1  0  0  0
 22 25  1  0  0  0
 24 26  1  0  0  0
 17 19  1  0  0  0
  5  7  1  0  0  0
M  END
> <minimizedAffinity>
-5.73871

$$$$
4RSK_U3P_A_125


 26 27  0  0  0  0  0  0  0  0999 V2000
  -19.6557   42.7148   26.7454 C   0  0  0  0  0  0  0  0  0  0  0  0
  -20.2868   43.2033   25.5213 O   0  0  0  0  0  0  0  0  0  0  0  0
  -18.4517   41.9051   26.2570 C   0  0  0  0  0  0  0  0  0  0  0  0
  -18.8852   41.3736   24.8835 C   0  0  0  0  0  0  0  0  0  0  0  0
  -19.6480   40.1731   24.9669 O   0  0  0  0  0  0  0  0  0  0  0  0
  -19.8217   42.4652   24.3977 C   0  0  0  0  0  0  0  0  0  0  0  0
  -20.4303   40.3249   25.5200 H   0  0  0  0  0  0  0  0  0  0  0  0
  -19.2308   43.3877   23.4295 N   0  0  0  0  0  0  0  0  0  0  0  0
  -19.2430   43.0817   22.0846 C   0  0  0  0  0  0  0  0  0  0  0  0
  -18.7467   44.0545   21.2533 N   0  0  0  0  0  0  0  0  0  0  0  0
  -18.2082   45.2722   21.6332 C   0  0  0  0  0  0  0  0  0  0  0  0
  -18.2499   45.5236   23.0577 C   0  0  0  0  0  0  0  0  0  0  0  0
  -18.7541   44.5930   23.8905 C   0  0  0  0  0  0  0  0  0  0  0  0
  -19.6752   42.0397   21.6426 O   0  0  0  0  0  0  0  0  0  0  0  0
  -17.7482   46.0374   20.7772 O   0  0  0  0  0  0  0  0  0  0  0  0
  -18.7768   43.8671   20.2873 H   0  0  0  0  0  0  0  0  0  0  0  0
  -17.9581   43.7226   28.2425 O   0  0  0  0  0  0  0  0  0  0  0  0
  -19.2585   43.8719   27.6730 C   0  0  0  0  0  0  0  0  0  0  0  0
  -17.7670   44.4816   28.8155 H   0  0  0  0  0  0  0  0  0  0  0  0
  -18.2049   40.8390   27.1747 O   0  0  0  0  0  0  0  0  0  0  0  0
  -16.7111   40.4492   27.5924 P   0  0  0  0  0  0  0  0  0  0  0  0
  -15.8258   40.8452   26.4693 O   0  0  0  0  0  0  0  0  0  0  0  0
  -16.6400   38.9824   27.7639 O   0  0  0  0  0  0  0  0  0  0  0  0
  -16.4887   41.2124   28.8466 O   0  0  0  0  0  0  0  0  0  0  0  0
  -14.9072   40.6230   26.6879 H   0  0  0  0  0  0  0  0  0  0  0  0
  -15.5946   41.0355   29.1786 H   0  0  0  0  0  0  0  0  0  0  0  0
  8  9  1  0  0  0
  8 13  1  0  0  0
  8  6  1  0  0  0
  9 10  1  0  0  0
  9 14  2  0  0  0
 10 11  1  0  0  0
 11 12  1  0  0  0
 11 15  2  0  0  0
 12 13  2  0  0  0
 21 22  1  0  0  0
 21 23  2  0  0  0
 21 24  1  0  0  0
 21 20  1  0  0  0
 17 18  1  0  0  0
 18  1  1  0  0  0
  1  2  1  0  0  0
  1  3  1  0  0  0
  2  6  1  0  0  0
  3 20  1  0  0  0
  3  4  1  0  0  0
  4  5  1  0  0  0
  4  6  1  0  0  0
 10 16  1  0  0  0
 22 25  1  0  0  0
 24 26  1  0  0  0
 17 19  1  0  0  0
  5  7  1  0  0  0
M  END
> <minimizedAffinity>
-5.64982

$$$$
4RSK_U3P_A_125


 26 27  0  0  0  0  0  0  0  0999 V2000
  -18.2164   43.5776   25.4948 C   0  0  0  0  0  0  0  0  0  0  0  0
  -18.0445   45.0049   25.2332 O   0  0  0  0  0  0  0  0  0  0  0  0
  -17.3226   43.3015   26.7066 C   0  0  0  0  0  0  0  0  0  0  0  0
  -16.1896   44.3301   26.5834 C   0  0  0  0  0  0  0  0  0  0  0  0
  -15.1395   43.9006   25.7216 O   0  0  0  0  0  0  0  0  0  0  0  0
  -16.8843   45.4921   25.8965 C   0  0  0  0  0  0  0  0  0  0  0  0
  -15.5014   43.7066   24.8428 H   0  0  0  0  0  0  0  0  0  0  0  0
  -17.2657   46.5863   26.7880 N   0  0  0  0  0  0  0  0  0  0  0  0
  -16.3229   47.5048   27.1999 C   0  0  0  0  0  0  0  0  0  0  0  0
  -16.8022   48.5428   27.9592 N   0  0  0  0  0  0  0  0  0  0  0  0
  -18.1093   48.7285   28.3764 C   0  0  0  0  0  0  0  0  0  0  0  0
  -19.0381   47.7327   27.8866 C   0  0  0  0  0  0  0  0  0  0  0  0
  -18.5942   46.7180   27.1204 C   0  0  0  0  0  0  0  0  0  0  0  0
  -15.1494   47.4315   26.9075 O   0  0  0  0  0  0  0  0  0  0  0  0
  -18.3945   49.6869   29.1043 O   0  0  0  0  0  0  0  0  0  0  0  0
  -16.1493   49.2258   28.2358 H   0  0  0  0  0  0  0  0  0  0  0  0
  -19.9089   41.8359   25.9855 O   0  0  0  0  0  0  0  0  0  0  0  0
  -19.6893   43.2264   25.7486 C   0  0  0  0  0  0  0  0  0  0  0  0
  -20.8539   41.6793   26.1381 H   0  0  0  0  0  0  0  0  0  0  0  0
  -16.8254   41.9653   26.6231 O   0  0  0  0  0  0  0  0  0  0  0  0
  -16.8880   40.9891   27.8884 P   0  0  0  0  0  0  0  0  0  0  0  0
  -16.5479   41.8002   29.0835 O   0  0  0  0  0  0  0  0  0  0  0  0
  -15.8654   39.9350   27.7183 O   0  0  0  0  0  0  0  0  0  0  0  0
  -18.2833   40.4813   27.8691 O   0  0  0  0  0  0  0  0  0  0  0  0
  -16.5759   41.2387   29.8740 H   0  0  0  0  0  0  0  0  0  0  0  0
  -18.4160   39.8721   28.6122 H   0  0  0  0  0  0  0  0  0  0  0  0
  8  9  1  0  0  0
  8 13  1  0  0  0
  8  6  1  0  0  0
  9 10  1  0  0  0
  9 14  2  0  0  0
 10 11  1  0  0  0
 11 12  1  0  0  0
 11 15  2  0  0  0
 12 13  2  0  0  0
 21 22  1  0  0  0
 21 23  2  0  0  0
 21 24  1  0  0  0
 21 20  1  0  0  0
 17 18  1  0  0  0
 18  1  1  0  0  0
  1  2  1  0  0  0
  1  3  1  0  0  0
  2  6  1  0  0  0
  3 20  1  0  0  0
  3  4  1  0  0  0
  4  5  1  0  0  0
  4  6  1  0  0  0
 10 16  1  0  0  0
 22 25  1  0  0  0
 24 26  1  0  0  0
 17 19  1  0  0  0
  5  7  1  0  0  0
M  END
> <minimizedAffinity>
-5.64888

$$$$
4RSK_U3P_A_125


 26 27  0  0  0  0  0  0  0  0999 V2000
  -20.6529   42.5046   23.4793 C   0  0  0  0  0  0  0  0  0  0  0  0
  -20.7156   41.8469   24.7826 O   0  0  0  0  0  0  0  0  0  0  0  0
  -19.3967   43.3766   23.5519 C   0  0  0  0  0  0  0  0  0  0  0  0
  -19.2702   43.7348   25.0393 C   0  0  0  0  0  0  0  0  0  0  0  0
  -20.0622   44.8597   25.4100 O   0  0  0  0  0  0  0  0  0  0  0  0
  -19.8774   42.5187   25.7153 C   0  0  0  0  0  0  0  0  0  0  0  0
  -20.9917   44.6859   25.1939 H   0  0  0  0  0  0  0  0  0  0  0  0
  -18.9025   41.5710   26.2529 N   0  0  0  0  0  0  0  0  0  0  0  0
  -18.4160   41.7295   27.5337 C   0  0  0  0  0  0  0  0  0  0  0  0
  -17.5776   40.7360   27.9740 N   0  0  0  0  0  0  0  0  0  0  0  0
  -17.1507   39.6335   27.2534 C   0  0  0  0  0  0  0  0  0  0  0  0
  -17.7210   39.5312   25.9273 C   0  0  0  0  0  0  0  0  0  0  0  0
  -18.5645   40.4823   25.4826 C   0  0  0  0  0  0  0  0  0  0  0  0
  -18.7100   42.6637   28.2470 O   0  0  0  0  0  0  0  0  0  0  0  0
  -16.3495   38.8384   27.7590 O   0  0  0  0  0  0  0  0  0  0  0  0
  -17.2456   40.8154   28.8974 H   0  0  0  0  0  0  0  0  0  0  0  0
  -19.6814   41.8298   21.3023 O   0  0  0  0  0  0  0  0  0  0  0  0
  -20.6025   41.4815   22.3357 C   0  0  0  0  0  0  0  0  0  0  0  0
  -19.6959   41.1476   20.6128 H   0  0  0  0  0  0  0  0  0  0  0  0
  -19.5922   44.5417   22.7496 O   0  0  0  0  0  0  0  0  0  0  0  0
  -18.3755   45.1892   21.9381 P   0  0  0  0  0  0  0  0  0  0  0  0
  -18.9595   45.9331   20.7947 O   0  0  0  0  0  0  0  0  0  0  0  0
  -17.5267   44.0972   21.4156 O   0  0  0  0  0  0  0  0  0  0  0  0
  -17.7000   46.0457   22.9457 O   0  0  0  0  0  0  0  0  0  0  0  0
  -18.2479   46.3413   20.2771 H   0  0  0  0  0  0  0  0  0  0  0  0
  -16.9379   46.4854   22.5375 H   0  0  0  0  0  0  0  0  0  0  0  0
  8  9  1  0  0  0
  8 13  1  0  0  0
  8  6  1  0  0  0
  9 10  1  0  0  0
  9 14  2  0  0  0
 10 11  1  0  0  0
 11 12  1  0  0  0
 11 15  2  0  0  0
 12 13  2  0  0  0
 21 22  1  0  0  0
 21 23  2  0  0  0
 21 24  1  0  0  0
 21 20  1  0  0  0
 17 18  1  0  0  0
 18  1  1  0  0  0
  1  2  1  0  0  0
  1  3  1  0  0  0
  2  6  1  0  0  0
  3 20  1  0  0  0
  3  4  1  0  0  0
  4  5  1  0  0  0
  4  6  1  0  0  0
 10 16  1  0  0  0
 22 25  1  0  0  0
 24 26  1  0  0  0
 17 19  1  0  0  0
  5  7  1  0  0  0
M  END
> <minimizedAffinity>
-5.52039

$$$$
4RSK_U3P_A_125


 26 27  0  0  0  0  0  0  0  0999 V2000
  -19.9804   38.2853   23.8873 C   0  0  0  0  0  0  0  0  0  0  0  0
  -20.1578   39.6892   24.2516 O   0  0  0  0  0  0  0  0  0  0  0  0
  -18.9414   37.7613   24.8820 C   0  0  0  0  0  0  0  0  0  0  0  0
  -18.0843   38.9902   25.2165 C   0  0  0  0  0  0  0  0  0  0  0  0
  -17.0470   39.2201   24.2672 O   0  0  0  0  0  0  0  0  0  0  0  0
  -19.0813   40.1259   25.0727 C   0  0  0  0  0  0  0  0  0  0  0  0
  -17.4342   39.3227   23.3837 H   0  0  0  0  0  0  0  0  0  0  0  0
  -19.6163   40.6299   26.3365 N   0  0  0  0  0  0  0  0  0  0  0  0
  -18.7911   41.2873   27.2249 C   0  0  0  0  0  0  0  0  0  0  0  0
  -19.4104   41.8005   28.3370 N   0  0  0  0  0  0  0  0  0  0  0  0
  -20.7510   41.6869   28.6644 C   0  0  0  0  0  0  0  0  0  0  0  0
  -21.5504   41.0004   27.6725 C   0  0  0  0  0  0  0  0  0  0  0  0
  -20.9681   40.5089   26.5620 C   0  0  0  0  0  0  0  0  0  0  0  0
  -17.6013   41.4312   27.0472 O   0  0  0  0  0  0  0  0  0  0  0  0
  -21.1679   42.1568   29.7298 O   0  0  0  0  0  0  0  0  0  0  0  0
  -18.8430   42.3009   28.9670 H   0  0  0  0  0  0  0  0  0  0  0  0
  -21.1800   36.1342   23.6179 O   0  0  0  0  0  0  0  0  0  0  0  0
  -21.3076   37.5162   23.9517 C   0  0  0  0  0  0  0  0  0  0  0  0
  -22.0482   35.7058   23.6768 H   0  0  0  0  0  0  0  0  0  0  0  0
  -18.1666   36.7409   24.2512 O   0  0  0  0  0  0  0  0  0  0  0  0
  -17.8255   35.3804   25.0197 P   0  0  0  0  0  0  0  0  0  0  0  0
  -17.0128   35.7414   26.2076 O   0  0  0  0  0  0  0  0  0  0  0  0
  -17.0139   34.5276   24.1254 O   0  0  0  0  0  0  0  0  0  0  0  0
  -19.1611   34.8156   25.3396 O   0  0  0  0  0  0  0  0  0  0  0  0
  -16.7860   34.9374   26.7006 H   0  0  0  0  0  0  0  0  0  0  0  0
  -19.0522   33.9764   25.8137 H   0  0  0  0  0  0  0  0  0  0  0  0
  8  9  1  0  0  0
  8 13  1  0  0  0
  8  6  1  0  0  0
  9 10  1  0  0  0
  9 14  2  0  0  0
 10 11  1  0  0  0
 11 12  1  0  0  0
 11 15  2  0  0  0
 12 13  2  0  0  0
 21 22  1  0  0  0
 21 23  2  0  0  0
 21 24  1  0  0  0
 21 20  1  0  0  0
 17 18  1  0  0  0
 18  1  1  0  0  0
  1  2  1  0  0  0
  1  3  1  0  0  0
  2  6  1  0  0  0
  3 20  1  0  0  0
  3  4  1  0  0  0
  4  5  1  0  0  0
  4  6  1  0  0  0
 10 16  1  0  0  0
 22 25  1  0  0  0
 24 26  1  0  0  0
 17 19  1  0  0  0
  5  7  1  0  0  0
M  END
> <minimizedAffinity>
-5.47521

$$$$
4RSK_U3P_A_125


 26 27  0  0  0  0  0  0  0  0999 V2000
  -19.3436   43.3325   25.7973 C   0  0  0  0  0  0  0  0  0  0  0  0
  -20.1255   42.0982   25.7813 O   0  0  0  0  0  0  0  0  0  0  0  0
  -18.0722   42.9689   26.5688 C   0  0  0  0  0  0  0  0  0  0  0  0
  -18.5206   41.8671   27.5392 C   0  0  0  0  0  0  0  0  0  0  0  0
  -19.0916   42.3810   28.7391 O   0  0  0  0  0  0  0  0  0  0  0  0
  -19.6391   41.1930   26.7650 C   0  0  0  0  0  0  0  0  0  0  0  0
  -19.8460   42.9501   28.5202 H   0  0  0  0  0  0  0  0  0  0  0  0
  -19.2605   39.9385   26.1167 N   0  0  0  0  0  0  0  0  0  0  0  0
  -20.2257   39.0092   25.7894 C   0  0  0  0  0  0  0  0  0  0  0  0
  -19.7771   37.9089   25.1024 N   0  0  0  0  0  0  0  0  0  0  0  0
  -18.4673   37.6303   24.7504 C   0  0  0  0  0  0  0  0  0  0  0  0
  -17.5204   38.6628   25.1132 C   0  0  0  0  0  0  0  0  0  0  0  0
  -17.9417   39.7622   25.7671 C   0  0  0  0  0  0  0  0  0  0  0  0
  -21.3986   39.1428   26.0622 O   0  0  0  0  0  0  0  0  0  0  0  0
  -18.1955   36.5707   24.1733 O   0  0  0  0  0  0  0  0  0  0  0  0
  -20.4566   37.2499   24.8320 H   0  0  0  0  0  0  0  0  0  0  0  0
  -18.6998   42.7899   23.4671 O   0  0  0  0  0  0  0  0  0  0  0  0
  -19.0546   43.8329   24.3749 C   0  0  0  0  0  0  0  0  0  0  0  0
  -18.5303   43.1682   22.5902 H   0  0  0  0  0  0  0  0  0  0  0  0
  -17.6069   44.1232   27.2692 O   0  0  0  0  0  0  0  0  0  0  0  0
  -16.2141   44.8078   26.8828 P   0  0  0  0  0  0  0  0  0  0  0  0
  -16.5179   46.1829   26.4153 O   0  0  0  0  0  0  0  0  0  0  0  0
  -15.6103   44.0458   25.7690 O   0  0  0  0  0  0  0  0  0  0  0  0
  -15.4335   44.7478   28.1446 O   0  0  0  0  0  0  0  0  0  0  0  0
  -15.6930   46.6310   26.1710 H   0  0  0  0  0  0  0  0  0  0  0  0
  -14.5604   45.1465   28.0039 H   0  0  0  0  0  0  0  0  0  0  0  0
  8  9  1  0  0  0
  8 13  1  0  0  0
  8  6  1  0  0  0
  9 10  1  0  0  0
  9 14  2  0  0  0
 10 11  1  0  0  0
 11 12  1  0  0  0
 11 15  2  0  0  0
 12 13  2  0  0  0
 21 22  1  0  0  0
 21 23  2  0  0  0
 21 24  1  0  0  0
 21 20  1  0  0  0
 17 18  1  0  0  0
 18  1  1  0  0  0
  1  2  1  0  0  0
  1  3  1  0  0  0
  2  6  1  0  0  0
  3 20  1  0  0  0
  3  4  1  0  0  0
  4  5  1  0  0  0
  4  6  1  0  0  0
 10 16  1  0  0  0
 22 25  1  0  0  0
 24 26  1  0  0  0
 17 19  1  0  0  0
  5  7  1  0  0  0
M  END
> <minimizedAffinity>
-5.31416

$$$$
4RSK_U3P_A_125


 26 27  0  0  0  0  0  0  0  0999 V2000
  -20.1543   40.6973   26.8109 C   0  0  0  0  0  0  0  0  0  0  0  0
  -21.0097   40.5575   25.6345 O   0  0  0  0  0  0  0  0  0  0  0  0
  -18.7296   40.6830   26.2506 C   0  0  0  0  0  0  0  0  0  0  0  0
  -18.8295   39.8201   24.9848 C   0  0  0  0  0  0  0  0  0  0  0  0
  -18.7287   38.4246   25.2535 O   0  0  0  0  0  0  0  0  0  0  0  0
  -20.2523   40.0854   24.5268 C   0  0  0  0  0  0  0  0  0  0  0  0
  -19.4216   38.1653   25.8809 H   0  0  0  0  0  0  0  0  0  0  0  0
  -20.3691   41.0392   23.4248 N   0  0  0  0  0  0  0  0  0  0  0  0
  -21.4980   41.0472   22.6324 C   0  0  0  0  0  0  0  0  0  0  0  0
  -21.5481   42.0401   21.6862 N   0  0  0  0  0  0  0  0  0  0  0  0
  -20.5733   42.9896   21.4303 C   0  0  0  0  0  0  0  0  0  0  0  0
  -19.4312   42.9245   22.3166 C   0  0  0  0  0  0  0  0  0  0  0  0
  -19.3712   41.9731   23.2679 C   0  0  0  0  0  0  0  0  0  0  0  0
  -22.4052   40.2539   22.7576 O   0  0  0  0  0  0  0  0  0  0  0  0
  -20.7275   43.7992   20.5081 O   0  0  0  0  0  0  0  0  0  0  0  0
  -22.3609   42.0814   21.1322 H   0  0  0  0  0  0  0  0  0  0  0  0
  -19.6776   42.1490   28.7613 O   0  0  0  0  0  0  0  0  0  0  0  0
  -20.4753   41.9810   27.5895 C   0  0  0  0  0  0  0  0  0  0  0  0
  -19.9270   42.9738   29.2067 H   0  0  0  0  0  0  0  0  0  0  0  0
  -17.8562   40.0949   27.2153 O   0  0  0  0  0  0  0  0  0  0  0  0
  -16.4376   40.7560   27.5444 P   0  0  0  0  0  0  0  0  0  0  0  0
  -16.1192   41.6840   26.4312 O   0  0  0  0  0  0  0  0  0  0  0  0
  -15.4188   39.6853   27.5816 O   0  0  0  0  0  0  0  0  0  0  0  0
  -16.6577   41.4218   28.8534 O   0  0  0  0  0  0  0  0  0  0  0  0
  -15.2614   42.1056   26.5970 H   0  0  0  0  0  0  0  0  0  0  0  0
  -15.8383   41.8565   29.1370 H   0  0  0  0  0  0  0  0  0  0  0  0
  8  9  1  0  0  0
  8 13  1  0  0  0
  8  6  1  0  0  0
  9 10  1  0  0  0
  9 14  2  0  0  0
 10 11  1  0  0  0
 11 12  1  0  0  0
 11 15  2  0  0  0
 12 13  2  0  0  0
 21 22  1  0  0  0
 21 23  2  0  0  0
 21 24  1  0  0  0
 21 20  1  0  0  0
 17 18  1  0  0  0
 18  1  1  0  0  0
  1  2  1  0  0  0
  1  3  1  0  0  0
  2  6  1  0  0  0
  3 20  1  0  0  0
  3  4  1  0  0  0
  4  5  1  0  0  0
  4  6  1  0  0  0
 10 16  1  0  0  0
 22 25  1  0  0  0
 24 26  1  0  0  0
 17 19  1  0  0  0
  5  7  1  0  0  0
M  END
> <minimizedAffinity>
-5.30906

$$$$
