2EWB_ZED_A_2000


 23 24  0  0  0  0  0  0  0  0999 V2000
   66.6222   51.3182   18.9658 C   0  0  0  0  0  0  0  0  0  0  0  0
   67.8383   52.1791   19.3206 C   0  0  0  0  0  0  0  0  0  0  0  0
   67.4594   52.7615   20.6762 C   0  0  0  0  0  0  0  0  0  0  0  0
   66.0423   53.1860   20.3933 C   0  0  0  0  0  0  0  0  0  0  0  0
   64.2588   51.8516   19.1162 C   0  0  0  0  0  0  0  0  0  0  0  0
   64.0226   51.0293   18.2228 O   0  0  0  0  0  0  0  0  0  0  0  0
   65.5145   52.0555   19.5958 N   0  0  0  0  0  0  0  0  0  0  0  0
   66.7415   49.8477   19.4146 C   0  0  0  0  0  0  0  0  0  0  0  0
   65.7624   49.2814   19.9097 O   0  0  0  0  0  0  0  0  0  0  0  0
   67.8199   49.2599   19.2678 O   0  0  0  0  0  0  0  0  0  0  0  0
   64.9548   49.7455   20.0118 H   0  0  0  0  0  0  0  0  0  0  0  0
   62.0984   51.7738   20.4894 C   0  0  0  0  0  0  0  0  0  0  0  0
   63.1040   52.6635   19.7221 C   0  0  0  0  0  0  0  0  0  0  0  0
   62.3557   53.5174   18.6902 C   0  0  0  0  0  0  0  0  0  0  0  0
   60.7334   54.0818   19.1755 S   0  0  0  0  0  0  0  0  0  0  0  0
   59.9162   53.0100   19.3575 H   0  0  0  0  0  0  0  0  0  0  0  0
   67.5649   51.6619   22.1271 S   0  0  0  0  0  0  0  0  0  0  0  0
   70.2473   52.3529   22.5307 C   0  0  0  0  0  0  0  0  0  0  0  0
   69.3476   51.3294   22.1877 C   0  0  0  0  0  0  0  0  0  0  0  0
   69.8517   50.0485   21.8819 C   0  0  0  0  0  0  0  0  0  0  0  0
   71.2486   49.7841   21.9127 C   0  0  0  0  0  0  0  0  0  0  0  0
   72.1506   50.8199   22.2595 C   0  0  0  0  0  0  0  0  0  0  0  0
   71.6500   52.1092   22.5721 C   0  0  0  0  0  0  0  0  0  0  0  0
 18 19  2  0  0  0
 18 23  1  0  0  0
 19 20  1  0  0  0
 19 17  1  0  0  0
 20 21  2  0  0  0
 21 22  1  0  0  0
 22 23  2  0  0  0
  1  8  1  0  0  0
  1  2  1  0  0  0
  1  7  1  0  0  0
  8  9  1  0  0  0
  8 10  2  0  0  0
  2  3  1  0  0  0
  3  4  1  0  0  0
  3 17  1  0  0  0
  4  7  1  0  0  0
 12 13  1  0  0  0
 13  5  1  0  0  0
 13 14  1  0  0  0
  5  6  2  0  0  0
  5  7  1  0  0  0
 14 15  1  0  0  0
  9 11  1  0  0  0
 15 16  1  0  0  0
M  END
> <minimizedAffinity>
-6.39638

$$$$
2EWB_ZED_A_2000


 23 24  0  0  0  0  0  0  0  0999 V2000
   70.3030   53.6342   22.9046 C   0  0  0  0  0  0  0  0  0  0  0  0
   70.7912   52.7486   24.0549 C   0  0  0  0  0  0  0  0  0  0  0  0
   70.6981   51.3461   23.4680 C   0  0  0  0  0  0  0  0  0  0  0  0
   69.3339   51.4165   22.8335 C   0  0  0  0  0  0  0  0  0  0  0  0
   68.3700   53.3612   21.4618 C   0  0  0  0  0  0  0  0  0  0  0  0
   68.3467   54.5833   21.2720 O   0  0  0  0  0  0  0  0  0  0  0  0
   69.3232   52.7680   22.2286 N   0  0  0  0  0  0  0  0  0  0  0  0
   71.4304   54.1518   21.9885 C   0  0  0  0  0  0  0  0  0  0  0  0
   71.3054   54.0675   20.7631 O   0  0  0  0  0  0  0  0  0  0  0  0
   72.4423   54.6453   22.5006 O   0  0  0  0  0  0  0  0  0  0  0  0
   70.5303   53.6900   20.3961 H   0  0  0  0  0  0  0  0  0  0  0  0
   67.7569   51.9287   19.4293 C   0  0  0  0  0  0  0  0  0  0  0  0
   67.3034   52.4726   20.8040 C   0  0  0  0  0  0  0  0  0  0  0  0
   65.9410   53.1638   20.6624 C   0  0  0  0  0  0  0  0  0  0  0  0
   64.8462   52.4821   19.4284 S   0  0  0  0  0  0  0  0  0  0  0  0
   65.4067   52.6234   18.1974 H   0  0  0  0  0  0  0  0  0  0  0  0
   71.9805   50.8437   22.2730 S   0  0  0  0  0  0  0  0  0  0  0  0
   73.8342   50.4312   24.3295 C   0  0  0  0  0  0  0  0  0  0  0  0
   73.0610   49.8309   23.3213 C   0  0  0  0  0  0  0  0  0  0  0  0
   73.1469   48.4363   23.1313 C   0  0  0  0  0  0  0  0  0  0  0  0
   74.0028   47.6379   23.9390 C   0  0  0  0  0  0  0  0  0  0  0  0
   74.7796   48.2489   24.9539 C   0  0  0  0  0  0  0  0  0  0  0  0
   74.6948   49.6502   25.1530 C   0  0  0  0  0  0  0  0  0  0  0  0
 18 19  2  0  0  0
 18 23  1  0  0  0
 19 20  1  0  0  0
 19 17  1  0  0  0
 20 21  2  0  0  0
 21 22  1  0  0  0
 22 23  2  0  0  0
  1  8  1  0  0  0
  1  2  1  0  0  0
  1  7  1  0  0  0
  8  9  1  0  0  0
  8 10  2  0  0  0
  2  3  1  0  0  0
  3  4  1  0  0  0
  3 17  1  0  0  0
  4  7  1  0  0  0
 12 13  1  0  0  0
 13  5  1  0  0  0
 13 14  1  0  0  0
  5  6  2  0  0  0
  5  7  1  0  0  0
 14 15  1  0  0  0
  9 11  1  0  0  0
 15 16  1  0  0  0
M  END
> <minimizedAffinity>
-6.36229

$$$$
2EWB_ZED_A_2000


 23 24  0  0  0  0  0  0  0  0999 V2000
   70.6997   54.2242   22.8691 C   0  0  0  0  0  0  0  0  0  0  0  0
   71.6566   53.9195   24.0255 C   0  0  0  0  0  0  0  0  0  0  0  0
   71.6873   52.3968   24.0498 C   0  0  0  0  0  0  0  0  0  0  0  0
   70.2152   52.1020   23.9294 C   0  0  0  0  0  0  0  0  0  0  0  0
   68.5371   53.2466   22.3588 C   0  0  0  0  0  0  0  0  0  0  0  0
   68.2169   54.2817   21.7619 O   0  0  0  0  0  0  0  0  0  0  0  0
   69.7652   53.0878   22.9203 N   0  0  0  0  0  0  0  0  0  0  0  0
   71.3993   54.4091   21.5073 C   0  0  0  0  0  0  0  0  0  0  0  0
   71.0272   53.7428   20.5368 O   0  0  0  0  0  0  0  0  0  0  0  0
   72.3228   55.2263   21.4119 O   0  0  0  0  0  0  0  0  0  0  0  0
   70.3254   53.1291   20.6311 H   0  0  0  0  0  0  0  0  0  0  0  0
   67.1759   51.4931   21.0816 C   0  0  0  0  0  0  0  0  0  0  0  0
   67.5306   52.0907   22.4630 C   0  0  0  0  0  0  0  0  0  0  0  0
   66.2441   52.4717   23.2070 C   0  0  0  0  0  0  0  0  0  0  0  0
   66.3779   52.5925   24.9828 S   0  0  0  0  0  0  0  0  0  0  0  0
   66.6968   51.3746   25.4973 H   0  0  0  0  0  0  0  0  0  0  0  0
   72.6597   51.5509   22.7598 S   0  0  0  0  0  0  0  0  0  0  0  0
   71.9782   48.8825   22.2590 C   0  0  0  0  0  0  0  0  0  0  0  0
   72.4150   49.8124   23.2178 C   0  0  0  0  0  0  0  0  0  0  0  0
   72.6480   49.3762   24.5383 C   0  0  0  0  0  0  0  0  0  0  0  0
   72.4441   48.0183   24.9084 C   0  0  0  0  0  0  0  0  0  0  0  0
   72.0040   47.0856   23.9373 C   0  0  0  0  0  0  0  0  0  0  0  0
   71.7717   47.5168   22.6066 C   0  0  0  0  0  0  0  0  0  0  0  0
 18 19  2  0  0  0
 18 23  1  0  0  0
 19 20  1  0  0  0
 19 17  1  0  0  0
 20 21  2  0  0  0
 21 22  1  0  0  0
 22 23  2  0  0  0
  1  8  1  0  0  0
  1  2  1  0  0  0
  1  7  1  0  0  0
  8  9  1  0  0  0
  8 10  2  0  0  0
  2  3  1  0  0  0
  3  4  1  0  0  0
  3 17  1  0  0  0
  4  7  1  0  0  0
 12 13  1  0  0  0
 13  5  1  0  0  0
 13 14  1  0  0  0
  5  6  2  0  0  0
  5  7  1  0  0  0
 14 15  1  0  0  0
  9 11  1  0  0  0
 15 16  1  0  0  0
M  END
> <minimizedAffinity>
-6.12099

$$$$
2EWB_ZED_A_2000


 23 24  0  0  0  0  0  0  0  0999 V2000
   66.8932   51.2742   19.2712 C   0  0  0  0  0  0  0  0  0  0  0  0
   67.4774   49.8677   19.1094 C   0  0  0  0  0  0  0  0  0  0  0  0
   67.5972   49.3812   20.5479 C   0  0  0  0  0  0  0  0  0  0  0  0
   68.2106   50.5992   21.1873 C   0  0  0  0  0  0  0  0  0  0  0  0
   67.5422   53.0473   20.7968 C   0  0  0  0  0  0  0  0  0  0  0  0
   67.0933   53.8848   20.0049 O   0  0  0  0  0  0  0  0  0  0  0  0
   67.4650   51.7116   20.5553 N   0  0  0  0  0  0  0  0  0  0  0  0
   65.3531   51.3250   19.2128 C   0  0  0  0  0  0  0  0  0  0  0  0
   64.7619   50.7875   18.2715 O   0  0  0  0  0  0  0  0  0  0  0  0
   64.7360   51.9041   20.1148 O   0  0  0  0  0  0  0  0  0  0  0  0
   65.2490   50.3539   17.5986 H   0  0  0  0  0  0  0  0  0  0  0  0
   67.2059   54.2768   23.0182 C   0  0  0  0  0  0  0  0  0  0  0  0
   68.1961   53.5171   22.1051 C   0  0  0  0  0  0  0  0  0  0  0  0
   69.4526   54.3694   21.8835 C   0  0  0  0  0  0  0  0  0  0  0  0
   70.8824   53.5016   21.2603 S   0  0  0  0  0  0  0  0  0  0  0  0
   71.2815   52.5731   22.1704 H   0  0  0  0  0  0  0  0  0  0  0  0
   66.0673   48.8642   21.3948 S   0  0  0  0  0  0  0  0  0  0  0  0
   66.9758   46.5224   20.1593 C   0  0  0  0  0  0  0  0  0  0  0  0
   65.9035   47.1536   20.8123 C   0  0  0  0  0  0  0  0  0  0  0  0
   64.6997   46.4427   20.9963 C   0  0  0  0  0  0  0  0  0  0  0  0
   64.5587   45.1069   20.5293 C   0  0  0  0  0  0  0  0  0  0  0  0
   65.6434   44.4759   19.8720 C   0  0  0  0  0  0  0  0  0  0  0  0
   66.8581   45.1838   19.6873 C   0  0  0  0  0  0  0  0  0  0  0  0
 18 19  2  0  0  0
 18 23  1  0  0  0
 19 20  1  0  0  0
 19 17  1  0  0  0
 20 21  2  0  0  0
 21 22  1  0  0  0
 22 23  2  0  0  0
  1  8  1  0  0  0
  1  2  1  0  0  0
  1  7  1  0  0  0
  8  9  1  0  0  0
  8 10  2  0  0  0
  2  3  1  0  0  0
  3  4  1  0  0  0
  3 17  1  0  0  0
  4  7  1  0  0  0
 12 13  1  0  0  0
 13  5  1  0  0  0
 13 14  1  0  0  0
  5  6  2  0  0  0
  5  7  1  0  0  0
 14 15  1  0  0  0
  9 11  1  0  0  0
 15 16  1  0  0  0
M  END
> <minimizedAffinity>
-5.98949

$$$$
2EWB_ZED_A_2000


 23 24  0  0  0  0  0  0  0  0999 V2000
   66.0369   53.2310   20.3085 C   0  0  0  0  0  0  0  0  0  0  0  0
   67.2657   53.6679   21.1116 C   0  0  0  0  0  0  0  0  0  0  0  0
   67.7665   52.3582   21.7069 C   0  0  0  0  0  0  0  0  0  0  0  0
   66.4661   51.7777   22.1970 C   0  0  0  0  0  0  0  0  0  0  0  0
   64.2219   51.7519   20.9496 C   0  0  0  0  0  0  0  0  0  0  0  0
   63.4794   52.3227   20.1416 O   0  0  0  0  0  0  0  0  0  0  0  0
   65.5299   52.0939   21.0942 N   0  0  0  0  0  0  0  0  0  0  0  0
   66.3367   52.8987   18.8329 C   0  0  0  0  0  0  0  0  0  0  0  0
   65.8268   51.8987   18.3187 O   0  0  0  0  0  0  0  0  0  0  0  0
   67.0842   53.6444   18.1886 O   0  0  0  0  0  0  0  0  0  0  0  0
   65.2633   51.3473   18.8250 H   0  0  0  0  0  0  0  0  0  0  0  0
   63.9462   49.2178   21.1975 C   0  0  0  0  0  0  0  0  0  0  0  0
   63.6656   50.6088   21.8121 C   0  0  0  0  0  0  0  0  0  0  0  0
   62.1674   50.7487   22.1117 C   0  0  0  0  0  0  0  0  0  0  0  0
   61.1482   49.3565   21.6542 S   0  0  0  0  0  0  0  0  0  0  0  0
   61.1908   49.1874   20.3055 H   0  0  0  0  0  0  0  0  0  0  0  0
   68.6510   51.2107   20.5996 S   0  0  0  0  0  0  0  0  0  0  0  0
   70.8756   49.8160   21.5699 C   0  0  0  0  0  0  0  0  0  0  0  0
   70.2501   51.0682   21.4450 C   0  0  0  0  0  0  0  0  0  0  0  0
   70.8775   52.2050   21.9949 C   0  0  0  0  0  0  0  0  0  0  0  0
   72.1236   52.0989   22.6719 C   0  0  0  0  0  0  0  0  0  0  0  0
   72.7494   50.8340   22.7943 C   0  0  0  0  0  0  0  0  0  0  0  0
   72.1258   49.6874   22.2400 C   0  0  0  0  0  0  0  0  0  0  0  0
 18 19  2  0  0  0
 18 23  1  0  0  0
 19 20  1  0  0  0
 19 17  1  0  0  0
 20 21  2  0  0  0
 21 22  1  0  0  0
 22 23  2  0  0  0
  1  8  1  0  0  0
  1  2  1  0  0  0
  1  7  1  0  0  0
  8  9  1  0  0  0
  8 10  2  0  0  0
  2  3  1  0  0  0
  3  4  1  0  0  0
  3 17  1  0  0  0
  4  7  1  0  0  0
 12 13  1  0  0  0
 13  5  1  0  0  0
 13 14  1  0  0  0
  5  6  2  0  0  0
  5  7  1  0  0  0
 14 15  1  0  0  0
  9 11  1  0  0  0
 15 16  1  0  0  0
M  END
> <minimizedAffinity>
-5.84271

$$$$
2EWB_ZED_A_2000


 23 24  0  0  0  0  0  0  0  0999 V2000
   66.6063   51.5741   19.2268 C   0  0  0  0  0  0  0  0  0  0  0  0
   67.6146   52.5572   19.8291 C   0  0  0  0  0  0  0  0  0  0  0  0
   67.1734   52.6486   21.2842 C   0  0  0  0  0  0  0  0  0  0  0  0
   65.6867   52.8035   21.0991 C   0  0  0  0  0  0  0  0  0  0  0  0
   64.1920   51.5000   19.4684 C   0  0  0  0  0  0  0  0  0  0  0  0
   64.1069   50.9200   18.3791 O   0  0  0  0  0  0  0  0  0  0  0  0
   65.3902   51.8434   20.0115 N   0  0  0  0  0  0  0  0  0  0  0  0
   67.0682   50.1032   19.2577 C   0  0  0  0  0  0  0  0  0  0  0  0
   66.2829   49.2266   19.6309 O   0  0  0  0  0  0  0  0  0  0  0  0
   68.2212   49.8276   18.9047 O   0  0  0  0  0  0  0  0  0  0  0  0
   65.4138   49.4575   19.8941 H   0  0  0  0  0  0  0  0  0  0  0  0
   62.5076   50.7073   21.2271 C   0  0  0  0  0  0  0  0  0  0  0  0
   62.9123   51.8350   20.2495 C   0  0  0  0  0  0  0  0  0  0  0  0
   61.7237   52.1861   19.3451 C   0  0  0  0  0  0  0  0  0  0  0  0
   61.4330   53.9274   19.0818 S   0  0  0  0  0  0  0  0  0  0  0  0
   61.1203   54.5188   20.2658 H   0  0  0  0  0  0  0  0  0  0  0  0
   67.5819   51.2495   22.3800 S   0  0  0  0  0  0  0  0  0  0  0  0
   67.7346   52.5591   24.8493 C   0  0  0  0  0  0  0  0  0  0  0  0
   66.9175   51.8367   23.9631 C   0  0  0  0  0  0  0  0  0  0  0  0
   65.5823   51.5673   24.3277 C   0  0  0  0  0  0  0  0  0  0  0  0
   65.0589   52.0113   25.5732 C   0  0  0  0  0  0  0  0  0  0  0  0
   65.8873   52.7393   26.4623 C   0  0  0  0  0  0  0  0  0  0  0  0
   67.2298   53.0172   26.0999 C   0  0  0  0  0  0  0  0  0  0  0  0
 18 19  2  0  0  0
 18 23  1  0  0  0
 19 20  1  0  0  0
 19 17  1  0  0  0
 20 21  2  0  0  0
 21 22  1  0  0  0
 22 23  2  0  0  0
  1  8  1  0  0  0
  1  2  1  0  0  0
  1  7  1  0  0  0
  8  9  1  0  0  0
  8 10  2  0  0  0
  2  3  1  0  0  0
  3  4  1  0  0  0
  3 17  1  0  0  0
  4  7  1  0  0  0
 12 13  1  0  0  0
 13  5  1  0  0  0
 13 14  1  0  0  0
  5  6  2  0  0  0
  5  7  1  0  0  0
 14 15  1  0  0  0
  9 11  1  0  0  0
 15 16  1  0  0  0
M  END
> <minimizedAffinity>
-5.83492

$$$$
2EWB_ZED_A_2000


 23 24  0  0  0  0  0  0  0  0999 V2000
   67.5508   50.3545   21.0852 C   0  0  0  0  0  0  0  0  0  0  0  0
   66.0451   50.5584   21.2775 C   0  0  0  0  0  0  0  0  0  0  0  0
   65.8352   51.9963   20.8205 C   0  0  0  0  0  0  0  0  0  0  0  0
   66.9844   52.6670   21.5260 C   0  0  0  0  0  0  0  0  0  0  0  0
   69.3953   51.8033   21.7112 C   0  0  0  0  0  0  0  0  0  0  0  0
   70.1409   50.8181   21.7710 O   0  0  0  0  0  0  0  0  0  0  0  0
   68.0906   51.6997   21.3432 N   0  0  0  0  0  0  0  0  0  0  0  0
   67.9350   49.7699   19.7110 C   0  0  0  0  0  0  0  0  0  0  0  0
   67.5909   48.6201   19.4212 O   0  0  0  0  0  0  0  0  0  0  0  0
   68.5818   50.4674   18.9204 O   0  0  0  0  0  0  0  0  0  0  0  0
   67.1012   48.1089   20.0351 H   0  0  0  0  0  0  0  0  0  0  0  0
   71.1416   53.5869   21.1383 C   0  0  0  0  0  0  0  0  0  0  0  0
   69.9522   53.1953   22.0457 C   0  0  0  0  0  0  0  0  0  0  0  0
   70.3531   53.3506   23.5186 C   0  0  0  0  0  0  0  0  0  0  0  0
   69.0754   52.9999   24.7146 S   0  0  0  0  0  0  0  0  0  0  0  0
   68.0573   53.8890   24.5642 H   0  0  0  0  0  0  0  0  0  0  0  0
   65.8521   52.3234   19.0266 S   0  0  0  0  0  0  0  0  0  0  0  0
   63.1690   52.6261   19.7650 C   0  0  0  0  0  0  0  0  0  0  0  0
   64.0882   52.5983   18.7024 C   0  0  0  0  0  0  0  0  0  0  0  0
   63.6175   52.7755   17.3850 C   0  0  0  0  0  0  0  0  0  0  0  0
   62.2346   52.9765   17.1216 C   0  0  0  0  0  0  0  0  0  0  0  0
   61.3129   53.0038   18.1971 C   0  0  0  0  0  0  0  0  0  0  0  0
   61.7801   52.8304   19.5246 C   0  0  0  0  0  0  0  0  0  0  0  0
 18 19  2  0  0  0
 18 23  1  0  0  0
 19 20  1  0  0  0
 19 17  1  0  0  0
 20 21  2  0  0  0
 21 22  1  0  0  0
 22 23  2  0  0  0
  1  8  1  0  0  0
  1  2  1  0  0  0
  1  7  1  0  0  0
  8  9  1  0  0  0
  8 10  2  0  0  0
  2  3  1  0  0  0
  3  4  1  0  0  0
  3 17  1  0  0  0
  4  7  1  0  0  0
 12 13  1  0  0  0
 13  5  1  0  0  0
 13 14  1  0  0  0
  5  6  2  0  0  0
  5  7  1  0  0  0
 14 15  1  0  0  0
  9 11  1  0  0  0
 15 16  1  0  0  0
M  END
> <minimizedAffinity>
-5.81558

$$$$
2EWB_ZED_A_2000


 23 24  0  0  0  0  0  0  0  0999 V2000
   65.6714   52.5156   20.2145 C   0  0  0  0  0  0  0  0  0  0  0  0
   66.3611   53.3602   21.2899 C   0  0  0  0  0  0  0  0  0  0  0  0
   66.6664   52.3406   22.3797 C   0  0  0  0  0  0  0  0  0  0  0  0
   65.3474   51.6160   22.4390 C   0  0  0  0  0  0  0  0  0  0  0  0
   63.9147   50.8565   20.4481 C   0  0  0  0  0  0  0  0  0  0  0  0
   63.5616   51.0751   19.2830 O   0  0  0  0  0  0  0  0  0  0  0  0
   64.9790   51.4887   21.0104 N   0  0  0  0  0  0  0  0  0  0  0  0
   66.6315   51.9507   19.1481 C   0  0  0  0  0  0  0  0  0  0  0  0
   66.4741   50.7969   18.7378 O   0  0  0  0  0  0  0  0  0  0  0  0
   67.5440   52.6679   18.7205 O   0  0  0  0  0  0  0  0  0  0  0  0
   65.7762   50.2707   19.0754 H   0  0  0  0  0  0  0  0  0  0  0  0
   63.5036   48.3729   20.9185 C   0  0  0  0  0  0  0  0  0  0  0  0
   63.1446   49.8298   21.2924 C   0  0  0  0  0  0  0  0  0  0  0  0
   61.6229   50.0176   21.2368 C   0  0  0  0  0  0  0  0  0  0  0  0
   60.6555   48.5196   21.1591 S   0  0  0  0  0  0  0  0  0  0  0  0
   60.9388   47.8564   20.0060 H   0  0  0  0  0  0  0  0  0  0  0  0
   68.0600   51.1981   22.1010 S   0  0  0  0  0  0  0  0  0  0  0  0
   69.9240   52.6892   23.5631 C   0  0  0  0  0  0  0  0  0  0  0  0
   69.4755   52.3183   22.2840 C   0  0  0  0  0  0  0  0  0  0  0  0
   70.1337   52.8377   21.1502 C   0  0  0  0  0  0  0  0  0  0  0  0
   71.2344   53.7279   21.2855 C   0  0  0  0  0  0  0  0  0  0  0  0
   71.6820   54.0979   22.5776 C   0  0  0  0  0  0  0  0  0  0  0  0
   71.0272   53.5759   23.7219 C   0  0  0  0  0  0  0  0  0  0  0  0
 18 19  2  0  0  0
 18 23  1  0  0  0
 19 20  1  0  0  0
 19 17  1  0  0  0
 20 21  2  0  0  0
 21 22  1  0  0  0
 22 23  2  0  0  0
  1  8  1  0  0  0
  1  2  1  0  0  0
  1  7  1  0  0  0
  8  9  1  0  0  0
  8 10  2  0  0  0
  2  3  1  0  0  0
  3  4  1  0  0  0
  3 17  1  0  0  0
  4  7  1  0  0  0
 12 13  1  0  0  0
 13  5  1  0  0  0
 13 14  1  0  0  0
  5  6  2  0  0  0
  5  7  1  0  0  0
 14 15  1  0  0  0
  9 11  1  0  0  0
 15 16  1  0  0  0
M  END
> <minimizedAffinity>
-5.78462

$$$$
2EWB_ZED_A_2000


 23 24  0  0  0  0  0  0  0  0999 V2000
   68.3055   51.6006   19.3415 C   0  0  0  0  0  0  0  0  0  0  0  0
   67.8455   50.1934   18.9491 C   0  0  0  0  0  0  0  0  0  0  0  0
   67.5316   49.5504   20.2939 C   0  0  0  0  0  0  0  0  0  0  0  0
   68.7478   49.9707   21.0767 C   0  0  0  0  0  0  0  0  0  0  0  0
   69.8542   52.2877   21.0800 C   0  0  0  0  0  0  0  0  0  0  0  0
   70.1065   53.3160   20.4404 O   0  0  0  0  0  0  0  0  0  0  0  0
   68.9436   51.3748   20.6489 N   0  0  0  0  0  0  0  0  0  0  0  0
   67.1744   52.6485   19.3605 C   0  0  0  0  0  0  0  0  0  0  0  0
   67.2036   53.5602   20.1926 O   0  0  0  0  0  0  0  0  0  0  0  0
   66.2559   52.5568   18.5372 O   0  0  0  0  0  0  0  0  0  0  0  0
   67.9089   53.6110   20.8074 H   0  0  0  0  0  0  0  0  0  0  0  0
   69.7126   52.4269   23.6333 C   0  0  0  0  0  0  0  0  0  0  0  0
   70.5741   52.0294   22.4122 C   0  0  0  0  0  0  0  0  0  0  0  0
   71.9454   52.7116   22.5033 C   0  0  0  0  0  0  0  0  0  0  0  0
   72.0425   54.1228   23.5917 S   0  0  0  0  0  0  0  0  0  0  0  0
   71.2248   55.1073   23.1317 H   0  0  0  0  0  0  0  0  0  0  0  0
   65.9837   50.0408   21.1237 S   0  0  0  0  0  0  0  0  0  0  0  0
   65.6588   47.2693   20.9018 C   0  0  0  0  0  0  0  0  0  0  0  0
   65.0125   48.5142   20.9875 C   0  0  0  0  0  0  0  0  0  0  0  0
   63.6035   48.5580   20.9546 C   0  0  0  0  0  0  0  0  0  0  0  0
   62.8358   47.3671   20.8329 C   0  0  0  0  0  0  0  0  0  0  0  0
   63.4931   46.1152   20.7472 C   0  0  0  0  0  0  0  0  0  0  0  0
   64.9096   46.0637   20.7839 C   0  0  0  0  0  0  0  0  0  0  0  0
 18 19  2  0  0  0
 18 23  1  0  0  0
 19 20  1  0  0  0
 19 17  1  0  0  0
 20 21  2  0  0  0
 21 22  1  0  0  0
 22 23  2  0  0  0
  1  8  1  0  0  0
  1  2  1  0  0  0
  1  7  1  0  0  0
  8  9  1  0  0  0
  8 10  2  0  0  0
  2  3  1  0  0  0
  3  4  1  0  0  0
  3 17  1  0  0  0
  4  7  1  0  0  0
 12 13  1  0  0  0
 13  5  1  0  0  0
 13 14  1  0  0  0
  5  6  2  0  0  0
  5  7  1  0  0  0
 14 15  1  0  0  0
  9 11  1  0  0  0
 15 16  1  0  0  0
M  END
> <minimizedAffinity>
-5.73553

$$$$
2EWB_ZED_A_2000


 23 24  0  0  0  0  0  0  0  0999 V2000
   67.4392   53.1852   21.5669 C   0  0  0  0  0  0  0  0  0  0  0  0
   66.8063   53.5179   20.2124 C   0  0  0  0  0  0  0  0  0  0  0  0
   67.1096   52.2780   19.3811 C   0  0  0  0  0  0  0  0  0  0  0  0
   68.5608   52.0758   19.7299 C   0  0  0  0  0  0  0  0  0  0  0  0
   69.6255   52.2523   22.0597 C   0  0  0  0  0  0  0  0  0  0  0  0
   69.5968   52.7892   23.1737 O   0  0  0  0  0  0  0  0  0  0  0  0
   68.5891   52.3489   21.1850 N   0  0  0  0  0  0  0  0  0  0  0  0
   66.4722   52.5162   22.5645 C   0  0  0  0  0  0  0  0  0  0  0  0
   66.7329   51.3923   23.0040 O   0  0  0  0  0  0  0  0  0  0  0  0
   65.4499   53.1216   22.9087 O   0  0  0  0  0  0  0  0  0  0  0  0
   67.5129   50.9514   22.7299 H   0  0  0  0  0  0  0  0  0  0  0  0
   70.6166   49.9114   21.7482 C   0  0  0  0  0  0  0  0  0  0  0  0
   70.8585   51.4352   21.6449 C   0  0  0  0  0  0  0  0  0  0  0  0
   72.1257   51.8112   22.4239 C   0  0  0  0  0  0  0  0  0  0  0  0
   72.8255   50.5226   23.4415 S   0  0  0  0  0  0  0  0  0  0  0  0
   71.9395   50.1829   24.4158 H   0  0  0  0  0  0  0  0  0  0  0  0
   66.1167   50.7825   19.7019 S   0  0  0  0  0  0  0  0  0  0  0  0
   63.5025   51.4137   20.4786 C   0  0  0  0  0  0  0  0  0  0  0  0
   64.4364   51.4103   19.4286 C   0  0  0  0  0  0  0  0  0  0  0  0
   64.0444   51.8903   18.1619 C   0  0  0  0  0  0  0  0  0  0  0  0
   62.7249   52.3700   17.9361 C   0  0  0  0  0  0  0  0  0  0  0  0
   61.7880   52.3711   18.9987 C   0  0  0  0  0  0  0  0  0  0  0  0
   62.1769   51.8936   20.2760 C   0  0  0  0  0  0  0  0  0  0  0  0
 18 19  2  0  0  0
 18 23  1  0  0  0
 19 20  1  0  0  0
 19 17  1  0  0  0
 20 21  2  0  0  0
 21 22  1  0  0  0
 22 23  2  0  0  0
  1  8  1  0  0  0
  1  2  1  0  0  0
  1  7  1  0  0  0
  8  9  1  0  0  0
  8 10  2  0  0  0
  2  3  1  0  0  0
  3  4  1  0  0  0
  3 17  1  0  0  0
  4  7  1  0  0  0
 12 13  1  0  0  0
 13  5  1  0  0  0
 13 14  1  0  0  0
  5  6  2  0  0  0
  5  7  1  0  0  0
 14 15  1  0  0  0
  9 11  1  0  0  0
 15 16  1  0  0  0
M  END
> <minimizedAffinity>
-5.62686

$$$$
