1U0G_E4P_A_901


 16 15  0  0  0  0  0  0  0  0999 V2000
    6.7874    4.3970    0.4857 C   0  0  0  0  0  0  0  0  0  0  0  0
    6.0425    3.2175    0.7399 O   0  0  0  0  0  0  0  0  0  0  0  0
    5.3116    3.1536    0.1053 H   0  0  0  0  0  0  0  0  0  0  0  0
    7.3545    4.3262   -0.9251 C   0  0  0  0  0  0  0  0  0  0  0  0
    8.2070    5.4155   -1.2045 O   0  0  0  0  0  0  0  0  0  0  0  0
    8.9571    5.4050   -0.5896 H   0  0  0  0  0  0  0  0  0  0  0  0
    8.2323    3.1243   -1.0433 C   0  0  0  0  0  0  0  0  0  0  0  0
    9.0505    2.8448    0.0863 O   0  0  0  0  0  0  0  0  0  0  0  0
    5.8485    5.5956    0.6472 C   0  0  0  0  0  0  0  0  0  0  0  0
    5.0851    5.7874   -0.5421 O   0  0  0  0  0  0  0  0  0  0  0  0
    4.9811    7.1864   -1.1245 P   0  0  0  0  0  0  0  0  0  0  0  0
    4.9013    8.1746    0.0044 O   0  0  0  0  0  0  0  0  0  0  0  0
    6.1901    7.4796   -1.9596 O   0  0  0  0  0  0  0  0  0  0  0  0
    3.7168    7.2509   -1.9384 O   0  0  0  0  0  0  0  0  0  0  0  0
    6.9851    7.4298   -1.4062 H   0  0  0  0  0  0  0  0  0  0  0  0
    2.9557    7.0568   -1.3693 H   0  0  0  0  0  0  0  0  0  0  0  0
  7  8  2  0  0  0
  7  4  1  0  0  0
  4  5  1  0  0  0
  4  1  1  0  0  0
  1  2  1  0  0  0
  1  9  1  0  0  0
  9 10  1  0  0  0
 10 11  1  0  0  0
 11 12  2  0  0  0
 11 13  1  0  0  0
 11 14  1  0  0  0
  5  6  1  0  0  0
  2  3  1  0  0  0
 13 15  1  0  0  0
 14 16  1  0  0  0
M  END
> <minimizedAffinity>
-7.03086

$$$$
1U0G_E4P_A_901


 16 15  0  0  0  0  0  0  0  0999 V2000
    7.4720    4.6430   -0.8225 C   0  0  0  0  0  0  0  0  0  0  0  0
    8.0029    5.9220   -0.5172 O   0  0  0  0  0  0  0  0  0  0  0  0
    7.4067    6.3821    0.0941 H   0  0  0  0  0  0  0  0  0  0  0  0
    7.3566    3.8384    0.4644 C   0  0  0  0  0  0  0  0  0  0  0  0
    6.0109    3.6130    0.8248 O   0  0  0  0  0  0  0  0  0  0  0  0
    5.5694    3.1062    0.1254 H   0  0  0  0  0  0  0  0  0  0  0  0
    7.9185    2.4729    0.2435 C   0  0  0  0  0  0  0  0  0  0  0  0
    9.2404    2.4272   -0.2797 O   0  0  0  0  0  0  0  0  0  0  0  0
    6.1027    4.8415   -1.4780 C   0  0  0  0  0  0  0  0  0  0  0  0
    5.3127    5.7435   -0.7057 O   0  0  0  0  0  0  0  0  0  0  0  0
    5.0433    7.1331   -1.2569 P   0  0  0  0  0  0  0  0  0  0  0  0
    4.9293    8.0944   -0.1078 O   0  0  0  0  0  0  0  0  0  0  0  0
    6.1720    7.5529   -2.1484 O   0  0  0  0  0  0  0  0  0  0  0  0
    3.7370    7.0848   -2.0025 O   0  0  0  0  0  0  0  0  0  0  0  0
    6.9966    7.5736   -1.6381 H   0  0  0  0  0  0  0  0  0  0  0  0
    3.0296    6.8104   -1.3981 H   0  0  0  0  0  0  0  0  0  0  0  0
  7  8  2  0  0  0
  7  4  1  0  0  0
  4  5  1  0  0  0
  4  1  1  0  0  0
  1  2  1  0  0  0
  1  9  1  0  0  0
  9 10  1  0  0  0
 10 11  1  0  0  0
 11 12  2  0  0  0
 11 13  1  0  0  0
 11 14  1  0  0  0
  5  6  1  0  0  0
  2  3  1  0  0  0
 13 15  1  0  0  0
 14 16  1  0  0  0
M  END
> <minimizedAffinity>
-6.99259

$$$$
1U0G_E4P_A_901


 16 15  0  0  0  0  0  0  0  0999 V2000
    7.9407    5.1478   -1.6435 C   0  0  0  0  0  0  0  0  0  0  0  0
    8.0419    5.9433   -0.4741 O   0  0  0  0  0  0  0  0  0  0  0  0
    7.2618    5.7986    0.0839 H   0  0  0  0  0  0  0  0  0  0  0  0
    7.8808    3.6820   -1.2377 C   0  0  0  0  0  0  0  0  0  0  0  0
    9.1485    3.0656   -1.3047 O   0  0  0  0  0  0  0  0  0  0  0  0
    9.7572    3.5107   -0.6945 H   0  0  0  0  0  0  0  0  0  0  0  0
    7.4932    3.5847    0.2009 C   0  0  0  0  0  0  0  0  0  0  0  0
    6.0952    3.5596    0.4625 O   0  0  0  0  0  0  0  0  0  0  0  0
    6.6748    5.5679   -2.3954 C   0  0  0  0  0  0  0  0  0  0  0  0
    6.3314    6.9132   -2.0692 O   0  0  0  0  0  0  0  0  0  0  0  0
    5.1566    7.1611   -1.1389 P   0  0  0  0  0  0  0  0  0  0  0  0
    3.9288    7.4110   -1.9679 O   0  0  0  0  0  0  0  0  0  0  0  0
    4.9358    5.9610   -0.2694 O   0  0  0  0  0  0  0  0  0  0  0  0
    5.4692    8.3864   -0.3228 O   0  0  0  0  0  0  0  0  0  0  0  0
    4.7372    5.1912   -0.8252 H   0  0  0  0  0  0  0  0  0  0  0  0
    5.6062    9.1427   -0.9146 H   0  0  0  0  0  0  0  0  0  0  0  0
  7  8  2  0  0  0
  7  4  1  0  0  0
  4  5  1  0  0  0
  4  1  1  0  0  0
  1  2  1  0  0  0
  1  9  1  0  0  0
  9 10  1  0  0  0
 10 11  1  0  0  0
 11 12  2  0  0  0
 11 13  1  0  0  0
 11 14  1  0  0  0
  5  6  1  0  0  0
  2  3  1  0  0  0
 13 15  1  0  0  0
 14 16  1  0  0  0
M  END
> <minimizedAffinity>
-6.73231

$$$$
1U0G_E4P_A_901


 16 15  0  0  0  0  0  0  0  0999 V2000
    6.7471    5.5905   -0.6695 C   0  0  0  0  0  0  0  0  0  0  0  0
    8.0225    6.1855   -0.8429 O   0  0  0  0  0  0  0  0  0  0  0  0
    8.3791    5.9388   -1.7106 H   0  0  0  0  0  0  0  0  0  0  0  0
    5.8138    6.1018   -1.7578 C   0  0  0  0  0  0  0  0  0  0  0  0
    4.8180    5.1564   -2.0835 O   0  0  0  0  0  0  0  0  0  0  0  0
    4.2767    4.9738   -1.2995 H   0  0  0  0  0  0  0  0  0  0  0  0
    5.0561    7.2808   -1.2429 C   0  0  0  0  0  0  0  0  0  0  0  0
    3.8003    7.5261   -1.8643 O   0  0  0  0  0  0  0  0  0  0  0  0
    6.9168    4.0711   -0.7523 C   0  0  0  0  0  0  0  0  0  0  0  0
    8.1251    3.7467   -1.4372 O   0  0  0  0  0  0  0  0  0  0  0  0
    8.7365    2.3723   -1.2269 P   0  0  0  0  0  0  0  0  0  0  0  0
    8.1780    1.4327   -2.2577 O   0  0  0  0  0  0  0  0  0  0  0  0
   10.2251    2.4505   -1.3776 O   0  0  0  0  0  0  0  0  0  0  0  0
    8.3429    1.9013    0.1473 O   0  0  0  0  0  0  0  0  0  0  0  0
   10.4439    2.7563   -2.2718 H   0  0  0  0  0  0  0  0  0  0  0  0
    7.3758    1.8621    0.2110 H   0  0  0  0  0  0  0  0  0  0  0  0
  7  8  2  0  0  0
  7  4  1  0  0  0
  4  5  1  0  0  0
  4  1  1  0  0  0
  1  2  1  0  0  0
  1  9  1  0  0  0
  9 10  1  0  0  0
 10 11  1  0  0  0
 11 12  2  0  0  0
 11 13  1  0  0  0
 11 14  1  0  0  0
  5  6  1  0  0  0
  2  3  1  0  0  0
 13 15  1  0  0  0
 14 16  1  0  0  0
M  END
> <minimizedAffinity>
-6.62079

$$$$
1U0G_E4P_A_901


 16 15  0  0  0  0  0  0  0  0999 V2000
    6.9334    4.1020   -0.0562 C   0  0  0  0  0  0  0  0  0  0  0  0
    6.1385    3.1508    0.6324 O   0  0  0  0  0  0  0  0  0  0  0  0
    5.8052    2.4920    0.0034 H   0  0  0  0  0  0  0  0  0  0  0  0
    8.1112    3.3847   -0.7004 C   0  0  0  0  0  0  0  0  0  0  0  0
    8.7543    2.5127    0.2038 O   0  0  0  0  0  0  0  0  0  0  0  0
    8.1278    1.8337    0.4993 H   0  0  0  0  0  0  0  0  0  0  0  0
    7.6097    2.4927   -1.7876 C   0  0  0  0  0  0  0  0  0  0  0  0
    7.0326    1.2646   -1.3608 O   0  0  0  0  0  0  0  0  0  0  0  0
    6.0542    4.7823   -1.1090 C   0  0  0  0  0  0  0  0  0  0  0  0
    5.2121    5.7552   -0.4938 O   0  0  0  0  0  0  0  0  0  0  0  0
    5.0750    7.1193   -1.1476 P   0  0  0  0  0  0  0  0  0  0  0  0
    4.9948    8.1646   -0.0713 O   0  0  0  0  0  0  0  0  0  0  0  0
    6.2660    7.3879   -2.0160 O   0  0  0  0  0  0  0  0  0  0  0  0
    3.7978    7.1195   -1.9437 O   0  0  0  0  0  0  0  0  0  0  0  0
    7.0700    7.3809   -1.4734 H   0  0  0  0  0  0  0  0  0  0  0  0
    3.0487    6.9432   -1.3532 H   0  0  0  0  0  0  0  0  0  0  0  0
  7  8  2  0  0  0
  7  4  1  0  0  0
  4  5  1  0  0  0
  4  1  1  0  0  0
  1  2  1  0  0  0
  1  9  1  0  0  0
  9 10  1  0  0  0
 10 11  1  0  0  0
 11 12  2  0  0  0
 11 13  1  0  0  0
 11 14  1  0  0  0
  5  6  1  0  0  0
  2  3  1  0  0  0
 13 15  1  0  0  0
 14 16  1  0  0  0
M  END
> <minimizedAffinity>
-6.43992

$$$$
1U0G_E4P_A_901


 16 15  0  0  0  0  0  0  0  0999 V2000
    5.6475    5.7670   -0.5378 C   0  0  0  0  0  0  0  0  0  0  0  0
    5.1345    5.6402    0.7781 O   0  0  0  0  0  0  0  0  0  0  0  0
    5.6450    6.2042    1.3798 H   0  0  0  0  0  0  0  0  0  0  0  0
    5.5157    7.2177   -0.9794 C   0  0  0  0  0  0  0  0  0  0  0  0
    4.2126    7.5130   -1.4333 O   0  0  0  0  0  0  0  0  0  0  0  0
    3.5791    7.3706   -0.7126 H   0  0  0  0  0  0  0  0  0  0  0  0
    5.7123    8.1114    0.2004 C   0  0  0  0  0  0  0  0  0  0  0  0
    4.5298    8.6881    0.7410 O   0  0  0  0  0  0  0  0  0  0  0  0
    7.1125    5.3225   -0.5212 C   0  0  0  0  0  0  0  0  0  0  0  0
    7.2370    4.0146   -1.0763 O   0  0  0  0  0  0  0  0  0  0  0  0
    7.4864    2.8453   -0.1396 P   0  0  0  0  0  0  0  0  0  0  0  0
    7.3289    1.5661   -0.9118 O   0  0  0  0  0  0  0  0  0  0  0  0
    8.8764    2.9259    0.4140 O   0  0  0  0  0  0  0  0  0  0  0  0
    6.4514    2.9036    0.9515 O   0  0  0  0  0  0  0  0  0  0  0  0
    9.5169    2.8857   -0.3134 H   0  0  0  0  0  0  0  0  0  0  0  0
    5.5656    2.8492    0.5601 H   0  0  0  0  0  0  0  0  0  0  0  0
  7  8  2  0  0  0
  7  4  1  0  0  0
  4  5  1  0  0  0
  4  1  1  0  0  0
  1  2  1  0  0  0
  1  9  1  0  0  0
  9 10  1  0  0  0
 10 11  1  0  0  0
 11 12  2  0  0  0
 11 13  1  0  0  0
 11 14  1  0  0  0
  5  6  1  0  0  0
  2  3  1  0  0  0
 13 15  1  0  0  0
 14 16  1  0  0  0
M  END
> <minimizedAffinity>
-6.43695

$$$$
1U0G_E4P_A_901


 16 15  0  0  0  0  0  0  0  0999 V2000
    6.2588    3.3966   -1.5377 C   0  0  0  0  0  0  0  0  0  0  0  0
    7.2223    2.9156   -2.4603 O   0  0  0  0  0  0  0  0  0  0  0  0
    7.9095    3.5878   -2.5900 H   0  0  0  0  0  0  0  0  0  0  0  0
    6.9460    3.6727   -0.2080 C   0  0  0  0  0  0  0  0  0  0  0  0
    6.0181    3.7934    0.8485 O   0  0  0  0  0  0  0  0  0  0  0  0
    5.5263    2.9627    0.9433 H   0  0  0  0  0  0  0  0  0  0  0  0
    7.7870    2.4969    0.1653 C   0  0  0  0  0  0  0  0  0  0  0  0
    9.1279    2.5224   -0.3088 O   0  0  0  0  0  0  0  0  0  0  0  0
    5.6404    4.6712   -2.1184 C   0  0  0  0  0  0  0  0  0  0  0  0
    5.1282    5.4921   -1.0705 O   0  0  0  0  0  0  0  0  0  0  0  0
    5.0688    6.9948   -1.2839 P   0  0  0  0  0  0  0  0  0  0  0  0
    6.2486    7.4113   -2.1156 O   0  0  0  0  0  0  0  0  0  0  0  0
    3.8023    7.3562   -1.9983 O   0  0  0  0  0  0  0  0  0  0  0  0
    5.1497    7.6528    0.0672 O   0  0  0  0  0  0  0  0  0  0  0  0
    3.7821    6.9169   -2.8628 H   0  0  0  0  0  0  0  0  0  0  0  0
    5.9790    7.3987    0.5015 H   0  0  0  0  0  0  0  0  0  0  0  0
  7  8  2  0  0  0
  7  4  1  0  0  0
  4  5  1  0  0  0
  4  1  1  0  0  0
  1  2  1  0  0  0
  1  9  1  0  0  0
  9 10  1  0  0  0
 10 11  1  0  0  0
 11 12  2  0  0  0
 11 13  1  0  0  0
 11 14  1  0  0  0
  5  6  1  0  0  0
  2  3  1  0  0  0
 13 15  1  0  0  0
 14 16  1  0  0  0
M  END
> <minimizedAffinity>
-6.41428

$$$$
1U0G_E4P_A_901


 16 15  0  0  0  0  0  0  0  0999 V2000
    6.2783    5.0006   -2.0382 C   0  0  0  0  0  0  0  0  0  0  0  0
    4.9713    4.5050   -1.7998 O   0  0  0  0  0  0  0  0  0  0  0  0
    5.0205    3.7298   -1.2187 H   0  0  0  0  0  0  0  0  0  0  0  0
    6.8992    5.4095   -0.7101 C   0  0  0  0  0  0  0  0  0  0  0  0
    8.0717    6.1738   -0.8909 O   0  0  0  0  0  0  0  0  0  0  0  0
    7.8562    6.9875   -1.3729 H   0  0  0  0  0  0  0  0  0  0  0  0
    5.9641    6.3239    0.0100 C   0  0  0  0  0  0  0  0  0  0  0  0
    5.1367    5.7114    0.9917 O   0  0  0  0  0  0  0  0  0  0  0  0
    7.0906    3.8921   -2.7131 C   0  0  0  0  0  0  0  0  0  0  0  0
    8.2905    3.6458   -1.9825 O   0  0  0  0  0  0  0  0  0  0  0  0
    8.5792    2.2316   -1.5092 P   0  0  0  0  0  0  0  0  0  0  0  0
    9.3740    1.5211   -2.5679 O   0  0  0  0  0  0  0  0  0  0  0  0
    9.3688    2.2736   -0.2366 O   0  0  0  0  0  0  0  0  0  0  0  0
    7.2593    1.5338   -1.3194 O   0  0  0  0  0  0  0  0  0  0  0  0
   10.2110    2.7286   -0.3935 H   0  0  0  0  0  0  0  0  0  0  0  0
    6.7749    1.5241   -2.1597 H   0  0  0  0  0  0  0  0  0  0  0  0
  7  8  2  0  0  0
  7  4  1  0  0  0
  4  5  1  0  0  0
  4  1  1  0  0  0
  1  2  1  0  0  0
  1  9  1  0  0  0
  9 10  1  0  0  0
 10 11  1  0  0  0
 11 12  2  0  0  0
 11 13  1  0  0  0
 11 14  1  0  0  0
  5  6  1  0  0  0
  2  3  1  0  0  0
 13 15  1  0  0  0
 14 16  1  0  0  0
M  END
> <minimizedAffinity>
-6.28805

$$$$
1U0G_E4P_A_901


 16 15  0  0  0  0  0  0  0  0999 V2000
    7.0209    5.1486   -0.9479 C   0  0  0  0  0  0  0  0  0  0  0  0
    7.9233    6.2302   -0.7846 O   0  0  0  0  0  0  0  0  0  0  0  0
    8.3056    6.4649   -1.6446 H   0  0  0  0  0  0  0  0  0  0  0  0
    5.9057    5.5765   -1.8912 C   0  0  0  0  0  0  0  0  0  0  0  0
    4.8396    4.6519   -1.8989 O   0  0  0  0  0  0  0  0  0  0  0  0
    4.4588    4.5901   -1.0089 H   0  0  0  0  0  0  0  0  0  0  0  0
    5.2971    6.8449   -1.3911 C   0  0  0  0  0  0  0  0  0  0  0  0
    4.0438    7.1958   -1.9652 O   0  0  0  0  0  0  0  0  0  0  0  0
    7.8021    3.9600   -1.5146 C   0  0  0  0  0  0  0  0  0  0  0  0
    7.1906    3.4965   -2.7168 O   0  0  0  0  0  0  0  0  0  0  0  0
    7.0143    2.0011   -2.9160 P   0  0  0  0  0  0  0  0  0  0  0  0
    7.6084    1.2837   -1.7371 O   0  0  0  0  0  0  0  0  0  0  0  0
    5.5564    1.6711   -3.0179 O   0  0  0  0  0  0  0  0  0  0  0  0
    7.7583    1.6146   -4.1659 O   0  0  0  0  0  0  0  0  0  0  0  0
    5.1078    1.9322   -2.1984 H   0  0  0  0  0  0  0  0  0  0  0  0
    8.6963    1.8411   -4.0669 H   0  0  0  0  0  0  0  0  0  0  0  0
  7  8  2  0  0  0
  7  4  1  0  0  0
  4  5  1  0  0  0
  4  1  1  0  0  0
  1  2  1  0  0  0
  1  9  1  0  0  0
  9 10  1  0  0  0
 10 11  1  0  0  0
 11 12  2  0  0  0
 11 13  1  0  0  0
 11 14  1  0  0  0
  5  6  1  0  0  0
  2  3  1  0  0  0
 13 15  1  0  0  0
 14 16  1  0  0  0
M  END
> <minimizedAffinity>
-6.26544

$$$$
1U0G_E4P_A_901


 16 15  0  0  0  0  0  0  0  0999 V2000
    6.2802    3.5949   -2.1466 C   0  0  0  0  0  0  0  0  0  0  0  0
    5.5560    3.1520   -1.0108 O   0  0  0  0  0  0  0  0  0  0  0  0
    4.6866    2.8241   -1.2893 H   0  0  0  0  0  0  0  0  0  0  0  0
    6.4693    2.4216   -3.0975 C   0  0  0  0  0  0  0  0  0  0  0  0
    5.4378    1.4674   -2.9672 O   0  0  0  0  0  0  0  0  0  0  0  0
    4.5866    1.8801   -3.1816 H   0  0  0  0  0  0  0  0  0  0  0  0
    6.3555    2.9054   -4.5054 C   0  0  0  0  0  0  0  0  0  0  0  0
    7.1135    2.1836   -5.4687 O   0  0  0  0  0  0  0  0  0  0  0  0
    5.4833    4.7227   -2.8078 C   0  0  0  0  0  0  0  0  0  0  0  0
    5.9658    5.9907   -2.3678 O   0  0  0  0  0  0  0  0  0  0  0  0
    5.1065    6.8093   -1.4199 P   0  0  0  0  0  0  0  0  0  0  0  0
    3.8197    7.1571   -2.1133 O   0  0  0  0  0  0  0  0  0  0  0  0
    4.8090    6.0113   -0.1872 O   0  0  0  0  0  0  0  0  0  0  0  0
    5.8584    8.0717   -1.0945 O   0  0  0  0  0  0  0  0  0  0  0  0
    4.3253    5.2069   -0.4316 H   0  0  0  0  0  0  0  0  0  0  0  0
    6.0344    8.5631   -1.9121 H   0  0  0  0  0  0  0  0  0  0  0  0
  7  8  2  0  0  0
  7  4  1  0  0  0
  4  5  1  0  0  0
  4  1  1  0  0  0
  1  2  1  0  0  0
  1  9  1  0  0  0
  9 10  1  0  0  0
 10 11  1  0  0  0
 11 12  2  0  0  0
 11 13  1  0  0  0
 11 14  1  0  0  0
  5  6  1  0  0  0
  2  3  1  0  0  0
 13 15  1  0  0  0
 14 16  1  0  0  0
M  END
> <minimizedAffinity>
-5.86388

$$$$
