3JRX_S1A_A_1000


 39 41  0  0  0  0  0  0  0  0999 V2000
  -44.2701   25.2276  -15.9862 C   0  0  0  0  0  0  0  0  0  0  0  0
  -43.0789   25.4656  -16.9350 C   0  0  0  0  0  0  0  0  0  0  0  0
  -43.0498   24.3915  -18.0865 C   0  0  0  0  0  0  0  0  0  0  0  0
  -41.8077   24.5998  -19.0776 C   0  0  0  0  0  0  0  0  0  0  0  0
  -41.9827   23.7796  -20.4297 C   0  0  0  0  0  0  0  0  0  0  0  0
  -43.4258   23.8900  -21.0157 C   0  0  0  0  0  0  0  0  0  0  0  0
  -44.5048   23.5796  -19.9027 C   0  0  0  0  0  0  0  0  0  0  0  0
  -45.9598   23.7347  -20.4544 C   0  0  0  0  0  0  0  0  0  0  0  0
  -46.9997   23.4140  -19.3026 C   0  0  0  0  0  0  0  0  0  0  0  0
  -47.3104   22.1033  -18.9212 C   0  0  0  0  0  0  0  0  0  0  0  0
  -48.3413   21.8127  -17.7861 C   0  0  0  0  0  0  0  0  0  0  0  0
  -47.9632   20.5120  -17.0012 C   0  0  0  0  0  0  0  0  0  0  0  0
  -46.5735   20.6350  -16.3222 C   0  0  0  0  0  0  0  0  0  0  0  0
  -46.4479   21.7488  -15.2927 C   0  0  0  0  0  0  0  0  0  0  0  0
  -45.1494   21.6133  -14.5446 C   0  0  0  0  0  0  0  0  0  0  0  0
  -44.9438   22.6747  -13.4817 C   0  0  0  0  0  0  0  0  0  0  0  0
  -45.0179   24.1454  -13.9280 C   0  0  0  0  0  0  0  0  0  0  0  0
  -41.7721   25.4765  -16.1177 C   0  0  0  0  0  0  0  0  0  0  0  0
  -43.6126   25.2844  -21.6694 C   0  0  0  0  0  0  0  0  0  0  0  0
  -46.2276   22.8064  -21.6551 C   0  0  0  0  0  0  0  0  0  0  0  0
  -45.4378   25.6837  -16.0661 O   0  0  0  0  0  0  0  0  0  0  0  0
  -42.9411   23.0717  -17.4961 O   0  0  0  0  0  0  0  0  0  0  0  0
  -41.6808   22.4042  -20.1832 O   0  0  0  0  0  0  0  0  0  0  0  0
  -44.3312   24.4845  -18.7730 O   0  0  0  0  0  0  0  0  0  0  0  0
  -43.9648   24.4219  -14.9222 O   0  0  0  0  0  0  0  0  0  0  0  0
  -42.0918   22.9931  -17.0342 H   0  0  0  0  0  0  0  0  0  0  0  0
  -42.3022   22.0492  -19.5283 H   0  0  0  0  0  0  0  0  0  0  0  0
  -44.7291   24.9629  -12.6382 C   0  0  0  0  0  0  0  0  0  0  0  0
  -45.8028   25.7121  -12.0204 C   0  0  0  0  0  0  0  0  0  0  0  0
  -45.5604   26.4993  -10.8794 C   0  0  0  0  0  0  0  0  0  0  0  0
  -44.2564   26.5607  -10.3310 C   0  0  0  0  0  0  0  0  0  0  0  0
  -43.1863   25.8260  -10.9302 C   0  0  0  0  0  0  0  0  0  0  0  0
  -43.4285   25.0241  -12.0861 C   0  0  0  0  0  0  0  0  0  0  0  0
  -40.2406   26.3846  -19.4537 C   0  0  0  0  0  0  0  0  0  0  0  0
  -41.6516   26.0090  -19.3859 O   0  0  0  0  0  0  0  0  0  0  0  0
  -50.6452   22.3936  -17.6325 C   0  0  0  0  0  0  0  0  0  0  0  0
  -49.6468   21.6389  -18.3717 O   0  0  0  0  0  0  0  0  0  0  0  0
  -47.7323   18.1237  -17.2462 C   0  0  0  0  0  0  0  0  0  0  0  0
  -47.9606   19.3963  -17.9339 O   0  0  0  0  0  0  0  0  0  0  0  0
  1  2  1  0  0  0
  1 21  2  0  0  0
  1 25  1  0  0  0
  2  3  1  0  0  0
  2 18  1  0  0  0
  3  4  1  0  0  0
  3 22  1  0  0  0
  3 24  1  0  0  0
  4  5  1  0  0  0
  4 35  1  0  0  0
  5  6  1  0  0  0
  5 23  1  0  0  0
  6  7  1  0  0  0
  6 19  1  0  0  0
  7  8  1  0  0  0
  7 24  1  0  0  0
  8  9  1  0  0  0
  8 20  1  0  0  0
  9 10  2  0  0  0
 10 11  1  0  0  0
 11 12  1  0  0  0
 11 37  1  0  0  0
 12 13  1  0  0  0
 12 39  1  0  0  0
 13 14  1  0  0  0
 14 15  1  0  0  0
 15 16  1  0  0  0
 16 17  1  0  0  0
 17 28  1  0  0  0
 17 25  1  0  0  0
 34 35  1  0  0  0
 36 37  1  0  0  0
 38 39  1  0  0  0
 28 29  2  0  0  0
 28 33  1  0  0  0
 29 30  1  0  0  0
 30 31  2  0  0  0
 31 32  1  0  0  0
 32 33  2  0  0  0
 22 26  1  0  0  0
 23 27  1  0  0  0
M  END
> <minimizedAffinity>
-13.71725

$$$$
