1YDT_IQB_E_351


 29 31  0  0  0  0  0  0  0  0999 V2000
   15.1561    8.4240    1.9703 N   0  0  0  0  0  0  0  0  0  0  0  0
   14.7014    9.3279    1.8415 H   0  0  0  0  0  0  0  0  0  0  0  0
   15.7627    8.0097    0.5378 S   0  0  0  0  0  0  0  0  0  0  0  0
   17.2014    7.9817    0.6444 O   0  0  0  0  0  0  0  0  0  0  0  0
   15.0755    6.8422    0.0249 O   0  0  0  0  0  0  0  0  0  0  0  0
   15.2953    9.4209   -0.4355 C   0  0  0  0  0  0  0  0  0  0  0  0
   14.7285   10.5299    0.2108 C   0  0  0  0  0  0  0  0  0  0  0  0
   14.3446   11.6580   -0.5227 C   0  0  0  0  0  0  0  0  0  0  0  0
   14.5172   11.6945   -1.9115 C   0  0  0  0  0  0  0  0  0  0  0  0
   15.0812   10.5927   -2.5632 C   0  0  0  0  0  0  0  0  0  0  0  0
   15.2606   10.6129   -3.9487 C   0  0  0  0  0  0  0  0  0  0  0  0
   15.8080    9.5475   -4.5845 N   0  0  0  0  0  0  0  0  0  0  0  0
   16.1950    8.4382   -3.9111 C   0  0  0  0  0  0  0  0  0  0  0  0
   16.0340    8.3696   -2.5217 C   0  0  0  0  0  0  0  0  0  0  0  0
   15.4709    9.4539   -1.8316 C   0  0  0  0  0  0  0  0  0  0  0  0
   14.1976    7.5745    2.6539 C   0  0  0  0  0  0  0  0  0  0  0  0
   12.7824    8.1660    2.5486 C   0  0  0  0  0  0  0  0  0  0  0  0
   12.2404    7.9601    1.1999 N   0  0  0  0  0  0  0  0  0  0  0  0
   11.6613    7.1204    1.1923 H   0  0  0  0  0  0  0  0  0  0  0  0
   11.4221    9.1226    0.8068 C   0  0  0  0  0  0  0  0  0  0  0  0
   10.1969    9.2296    1.6748 C   0  0  0  0  0  0  0  0  0  0  0  0
    9.1022    9.8715    1.2450 C   0  0  0  0  0  0  0  0  0  0  0  0
    7.8671    9.9911    2.0979 C   0  0  0  0  0  0  0  0  0  0  0  0
    6.6009   10.1939    1.5292 C   0  0  0  0  0  0  0  0  0  0  0  0
    5.4684   10.2994    2.3477 C   0  0  0  0  0  0  0  0  0  0  0  0
    5.6026   10.2034    3.7388 C   0  0  0  0  0  0  0  0  0  0  0  0
    4.1149   10.3464    4.8453 Br  0  0  0  0  0  0  0  0  0  0  0  0
    6.8590   10.0027    4.3071 C   0  0  0  0  0  0  0  0  0  0  0  0
    7.9851    9.8968    3.4859 C   0  0  0  0  0  0  0  0  0  0  0  0
  6  7  2  0  0  0
  6 15  1  0  0  0
  6  3  1  0  0  0
  7  8  1  0  0  0
  8  9  2  0  0  0
  9 10  1  0  0  0
 10 11  1  0  0  0
 10 15  2  0  0  0
 11 12  2  0  0  0
 12 13  1  0  0  0
 13 14  2  0  0  0
 14 15  1  0  0  0
  3  4  2  0  0  0
  3  5  2  0  0  0
  3  1  1  0  0  0
  1 16  1  0  0  0
 16 17  1  0  0  0
 17 18  1  0  0  0
 18 20  1  0  0  0
 20 21  1  0  0  0
 21 22  2  0  0  0
 22 23  1  0  0  0
 23 24  2  0  0  0
 23 29  1  0  0  0
 24 25  1  0  0  0
 25 26  2  0  0  0
 26 27  1  0  0  0
 26 28  1  0  0  0
 28 29  2  0  0  0
  1  2  1  0  0  0
 18 19  1  0  0  0
M  END
> <minimizedAffinity>
-8.92136

$$$$
1YDT_IQB_E_351


 29 31  0  0  0  0  0  0  0  0999 V2000
   14.3778    7.1017    1.3929 N   0  0  0  0  0  0  0  0  0  0  0  0
   13.8573    6.4206    0.8400 H   0  0  0  0  0  0  0  0  0  0  0  0
   15.6900    7.4763    0.5388 S   0  0  0  0  0  0  0  0  0  0  0  0
   16.8388    7.3844    1.4069 O   0  0  0  0  0  0  0  0  0  0  0  0
   15.6962    6.7443   -0.7112 O   0  0  0  0  0  0  0  0  0  0  0  0
   15.3773    9.1913    0.1946 C   0  0  0  0  0  0  0  0  0  0  0  0
   14.3338    9.8376    0.8744 C   0  0  0  0  0  0  0  0  0  0  0  0
   14.0552   11.1864    0.6273 C   0  0  0  0  0  0  0  0  0  0  0  0
   14.8110   11.9086   -0.3038 C   0  0  0  0  0  0  0  0  0  0  0  0
   15.8528   11.2713   -0.9858 C   0  0  0  0  0  0  0  0  0  0  0  0
   16.6171   11.9776   -1.9182 C   0  0  0  0  0  0  0  0  0  0  0  0
   17.6287   11.3640   -2.5809 N   0  0  0  0  0  0  0  0  0  0  0  0
   17.9321   10.0614   -2.3687 C   0  0  0  0  0  0  0  0  0  0  0  0
   17.1937    9.3110   -1.4453 C   0  0  0  0  0  0  0  0  0  0  0  0
   16.1399    9.9140   -0.7419 C   0  0  0  0  0  0  0  0  0  0  0  0
   14.4854    6.5497    2.7313 C   0  0  0  0  0  0  0  0  0  0  0  0
   13.5822    7.3219    3.7067 C   0  0  0  0  0  0  0  0  0  0  0  0
   12.2054    7.3717    3.1994 N   0  0  0  0  0  0  0  0  0  0  0  0
   11.5990    6.8263    3.8120 H   0  0  0  0  0  0  0  0  0  0  0  0
   11.7356    8.7694    3.1639 C   0  0  0  0  0  0  0  0  0  0  0  0
   10.2624    8.8441    3.4641 C   0  0  0  0  0  0  0  0  0  0  0  0
    9.6103   10.0139    3.4267 C   0  0  0  0  0  0  0  0  0  0  0  0
    8.1376   10.1104    3.7251 C   0  0  0  0  0  0  0  0  0  0  0  0
    7.1822   10.1349    2.6981 C   0  0  0  0  0  0  0  0  0  0  0  0
    5.8179   10.2231    3.0056 C   0  0  0  0  0  0  0  0  0  0  0  0
    5.4078   10.2887    4.3435 C   0  0  0  0  0  0  0  0  0  0  0  0
    3.6034   10.4124    4.7755 Br  0  0  0  0  0  0  0  0  0  0  0  0
    6.3543   10.2654    5.3660 C   0  0  0  0  0  0  0  0  0  0  0  0
    7.7137   10.1759    5.0537 C   0  0  0  0  0  0  0  0  0  0  0  0
  6  7  2  0  0  0
  6 15  1  0  0  0
  6  3  1  0  0  0
  7  8  1  0  0  0
  8  9  2  0  0  0
  9 10  1  0  0  0
 10 11  1  0  0  0
 10 15  2  0  0  0
 11 12  2  0  0  0
 12 13  1  0  0  0
 13 14  2  0  0  0
 14 15  1  0  0  0
  3  4  2  0  0  0
  3  5  2  0  0  0
  3  1  1  0  0  0
  1 16  1  0  0  0
 16 17  1  0  0  0
 17 18  1  0  0  0
 18 20  1  0  0  0
 20 21  1  0  0  0
 21 22  2  0  0  0
 22 23  1  0  0  0
 23 24  2  0  0  0
 23 29  1  0  0  0
 24 25  1  0  0  0
 25 26  2  0  0  0
 26 27  1  0  0  0
 26 28  1  0  0  0
 28 29  2  0  0  0
  1  2  1  0  0  0
 18 19  1  0  0  0
M  END
> <minimizedAffinity>
-8.85234

$$$$
1YDT_IQB_E_351


 29 31  0  0  0  0  0  0  0  0999 V2000
    9.7429   10.0302    3.9118 N   0  0  0  0  0  0  0  0  0  0  0  0
   10.4144   10.7930    3.9987 H   0  0  0  0  0  0  0  0  0  0  0  0
    8.4174   10.4969    4.6972 S   0  0  0  0  0  0  0  0  0  0  0  0
    8.1165    9.5111    5.7069 O   0  0  0  0  0  0  0  0  0  0  0  0
    8.5336   11.8869    5.0880 O   0  0  0  0  0  0  0  0  0  0  0  0
    7.2076   10.3672    3.4022 C   0  0  0  0  0  0  0  0  0  0  0  0
    7.6362   10.4336    2.0678 C   0  0  0  0  0  0  0  0  0  0  0  0
    6.7124   10.3389    1.0211 C   0  0  0  0  0  0  0  0  0  0  0  0
    5.3478   10.1802    1.2905 C   0  0  0  0  0  0  0  0  0  0  0  0
    4.9126   10.1135    2.6182 C   0  0  0  0  0  0  0  0  0  0  0  0
    3.5542    9.9552    2.9045 C   0  0  0  0  0  0  0  0  0  0  0  0
    3.1279    9.8889    4.1901 N   0  0  0  0  0  0  0  0  0  0  0  0
    3.9897    9.9738    5.2313 C   0  0  0  0  0  0  0  0  0  0  0  0
    5.3606   10.1347    4.9953 C   0  0  0  0  0  0  0  0  0  0  0  0
    5.8365   10.2073    3.6773 C   0  0  0  0  0  0  0  0  0  0  0  0
   10.4478    8.8167    4.2837 C   0  0  0  0  0  0  0  0  0  0  0  0
    9.8110    7.5939    3.6034 C   0  0  0  0  0  0  0  0  0  0  0  0
   10.6538    7.1277    2.4953 N   0  0  0  0  0  0  0  0  0  0  0  0
   10.5405    6.1201    2.3846 H   0  0  0  0  0  0  0  0  0  0  0  0
   10.2578    7.8050    1.2464 C   0  0  0  0  0  0  0  0  0  0  0  0
   11.3433    8.7374    0.7788 C   0  0  0  0  0  0  0  0  0  0  0  0
   11.1042   10.0454    0.6145 C   0  0  0  0  0  0  0  0  0  0  0  0
   12.1753   10.9945    0.1463 C   0  0  0  0  0  0  0  0  0  0  0  0
   12.1809   12.3423    0.5353 C   0  0  0  0  0  0  0  0  0  0  0  0
   13.1918   13.2023    0.0857 C   0  0  0  0  0  0  0  0  0  0  0  0
   14.1991   12.7136   -0.7563 C   0  0  0  0  0  0  0  0  0  0  0  0
   15.5474   13.8375   -1.3703 Br  0  0  0  0  0  0  0  0  0  0  0  0
   14.1961   11.3755   -1.1452 C   0  0  0  0  0  0  0  0  0  0  0  0
   13.1861   10.5218   -0.6928 C   0  0  0  0  0  0  0  0  0  0  0  0
  6  7  2  0  0  0
  6 15  1  0  0  0
  6  3  1  0  0  0
  7  8  1  0  0  0
  8  9  2  0  0  0
  9 10  1  0  0  0
 10 11  1  0  0  0
 10 15  2  0  0  0
 11 12  2  0  0  0
 12 13  1  0  0  0
 13 14  2  0  0  0
 14 15  1  0  0  0
  3  4  2  0  0  0
  3  5  2  0  0  0
  3  1  1  0  0  0
  1 16  1  0  0  0
 16 17  1  0  0  0
 17 18  1  0  0  0
 18 20  1  0  0  0
 20 21  1  0  0  0
 21 22  2  0  0  0
 22 23  1  0  0  0
 23 24  2  0  0  0
 23 29  1  0  0  0
 24 25  1  0  0  0
 25 26  2  0  0  0
 26 27  1  0  0  0
 26 28  1  0  0  0
 28 29  2  0  0  0
  1  2  1  0  0  0
 18 19  1  0  0  0
M  END
> <minimizedAffinity>
-8.67990

$$$$
1YDT_IQB_E_351


 29 31  0  0  0  0  0  0  0  0999 V2000
    9.8991   10.1167    3.2433 N   0  0  0  0  0  0  0  0  0  0  0  0
   10.2602   11.0643    3.1335 H   0  0  0  0  0  0  0  0  0  0  0  0
    8.6590   10.2161    4.2650 S   0  0  0  0  0  0  0  0  0  0  0  0
    8.5950    8.9899    5.0227 O   0  0  0  0  0  0  0  0  0  0  0  0
    8.6995   11.4776    4.9761 O   0  0  0  0  0  0  0  0  0  0  0  0
    7.2971   10.2474    3.1240 C   0  0  0  0  0  0  0  0  0  0  0  0
    7.5661   10.3921    1.7545 C   0  0  0  0  0  0  0  0  0  0  0  0
    6.5196   10.4246    0.8262 C   0  0  0  0  0  0  0  0  0  0  0  0
    5.1900   10.3169    1.2510 C   0  0  0  0  0  0  0  0  0  0  0  0
    4.9137   10.1728    2.6147 C   0  0  0  0  0  0  0  0  0  0  0  0
    3.5923   10.0637    3.0554 C   0  0  0  0  0  0  0  0  0  0  0  0
    3.3198    9.9228    4.3764 N   0  0  0  0  0  0  0  0  0  0  0  0
    4.3036    9.8841    5.3062 C   0  0  0  0  0  0  0  0  0  0  0  0
    5.6436    9.9912    4.9138 C   0  0  0  0  0  0  0  0  0  0  0  0
    5.9618   10.1383    3.5551 C   0  0  0  0  0  0  0  0  0  0  0  0
   11.0432    9.2707    3.5313 C   0  0  0  0  0  0  0  0  0  0  0  0
   10.9425    7.9465    2.7568 C   0  0  0  0  0  0  0  0  0  0  0  0
   12.1858    7.1777    2.8930 N   0  0  0  0  0  0  0  0  0  0  0  0
   12.3312    6.6177    2.0530 H   0  0  0  0  0  0  0  0  0  0  0  0
   13.3253    8.0970    3.0719 C   0  0  0  0  0  0  0  0  0  0  0  0
   14.1043    8.2351    1.7912 C   0  0  0  0  0  0  0  0  0  0  0  0
   13.8942    9.2691    0.9653 C   0  0  0  0  0  0  0  0  0  0  0  0
   14.6615    9.4250   -0.3208 C   0  0  0  0  0  0  0  0  0  0  0  0
   15.7807    8.6291   -0.6072 C   0  0  0  0  0  0  0  0  0  0  0  0
   16.4744    8.7948   -1.8134 C   0  0  0  0  0  0  0  0  0  0  0  0
   16.0488    9.7600   -2.7351 C   0  0  0  0  0  0  0  0  0  0  0  0
   16.9573   10.0022   -4.3395 Br  0  0  0  0  0  0  0  0  0  0  0  0
   14.9380   10.5528   -2.4535 C   0  0  0  0  0  0  0  0  0  0  0  0
   14.2490   10.3824   -1.2494 C   0  0  0  0  0  0  0  0  0  0  0  0
  6  7  2  0  0  0
  6 15  1  0  0  0
  6  3  1  0  0  0
  7  8  1  0  0  0
  8  9  2  0  0  0
  9 10  1  0  0  0
 10 11  1  0  0  0
 10 15  2  0  0  0
 11 12  2  0  0  0
 12 13  1  0  0  0
 13 14  2  0  0  0
 14 15  1  0  0  0
  3  4  2  0  0  0
  3  5  2  0  0  0
  3  1  1  0  0  0
  1 16  1  0  0  0
 16 17  1  0  0  0
 17 18  1  0  0  0
 18 20  1  0  0  0
 20 21  1  0  0  0
 21 22  2  0  0  0
 22 23  1  0  0  0
 23 24  2  0  0  0
 23 29  1  0  0  0
 24 25  1  0  0  0
 25 26  2  0  0  0
 26 27  1  0  0  0
 26 28  1  0  0  0
 28 29  2  0  0  0
  1  2  1  0  0  0
 18 19  1  0  0  0
M  END
> <minimizedAffinity>
-8.65016

$$$$
1YDT_IQB_E_351


 29 31  0  0  0  0  0  0  0  0999 V2000
   14.5014    8.2913    0.5140 N   0  0  0  0  0  0  0  0  0  0  0  0
   14.2263    7.3227    0.3508 H   0  0  0  0  0  0  0  0  0  0  0  0
   16.0213    8.4269    0.0011 S   0  0  0  0  0  0  0  0  0  0  0  0
   16.6131    9.5810    0.6336 O   0  0  0  0  0  0  0  0  0  0  0  0
   16.6968    7.1495    0.1020 O   0  0  0  0  0  0  0  0  0  0  0  0
   15.7549    8.7978   -1.7161 C   0  0  0  0  0  0  0  0  0  0  0  0
   16.0938    7.8325   -2.6764 C   0  0  0  0  0  0  0  0  0  0  0  0
   15.9018    8.0897   -4.0384 C   0  0  0  0  0  0  0  0  0  0  0  0
   15.3725    9.3146   -4.4620 C   0  0  0  0  0  0  0  0  0  0  0  0
   15.0325   10.2822   -3.5108 C   0  0  0  0  0  0  0  0  0  0  0  0
   14.5030   11.5098   -3.9166 C   0  0  0  0  0  0  0  0  0  0  0  0
   14.1709   12.4504   -2.9978 N   0  0  0  0  0  0  0  0  0  0  0  0
   14.3385   12.2397   -1.6706 C   0  0  0  0  0  0  0  0  0  0  0  0
   14.8674   11.0258   -1.2148 C   0  0  0  0  0  0  0  0  0  0  0  0
   15.2220   10.0304   -2.1379 C   0  0  0  0  0  0  0  0  0  0  0  0
   14.1424    8.5956    1.8874 C   0  0  0  0  0  0  0  0  0  0  0  0
   13.7997    7.3070    2.6527 C   0  0  0  0  0  0  0  0  0  0  0  0
   12.3898    7.3140    3.0619 N   0  0  0  0  0  0  0  0  0  0  0  0
   12.2292    6.5656    3.7361 H   0  0  0  0  0  0  0  0  0  0  0  0
   12.0550    8.6103    3.6808 C   0  0  0  0  0  0  0  0  0  0  0  0
   10.5738    8.7161    3.9276 C   0  0  0  0  0  0  0  0  0  0  0  0
    9.9282    9.8776    3.7564 C   0  0  0  0  0  0  0  0  0  0  0  0
    8.4476   10.0049    3.9993 C   0  0  0  0  0  0  0  0  0  0  0  0
    7.9227   10.0859    5.2977 C   0  0  0  0  0  0  0  0  0  0  0  0
    6.5403   10.2060    5.4937 C   0  0  0  0  0  0  0  0  0  0  0  0
    5.6804   10.2437    4.3884 C   0  0  0  0  0  0  0  0  0  0  0  0
    3.8422   10.3964    4.6240 Br  0  0  0  0  0  0  0  0  0  0  0  0
    6.1986   10.1627    3.0973 C   0  0  0  0  0  0  0  0  0  0  0  0
    7.5782   10.0443    2.9076 C   0  0  0  0  0  0  0  0  0  0  0  0
  6  7  2  0  0  0
  6 15  1  0  0  0
  6  3  1  0  0  0
  7  8  1  0  0  0
  8  9  2  0  0  0
  9 10  1  0  0  0
 10 11  1  0  0  0
 10 15  2  0  0  0
 11 12  2  0  0  0
 12 13  1  0  0  0
 13 14  2  0  0  0
 14 15  1  0  0  0
  3  4  2  0  0  0
  3  5  2  0  0  0
  3  1  1  0  0  0
  1 16  1  0  0  0
 16 17  1  0  0  0
 17 18  1  0  0  0
 18 20  1  0  0  0
 20 21  1  0  0  0
 21 22  2  0  0  0
 22 23  1  0  0  0
 23 24  2  0  0  0
 23 29  1  0  0  0
 24 25  1  0  0  0
 25 26  2  0  0  0
 26 27  1  0  0  0
 26 28  1  0  0  0
 28 29  2  0  0  0
  1  2  1  0  0  0
 18 19  1  0  0  0
M  END
> <minimizedAffinity>
-8.43229

$$$$
1YDT_IQB_E_351


 29 31  0  0  0  0  0  0  0  0999 V2000
   11.0805    7.6275    4.0758 N   0  0  0  0  0  0  0  0  0  0  0  0
   10.9744    6.6167    3.9893 H   0  0  0  0  0  0  0  0  0  0  0  0
   10.3624    8.2739    2.7882 S   0  0  0  0  0  0  0  0  0  0  0  0
   11.1548    9.3934    2.3400 O   0  0  0  0  0  0  0  0  0  0  0  0
   10.0152    7.2367    1.8384 O   0  0  0  0  0  0  0  0  0  0  0  0
    8.8699    8.8966    3.5245 C   0  0  0  0  0  0  0  0  0  0  0  0
    8.6809    8.7384    4.9059 C   0  0  0  0  0  0  0  0  0  0  0  0
    7.5168    9.2125    5.5209 C   0  0  0  0  0  0  0  0  0  0  0  0
    6.5233    9.8477    4.7664 C   0  0  0  0  0  0  0  0  0  0  0  0
    6.7041   10.0088    3.3887 C   0  0  0  0  0  0  0  0  0  0  0  0
    5.7225   10.6407    2.6210 C   0  0  0  0  0  0  0  0  0  0  0  0
    5.8941   10.8001    1.2853 N   0  0  0  0  0  0  0  0  0  0  0  0
    7.0069   10.3582    0.6526 C   0  0  0  0  0  0  0  0  0  0  0  0
    8.0182    9.7170    1.3787 C   0  0  0  0  0  0  0  0  0  0  0  0
    7.8736    9.5351    2.7625 C   0  0  0  0  0  0  0  0  0  0  0  0
   12.4843    7.8719    4.3542 C   0  0  0  0  0  0  0  0  0  0  0  0
   13.3649    7.2820    3.2406 C   0  0  0  0  0  0  0  0  0  0  0  0
   14.7166    7.0118    3.7458 N   0  0  0  0  0  0  0  0  0  0  0  0
   15.1023    6.2000    3.2635 H   0  0  0  0  0  0  0  0  0  0  0  0
   15.5833    8.1810    3.5061 C   0  0  0  0  0  0  0  0  0  0  0  0
   15.2590    8.8222    2.1833 C   0  0  0  0  0  0  0  0  0  0  0  0
   15.8546    8.4128    1.0550 C   0  0  0  0  0  0  0  0  0  0  0  0
   15.5455    9.0417   -0.2777 C   0  0  0  0  0  0  0  0  0  0  0  0
   14.5595   10.0308   -0.4099 C   0  0  0  0  0  0  0  0  0  0  0  0
   14.2946   10.6001   -1.6627 C   0  0  0  0  0  0  0  0  0  0  0  0
   15.0166   10.1781   -2.7866 C   0  0  0  0  0  0  0  0  0  0  0  0
   14.6783   10.9148   -4.4602 Br  0  0  0  0  0  0  0  0  0  0  0  0
   15.9961    9.1953   -2.6589 C   0  0  0  0  0  0  0  0  0  0  0  0
   16.2571    8.6317   -1.4068 C   0  0  0  0  0  0  0  0  0  0  0  0
  6  7  2  0  0  0
  6 15  1  0  0  0
  6  3  1  0  0  0
  7  8  1  0  0  0
  8  9  2  0  0  0
  9 10  1  0  0  0
 10 11  1  0  0  0
 10 15  2  0  0  0
 11 12  2  0  0  0
 12 13  1  0  0  0
 13 14  2  0  0  0
 14 15  1  0  0  0
  3  4  2  0  0  0
  3  5  2  0  0  0
  3  1  1  0  0  0
  1 16  1  0  0  0
 16 17  1  0  0  0
 17 18  1  0  0  0
 18 20  1  0  0  0
 20 21  1  0  0  0
 21 22  2  0  0  0
 22 23  1  0  0  0
 23 24  2  0  0  0
 23 29  1  0  0  0
 24 25  1  0  0  0
 25 26  2  0  0  0
 26 27  1  0  0  0
 26 28  1  0  0  0
 28 29  2  0  0  0
  1  2  1  0  0  0
 18 19  1  0  0  0
M  END
> <minimizedAffinity>
-8.36961

$$$$
1YDT_IQB_E_351


 29 31  0  0  0  0  0  0  0  0999 V2000
   14.4699   10.9455    1.1585 N   0  0  0  0  0  0  0  0  0  0  0  0
   15.1507   11.6565    1.4255 H   0  0  0  0  0  0  0  0  0  0  0  0
   15.3141    9.6778    0.6371 S   0  0  0  0  0  0  0  0  0  0  0  0
   14.4442    8.8506   -0.1636 O   0  0  0  0  0  0  0  0  0  0  0  0
   16.5756   10.1162    0.0760 O   0  0  0  0  0  0  0  0  0  0  0  0
   15.6320    8.8428    2.1731 C   0  0  0  0  0  0  0  0  0  0  0  0
   16.9608    8.6901    2.5969 C   0  0  0  0  0  0  0  0  0  0  0  0
   17.2507    8.0351    3.7989 C   0  0  0  0  0  0  0  0  0  0  0  0
   16.2195    7.5199    4.5934 C   0  0  0  0  0  0  0  0  0  0  0  0
   14.8921    7.6678    4.1776 C   0  0  0  0  0  0  0  0  0  0  0  0
   13.8511    7.1598    4.9588 C   0  0  0  0  0  0  0  0  0  0  0  0
   12.5627    7.3018    4.5601 N   0  0  0  0  0  0  0  0  0  0  0  0
   12.2400    7.9313    3.4054 C   0  0  0  0  0  0  0  0  0  0  0  0
   13.2483    8.4559    2.5874 C   0  0  0  0  0  0  0  0  0  0  0  0
   14.5923    8.3267    2.9692 C   0  0  0  0  0  0  0  0  0  0  0  0
   13.4999   11.6049    0.3028 C   0  0  0  0  0  0  0  0  0  0  0  0
   12.0779   11.4171    0.8561 C   0  0  0  0  0  0  0  0  0  0  0  0
   11.2078   10.8152   -0.1616 N   0  0  0  0  0  0  0  0  0  0  0  0
   11.7306   10.7022   -1.0301 H   0  0  0  0  0  0  0  0  0  0  0  0
   10.7355    9.4965    0.3005 C   0  0  0  0  0  0  0  0  0  0  0  0
    9.3767    9.6109    0.9384 C   0  0  0  0  0  0  0  0  0  0  0  0
    9.2498    9.8617    2.2485 C   0  0  0  0  0  0  0  0  0  0  0  0
    7.9004    9.9784    2.9062 C   0  0  0  0  0  0  0  0  0  0  0  0
    6.7376   10.2098    2.1563 C   0  0  0  0  0  0  0  0  0  0  0  0
    5.4946   10.3119    2.7952 C   0  0  0  0  0  0  0  0  0  0  0  0
    5.4143   10.1836    4.1879 C   0  0  0  0  0  0  0  0  0  0  0  0
    3.7767   10.3214    5.0582 Br  0  0  0  0  0  0  0  0  0  0  0  0
    6.5675    9.9545    4.9358 C   0  0  0  0  0  0  0  0  0  0  0  0
    7.8045    9.8523    4.2933 C   0  0  0  0  0  0  0  0  0  0  0  0
  6  7  2  0  0  0
  6 15  1  0  0  0
  6  3  1  0  0  0
  7  8  1  0  0  0
  8  9  2  0  0  0
  9 10  1  0  0  0
 10 11  1  0  0  0
 10 15  2  0  0  0
 11 12  2  0  0  0
 12 13  1  0  0  0
 13 14  2  0  0  0
 14 15  1  0  0  0
  3  4  2  0  0  0
  3  5  2  0  0  0
  3  1  1  0  0  0
  1 16  1  0  0  0
 16 17  1  0  0  0
 17 18  1  0  0  0
 18 20  1  0  0  0
 20 21  1  0  0  0
 21 22  2  0  0  0
 22 23  1  0  0  0
 23 24  2  0  0  0
 23 29  1  0  0  0
 24 25  1  0  0  0
 25 26  2  0  0  0
 26 27  1  0  0  0
 26 28  1  0  0  0
 28 29  2  0  0  0
  1  2  1  0  0  0
 18 19  1  0  0  0
M  END
> <minimizedAffinity>
-8.33191

$$$$
1YDT_IQB_E_351


 29 31  0  0  0  0  0  0  0  0999 V2000
   10.9028   10.3153    3.5244 N   0  0  0  0  0  0  0  0  0  0  0  0
   10.7560   10.3720    4.5322 H   0  0  0  0  0  0  0  0  0  0  0  0
   10.2305    8.9345    3.0418 S   0  0  0  0  0  0  0  0  0  0  0  0
   11.0821    8.3401    2.0401 O   0  0  0  0  0  0  0  0  0  0  0  0
    9.8413    8.1420    4.1902 O   0  0  0  0  0  0  0  0  0  0  0  0
    8.7637    9.5457    2.2464 C   0  0  0  0  0  0  0  0  0  0  0  0
    8.7909    9.7744    0.8623 C   0  0  0  0  0  0  0  0  0  0  0  0
    7.6566   10.2588    0.2015 C   0  0  0  0  0  0  0  0  0  0  0  0
    6.4803   10.5252    0.9123 C   0  0  0  0  0  0  0  0  0  0  0  0
    6.4454   10.3001    2.2925 C   0  0  0  0  0  0  0  0  0  0  0  0
    5.2794   10.5605    3.0169 C   0  0  0  0  0  0  0  0  0  0  0  0
    5.2406   10.3427    4.3548 N   0  0  0  0  0  0  0  0  0  0  0  0
    6.3155    9.8723    5.0311 C   0  0  0  0  0  0  0  0  0  0  0  0
    7.5075    9.5978    4.3493 C   0  0  0  0  0  0  0  0  0  0  0  0
    7.5829    9.8118    2.9646 C   0  0  0  0  0  0  0  0  0  0  0  0
   12.3114   10.5840    3.2977 C   0  0  0  0  0  0  0  0  0  0  0  0
   12.5038   11.3970    2.0071 C   0  0  0  0  0  0  0  0  0  0  0  0
   12.8488   12.7882    2.3249 N   0  0  0  0  0  0  0  0  0  0  0  0
   13.7526   12.8134    2.7969 H   0  0  0  0  0  0  0  0  0  0  0  0
   12.9225   13.5814    1.0835 C   0  0  0  0  0  0  0  0  0  0  0  0
   13.4433   12.7438   -0.0537 C   0  0  0  0  0  0  0  0  0  0  0  0
   14.5776   13.0712   -0.6871 C   0  0  0  0  0  0  0  0  0  0  0  0
   15.1148   12.2479   -1.8276 C   0  0  0  0  0  0  0  0  0  0  0  0
   16.4032   11.6944   -1.7883 C   0  0  0  0  0  0  0  0  0  0  0  0
   16.8762   10.9305   -2.8637 C   0  0  0  0  0  0  0  0  0  0  0  0
   16.0591   10.7207   -3.9821 C   0  0  0  0  0  0  0  0  0  0  0  0
   16.6674    9.7157   -5.4236 Br  0  0  0  0  0  0  0  0  0  0  0  0
   14.7790   11.2698   -4.0247 C   0  0  0  0  0  0  0  0  0  0  0  0
   14.3119   12.0298   -2.9488 C   0  0  0  0  0  0  0  0  0  0  0  0
  6  7  2  0  0  0
  6 15  1  0  0  0
  6  3  1  0  0  0
  7  8  1  0  0  0
  8  9  2  0  0  0
  9 10  1  0  0  0
 10 11  1  0  0  0
 10 15  2  0  0  0
 11 12  2  0  0  0
 12 13  1  0  0  0
 13 14  2  0  0  0
 14 15  1  0  0  0
  3  4  2  0  0  0
  3  5  2  0  0  0
  3  1  1  0  0  0
  1 16  1  0  0  0
 16 17  1  0  0  0
 17 18  1  0  0  0
 18 20  1  0  0  0
 20 21  1  0  0  0
 21 22  2  0  0  0
 22 23  1  0  0  0
 23 24  2  0  0  0
 23 29  1  0  0  0
 24 25  1  0  0  0
 25 26  2  0  0  0
 26 27  1  0  0  0
 26 28  1  0  0  0
 28 29  2  0  0  0
  1  2  1  0  0  0
 18 19  1  0  0  0
M  END
> <minimizedAffinity>
-8.32951

$$$$
1YDT_IQB_E_351


 29 31  0  0  0  0  0  0  0  0999 V2000
   16.6680    8.6700    0.3582 N   0  0  0  0  0  0  0  0  0  0  0  0
   16.6920    7.8964   -0.3062 H   0  0  0  0  0  0  0  0  0  0  0  0
   16.6404   10.0217   -0.5157 S   0  0  0  0  0  0  0  0  0  0  0  0
   17.7768   10.8282   -0.1415 O   0  0  0  0  0  0  0  0  0  0  0  0
   16.4355    9.7063   -1.9146 O   0  0  0  0  0  0  0  0  0  0  0  0
   15.1688   10.7903    0.1176 C   0  0  0  0  0  0  0  0  0  0  0  0
   14.3868   10.0890    1.0479 C   0  0  0  0  0  0  0  0  0  0  0  0
   13.2193   10.6601    1.5663 C   0  0  0  0  0  0  0  0  0  0  0  0
   12.8132   11.9372    1.1613 C   0  0  0  0  0  0  0  0  0  0  0  0
   13.5872   12.6427    0.2340 C   0  0  0  0  0  0  0  0  0  0  0  0
   13.1963   13.9184   -0.1806 C   0  0  0  0  0  0  0  0  0  0  0  0
   13.9442   14.6064   -1.0786 N   0  0  0  0  0  0  0  0  0  0  0  0
   15.0817   14.0905   -1.6018 C   0  0  0  0  0  0  0  0  0  0  0  0
   15.5138   12.8147   -1.2187 C   0  0  0  0  0  0  0  0  0  0  0  0
   14.7642   12.0748   -0.2917 C   0  0  0  0  0  0  0  0  0  0  0  0
   17.7258    8.4195    1.3204 C   0  0  0  0  0  0  0  0  0  0  0  0
   17.1321    8.0461    2.6885 C   0  0  0  0  0  0  0  0  0  0  0  0
   16.3561    6.8039    2.5882 N   0  0  0  0  0  0  0  0  0  0  0  0
   16.9882    6.0049    2.6389 H   0  0  0  0  0  0  0  0  0  0  0  0
   15.3843    6.7303    3.6953 C   0  0  0  0  0  0  0  0  0  0  0  0
   14.0487    7.2787    3.2690 C   0  0  0  0  0  0  0  0  0  0  0  0
   13.1862    7.7687    4.1697 C   0  0  0  0  0  0  0  0  0  0  0  0
   11.8450    8.3203    3.7644 C   0  0  0  0  0  0  0  0  0  0  0  0
   11.2492    9.3825    4.4606 C   0  0  0  0  0  0  0  0  0  0  0  0
   10.0008    9.8770    4.0596 C   0  0  0  0  0  0  0  0  0  0  0  0
    9.3458    9.3068    2.9604 C   0  0  0  0  0  0  0  0  0  0  0  0
    7.6859    9.9422    2.4136 Br  0  0  0  0  0  0  0  0  0  0  0  0
    9.9345    8.2510    2.2671 C   0  0  0  0  0  0  0  0  0  0  0  0
   11.1804    7.7626    2.6706 C   0  0  0  0  0  0  0  0  0  0  0  0
  6  7  2  0  0  0
  6 15  1  0  0  0
  6  3  1  0  0  0
  7  8  1  0  0  0
  8  9  2  0  0  0
  9 10  1  0  0  0
 10 11  1  0  0  0
 10 15  2  0  0  0
 11 12  2  0  0  0
 12 13  1  0  0  0
 13 14  2  0  0  0
 14 15  1  0  0  0
  3  4  2  0  0  0
  3  5  2  0  0  0
  3  1  1  0  0  0
  1 16  1  0  0  0
 16 17  1  0  0  0
 17 18  1  0  0  0
 18 20  1  0  0  0
 20 21  1  0  0  0
 21 22  2  0  0  0
 22 23  1  0  0  0
 23 24  2  0  0  0
 23 29  1  0  0  0
 24 25  1  0  0  0
 25 26  2  0  0  0
 26 27  1  0  0  0
 26 28  1  0  0  0
 28 29  2  0  0  0
  1  2  1  0  0  0
 18 19  1  0  0  0
M  END
> <minimizedAffinity>
-8.29400

$$$$
1YDT_IQB_E_351


 29 31  0  0  0  0  0  0  0  0999 V2000
    8.6864    9.1690    3.8887 N   0  0  0  0  0  0  0  0  0  0  0  0
    9.4416    9.6781    3.4294 H   0  0  0  0  0  0  0  0  0  0  0  0
    8.0265   10.1874    4.9465 S   0  0  0  0  0  0  0  0  0  0  0  0
    8.1425    9.6119    6.2646 O   0  0  0  0  0  0  0  0  0  0  0  0
    8.5230   11.5295    4.7221 O   0  0  0  0  0  0  0  0  0  0  0  0
    6.3225   10.1181    4.4475 C   0  0  0  0  0  0  0  0  0  0  0  0
    5.3371    9.9401    5.4305 C   0  0  0  0  0  0  0  0  0  0  0  0
    3.9851    9.8771    5.0757 C   0  0  0  0  0  0  0  0  0  0  0  0
    3.5970    9.9871    3.7351 C   0  0  0  0  0  0  0  0  0  0  0  0
    4.5733   10.1644    2.7492 C   0  0  0  0  0  0  0  0  0  0  0  0
    4.2030   10.2763    1.4066 C   0  0  0  0  0  0  0  0  0  0  0  0
    5.1461   10.4494    0.4476 N   0  0  0  0  0  0  0  0  0  0  0  0
    6.4644   10.5182    0.7496 C   0  0  0  0  0  0  0  0  0  0  0  0
    6.8853   10.4096    2.0808 C   0  0  0  0  0  0  0  0  0  0  0  0
    5.9363   10.2297    3.0987 C   0  0  0  0  0  0  0  0  0  0  0  0
    9.2462    7.8998    4.3172 C   0  0  0  0  0  0  0  0  0  0  0  0
    9.1057    6.8466    3.2061 C   0  0  0  0  0  0  0  0  0  0  0  0
   10.0676    7.1079    2.1282 N   0  0  0  0  0  0  0  0  0  0  0  0
    9.6968    7.8308    1.5115 H   0  0  0  0  0  0  0  0  0  0  0  0
   11.3488    7.5623    2.7004 C   0  0  0  0  0  0  0  0  0  0  0  0
   12.0077    8.5706    1.7973 C   0  0  0  0  0  0  0  0  0  0  0  0
   11.9701    9.8792    2.0827 C   0  0  0  0  0  0  0  0  0  0  0  0
   12.6212   10.9038    1.1921 C   0  0  0  0  0  0  0  0  0  0  0  0
   13.1063   10.5661   -0.0802 C   0  0  0  0  0  0  0  0  0  0  0  0
   13.7060   11.5412   -0.8884 C   0  0  0  0  0  0  0  0  0  0  0  0
   13.8224   12.8572   -0.4226 C   0  0  0  0  0  0  0  0  0  0  0  0
   14.6200   14.1667   -1.4748 Br  0  0  0  0  0  0  0  0  0  0  0  0
   13.3424   13.1959    0.8410 C   0  0  0  0  0  0  0  0  0  0  0  0
   12.7439   12.2196    1.6425 C   0  0  0  0  0  0  0  0  0  0  0  0
  6  7  2  0  0  0
  6 15  1  0  0  0
  6  3  1  0  0  0
  7  8  1  0  0  0
  8  9  2  0  0  0
  9 10  1  0  0  0
 10 11  1  0  0  0
 10 15  2  0  0  0
 11 12  2  0  0  0
 12 13  1  0  0  0
 13 14  2  0  0  0
 14 15  1  0  0  0
  3  4  2  0  0  0
  3  5  2  0  0  0
  3  1  1  0  0  0
  1 16  1  0  0  0
 16 17  1  0  0  0
 17 18  1  0  0  0
 18 20  1  0  0  0
 20 21  1  0  0  0
 21 22  2  0  0  0
 22 23  1  0  0  0
 23 24  2  0  0  0
 23 29  1  0  0  0
 24 25  1  0  0  0
 25 26  2  0  0  0
 26 27  1  0  0  0
 26 28  1  0  0  0
 28 29  2  0  0  0
  1  2  1  0  0  0
 18 19  1  0  0  0
M  END
> <minimizedAffinity>
-8.22558

$$$$
