1TNI_PBN_A_900


 13 13  0  0  0  0  0  0  0  0999 V2000
   29.3241   13.7347   18.5245 C   0  0  0  0  0  0  0  0  0  0  0  0
   28.4481   12.4777   18.6413 C   0  0  0  0  0  0  0  0  0  0  0  0
   28.1761   11.7010   17.5282 C   0  0  0  0  0  0  0  0  0  0  0  0
   27.1095   10.8252   17.5724 C   0  0  0  0  0  0  0  0  0  0  0  0
   26.2920   10.6885   18.6885 C   0  0  0  0  0  0  0  0  0  0  0  0
   26.5490   11.4562   19.7972 C   0  0  0  0  0  0  0  0  0  0  0  0
   27.6210   12.3392   19.7584 C   0  0  0  0  0  0  0  0  0  0  0  0
   28.6515   15.0882   18.7191 C   0  0  0  0  0  0  0  0  0  0  0  0
   28.0468   15.6376   17.4600 C   0  0  0  0  0  0  0  0  0  0  0  0
   29.0631   15.4261   16.3453 C   0  0  0  0  0  0  0  0  0  0  0  0
   29.3426   16.5384   15.4322 N   0  0  0  0  0  0  0  0  0  0  0  0
   28.5039   16.7553   14.8938 H   0  0  0  0  0  0  0  0  0  0  0  0
   30.0960   16.2755   14.7968 H   0  0  0  0  0  0  0  0  0  0  0  0
 10  9  1  0  0  0
 10 11  1  0  0  0
  9  8  1  0  0  0
  8  1  1  0  0  0
  1  2  1  0  0  0
  2  3  2  0  0  0
  2  7  1  0  0  0
  3  4  1  0  0  0
  4  5  2  0  0  0
  5  6  1  0  0  0
  6  7  2  0  0  0
 11 12  1  0  0  0
 11 13  1  0  0  0
M  END
> <minimizedAffinity>
-4.65580

$$$$
1TNI_PBN_A_900


 13 13  0  0  0  0  0  0  0  0999 V2000
   27.9523   14.6378   18.9744 C   0  0  0  0  0  0  0  0  0  0  0  0
   28.2978   13.1446   19.0833 C   0  0  0  0  0  0  0  0  0  0  0  0
   29.6142   12.7308   19.1924 C   0  0  0  0  0  0  0  0  0  0  0  0
   29.9240   11.4154   18.9089 C   0  0  0  0  0  0  0  0  0  0  0  0
   28.9697   10.4840   18.5157 C   0  0  0  0  0  0  0  0  0  0  0  0
   27.6614   10.8831   18.3999 C   0  0  0  0  0  0  0  0  0  0  0  0
   27.3438   12.2055   18.6839 C   0  0  0  0  0  0  0  0  0  0  0  0
   28.9351   15.5412   18.2395 C   0  0  0  0  0  0  0  0  0  0  0  0
   28.6130   15.7091   16.7831 C   0  0  0  0  0  0  0  0  0  0  0  0
   29.5396   14.7802   16.0092 C   0  0  0  0  0  0  0  0  0  0  0  0
   30.3040   15.3303   14.8858 N   0  0  0  0  0  0  0  0  0  0  0  0
   29.6622   15.6245   14.1496 H   0  0  0  0  0  0  0  0  0  0  0  0
   30.9347   14.6161   14.5216 H   0  0  0  0  0  0  0  0  0  0  0  0
 10  9  1  0  0  0
 10 11  1  0  0  0
  9  8  1  0  0  0
  8  1  1  0  0  0
  1  2  1  0  0  0
  2  3  2  0  0  0
  2  7  1  0  0  0
  3  4  1  0  0  0
  4  5  2  0  0  0
  5  6  1  0  0  0
  6  7  2  0  0  0
 11 12  1  0  0  0
 11 13  1  0  0  0
M  END
> <minimizedAffinity>
-4.60243

$$$$
1TNI_PBN_A_900


 13 13  0  0  0  0  0  0  0  0999 V2000
   30.1156   12.1153   18.6913 C   0  0  0  0  0  0  0  0  0  0  0  0
   29.7880   13.5098   18.1354 C   0  0  0  0  0  0  0  0  0  0  0  0
   28.9950   14.3877   18.8542 C   0  0  0  0  0  0  0  0  0  0  0  0
   28.4110   15.4504   18.1935 C   0  0  0  0  0  0  0  0  0  0  0  0
   28.5829   15.6785   16.8329 C   0  0  0  0  0  0  0  0  0  0  0  0
   29.3637   14.8126   16.1084 C   0  0  0  0  0  0  0  0  0  0  0  0
   29.9539   13.7416   16.7679 C   0  0  0  0  0  0  0  0  0  0  0  0
   28.9698   11.2973   19.2745 C   0  0  0  0  0  0  0  0  0  0  0  0
   27.8480   11.0696   18.3036 C   0  0  0  0  0  0  0  0  0  0  0  0
   26.5459   11.2702   19.0681 C   0  0  0  0  0  0  0  0  0  0  0  0
   26.5527   12.1429   20.2460 N   0  0  0  0  0  0  0  0  0  0  0  0
   27.1433   11.7329   20.9695 H   0  0  0  0  0  0  0  0  0  0  0  0
   25.6014   12.2433   20.6001 H   0  0  0  0  0  0  0  0  0  0  0  0
 10  9  1  0  0  0
 10 11  1  0  0  0
  9  8  1  0  0  0
  8  1  1  0  0  0
  1  2  1  0  0  0
  2  3  2  0  0  0
  2  7  1  0  0  0
  3  4  1  0  0  0
  4  5  2  0  0  0
  5  6  1  0  0  0
  6  7  2  0  0  0
 11 12  1  0  0  0
 11 13  1  0  0  0
M  END
> <minimizedAffinity>
-4.55556

$$$$
1TNI_PBN_A_900


 13 13  0  0  0  0  0  0  0  0999 V2000
   29.2719   13.2694   16.6622 C   0  0  0  0  0  0  0  0  0  0  0  0
   28.8465   12.3466   17.8148 C   0  0  0  0  0  0  0  0  0  0  0  0
   27.7200   12.6307   18.5675 C   0  0  0  0  0  0  0  0  0  0  0  0
   27.5744   12.0274   19.8010 C   0  0  0  0  0  0  0  0  0  0  0  0
   28.5126   11.1450   20.3242 C   0  0  0  0  0  0  0  0  0  0  0  0
   29.6359   10.8583   19.5891 C   0  0  0  0  0  0  0  0  0  0  0  0
   29.7879   11.4624   18.3471 C   0  0  0  0  0  0  0  0  0  0  0  0
   29.6510   14.7047   17.0060 C   0  0  0  0  0  0  0  0  0  0  0  0
   28.7831   15.7265   16.3309 C   0  0  0  0  0  0  0  0  0  0  0  0
   27.7311   16.1604   17.3433 C   0  0  0  0  0  0  0  0  0  0  0  0
   26.6352   17.0215   16.8891 N   0  0  0  0  0  0  0  0  0  0  0  0
   27.0104   17.9241   16.5977 H   0  0  0  0  0  0  0  0  0  0  0  0
   25.9724   17.1592   17.6521 H   0  0  0  0  0  0  0  0  0  0  0  0
 10  9  1  0  0  0
 10 11  1  0  0  0
  9  8  1  0  0  0
  8  1  1  0  0  0
  1  2  1  0  0  0
  2  3  2  0  0  0
  2  7  1  0  0  0
  3  4  1  0  0  0
  4  5  2  0  0  0
  5  6  1  0  0  0
  6  7  2  0  0  0
 11 12  1  0  0  0
 11 13  1  0  0  0
M  END
> <minimizedAffinity>
-4.39204

$$$$
1TNI_PBN_A_900


 13 13  0  0  0  0  0  0  0  0999 V2000
   29.3993   13.8088   18.4615 C   0  0  0  0  0  0  0  0  0  0  0  0
   28.5729   12.9986   19.4724 C   0  0  0  0  0  0  0  0  0  0  0  0
   29.1907   12.3350   20.5185 C   0  0  0  0  0  0  0  0  0  0  0  0
   28.5017   11.3303   21.1686 C   0  0  0  0  0  0  0  0  0  0  0  0
   27.2107   10.9524   20.8176 C   0  0  0  0  0  0  0  0  0  0  0  0
   26.5889   11.6003   19.7793 C   0  0  0  0  0  0  0  0  0  0  0  0
   27.2773   12.6121   19.1215 C   0  0  0  0  0  0  0  0  0  0  0  0
   28.9982   15.2585   18.2178 C   0  0  0  0  0  0  0  0  0  0  0  0
   28.5311   15.5179   16.8151 C   0  0  0  0  0  0  0  0  0  0  0  0
   29.3532   14.6234   15.8963 C   0  0  0  0  0  0  0  0  0  0  0  0
   30.2279   15.2545   14.9036 N   0  0  0  0  0  0  0  0  0  0  0  0
   29.6609   15.7634   14.2254 H   0  0  0  0  0  0  0  0  0  0  0  0
   30.7702   14.5366   14.4230 H   0  0  0  0  0  0  0  0  0  0  0  0
 10  9  1  0  0  0
 10 11  1  0  0  0
  9  8  1  0  0  0
  8  1  1  0  0  0
  1  2  1  0  0  0
  2  3  2  0  0  0
  2  7  1  0  0  0
  3  4  1  0  0  0
  4  5  2  0  0  0
  5  6  1  0  0  0
  6  7  2  0  0  0
 11 12  1  0  0  0
 11 13  1  0  0  0
M  END
> <minimizedAffinity>
-4.31933

$$$$
1TNI_PBN_A_900


 13 13  0  0  0  0  0  0  0  0999 V2000
   29.1723   13.6127   19.4463 C   0  0  0  0  0  0  0  0  0  0  0  0
   29.6586   12.2185   19.0211 C   0  0  0  0  0  0  0  0  0  0  0  0
   29.3734   11.1055   19.7933 C   0  0  0  0  0  0  0  0  0  0  0  0
   30.1200    9.9586   19.6090 C   0  0  0  0  0  0  0  0  0  0  0  0
   31.1506    9.8711   18.6801 C   0  0  0  0  0  0  0  0  0  0  0  0
   31.4458   10.9694   17.9112 C   0  0  0  0  0  0  0  0  0  0  0  0
   30.6979   12.1262   18.0923 C   0  0  0  0  0  0  0  0  0  0  0  0
   28.3581   14.4169   18.4401 C   0  0  0  0  0  0  0  0  0  0  0  0
   29.1133   15.5741   17.8541 C   0  0  0  0  0  0  0  0  0  0  0  0
   29.1039   15.3954   16.3414 C   0  0  0  0  0  0  0  0  0  0  0  0
   30.3079   14.8700   15.6908 N   0  0  0  0  0  0  0  0  0  0  0  0
   31.0734   15.5344   15.8048 H   0  0  0  0  0  0  0  0  0  0  0  0
   30.1241   14.7303   14.6973 H   0  0  0  0  0  0  0  0  0  0  0  0
 10  9  1  0  0  0
 10 11  1  0  0  0
  9  8  1  0  0  0
  8  1  1  0  0  0
  1  2  1  0  0  0
  2  3  2  0  0  0
  2  7  1  0  0  0
  3  4  1  0  0  0
  4  5  2  0  0  0
  5  6  1  0  0  0
  6  7  2  0  0  0
 11 12  1  0  0  0
 11 13  1  0  0  0
M  END
> <minimizedAffinity>
-4.27535

$$$$
1TNI_PBN_A_900


 13 13  0  0  0  0  0  0  0  0999 V2000
   30.5855   12.3925   17.8528 C   0  0  0  0  0  0  0  0  0  0  0  0
   29.8016   13.7116   17.9344 C   0  0  0  0  0  0  0  0  0  0  0  0
   28.8407   13.9024   18.9124 C   0  0  0  0  0  0  0  0  0  0  0  0
   27.9066   14.9047   18.7410 C   0  0  0  0  0  0  0  0  0  0  0  0
   27.8864   15.7336   17.6251 C   0  0  0  0  0  0  0  0  0  0  0  0
   28.8315   15.5516   16.6463 C   0  0  0  0  0  0  0  0  0  0  0  0
   29.7740   14.5447   16.8134 C   0  0  0  0  0  0  0  0  0  0  0  0
   30.1689   11.2614   18.7851 C   0  0  0  0  0  0  0  0  0  0  0  0
   30.0184    9.9411   18.0872 C   0  0  0  0  0  0  0  0  0  0  0  0
   30.3853   10.1625   16.6255 C   0  0  0  0  0  0  0  0  0  0  0  0
   29.6522    9.4161   15.5986 N   0  0  0  0  0  0  0  0  0  0  0  0
   29.8448    8.4196   15.7000 H   0  0  0  0  0  0  0  0  0  0  0  0
   29.9501    9.7276   14.6741 H   0  0  0  0  0  0  0  0  0  0  0  0
 10  9  1  0  0  0
 10 11  1  0  0  0
  9  8  1  0  0  0
  8  1  1  0  0  0
  1  2  1  0  0  0
  2  3  2  0  0  0
  2  7  1  0  0  0
  3  4  1  0  0  0
  4  5  2  0  0  0
  5  6  1  0  0  0
  6  7  2  0  0  0
 11 12  1  0  0  0
 11 13  1  0  0  0
M  END
> <minimizedAffinity>
-4.25459

$$$$
1TNI_PBN_A_900


 13 13  0  0  0  0  0  0  0  0999 V2000
   29.0658   13.3348   18.9956 C   0  0  0  0  0  0  0  0  0  0  0  0
   27.8540   12.4096   18.8040 C   0  0  0  0  0  0  0  0  0  0  0  0
   27.0390   12.0831   19.8743 C   0  0  0  0  0  0  0  0  0  0  0  0
   26.2124   10.9819   19.7696 C   0  0  0  0  0  0  0  0  0  0  0  0
   26.1625   10.1820   18.6337 C   0  0  0  0  0  0  0  0  0  0  0  0
   26.9688   10.4931   17.5672 C   0  0  0  0  0  0  0  0  0  0  0  0
   27.8026   11.6000   17.6668 C   0  0  0  0  0  0  0  0  0  0  0  0
   28.8312   14.8379   18.9076 C   0  0  0  0  0  0  0  0  0  0  0  0
   28.8498   15.3607   17.5007 C   0  0  0  0  0  0  0  0  0  0  0  0
   29.8857   14.5484   16.7344 C   0  0  0  0  0  0  0  0  0  0  0  0
   30.3544   15.0536   15.4406 N   0  0  0  0  0  0  0  0  0  0  0  0
   29.5799   15.0591   14.7769 H   0  0  0  0  0  0  0  0  0  0  0  0
   31.0986   14.4508   15.0896 H   0  0  0  0  0  0  0  0  0  0  0  0
 10  9  1  0  0  0
 10 11  1  0  0  0
  9  8  1  0  0  0
  8  1  1  0  0  0
  1  2  1  0  0  0
  2  3  2  0  0  0
  2  7  1  0  0  0
  3  4  1  0  0  0
  4  5  2  0  0  0
  5  6  1  0  0  0
  6  7  2  0  0  0
 11 12  1  0  0  0
 11 13  1  0  0  0
M  END
> <minimizedAffinity>
-4.25141

$$$$
1TNI_PBN_A_900


 13 13  0  0  0  0  0  0  0  0999 V2000
   29.9111   12.9087   17.9168 C   0  0  0  0  0  0  0  0  0  0  0  0
   29.8427   11.9503   19.1159 C   0  0  0  0  0  0  0  0  0  0  0  0
   30.1362   10.6062   18.9628 C   0  0  0  0  0  0  0  0  0  0  0  0
   29.7097    9.7175   19.9299 C   0  0  0  0  0  0  0  0  0  0  0  0
   28.9945   10.1132   21.0544 C   0  0  0  0  0  0  0  0  0  0  0  0
   28.6937   11.4428   21.2156 C   0  0  0  0  0  0  0  0  0  0  0  0
   29.1203   12.3415   20.2457 C   0  0  0  0  0  0  0  0  0  0  0  0
   28.7425   13.8635   17.7048 C   0  0  0  0  0  0  0  0  0  0  0  0
   29.1473   15.3089   17.7126 C   0  0  0  0  0  0  0  0  0  0  0  0
   28.6919   15.9089   16.3886 C   0  0  0  0  0  0  0  0  0  0  0  0
   29.6914   16.1297   15.3392 N   0  0  0  0  0  0  0  0  0  0  0  0
   30.3629   16.8311   15.6514 H   0  0  0  0  0  0  0  0  0  0  0  0
   29.2278   16.4564   14.4915 H   0  0  0  0  0  0  0  0  0  0  0  0
 10  9  1  0  0  0
 10 11  1  0  0  0
  9  8  1  0  0  0
  8  1  1  0  0  0
  1  2  1  0  0  0
  2  3  2  0  0  0
  2  7  1  0  0  0
  3  4  1  0  0  0
  4  5  2  0  0  0
  5  6  1  0  0  0
  6  7  2  0  0  0
 11 12  1  0  0  0
 11 13  1  0  0  0
M  END
> <minimizedAffinity>
-3.98523

$$$$
1TNI_PBN_A_900


 13 13  0  0  0  0  0  0  0  0999 V2000
   30.0354   13.3148   17.5648 C   0  0  0  0  0  0  0  0  0  0  0  0
   29.4350   11.9678   17.1330 C   0  0  0  0  0  0  0  0  0  0  0  0
   28.2046   11.5564   17.6157 C   0  0  0  0  0  0  0  0  0  0  0  0
   27.8677   10.2202   17.5265 C   0  0  0  0  0  0  0  0  0  0  0  0
   28.7126    9.2651   16.9728 C   0  0  0  0  0  0  0  0  0  0  0  0
   29.9372    9.6600   16.4944 C   0  0  0  0  0  0  0  0  0  0  0  0
   30.2815   11.0032   16.5814 C   0  0  0  0  0  0  0  0  0  0  0  0
   29.6689   14.5485   16.7488 C   0  0  0  0  0  0  0  0  0  0  0  0
   28.9698   15.6061   17.5523 C   0  0  0  0  0  0  0  0  0  0  0  0
   28.7706   15.0452   18.9544 C   0  0  0  0  0  0  0  0  0  0  0  0
   27.4042   14.9154   19.4692 N   0  0  0  0  0  0  0  0  0  0  0  0
   26.9887   15.8417   19.5681 H   0  0  0  0  0  0  0  0  0  0  0  0
   27.4258   14.4537   20.3785 H   0  0  0  0  0  0  0  0  0  0  0  0
 10  9  1  0  0  0
 10 11  1  0  0  0
  9  8  1  0  0  0
  8  1  1  0  0  0
  1  2  1  0  0  0
  2  3  2  0  0  0
  2  7  1  0  0  0
  3  4  1  0  0  0
  4  5  2  0  0  0
  5  6  1  0  0  0
  6  7  2  0  0  0
 11 12  1  0  0  0
 11 13  1  0  0  0
M  END
> <minimizedAffinity>
-3.93259

$$$$
