6EQP_BUW_A_601


 22 24  0  0  0  0  0  0  0  0999 V2000
   40.9093  -15.9946   43.4628 C   0  0  0  0  0  0  0  0  0  0  0  0
   39.6140  -15.6373   43.8584 C   0  0  0  0  0  0  0  0  0  0  0  0
   39.2698  -14.2975   44.0256 C   0  0  0  0  0  0  0  0  0  0  0  0
   40.2175  -13.3015   43.8040 C   0  0  0  0  0  0  0  0  0  0  0  0
   41.5082  -13.6450   43.4112 C   0  0  0  0  0  0  0  0  0  0  0  0
   41.8545  -14.9832   43.2375 C   0  0  0  0  0  0  0  0  0  0  0  0
   43.6067  -16.9204   43.6411 C   0  0  0  0  0  0  0  0  0  0  0  0
   44.8256  -17.3304   44.1799 C   0  0  0  0  0  0  0  0  0  0  0  0
   44.9067  -18.5293   44.8897 C   0  0  0  0  0  0  0  0  0  0  0  0
   43.7684  -19.3159   45.0590 C   0  0  0  0  0  0  0  0  0  0  0  0
   42.5470  -18.9096   44.5209 C   0  0  0  0  0  0  0  0  0  0  0  0
   42.4590  -17.7066   43.8168 C   0  0  0  0  0  0  0  0  0  0  0  0
   41.2697  -17.3040   43.2778 N   0  0  0  0  0  0  0  0  0  0  0  0
   43.5064  -15.3943   42.7384 S   0  0  0  0  0  0  0  0  0  0  0  0
   40.3148  -18.3081   42.7750 C   0  0  0  0  0  0  0  0  0  0  0  0
   40.4338  -18.7093   41.2752 C   0  0  0  0  0  0  0  0  0  0  0  0
   41.7796  -18.2180   40.6852 C   0  0  0  0  0  0  0  0  0  0  0  0
   40.1151  -20.1839   41.0241 N   0  0  0  0  0  0  0  0  0  0  0  0
   40.8795  -21.0788   41.9939 C   0  0  0  0  0  0  0  0  0  0  0  0
   40.0425  -21.9033   42.9855 C   0  0  0  0  0  0  0  0  0  0  0  0
   40.3712  -20.5225   39.5636 C   0  0  0  0  0  0  0  0  0  0  0  0
   39.1436  -21.0555   38.8012 C   0  0  0  0  0  0  0  0  0  0  0  0
  4  3  2  0  0  0
  4  5  1  0  0  0
  3  2  1  0  0  0
  5  6  2  0  0  0
  2  1  2  0  0  0
  6  1  1  0  0  0
  6 14  1  0  0  0
  1 13  1  0  0  0
 22 21  1  0  0  0
 21 18  1  0  0  0
 13 15  1  0  0  0
 13 12  1  0  0  0
 14  7  1  0  0  0
 15 16  1  0  0  0
 12  7  2  0  0  0
 12 11  1  0  0  0
 18 16  1  0  0  0
 18 19  1  0  0  0
 16 17  1  0  0  0
  7  8  1  0  0  0
 20 19  1  0  0  0
 11 10  2  0  0  0
  8  9  2  0  0  0
 10  9  1  0  0  0
M  END
> <minimizedAffinity>
-8.02838

$$$$
6EQP_BUW_A_601


 22 24  0  0  0  0  0  0  0  0999 V2000
   42.1510  -17.3414   43.6473 C   0  0  0  0  0  0  0  0  0  0  0  0
   43.2367  -18.0905   44.1184 C   0  0  0  0  0  0  0  0  0  0  0  0
   43.0448  -19.3769   44.6182 C   0  0  0  0  0  0  0  0  0  0  0  0
   41.7656  -19.9259   44.6569 C   0  0  0  0  0  0  0  0  0  0  0  0
   40.6789  -19.1903   44.1919 C   0  0  0  0  0  0  0  0  0  0  0  0
   40.8677  -17.9059   43.6863 C   0  0  0  0  0  0  0  0  0  0  0  0
   40.0649  -15.3895   43.5897 C   0  0  0  0  0  0  0  0  0  0  0  0
   39.1664  -14.4094   44.0093 C   0  0  0  0  0  0  0  0  0  0  0  0
   39.6347  -13.1520   44.3932 C   0  0  0  0  0  0  0  0  0  0  0  0
   41.0009  -12.8774   44.3565 C   0  0  0  0  0  0  0  0  0  0  0  0
   41.9032  -13.8552   43.9368 C   0  0  0  0  0  0  0  0  0  0  0  0
   41.4402  -15.1177   43.5594 C   0  0  0  0  0  0  0  0  0  0  0  0
   42.3145  -16.0795   43.1379 N   0  0  0  0  0  0  0  0  0  0  0  0
   39.4662  -16.9887   43.1019 S   0  0  0  0  0  0  0  0  0  0  0  0
   43.5284  -15.6932   42.3963 C   0  0  0  0  0  0  0  0  0  0  0  0
   43.6762  -16.2410   40.9462 C   0  0  0  0  0  0  0  0  0  0  0  0
   43.5045  -15.0995   39.9126 C   0  0  0  0  0  0  0  0  0  0  0  0
   44.9245  -17.1043   40.7581 N   0  0  0  0  0  0  0  0  0  0  0  0
   44.5599  -18.5843   40.7053 C   0  0  0  0  0  0  0  0  0  0  0  0
   43.0914  -18.9279   40.4068 C   0  0  0  0  0  0  0  0  0  0  0  0
   45.9439  -16.7739   41.8374 C   0  0  0  0  0  0  0  0  0  0  0  0
   46.5542  -17.9991   42.5436 C   0  0  0  0  0  0  0  0  0  0  0  0
  4  3  2  0  0  0
  4  5  1  0  0  0
  3  2  1  0  0  0
  5  6  2  0  0  0
  2  1  2  0  0  0
  6  1  1  0  0  0
  6 14  1  0  0  0
  1 13  1  0  0  0
 22 21  1  0  0  0
 21 18  1  0  0  0
 13 15  1  0  0  0
 13 12  1  0  0  0
 14  7  1  0  0  0
 15 16  1  0  0  0
 12  7  2  0  0  0
 12 11  1  0  0  0
 18 16  1  0  0  0
 18 19  1  0  0  0
 16 17  1  0  0  0
  7  8  1  0  0  0
 20 19  1  0  0  0
 11 10  2  0  0  0
  8  9  2  0  0  0
 10  9  1  0  0  0
M  END
> <minimizedAffinity>
-7.74208

$$$$
6EQP_BUW_A_601


 22 24  0  0  0  0  0  0  0  0999 V2000
   41.3584  -19.1087   42.1252 C   0  0  0  0  0  0  0  0  0  0  0  0
   41.2047  -19.1298   40.7331 C   0  0  0  0  0  0  0  0  0  0  0  0
   40.6986  -20.2601   40.0944 C   0  0  0  0  0  0  0  0  0  0  0  0
   40.3457  -21.3823   40.8395 C   0  0  0  0  0  0  0  0  0  0  0  0
   40.4948  -21.3729   42.2237 C   0  0  0  0  0  0  0  0  0  0  0  0
   40.9951  -20.2426   42.8663 C   0  0  0  0  0  0  0  0  0  0  0  0
   42.6243  -19.2289   44.6841 C   0  0  0  0  0  0  0  0  0  0  0  0
   43.5907  -19.4394   45.6668 C   0  0  0  0  0  0  0  0  0  0  0  0
   44.7286  -18.6326   45.7104 C   0  0  0  0  0  0  0  0  0  0  0  0
   44.8976  -17.6166   44.7710 C   0  0  0  0  0  0  0  0  0  0  0  0
   43.9327  -17.4023   43.7865 C   0  0  0  0  0  0  0  0  0  0  0  0
   42.7961  -18.2124   43.7336 C   0  0  0  0  0  0  0  0  0  0  0  0
   41.8405  -18.0049   42.7792 N   0  0  0  0  0  0  0  0  0  0  0  0
   41.1773  -20.2570   44.6309 S   0  0  0  0  0  0  0  0  0  0  0  0
   41.5659  -16.6379   42.3009 C   0  0  0  0  0  0  0  0  0  0  0  0
   40.2679  -15.9534   42.8216 C   0  0  0  0  0  0  0  0  0  0  0  0
   39.6472  -16.7730   43.9807 C   0  0  0  0  0  0  0  0  0  0  0  0
   40.4523  -14.4623   43.1074 N   0  0  0  0  0  0  0  0  0  0  0  0
   41.7842  -14.2021   43.8034 C   0  0  0  0  0  0  0  0  0  0  0  0
   42.8315  -13.3944   43.0196 C   0  0  0  0  0  0  0  0  0  0  0  0
   39.2548  -13.9371   43.8843 C   0  0  0  0  0  0  0  0  0  0  0  0
   39.5987  -13.2960   45.2419 C   0  0  0  0  0  0  0  0  0  0  0  0
  4  3  2  0  0  0
  4  5  1  0  0  0
  3  2  1  0  0  0
  5  6  2  0  0  0
  2  1  2  0  0  0
  6  1  1  0  0  0
  6 14  1  0  0  0
  1 13  1  0  0  0
 22 21  1  0  0  0
 21 18  1  0  0  0
 13 15  1  0  0  0
 13 12  1  0  0  0
 14  7  1  0  0  0
 15 16  1  0  0  0
 12  7  2  0  0  0
 12 11  1  0  0  0
 18 16  1  0  0  0
 18 19  1  0  0  0
 16 17  1  0  0  0
  7  8  1  0  0  0
 20 19  1  0  0  0
 11 10  2  0  0  0
  8  9  2  0  0  0
 10  9  1  0  0  0
M  END
> <minimizedAffinity>
-7.68756

$$$$
6EQP_BUW_A_601


 22 24  0  0  0  0  0  0  0  0999 V2000
   42.3379  -16.3624   41.8777 C   0  0  0  0  0  0  0  0  0  0  0  0
   42.2691  -17.2190   40.7716 C   0  0  0  0  0  0  0  0  0  0  0  0
   43.0747  -16.9999   39.6561 C   0  0  0  0  0  0  0  0  0  0  0  0
   43.9536  -15.9199   39.6324 C   0  0  0  0  0  0  0  0  0  0  0  0
   44.0300  -15.0617   40.7259 C   0  0  0  0  0  0  0  0  0  0  0  0
   43.2302  -15.2809   41.8453 C   0  0  0  0  0  0  0  0  0  0  0  0
   41.6371  -14.2754   43.6992 C   0  0  0  0  0  0  0  0  0  0  0  0
   40.9981  -13.1623   44.2442 C   0  0  0  0  0  0  0  0  0  0  0  0
   39.6558  -13.2419   44.6177 C   0  0  0  0  0  0  0  0  0  0  0  0
   38.9552  -14.4347   44.4456 C   0  0  0  0  0  0  0  0  0  0  0  0
   39.5910  -15.5508   43.9013 C   0  0  0  0  0  0  0  0  0  0  0  0
   40.9320  -15.4738   43.5183 C   0  0  0  0  0  0  0  0  0  0  0  0
   41.5667  -16.5638   42.9928 N   0  0  0  0  0  0  0  0  0  0  0  0
   43.3452  -14.1713   43.2247 S   0  0  0  0  0  0  0  0  0  0  0  0
   41.2007  -17.9168   43.4492 C   0  0  0  0  0  0  0  0  0  0  0  0
   42.2849  -18.7185   44.2278 C   0  0  0  0  0  0  0  0  0  0  0  0
   41.6421  -19.5182   45.3888 C   0  0  0  0  0  0  0  0  0  0  0  0
   43.2015  -19.5296   43.3108 N   0  0  0  0  0  0  0  0  0  0  0  0
   42.7880  -20.9974   43.2878 C   0  0  0  0  0  0  0  0  0  0  0  0
   42.4906  -21.6140   41.9112 C   0  0  0  0  0  0  0  0  0  0  0  0
   44.6515  -19.3194   43.7189 C   0  0  0  0  0  0  0  0  0  0  0  0
   44.9705  -17.9137   44.2617 C   0  0  0  0  0  0  0  0  0  0  0  0
  4  3  2  0  0  0
  4  5  1  0  0  0
  3  2  1  0  0  0
  5  6  2  0  0  0
  2  1  2  0  0  0
  6  1  1  0  0  0
  6 14  1  0  0  0
  1 13  1  0  0  0
 22 21  1  0  0  0
 21 18  1  0  0  0
 13 15  1  0  0  0
 13 12  1  0  0  0
 14  7  1  0  0  0
 15 16  1  0  0  0
 12  7  2  0  0  0
 12 11  1  0  0  0
 18 16  1  0  0  0
 18 19  1  0  0  0
 16 17  1  0  0  0
  7  8  1  0  0  0
 20 19  1  0  0  0
 11 10  2  0  0  0
  8  9  2  0  0  0
 10  9  1  0  0  0
M  END
> <minimizedAffinity>
-7.68428

$$$$
6EQP_BUW_A_601


 22 24  0  0  0  0  0  0  0  0999 V2000
   42.2377  -17.2503   43.5845 C   0  0  0  0  0  0  0  0  0  0  0  0
   43.3484  -17.9839   44.0206 C   0  0  0  0  0  0  0  0  0  0  0  0
   43.2044  -19.3067   44.4338 C   0  0  0  0  0  0  0  0  0  0  0  0
   41.9486  -19.9084   44.4203 C   0  0  0  0  0  0  0  0  0  0  0  0
   40.8375  -19.1887   43.9895 C   0  0  0  0  0  0  0  0  0  0  0  0
   40.9785  -17.8676   43.5702 C   0  0  0  0  0  0  0  0  0  0  0  0
   40.0736  -15.3848   43.6255 C   0  0  0  0  0  0  0  0  0  0  0  0
   39.1311  -14.4711   44.0956 C   0  0  0  0  0  0  0  0  0  0  0  0
   39.5432  -13.2234   44.5658 C   0  0  0  0  0  0  0  0  0  0  0  0
   40.8972  -12.8920   44.5648 C   0  0  0  0  0  0  0  0  0  0  0  0
   41.8433  -13.8031   44.0948 C   0  0  0  0  0  0  0  0  0  0  0  0
   41.4367  -15.0562   43.6308 C   0  0  0  0  0  0  0  0  0  0  0  0
   42.3543  -15.9524   43.1597 N   0  0  0  0  0  0  0  0  0  0  0  0
   39.5465  -16.9719   43.0278 S   0  0  0  0  0  0  0  0  0  0  0  0
   43.5590  -15.4700   42.4604 C   0  0  0  0  0  0  0  0  0  0  0  0
   43.4751  -15.3444   40.9106 C   0  0  0  0  0  0  0  0  0  0  0  0
   43.3594  -13.8577   40.4902 C   0  0  0  0  0  0  0  0  0  0  0  0
   44.5622  -16.1406   40.1871 N   0  0  0  0  0  0  0  0  0  0  0  0
   45.4374  -15.2221   39.3407 C   0  0  0  0  0  0  0  0  0  0  0  0
   46.8913  -15.0291   39.8018 C   0  0  0  0  0  0  0  0  0  0  0  0
   43.9264  -17.2688   39.3895 C   0  0  0  0  0  0  0  0  0  0  0  0
   43.3575  -18.4189   40.2416 C   0  0  0  0  0  0  0  0  0  0  0  0
  4  3  2  0  0  0
  4  5  1  0  0  0
  3  2  1  0  0  0
  5  6  2  0  0  0
  2  1  2  0  0  0
  6  1  1  0  0  0
  6 14  1  0  0  0
  1 13  1  0  0  0
 22 21  1  0  0  0
 21 18  1  0  0  0
 13 15  1  0  0  0
 13 12  1  0  0  0
 14  7  1  0  0  0
 15 16  1  0  0  0
 12  7  2  0  0  0
 12 11  1  0  0  0
 18 16  1  0  0  0
 18 19  1  0  0  0
 16 17  1  0  0  0
  7  8  1  0  0  0
 20 19  1  0  0  0
 11 10  2  0  0  0
  8  9  2  0  0  0
 10  9  1  0  0  0
M  END
> <minimizedAffinity>
-7.62464

$$$$
6EQP_BUW_A_601


 22 24  0  0  0  0  0  0  0  0999 V2000
   43.0691  -16.6601   43.5830 C   0  0  0  0  0  0  0  0  0  0  0  0
   44.3337  -17.0617   44.0320 C   0  0  0  0  0  0  0  0  0  0  0  0
   44.5425  -18.3618   44.4876 C   0  0  0  0  0  0  0  0  0  0  0  0
   43.4889  -19.2722   44.5039 C   0  0  0  0  0  0  0  0  0  0  0  0
   42.2276  -18.8840   44.0606 C   0  0  0  0  0  0  0  0  0  0  0  0
   42.0164  -17.5866   43.5990 C   0  0  0  0  0  0  0  0  0  0  0  0
   40.4909  -15.4282   43.5848 C   0  0  0  0  0  0  0  0  0  0  0  0
   39.3415  -14.7794   44.0343 C   0  0  0  0  0  0  0  0  0  0  0  0
   39.4113  -13.4527   44.4617 C   0  0  0  0  0  0  0  0  0  0  0  0
   40.6306  -12.7775   44.4385 C   0  0  0  0  0  0  0  0  0  0  0  0
   41.7828  -13.4228   43.9889 C   0  0  0  0  0  0  0  0  0  0  0  0
   41.7197  -14.7531   43.5679 C   0  0  0  0  0  0  0  0  0  0  0  0
   42.8404  -15.3916   43.1169 N   0  0  0  0  0  0  0  0  0  0  0  0
   40.3992  -17.1165   43.0415 S   0  0  0  0  0  0  0  0  0  0  0  0
   43.8758  -14.6326   42.3924 C   0  0  0  0  0  0  0  0  0  0  0  0
   44.4461  -15.2756   41.0939 C   0  0  0  0  0  0  0  0  0  0  0  0
   43.4836  -15.0420   39.9024 C   0  0  0  0  0  0  0  0  0  0  0  0
   45.9054  -14.8999   40.8325 N   0  0  0  0  0  0  0  0  0  0  0  0
   46.6684  -14.7357   42.1428 C   0  0  0  0  0  0  0  0  0  0  0  0
   47.3131  -13.3647   42.4043 C   0  0  0  0  0  0  0  0  0  0  0  0
   45.9663  -13.6680   39.9425 C   0  0  0  0  0  0  0  0  0  0  0  0
   46.8760  -13.8099   38.7077 C   0  0  0  0  0  0  0  0  0  0  0  0
  4  3  2  0  0  0
  4  5  1  0  0  0
  3  2  1  0  0  0
  5  6  2  0  0  0
  2  1  2  0  0  0
  6  1  1  0  0  0
  6 14  1  0  0  0
  1 13  1  0  0  0
 22 21  1  0  0  0
 21 18  1  0  0  0
 13 15  1  0  0  0
 13 12  1  0  0  0
 14  7  1  0  0  0
 15 16  1  0  0  0
 12  7  2  0  0  0
 12 11  1  0  0  0
 18 16  1  0  0  0
 18 19  1  0  0  0
 16 17  1  0  0  0
  7  8  1  0  0  0
 20 19  1  0  0  0
 11 10  2  0  0  0
  8  9  2  0  0  0
 10  9  1  0  0  0
M  END
> <minimizedAffinity>
-7.59032

$$$$
6EQP_BUW_A_601


 22 24  0  0  0  0  0  0  0  0999 V2000
   42.2726  -20.9742   42.1365 C   0  0  0  0  0  0  0  0  0  0  0  0
   43.1586  -20.8112   41.0639 C   0  0  0  0  0  0  0  0  0  0  0  0
   42.6833  -20.7628   39.7550 C   0  0  0  0  0  0  0  0  0  0  0  0
   41.3187  -20.8816   39.5042 C   0  0  0  0  0  0  0  0  0  0  0  0
   40.4289  -21.0446   40.5625 C   0  0  0  0  0  0  0  0  0  0  0  0
   40.8998  -21.0878   41.8729 C   0  0  0  0  0  0  0  0  0  0  0  0
   40.8261  -22.2428   44.2491 C   0  0  0  0  0  0  0  0  0  0  0  0
   40.3012  -23.2365   45.0743 C   0  0  0  0  0  0  0  0  0  0  0  0
   41.1487  -23.9800   45.8970 C   0  0  0  0  0  0  0  0  0  0  0  0
   42.5196  -23.7279   45.8927 C   0  0  0  0  0  0  0  0  0  0  0  0
   43.0489  -22.7341   45.0689 C   0  0  0  0  0  0  0  0  0  0  0  0
   42.2058  -21.9929   44.2378 C   0  0  0  0  0  0  0  0  0  0  0  0
   42.7127  -21.0110   43.4341 N   0  0  0  0  0  0  0  0  0  0  0  0
   39.7454  -21.2983   43.2033 S   0  0  0  0  0  0  0  0  0  0  0  0
   43.8764  -20.2245   43.8815 C   0  0  0  0  0  0  0  0  0  0  0  0
   43.5875  -18.9644   44.7494 C   0  0  0  0  0  0  0  0  0  0  0  0
   44.0130  -19.2063   46.2194 C   0  0  0  0  0  0  0  0  0  0  0  0
   44.1188  -17.6737   44.1241 N   0  0  0  0  0  0  0  0  0  0  0  0
   43.1445  -17.1318   43.0835 C   0  0  0  0  0  0  0  0  0  0  0  0
   41.6527  -17.4290   43.3071 C   0  0  0  0  0  0  0  0  0  0  0  0
   45.5174  -17.9081   43.5744 C   0  0  0  0  0  0  0  0  0  0  0  0
   46.6397  -17.1797   44.3373 C   0  0  0  0  0  0  0  0  0  0  0  0
  4  3  2  0  0  0
  4  5  1  0  0  0
  3  2  1  0  0  0
  5  6  2  0  0  0
  2  1  2  0  0  0
  6  1  1  0  0  0
  6 14  1  0  0  0
  1 13  1  0  0  0
 22 21  1  0  0  0
 21 18  1  0  0  0
 13 15  1  0  0  0
 13 12  1  0  0  0
 14  7  1  0  0  0
 15 16  1  0  0  0
 12  7  2  0  0  0
 12 11  1  0  0  0
 18 16  1  0  0  0
 18 19  1  0  0  0
 16 17  1  0  0  0
  7  8  1  0  0  0
 20 19  1  0  0  0
 11 10  2  0  0  0
  8  9  2  0  0  0
 10  9  1  0  0  0
M  END
> <minimizedAffinity>
-7.55683

$$$$
6EQP_BUW_A_601


 22 24  0  0  0  0  0  0  0  0999 V2000
   42.3867  -16.2581   41.8225 C   0  0  0  0  0  0  0  0  0  0  0  0
   42.3262  -17.1590   40.7516 C   0  0  0  0  0  0  0  0  0  0  0  0
   43.0748  -16.9371   39.5976 C   0  0  0  0  0  0  0  0  0  0  0  0
   43.8876  -15.8106   39.4999 C   0  0  0  0  0  0  0  0  0  0  0  0
   43.9551  -14.9081   40.5578 C   0  0  0  0  0  0  0  0  0  0  0  0
   43.2124  -15.1295   41.7155 C   0  0  0  0  0  0  0  0  0  0  0  0
   41.6346  -14.1462   43.5942 C   0  0  0  0  0  0  0  0  0  0  0  0
   40.9528  -13.0513   44.1238 C   0  0  0  0  0  0  0  0  0  0  0  0
   39.6325  -13.1929   44.5534 C   0  0  0  0  0  0  0  0  0  0  0  0
   38.9968  -14.4293   44.4525 C   0  0  0  0  0  0  0  0  0  0  0  0
   39.6757  -15.5275   43.9238 C   0  0  0  0  0  0  0  0  0  0  0  0
   40.9944  -15.3889   43.4849 C   0  0  0  0  0  0  0  0  0  0  0  0
   41.6714  -16.4602   42.9741 N   0  0  0  0  0  0  0  0  0  0  0  0
   43.3146  -13.9632   43.0482 S   0  0  0  0  0  0  0  0  0  0  0  0
   41.4026  -17.8134   43.4933 C   0  0  0  0  0  0  0  0  0  0  0  0
   42.5983  -18.8104   43.5233 C   0  0  0  0  0  0  0  0  0  0  0  0
   43.6780  -18.3358   44.5281 C   0  0  0  0  0  0  0  0  0  0  0  0
   42.1582  -20.2663   43.6833 N   0  0  0  0  0  0  0  0  0  0  0  0
   43.3198  -21.1381   44.1486 C   0  0  0  0  0  0  0  0  0  0  0  0
   43.0497  -22.0820   45.3318 C   0  0  0  0  0  0  0  0  0  0  0  0
   41.5196  -20.7539   42.3919 C   0  0  0  0  0  0  0  0  0  0  0  0
   40.3077  -21.6849   42.5841 C   0  0  0  0  0  0  0  0  0  0  0  0
  4  3  2  0  0  0
  4  5  1  0  0  0
  3  2  1  0  0  0
  5  6  2  0  0  0
  2  1  2  0  0  0
  6  1  1  0  0  0
  6 14  1  0  0  0
  1 13  1  0  0  0
 22 21  1  0  0  0
 21 18  1  0  0  0
 13 15  1  0  0  0
 13 12  1  0  0  0
 14  7  1  0  0  0
 15 16  1  0  0  0
 12  7  2  0  0  0
 12 11  1  0  0  0
 18 16  1  0  0  0
 18 19  1  0  0  0
 16 17  1  0  0  0
  7  8  1  0  0  0
 20 19  1  0  0  0
 11 10  2  0  0  0
  8  9  2  0  0  0
 10  9  1  0  0  0
M  END
> <minimizedAffinity>
-7.54138

$$$$
6EQP_BUW_A_601


 22 24  0  0  0  0  0  0  0  0999 V2000
   42.5118  -19.2704   41.6978 C   0  0  0  0  0  0  0  0  0  0  0  0
   43.7306  -18.6071   41.5067 C   0  0  0  0  0  0  0  0  0  0  0  0
   44.5736  -18.9650   40.4566 C   0  0  0  0  0  0  0  0  0  0  0  0
   44.2096  -19.9924   39.5898 C   0  0  0  0  0  0  0  0  0  0  0  0
   43.0009  -20.6590   39.7705 C   0  0  0  0  0  0  0  0  0  0  0  0
   42.1528  -20.3002   40.8159 C   0  0  0  0  0  0  0  0  0  0  0  0
   40.5821  -21.0677   42.7983 C   0  0  0  0  0  0  0  0  0  0  0  0
   40.0236  -22.1072   43.5409 C   0  0  0  0  0  0  0  0  0  0  0  0
   39.9935  -22.0314   44.9342 C   0  0  0  0  0  0  0  0  0  0  0  0
   40.5220  -20.9160   45.5818 C   0  0  0  0  0  0  0  0  0  0  0  0
   41.0813  -19.8735   44.8425 C   0  0  0  0  0  0  0  0  0  0  0  0
   41.1211  -19.9483   43.4483 C   0  0  0  0  0  0  0  0  0  0  0  0
   41.6582  -18.9286   42.7142 N   0  0  0  0  0  0  0  0  0  0  0  0
   40.6191  -21.1668   41.0255 S   0  0  0  0  0  0  0  0  0  0  0  0
   41.5333  -17.5384   43.1883 C   0  0  0  0  0  0  0  0  0  0  0  0
   40.4859  -16.6373   42.4703 C   0  0  0  0  0  0  0  0  0  0  0  0
   39.0771  -17.2784   42.5395 C   0  0  0  0  0  0  0  0  0  0  0  0
   40.5552  -15.1741   42.9101 N   0  0  0  0  0  0  0  0  0  0  0  0
   42.0001  -14.7415   43.1360 C   0  0  0  0  0  0  0  0  0  0  0  0
   42.2843  -13.2307   43.1157 C   0  0  0  0  0  0  0  0  0  0  0  0
   39.6664  -14.9614   44.1258 C   0  0  0  0  0  0  0  0  0  0  0  0
   38.7072  -13.7609   44.0202 C   0  0  0  0  0  0  0  0  0  0  0  0
  4  3  2  0  0  0
  4  5  1  0  0  0
  3  2  1  0  0  0
  5  6  2  0  0  0
  2  1  2  0  0  0
  6  1  1  0  0  0
  6 14  1  0  0  0
  1 13  1  0  0  0
 22 21  1  0  0  0
 21 18  1  0  0  0
 13 15  1  0  0  0
 13 12  1  0  0  0
 14  7  1  0  0  0
 15 16  1  0  0  0
 12  7  2  0  0  0
 12 11  1  0  0  0
 18 16  1  0  0  0
 18 19  1  0  0  0
 16 17  1  0  0  0
  7  8  1  0  0  0
 20 19  1  0  0  0
 11 10  2  0  0  0
  8  9  2  0  0  0
 10  9  1  0  0  0
M  END
> <minimizedAffinity>
-7.26758

$$$$
6EQP_BUW_A_601


 22 24  0  0  0  0  0  0  0  0999 V2000
   42.9423  -17.3769   41.9065 C   0  0  0  0  0  0  0  0  0  0  0  0
   42.3096  -16.3713   41.1647 C   0  0  0  0  0  0  0  0  0  0  0  0
   43.0208  -15.2499   40.7426 C   0  0  0  0  0  0  0  0  0  0  0  0
   44.3701  -15.1197   41.0617 C   0  0  0  0  0  0  0  0  0  0  0  0
   45.0092  -16.1126   41.7991 C   0  0  0  0  0  0  0  0  0  0  0  0
   44.3027  -17.2379   42.2180 C   0  0  0  0  0  0  0  0  0  0  0  0
   43.7442  -18.9467   44.1555 C   0  0  0  0  0  0  0  0  0  0  0  0
   43.9370  -19.3562   45.4743 C   0  0  0  0  0  0  0  0  0  0  0  0
   42.8414  -19.7172   46.2600 C   0  0  0  0  0  0  0  0  0  0  0  0
   41.5552  -19.6679   45.7250 C   0  0  0  0  0  0  0  0  0  0  0  0
   41.3580  -19.2592   44.4057 C   0  0  0  0  0  0  0  0  0  0  0  0
   42.4504  -18.8892   43.6179 C   0  0  0  0  0  0  0  0  0  0  0  0
   42.2692  -18.4963   42.3218 N   0  0  0  0  0  0  0  0  0  0  0  0
   45.1400  -18.4878   43.1581 S   0  0  0  0  0  0  0  0  0  0  0  0
   41.1876  -19.0942   41.5184 C   0  0  0  0  0  0  0  0  0  0  0  0
   41.4808  -20.4685   40.8478 C   0  0  0  0  0  0  0  0  0  0  0  0
   40.6456  -20.6321   39.5531 C   0  0  0  0  0  0  0  0  0  0  0  0
   42.9760  -20.7520   40.6955 N   0  0  0  0  0  0  0  0  0  0  0  0
   43.4448  -20.4530   39.2753 C   0  0  0  0  0  0  0  0  0  0  0  0
   44.4439  -19.2974   39.1023 C   0  0  0  0  0  0  0  0  0  0  0  0
   43.2763  -22.1748   41.1412 C   0  0  0  0  0  0  0  0  0  0  0  0
   43.4653  -22.3475   42.6600 C   0  0  0  0  0  0  0  0  0  0  0  0
  4  3  2  0  0  0
  4  5  1  0  0  0
  3  2  1  0  0  0
  5  6  2  0  0  0
  2  1  2  0  0  0
  6  1  1  0  0  0
  6 14  1  0  0  0
  1 13  1  0  0  0
 22 21  1  0  0  0
 21 18  1  0  0  0
 13 15  1  0  0  0
 13 12  1  0  0  0
 14  7  1  0  0  0
 15 16  1  0  0  0
 12  7  2  0  0  0
 12 11  1  0  0  0
 18 16  1  0  0  0
 18 19  1  0  0  0
 16 17  1  0  0  0
  7  8  1  0  0  0
 20 19  1  0  0  0
 11 10  2  0  0  0
  8  9  2  0  0  0
 10  9  1  0  0  0
M  END
> <minimizedAffinity>
-7.26093

$$$$
