6CZB_UTP_A_302


 36 37  0  0  0  0  0  0  0  0999 V2000
   -5.5028  -39.7698   19.8733 C   0  0  0  0  0  0  0  0  0  0  0  0
   -4.2666  -39.5064   20.5007 C   0  0  0  0  0  0  0  0  0  0  0  0
   -3.3671  -38.4723   19.8167 O   0  0  0  0  0  0  0  0  0  0  0  0
   -2.6408  -38.0138   20.8512 C   0  0  0  0  0  0  0  0  0  0  0  0
   -3.7797  -37.8086   21.9748 C   0  0  0  0  0  0  0  0  0  0  0  0
   -3.2386  -37.6515   23.3231 O   0  0  0  0  0  0  0  0  0  0  0  0
   -4.5313  -38.8899   21.9072 C   0  0  0  0  0  0  0  0  0  0  0  0
   -4.1471  -39.8872   22.9464 O   0  0  0  0  0  0  0  0  0  0  0  0
   -2.7284  -38.4415   23.5609 H   0  0  0  0  0  0  0  0  0  0  0  0
   -3.2170  -40.1359   22.8277 H   0  0  0  0  0  0  0  0  0  0  0  0
   -1.8691  -36.8206   20.5895 N   0  0  0  0  0  0  0  0  0  0  0  0
   -2.4899  -35.7152   20.1877 C   0  0  0  0  0  0  0  0  0  0  0  0
   -0.5234  -36.7779   20.7673 C   0  0  0  0  0  0  0  0  0  0  0  0
    0.0773  -37.7378   21.1362 O   0  0  0  0  0  0  0  0  0  0  0  0
    0.1673  -35.6191   20.5273 N   0  0  0  0  0  0  0  0  0  0  0  0
   -0.4602  -34.5357   20.1124 C   0  0  0  0  0  0  0  0  0  0  0  0
    0.1394  -33.5268   19.8979 O   0  0  0  0  0  0  0  0  0  0  0  0
   -1.8101  -34.5726   19.9432 C   0  0  0  0  0  0  0  0  0  0  0  0
    1.1417  -35.5949   20.6659 H   0  0  0  0  0  0  0  0  0  0  0  0
   -6.5606  -39.3002   20.6790 O   0  0  0  0  0  0  0  0  0  0  0  0
   -7.6050  -38.0254   20.2737 P   0  0  0  0  0  0  0  0  0  0  0  0
   -8.8246  -38.3091   19.3950 O   0  0  0  0  0  0  0  0  0  0  0  0
   -6.7511  -36.9618   19.6137 O   0  0  0  0  0  0  0  0  0  0  0  0
   -7.3089  -36.2088   19.3633 H   0  0  0  0  0  0  0  0  0  0  0  0
   -8.1936  -37.5124   21.7408 O   0  0  0  0  0  0  0  0  0  0  0  0
   -8.4919  -35.9404   22.0482 P   0  0  0  0  0  0  0  0  0  0  0  0
   -9.3331  -35.8476   23.3016 O   0  0  0  0  0  0  0  0  0  0  0  0
   -9.2307  -35.4016   20.8410 O   0  0  0  0  0  0  0  0  0  0  0  0
  -10.1874  -36.2815   23.1505 H   0  0  0  0  0  0  0  0  0  0  0  0
   -7.0185  -35.2097   22.2611 O   0  0  0  0  0  0  0  0  0  0  0  0
   -6.4766  -33.7846   21.6114 P   0  0  0  0  0  0  0  0  0  0  0  0
   -7.0605  -33.7988   20.2120 O   0  0  0  0  0  0  0  0  0  0  0  0
   -6.8543  -32.5007   22.2923 O   0  0  0  0  0  0  0  0  0  0  0  0
   -4.9661  -33.8083   21.6946 O   0  0  0  0  0  0  0  0  0  0  0  0
   -8.0289  -33.7818   20.2656 H   0  0  0  0  0  0  0  0  0  0  0  0
   -4.6317  -34.6153   21.2728 H   0  0  0  0  0  0  0  0  0  0  0  0
 21 22  2  0  0  0
 21 23  1  0  0  0
 21 25  1  0  0  0
 21 20  1  0  0  0
 25 26  1  0  0  0
 20  1  1  0  0  0
 26 27  1  0  0  0
 26 28  2  0  0  0
 26 30  1  0  0  0
 30 31  1  0  0  0
 31 32  1  0  0  0
 31 33  2  0  0  0
 31 34  1  0  0  0
  1  2  1  0  0  0
  2  3  1  0  0  0
  2  7  1  0  0  0
  3  4  1  0  0  0
  4  5  1  0  0  0
  4 11  1  0  0  0
  5  6  1  0  0  0
  5  7  1  0  0  0
  7  8  1  0  0  0
 11 12  1  0  0  0
 11 13  1  0  0  0
 12 18  2  0  0  0
 13 14  2  0  0  0
 13 15  1  0  0  0
 15 16  1  0  0  0
 16 17  2  0  0  0
 16 18  1  0  0  0
 23 24  1  0  0  0
 27 29  1  0  0  0
 32 35  1  0  0  0
 34 36  1  0  0  0
  6  9  1  0  0  0
  8 10  1  0  0  0
 15 19  1  0  0  0
M  END
> <minimizedAffinity>
-9.30670

$$$$
6CZB_UTP_A_302


 36 37  0  0  0  0  0  0  0  0999 V2000
   -3.0278  -38.3013   21.2675 C   0  0  0  0  0  0  0  0  0  0  0  0
   -4.0090  -38.5279   20.2790 C   0  0  0  0  0  0  0  0  0  0  0  0
   -4.4549  -39.9809   20.0882 O   0  0  0  0  0  0  0  0  0  0  0  0
   -5.6973  -39.8243   19.5985 C   0  0  0  0  0  0  0  0  0  0  0  0
   -6.2848  -38.6844   20.5769 C   0  0  0  0  0  0  0  0  0  0  0  0
   -7.5012  -38.0561   20.0660 O   0  0  0  0  0  0  0  0  0  0  0  0
   -5.3206  -37.7915   20.6863 C   0  0  0  0  0  0  0  0  0  0  0  0
   -5.5323  -36.6437   19.7590 O   0  0  0  0  0  0  0  0  0  0  0  0
   -7.3157  -37.6421   19.2086 H   0  0  0  0  0  0  0  0  0  0  0  0
   -5.5662  -36.9681   18.8454 H   0  0  0  0  0  0  0  0  0  0  0  0
   -6.5060  -41.0210   19.5585 N   0  0  0  0  0  0  0  0  0  0  0  0
   -7.2253  -41.3602   20.6244 C   0  0  0  0  0  0  0  0  0  0  0  0
   -6.5811  -41.8048   18.4519 C   0  0  0  0  0  0  0  0  0  0  0  0
   -5.9648  -41.5379   17.4684 O   0  0  0  0  0  0  0  0  0  0  0  0
   -7.3769  -42.9201   18.4498 N   0  0  0  0  0  0  0  0  0  0  0  0
   -8.0710  -43.2532   19.5207 C   0  0  0  0  0  0  0  0  0  0  0  0
   -8.7609  -44.2265   19.5233 O   0  0  0  0  0  0  0  0  0  0  0  0
   -8.0058  -42.4640   20.6276 C   0  0  0  0  0  0  0  0  0  0  0  0
   -7.4313  -43.4785   17.6408 H   0  0  0  0  0  0  0  0  0  0  0  0
   -1.7497  -38.2520   20.6739 O   0  0  0  0  0  0  0  0  0  0  0  0
   -0.4488  -37.3166   21.2332 P   0  0  0  0  0  0  0  0  0  0  0  0
    0.7239  -38.0086   21.9304 O   0  0  0  0  0  0  0  0  0  0  0  0
   -1.0360  -36.2732   22.1620 O   0  0  0  0  0  0  0  0  0  0  0  0
   -0.3249  -35.7117   22.5082 H   0  0  0  0  0  0  0  0  0  0  0  0
    0.1675  -36.6272   19.8523 O   0  0  0  0  0  0  0  0  0  0  0  0
   -0.7422  -35.6944   18.8742 P   0  0  0  0  0  0  0  0  0  0  0  0
   -1.9461  -36.4952   18.4307 O   0  0  0  0  0  0  0  0  0  0  0  0
    0.1389  -35.3184   17.7013 O   0  0  0  0  0  0  0  0  0  0  0  0
   -1.6523  -37.2603   17.9119 H   0  0  0  0  0  0  0  0  0  0  0  0
   -1.1983  -34.3732   19.7667 O   0  0  0  0  0  0  0  0  0  0  0  0
   -2.7188  -33.9540   20.2756 P   0  0  0  0  0  0  0  0  0  0  0  0
   -3.4992  -33.8461   18.9799 O   0  0  0  0  0  0  0  0  0  0  0  0
   -3.4391  -34.8815   21.2114 O   0  0  0  0  0  0  0  0  0  0  0  0
   -2.5808  -32.6734   21.0693 O   0  0  0  0  0  0  0  0  0  0  0  0
   -3.5309  -34.7142   18.5483 H   0  0  0  0  0  0  0  0  0  0  0  0
   -2.1201  -32.0090   20.5334 H   0  0  0  0  0  0  0  0  0  0  0  0
 21 22  2  0  0  0
 21 23  1  0  0  0
 21 25  1  0  0  0
 21 20  1  0  0  0
 25 26  1  0  0  0
 20  1  1  0  0  0
 26 27  1  0  0  0
 26 28  2  0  0  0
 26 30  1  0  0  0
 30 31  1  0  0  0
 31 32  1  0  0  0
 31 33  2  0  0  0
 31 34  1  0  0  0
  1  2  1  0  0  0
  2  3  1  0  0  0
  2  7  1  0  0  0
  3  4  1  0  0  0
  4  5  1  0  0  0
  4 11  1  0  0  0
  5  6  1  0  0  0
  5  7  1  0  0  0
  7  8  1  0  0  0
 11 12  1  0  0  0
 11 13  1  0  0  0
 12 18  2  0  0  0
 13 14  2  0  0  0
 13 15  1  0  0  0
 15 16  1  0  0  0
 16 17  2  0  0  0
 16 18  1  0  0  0
 23 24  1  0  0  0
 27 29  1  0  0  0
 32 35  1  0  0  0
 34 36  1  0  0  0
  6  9  1  0  0  0
  8 10  1  0  0  0
 15 19  1  0  0  0
M  END
> <minimizedAffinity>
-9.16741

$$$$
6CZB_UTP_A_302


 36 37  0  0  0  0  0  0  0  0999 V2000
   -3.9326  -35.5670   22.0687 C   0  0  0  0  0  0  0  0  0  0  0  0
   -5.0643  -36.1973   21.5091 C   0  0  0  0  0  0  0  0  0  0  0  0
   -4.7930  -37.2024   20.3855 O   0  0  0  0  0  0  0  0  0  0  0  0
   -5.8612  -38.0135   20.4795 C   0  0  0  0  0  0  0  0  0  0  0  0
   -5.9467  -38.2457   22.0733 C   0  0  0  0  0  0  0  0  0  0  0  0
   -7.2252  -38.8045   22.5075 O   0  0  0  0  0  0  0  0  0  0  0  0
   -5.7642  -37.0537   22.6070 C   0  0  0  0  0  0  0  0  0  0  0  0
   -7.0613  -36.4100   22.9608 O   0  0  0  0  0  0  0  0  0  0  0  0
   -7.9430  -38.2015   22.2583 H   0  0  0  0  0  0  0  0  0  0  0  0
   -7.6076  -36.3238   22.1639 H   0  0  0  0  0  0  0  0  0  0  0  0
   -5.7787  -39.2417   19.7228 N   0  0  0  0  0  0  0  0  0  0  0  0
   -4.9174  -40.1835   20.0965 C   0  0  0  0  0  0  0  0  0  0  0  0
   -6.5758  -39.4836   18.6501 C   0  0  0  0  0  0  0  0  0  0  0  0
   -7.3708  -38.6766   18.2824 O   0  0  0  0  0  0  0  0  0  0  0  0
   -6.4791  -40.6709   17.9732 N   0  0  0  0  0  0  0  0  0  0  0  0
   -5.6076  -41.5883   18.3453 C   0  0  0  0  0  0  0  0  0  0  0  0
   -5.5179  -42.6210   17.7546 O   0  0  0  0  0  0  0  0  0  0  0  0
   -4.8147  -41.3529   19.4260 C   0  0  0  0  0  0  0  0  0  0  0  0
   -7.0660  -40.8410   17.2013 H   0  0  0  0  0  0  0  0  0  0  0  0
   -2.9025  -35.4882   21.1089 O   0  0  0  0  0  0  0  0  0  0  0  0
   -2.5022  -34.1003   20.2180 P   0  0  0  0  0  0  0  0  0  0  0  0
   -2.4501  -32.7461   20.9275 O   0  0  0  0  0  0  0  0  0  0  0  0
   -3.4894  -34.0248   19.0709 O   0  0  0  0  0  0  0  0  0  0  0  0
   -3.2982  -33.2421   18.5308 H   0  0  0  0  0  0  0  0  0  0  0  0
   -0.9605  -34.4059   19.6777 O   0  0  0  0  0  0  0  0  0  0  0  0
   -0.6035  -35.7249   18.7905 P   0  0  0  0  0  0  0  0  0  0  0  0
    0.1593  -35.2844   17.5611 O   0  0  0  0  0  0  0  0  0  0  0  0
   -1.9264  -36.3651   18.4250 O   0  0  0  0  0  0  0  0  0  0  0  0
   -0.4054  -34.7128   17.0178 H   0  0  0  0  0  0  0  0  0  0  0  0
    0.3257  -36.7067   19.7512 O   0  0  0  0  0  0  0  0  0  0  0  0
    0.0045  -37.2414   21.2866 P   0  0  0  0  0  0  0  0  0  0  0  0
   -1.3095  -37.9812   21.1269 O   0  0  0  0  0  0  0  0  0  0  0  0
    1.0033  -38.1442   21.9515 O   0  0  0  0  0  0  0  0  0  0  0  0
   -0.0318  -36.0208   22.1799 O   0  0  0  0  0  0  0  0  0  0  0  0
   -1.1824  -38.7428   20.5397 H   0  0  0  0  0  0  0  0  0  0  0  0
   -0.6607  -35.3757   21.8205 H   0  0  0  0  0  0  0  0  0  0  0  0
 21 22  2  0  0  0
 21 23  1  0  0  0
 21 25  1  0  0  0
 21 20  1  0  0  0
 25 26  1  0  0  0
 20  1  1  0  0  0
 26 27  1  0  0  0
 26 28  2  0  0  0
 26 30  1  0  0  0
 30 31  1  0  0  0
 31 32  1  0  0  0
 31 33  2  0  0  0
 31 34  1  0  0  0
  1  2  1  0  0  0
  2  3  1  0  0  0
  2  7  1  0  0  0
  3  4  1  0  0  0
  4  5  1  0  0  0
  4 11  1  0  0  0
  5  6  1  0  0  0
  5  7  1  0  0  0
  7  8  1  0  0  0
 11 12  1  0  0  0
 11 13  1  0  0  0
 12 18  2  0  0  0
 13 14  2  0  0  0
 13 15  1  0  0  0
 15 16  1  0  0  0
 16 17  2  0  0  0
 16 18  1  0  0  0
 23 24  1  0  0  0
 27 29  1  0  0  0
 32 35  1  0  0  0
 34 36  1  0  0  0
  6  9  1  0  0  0
  8 10  1  0  0  0
 15 19  1  0  0  0
M  END
> <minimizedAffinity>
-8.99374

$$$$
6CZB_UTP_A_302


 36 37  0  0  0  0  0  0  0  0999 V2000
   -6.2872  -34.6792   21.7440 C   0  0  0  0  0  0  0  0  0  0  0  0
   -7.0816  -35.8039   21.4356 C   0  0  0  0  0  0  0  0  0  0  0  0
   -6.6003  -36.6736   20.2701 O   0  0  0  0  0  0  0  0  0  0  0  0
   -7.1282  -37.8696   20.5844 C   0  0  0  0  0  0  0  0  0  0  0  0
   -6.7826  -37.9679   22.1568 C   0  0  0  0  0  0  0  0  0  0  0  0
   -7.5428  -39.0050   22.8511 O   0  0  0  0  0  0  0  0  0  0  0  0
   -7.0741  -36.7803   22.6501 C   0  0  0  0  0  0  0  0  0  0  0  0
   -8.4243  -36.7682   23.2818 O   0  0  0  0  0  0  0  0  0  0  0  0
   -8.4915  -38.8206   22.7684 H   0  0  0  0  0  0  0  0  0  0  0  0
   -9.0919  -37.0136   22.6223 H   0  0  0  0  0  0  0  0  0  0  0  0
   -6.6346  -38.9891   19.8158 N   0  0  0  0  0  0  0  0  0  0  0  0
   -7.4978  -39.7857   19.1923 C   0  0  0  0  0  0  0  0  0  0  0  0
   -5.3073  -39.2439   19.6823 C   0  0  0  0  0  0  0  0  0  0  0  0
   -4.4940  -38.5536   20.2119 O   0  0  0  0  0  0  0  0  0  0  0  0
   -4.8815  -40.3046   18.9266 N   0  0  0  0  0  0  0  0  0  0  0  0
   -5.7504  -41.0962   18.3285 C   0  0  0  0  0  0  0  0  0  0  0  0
   -5.3825  -42.0234   17.6739 O   0  0  0  0  0  0  0  0  0  0  0  0
   -7.0808  -40.8373   18.4519 C   0  0  0  0  0  0  0  0  0  0  0  0
   -3.9172  -40.4776   18.8291 H   0  0  0  0  0  0  0  0  0  0  0  0
   -4.9734  -35.0884   22.0521 O   0  0  0  0  0  0  0  0  0  0  0  0
   -3.6311  -34.9140   21.0284 P   0  0  0  0  0  0  0  0  0  0  0  0
   -3.1551  -33.5096   20.6529 O   0  0  0  0  0  0  0  0  0  0  0  0
   -3.9493  -35.6875   19.7648 O   0  0  0  0  0  0  0  0  0  0  0  0
   -3.2057  -35.6160   19.1461 H   0  0  0  0  0  0  0  0  0  0  0  0
   -2.3888  -35.6181   21.8788 O   0  0  0  0  0  0  0  0  0  0  0  0
   -1.2666  -36.5499   21.1530 P   0  0  0  0  0  0  0  0  0  0  0  0
   -1.9755  -37.5903   20.3150 O   0  0  0  0  0  0  0  0  0  0  0  0
   -0.4568  -37.1867   22.2631 O   0  0  0  0  0  0  0  0  0  0  0  0
   -2.5024  -38.1656   20.8915 H   0  0  0  0  0  0  0  0  0  0  0  0
   -0.3514  -35.5416   20.2064 O   0  0  0  0  0  0  0  0  0  0  0  0
   -0.5994  -35.1142   18.6245 P   0  0  0  0  0  0  0  0  0  0  0  0
   -0.9609  -33.6444   18.7164 O   0  0  0  0  0  0  0  0  0  0  0  0
    0.5327  -35.2856   17.6531 O   0  0  0  0  0  0  0  0  0  0  0  0
   -1.6804  -36.0253   18.0858 O   0  0  0  0  0  0  0  0  0  0  0  0
   -0.2069  -33.1475   19.0708 H   0  0  0  0  0  0  0  0  0  0  0  0
   -2.4603  -35.9766   18.6604 H   0  0  0  0  0  0  0  0  0  0  0  0
 21 22  2  0  0  0
 21 23  1  0  0  0
 21 25  1  0  0  0
 21 20  1  0  0  0
 25 26  1  0  0  0
 20  1  1  0  0  0
 26 27  1  0  0  0
 26 28  2  0  0  0
 26 30  1  0  0  0
 30 31  1  0  0  0
 31 32  1  0  0  0
 31 33  2  0  0  0
 31 34  1  0  0  0
  1  2  1  0  0  0
  2  3  1  0  0  0
  2  7  1  0  0  0
  3  4  1  0  0  0
  4  5  1  0  0  0
  4 11  1  0  0  0
  5  6  1  0  0  0
  5  7  1  0  0  0
  7  8  1  0  0  0
 11 12  1  0  0  0
 11 13  1  0  0  0
 12 18  2  0  0  0
 13 14  2  0  0  0
 13 15  1  0  0  0
 15 16  1  0  0  0
 16 17  2  0  0  0
 16 18  1  0  0  0
 23 24  1  0  0  0
 27 29  1  0  0  0
 32 35  1  0  0  0
 34 36  1  0  0  0
  6  9  1  0  0  0
  8 10  1  0  0  0
 15 19  1  0  0  0
M  END
> <minimizedAffinity>
-8.82672

$$$$
6CZB_UTP_A_302


 36 37  0  0  0  0  0  0  0  0999 V2000
   -4.8660  -36.9231   22.7794 C   0  0  0  0  0  0  0  0  0  0  0  0
   -6.1996  -37.1897   22.4029 C   0  0  0  0  0  0  0  0  0  0  0  0
   -7.2188  -37.2836   23.5425 O   0  0  0  0  0  0  0  0  0  0  0  0
   -8.3605  -36.9458   22.9176 C   0  0  0  0  0  0  0  0  0  0  0  0
   -7.8876  -35.6650   22.0589 C   0  0  0  0  0  0  0  0  0  0  0  0
   -8.8310  -35.2958   21.0058 O   0  0  0  0  0  0  0  0  0  0  0  0
   -6.7282  -36.0094   21.5335 C   0  0  0  0  0  0  0  0  0  0  0  0
   -6.8850  -36.4831   20.1287 O   0  0  0  0  0  0  0  0  0  0  0  0
   -8.9378  -36.0394   20.3921 H   0  0  0  0  0  0  0  0  0  0  0  0
   -7.4844  -37.2455   20.1096 H   0  0  0  0  0  0  0  0  0  0  0  0
   -9.4865  -36.6753   23.7817 N   0  0  0  0  0  0  0  0  0  0  0  0
   -9.3769  -35.7469   24.7275 C   0  0  0  0  0  0  0  0  0  0  0  0
  -10.6734  -37.3209   23.6442 C   0  0  0  0  0  0  0  0  0  0  0  0
  -10.8255  -38.1527   22.8055 O   0  0  0  0  0  0  0  0  0  0  0  0
  -11.7225  -37.0187   24.4720 N   0  0  0  0  0  0  0  0  0  0  0  0
  -11.5930  -36.1077   25.4169 C   0  0  0  0  0  0  0  0  0  0  0  0
  -12.5034  -35.8461   26.1423 O   0  0  0  0  0  0  0  0  0  0  0  0
  -10.4081  -35.4518   25.5504 C   0  0  0  0  0  0  0  0  0  0  0  0
  -12.5817  -37.4863   24.3605 H   0  0  0  0  0  0  0  0  0  0  0  0
   -4.0477  -36.8529   21.6331 O   0  0  0  0  0  0  0  0  0  0  0  0
   -3.6496  -38.1670   20.6357 P   0  0  0  0  0  0  0  0  0  0  0  0
   -4.7324  -38.7899   19.7527 O   0  0  0  0  0  0  0  0  0  0  0  0
   -3.0686  -39.2345   21.5405 O   0  0  0  0  0  0  0  0  0  0  0  0
   -2.8249  -40.0098   21.0109 H   0  0  0  0  0  0  0  0  0  0  0  0
   -2.5018  -37.5496   19.6045 O   0  0  0  0  0  0  0  0  0  0  0  0
   -1.0929  -36.9386   20.1489 P   0  0  0  0  0  0  0  0  0  0  0  0
   -0.1200  -36.8722   18.9930 O   0  0  0  0  0  0  0  0  0  0  0  0
   -0.6082  -37.8808   21.2310 O   0  0  0  0  0  0  0  0  0  0  0  0
    0.0581  -37.7688   18.6683 H   0  0  0  0  0  0  0  0  0  0  0  0
   -1.4271  -35.4246   20.7372 O   0  0  0  0  0  0  0  0  0  0  0  0
   -2.1265  -34.1475   19.9455 P   0  0  0  0  0  0  0  0  0  0  0  0
   -3.4786  -34.6957   19.5325 O   0  0  0  0  0  0  0  0  0  0  0  0
   -2.3220  -32.8625   20.6972 O   0  0  0  0  0  0  0  0  0  0  0  0
   -1.1968  -33.7677   18.8140 O   0  0  0  0  0  0  0  0  0  0  0  0
   -3.9971  -34.9079   20.3244 H   0  0  0  0  0  0  0  0  0  0  0  0
   -1.0141  -34.5493   18.2694 H   0  0  0  0  0  0  0  0  0  0  0  0
 21 22  2  0  0  0
 21 23  1  0  0  0
 21 25  1  0  0  0
 21 20  1  0  0  0
 25 26  1  0  0  0
 20  1  1  0  0  0
 26 27  1  0  0  0
 26 28  2  0  0  0
 26 30  1  0  0  0
 30 31  1  0  0  0
 31 32  1  0  0  0
 31 33  2  0  0  0
 31 34  1  0  0  0
  1  2  1  0  0  0
  2  3  1  0  0  0
  2  7  1  0  0  0
  3  4  1  0  0  0
  4  5  1  0  0  0
  4 11  1  0  0  0
  5  6  1  0  0  0
  5  7  1  0  0  0
  7  8  1  0  0  0
 11 12  1  0  0  0
 11 13  1  0  0  0
 12 18  2  0  0  0
 13 14  2  0  0  0
 13 15  1  0  0  0
 15 16  1  0  0  0
 16 17  2  0  0  0
 16 18  1  0  0  0
 23 24  1  0  0  0
 27 29  1  0  0  0
 32 35  1  0  0  0
 34 36  1  0  0  0
  6  9  1  0  0  0
  8 10  1  0  0  0
 15 19  1  0  0  0
M  END
> <minimizedAffinity>
-8.64402

$$$$
6CZB_UTP_A_302


 36 37  0  0  0  0  0  0  0  0999 V2000
   -3.6343  -38.2459   21.3267 C   0  0  0  0  0  0  0  0  0  0  0  0
   -4.5121  -38.5676   20.2697 C   0  0  0  0  0  0  0  0  0  0  0  0
   -4.8004  -40.0571   20.0587 O   0  0  0  0  0  0  0  0  0  0  0  0
   -6.0118  -40.0219   19.4762 C   0  0  0  0  0  0  0  0  0  0  0  0
   -6.7782  -38.9429   20.3981 C   0  0  0  0  0  0  0  0  0  0  0  0
   -8.0075  -38.4357   19.7923 O   0  0  0  0  0  0  0  0  0  0  0  0
   -5.9154  -37.9608   20.5715 C   0  0  0  0  0  0  0  0  0  0  0  0
   -6.1662  -36.8401   19.6211 O   0  0  0  0  0  0  0  0  0  0  0  0
   -7.7988  -38.0069   18.9477 H   0  0  0  0  0  0  0  0  0  0  0  0
   -6.0999  -37.1675   18.7104 H   0  0  0  0  0  0  0  0  0  0  0  0
   -6.6962  -41.2912   19.3863 N   0  0  0  0  0  0  0  0  0  0  0  0
   -7.4538  -41.6991   20.4003 C   0  0  0  0  0  0  0  0  0  0  0  0
   -6.6159  -42.0780   18.2821 C   0  0  0  0  0  0  0  0  0  0  0  0
   -5.9595  -41.7521   17.3433 O   0  0  0  0  0  0  0  0  0  0  0  0
   -7.2982  -43.2651   18.2304 N   0  0  0  0  0  0  0  0  0  0  0  0
   -8.0317  -43.6644   19.2512 C   0  0  0  0  0  0  0  0  0  0  0  0
   -8.6228  -44.6999   19.2107 O   0  0  0  0  0  0  0  0  0  0  0  0
   -8.1223  -42.8733   20.3549 C   0  0  0  0  0  0  0  0  0  0  0  0
   -7.2404  -43.8256   17.4231 H   0  0  0  0  0  0  0  0  0  0  0  0
   -2.3776  -37.8686   20.8102 O   0  0  0  0  0  0  0  0  0  0  0  0
   -2.0515  -36.4124   20.0019 P   0  0  0  0  0  0  0  0  0  0  0  0
   -1.6843  -36.4477   18.5174 O   0  0  0  0  0  0  0  0  0  0  0  0
   -0.9409  -35.7299   20.7744 O   0  0  0  0  0  0  0  0  0  0  0  0
   -0.7196  -34.8879   20.3466 H   0  0  0  0  0  0  0  0  0  0  0  0
   -3.4793  -35.5688   20.1116 O   0  0  0  0  0  0  0  0  0  0  0  0
   -3.6457  -34.2794   21.0934 P   0  0  0  0  0  0  0  0  0  0  0  0
   -2.5316  -33.3012   20.7942 O   0  0  0  0  0  0  0  0  0  0  0  0
   -3.5574  -34.8068   22.5103 O   0  0  0  0  0  0  0  0  0  0  0  0
   -1.6770  -33.7127   20.9969 H   0  0  0  0  0  0  0  0  0  0  0  0
   -5.1290  -33.6167   20.7607 O   0  0  0  0  0  0  0  0  0  0  0  0
   -6.5816  -33.9330   21.4932 P   0  0  0  0  0  0  0  0  0  0  0  0
   -6.8783  -32.6479   22.2414 O   0  0  0  0  0  0  0  0  0  0  0  0
   -7.7565  -34.2836   20.6264 O   0  0  0  0  0  0  0  0  0  0  0  0
   -6.3841  -35.1635   22.3511 O   0  0  0  0  0  0  0  0  0  0  0  0
   -6.9877  -31.9223   21.6070 H   0  0  0  0  0  0  0  0  0  0  0  0
   -5.6344  -35.0229   22.9503 H   0  0  0  0  0  0  0  0  0  0  0  0
 21 22  2  0  0  0
 21 23  1  0  0  0
 21 25  1  0  0  0
 21 20  1  0  0  0
 25 26  1  0  0  0
 20  1  1  0  0  0
 26 27  1  0  0  0
 26 28  2  0  0  0
 26 30  1  0  0  0
 30 31  1  0  0  0
 31 32  1  0  0  0
 31 33  2  0  0  0
 31 34  1  0  0  0
  1  2  1  0  0  0
  2  3  1  0  0  0
  2  7  1  0  0  0
  3  4  1  0  0  0
  4  5  1  0  0  0
  4 11  1  0  0  0
  5  6  1  0  0  0
  5  7  1  0  0  0
  7  8  1  0  0  0
 11 12  1  0  0  0
 11 13  1  0  0  0
 12 18  2  0  0  0
 13 14  2  0  0  0
 13 15  1  0  0  0
 15 16  1  0  0  0
 16 17  2  0  0  0
 16 18  1  0  0  0
 23 24  1  0  0  0
 27 29  1  0  0  0
 32 35  1  0  0  0
 34 36  1  0  0  0
  6  9  1  0  0  0
  8 10  1  0  0  0
 15 19  1  0  0  0
M  END
> <minimizedAffinity>
-8.59182

$$$$
6CZB_UTP_A_302


 36 37  0  0  0  0  0  0  0  0999 V2000
   -5.7170  -36.9016   23.4707 C   0  0  0  0  0  0  0  0  0  0  0  0
   -4.4878  -37.4917   23.1076 C   0  0  0  0  0  0  0  0  0  0  0  0
   -3.9824  -37.1879   21.6939 O   0  0  0  0  0  0  0  0  0  0  0  0
   -2.6540  -37.3366   21.8398 C   0  0  0  0  0  0  0  0  0  0  0  0
   -2.3940  -36.5453   23.2210 C   0  0  0  0  0  0  0  0  0  0  0  0
   -1.0920  -36.8369   23.8170 O   0  0  0  0  0  0  0  0  0  0  0  0
   -3.3627  -36.9308   24.0284 C   0  0  0  0  0  0  0  0  0  0  0  0
   -2.9097  -38.0156   24.9450 O   0  0  0  0  0  0  0  0  0  0  0  0
   -1.0275  -37.7865   24.0043 H   0  0  0  0  0  0  0  0  0  0  0  0
   -2.6071  -38.7749   24.4227 H   0  0  0  0  0  0  0  0  0  0  0  0
   -1.8494  -36.8551   20.7406 N   0  0  0  0  0  0  0  0  0  0  0  0
   -2.3564  -35.9537   19.9045 C   0  0  0  0  0  0  0  0  0  0  0  0
   -0.5720  -37.2725   20.5440 C   0  0  0  0  0  0  0  0  0  0  0  0
   -0.0686  -38.0701   21.2713 O   0  0  0  0  0  0  0  0  0  0  0  0
    0.1632  -36.7744   19.5006 N   0  0  0  0  0  0  0  0  0  0  0  0
   -0.3595  -35.8937   18.6695 C   0  0  0  0  0  0  0  0  0  0  0  0
    0.2768  -35.4621   17.7572 O   0  0  0  0  0  0  0  0  0  0  0  0
   -1.6358  -35.4659   18.8699 C   0  0  0  0  0  0  0  0  0  0  0  0
    1.0910  -37.0768   19.3700 H   0  0  0  0  0  0  0  0  0  0  0  0
   -6.1387  -36.0101   22.4627 O   0  0  0  0  0  0  0  0  0  0  0  0
   -7.7501  -35.7584   21.9935 P   0  0  0  0  0  0  0  0  0  0  0  0
   -8.0642  -34.6947   20.9400 O   0  0  0  0  0  0  0  0  0  0  0  0
   -8.5246  -35.4512   23.2591 O   0  0  0  0  0  0  0  0  0  0  0  0
   -9.4569  -35.2992   23.0387 H   0  0  0  0  0  0  0  0  0  0  0  0
   -8.2052  -37.2161   21.3378 O   0  0  0  0  0  0  0  0  0  0  0  0
   -7.3135  -37.9649   20.1982 P   0  0  0  0  0  0  0  0  0  0  0  0
   -6.3356  -36.9661   19.6208 O   0  0  0  0  0  0  0  0  0  0  0  0
   -8.2880  -38.4596   19.1497 O   0  0  0  0  0  0  0  0  0  0  0  0
   -6.8240  -36.2507   19.1843 H   0  0  0  0  0  0  0  0  0  0  0  0
   -6.5208  -39.2088   20.9561 O   0  0  0  0  0  0  0  0  0  0  0  0
   -5.4960  -40.3287   20.2910 P   0  0  0  0  0  0  0  0  0  0  0  0
   -4.3823  -39.4774   19.7128 O   0  0  0  0  0  0  0  0  0  0  0  0
   -4.9031  -41.3757   21.1893 O   0  0  0  0  0  0  0  0  0  0  0  0
   -6.3032  -41.1252   19.2895 O   0  0  0  0  0  0  0  0  0  0  0  0
   -3.9274  -39.0092   20.4303 H   0  0  0  0  0  0  0  0  0  0  0  0
   -6.7272  -40.5197   18.6613 H   0  0  0  0  0  0  0  0  0  0  0  0
 21 22  2  0  0  0
 21 23  1  0  0  0
 21 25  1  0  0  0
 21 20  1  0  0  0
 25 26  1  0  0  0
 20  1  1  0  0  0
 26 27  1  0  0  0
 26 28  2  0  0  0
 26 30  1  0  0  0
 30 31  1  0  0  0
 31 32  1  0  0  0
 31 33  2  0  0  0
 31 34  1  0  0  0
  1  2  1  0  0  0
  2  3  1  0  0  0
  2  7  1  0  0  0
  3  4  1  0  0  0
  4  5  1  0  0  0
  4 11  1  0  0  0
  5  6  1  0  0  0
  5  7  1  0  0  0
  7  8  1  0  0  0
 11 12  1  0  0  0
 11 13  1  0  0  0
 12 18  2  0  0  0
 13 14  2  0  0  0
 13 15  1  0  0  0
 15 16  1  0  0  0
 16 17  2  0  0  0
 16 18  1  0  0  0
 23 24  1  0  0  0
 27 29  1  0  0  0
 32 35  1  0  0  0
 34 36  1  0  0  0
  6  9  1  0  0  0
  8 10  1  0  0  0
 15 19  1  0  0  0
M  END
> <minimizedAffinity>
-8.51644

$$$$
6CZB_UTP_A_302


 36 37  0  0  0  0  0  0  0  0999 V2000
   -4.8691  -38.7291   22.7754 C   0  0  0  0  0  0  0  0  0  0  0  0
   -4.6168  -37.9480   21.6277 C   0  0  0  0  0  0  0  0  0  0  0  0
   -3.7379  -36.7100   21.8311 O   0  0  0  0  0  0  0  0  0  0  0  0
   -3.2078  -36.5459   20.6064 C   0  0  0  0  0  0  0  0  0  0  0  0
   -2.7896  -38.0586   20.2342 C   0  0  0  0  0  0  0  0  0  0  0  0
   -2.5070  -38.2462   18.8128 O   0  0  0  0  0  0  0  0  0  0  0  0
   -3.8169  -38.8011   20.5977 C   0  0  0  0  0  0  0  0  0  0  0  0
   -4.7042  -39.1090   19.4402 O   0  0  0  0  0  0  0  0  0  0  0  0
   -3.2953  -38.0220   18.2941 H   0  0  0  0  0  0  0  0  0  0  0  0
   -5.0288  -38.2813   19.0524 H   0  0  0  0  0  0  0  0  0  0  0  0
   -2.1112  -35.6088   20.5232 N   0  0  0  0  0  0  0  0  0  0  0  0
   -0.9405  -35.9218   21.0709 C   0  0  0  0  0  0  0  0  0  0  0  0
   -2.2248  -34.4203   19.8759 C   0  0  0  0  0  0  0  0  0  0  0  0
   -3.2488  -34.0986   19.3596 O   0  0  0  0  0  0  0  0  0  0  0  0
   -1.1531  -33.5698   19.8029 N   0  0  0  0  0  0  0  0  0  0  0  0
   -0.0034  -33.8866   20.3662 C   0  0  0  0  0  0  0  0  0  0  0  0
    0.9299  -33.1457   20.3084 O   0  0  0  0  0  0  0  0  0  0  0  0
    0.1165  -35.0814   21.0067 C   0  0  0  0  0  0  0  0  0  0  0  0
   -1.2421  -32.7136   19.3252 H   0  0  0  0  0  0  0  0  0  0  0  0
   -6.0635  -39.4596   22.6069 O   0  0  0  0  0  0  0  0  0  0  0  0
   -7.5836  -38.7821   22.2746 P   0  0  0  0  0  0  0  0  0  0  0  0
   -8.8306  -39.6634   22.3661 O   0  0  0  0  0  0  0  0  0  0  0  0
   -7.4952  -38.1856   20.8845 O   0  0  0  0  0  0  0  0  0  0  0  0
   -8.3467  -37.7844   20.6501 H   0  0  0  0  0  0  0  0  0  0  0  0
   -7.7559  -37.6045   23.4346 O   0  0  0  0  0  0  0  0  0  0  0  0
   -8.2228  -36.0887   23.0618 P   0  0  0  0  0  0  0  0  0  0  0  0
   -8.9511  -35.5045   24.2515 O   0  0  0  0  0  0  0  0  0  0  0  0
   -9.1312  -36.2058   21.8557 O   0  0  0  0  0  0  0  0  0  0  0  0
   -9.7533  -36.0214   24.4253 H   0  0  0  0  0  0  0  0  0  0  0  0
   -6.8413  -35.2344   22.7275 O   0  0  0  0  0  0  0  0  0  0  0  0
   -6.6518  -33.9545   21.6918 P   0  0  0  0  0  0  0  0  0  0  0  0
   -7.6256  -34.2687   20.5726 O   0  0  0  0  0  0  0  0  0  0  0  0
   -6.9226  -32.5713   22.2097 O   0  0  0  0  0  0  0  0  0  0  0  0
   -5.1907  -33.9157   21.3014 O   0  0  0  0  0  0  0  0  0  0  0  0
   -8.5304  -34.2701   20.9222 H   0  0  0  0  0  0  0  0  0  0  0  0
   -4.9265  -34.7809   20.9513 H   0  0  0  0  0  0  0  0  0  0  0  0
 21 22  2  0  0  0
 21 23  1  0  0  0
 21 25  1  0  0  0
 21 20  1  0  0  0
 25 26  1  0  0  0
 20  1  1  0  0  0
 26 27  1  0  0  0
 26 28  2  0  0  0
 26 30  1  0  0  0
 30 31  1  0  0  0
 31 32  1  0  0  0
 31 33  2  0  0  0
 31 34  1  0  0  0
  1  2  1  0  0  0
  2  3  1  0  0  0
  2  7  1  0  0  0
  3  4  1  0  0  0
  4  5  1  0  0  0
  4 11  1  0  0  0
  5  6  1  0  0  0
  5  7  1  0  0  0
  7  8  1  0  0  0
 11 12  1  0  0  0
 11 13  1  0  0  0
 12 18  2  0  0  0
 13 14  2  0  0  0
 13 15  1  0  0  0
 15 16  1  0  0  0
 16 17  2  0  0  0
 16 18  1  0  0  0
 23 24  1  0  0  0
 27 29  1  0  0  0
 32 35  1  0  0  0
 34 36  1  0  0  0
  6  9  1  0  0  0
  8 10  1  0  0  0
 15 19  1  0  0  0
M  END
> <minimizedAffinity>
-8.45671

$$$$
6CZB_UTP_A_302


 36 37  0  0  0  0  0  0  0  0999 V2000
   -6.0655  -36.8728   20.3817 C   0  0  0  0  0  0  0  0  0  0  0  0
   -6.2896  -38.2135   20.7606 C   0  0  0  0  0  0  0  0  0  0  0  0
   -6.8528  -39.1381   19.6771 O   0  0  0  0  0  0  0  0  0  0  0  0
   -6.4107  -40.3404   20.0857 C   0  0  0  0  0  0  0  0  0  0  0  0
   -4.8785  -40.0059   20.4626 C   0  0  0  0  0  0  0  0  0  0  0  0
   -4.2429  -41.0445   21.2706 O   0  0  0  0  0  0  0  0  0  0  0  0
   -4.9268  -38.8713   21.1328 C   0  0  0  0  0  0  0  0  0  0  0  0
   -4.8949  -39.1052   22.6047 O   0  0  0  0  0  0  0  0  0  0  0  0
   -4.7336  -41.1545   22.1000 H   0  0  0  0  0  0  0  0  0  0  0  0
   -5.6482  -39.6603   22.8602 H   0  0  0  0  0  0  0  0  0  0  0  0
   -6.5463  -41.4124   19.1264 N   0  0  0  0  0  0  0  0  0  0  0  0
   -7.1670  -42.5335   19.4819 C   0  0  0  0  0  0  0  0  0  0  0  0
   -6.0834  -41.3054   17.8541 C   0  0  0  0  0  0  0  0  0  0  0  0
   -5.5303  -40.3178   17.4838 O   0  0  0  0  0  0  0  0  0  0  0  0
   -6.2516  -42.3387   16.9701 N   0  0  0  0  0  0  0  0  0  0  0  0
   -6.8539  -43.4513   17.3427 C   0  0  0  0  0  0  0  0  0  0  0  0
   -6.9973  -44.3544   16.5764 O   0  0  0  0  0  0  0  0  0  0  0  0
   -7.3279  -43.5574   18.6139 C   0  0  0  0  0  0  0  0  0  0  0  0
   -5.9196  -42.2496   16.0476 H   0  0  0  0  0  0  0  0  0  0  0  0
   -4.6860  -36.6513   20.1905 O   0  0  0  0  0  0  0  0  0  0  0  0
   -3.8380  -35.2738   20.7039 P   0  0  0  0  0  0  0  0  0  0  0  0
   -4.3557  -34.4826   21.9063 O   0  0  0  0  0  0  0  0  0  0  0  0
   -3.7441  -34.3534   19.5039 O   0  0  0  0  0  0  0  0  0  0  0  0
   -3.2642  -33.5475   19.7513 H   0  0  0  0  0  0  0  0  0  0  0  0
   -2.3466  -35.8646   21.1385 O   0  0  0  0  0  0  0  0  0  0  0  0
   -1.4692  -36.8086   20.1417 P   0  0  0  0  0  0  0  0  0  0  0  0
   -2.2879  -37.0879   18.9011 O   0  0  0  0  0  0  0  0  0  0  0  0
   -1.1709  -38.0795   20.9094 O   0  0  0  0  0  0  0  0  0  0  0  0
   -3.0850  -37.5841   19.1447 H   0  0  0  0  0  0  0  0  0  0  0  0
   -0.0933  -35.9599   19.7720 O   0  0  0  0  0  0  0  0  0  0  0  0
    0.0591  -34.6249   18.8019 P   0  0  0  0  0  0  0  0  0  0  0  0
    0.3936  -35.2186   17.4473 O   0  0  0  0  0  0  0  0  0  0  0  0
   -1.1203  -33.7061   18.6620 O   0  0  0  0  0  0  0  0  0  0  0  0
    1.1284  -33.7508   19.4195 O   0  0  0  0  0  0  0  0  0  0  0  0
   -0.3504  -35.7590   17.1384 H   0  0  0  0  0  0  0  0  0  0  0  0
    1.9372  -34.2708   19.5472 H   0  0  0  0  0  0  0  0  0  0  0  0
 21 22  2  0  0  0
 21 23  1  0  0  0
 21 25  1  0  0  0
 21 20  1  0  0  0
 25 26  1  0  0  0
 20  1  1  0  0  0
 26 27  1  0  0  0
 26 28  2  0  0  0
 26 30  1  0  0  0
 30 31  1  0  0  0
 31 32  1  0  0  0
 31 33  2  0  0  0
 31 34  1  0  0  0
  1  2  1  0  0  0
  2  3  1  0  0  0
  2  7  1  0  0  0
  3  4  1  0  0  0
  4  5  1  0  0  0
  4 11  1  0  0  0
  5  6  1  0  0  0
  5  7  1  0  0  0
  7  8  1  0  0  0
 11 12  1  0  0  0
 11 13  1  0  0  0
 12 18  2  0  0  0
 13 14  2  0  0  0
 13 15  1  0  0  0
 15 16  1  0  0  0
 16 17  2  0  0  0
 16 18  1  0  0  0
 23 24  1  0  0  0
 27 29  1  0  0  0
 32 35  1  0  0  0
 34 36  1  0  0  0
  6  9  1  0  0  0
  8 10  1  0  0  0
 15 19  1  0  0  0
M  END
> <minimizedAffinity>
-8.45315

$$$$
6CZB_UTP_A_302


 36 37  0  0  0  0  0  0  0  0999 V2000
   -2.8217  -36.9494   22.1198 C   0  0  0  0  0  0  0  0  0  0  0  0
   -3.9538  -37.7722   21.9389 C   0  0  0  0  0  0  0  0  0  0  0  0
   -5.1871  -37.4203   22.7764 O   0  0  0  0  0  0  0  0  0  0  0  0
   -6.1828  -37.9102   22.0171 C   0  0  0  0  0  0  0  0  0  0  0  0
   -5.7496  -37.3954   20.5512 C   0  0  0  0  0  0  0  0  0  0  0  0
   -6.4574  -38.0749   19.4683 O   0  0  0  0  0  0  0  0  0  0  0  0
   -4.4549  -37.6319   20.4700 C   0  0  0  0  0  0  0  0  0  0  0  0
   -4.1773  -38.9053   19.7464 O   0  0  0  0  0  0  0  0  0  0  0  0
   -6.2773  -39.0271   19.5118 H   0  0  0  0  0  0  0  0  0  0  0  0
   -4.6087  -39.6407   20.2090 H   0  0  0  0  0  0  0  0  0  0  0  0
   -7.5153  -37.5028   22.3995 N   0  0  0  0  0  0  0  0  0  0  0  0
   -7.6809  -36.3891   23.1072 C   0  0  0  0  0  0  0  0  0  0  0  0
   -8.6179  -38.2071   22.0353 C   0  0  0  0  0  0  0  0  0  0  0  0
   -8.5234  -39.2051   21.3922 O   0  0  0  0  0  0  0  0  0  0  0  0
   -9.8650  -37.7737   22.4018 N   0  0  0  0  0  0  0  0  0  0  0  0
  -10.0120  -36.6765   23.1187 C   0  0  0  0  0  0  0  0  0  0  0  0
  -11.0964  -36.2995   23.4433 O   0  0  0  0  0  0  0  0  0  0  0  0
   -8.9097  -35.9630   23.4763 C   0  0  0  0  0  0  0  0  0  0  0  0
  -10.6593  -38.2864   22.1271 H   0  0  0  0  0  0  0  0  0  0  0  0
   -1.9560  -37.0728   21.0134 O   0  0  0  0  0  0  0  0  0  0  0  0
   -0.2659  -36.9318   21.0757 P   0  0  0  0  0  0  0  0  0  0  0  0
    0.5703  -38.1439   21.4898 O   0  0  0  0  0  0  0  0  0  0  0  0
    0.0362  -35.7755   22.0072 O   0  0  0  0  0  0  0  0  0  0  0  0
    0.9965  -35.6567   22.0742 H   0  0  0  0  0  0  0  0  0  0  0  0
    0.1614  -36.5809   19.5084 O   0  0  0  0  0  0  0  0  0  0  0  0
   -0.6507  -35.4844   18.6181 P   0  0  0  0  0  0  0  0  0  0  0  0
   -1.9273  -36.1229   18.1180 O   0  0  0  0  0  0  0  0  0  0  0  0
    0.2645  -35.1002   17.4743 O   0  0  0  0  0  0  0  0  0  0  0  0
   -1.7099  -36.8671   17.5352 H   0  0  0  0  0  0  0  0  0  0  0  0
   -0.9752  -34.2041   19.6209 O   0  0  0  0  0  0  0  0  0  0  0  0
   -2.4404  -33.5013   19.9462 P   0  0  0  0  0  0  0  0  0  0  0  0
   -2.5495  -32.4231   18.8855 O   0  0  0  0  0  0  0  0  0  0  0  0
   -3.6698  -34.3625   19.9049 O   0  0  0  0  0  0  0  0  0  0  0  0
   -2.3874  -33.0136   21.3774 O   0  0  0  0  0  0  0  0  0  0  0  0
   -2.5765  -32.8348   18.0076 H   0  0  0  0  0  0  0  0  0  0  0  0
   -1.6128  -32.4419   21.4957 H   0  0  0  0  0  0  0  0  0  0  0  0
 21 22  2  0  0  0
 21 23  1  0  0  0
 21 25  1  0  0  0
 21 20  1  0  0  0
 25 26  1  0  0  0
 20  1  1  0  0  0
 26 27  1  0  0  0
 26 28  2  0  0  0
 26 30  1  0  0  0
 30 31  1  0  0  0
 31 32  1  0  0  0
 31 33  2  0  0  0
 31 34  1  0  0  0
  1  2  1  0  0  0
  2  3  1  0  0  0
  2  7  1  0  0  0
  3  4  1  0  0  0
  4  5  1  0  0  0
  4 11  1  0  0  0
  5  6  1  0  0  0
  5  7  1  0  0  0
  7  8  1  0  0  0
 11 12  1  0  0  0
 11 13  1  0  0  0
 12 18  2  0  0  0
 13 14  2  0  0  0
 13 15  1  0  0  0
 15 16  1  0  0  0
 16 17  2  0  0  0
 16 18  1  0  0  0
 23 24  1  0  0  0
 27 29  1  0  0  0
 32 35  1  0  0  0
 34 36  1  0  0  0
  6  9  1  0  0  0
  8 10  1  0  0  0
 15 19  1  0  0  0
M  END
> <minimizedAffinity>
-8.42824

$$$$
