4LKQ_1XM_A_900


 15 16  0  0  0  0  0  0  0  0999 V2000
    3.6500   13.7752   43.6398 N   0  0  0  0  0  0  0  0  0  0  0  0
    4.5537   13.0574   44.3318 C   0  0  0  0  0  0  0  0  0  0  0  0
    5.6837   12.5582   43.7518 N   0  0  0  0  0  0  0  0  0  0  0  0
    6.6107   11.8351   44.4527 C   0  0  0  0  0  0  0  0  0  0  0  0
    8.0752   11.2092   43.6629 S   0  0  0  0  0  0  0  0  0  0  0  0
    6.4580   11.5565   45.7772 N   0  0  0  0  0  0  0  0  0  0  0  0
    5.3464   12.0360   46.3884 C   0  0  0  0  0  0  0  0  0  0  0  0
    4.9144   11.9481   47.6616 N   0  0  0  0  0  0  0  0  0  0  0  0
    3.7548   12.5955   47.7782 N   0  0  0  0  0  0  0  0  0  0  0  0
    3.3931   13.1239   46.5855 C   0  0  0  0  0  0  0  0  0  0  0  0
    4.3909   12.7813   45.6845 C   0  0  0  0  0  0  0  0  0  0  0  0
    2.8457   14.1200   44.0908 H   0  0  0  0  0  0  0  0  0  0  0  0
    3.7931   13.9555   42.6826 H   0  0  0  0  0  0  0  0  0  0  0  0
    7.1270   11.0288   46.2704 H   0  0  0  0  0  0  0  0  0  0  0  0
    5.3814   11.4797   48.3909 H   0  0  0  0  0  0  0  0  0  0  0  0
  9 10  2  0  0  0
  9  8  1  0  0  0
 10 11  1  0  0  0
  8  7  1  0  0  0
  1  2  1  0  0  0
 11  2  1  0  0  0
 11  7  2  0  0  0
  2  3  2  0  0  0
  7  6  1  0  0  0
  3  4  1  0  0  0
  6  4  1  0  0  0
  4  5  2  0  0  0
  1 12  1  0  0  0
  1 13  1  0  0  0
  6 14  1  0  0  0
  8 15  1  0  0  0
M  END
> <minimizedAffinity>
-5.48584

$$$$
4LKQ_1XM_A_900


 15 16  0  0  0  0  0  0  0  0999 V2000
    3.7178   12.4601   47.8359 N   0  0  0  0  0  0  0  0  0  0  0  0
    4.2812   12.5256   46.6156 C   0  0  0  0  0  0  0  0  0  0  0  0
    5.2805   11.6800   46.2300 N   0  0  0  0  0  0  0  0  0  0  0  0
    5.8510   11.7362   44.9871 C   0  0  0  0  0  0  0  0  0  0  0  0
    7.1450   10.6105   44.5192 S   0  0  0  0  0  0  0  0  0  0  0  0
    5.4641   12.6515   44.0557 N   0  0  0  0  0  0  0  0  0  0  0  0
    4.4731   13.5097   44.4028 C   0  0  0  0  0  0  0  0  0  0  0  0
    3.8671   14.5024   43.7226 N   0  0  0  0  0  0  0  0  0  0  0  0
    2.9365   15.0614   44.4965 N   0  0  0  0  0  0  0  0  0  0  0  0
    2.9074   14.4531   45.7054 C   0  0  0  0  0  0  0  0  0  0  0  0
    3.8768   13.4611   45.6702 C   0  0  0  0  0  0  0  0  0  0  0  0
    2.9987   13.0865   48.0803 H   0  0  0  0  0  0  0  0  0  0  0  0
    4.0247   11.7858   48.4842 H   0  0  0  0  0  0  0  0  0  0  0  0
    5.8864   12.6886   43.1672 H   0  0  0  0  0  0  0  0  0  0  0  0
    4.0782   14.7723   42.7997 H   0  0  0  0  0  0  0  0  0  0  0  0
  9 10  2  0  0  0
  9  8  1  0  0  0
 10 11  1  0  0  0
  8  7  1  0  0  0
  1  2  1  0  0  0
 11  2  1  0  0  0
 11  7  2  0  0  0
  2  3  2  0  0  0
  7  6  1  0  0  0
  3  4  1  0  0  0
  6  4  1  0  0  0
  4  5  2  0  0  0
  1 12  1  0  0  0
  1 13  1  0  0  0
  6 14  1  0  0  0
  8 15  1  0  0  0
M  END
> <minimizedAffinity>
-5.43551

$$$$
4LKQ_1XM_A_900


 15 16  0  0  0  0  0  0  0  0999 V2000
    4.2332   15.4316   42.7975 N   0  0  0  0  0  0  0  0  0  0  0  0
    4.0147   15.1132   44.0866 C   0  0  0  0  0  0  0  0  0  0  0  0
    3.6578   16.0470   45.0156 N   0  0  0  0  0  0  0  0  0  0  0  0
    3.4257   15.7274   46.3261 C   0  0  0  0  0  0  0  0  0  0  0  0
    2.9534   16.9717   47.5048 S   0  0  0  0  0  0  0  0  0  0  0  0
    3.5481   14.4531   46.7911 N   0  0  0  0  0  0  0  0  0  0  0  0
    3.9018   13.4970   45.8968 C   0  0  0  0  0  0  0  0  0  0  0  0
    4.0915   12.1698   46.0306 N   0  0  0  0  0  0  0  0  0  0  0  0
    4.4277   11.6523   44.8488 N   0  0  0  0  0  0  0  0  0  0  0  0
    4.4700   12.6249   43.9082 C   0  0  0  0  0  0  0  0  0  0  0  0
    4.1385   13.8088   44.5511 C   0  0  0  0  0  0  0  0  0  0  0  0
    4.4894   14.7317   42.1542 H   0  0  0  0  0  0  0  0  0  0  0  0
    4.1367   16.3643   42.4977 H   0  0  0  0  0  0  0  0  0  0  0  0
    3.3864   14.2351   47.7375 H   0  0  0  0  0  0  0  0  0  0  0  0
    3.9967   11.6622   46.8688 H   0  0  0  0  0  0  0  0  0  0  0  0
  9 10  2  0  0  0
  9  8  1  0  0  0
 10 11  1  0  0  0
  8  7  1  0  0  0
  1  2  1  0  0  0
 11  2  1  0  0  0
 11  7  2  0  0  0
  2  3  2  0  0  0
  7  6  1  0  0  0
  3  4  1  0  0  0
  6  4  1  0  0  0
  4  5  2  0  0  0
  1 12  1  0  0  0
  1 13  1  0  0  0
  6 14  1  0  0  0
  8 15  1  0  0  0
M  END
> <minimizedAffinity>
-5.29146

$$$$
4LKQ_1XM_A_900


 15 16  0  0  0  0  0  0  0  0999 V2000
    4.6186   12.0325   43.2608 N   0  0  0  0  0  0  0  0  0  0  0  0
    5.0740   11.5483   44.4308 C   0  0  0  0  0  0  0  0  0  0  0  0
    5.9263   10.4844   44.4949 N   0  0  0  0  0  0  0  0  0  0  0  0
    6.3997    9.9935   45.6817 C   0  0  0  0  0  0  0  0  0  0  0  0
    7.5163    8.6108   45.7231 S   0  0  0  0  0  0  0  0  0  0  0  0
    6.0394   10.5305   46.8804 N   0  0  0  0  0  0  0  0  0  0  0  0
    5.1928   11.5897   46.8569 C   0  0  0  0  0  0  0  0  0  0  0  0
    4.6658   12.3388   47.8451 N   0  0  0  0  0  0  0  0  0  0  0  0
    3.8862   13.2812   47.3145 N   0  0  0  0  0  0  0  0  0  0  0  0
    3.8784   13.1756   45.9650 C   0  0  0  0  0  0  0  0  0  0  0  0
    4.7034   12.1057   45.6492 C   0  0  0  0  0  0  0  0  0  0  0  0
    4.0044   12.8019   43.2520 H   0  0  0  0  0  0  0  0  0  0  0  0
    4.8996   11.6173   42.4135 H   0  0  0  0  0  0  0  0  0  0  0  0
    6.3795   10.1649   47.7288 H   0  0  0  0  0  0  0  0  0  0  0  0
    4.8304   12.2104   48.8072 H   0  0  0  0  0  0  0  0  0  0  0  0
  9 10  2  0  0  0
  9  8  1  0  0  0
 10 11  1  0  0  0
  8  7  1  0  0  0
  1  2  1  0  0  0
 11  2  1  0  0  0
 11  7  2  0  0  0
  2  3  2  0  0  0
  7  6  1  0  0  0
  3  4  1  0  0  0
  6  4  1  0  0  0
  4  5  2  0  0  0
  1 12  1  0  0  0
  1 13  1  0  0  0
  6 14  1  0  0  0
  8 15  1  0  0  0
M  END
> <minimizedAffinity>
-5.25928

$$$$
4LKQ_1XM_A_900


 15 16  0  0  0  0  0  0  0  0999 V2000
    5.1841   11.9745   46.5551 N   0  0  0  0  0  0  0  0  0  0  0  0
    4.8734   12.2416   45.2733 C   0  0  0  0  0  0  0  0  0  0  0  0
    5.2562   11.4268   44.2476 N   0  0  0  0  0  0  0  0  0  0  0  0
    4.9354   11.6887   42.9431 C   0  0  0  0  0  0  0  0  0  0  0  0
    5.4450   10.5975   41.6354 S   0  0  0  0  0  0  0  0  0  0  0  0
    4.2205   12.7905   42.5825 N   0  0  0  0  0  0  0  0  0  0  0  0
    3.8225   13.6247   43.5750 C   0  0  0  0  0  0  0  0  0  0  0  0
    3.1081   14.7668   43.5542 N   0  0  0  0  0  0  0  0  0  0  0  0
    2.9687   15.2210   44.7998 N   0  0  0  0  0  0  0  0  0  0  0  0
    3.5888   14.3915   45.6714 C   0  0  0  0  0  0  0  0  0  0  0  0
    4.1400   13.3670   44.9155 C   0  0  0  0  0  0  0  0  0  0  0  0
    4.8913   12.5848   47.2699 H   0  0  0  0  0  0  0  0  0  0  0  0
    5.7041   11.1689   46.7779 H   0  0  0  0  0  0  0  0  0  0  0  0
    4.0017   12.9739   41.6403 H   0  0  0  0  0  0  0  0  0  0  0  0
    2.7461   15.1980   42.7465 H   0  0  0  0  0  0  0  0  0  0  0  0
  9 10  2  0  0  0
  9  8  1  0  0  0
 10 11  1  0  0  0
  8  7  1  0  0  0
  1  2  1  0  0  0
 11  2  1  0  0  0
 11  7  2  0  0  0
  2  3  2  0  0  0
  7  6  1  0  0  0
  3  4  1  0  0  0
  6  4  1  0  0  0
  4  5  2  0  0  0
  1 12  1  0  0  0
  1 13  1  0  0  0
  6 14  1  0  0  0
  8 15  1  0  0  0
M  END
> <minimizedAffinity>
-5.20976

$$$$
4LKQ_1XM_A_900


 15 16  0  0  0  0  0  0  0  0999 V2000
    5.3982   10.7476   42.3320 N   0  0  0  0  0  0  0  0  0  0  0  0
    4.8777   11.6773   43.1540 C   0  0  0  0  0  0  0  0  0  0  0  0
    4.9163   11.5502   44.5122 N   0  0  0  0  0  0  0  0  0  0  0  0
    4.3966   12.4968   45.3531 C   0  0  0  0  0  0  0  0  0  0  0  0
    4.4745   12.2990   47.1182 S   0  0  0  0  0  0  0  0  0  0  0  0
    3.7946   13.6256   44.8857 N   0  0  0  0  0  0  0  0  0  0  0  0
    3.7368   13.7869   43.5404 C   0  0  0  0  0  0  0  0  0  0  0  0
    3.2307   14.7746   42.7765 N   0  0  0  0  0  0  0  0  0  0  0  0
    3.4223   14.4782   41.4908 N   0  0  0  0  0  0  0  0  0  0  0  0
    4.0570   13.2881   41.3756 C   0  0  0  0  0  0  0  0  0  0  0  0
    4.2684   12.8281   42.6674 C   0  0  0  0  0  0  0  0  0  0  0  0
    5.3525   10.8721   41.3564 H   0  0  0  0  0  0  0  0  0  0  0  0
    5.8246    9.9430   42.7061 H   0  0  0  0  0  0  0  0  0  0  0  0
    3.4169   14.2967   45.4991 H   0  0  0  0  0  0  0  0  0  0  0  0
    2.7890   15.5870   43.1143 H   0  0  0  0  0  0  0  0  0  0  0  0
  9 10  2  0  0  0
  9  8  1  0  0  0
 10 11  1  0  0  0
  8  7  1  0  0  0
  1  2  1  0  0  0
 11  2  1  0  0  0
 11  7  2  0  0  0
  2  3  2  0  0  0
  7  6  1  0  0  0
  3  4  1  0  0  0
  6  4  1  0  0  0
  4  5  2  0  0  0
  1 12  1  0  0  0
  1 13  1  0  0  0
  6 14  1  0  0  0
  8 15  1  0  0  0
M  END
> <minimizedAffinity>
-5.11473

$$$$
4LKQ_1XM_A_900


 15 16  0  0  0  0  0  0  0  0999 V2000
    4.9844   11.7280   48.5388 N   0  0  0  0  0  0  0  0  0  0  0  0
    4.7689   12.1385   47.2756 C   0  0  0  0  0  0  0  0  0  0  0  0
    3.9652   13.2022   46.9839 N   0  0  0  0  0  0  0  0  0  0  0  0
    3.7497   13.6296   45.7017 C   0  0  0  0  0  0  0  0  0  0  0  0
    2.7025   15.0258   45.3631 S   0  0  0  0  0  0  0  0  0  0  0  0
    4.3168   13.0105   44.6292 N   0  0  0  0  0  0  0  0  0  0  0  0
    5.1221   11.9485   44.8796 C   0  0  0  0  0  0  0  0  0  0  0  0
    5.8270   11.1444   44.0599 N   0  0  0  0  0  0  0  0  0  0  0  0
    6.4773   10.2360   44.7874 N   0  0  0  0  0  0  0  0  0  0  0  0
    6.2160   10.4173   46.1031 C   0  0  0  0  0  0  0  0  0  0  0  0
    5.3553   11.5023   46.1875 C   0  0  0  0  0  0  0  0  0  0  0  0
    5.5705   10.9563   48.7125 H   0  0  0  0  0  0  0  0  0  0  0  0
    4.5558   12.1994   49.2894 H   0  0  0  0  0  0  0  0  0  0  0  0
    4.1490   13.3211   43.7102 H   0  0  0  0  0  0  0  0  0  0  0  0
    5.8571   11.2163   43.0785 H   0  0  0  0  0  0  0  0  0  0  0  0
  9 10  2  0  0  0
  9  8  1  0  0  0
 10 11  1  0  0  0
  8  7  1  0  0  0
  1  2  1  0  0  0
 11  2  1  0  0  0
 11  7  2  0  0  0
  2  3  2  0  0  0
  7  6  1  0  0  0
  3  4  1  0  0  0
  6  4  1  0  0  0
  4  5  2  0  0  0
  1 12  1  0  0  0
  1 13  1  0  0  0
  6 14  1  0  0  0
  8 15  1  0  0  0
M  END
> <minimizedAffinity>
-5.09681

$$$$
4LKQ_1XM_A_900


 15 16  0  0  0  0  0  0  0  0999 V2000
    3.2913   14.6960   43.1820 N   0  0  0  0  0  0  0  0  0  0  0  0
    3.9114   13.5862   43.6230 C   0  0  0  0  0  0  0  0  0  0  0  0
    4.4952   12.6930   42.7723 N   0  0  0  0  0  0  0  0  0  0  0  0
    5.1351   11.5672   43.2157 C   0  0  0  0  0  0  0  0  0  0  0  0
    5.8915   10.4319   42.0758 S   0  0  0  0  0  0  0  0  0  0  0  0
    5.2202   11.2592   44.5397 N   0  0  0  0  0  0  0  0  0  0  0  0
    4.6511   12.1236   45.4161 C   0  0  0  0  0  0  0  0  0  0  0  0
    4.5724   12.1152   46.7611 N   0  0  0  0  0  0  0  0  0  0  0  0
    3.9113   13.1985   47.1696 N   0  0  0  0  0  0  0  0  0  0  0  0
    3.5365   13.9459   46.1051 C   0  0  0  0  0  0  0  0  0  0  0  0
    3.9964   13.2823   44.9768 C   0  0  0  0  0  0  0  0  0  0  0  0
    2.8808   15.3188   43.8246 H   0  0  0  0  0  0  0  0  0  0  0  0
    3.2481   14.8852   42.2168 H   0  0  0  0  0  0  0  0  0  0  0  0
    5.6760   10.4427   44.8478 H   0  0  0  0  0  0  0  0  0  0  0  0
    4.9444   11.4190   47.3495 H   0  0  0  0  0  0  0  0  0  0  0  0
  9 10  2  0  0  0
  9  8  1  0  0  0
 10 11  1  0  0  0
  8  7  1  0  0  0
  1  2  1  0  0  0
 11  2  1  0  0  0
 11  7  2  0  0  0
  2  3  2  0  0  0
  7  6  1  0  0  0
  3  4  1  0  0  0
  6  4  1  0  0  0
  4  5  2  0  0  0
  1 12  1  0  0  0
  1 13  1  0  0  0
  6 14  1  0  0  0
  8 15  1  0  0  0
M  END
> <minimizedAffinity>
-5.06278

$$$$
4LKQ_1XM_A_900


 15 16  0  0  0  0  0  0  0  0999 V2000
    3.8887   12.0223   46.0612 N   0  0  0  0  0  0  0  0  0  0  0  0
    3.8112   13.3113   45.6830 C   0  0  0  0  0  0  0  0  0  0  0  0
    3.5447   14.3142   46.5694 N   0  0  0  0  0  0  0  0  0  0  0  0
    3.4736   15.6279   46.1920 C   0  0  0  0  0  0  0  0  0  0  0  0
    3.1329   16.9069   47.3788 S   0  0  0  0  0  0  0  0  0  0  0  0
    3.6535   16.0187   44.8997 N   0  0  0  0  0  0  0  0  0  0  0  0
    3.9202   15.0495   43.9893 C   0  0  0  0  0  0  0  0  0  0  0  0
    4.1551   15.1042   42.6638 N   0  0  0  0  0  0  0  0  0  0  0  0
    4.3753   13.8720   42.2050 N   0  0  0  0  0  0  0  0  0  0  0  0
    4.2889   12.9752   43.2153 C   0  0  0  0  0  0  0  0  0  0  0  0
    4.0002   13.7009   44.3620 C   0  0  0  0  0  0  0  0  0  0  0  0
    4.0829   11.3245   45.3943 H   0  0  0  0  0  0  0  0  0  0  0  0
    3.7512   11.7769   47.0046 H   0  0  0  0  0  0  0  0  0  0  0  0
    3.5925   16.9656   44.6373 H   0  0  0  0  0  0  0  0  0  0  0  0
    4.1630   15.9248   42.1198 H   0  0  0  0  0  0  0  0  0  0  0  0
  9 10  2  0  0  0
  9  8  1  0  0  0
 10 11  1  0  0  0
  8  7  1  0  0  0
  1  2  1  0  0  0
 11  2  1  0  0  0
 11  7  2  0  0  0
  2  3  2  0  0  0
  7  6  1  0  0  0
  3  4  1  0  0  0
  6  4  1  0  0  0
  4  5  2  0  0  0
  1 12  1  0  0  0
  1 13  1  0  0  0
  6 14  1  0  0  0
  8 15  1  0  0  0
M  END
> <minimizedAffinity>
-5.05124

$$$$
4LKQ_1XM_A_900


 15 16  0  0  0  0  0  0  0  0999 V2000
    3.5152   14.6974   41.8747 N   0  0  0  0  0  0  0  0  0  0  0  0
    3.9763   13.7500   42.7117 C   0  0  0  0  0  0  0  0  0  0  0  0
    4.6556   12.6538   42.2652 N   0  0  0  0  0  0  0  0  0  0  0  0
    5.1347   11.6916   43.1127 C   0  0  0  0  0  0  0  0  0  0  0  0
    6.0233   10.2821   42.4928 S   0  0  0  0  0  0  0  0  0  0  0  0
    4.9529   11.7612   44.4607 N   0  0  0  0  0  0  0  0  0  0  0  0
    4.2815   12.8367   44.9420 C   0  0  0  0  0  0  0  0  0  0  0  0
    3.9525   13.2007   46.1968 N   0  0  0  0  0  0  0  0  0  0  0  0
    3.2910   14.3576   46.1599 N   0  0  0  0  0  0  0  0  0  0  0  0
    3.1659   14.7834   44.8810 C   0  0  0  0  0  0  0  0  0  0  0  0
    3.7890   13.8317   44.0867 C   0  0  0  0  0  0  0  0  0  0  0  0
    3.0289   15.4754   42.2318 H   0  0  0  0  0  0  0  0  0  0  0  0
    3.6642   14.6126   40.9052 H   0  0  0  0  0  0  0  0  0  0  0  0
    5.2947   11.0596   45.0609 H   0  0  0  0  0  0  0  0  0  0  0  0
    4.1668   12.6926   47.0124 H   0  0  0  0  0  0  0  0  0  0  0  0
  9 10  2  0  0  0
  9  8  1  0  0  0
 10 11  1  0  0  0
  8  7  1  0  0  0
  1  2  1  0  0  0
 11  2  1  0  0  0
 11  7  2  0  0  0
  2  3  2  0  0  0
  7  6  1  0  0  0
  3  4  1  0  0  0
  6  4  1  0  0  0
  4  5  2  0  0  0
  1 12  1  0  0  0
  1 13  1  0  0  0
  6 14  1  0  0  0
  8 15  1  0  0  0
M  END
> <minimizedAffinity>
-4.98395

$$$$
