4AXD_ANP_A_600


 40 42  0  0  0  0  0  0  0  0999 V2000
  -24.1482    0.3375  -17.8746 C   0  0  0  0  0  0  0  0  0  0  0  0
  -23.3124    0.6724  -16.7728 O   0  0  0  0  0  0  0  0  0  0  0  0
  -25.0766    1.5314  -18.0493 C   0  0  0  0  0  0  0  0  0  0  0  0
  -26.3178    1.1527  -18.6610 O   0  0  0  0  0  0  0  0  0  0  0  0
  -25.2037    2.0947  -16.6448 C   0  0  0  0  0  0  0  0  0  0  0  0
  -26.2448    1.4728  -15.8999 O   0  0  0  0  0  0  0  0  0  0  0  0
  -23.8852    1.7119  -15.9866 C   0  0  0  0  0  0  0  0  0  0  0  0
  -26.7482    0.4698  -18.1231 H   0  0  0  0  0  0  0  0  0  0  0  0
  -26.0816    0.5179  -15.8514 H   0  0  0  0  0  0  0  0  0  0  0  0
  -22.9872    2.8869  -15.9914 N   0  0  0  0  0  0  0  0  0  0  0  0
  -22.0888    3.2160  -16.9395 C   0  0  0  0  0  0  0  0  0  0  0  0
  -21.4475    4.3528  -16.6072 N   0  0  0  0  0  0  0  0  0  0  0  0
  -21.9385    4.7690  -15.4306 C   0  0  0  0  0  0  0  0  0  0  0  0
  -21.6977    5.8965  -14.5069 C   0  0  0  0  0  0  0  0  0  0  0  0
  -20.7890    6.8571  -14.7786 N   0  0  0  0  0  0  0  0  0  0  0  0
  -22.4303    5.9394  -13.3722 N   0  0  0  0  0  0  0  0  0  0  0  0
  -23.3588    5.0063  -13.0826 C   0  0  0  0  0  0  0  0  0  0  0  0
  -23.6257    3.9509  -13.8711 N   0  0  0  0  0  0  0  0  0  0  0  0
  -22.9573    3.7958  -15.0337 C   0  0  0  0  0  0  0  0  0  0  0  0
  -20.2613    6.8149  -15.6086 H   0  0  0  0  0  0  0  0  0  0  0  0
  -20.6540    7.5998  -14.1466 H   0  0  0  0  0  0  0  0  0  0  0  0
  -23.2890    0.0480  -19.0992 C   0  0  0  0  0  0  0  0  0  0  0  0
  -23.8815    0.6427  -20.2416 O   0  0  0  0  0  0  0  0  0  0  0  0
  -22.9711    1.2867  -21.3939 P   0  0  0  0  0  0  0  0  0  0  0  0
  -22.4421    2.6213  -20.9329 O   0  0  0  0  0  0  0  0  0  0  0  0
  -22.0326    0.2119  -21.8830 O   0  0  0  0  0  0  0  0  0  0  0  0
  -21.4661    0.5716  -22.5834 H   0  0  0  0  0  0  0  0  0  0  0  0
  -24.1147    1.5301  -22.5021 O   0  0  0  0  0  0  0  0  0  0  0  0
  -25.4124    2.4378  -22.2165 P   0  0  0  0  0  0  0  0  0  0  0  0
  -25.6865    3.2252  -23.4353 O   0  0  0  0  0  0  0  0  0  0  0  0
  -25.0575    3.4647  -21.0306 O   0  0  0  0  0  0  0  0  0  0  0  0
  -25.8292    4.0218  -20.8435 H   0  0  0  0  0  0  0  0  0  0  0  0
  -26.6444    1.3153  -21.7516 N   0  0  0  0  0  0  0  0  0  0  0  0
  -26.5672    1.2250  -20.7386 H   0  0  0  0  0  0  0  0  0  0  0  0
  -26.7644   -0.2961  -22.3559 P   0  0  0  0  0  0  0  0  0  0  0  0
  -28.2660   -0.7713  -22.6341 O   0  0  0  0  0  0  0  0  0  0  0  0
  -25.8763   -0.3031  -23.7021 O   0  0  0  0  0  0  0  0  0  0  0  0
  -26.1929   -1.1961  -21.3149 O   0  0  0  0  0  0  0  0  0  0  0  0
  -25.8986   -1.1876  -24.0995 H   0  0  0  0  0  0  0  0  0  0  0  0
  -26.2429   -2.1156  -21.6197 H   0  0  0  0  0  0  0  0  0  0  0  0
 35 36  2  0  0  0
 35 37  1  0  0  0
 35 38  1  0  0  0
 35 33  1  0  0  0
 29 30  2  0  0  0
 29 31  1  0  0  0
 29 33  1  0  0  0
 29 28  1  0  0  0
 24 25  2  0  0  0
 24 26  1  0  0  0
 24 28  1  0  0  0
 24 23  1  0  0  0
 23 22  1  0  0  0
 22  1  1  0  0  0
  1  2  1  0  0  0
  1  3  1  0  0  0
  2  7  1  0  0  0
  3  4  1  0  0  0
  3  5  1  0  0  0
  5  6  1  0  0  0
  5  7  1  0  0  0
  7 10  1  0  0  0
 10 11  1  0  0  0
 10 19  1  0  0  0
 11 12  2  0  0  0
 12 13  1  0  0  0
 13 14  1  0  0  0
 13 19  2  0  0  0
 14 15  1  0  0  0
 14 16  2  0  0  0
 16 17  1  0  0  0
 17 18  2  0  0  0
 18 19  1  0  0  0
 37 39  1  0  0  0
 38 40  1  0  0  0
 31 32  1  0  0  0
 33 34  1  0  0  0
 26 27  1  0  0  0
  4  8  1  0  0  0
  6  9  1  0  0  0
 15 20  1  0  0  0
 15 21  1  0  0  0
M  END
> <minimizedAffinity>
-9.78044

$$$$
4AXD_ANP_A_600


 40 42  0  0  0  0  0  0  0  0999 V2000
  -24.2830    0.2890  -18.0840 C   0  0  0  0  0  0  0  0  0  0  0  0
  -23.2860    0.5697  -17.1083 O   0  0  0  0  0  0  0  0  0  0  0  0
  -25.3388    1.3701  -17.8990 C   0  0  0  0  0  0  0  0  0  0  0  0
  -26.6323    0.9277  -18.3339 O   0  0  0  0  0  0  0  0  0  0  0  0
  -25.2453    1.7130  -16.4226 C   0  0  0  0  0  0  0  0  0  0  0  0
  -26.0572    0.8687  -15.6142 O   0  0  0  0  0  0  0  0  0  0  0  0
  -23.7935    1.4104  -16.0777 C   0  0  0  0  0  0  0  0  0  0  0  0
  -26.8822    0.1285  -17.8443 H   0  0  0  0  0  0  0  0  0  0  0  0
  -25.7960   -0.0558  -15.7482 H   0  0  0  0  0  0  0  0  0  0  0  0
  -23.0315    2.6776  -16.0538 N   0  0  0  0  0  0  0  0  0  0  0  0
  -22.2450    3.1684  -17.0308 C   0  0  0  0  0  0  0  0  0  0  0  0
  -21.7090    4.3464  -16.6578 N   0  0  0  0  0  0  0  0  0  0  0  0
  -22.1564    4.6257  -15.4247 C   0  0  0  0  0  0  0  0  0  0  0  0
  -21.9739    5.7100  -14.4381 C   0  0  0  0  0  0  0  0  0  0  0  0
  -21.1971    6.7834  -14.6962 N   0  0  0  0  0  0  0  0  0  0  0  0
  -22.6232    5.5944  -13.2585 N   0  0  0  0  0  0  0  0  0  0  0  0
  -23.4212    4.5448  -12.9792 C   0  0  0  0  0  0  0  0  0  0  0  0
  -23.6277    3.5202  -13.8244 N   0  0  0  0  0  0  0  0  0  0  0  0
  -23.0319    3.5190  -15.0358 C   0  0  0  0  0  0  0  0  0  0  0  0
  -20.7291    6.8562  -15.5593 H   0  0  0  0  0  0  0  0  0  0  0  0
  -21.0987    7.4935  -14.0214 H   0  0  0  0  0  0  0  0  0  0  0  0
  -23.6533    0.2816  -19.4716 C   0  0  0  0  0  0  0  0  0  0  0  0
  -22.5176    1.1299  -19.4780 O   0  0  0  0  0  0  0  0  0  0  0  0
  -21.2017    0.7291  -20.3021 P   0  0  0  0  0  0  0  0  0  0  0  0
  -20.2198    1.8730  -20.2735 O   0  0  0  0  0  0  0  0  0  0  0  0
  -20.7910   -0.6518  -19.8554 O   0  0  0  0  0  0  0  0  0  0  0  0
  -19.9945   -0.9240  -20.3375 H   0  0  0  0  0  0  0  0  0  0  0  0
  -21.8533    0.6338  -21.7724 O   0  0  0  0  0  0  0  0  0  0  0  0
  -20.9816    0.2911  -23.0809 P   0  0  0  0  0  0  0  0  0  0  0  0
  -20.2689   -0.9769  -22.8261 O   0  0  0  0  0  0  0  0  0  0  0  0
  -19.8822    1.4497  -23.2711 O   0  0  0  0  0  0  0  0  0  0  0  0
  -19.3456    1.2605  -24.0567 H   0  0  0  0  0  0  0  0  0  0  0  0
  -22.1241    0.2655  -24.3801 N   0  0  0  0  0  0  0  0  0  0  0  0
  -22.7821   -0.4803  -24.1541 H   0  0  0  0  0  0  0  0  0  0  0  0
  -21.7022    0.0294  -26.0361 P   0  0  0  0  0  0  0  0  0  0  0  0
  -22.8266   -0.7246  -26.8877 O   0  0  0  0  0  0  0  0  0  0  0  0
  -21.4125    1.5097  -26.6071 O   0  0  0  0  0  0  0  0  0  0  0  0
  -20.4770   -0.8183  -26.0577 O   0  0  0  0  0  0  0  0  0  0  0  0
  -21.1669    1.4526  -27.5437 H   0  0  0  0  0  0  0  0  0  0  0  0
  -20.2076   -0.9738  -26.9765 H   0  0  0  0  0  0  0  0  0  0  0  0
 35 36  2  0  0  0
 35 37  1  0  0  0
 35 38  1  0  0  0
 35 33  1  0  0  0
 29 30  2  0  0  0
 29 31  1  0  0  0
 29 33  1  0  0  0
 29 28  1  0  0  0
 24 25  2  0  0  0
 24 26  1  0  0  0
 24 28  1  0  0  0
 24 23  1  0  0  0
 23 22  1  0  0  0
 22  1  1  0  0  0
  1  2  1  0  0  0
  1  3  1  0  0  0
  2  7  1  0  0  0
  3  4  1  0  0  0
  3  5  1  0  0  0
  5  6  1  0  0  0
  5  7  1  0  0  0
  7 10  1  0  0  0
 10 11  1  0  0  0
 10 19  1  0  0  0
 11 12  2  0  0  0
 12 13  1  0  0  0
 13 14  1  0  0  0
 13 19  2  0  0  0
 14 15  1  0  0  0
 14 16  2  0  0  0
 16 17  1  0  0  0
 17 18  2  0  0  0
 18 19  1  0  0  0
 37 39  1  0  0  0
 38 40  1  0  0  0
 31 32  1  0  0  0
 33 34  1  0  0  0
 26 27  1  0  0  0
  4  8  1  0  0  0
  6  9  1  0  0  0
 15 20  1  0  0  0
 15 21  1  0  0  0
M  END
> <minimizedAffinity>
-9.40819

$$$$
4AXD_ANP_A_600


 40 42  0  0  0  0  0  0  0  0999 V2000
  -24.8810    0.0817  -17.3172 C   0  0  0  0  0  0  0  0  0  0  0  0
  -23.6740    0.3806  -16.6254 O   0  0  0  0  0  0  0  0  0  0  0  0
  -25.8431    1.2012  -16.9447 C   0  0  0  0  0  0  0  0  0  0  0  0
  -27.2105    0.7763  -17.0324 O   0  0  0  0  0  0  0  0  0  0  0  0
  -25.3915    1.6136  -15.5546 C   0  0  0  0  0  0  0  0  0  0  0  0
  -25.9991    0.8344  -14.5303 O   0  0  0  0  0  0  0  0  0  0  0  0
  -23.9046    1.2856  -15.5510 C   0  0  0  0  0  0  0  0  0  0  0  0
  -27.3487    0.0100  -16.4541 H   0  0  0  0  0  0  0  0  0  0  0  0
  -25.7934   -0.1029  -14.6720 H   0  0  0  0  0  0  0  0  0  0  0  0
  -23.1381    2.5295  -15.7797 N   0  0  0  0  0  0  0  0  0  0  0  0
  -22.4928    2.8877  -16.9064 C   0  0  0  0  0  0  0  0  0  0  0  0
  -21.9017    4.0879  -16.7502 N   0  0  0  0  0  0  0  0  0  0  0  0
  -22.1700    4.5158  -15.5077 C   0  0  0  0  0  0  0  0  0  0  0  0
  -21.8436    5.7008  -14.6882 C   0  0  0  0  0  0  0  0  0  0  0  0
  -21.1033    6.7197  -15.1739 N   0  0  0  0  0  0  0  0  0  0  0  0
  -22.3221    5.7352  -13.4248 N   0  0  0  0  0  0  0  0  0  0  0  0
  -23.0804    4.7428  -12.9181 C   0  0  0  0  0  0  0  0  0  0  0  0
  -23.4103    3.6337  -13.6022 N   0  0  0  0  0  0  0  0  0  0  0  0
  -22.9901    3.4810  -14.8759 C   0  0  0  0  0  0  0  0  0  0  0  0
  -20.7603    6.6831  -16.0960 H   0  0  0  0  0  0  0  0  0  0  0  0
  -20.9064    7.4995  -14.6061 H   0  0  0  0  0  0  0  0  0  0  0  0
  -24.6038   -0.0126  -18.8126 C   0  0  0  0  0  0  0  0  0  0  0  0
  -25.8103   -0.3032  -19.4979 O   0  0  0  0  0  0  0  0  0  0  0  0
  -25.9620    0.0217  -21.0609 P   0  0  0  0  0  0  0  0  0  0  0  0
  -26.7344   -1.0846  -21.7340 O   0  0  0  0  0  0  0  0  0  0  0  0
  -26.4059    1.4580  -21.1836 O   0  0  0  0  0  0  0  0  0  0  0  0
  -26.5071    1.6862  -22.1209 H   0  0  0  0  0  0  0  0  0  0  0  0
  -24.4117   -0.0875  -21.4852 O   0  0  0  0  0  0  0  0  0  0  0  0
  -23.6981    1.0019  -22.4304 P   0  0  0  0  0  0  0  0  0  0  0  0
  -23.6460    2.2763  -21.6863 O   0  0  0  0  0  0  0  0  0  0  0  0
  -24.6201    1.2223  -23.7298 O   0  0  0  0  0  0  0  0  0  0  0  0
  -24.2056    1.8771  -24.3131 H   0  0  0  0  0  0  0  0  0  0  0  0
  -22.1681    0.3026  -22.8353 N   0  0  0  0  0  0  0  0  0  0  0  0
  -22.3232   -0.7052  -22.8594 H   0  0  0  0  0  0  0  0  0  0  0  0
  -20.7256    0.5308  -21.9170 P   0  0  0  0  0  0  0  0  0  0  0  0
  -19.3832    0.3430  -22.7659 O   0  0  0  0  0  0  0  0  0  0  0  0
  -20.8475    2.0215  -21.3138 O   0  0  0  0  0  0  0  0  0  0  0  0
  -20.7258   -0.4999  -20.8410 O   0  0  0  0  0  0  0  0  0  0  0  0
  -20.0620    2.2197  -20.7803 H   0  0  0  0  0  0  0  0  0  0  0  0
  -19.9260   -0.4034  -20.3006 H   0  0  0  0  0  0  0  0  0  0  0  0
 35 36  2  0  0  0
 35 37  1  0  0  0
 35 38  1  0  0  0
 35 33  1  0  0  0
 29 30  2  0  0  0
 29 31  1  0  0  0
 29 33  1  0  0  0
 29 28  1  0  0  0
 24 25  2  0  0  0
 24 26  1  0  0  0
 24 28  1  0  0  0
 24 23  1  0  0  0
 23 22  1  0  0  0
 22  1  1  0  0  0
  1  2  1  0  0  0
  1  3  1  0  0  0
  2  7  1  0  0  0
  3  4  1  0  0  0
  3  5  1  0  0  0
  5  6  1  0  0  0
  5  7  1  0  0  0
  7 10  1  0  0  0
 10 11  1  0  0  0
 10 19  1  0  0  0
 11 12  2  0  0  0
 12 13  1  0  0  0
 13 14  1  0  0  0
 13 19  2  0  0  0
 14 15  1  0  0  0
 14 16  2  0  0  0
 16 17  1  0  0  0
 17 18  2  0  0  0
 18 19  1  0  0  0
 37 39  1  0  0  0
 38 40  1  0  0  0
 31 32  1  0  0  0
 33 34  1  0  0  0
 26 27  1  0  0  0
  4  8  1  0  0  0
  6  9  1  0  0  0
 15 20  1  0  0  0
 15 21  1  0  0  0
M  END
> <minimizedAffinity>
-9.34437

$$$$
4AXD_ANP_A_600


 40 42  0  0  0  0  0  0  0  0999 V2000
  -21.0060    3.8050  -17.8084 C   0  0  0  0  0  0  0  0  0  0  0  0
  -19.7504    4.4739  -17.7811 O   0  0  0  0  0  0  0  0  0  0  0  0
  -21.9398    4.6735  -16.9770 C   0  0  0  0  0  0  0  0  0  0  0  0
  -23.0072    3.9058  -16.4032 O   0  0  0  0  0  0  0  0  0  0  0  0
  -21.0140    5.3313  -15.9687 C   0  0  0  0  0  0  0  0  0  0  0  0
  -20.8200    4.5345  -14.8056 O   0  0  0  0  0  0  0  0  0  0  0  0
  -19.6801    5.3974  -16.6999 C   0  0  0  0  0  0  0  0  0  0  0  0
  -22.6369    3.1947  -15.8572 H   0  0  0  0  0  0  0  0  0  0  0  0
  -20.4582    3.6717  -15.0614 H   0  0  0  0  0  0  0  0  0  0  0  0
  -19.4902    6.7649  -17.2298 N   0  0  0  0  0  0  0  0  0  0  0  0
  -19.6885    7.9234  -16.5718 C   0  0  0  0  0  0  0  0  0  0  0  0
  -19.4171    8.9725  -17.3717 N   0  0  0  0  0  0  0  0  0  0  0  0
  -19.0340    8.4889  -18.5626 C   0  0  0  0  0  0  0  0  0  0  0  0
  -18.6144    9.0505  -19.8630 C   0  0  0  0  0  0  0  0  0  0  0  0
  -18.5245   10.3818  -20.0672 N   0  0  0  0  0  0  0  0  0  0  0  0
  -18.3129    8.1780  -20.8499 N   0  0  0  0  0  0  0  0  0  0  0  0
  -18.3738    6.8435  -20.6705 C   0  0  0  0  0  0  0  0  0  0  0  0
  -18.7537    6.2631  -19.5191 N   0  0  0  0  0  0  0  0  0  0  0  0
  -19.0824    7.0297  -18.4576 C   0  0  0  0  0  0  0  0  0  0  0  0
  -18.7469   11.0074  -19.3404 H   0  0  0  0  0  0  0  0  0  0  0  0
  -18.2366   10.7270  -20.9431 H   0  0  0  0  0  0  0  0  0  0  0  0
  -21.4604    3.6284  -19.2521 C   0  0  0  0  0  0  0  0  0  0  0  0
  -22.0087    2.3317  -19.4181 O   0  0  0  0  0  0  0  0  0  0  0  0
  -21.9684    1.6030  -20.8459 P   0  0  0  0  0  0  0  0  0  0  0  0
  -20.6543    1.8951  -21.5251 O   0  0  0  0  0  0  0  0  0  0  0  0
  -22.4328    0.1824  -20.6424 O   0  0  0  0  0  0  0  0  0  0  0  0
  -22.4196   -0.2868  -21.4912 H   0  0  0  0  0  0  0  0  0  0  0  0
  -23.1349    2.4374  -21.5796 O   0  0  0  0  0  0  0  0  0  0  0  0
  -24.6693    1.9523  -21.5842 P   0  0  0  0  0  0  0  0  0  0  0  0
  -24.7391    0.6913  -22.3495 O   0  0  0  0  0  0  0  0  0  0  0  0
  -25.5437    3.0553  -22.3626 O   0  0  0  0  0  0  0  0  0  0  0  0
  -26.4738    2.7800  -22.3759 H   0  0  0  0  0  0  0  0  0  0  0  0
  -25.1048    1.8447  -19.9131 N   0  0  0  0  0  0  0  0  0  0  0  0
  -24.2957    2.1866  -19.3946 H   0  0  0  0  0  0  0  0  0  0  0  0
  -25.5784    0.3834  -19.1280 P   0  0  0  0  0  0  0  0  0  0  0  0
  -24.4033   -0.3127  -18.2957 O   0  0  0  0  0  0  0  0  0  0  0  0
  -26.8149    0.8016  -18.1807 O   0  0  0  0  0  0  0  0  0  0  0  0
  -25.9995   -0.5683  -20.1944 O   0  0  0  0  0  0  0  0  0  0  0  0
  -27.1353    0.0202  -17.7035 H   0  0  0  0  0  0  0  0  0  0  0  0
  -26.2743   -1.4061  -19.7900 H   0  0  0  0  0  0  0  0  0  0  0  0
 35 36  2  0  0  0
 35 37  1  0  0  0
 35 38  1  0  0  0
 35 33  1  0  0  0
 29 30  2  0  0  0
 29 31  1  0  0  0
 29 33  1  0  0  0
 29 28  1  0  0  0
 24 25  2  0  0  0
 24 26  1  0  0  0
 24 28  1  0  0  0
 24 23  1  0  0  0
 23 22  1  0  0  0
 22  1  1  0  0  0
  1  2  1  0  0  0
  1  3  1  0  0  0
  2  7  1  0  0  0
  3  4  1  0  0  0
  3  5  1  0  0  0
  5  6  1  0  0  0
  5  7  1  0  0  0
  7 10  1  0  0  0
 10 11  1  0  0  0
 10 19  1  0  0  0
 11 12  2  0  0  0
 12 13  1  0  0  0
 13 14  1  0  0  0
 13 19  2  0  0  0
 14 15  1  0  0  0
 14 16  2  0  0  0
 16 17  1  0  0  0
 17 18  2  0  0  0
 18 19  1  0  0  0
 37 39  1  0  0  0
 38 40  1  0  0  0
 31 32  1  0  0  0
 33 34  1  0  0  0
 26 27  1  0  0  0
  4  8  1  0  0  0
  6  9  1  0  0  0
 15 20  1  0  0  0
 15 21  1  0  0  0
M  END
> <minimizedAffinity>
-9.19145

$$$$
4AXD_ANP_A_600


 40 42  0  0  0  0  0  0  0  0999 V2000
  -24.6959    0.1969  -17.2050 C   0  0  0  0  0  0  0  0  0  0  0  0
  -23.5434    0.5336  -16.4413 O   0  0  0  0  0  0  0  0  0  0  0  0
  -25.6312    1.3898  -17.0642 C   0  0  0  0  0  0  0  0  0  0  0  0
  -27.0043    1.0094  -17.2312 O   0  0  0  0  0  0  0  0  0  0  0  0
  -25.2878    1.9546  -15.6969 C   0  0  0  0  0  0  0  0  0  0  0  0
  -26.0237    1.3326  -14.6495 O   0  0  0  0  0  0  0  0  0  0  0  0
  -23.8255    1.5735  -15.5109 C   0  0  0  0  0  0  0  0  0  0  0  0
  -27.2322    0.3268  -16.5808 H   0  0  0  0  0  0  0  0  0  0  0  0
  -25.8526    0.3779  -14.6569 H   0  0  0  0  0  0  0  0  0  0  0  0
  -22.9808    2.7492  -15.8129 N   0  0  0  0  0  0  0  0  0  0  0  0
  -22.3003    2.9869  -16.9508 C   0  0  0  0  0  0  0  0  0  0  0  0
  -21.6384    4.1570  -16.8687 N   0  0  0  0  0  0  0  0  0  0  0  0
  -21.8955    4.6874  -15.6640 C   0  0  0  0  0  0  0  0  0  0  0  0
  -21.5070    5.9055  -14.9239 C   0  0  0  0  0  0  0  0  0  0  0  0
  -20.6992    6.8406  -15.4669 N   0  0  0  0  0  0  0  0  0  0  0  0
  -21.9985    6.0582  -13.6743 N   0  0  0  0  0  0  0  0  0  0  0  0
  -22.8230    5.1520  -13.1124 C   0  0  0  0  0  0  0  0  0  0  0  0
  -23.2120    4.0193  -13.7228 N   0  0  0  0  0  0  0  0  0  0  0  0
  -22.7858    3.7515  -14.9754 C   0  0  0  0  0  0  0  0  0  0  0  0
  -20.3474    6.7181  -16.3782 H   0  0  0  0  0  0  0  0  0  0  0  0
  -20.4617    7.6453  -14.9517 H   0  0  0  0  0  0  0  0  0  0  0  0
  -24.2891   -0.0932  -18.6445 C   0  0  0  0  0  0  0  0  0  0  0  0
  -24.8229    0.9070  -19.4956 O   0  0  0  0  0  0  0  0  0  0  0  0
  -25.1694    0.5789  -21.0265 P   0  0  0  0  0  0  0  0  0  0  0  0
  -26.1479   -0.5667  -21.0886 O   0  0  0  0  0  0  0  0  0  0  0  0
  -25.4693    1.8879  -21.7132 O   0  0  0  0  0  0  0  0  0  0  0  0
  -25.6836    1.7227  -22.6447 H   0  0  0  0  0  0  0  0  0  0  0  0
  -23.7203    0.0572  -21.4991 O   0  0  0  0  0  0  0  0  0  0  0  0
  -22.4098    0.9897  -21.4482 P   0  0  0  0  0  0  0  0  0  0  0  0
  -21.5355    0.4768  -20.3743 O   0  0  0  0  0  0  0  0  0  0  0  0
  -22.8669    2.4791  -21.0482 O   0  0  0  0  0  0  0  0  0  0  0  0
  -22.0889    3.0573  -21.0123 H   0  0  0  0  0  0  0  0  0  0  0  0
  -21.7560    0.9228  -23.0487 N   0  0  0  0  0  0  0  0  0  0  0  0
  -22.4916    0.5219  -23.6306 H   0  0  0  0  0  0  0  0  0  0  0  0
  -20.3137    0.0758  -23.4710 P   0  0  0  0  0  0  0  0  0  0  0  0
  -19.0387    1.0237  -23.6555 O   0  0  0  0  0  0  0  0  0  0  0  0
  -20.0962   -0.9937  -22.2837 O   0  0  0  0  0  0  0  0  0  0  0  0
  -20.5683   -0.5956  -24.7766 O   0  0  0  0  0  0  0  0  0  0  0  0
  -19.2941   -1.5109  -22.4572 H   0  0  0  0  0  0  0  0  0  0  0  0
  -19.7760   -1.0846  -25.0486 H   0  0  0  0  0  0  0  0  0  0  0  0
 35 36  2  0  0  0
 35 37  1  0  0  0
 35 38  1  0  0  0
 35 33  1  0  0  0
 29 30  2  0  0  0
 29 31  1  0  0  0
 29 33  1  0  0  0
 29 28  1  0  0  0
 24 25  2  0  0  0
 24 26  1  0  0  0
 24 28  1  0  0  0
 24 23  1  0  0  0
 23 22  1  0  0  0
 22  1  1  0  0  0
  1  2  1  0  0  0
  1  3  1  0  0  0
  2  7  1  0  0  0
  3  4  1  0  0  0
  3  5  1  0  0  0
  5  6  1  0  0  0
  5  7  1  0  0  0
  7 10  1  0  0  0
 10 11  1  0  0  0
 10 19  1  0  0  0
 11 12  2  0  0  0
 12 13  1  0  0  0
 13 14  1  0  0  0
 13 19  2  0  0  0
 14 15  1  0  0  0
 14 16  2  0  0  0
 16 17  1  0  0  0
 17 18  2  0  0  0
 18 19  1  0  0  0
 37 39  1  0  0  0
 38 40  1  0  0  0
 31 32  1  0  0  0
 33 34  1  0  0  0
 26 27  1  0  0  0
  4  8  1  0  0  0
  6  9  1  0  0  0
 15 20  1  0  0  0
 15 21  1  0  0  0
M  END
> <minimizedAffinity>
-9.12404

$$$$
4AXD_ANP_A_600


 40 42  0  0  0  0  0  0  0  0999 V2000
  -22.2548    0.5522  -20.2499 C   0  0  0  0  0  0  0  0  0  0  0  0
  -22.3183    0.7278  -18.8393 O   0  0  0  0  0  0  0  0  0  0  0  0
  -22.8959    1.8018  -20.8375 C   0  0  0  0  0  0  0  0  0  0  0  0
  -23.4552    1.5508  -22.1345 O   0  0  0  0  0  0  0  0  0  0  0  0
  -23.9019    2.2195  -19.7792 C   0  0  0  0  0  0  0  0  0  0  0  0
  -25.1604    1.5741  -19.9384 O   0  0  0  0  0  0  0  0  0  0  0  0
  -23.2901    1.7053  -18.4833 C   0  0  0  0  0  0  0  0  0  0  0  0
  -24.1089    0.8370  -22.0721 H   0  0  0  0  0  0  0  0  0  0  0  0
  -25.0371    0.6126  -19.9052 H   0  0  0  0  0  0  0  0  0  0  0  0
  -22.6281    2.8289  -17.7860 N   0  0  0  0  0  0  0  0  0  0  0  0
  -21.6079    3.5791  -18.2453 C   0  0  0  0  0  0  0  0  0  0  0  0
  -21.2619    4.5114  -17.3370 N   0  0  0  0  0  0  0  0  0  0  0  0
  -22.0701    4.3673  -16.2764 C   0  0  0  0  0  0  0  0  0  0  0  0
  -22.2404    5.0195  -14.9619 C   0  0  0  0  0  0  0  0  0  0  0  0
  -21.4711    6.0607  -14.5793 N   0  0  0  0  0  0  0  0  0  0  0  0
  -23.2072    4.5392  -14.1490 N   0  0  0  0  0  0  0  0  0  0  0  0
  -24.0042    3.5142  -14.5107 C   0  0  0  0  0  0  0  0  0  0  0  0
  -23.9018    2.8694  -15.6857 N   0  0  0  0  0  0  0  0  0  0  0  0
  -22.9711    3.2555  -16.5842 C   0  0  0  0  0  0  0  0  0  0  0  0
  -20.7699    6.4016  -15.1803 H   0  0  0  0  0  0  0  0  0  0  0  0
  -21.6113    6.4791  -13.6992 H   0  0  0  0  0  0  0  0  0  0  0  0
  -20.8055    0.3518  -20.6758 C   0  0  0  0  0  0  0  0  0  0  0  0
  -20.5583    1.0839  -21.8644 O   0  0  0  0  0  0  0  0  0  0  0  0
  -20.1628    0.3291  -23.2228 P   0  0  0  0  0  0  0  0  0  0  0  0
  -19.0201    1.0532  -23.8886 O   0  0  0  0  0  0  0  0  0  0  0  0
  -20.0662   -1.1435  -22.9107 O   0  0  0  0  0  0  0  0  0  0  0  0
  -19.8274   -1.6295  -23.7155 H   0  0  0  0  0  0  0  0  0  0  0  0
  -21.5139    0.6021  -24.0568 O   0  0  0  0  0  0  0  0  0  0  0  0
  -21.7433    0.0218  -25.5401 P   0  0  0  0  0  0  0  0  0  0  0  0
  -22.9071   -0.8859  -25.4919 O   0  0  0  0  0  0  0  0  0  0  0  0
  -20.4519   -0.8468  -25.9462 O   0  0  0  0  0  0  0  0  0  0  0  0
  -20.5715   -1.2059  -26.8393 H   0  0  0  0  0  0  0  0  0  0  0  0
  -21.9206    1.4219  -26.5410 N   0  0  0  0  0  0  0  0  0  0  0  0
  -22.1289    2.1913  -25.9046 H   0  0  0  0  0  0  0  0  0  0  0  0
  -23.0648    1.5557  -27.8251 P   0  0  0  0  0  0  0  0  0  0  0  0
  -22.4517    2.1513  -29.1770 O   0  0  0  0  0  0  0  0  0  0  0  0
  -23.6326    0.0608  -28.0343 O   0  0  0  0  0  0  0  0  0  0  0  0
  -24.1305    2.4897  -27.3643 O   0  0  0  0  0  0  0  0  0  0  0  0
  -24.2883    0.0610  -28.7491 H   0  0  0  0  0  0  0  0  0  0  0  0
  -24.7958    2.5910  -28.0629 H   0  0  0  0  0  0  0  0  0  0  0  0
 35 36  2  0  0  0
 35 37  1  0  0  0
 35 38  1  0  0  0
 35 33  1  0  0  0
 29 30  2  0  0  0
 29 31  1  0  0  0
 29 33  1  0  0  0
 29 28  1  0  0  0
 24 25  2  0  0  0
 24 26  1  0  0  0
 24 28  1  0  0  0
 24 23  1  0  0  0
 23 22  1  0  0  0
 22  1  1  0  0  0
  1  2  1  0  0  0
  1  3  1  0  0  0
  2  7  1  0  0  0
  3  4  1  0  0  0
  3  5  1  0  0  0
  5  6  1  0  0  0
  5  7  1  0  0  0
  7 10  1  0  0  0
 10 11  1  0  0  0
 10 19  1  0  0  0
 11 12  2  0  0  0
 12 13  1  0  0  0
 13 14  1  0  0  0
 13 19  2  0  0  0
 14 15  1  0  0  0
 14 16  2  0  0  0
 16 17  1  0  0  0
 17 18  2  0  0  0
 18 19  1  0  0  0
 37 39  1  0  0  0
 38 40  1  0  0  0
 31 32  1  0  0  0
 33 34  1  0  0  0
 26 27  1  0  0  0
  4  8  1  0  0  0
  6  9  1  0  0  0
 15 20  1  0  0  0
 15 21  1  0  0  0
M  END
> <minimizedAffinity>
-9.11163

$$$$
4AXD_ANP_A_600


 40 42  0  0  0  0  0  0  0  0999 V2000
  -22.9393    2.1535  -20.5363 C   0  0  0  0  0  0  0  0  0  0  0  0
  -22.3358    3.4216  -20.3072 O   0  0  0  0  0  0  0  0  0  0  0  0
  -22.2061    1.1894  -19.6141 C   0  0  0  0  0  0  0  0  0  0  0  0
  -22.2388   -0.1538  -20.1171 O   0  0  0  0  0  0  0  0  0  0  0  0
  -20.8173    1.7926  -19.4966 C   0  0  0  0  0  0  0  0  0  0  0  0
  -19.9463    1.3627  -20.5367 O   0  0  0  0  0  0  0  0  0  0  0  0
  -21.0582    3.2829  -19.6947 C   0  0  0  0  0  0  0  0  0  0  0  0
  -21.8474   -0.1764  -21.0043 H   0  0  0  0  0  0  0  0  0  0  0  0
  -20.3288    1.5976  -21.3965 H   0  0  0  0  0  0  0  0  0  0  0  0
  -21.0690    3.9474  -18.3736 N   0  0  0  0  0  0  0  0  0  0  0  0
  -21.7218    3.5409  -17.2677 C   0  0  0  0  0  0  0  0  0  0  0  0
  -21.5031    4.3957  -16.2501 N   0  0  0  0  0  0  0  0  0  0  0  0
  -20.6950    5.3670  -16.6998 C   0  0  0  0  0  0  0  0  0  0  0  0
  -20.0788    6.5906  -16.1471 C   0  0  0  0  0  0  0  0  0  0  0  0
  -20.2648    6.9631  -14.8630 N   0  0  0  0  0  0  0  0  0  0  0  0
  -19.3082    7.3289  -16.9761 N   0  0  0  0  0  0  0  0  0  0  0  0
  -19.0876    6.9725  -18.2571 C   0  0  0  0  0  0  0  0  0  0  0  0
  -19.6205    5.8787  -18.8285 N   0  0  0  0  0  0  0  0  0  0  0  0
  -20.4112    5.0600  -18.1027 C   0  0  0  0  0  0  0  0  0  0  0  0
  -20.8284    6.4169  -14.2687 H   0  0  0  0  0  0  0  0  0  0  0  0
  -19.8367    7.7809  -14.5208 H   0  0  0  0  0  0  0  0  0  0  0  0
  -24.4356    2.2418  -20.2620 C   0  0  0  0  0  0  0  0  0  0  0  0
  -24.7161    1.6755  -18.9930 O   0  0  0  0  0  0  0  0  0  0  0  0
  -25.6712    0.3941  -18.8621 P   0  0  0  0  0  0  0  0  0  0  0  0
  -26.6193    0.3490  -20.0336 O   0  0  0  0  0  0  0  0  0  0  0  0
  -24.7973   -0.7898  -18.5306 O   0  0  0  0  0  0  0  0  0  0  0  0
  -25.3477   -1.5839  -18.4445 H   0  0  0  0  0  0  0  0  0  0  0  0
  -26.4872    0.8307  -17.5434 O   0  0  0  0  0  0  0  0  0  0  0  0
  -25.8045    0.8891  -16.0873 P   0  0  0  0  0  0  0  0  0  0  0  0
  -26.0265    2.2432  -15.5416 O   0  0  0  0  0  0  0  0  0  0  0  0
  -24.2199    0.6786  -16.2654 O   0  0  0  0  0  0  0  0  0  0  0  0
  -23.7898    0.7107  -15.3966 H   0  0  0  0  0  0  0  0  0  0  0  0
  -26.5330   -0.4082  -15.2042 N   0  0  0  0  0  0  0  0  0  0  0  0
  -25.7584   -0.9588  -14.8337 H   0  0  0  0  0  0  0  0  0  0  0  0
  -27.6310   -1.5492  -15.8887 P   0  0  0  0  0  0  0  0  0  0  0  0
  -27.0708   -2.2800  -17.1965 O   0  0  0  0  0  0  0  0  0  0  0  0
  -27.9348   -2.5982  -14.7020 O   0  0  0  0  0  0  0  0  0  0  0  0
  -28.8541   -0.7952  -16.2833 O   0  0  0  0  0  0  0  0  0  0  0  0
  -28.5522   -3.2757  -15.0195 H   0  0  0  0  0  0  0  0  0  0  0  0
  -29.4983   -1.4060  -16.6742 H   0  0  0  0  0  0  0  0  0  0  0  0
 35 36  2  0  0  0
 35 37  1  0  0  0
 35 38  1  0  0  0
 35 33  1  0  0  0
 29 30  2  0  0  0
 29 31  1  0  0  0
 29 33  1  0  0  0
 29 28  1  0  0  0
 24 25  2  0  0  0
 24 26  1  0  0  0
 24 28  1  0  0  0
 24 23  1  0  0  0
 23 22  1  0  0  0
 22  1  1  0  0  0
  1  2  1  0  0  0
  1  3  1  0  0  0
  2  7  1  0  0  0
  3  4  1  0  0  0
  3  5  1  0  0  0
  5  6  1  0  0  0
  5  7  1  0  0  0
  7 10  1  0  0  0
 10 11  1  0  0  0
 10 19  1  0  0  0
 11 12  2  0  0  0
 12 13  1  0  0  0
 13 14  1  0  0  0
 13 19  2  0  0  0
 14 15  1  0  0  0
 14 16  2  0  0  0
 16 17  1  0  0  0
 17 18  2  0  0  0
 18 19  1  0  0  0
 37 39  1  0  0  0
 38 40  1  0  0  0
 31 32  1  0  0  0
 33 34  1  0  0  0
 26 27  1  0  0  0
  4  8  1  0  0  0
  6  9  1  0  0  0
 15 20  1  0  0  0
 15 21  1  0  0  0
M  END
> <minimizedAffinity>
-9.10339

$$$$
4AXD_ANP_A_600


 40 42  0  0  0  0  0  0  0  0999 V2000
  -24.3116    0.1383  -18.6550 C   0  0  0  0  0  0  0  0  0  0  0  0
  -23.2380    0.3826  -17.7537 O   0  0  0  0  0  0  0  0  0  0  0  0
  -25.3887    1.1452  -18.2758 C   0  0  0  0  0  0  0  0  0  0  0  0
  -26.6986    0.6783  -18.6284 O   0  0  0  0  0  0  0  0  0  0  0  0
  -25.1681    1.3628  -16.7891 C   0  0  0  0  0  0  0  0  0  0  0  0
  -25.8627    0.4121  -15.9898 O   0  0  0  0  0  0  0  0  0  0  0  0
  -23.6785    1.1043  -16.6084 C   0  0  0  0  0  0  0  0  0  0  0  0
  -26.8669   -0.1719  -18.1927 H   0  0  0  0  0  0  0  0  0  0  0  0
  -25.5775   -0.4831  -16.2311 H   0  0  0  0  0  0  0  0  0  0  0  0
  -22.9710    2.4010  -16.5392 N   0  0  0  0  0  0  0  0  0  0  0  0
  -22.2986    3.0110  -17.5342 C   0  0  0  0  0  0  0  0  0  0  0  0
  -21.7802    4.1783  -17.1068 N   0  0  0  0  0  0  0  0  0  0  0  0
  -22.1237    4.3299  -15.8192 C   0  0  0  0  0  0  0  0  0  0  0  0
  -21.8968    5.3346  -14.7603 C   0  0  0  0  0  0  0  0  0  0  0  0
  -21.1924    6.4631  -14.9894 N   0  0  0  0  0  0  0  0  0  0  0  0
  -22.4297    5.0878  -13.5432 N   0  0  0  0  0  0  0  0  0  0  0  0
  -23.1544    3.9801  -13.2890 C   0  0  0  0  0  0  0  0  0  0  0  0
  -23.3946    3.0216  -14.2003 N   0  0  0  0  0  0  0  0  0  0  0  0
  -22.9130    3.1523  -15.4546 C   0  0  0  0  0  0  0  0  0  0  0  0
  -20.8090    6.6317  -15.8804 H   0  0  0  0  0  0  0  0  0  0  0  0
  -21.0621    7.1176  -14.2656 H   0  0  0  0  0  0  0  0  0  0  0  0
  -23.8185    0.2829  -20.0895 C   0  0  0  0  0  0  0  0  0  0  0  0
  -24.8493    0.8392  -20.8881 O   0  0  0  0  0  0  0  0  0  0  0  0
  -24.5760    1.2343  -22.4180 P   0  0  0  0  0  0  0  0  0  0  0  0
  -25.1547    2.5981  -22.6986 O   0  0  0  0  0  0  0  0  0  0  0  0
  -23.1266    0.9360  -22.7104 O   0  0  0  0  0  0  0  0  0  0  0  0
  -22.9289    1.1652  -23.6320 H   0  0  0  0  0  0  0  0  0  0  0  0
  -25.4959    0.1180  -23.1272 O   0  0  0  0  0  0  0  0  0  0  0  0
  -26.9457   -0.2908  -22.5611 P   0  0  0  0  0  0  0  0  0  0  0  0
  -27.8693   -0.3732  -23.7104 O   0  0  0  0  0  0  0  0  0  0  0  0
  -27.4592    0.8875  -21.5942 O   0  0  0  0  0  0  0  0  0  0  0  0
  -28.3337    0.6589  -21.2423 H   0  0  0  0  0  0  0  0  0  0  0  0
  -26.6839   -1.7670  -21.6974 N   0  0  0  0  0  0  0  0  0  0  0  0
  -25.6727   -1.8993  -21.6774 H   0  0  0  0  0  0  0  0  0  0  0  0
  -27.3446   -3.2913  -22.1623 P   0  0  0  0  0  0  0  0  0  0  0  0
  -28.5115   -3.8100  -21.1994 O   0  0  0  0  0  0  0  0  0  0  0  0
  -27.8678   -3.0750  -23.6724 O   0  0  0  0  0  0  0  0  0  0  0  0
  -26.2355   -4.2845  -22.1011 O   0  0  0  0  0  0  0  0  0  0  0  0
  -28.2560   -3.9008  -24.0015 H   0  0  0  0  0  0  0  0  0  0  0  0
  -26.5697   -5.1584  -22.3571 H   0  0  0  0  0  0  0  0  0  0  0  0
 35 36  2  0  0  0
 35 37  1  0  0  0
 35 38  1  0  0  0
 35 33  1  0  0  0
 29 30  2  0  0  0
 29 31  1  0  0  0
 29 33  1  0  0  0
 29 28  1  0  0  0
 24 25  2  0  0  0
 24 26  1  0  0  0
 24 28  1  0  0  0
 24 23  1  0  0  0
 23 22  1  0  0  0
 22  1  1  0  0  0
  1  2  1  0  0  0
  1  3  1  0  0  0
  2  7  1  0  0  0
  3  4  1  0  0  0
  3  5  1  0  0  0
  5  6  1  0  0  0
  5  7  1  0  0  0
  7 10  1  0  0  0
 10 11  1  0  0  0
 10 19  1  0  0  0
 11 12  2  0  0  0
 12 13  1  0  0  0
 13 14  1  0  0  0
 13 19  2  0  0  0
 14 15  1  0  0  0
 14 16  2  0  0  0
 16 17  1  0  0  0
 17 18  2  0  0  0
 18 19  1  0  0  0
 37 39  1  0  0  0
 38 40  1  0  0  0
 31 32  1  0  0  0
 33 34  1  0  0  0
 26 27  1  0  0  0
  4  8  1  0  0  0
  6  9  1  0  0  0
 15 20  1  0  0  0
 15 21  1  0  0  0
M  END
> <minimizedAffinity>
-8.95062

$$$$
4AXD_ANP_A_600


 40 42  0  0  0  0  0  0  0  0999 V2000
  -20.9097    3.6683  -18.2273 C   0  0  0  0  0  0  0  0  0  0  0  0
  -19.6737    4.3562  -18.0727 O   0  0  0  0  0  0  0  0  0  0  0  0
  -21.9133    4.4585  -17.3990 C   0  0  0  0  0  0  0  0  0  0  0  0
  -22.9971    3.6327  -16.9501 O   0  0  0  0  0  0  0  0  0  0  0  0
  -21.0678    5.0595  -16.2898 C   0  0  0  0  0  0  0  0  0  0  0  0
  -20.9294    4.1856  -15.1752 O   0  0  0  0  0  0  0  0  0  0  0  0
  -19.6924    5.2015  -16.9273 C   0  0  0  0  0  0  0  0  0  0  0  0
  -22.6459    2.8914  -16.4325 H   0  0  0  0  0  0  0  0  0  0  0  0
  -20.5329    3.3498  -15.4668 H   0  0  0  0  0  0  0  0  0  0  0  0
  -19.5004    6.6064  -17.3471 N   0  0  0  0  0  0  0  0  0  0  0  0
  -19.7055    7.7097  -16.6020 C   0  0  0  0  0  0  0  0  0  0  0  0
  -19.4295    8.8184  -17.3152 N   0  0  0  0  0  0  0  0  0  0  0  0
  -19.0366    8.4299  -18.5372 C   0  0  0  0  0  0  0  0  0  0  0  0
  -18.6078    9.0919  -19.7864 C   0  0  0  0  0  0  0  0  0  0  0  0
  -18.5183   10.4352  -19.8851 N   0  0  0  0  0  0  0  0  0  0  0  0
  -18.2975    8.2996  -20.8362 N   0  0  0  0  0  0  0  0  0  0  0  0
  -18.3578    6.9551  -20.7623 C   0  0  0  0  0  0  0  0  0  0  0  0
  -18.7457    6.2861  -19.6628 N   0  0  0  0  0  0  0  0  0  0  0  0
  -19.0836    6.9669  -18.5472 C   0  0  0  0  0  0  0  0  0  0  0  0
  -18.7472   11.0018  -19.1133 H   0  0  0  0  0  0  0  0  0  0  0  0
  -18.2242   10.8482  -20.7290 H   0  0  0  0  0  0  0  0  0  0  0  0
  -21.2684    3.5867  -19.7060 C   0  0  0  0  0  0  0  0  0  0  0  0
  -22.5219    2.9409  -19.8518 O   0  0  0  0  0  0  0  0  0  0  0  0
  -22.7024    1.7289  -20.8861 P   0  0  0  0  0  0  0  0  0  0  0  0
  -22.8615    0.4361  -20.1266 O   0  0  0  0  0  0  0  0  0  0  0  0
  -23.7269    2.1547  -21.9080 O   0  0  0  0  0  0  0  0  0  0  0  0
  -23.8590    1.4402  -22.5505 H   0  0  0  0  0  0  0  0  0  0  0  0
  -21.2402    1.7638  -21.5617 O   0  0  0  0  0  0  0  0  0  0  0  0
  -20.7313    0.6217  -22.5746 P   0  0  0  0  0  0  0  0  0  0  0  0
  -20.3385   -0.5511  -21.7678 O   0  0  0  0  0  0  0  0  0  0  0  0
  -19.4202    1.1668  -23.3303 O   0  0  0  0  0  0  0  0  0  0  0  0
  -19.0978    0.4907  -23.9467 H   0  0  0  0  0  0  0  0  0  0  0  0
  -22.0512    0.3774  -23.6662 N   0  0  0  0  0  0  0  0  0  0  0  0
  -22.6163   -0.3650  -23.2540 H   0  0  0  0  0  0  0  0  0  0  0  0
  -21.8675   -0.0447  -25.3288 P   0  0  0  0  0  0  0  0  0  0  0  0
  -20.4574   -0.7167  -25.6724 O   0  0  0  0  0  0  0  0  0  0  0  0
  -23.0965   -1.0403  -25.6438 O   0  0  0  0  0  0  0  0  0  0  0  0
  -21.9674    1.2182  -26.1132 O   0  0  0  0  0  0  0  0  0  0  0  0
  -23.0559   -1.3207  -26.5715 H   0  0  0  0  0  0  0  0  0  0  0  0
  -21.8685    1.0208  -27.0578 H   0  0  0  0  0  0  0  0  0  0  0  0
 35 36  2  0  0  0
 35 37  1  0  0  0
 35 38  1  0  0  0
 35 33  1  0  0  0
 29 30  2  0  0  0
 29 31  1  0  0  0
 29 33  1  0  0  0
 29 28  1  0  0  0
 24 25  2  0  0  0
 24 26  1  0  0  0
 24 28  1  0  0  0
 24 23  1  0  0  0
 23 22  1  0  0  0
 22  1  1  0  0  0
  1  2  1  0  0  0
  1  3  1  0  0  0
  2  7  1  0  0  0
  3  4  1  0  0  0
  3  5  1  0  0  0
  5  6  1  0  0  0
  5  7  1  0  0  0
  7 10  1  0  0  0
 10 11  1  0  0  0
 10 19  1  0  0  0
 11 12  2  0  0  0
 12 13  1  0  0  0
 13 14  1  0  0  0
 13 19  2  0  0  0
 14 15  1  0  0  0
 14 16  2  0  0  0
 16 17  1  0  0  0
 17 18  2  0  0  0
 18 19  1  0  0  0
 37 39  1  0  0  0
 38 40  1  0  0  0
 31 32  1  0  0  0
 33 34  1  0  0  0
 26 27  1  0  0  0
  4  8  1  0  0  0
  6  9  1  0  0  0
 15 20  1  0  0  0
 15 21  1  0  0  0
M  END
> <minimizedAffinity>
-8.79746

$$$$
4AXD_ANP_A_600


 40 42  0  0  0  0  0  0  0  0999 V2000
  -22.9657    2.3390  -20.8688 C   0  0  0  0  0  0  0  0  0  0  0  0
  -22.3130    3.5552  -20.5228 O   0  0  0  0  0  0  0  0  0  0  0  0
  -22.3621    1.2859  -19.9499 C   0  0  0  0  0  0  0  0  0  0  0  0
  -22.4292   -0.0246  -20.5295 O   0  0  0  0  0  0  0  0  0  0  0  0
  -20.9558    1.7984  -19.6931 C   0  0  0  0  0  0  0  0  0  0  0  0
  -20.0303    1.3725  -20.6868 O   0  0  0  0  0  0  0  0  0  0  0  0
  -21.0975    3.3087  -19.8239 C   0  0  0  0  0  0  0  0  0  0  0  0
  -21.9707   -0.0239  -21.3843 H   0  0  0  0  0  0  0  0  0  0  0  0
  -20.3300    1.6746  -21.5585 H   0  0  0  0  0  0  0  0  0  0  0  0
  -21.1759    3.9025  -18.4717 N   0  0  0  0  0  0  0  0  0  0  0  0
  -21.8975    3.4492  -17.4286 C   0  0  0  0  0  0  0  0  0  0  0  0
  -21.7266    4.2451  -16.3556 N   0  0  0  0  0  0  0  0  0  0  0  0
  -20.8805    5.2251  -16.7053 C   0  0  0  0  0  0  0  0  0  0  0  0
  -20.2806    6.4071  -16.0531 C   0  0  0  0  0  0  0  0  0  0  0  0
  -20.5359    6.7143  -14.7637 N   0  0  0  0  0  0  0  0  0  0  0  0
  -19.4529    7.1751  -16.7957 N   0  0  0  0  0  0  0  0  0  0  0  0
  -19.1631    6.8833  -18.0792 C   0  0  0  0  0  0  0  0  0  0  0  0
  -19.6769    5.8305  -18.7383 N   0  0  0  0  0  0  0  0  0  0  0  0
  -20.5198    4.9880  -18.1040 C   0  0  0  0  0  0  0  0  0  0  0  0
  -21.1407    6.1470  -14.2330 H   0  0  0  0  0  0  0  0  0  0  0  0
  -20.1172    7.5055  -14.3540 H   0  0  0  0  0  0  0  0  0  0  0  0
  -24.4718    2.5018  -20.7043 C   0  0  0  0  0  0  0  0  0  0  0  0
  -25.1401    1.6777  -21.6444 O   0  0  0  0  0  0  0  0  0  0  0  0
  -25.9990    0.4134  -21.1592 P   0  0  0  0  0  0  0  0  0  0  0  0
  -27.3630    0.4532  -21.8006 O   0  0  0  0  0  0  0  0  0  0  0  0
  -25.1211   -0.8064  -21.2877 O   0  0  0  0  0  0  0  0  0  0  0  0
  -25.6138   -1.5911  -21.0007 H   0  0  0  0  0  0  0  0  0  0  0  0
  -26.1406    0.7972  -19.6010 O   0  0  0  0  0  0  0  0  0  0  0  0
  -25.7673   -0.2327  -18.4222 P   0  0  0  0  0  0  0  0  0  0  0  0
  -24.2957   -0.3460  -18.3745 O   0  0  0  0  0  0  0  0  0  0  0  0
  -26.3648   -1.6757  -18.8065 O   0  0  0  0  0  0  0  0  0  0  0  0
  -26.1495   -2.3117  -18.1064 H   0  0  0  0  0  0  0  0  0  0  0  0
  -26.5190    0.4216  -17.0078 N   0  0  0  0  0  0  0  0  0  0  0  0
  -26.8312    1.3568  -17.2689 H   0  0  0  0  0  0  0  0  0  0  0  0
  -25.7270    0.6022  -15.4858 P   0  0  0  0  0  0  0  0  0  0  0  0
  -25.7811    2.0904  -14.9024 O   0  0  0  0  0  0  0  0  0  0  0  0
  -26.4598   -0.4501  -14.5077 O   0  0  0  0  0  0  0  0  0  0  0  0
  -24.2939    0.2527  -15.6955 O   0  0  0  0  0  0  0  0  0  0  0  0
  -26.0612   -0.4025  -13.6247 H   0  0  0  0  0  0  0  0  0  0  0  0
  -23.8132    0.3427  -14.8578 H   0  0  0  0  0  0  0  0  0  0  0  0
 35 36  2  0  0  0
 35 37  1  0  0  0
 35 38  1  0  0  0
 35 33  1  0  0  0
 29 30  2  0  0  0
 29 31  1  0  0  0
 29 33  1  0  0  0
 29 28  1  0  0  0
 24 25  2  0  0  0
 24 26  1  0  0  0
 24 28  1  0  0  0
 24 23  1  0  0  0
 23 22  1  0  0  0
 22  1  1  0  0  0
  1  2  1  0  0  0
  1  3  1  0  0  0
  2  7  1  0  0  0
  3  4  1  0  0  0
  3  5  1  0  0  0
  5  6  1  0  0  0
  5  7  1  0  0  0
  7 10  1  0  0  0
 10 11  1  0  0  0
 10 19  1  0  0  0
 11 12  2  0  0  0
 12 13  1  0  0  0
 13 14  1  0  0  0
 13 19  2  0  0  0
 14 15  1  0  0  0
 14 16  2  0  0  0
 16 17  1  0  0  0
 17 18  2  0  0  0
 18 19  1  0  0  0
 37 39  1  0  0  0
 38 40  1  0  0  0
 31 32  1  0  0  0
 33 34  1  0  0  0
 26 27  1  0  0  0
  4  8  1  0  0  0
  6  9  1  0  0  0
 15 20  1  0  0  0
 15 21  1  0  0  0
M  END
> <minimizedAffinity>
-8.77184

$$$$
