2PVH_P19_A_501


 25 28  0  0  0  0  0  0  0  0999 V2000
   21.1444    8.7640   22.0460 N   0  0  0  0  0  0  0  0  0  0  0  0
   20.6428    8.5173   23.2768 C   0  0  0  0  0  0  0  0  0  0  0  0
   20.7317    7.1390   23.5053 C   0  0  0  0  0  0  0  0  0  0  0  0
   21.3271    6.5774   22.3105 C   0  0  0  0  0  0  0  0  0  0  0  0
   21.5616    7.6082   21.4458 N   0  0  0  0  0  0  0  0  0  0  0  0
   21.6370    5.3197   21.9552 N   0  0  0  0  0  0  0  0  0  0  0  0
   22.1668    5.1364   20.7508 C   0  0  0  0  0  0  0  0  0  0  0  0
   22.4024    6.1293   19.8958 N   0  0  0  0  0  0  0  0  0  0  0  0
   22.0950    7.3739   20.2551 C   0  0  0  0  0  0  0  0  0  0  0  0
   22.3290    8.3996   19.3952 N   0  0  0  0  0  0  0  0  0  0  0  0
   22.2407    9.3134   19.7510 H   0  0  0  0  0  0  0  0  0  0  0  0
   22.6744    8.2739   18.0861 C   0  0  0  0  0  0  0  0  0  0  0  0
   23.6890    7.4188   17.6507 C   0  0  0  0  0  0  0  0  0  0  0  0
   24.0623    7.3461   16.3090 C   0  0  0  0  0  0  0  0  0  0  0  0
   23.4064    8.1512   15.3804 C   0  0  0  0  0  0  0  0  0  0  0  0
   22.3784    8.9954   15.8004 C   0  0  0  0  0  0  0  0  0  0  0  0
   22.0093    9.0571   17.1442 C   0  0  0  0  0  0  0  0  0  0  0  0
   22.4601    3.8574   20.3914 N   0  0  0  0  0  0  0  0  0  0  0  0
   21.8332    3.1567   20.6833 H   0  0  0  0  0  0  0  0  0  0  0  0
   23.5384    3.4571   19.6667 C   0  0  0  0  0  0  0  0  0  0  0  0
   24.8542    3.5675   20.1208 C   0  0  0  0  0  0  0  0  0  0  0  0
   25.9402    3.1468   19.3547 C   0  0  0  0  0  0  0  0  0  0  0  0
   25.7021    2.5989   18.0972 C   0  0  0  0  0  0  0  0  0  0  0  0
   24.3947    2.4936   17.6229 C   0  0  0  0  0  0  0  0  0  0  0  0
   23.3176    2.9179   18.4008 C   0  0  0  0  0  0  0  0  0  0  0  0
  1  2  2  0  0  0
  1  5  1  0  0  0
  2  3  1  0  0  0
  3  4  2  0  0  0
  4  6  1  0  0  0
  4  5  1  0  0  0
  5  9  1  0  0  0
  6  7  2  0  0  0
  7 18  1  0  0  0
  7  8  1  0  0  0
  8  9  2  0  0  0
  9 10  1  0  0  0
 10 12  1  0  0  0
 12 13  2  0  0  0
 12 17  1  0  0  0
 13 14  1  0  0  0
 14 15  2  0  0  0
 15 16  1  0  0  0
 16 17  2  0  0  0
 18 20  1  0  0  0
 20 25  2  0  0  0
 20 21  1  0  0  0
 21 22  2  0  0  0
 22 23  1  0  0  0
 23 24  2  0  0  0
 24 25  1  0  0  0
 10 11  1  0  0  0
 18 19  1  0  0  0
M  END
> <minimizedAffinity>
-9.38257

$$$$
2PVH_P19_A_501


 25 28  0  0  0  0  0  0  0  0999 V2000
   21.2416    5.7254   22.8928 N   0  0  0  0  0  0  0  0  0  0  0  0
   20.7697    6.6590   23.7490 C   0  0  0  0  0  0  0  0  0  0  0  0
   20.8177    7.8976   23.0983 C   0  0  0  0  0  0  0  0  0  0  0  0
   21.3580    7.6320   21.7811 C   0  0  0  0  0  0  0  0  0  0  0  0
   21.6028    6.2908   21.7012 N   0  0  0  0  0  0  0  0  0  0  0  0
   21.6407    8.4292   20.7378 N   0  0  0  0  0  0  0  0  0  0  0  0
   22.1587    7.8602   19.6549 C   0  0  0  0  0  0  0  0  0  0  0  0
   22.4035    6.5550   19.5597 N   0  0  0  0  0  0  0  0  0  0  0  0
   22.1188    5.7700   20.5967 C   0  0  0  0  0  0  0  0  0  0  0  0
   22.3616    4.4354   20.5170 N   0  0  0  0  0  0  0  0  0  0  0  0
   21.7496    3.8374   21.0040 H   0  0  0  0  0  0  0  0  0  0  0  0
   23.3762    3.8541   19.8231 C   0  0  0  0  0  0  0  0  0  0  0  0
   24.6851    3.7940   20.3061 C   0  0  0  0  0  0  0  0  0  0  0  0
   25.7205    3.2405   19.5535 C   0  0  0  0  0  0  0  0  0  0  0  0
   25.4400    2.7376   18.2851 C   0  0  0  0  0  0  0  0  0  0  0  0
   24.1329    2.7749   17.7995 C   0  0  0  0  0  0  0  0  0  0  0  0
   23.1033    3.3263   18.5623 C   0  0  0  0  0  0  0  0  0  0  0  0
   22.4599    8.6774   18.6098 N   0  0  0  0  0  0  0  0  0  0  0  0
   22.3058    9.6413   18.7379 H   0  0  0  0  0  0  0  0  0  0  0  0
   22.9539    8.2867   17.4049 C   0  0  0  0  0  0  0  0  0  0  0  0
   23.9778    7.3483   17.2612 C   0  0  0  0  0  0  0  0  0  0  0  0
   24.4630    6.9666   16.0114 C   0  0  0  0  0  0  0  0  0  0  0  0
   23.9064    7.5407   14.8716 C   0  0  0  0  0  0  0  0  0  0  0  0
   22.8919    8.4895   14.9979 C   0  0  0  0  0  0  0  0  0  0  0  0
   22.4157    8.8613   16.2550 C   0  0  0  0  0  0  0  0  0  0  0  0
  1  2  2  0  0  0
  1  5  1  0  0  0
  2  3  1  0  0  0
  3  4  2  0  0  0
  4  6  1  0  0  0
  4  5  1  0  0  0
  5  9  1  0  0  0
  6  7  2  0  0  0
  7 18  1  0  0  0
  7  8  1  0  0  0
  8  9  2  0  0  0
  9 10  1  0  0  0
 10 12  1  0  0  0
 12 13  2  0  0  0
 12 17  1  0  0  0
 13 14  1  0  0  0
 14 15  2  0  0  0
 15 16  1  0  0  0
 16 17  2  0  0  0
 18 20  1  0  0  0
 20 25  2  0  0  0
 20 21  1  0  0  0
 21 22  2  0  0  0
 22 23  1  0  0  0
 23 24  2  0  0  0
 24 25  1  0  0  0
 10 11  1  0  0  0
 18 19  1  0  0  0
M  END
> <minimizedAffinity>
-9.33774

$$$$
2PVH_P19_A_501


 25 28  0  0  0  0  0  0  0  0999 V2000
   20.7610    7.9293   23.3053 N   0  0  0  0  0  0  0  0  0  0  0  0
   20.1530    7.4090   24.3947 C   0  0  0  0  0  0  0  0  0  0  0  0
   20.2395    6.0146   24.3063 C   0  0  0  0  0  0  0  0  0  0  0  0
   20.9485    5.7394   23.0739 C   0  0  0  0  0  0  0  0  0  0  0  0
   21.2466    6.9401   22.4954 N   0  0  0  0  0  0  0  0  0  0  0  0
   21.3064    4.5953   22.4681 N   0  0  0  0  0  0  0  0  0  0  0  0
   21.9460    4.6908   21.3076 C   0  0  0  0  0  0  0  0  0  0  0  0
   22.2448    5.8524   20.7298 N   0  0  0  0  0  0  0  0  0  0  0  0
   21.8892    6.9829   21.3367 C   0  0  0  0  0  0  0  0  0  0  0  0
   22.1864    8.1776   20.7618 N   0  0  0  0  0  0  0  0  0  0  0  0
   22.8686    8.7323   21.2047 H   0  0  0  0  0  0  0  0  0  0  0  0
   21.6236    8.6737   19.6277 C   0  0  0  0  0  0  0  0  0  0  0  0
   22.2322    8.5725   18.3749 C   0  0  0  0  0  0  0  0  0  0  0  0
   21.6616    9.1360   17.2340 C   0  0  0  0  0  0  0  0  0  0  0  0
   20.4539    9.8205   17.3500 C   0  0  0  0  0  0  0  0  0  0  0  0
   19.8269    9.9118   18.5927 C   0  0  0  0  0  0  0  0  0  0  0  0
   20.4035    9.3404   19.7271 C   0  0  0  0  0  0  0  0  0  0  0  0
   22.2880    3.5272   20.6913 N   0  0  0  0  0  0  0  0  0  0  0  0
   21.7068    2.7491   20.8523 H   0  0  0  0  0  0  0  0  0  0  0  0
   23.3578    3.3390   19.8737 C   0  0  0  0  0  0  0  0  0  0  0  0
   24.6793    3.3370   20.3246 C   0  0  0  0  0  0  0  0  0  0  0  0
   25.7562    3.1402   19.4616 C   0  0  0  0  0  0  0  0  0  0  0  0
   25.5030    2.9386   18.1075 C   0  0  0  0  0  0  0  0  0  0  0  0
   24.1895    2.9508   17.6385 C   0  0  0  0  0  0  0  0  0  0  0  0
   23.1216    3.1482   18.5136 C   0  0  0  0  0  0  0  0  0  0  0  0
  1  2  2  0  0  0
  1  5  1  0  0  0
  2  3  1  0  0  0
  3  4  2  0  0  0
  4  6  1  0  0  0
  4  5  1  0  0  0
  5  9  1  0  0  0
  6  7  2  0  0  0
  7 18  1  0  0  0
  7  8  1  0  0  0
  8  9  2  0  0  0
  9 10  1  0  0  0
 10 12  1  0  0  0
 12 13  2  0  0  0
 12 17  1  0  0  0
 13 14  1  0  0  0
 14 15  2  0  0  0
 15 16  1  0  0  0
 16 17  2  0  0  0
 18 20  1  0  0  0
 20 25  2  0  0  0
 20 21  1  0  0  0
 21 22  2  0  0  0
 22 23  1  0  0  0
 23 24  2  0  0  0
 24 25  1  0  0  0
 10 11  1  0  0  0
 18 19  1  0  0  0
M  END
> <minimizedAffinity>
-9.24196

$$$$
2PVH_P19_A_501


 25 28  0  0  0  0  0  0  0  0999 V2000
   23.7899    1.7547   20.0082 N   0  0  0  0  0  0  0  0  0  0  0  0
   22.7254    2.2958   20.6416 C   0  0  0  0  0  0  0  0  0  0  0  0
   22.5083    3.5684   20.1001 C   0  0  0  0  0  0  0  0  0  0  0  0
   23.5303    3.7481   19.0898 C   0  0  0  0  0  0  0  0  0  0  0  0
   24.2909    2.6140   19.0696 N   0  0  0  0  0  0  0  0  0  0  0  0
   23.8222    4.7668   18.2644 N   0  0  0  0  0  0  0  0  0  0  0  0
   24.8624    4.6177   17.4516 C   0  0  0  0  0  0  0  0  0  0  0  0
   25.6141    3.5194   17.4186 N   0  0  0  0  0  0  0  0  0  0  0  0
   25.3179    2.5124   18.2377 C   0  0  0  0  0  0  0  0  0  0  0  0
   26.0741    1.3837   18.2172 N   0  0  0  0  0  0  0  0  0  0  0  0
   26.4355    1.0691   19.0772 H   0  0  0  0  0  0  0  0  0  0  0  0
   26.3751    0.6508   17.1121 C   0  0  0  0  0  0  0  0  0  0  0  0
   27.6370    0.6677   16.5144 C   0  0  0  0  0  0  0  0  0  0  0  0
   27.9074   -0.0507   15.3500 C   0  0  0  0  0  0  0  0  0  0  0  0
   26.8891   -0.8019   14.7675 C   0  0  0  0  0  0  0  0  0  0  0  0
   25.6297   -0.8417   15.3659 C   0  0  0  0  0  0  0  0  0  0  0  0
   25.3708   -0.1234   16.5333 C   0  0  0  0  0  0  0  0  0  0  0  0
   25.1628    5.6615   16.6325 N   0  0  0  0  0  0  0  0  0  0  0  0
   26.0461    5.6480   16.1978 H   0  0  0  0  0  0  0  0  0  0  0  0
   24.3568    6.7213   16.3583 C   0  0  0  0  0  0  0  0  0  0  0  0
   23.7901    7.5319   17.3441 C   0  0  0  0  0  0  0  0  0  0  0  0
   22.9678    8.6133   17.0317 C   0  0  0  0  0  0  0  0  0  0  0  0
   22.7054    8.8921   15.6931 C   0  0  0  0  0  0  0  0  0  0  0  0
   23.2527    8.0844   14.6964 C   0  0  0  0  0  0  0  0  0  0  0  0
   24.0745    7.0060   15.0236 C   0  0  0  0  0  0  0  0  0  0  0  0
  1  2  2  0  0  0
  1  5  1  0  0  0
  2  3  1  0  0  0
  3  4  2  0  0  0
  4  6  1  0  0  0
  4  5  1  0  0  0
  5  9  1  0  0  0
  6  7  2  0  0  0
  7 18  1  0  0  0
  7  8  1  0  0  0
  8  9  2  0  0  0
  9 10  1  0  0  0
 10 12  1  0  0  0
 12 13  2  0  0  0
 12 17  1  0  0  0
 13 14  1  0  0  0
 14 15  2  0  0  0
 15 16  1  0  0  0
 16 17  2  0  0  0
 18 20  1  0  0  0
 20 25  2  0  0  0
 20 21  1  0  0  0
 21 22  2  0  0  0
 22 23  1  0  0  0
 23 24  2  0  0  0
 24 25  1  0  0  0
 10 11  1  0  0  0
 18 19  1  0  0  0
M  END
> <minimizedAffinity>
-9.21429

$$$$
2PVH_P19_A_501


 25 28  0  0  0  0  0  0  0  0999 V2000
   26.8737    3.3634   16.9388 N   0  0  0  0  0  0  0  0  0  0  0  0
   27.3487    2.1616   17.3356 C   0  0  0  0  0  0  0  0  0  0  0  0
   26.4212    1.6095   18.2270 C   0  0  0  0  0  0  0  0  0  0  0  0
   25.3501    2.5783   18.3341 C   0  0  0  0  0  0  0  0  0  0  0  0
   25.6705    3.6345   17.5297 N   0  0  0  0  0  0  0  0  0  0  0  0
   24.2116    2.5985   19.0466 N   0  0  0  0  0  0  0  0  0  0  0  0
   23.4366    3.6714   18.9323 C   0  0  0  0  0  0  0  0  0  0  0  0
   23.7333    4.7092   18.1530 N   0  0  0  0  0  0  0  0  0  0  0  0
   24.8621    4.6819   17.4476 C   0  0  0  0  0  0  0  0  0  0  0  0
   25.1807    5.7322   16.6466 N   0  0  0  0  0  0  0  0  0  0  0  0
   26.0724    5.7250   16.2294 H   0  0  0  0  0  0  0  0  0  0  0  0
   24.3750    6.7923   16.3711 C   0  0  0  0  0  0  0  0  0  0  0  0
   23.7932    7.5787   17.3677 C   0  0  0  0  0  0  0  0  0  0  0  0
   22.9270    8.6282   17.0624 C   0  0  0  0  0  0  0  0  0  0  0  0
   22.6333    8.8954   15.7272 C   0  0  0  0  0  0  0  0  0  0  0  0
   23.2232    8.1289   14.7221 C   0  0  0  0  0  0  0  0  0  0  0  0
   24.0922    7.0844   15.0379 C   0  0  0  0  0  0  0  0  0  0  0  0
   22.2949    3.6923   19.6718 N   0  0  0  0  0  0  0  0  0  0  0  0
   21.6007    3.0337   19.4401 H   0  0  0  0  0  0  0  0  0  0  0  0
   22.0234    4.5380   20.7010 C   0  0  0  0  0  0  0  0  0  0  0  0
   22.3359    5.8988   20.6811 C   0  0  0  0  0  0  0  0  0  0  0  0
   22.0438    6.7419   21.7522 C   0  0  0  0  0  0  0  0  0  0  0  0
   21.4199    6.2073   22.8761 C   0  0  0  0  0  0  0  0  0  0  0  0
   21.1129    4.8473   22.9178 C   0  0  0  0  0  0  0  0  0  0  0  0
   21.4103    4.0158   21.8383 C   0  0  0  0  0  0  0  0  0  0  0  0
  1  2  2  0  0  0
  1  5  1  0  0  0
  2  3  1  0  0  0
  3  4  2  0  0  0
  4  6  1  0  0  0
  4  5  1  0  0  0
  5  9  1  0  0  0
  6  7  2  0  0  0
  7 18  1  0  0  0
  7  8  1  0  0  0
  8  9  2  0  0  0
  9 10  1  0  0  0
 10 12  1  0  0  0
 12 13  2  0  0  0
 12 17  1  0  0  0
 13 14  1  0  0  0
 14 15  2  0  0  0
 15 16  1  0  0  0
 16 17  2  0  0  0
 18 20  1  0  0  0
 20 25  2  0  0  0
 20 21  1  0  0  0
 21 22  2  0  0  0
 22 23  1  0  0  0
 23 24  2  0  0  0
 24 25  1  0  0  0
 10 11  1  0  0  0
 18 19  1  0  0  0
M  END
> <minimizedAffinity>
-9.17558

$$$$
2PVH_P19_A_501


 25 28  0  0  0  0  0  0  0  0999 V2000
   23.3689    1.8819   20.0885 N   0  0  0  0  0  0  0  0  0  0  0  0
   23.4770    0.7849   19.3062 C   0  0  0  0  0  0  0  0  0  0  0  0
   23.9184    1.2023   18.0449 C   0  0  0  0  0  0  0  0  0  0  0  0
   24.0658    2.6404   18.1332 C   0  0  0  0  0  0  0  0  0  0  0  0
   23.7180    3.0112   19.4007 N   0  0  0  0  0  0  0  0  0  0  0  0
   24.4401    3.5714   17.2403 N   0  0  0  0  0  0  0  0  0  0  0  0
   24.4516    4.8371   17.6437 C   0  0  0  0  0  0  0  0  0  0  0  0
   24.1162    5.2161   18.8750 N   0  0  0  0  0  0  0  0  0  0  0  0
   23.7483    4.2880   19.7559 C   0  0  0  0  0  0  0  0  0  0  0  0
   23.4030    4.6567   21.0173 N   0  0  0  0  0  0  0  0  0  0  0  0
   23.7377    4.0988   21.7561 H   0  0  0  0  0  0  0  0  0  0  0  0
   22.6354    5.7293   21.3478 C   0  0  0  0  0  0  0  0  0  0  0  0
   22.5891    6.8923   20.5763 C   0  0  0  0  0  0  0  0  0  0  0  0
   21.8360    8.0004   20.9632 C   0  0  0  0  0  0  0  0  0  0  0  0
   21.1139    7.9446   22.1532 C   0  0  0  0  0  0  0  0  0  0  0  0
   21.1372    6.7815   22.9228 C   0  0  0  0  0  0  0  0  0  0  0  0
   21.8899    5.6767   22.5244 C   0  0  0  0  0  0  0  0  0  0  0  0
   24.8135    5.7757   16.7278 N   0  0  0  0  0  0  0  0  0  0  0  0
   25.6959    5.6694   16.3043 H   0  0  0  0  0  0  0  0  0  0  0  0
   24.0699    6.8468   16.3429 C   0  0  0  0  0  0  0  0  0  0  0  0
   23.4189    7.6940   17.2419 C   0  0  0  0  0  0  0  0  0  0  0  0
   22.6639    8.7860   16.8169 C   0  0  0  0  0  0  0  0  0  0  0  0
   22.5579    9.0380   15.4517 C   0  0  0  0  0  0  0  0  0  0  0  0
   23.1910    8.1938   14.5396 C   0  0  0  0  0  0  0  0  0  0  0  0
   23.9439    7.1052   14.9793 C   0  0  0  0  0  0  0  0  0  0  0  0
  1  2  2  0  0  0
  1  5  1  0  0  0
  2  3  1  0  0  0
  3  4  2  0  0  0
  4  6  1  0  0  0
  4  5  1  0  0  0
  5  9  1  0  0  0
  6  7  2  0  0  0
  7 18  1  0  0  0
  7  8  1  0  0  0
  8  9  2  0  0  0
  9 10  1  0  0  0
 10 12  1  0  0  0
 12 13  2  0  0  0
 12 17  1  0  0  0
 13 14  1  0  0  0
 14 15  2  0  0  0
 15 16  1  0  0  0
 16 17  2  0  0  0
 18 20  1  0  0  0
 20 25  2  0  0  0
 20 21  1  0  0  0
 21 22  2  0  0  0
 22 23  1  0  0  0
 23 24  2  0  0  0
 24 25  1  0  0  0
 10 11  1  0  0  0
 18 19  1  0  0  0
M  END
> <minimizedAffinity>
-9.06700

$$$$
2PVH_P19_A_501


 25 28  0  0  0  0  0  0  0  0999 V2000
   20.6325    6.7199   24.4693 N   0  0  0  0  0  0  0  0  0  0  0  0
   20.0705    7.9190   24.7405 C   0  0  0  0  0  0  0  0  0  0  0  0
   20.2460    8.7361   23.6174 C   0  0  0  0  0  0  0  0  0  0  0  0
   20.9604    7.9300   22.6493 C   0  0  0  0  0  0  0  0  0  0  0  0
   21.1756    6.7055   23.2143 N   0  0  0  0  0  0  0  0  0  0  0  0
   21.4113    8.1861   21.4103 N   0  0  0  0  0  0  0  0  0  0  0  0
   22.0617    7.2129   20.7819 C   0  0  0  0  0  0  0  0  0  0  0  0
   22.2800    6.0138   21.3174 N   0  0  0  0  0  0  0  0  0  0  0  0
   21.8284    5.7657   22.5450 C   0  0  0  0  0  0  0  0  0  0  0  0
   22.0418    4.5471   23.1070 N   0  0  0  0  0  0  0  0  0  0  0  0
   22.8866    4.4195   23.5961 H   0  0  0  0  0  0  0  0  0  0  0  0
   21.1899    3.4887   23.0526 C   0  0  0  0  0  0  0  0  0  0  0  0
   20.8925    2.8180   21.8645 C   0  0  0  0  0  0  0  0  0  0  0  0
   19.9744    1.7690   21.8237 C   0  0  0  0  0  0  0  0  0  0  0  0
   19.3359    1.3836   23.0003 C   0  0  0  0  0  0  0  0  0  0  0  0
   19.6389    2.0335   24.1968 C   0  0  0  0  0  0  0  0  0  0  0  0
   20.5624    3.0785   24.2277 C   0  0  0  0  0  0  0  0  0  0  0  0
   22.5317    7.4868   19.5350 N   0  0  0  0  0  0  0  0  0  0  0  0
   23.3313    6.9934   19.2409 H   0  0  0  0  0  0  0  0  0  0  0  0
   21.9999    8.3784   18.6572 C   0  0  0  0  0  0  0  0  0  0  0  0
   20.8232    9.0894   18.9012 C   0  0  0  0  0  0  0  0  0  0  0  0
   20.3026    9.9985   17.9816 C   0  0  0  0  0  0  0  0  0  0  0  0
   20.9802   10.2026   16.7827 C   0  0  0  0  0  0  0  0  0  0  0  0
   22.1499    9.4908   16.5174 C   0  0  0  0  0  0  0  0  0  0  0  0
   22.6597    8.5848   17.4472 C   0  0  0  0  0  0  0  0  0  0  0  0
  1  2  2  0  0  0
  1  5  1  0  0  0
  2  3  1  0  0  0
  3  4  2  0  0  0
  4  6  1  0  0  0
  4  5  1  0  0  0
  5  9  1  0  0  0
  6  7  2  0  0  0
  7 18  1  0  0  0
  7  8  1  0  0  0
  8  9  2  0  0  0
  9 10  1  0  0  0
 10 12  1  0  0  0
 12 13  2  0  0  0
 12 17  1  0  0  0
 13 14  1  0  0  0
 14 15  2  0  0  0
 15 16  1  0  0  0
 16 17  2  0  0  0
 18 20  1  0  0  0
 20 25  2  0  0  0
 20 21  1  0  0  0
 21 22  2  0  0  0
 22 23  1  0  0  0
 23 24  2  0  0  0
 24 25  1  0  0  0
 10 11  1  0  0  0
 18 19  1  0  0  0
M  END
> <minimizedAffinity>
-9.04949

$$$$
2PVH_P19_A_501


 25 28  0  0  0  0  0  0  0  0999 V2000
   22.1863    2.7837   21.9193 N   0  0  0  0  0  0  0  0  0  0  0  0
   22.2890    1.6915   21.1295 C   0  0  0  0  0  0  0  0  0  0  0  0
   22.7354    2.1149   19.8720 C   0  0  0  0  0  0  0  0  0  0  0  0
   22.8918    3.5513   19.9706 C   0  0  0  0  0  0  0  0  0  0  0  0
   22.5439    3.9155   21.2401 N   0  0  0  0  0  0  0  0  0  0  0  0
   23.2736    4.4862   19.0850 N   0  0  0  0  0  0  0  0  0  0  0  0
   23.2924    5.7490   19.4973 C   0  0  0  0  0  0  0  0  0  0  0  0
   22.9570    6.1215   20.7307 N   0  0  0  0  0  0  0  0  0  0  0  0
   22.5815    5.1896   21.6043 C   0  0  0  0  0  0  0  0  0  0  0  0
   22.2362    5.5516   22.8676 N   0  0  0  0  0  0  0  0  0  0  0  0
   22.6636    5.0631   23.6078 H   0  0  0  0  0  0  0  0  0  0  0  0
   21.3516    6.5298   23.1983 C   0  0  0  0  0  0  0  0  0  0  0  0
   21.1798    7.6844   22.4318 C   0  0  0  0  0  0  0  0  0  0  0  0
   20.3053    8.6993   22.8192 C   0  0  0  0  0  0  0  0  0  0  0  0
   19.5873    8.5569   24.0044 C   0  0  0  0  0  0  0  0  0  0  0  0
   19.7362    7.3996   24.7688 C   0  0  0  0  0  0  0  0  0  0  0  0
   20.6100    6.3881   24.3700 C   0  0  0  0  0  0  0  0  0  0  0  0
   23.6620    6.6917   18.5887 N   0  0  0  0  0  0  0  0  0  0  0  0
   24.5804    6.6382   18.2382 H   0  0  0  0  0  0  0  0  0  0  0  0
   22.8809    7.7008   18.1197 C   0  0  0  0  0  0  0  0  0  0  0  0
   21.8138    8.2446   18.8377 C   0  0  0  0  0  0  0  0  0  0  0  0
   21.0310    9.2805   18.3304 C   0  0  0  0  0  0  0  0  0  0  0  0
   21.3253    9.7876   17.0677 C   0  0  0  0  0  0  0  0  0  0  0  0
   22.3795    9.2469   16.3317 C   0  0  0  0  0  0  0  0  0  0  0  0
   23.1549    8.2109   16.8522 C   0  0  0  0  0  0  0  0  0  0  0  0
  1  2  2  0  0  0
  1  5  1  0  0  0
  2  3  1  0  0  0
  3  4  2  0  0  0
  4  6  1  0  0  0
  4  5  1  0  0  0
  5  9  1  0  0  0
  6  7  2  0  0  0
  7 18  1  0  0  0
  7  8  1  0  0  0
  8  9  2  0  0  0
  9 10  1  0  0  0
 10 12  1  0  0  0
 12 13  2  0  0  0
 12 17  1  0  0  0
 13 14  1  0  0  0
 14 15  2  0  0  0
 15 16  1  0  0  0
 16 17  2  0  0  0
 18 20  1  0  0  0
 20 25  2  0  0  0
 20 21  1  0  0  0
 21 22  2  0  0  0
 22 23  1  0  0  0
 23 24  2  0  0  0
 24 25  1  0  0  0
 10 11  1  0  0  0
 18 19  1  0  0  0
M  END
> <minimizedAffinity>
-8.98028

$$$$
2PVH_P19_A_501


 25 28  0  0  0  0  0  0  0  0999 V2000
   24.4155    1.0735   18.9445 N   0  0  0  0  0  0  0  0  0  0  0  0
   25.5421    0.3881   18.6478 C   0  0  0  0  0  0  0  0  0  0  0  0
   26.3817    1.2411   17.9217 C   0  0  0  0  0  0  0  0  0  0  0  0
   25.6668    2.4953   17.8056 C   0  0  0  0  0  0  0  0  0  0  0  0
   24.4695    2.3455   18.4453 N   0  0  0  0  0  0  0  0  0  0  0  0
   25.9681    3.6606   17.2094 N   0  0  0  0  0  0  0  0  0  0  0  0
   25.0639    4.6319   17.2712 C   0  0  0  0  0  0  0  0  0  0  0  0
   23.8924    4.5033   17.8905 N   0  0  0  0  0  0  0  0  0  0  0  0
   23.6010    3.3464   18.4815 C   0  0  0  0  0  0  0  0  0  0  0  0
   22.4101    3.1975   19.1186 N   0  0  0  0  0  0  0  0  0  0  0  0
   21.6520    2.8689   18.5834 H   0  0  0  0  0  0  0  0  0  0  0  0
   22.1744    3.4629   20.4312 C   0  0  0  0  0  0  0  0  0  0  0  0
   21.9585    2.4597   21.3784 C   0  0  0  0  0  0  0  0  0  0  0  0
   21.6654    2.7573   22.7090 C   0  0  0  0  0  0  0  0  0  0  0  0
   21.5832    4.0916   23.1008 C   0  0  0  0  0  0  0  0  0  0  0  0
   21.8156    5.1023   22.1679 C   0  0  0  0  0  0  0  0  0  0  0  0
   22.1129    4.7939   20.8404 C   0  0  0  0  0  0  0  0  0  0  0  0
   25.3688    5.8024   16.6485 N   0  0  0  0  0  0  0  0  0  0  0  0
   26.3136    5.9508   16.4147 H   0  0  0  0  0  0  0  0  0  0  0  0
   24.4902    6.7861   16.3190 C   0  0  0  0  0  0  0  0  0  0  0  0
   24.1614    7.1142   15.0021 C   0  0  0  0  0  0  0  0  0  0  0  0
   23.2552    8.1281   14.6954 C   0  0  0  0  0  0  0  0  0  0  0  0
   22.6601    8.8341   15.7374 C   0  0  0  0  0  0  0  0  0  0  0  0
   22.9875    8.5280   17.0582 C   0  0  0  0  0  0  0  0  0  0  0  0
   23.8953    7.5103   17.3503 C   0  0  0  0  0  0  0  0  0  0  0  0
  1  2  2  0  0  0
  1  5  1  0  0  0
  2  3  1  0  0  0
  3  4  2  0  0  0
  4  6  1  0  0  0
  4  5  1  0  0  0
  5  9  1  0  0  0
  6  7  2  0  0  0
  7 18  1  0  0  0
  7  8  1  0  0  0
  8  9  2  0  0  0
  9 10  1  0  0  0
 10 12  1  0  0  0
 12 13  2  0  0  0
 12 17  1  0  0  0
 13 14  1  0  0  0
 14 15  2  0  0  0
 15 16  1  0  0  0
 16 17  2  0  0  0
 18 20  1  0  0  0
 20 25  2  0  0  0
 20 21  1  0  0  0
 21 22  2  0  0  0
 22 23  1  0  0  0
 23 24  2  0  0  0
 24 25  1  0  0  0
 10 11  1  0  0  0
 18 19  1  0  0  0
M  END
> <minimizedAffinity>
-8.79901

$$$$
2PVH_P19_A_501


 25 28  0  0  0  0  0  0  0  0999 V2000
   24.4039    2.1111   19.7710 N   0  0  0  0  0  0  0  0  0  0  0  0
   25.0334    2.0411   18.5768 C   0  0  0  0  0  0  0  0  0  0  0  0
   24.9029    3.2871   17.9522 C   0  0  0  0  0  0  0  0  0  0  0  0
   24.1426    4.1116   18.8685 C   0  0  0  0  0  0  0  0  0  0  0  0
   23.8591    3.3502   19.9663 N   0  0  0  0  0  0  0  0  0  0  0  0
   23.7051    5.3796   18.8000 N   0  0  0  0  0  0  0  0  0  0  0  0
   22.9997    5.8404   19.8272 C   0  0  0  0  0  0  0  0  0  0  0  0
   22.7145    5.1125   20.9047 N   0  0  0  0  0  0  0  0  0  0  0  0
   23.1531    3.8570   20.9673 C   0  0  0  0  0  0  0  0  0  0  0  0
   22.8718    3.0996   22.0598 N   0  0  0  0  0  0  0  0  0  0  0  0
   23.4224    3.2466   22.8625 H   0  0  0  0  0  0  0  0  0  0  0  0
   21.8959    2.1562   22.1407 C   0  0  0  0  0  0  0  0  0  0  0  0
   20.5435    2.4496   21.9530 C   0  0  0  0  0  0  0  0  0  0  0  0
   19.5549    1.4761   22.0938 C   0  0  0  0  0  0  0  0  0  0  0  0
   19.9283    0.1779   22.4340 C   0  0  0  0  0  0  0  0  0  0  0  0
   21.2776   -0.1316   22.6054 C   0  0  0  0  0  0  0  0  0  0  0  0
   22.2592    0.8484   22.4575 C   0  0  0  0  0  0  0  0  0  0  0  0
   22.5442    7.1195   19.7415 N   0  0  0  0  0  0  0  0  0  0  0  0
   22.2373    7.5410   20.5766 H   0  0  0  0  0  0  0  0  0  0  0  0
   22.4733    7.8696   18.6099 C   0  0  0  0  0  0  0  0  0  0  0  0
   23.4726    7.8867   17.6347 C   0  0  0  0  0  0  0  0  0  0  0  0
   23.3709    8.6660   16.4833 C   0  0  0  0  0  0  0  0  0  0  0  0
   22.2353    9.4508   16.3023 C   0  0  0  0  0  0  0  0  0  0  0  0
   21.2338    9.4555   17.2730 C   0  0  0  0  0  0  0  0  0  0  0  0
   21.3486    8.6702   18.4199 C   0  0  0  0  0  0  0  0  0  0  0  0
  1  2  2  0  0  0
  1  5  1  0  0  0
  2  3  1  0  0  0
  3  4  2  0  0  0
  4  6  1  0  0  0
  4  5  1  0  0  0
  5  9  1  0  0  0
  6  7  2  0  0  0
  7 18  1  0  0  0
  7  8  1  0  0  0
  8  9  2  0  0  0
  9 10  1  0  0  0
 10 12  1  0  0  0
 12 13  2  0  0  0
 12 17  1  0  0  0
 13 14  1  0  0  0
 14 15  2  0  0  0
 15 16  1  0  0  0
 16 17  2  0  0  0
 18 20  1  0  0  0
 20 25  2  0  0  0
 20 21  1  0  0  0
 21 22  2  0  0  0
 22 23  1  0  0  0
 23 24  2  0  0  0
 24 25  1  0  0  0
 10 11  1  0  0  0
 18 19  1  0  0  0
M  END
> <minimizedAffinity>
-8.77104

$$$$
