1IIH_3PG_B_600


 15 14  0  0  0  0  0  0  0  0999 V2000
   48.2309   15.6322  -11.0349 C   0  0  0  0  0  0  0  0  0  0  0  0
   47.8485   16.2116  -12.3892 C   0  0  0  0  0  0  0  0  0  0  0  0
   48.9980   16.7595  -13.0114 O   0  0  0  0  0  0  0  0  0  0  0  0
   49.6845   16.0777  -13.0803 H   0  0  0  0  0  0  0  0  0  0  0  0
   47.2248   15.0350  -13.1170 C   0  0  0  0  0  0  0  0  0  0  0  0
   47.1485   15.1022  -14.3465 O   0  0  0  0  0  0  0  0  0  0  0  0
   46.8920   14.0656  -12.4583 O   0  0  0  0  0  0  0  0  0  0  0  0
   46.9768   14.0816  -11.5253 H   0  0  0  0  0  0  0  0  0  0  0  0
   47.2461   15.9092  -10.0105 O   0  0  0  0  0  0  0  0  0  0  0  0
   46.8552   14.8050   -8.9059 P   0  0  0  0  0  0  0  0  0  0  0  0
   45.4753   15.2612   -8.4947 O   0  0  0  0  0  0  0  0  0  0  0  0
   46.8566   13.5297   -9.7161 O   0  0  0  0  0  0  0  0  0  0  0  0
   47.8604   14.9495   -7.8039 O   0  0  0  0  0  0  0  0  0  0  0  0
   46.1592   13.5733  -10.3889 H   0  0  0  0  0  0  0  0  0  0  0  0
   47.7451   15.8103   -7.3720 H   0  0  0  0  0  0  0  0  0  0  0  0
  5  6  2  0  0  0
  5  7  1  0  0  0
  5  2  1  0  0  0
  2  3  1  0  0  0
  2  1  1  0  0  0
  1  9  1  0  0  0
  9 10  1  0  0  0
 10 11  2  0  0  0
 10 12  1  0  0  0
 10 13  1  0  0  0
  7  8  1  0  0  0
  3  4  1  0  0  0
 12 14  1  0  0  0
 13 15  1  0  0  0
M  END
> <minimizedAffinity>
-6.35310

$$$$
1IIH_3PG_B_600


 15 14  0  0  0  0  0  0  0  0999 V2000
   48.2028   16.1618  -11.7756 C   0  0  0  0  0  0  0  0  0  0  0  0
   47.8919   16.8976  -13.0709 C   0  0  0  0  0  0  0  0  0  0  0  0
   49.1029   17.2610  -13.7114 O   0  0  0  0  0  0  0  0  0  0  0  0
   49.6429   16.4682  -13.8557 H   0  0  0  0  0  0  0  0  0  0  0  0
   47.0291   15.9149  -13.8408 C   0  0  0  0  0  0  0  0  0  0  0  0
   46.1684   16.3806  -14.5920 O   0  0  0  0  0  0  0  0  0  0  0  0
   47.2723   14.7267  -13.7251 O   0  0  0  0  0  0  0  0  0  0  0  0
   47.9411   14.4407  -13.1345 H   0  0  0  0  0  0  0  0  0  0  0  0
   47.0805   16.1416  -10.8613 O   0  0  0  0  0  0  0  0  0  0  0  0
   46.9199   14.9780   -9.7600 P   0  0  0  0  0  0  0  0  0  0  0  0
   47.8898   13.9392  -10.2713 O   0  0  0  0  0  0  0  0  0  0  0  0
   47.3800   15.6688   -8.4975 O   0  0  0  0  0  0  0  0  0  0  0  0
   45.4943   14.5240   -9.8441 O   0  0  0  0  0  0  0  0  0  0  0  0
   48.3168   15.9058   -8.5816 H   0  0  0  0  0  0  0  0  0  0  0  0
   45.3400   14.1004  -10.7030 H   0  0  0  0  0  0  0  0  0  0  0  0
  5  6  2  0  0  0
  5  7  1  0  0  0
  5  2  1  0  0  0
  2  3  1  0  0  0
  2  1  1  0  0  0
  1  9  1  0  0  0
  9 10  1  0  0  0
 10 11  2  0  0  0
 10 12  1  0  0  0
 10 13  1  0  0  0
  7  8  1  0  0  0
  3  4  1  0  0  0
 12 14  1  0  0  0
 13 15  1  0  0  0
M  END
> <minimizedAffinity>
-6.14999

$$$$
1IIH_3PG_B_600


 15 14  0  0  0  0  0  0  0  0999 V2000
   47.6331   17.1796  -12.5235 C   0  0  0  0  0  0  0  0  0  0  0  0
   47.8894   17.4324  -14.0021 C   0  0  0  0  0  0  0  0  0  0  0  0
   49.2656   17.2431  -14.2833 O   0  0  0  0  0  0  0  0  0  0  0  0
   49.5323   16.3521  -14.0078 H   0  0  0  0  0  0  0  0  0  0  0  0
   46.9533   16.4612  -14.6973 C   0  0  0  0  0  0  0  0  0  0  0  0
   46.0452   16.9382  -15.3829 O   0  0  0  0  0  0  0  0  0  0  0  0
   47.1845   15.2695  -14.5934 O   0  0  0  0  0  0  0  0  0  0  0  0
   47.8918   14.9747  -14.0542 H   0  0  0  0  0  0  0  0  0  0  0  0
   48.2702   15.9710  -12.0446 O   0  0  0  0  0  0  0  0  0  0  0  0
   47.5517   15.0191  -10.9628 P   0  0  0  0  0  0  0  0  0  0  0  0
   46.6820   16.0055  -10.2198 O   0  0  0  0  0  0  0  0  0  0  0  0
   46.7751   14.0672  -11.8422 O   0  0  0  0  0  0  0  0  0  0  0  0
   48.6499   14.4635  -10.1079 O   0  0  0  0  0  0  0  0  0  0  0  0
   46.1011   14.5600  -12.3359 H   0  0  0  0  0  0  0  0  0  0  0  0
   49.0592   15.1816   -9.6002 H   0  0  0  0  0  0  0  0  0  0  0  0
  5  6  2  0  0  0
  5  7  1  0  0  0
  5  2  1  0  0  0
  2  3  1  0  0  0
  2  1  1  0  0  0
  1  9  1  0  0  0
  9 10  1  0  0  0
 10 11  2  0  0  0
 10 12  1  0  0  0
 10 13  1  0  0  0
  7  8  1  0  0  0
  3  4  1  0  0  0
 12 14  1  0  0  0
 13 15  1  0  0  0
M  END
> <minimizedAffinity>
-6.10058

$$$$
1IIH_3PG_B_600


 15 14  0  0  0  0  0  0  0  0999 V2000
   48.1407   15.2626  -10.3155 C   0  0  0  0  0  0  0  0  0  0  0  0
   47.5576   14.9057   -8.9558 C   0  0  0  0  0  0  0  0  0  0  0  0
   47.9395   15.8850   -8.0050 O   0  0  0  0  0  0  0  0  0  0  0  0
   47.6567   16.7608   -8.3115 H   0  0  0  0  0  0  0  0  0  0  0  0
   46.0660   14.8159   -9.2202 C   0  0  0  0  0  0  0  0  0  0  0  0
   45.3086   15.3063   -8.3787 O   0  0  0  0  0  0  0  0  0  0  0  0
   45.6997   14.3236  -10.2727 O   0  0  0  0  0  0  0  0  0  0  0  0
   46.3299   13.9681  -10.8680 H   0  0  0  0  0  0  0  0  0  0  0  0
   47.3965   16.3079  -10.9857 O   0  0  0  0  0  0  0  0  0  0  0  0
   48.0475   17.1588  -12.1877 P   0  0  0  0  0  0  0  0  0  0  0  0
   48.3118   18.4844  -11.5138 O   0  0  0  0  0  0  0  0  0  0  0  0
   49.3009   16.3721  -12.4924 O   0  0  0  0  0  0  0  0  0  0  0  0
   46.9910   17.2528  -13.2463 O   0  0  0  0  0  0  0  0  0  0  0  0
   49.8922   16.3956  -11.7238 H   0  0  0  0  0  0  0  0  0  0  0  0
   46.2490   17.7833  -12.9163 H   0  0  0  0  0  0  0  0  0  0  0  0
  5  6  2  0  0  0
  5  7  1  0  0  0
  5  2  1  0  0  0
  2  3  1  0  0  0
  2  1  1  0  0  0
  1  9  1  0  0  0
  9 10  1  0  0  0
 10 11  2  0  0  0
 10 12  1  0  0  0
 10 13  1  0  0  0
  7  8  1  0  0  0
  3  4  1  0  0  0
 12 14  1  0  0  0
 13 15  1  0  0  0
M  END
> <minimizedAffinity>
-5.86351

$$$$
1IIH_3PG_B_600


 15 14  0  0  0  0  0  0  0  0999 V2000
   47.9229   15.5838  -10.5594 C   0  0  0  0  0  0  0  0  0  0  0  0
   47.0086   15.0879   -9.4485 C   0  0  0  0  0  0  0  0  0  0  0  0
   45.8641   14.4739  -10.0158 O   0  0  0  0  0  0  0  0  0  0  0  0
   46.1417   13.7618  -10.6130 H   0  0  0  0  0  0  0  0  0  0  0  0
   47.8991   14.1619   -8.6408 C   0  0  0  0  0  0  0  0  0  0  0  0
   48.7106   13.4694   -9.2604 O   0  0  0  0  0  0  0  0  0  0  0  0
   47.8097   14.1972   -7.4262 O   0  0  0  0  0  0  0  0  0  0  0  0
   47.1691   14.7468   -7.0193 H   0  0  0  0  0  0  0  0  0  0  0  0
   47.2107   15.8529  -11.7908 O   0  0  0  0  0  0  0  0  0  0  0  0
   47.6565   17.0508  -12.7700 P   0  0  0  0  0  0  0  0  0  0  0  0
   46.7759   16.8047  -13.9722 O   0  0  0  0  0  0  0  0  0  0  0  0
   47.2682   18.2745  -11.9735 O   0  0  0  0  0  0  0  0  0  0  0  0
   49.1081   16.8243  -13.0650 O   0  0  0  0  0  0  0  0  0  0  0  0
   46.3052   18.2935  -11.8588 H   0  0  0  0  0  0  0  0  0  0  0  0
   49.2101   16.0083  -13.5794 H   0  0  0  0  0  0  0  0  0  0  0  0
  5  6  2  0  0  0
  5  7  1  0  0  0
  5  2  1  0  0  0
  2  3  1  0  0  0
  2  1  1  0  0  0
  1  9  1  0  0  0
  9 10  1  0  0  0
 10 11  2  0  0  0
 10 12  1  0  0  0
 10 13  1  0  0  0
  7  8  1  0  0  0
  3  4  1  0  0  0
 12 14  1  0  0  0
 13 15  1  0  0  0
M  END
> <minimizedAffinity>
-5.78667

$$$$
1IIH_3PG_B_600


 15 14  0  0  0  0  0  0  0  0999 V2000
   47.6880   16.1616  -10.7857 C   0  0  0  0  0  0  0  0  0  0  0  0
   46.9994   14.9131  -10.2539 C   0  0  0  0  0  0  0  0  0  0  0  0
   47.1790   13.8466  -11.1700 O   0  0  0  0  0  0  0  0  0  0  0  0
   48.1267   13.7098  -11.3252 H   0  0  0  0  0  0  0  0  0  0  0  0
   47.6397   14.7048   -8.8939 C   0  0  0  0  0  0  0  0  0  0  0  0
   48.1475   13.6036   -8.6668 O   0  0  0  0  0  0  0  0  0  0  0  0
   47.6739   15.6504   -8.1264 O   0  0  0  0  0  0  0  0  0  0  0  0
   47.2667   16.4605   -8.3626 H   0  0  0  0  0  0  0  0  0  0  0  0
   47.0312   16.7068  -11.9551 O   0  0  0  0  0  0  0  0  0  0  0  0
   47.7272   16.6537  -13.4061 P   0  0  0  0  0  0  0  0  0  0  0  0
   49.1856   16.8201  -13.0502 O   0  0  0  0  0  0  0  0  0  0  0  0
   47.3725   15.2632  -13.8787 O   0  0  0  0  0  0  0  0  0  0  0  0
   47.1842   17.8246  -14.1674 O   0  0  0  0  0  0  0  0  0  0  0  0
   47.7891   14.6080  -13.2973 H   0  0  0  0  0  0  0  0  0  0  0  0
   47.4900   18.6480  -13.7557 H   0  0  0  0  0  0  0  0  0  0  0  0
  5  6  2  0  0  0
  5  7  1  0  0  0
  5  2  1  0  0  0
  2  3  1  0  0  0
  2  1  1  0  0  0
  1  9  1  0  0  0
  9 10  1  0  0  0
 10 11  2  0  0  0
 10 12  1  0  0  0
 10 13  1  0  0  0
  7  8  1  0  0  0
  3  4  1  0  0  0
 12 14  1  0  0  0
 13 15  1  0  0  0
M  END
> <minimizedAffinity>
-5.72399

$$$$
1IIH_3PG_B_600


 15 14  0  0  0  0  0  0  0  0999 V2000
   48.6608   16.0169  -11.4361 C   0  0  0  0  0  0  0  0  0  0  0  0
   47.7789   17.1669  -11.9006 C   0  0  0  0  0  0  0  0  0  0  0  0
   48.4461   18.3966  -11.6742 O   0  0  0  0  0  0  0  0  0  0  0  0
   49.3064   18.3849  -12.1219 H   0  0  0  0  0  0  0  0  0  0  0  0
   47.5089   16.8427  -13.3583 C   0  0  0  0  0  0  0  0  0  0  0  0
   47.5467   15.6559  -13.6936 O   0  0  0  0  0  0  0  0  0  0  0  0
   47.2091   17.7594  -14.1027 O   0  0  0  0  0  0  0  0  0  0  0  0
   47.2005   18.6397  -13.7819 H   0  0  0  0  0  0  0  0  0  0  0  0
   48.1985   15.4225  -10.1995 O   0  0  0  0  0  0  0  0  0  0  0  0
   47.0295   14.3153  -10.1896 P   0  0  0  0  0  0  0  0  0  0  0  0
   47.5417   13.3413   -9.1551 O   0  0  0  0  0  0  0  0  0  0  0  0
   45.8350   15.1176   -9.7291 O   0  0  0  0  0  0  0  0  0  0  0  0
   47.0047   13.7289  -11.5684 O   0  0  0  0  0  0  0  0  0  0  0  0
   45.9870   15.4338   -8.8248 H   0  0  0  0  0  0  0  0  0  0  0  0
   47.8292   13.2437  -11.7283 H   0  0  0  0  0  0  0  0  0  0  0  0
  5  6  2  0  0  0
  5  7  1  0  0  0
  5  2  1  0  0  0
  2  3  1  0  0  0
  2  1  1  0  0  0
  1  9  1  0  0  0
  9 10  1  0  0  0
 10 11  2  0  0  0
 10 12  1  0  0  0
 10 13  1  0  0  0
  7  8  1  0  0  0
  3  4  1  0  0  0
 12 14  1  0  0  0
 13 15  1  0  0  0
M  END
> <minimizedAffinity>
-5.49543

$$$$
1IIH_3PG_B_600


 15 14  0  0  0  0  0  0  0  0999 V2000
   47.7773   17.5997  -13.8755 C   0  0  0  0  0  0  0  0  0  0  0  0
   47.2184   16.8612  -15.0830 C   0  0  0  0  0  0  0  0  0  0  0  0
   45.8750   16.4874  -14.8293 O   0  0  0  0  0  0  0  0  0  0  0  0
   45.3569   17.2760  -14.6045 H   0  0  0  0  0  0  0  0  0  0  0  0
   47.4056   17.8467  -16.2216 C   0  0  0  0  0  0  0  0  0  0  0  0
   48.5196   18.3608  -16.3517 O   0  0  0  0  0  0  0  0  0  0  0  0
   46.4700   18.0294  -16.9804 O   0  0  0  0  0  0  0  0  0  0  0  0
   45.6490   17.6065  -16.8222 H   0  0  0  0  0  0  0  0  0  0  0  0
   47.1672   17.1793  -12.6317 O   0  0  0  0  0  0  0  0  0  0  0  0
   47.8417   16.0433  -11.7114 P   0  0  0  0  0  0  0  0  0  0  0  0
   47.2443   14.7847  -12.2950 O   0  0  0  0  0  0  0  0  0  0  0  0
   49.3111   16.2163  -12.0176 O   0  0  0  0  0  0  0  0  0  0  0  0
   47.3694   16.3094  -10.3145 O   0  0  0  0  0  0  0  0  0  0  0  0
   49.4729   16.0122  -12.9520 H   0  0  0  0  0  0  0  0  0  0  0  0
   46.4123   16.1601  -10.2628 H   0  0  0  0  0  0  0  0  0  0  0  0
  5  6  2  0  0  0
  5  7  1  0  0  0
  5  2  1  0  0  0
  2  3  1  0  0  0
  2  1  1  0  0  0
  1  9  1  0  0  0
  9 10  1  0  0  0
 10 11  2  0  0  0
 10 12  1  0  0  0
 10 13  1  0  0  0
  7  8  1  0  0  0
  3  4  1  0  0  0
 12 14  1  0  0  0
 13 15  1  0  0  0
M  END
> <minimizedAffinity>
-5.28512

$$$$
1IIH_3PG_B_600


 15 14  0  0  0  0  0  0  0  0999 V2000
   47.6183   15.4439  -12.4736 C   0  0  0  0  0  0  0  0  0  0  0  0
   47.9205   15.6555  -10.9971 C   0  0  0  0  0  0  0  0  0  0  0  0
   47.4200   16.9166  -10.5873 O   0  0  0  0  0  0  0  0  0  0  0  0
   46.4711   16.9667  -10.7825 H   0  0  0  0  0  0  0  0  0  0  0  0
   47.2720   14.4591  -10.3256 C   0  0  0  0  0  0  0  0  0  0  0  0
   48.0051   13.6963   -9.6909 O   0  0  0  0  0  0  0  0  0  0  0  0
   46.0605   14.3504  -10.3954 O   0  0  0  0  0  0  0  0  0  0  0  0
   45.5629   14.9664  -10.8964 H   0  0  0  0  0  0  0  0  0  0  0  0
   46.9477   16.5773  -13.0747 O   0  0  0  0  0  0  0  0  0  0  0  0
   47.7728   17.7232  -13.8485 P   0  0  0  0  0  0  0  0  0  0  0  0
   47.5587   18.9148  -12.9454 O   0  0  0  0  0  0  0  0  0  0  0  0
   49.1822   17.1799  -13.8128 O   0  0  0  0  0  0  0  0  0  0  0  0
   47.1054   17.8844  -15.1805 O   0  0  0  0  0  0  0  0  0  0  0  0
   49.4860   17.1295  -12.8930 H   0  0  0  0  0  0  0  0  0  0  0  0
   46.2118   18.2397  -15.0535 H   0  0  0  0  0  0  0  0  0  0  0  0
  5  6  2  0  0  0
  5  7  1  0  0  0
  5  2  1  0  0  0
  2  3  1  0  0  0
  2  1  1  0  0  0
  1  9  1  0  0  0
  9 10  1  0  0  0
 10 11  2  0  0  0
 10 12  1  0  0  0
 10 13  1  0  0  0
  7  8  1  0  0  0
  3  4  1  0  0  0
 12 14  1  0  0  0
 13 15  1  0  0  0
M  END
> <minimizedAffinity>
-5.20470

$$$$
1IIH_3PG_B_600


 15 14  0  0  0  0  0  0  0  0999 V2000
   47.4160   16.7351  -10.8138 C   0  0  0  0  0  0  0  0  0  0  0  0
   48.2551   17.1916  -11.9984 C   0  0  0  0  0  0  0  0  0  0  0  0
   48.2239   16.2002  -13.0109 O   0  0  0  0  0  0  0  0  0  0  0  0
   47.3034   16.0181  -13.2567 H   0  0  0  0  0  0  0  0  0  0  0  0
   47.6340   18.5215  -12.3838 C   0  0  0  0  0  0  0  0  0  0  0  0
   47.7512   18.8855  -13.5568 O   0  0  0  0  0  0  0  0  0  0  0  0
   47.0024   19.1257  -11.5350 O   0  0  0  0  0  0  0  0  0  0  0  0
   46.9544   18.7921  -10.6607 H   0  0  0  0  0  0  0  0  0  0  0  0
   47.9185   15.5199  -10.2083 O   0  0  0  0  0  0  0  0  0  0  0  0
   47.0278   14.1794  -10.1600 P   0  0  0  0  0  0  0  0  0  0  0  0
   45.6834   14.7225   -9.7370 O   0  0  0  0  0  0  0  0  0  0  0  0
   47.0706   13.7166  -11.5976 O   0  0  0  0  0  0  0  0  0  0  0  0
   47.6507   13.3074   -9.1125 O   0  0  0  0  0  0  0  0  0  0  0  0
   46.6338   14.3737  -12.1619 H   0  0  0  0  0  0  0  0  0  0  0  0
   47.5504   13.7249   -8.2427 H   0  0  0  0  0  0  0  0  0  0  0  0
  5  6  2  0  0  0
  5  7  1  0  0  0
  5  2  1  0  0  0
  2  3  1  0  0  0
  2  1  1  0  0  0
  1  9  1  0  0  0
  9 10  1  0  0  0
 10 11  2  0  0  0
 10 12  1  0  0  0
 10 13  1  0  0  0
  7  8  1  0  0  0
  3  4  1  0  0  0
 12 14  1  0  0  0
 13 15  1  0  0  0
M  END
> <minimizedAffinity>
-5.09331

$$$$
