1G3E_109_A_601


 23 23  0  0  0  0  0  0  0  0999 V2000
   43.9106   -2.9184   26.7712 C   0  0  0  0  0  0  0  0  0  0  0  0
   43.9357   -1.5498   26.9826 C   0  0  0  0  0  0  0  0  0  0  0  0
   43.8218   -1.0168   28.2663 C   0  0  0  0  0  0  0  0  0  0  0  0
   43.6751   -1.8750   29.3613 C   0  0  0  0  0  0  0  0  0  0  0  0
   43.6510   -3.2465   29.1333 C   0  0  0  0  0  0  0  0  0  0  0  0
   43.7644   -3.7610   27.8584 C   0  0  0  0  0  0  0  0  0  0  0  0
   43.8642    0.3281   28.3379 O   0  0  0  0  0  0  0  0  0  0  0  0
   43.9649    0.8360   27.5569 H   0  0  0  0  0  0  0  0  0  0  0  0
   44.1528   -3.4606   25.4505 C   0  0  0  0  0  0  0  0  0  0  0  0
   44.1270   -2.6651   24.3902 N   0  0  0  0  0  0  0  0  0  0  0  0
   44.3985   -4.7544   25.3004 N   0  0  0  0  0  0  0  0  0  0  0  0
   43.9446   -1.7039   24.5004 H   0  0  0  0  0  0  0  0  0  0  0  0
   44.2901   -3.0355   23.4928 H   0  0  0  0  0  0  0  0  0  0  0  0
   44.4180   -5.3463   26.0869 H   0  0  0  0  0  0  0  0  0  0  0  0
   43.5533   -1.3891   30.7227 C   0  0  0  0  0  0  0  0  0  0  0  0
   42.7804   -0.4080   31.0853 N   0  0  0  0  0  0  0  0  0  0  0  0
   42.6427    0.1844   30.2664 H   0  0  0  0  0  0  0  0  0  0  0  0
   41.4573   -0.7193   31.6182 C   0  0  0  0  0  0  0  0  0  0  0  0
   41.1966    0.1051   32.8748 C   0  0  0  0  0  0  0  0  0  0  0  0
   40.3913   -0.4253   30.5670 C   0  0  0  0  0  0  0  0  0  0  0  0
   39.8306   -1.3702   29.9947 O   0  0  0  0  0  0  0  0  0  0  0  0
   40.1497    0.8210   30.3438 O   0  0  0  0  0  0  0  0  0  0  0  0
   40.6161    1.4809   30.8181 H   0  0  0  0  0  0  0  0  0  0  0  0
  1  2  2  0  0  0
  1  6  1  0  0  0
  1  9  1  0  0  0
  2  3  1  0  0  0
  3  4  2  0  0  0
  3  7  1  0  0  0
  4  5  1  0  0  0
  4 15  1  0  0  0
  5  6  2  0  0  0
 15 16  1  0  0  0
  9 10  1  0  0  0
  9 11  2  0  0  0
 16 18  1  0  0  0
 18 19  1  0  0  0
 18 20  1  0  0  0
 20 21  2  0  0  0
 20 22  1  0  0  0
  7  8  1  0  0  0
 10 12  1  0  0  0
 10 13  1  0  0  0
 11 14  1  0  0  0
 16 17  1  0  0  0
 22 23  1  0  0  0
M  END
> <minimizedAffinity>
-7.47698

$$$$
1G3E_109_A_601


 23 23  0  0  0  0  0  0  0  0999 V2000
   43.8514   -3.0087   26.8019 C   0  0  0  0  0  0  0  0  0  0  0  0
   43.8260   -1.6554   27.0957 C   0  0  0  0  0  0  0  0  0  0  0  0
   43.6902   -1.2055   28.4088 C   0  0  0  0  0  0  0  0  0  0  0  0
   43.5728   -2.1332   29.4493 C   0  0  0  0  0  0  0  0  0  0  0  0
   43.5992   -3.4883   29.1388 C   0  0  0  0  0  0  0  0  0  0  0  0
   43.7340   -3.9203   27.8356 C   0  0  0  0  0  0  0  0  0  0  0  0
   43.6831    0.1333   28.5617 O   0  0  0  0  0  0  0  0  0  0  0  0
   43.7668    0.6908   27.8132 H   0  0  0  0  0  0  0  0  0  0  0  0
   44.1159   -3.4608   25.4519 C   0  0  0  0  0  0  0  0  0  0  0  0
   44.3777   -4.7393   25.2182 N   0  0  0  0  0  0  0  0  0  0  0  0
   44.0988   -2.5953   24.4482 N   0  0  0  0  0  0  0  0  0  0  0  0
   44.3907   -5.3832   25.9629 H   0  0  0  0  0  0  0  0  0  0  0  0
   44.5590   -5.0448   24.3001 H   0  0  0  0  0  0  0  0  0  0  0  0
   43.9046   -1.6456   24.6203 H   0  0  0  0  0  0  0  0  0  0  0  0
   43.4305   -1.7353   30.8371 C   0  0  0  0  0  0  0  0  0  0  0  0
   44.2528   -0.9447   31.4618 N   0  0  0  0  0  0  0  0  0  0  0  0
   44.1590   -0.0203   31.0409 H   0  0  0  0  0  0  0  0  0  0  0  0
   44.1033   -0.7775   32.9044 C   0  0  0  0  0  0  0  0  0  0  0  0
   43.6110   -2.0789   33.5295 C   0  0  0  0  0  0  0  0  0  0  0  0
   45.4379   -0.3705   33.5215 C   0  0  0  0  0  0  0  0  0  0  0  0
   45.9513   -1.0971   34.3836 O   0  0  0  0  0  0  0  0  0  0  0  0
   45.9442    0.7335   33.0897 O   0  0  0  0  0  0  0  0  0  0  0  0
   45.4954    1.2298   32.4338 H   0  0  0  0  0  0  0  0  0  0  0  0
  1  2  2  0  0  0
  1  6  1  0  0  0
  1  9  1  0  0  0
  2  3  1  0  0  0
  3  4  2  0  0  0
  3  7  1  0  0  0
  4  5  1  0  0  0
  4 15  1  0  0  0
  5  6  2  0  0  0
 15 16  1  0  0  0
  9 10  1  0  0  0
  9 11  2  0  0  0
 16 18  1  0  0  0
 18 19  1  0  0  0
 18 20  1  0  0  0
 20 21  2  0  0  0
 20 22  1  0  0  0
  7  8  1  0  0  0
 10 12  1  0  0  0
 10 13  1  0  0  0
 11 14  1  0  0  0
 16 17  1  0  0  0
 22 23  1  0  0  0
M  END
> <minimizedAffinity>
-7.41154

$$$$
1G3E_109_A_601


 23 23  0  0  0  0  0  0  0  0999 V2000
   43.9241   -3.0372   26.3983 C   0  0  0  0  0  0  0  0  0  0  0  0
   43.5535   -3.7551   27.5234 C   0  0  0  0  0  0  0  0  0  0  0  0
   43.3148   -3.1160   28.7397 C   0  0  0  0  0  0  0  0  0  0  0  0
   43.4554   -1.7271   28.8306 C   0  0  0  0  0  0  0  0  0  0  0  0
   43.8287   -1.0200   27.6930 C   0  0  0  0  0  0  0  0  0  0  0  0
   44.0619   -1.6643   26.4957 C   0  0  0  0  0  0  0  0  0  0  0  0
   42.9578   -3.9255   29.7560 O   0  0  0  0  0  0  0  0  0  0  0  0
   42.8848   -4.8490   29.6159 H   0  0  0  0  0  0  0  0  0  0  0  0
   44.0483   -3.6976   25.1155 C   0  0  0  0  0  0  0  0  0  0  0  0
   44.6587   -3.0866   24.1096 N   0  0  0  0  0  0  0  0  0  0  0  0
   43.5492   -4.9137   24.9454 N   0  0  0  0  0  0  0  0  0  0  0  0
   45.0298   -2.1833   24.2347 H   0  0  0  0  0  0  0  0  0  0  0  0
   44.7408   -3.5361   23.2376 H   0  0  0  0  0  0  0  0  0  0  0  0
   43.0957   -5.3684   25.6915 H   0  0  0  0  0  0  0  0  0  0  0  0
   43.2213   -0.9982   30.0629 C   0  0  0  0  0  0  0  0  0  0  0  0
   42.2316   -0.1759   30.2524 N   0  0  0  0  0  0  0  0  0  0  0  0
   41.7172   -0.1173   29.3736 H   0  0  0  0  0  0  0  0  0  0  0  0
   41.2606   -0.4788   31.2997 C   0  0  0  0  0  0  0  0  0  0  0  0
   41.8856   -0.2428   32.6711 C   0  0  0  0  0  0  0  0  0  0  0  0
   40.0225    0.3963   31.1294 C   0  0  0  0  0  0  0  0  0  0  0  0
   39.3550    0.6993   32.1281 O   0  0  0  0  0  0  0  0  0  0  0  0
   39.7538    0.7624   29.9231 O   0  0  0  0  0  0  0  0  0  0  0  0
   40.3076    0.4924   29.2171 H   0  0  0  0  0  0  0  0  0  0  0  0
  1  2  2  0  0  0
  1  6  1  0  0  0
  1  9  1  0  0  0
  2  3  1  0  0  0
  3  4  2  0  0  0
  3  7  1  0  0  0
  4  5  1  0  0  0
  4 15  1  0  0  0
  5  6  2  0  0  0
 15 16  1  0  0  0
  9 10  1  0  0  0
  9 11  2  0  0  0
 16 18  1  0  0  0
 18 19  1  0  0  0
 18 20  1  0  0  0
 20 21  2  0  0  0
 20 22  1  0  0  0
  7  8  1  0  0  0
 10 12  1  0  0  0
 10 13  1  0  0  0
 11 14  1  0  0  0
 16 17  1  0  0  0
 22 23  1  0  0  0
M  END
> <minimizedAffinity>
-7.07952

$$$$
1G3E_109_A_601


 23 23  0  0  0  0  0  0  0  0999 V2000
   43.9041   -2.9913   26.7016 C   0  0  0  0  0  0  0  0  0  0  0  0
   43.9441   -1.6293   26.9506 C   0  0  0  0  0  0  0  0  0  0  0  0
   43.8958   -1.1333   28.2531 C   0  0  0  0  0  0  0  0  0  0  0  0
   43.8006   -2.0224   29.3290 C   0  0  0  0  0  0  0  0  0  0  0  0
   43.7607   -3.3866   29.0633 C   0  0  0  0  0  0  0  0  0  0  0  0
   43.8092   -3.8645   27.7701 C   0  0  0  0  0  0  0  0  0  0  0  0
   43.9460    0.2090   28.3610 O   0  0  0  0  0  0  0  0  0  0  0  0
   44.0096    0.7389   27.5909 H   0  0  0  0  0  0  0  0  0  0  0  0
   44.0789   -3.4957   25.3555 C   0  0  0  0  0  0  0  0  0  0  0  0
   44.0551   -2.6620   24.3248 N   0  0  0  0  0  0  0  0  0  0  0  0
   44.2606   -4.7928   25.1525 N   0  0  0  0  0  0  0  0  0  0  0  0
   43.9202   -1.6983   24.4742 H   0  0  0  0  0  0  0  0  0  0  0  0
   44.1723   -3.0067   23.4101 H   0  0  0  0  0  0  0  0  0  0  0  0
   44.2785   -5.4129   25.9170 H   0  0  0  0  0  0  0  0  0  0  0  0
   43.7480   -1.5756   30.7081 C   0  0  0  0  0  0  0  0  0  0  0  0
   43.1031   -2.1914   31.6549 N   0  0  0  0  0  0  0  0  0  0  0  0
   43.5532   -3.0975   31.7848 H   0  0  0  0  0  0  0  0  0  0  0  0
   43.0185   -1.5610   32.9690 C   0  0  0  0  0  0  0  0  0  0  0  0
   44.4052   -1.4893   33.6006 C   0  0  0  0  0  0  0  0  0  0  0  0
   42.4291   -0.1600   32.8363 C   0  0  0  0  0  0  0  0  0  0  0  0
   41.2308   -0.0337   32.5484 O   0  0  0  0  0  0  0  0  0  0  0  0
   43.2471    0.8159   33.0359 O   0  0  0  0  0  0  0  0  0  0  0  0
   44.1421    0.6406   33.2507 H   0  0  0  0  0  0  0  0  0  0  0  0
  1  2  2  0  0  0
  1  6  1  0  0  0
  1  9  1  0  0  0
  2  3  1  0  0  0
  3  4  2  0  0  0
  3  7  1  0  0  0
  4  5  1  0  0  0
  4 15  1  0  0  0
  5  6  2  0  0  0
 15 16  1  0  0  0
  9 10  1  0  0  0
  9 11  2  0  0  0
 16 18  1  0  0  0
 18 19  1  0  0  0
 18 20  1  0  0  0
 20 21  2  0  0  0
 20 22  1  0  0  0
  7  8  1  0  0  0
 10 12  1  0  0  0
 10 13  1  0  0  0
 11 14  1  0  0  0
 16 17  1  0  0  0
 22 23  1  0  0  0
M  END
> <minimizedAffinity>
-7.07068

$$$$
1G3E_109_A_601


 23 23  0  0  0  0  0  0  0  0999 V2000
   43.9033   -3.1467   26.4087 C   0  0  0  0  0  0  0  0  0  0  0  0
   43.5531   -3.9348   27.4926 C   0  0  0  0  0  0  0  0  0  0  0  0
   43.3226   -3.3726   28.7478 C   0  0  0  0  0  0  0  0  0  0  0  0
   43.4504   -1.9903   28.9208 C   0  0  0  0  0  0  0  0  0  0  0  0
   43.8033   -1.2121   27.8238 C   0  0  0  0  0  0  0  0  0  0  0  0
   44.0287   -1.7807   26.5872 C   0  0  0  0  0  0  0  0  0  0  0  0
   42.9856   -4.2455   29.7174 O   0  0  0  0  0  0  0  0  0  0  0  0
   42.9201   -5.1597   29.5227 H   0  0  0  0  0  0  0  0  0  0  0  0
   44.0190   -3.7273   25.0872 C   0  0  0  0  0  0  0  0  0  0  0  0
   43.4958   -4.9194   24.8367 N   0  0  0  0  0  0  0  0  0  0  0  0
   44.6507   -3.0674   24.1267 N   0  0  0  0  0  0  0  0  0  0  0  0
   43.0264   -5.4105   25.5493 H   0  0  0  0  0  0  0  0  0  0  0  0
   43.5768   -5.3136   23.9382 H   0  0  0  0  0  0  0  0  0  0  0  0
   45.0396   -2.1821   24.3114 H   0  0  0  0  0  0  0  0  0  0  0  0
   43.2237   -1.3393   30.1973 C   0  0  0  0  0  0  0  0  0  0  0  0
   43.8072   -1.6799   31.3085 N   0  0  0  0  0  0  0  0  0  0  0  0
   44.7586   -1.3137   31.2728 H   0  0  0  0  0  0  0  0  0  0  0  0
   43.2229   -1.2361   32.5707 C   0  0  0  0  0  0  0  0  0  0  0  0
   42.8704   -2.4442   33.4327 C   0  0  0  0  0  0  0  0  0  0  0  0
   44.2059   -0.3329   33.3094 C   0  0  0  0  0  0  0  0  0  0  0  0
   45.3375   -0.1576   32.8367 O   0  0  0  0  0  0  0  0  0  0  0  0
   43.7738    0.1924   34.4043 O   0  0  0  0  0  0  0  0  0  0  0  0
   42.9026    0.0123   34.6985 H   0  0  0  0  0  0  0  0  0  0  0  0
  1  2  2  0  0  0
  1  6  1  0  0  0
  1  9  1  0  0  0
  2  3  1  0  0  0
  3  4  2  0  0  0
  3  7  1  0  0  0
  4  5  1  0  0  0
  4 15  1  0  0  0
  5  6  2  0  0  0
 15 16  1  0  0  0
  9 10  1  0  0  0
  9 11  2  0  0  0
 16 18  1  0  0  0
 18 19  1  0  0  0
 18 20  1  0  0  0
 20 21  2  0  0  0
 20 22  1  0  0  0
  7  8  1  0  0  0
 10 12  1  0  0  0
 10 13  1  0  0  0
 11 14  1  0  0  0
 16 17  1  0  0  0
 22 23  1  0  0  0
M  END
> <minimizedAffinity>
-6.85102

$$$$
1G3E_109_A_601


 23 23  0  0  0  0  0  0  0  0999 V2000
   42.9722   -1.8840   29.3306 C   0  0  0  0  0  0  0  0  0  0  0  0
   41.9249   -0.9897   29.4782 C   0  0  0  0  0  0  0  0  0  0  0  0
   41.6644   -0.3813   30.7057 C   0  0  0  0  0  0  0  0  0  0  0  0
   42.4691   -0.6798   31.8104 C   0  0  0  0  0  0  0  0  0  0  0  0
   43.5162   -1.5800   31.6471 C   0  0  0  0  0  0  0  0  0  0  0  0
   43.7633   -2.1751   30.4273 C   0  0  0  0  0  0  0  0  0  0  0  0
   40.6206    0.4708   30.7168 O   0  0  0  0  0  0  0  0  0  0  0  0
   40.1283    0.6188   29.9334 H   0  0  0  0  0  0  0  0  0  0  0  0
   43.3062   -2.4126   28.0245 C   0  0  0  0  0  0  0  0  0  0  0  0
   44.2999   -1.8809   27.3263 N   0  0  0  0  0  0  0  0  0  0  0  0
   42.6163   -3.4280   27.5245 N   0  0  0  0  0  0  0  0  0  0  0  0
   44.8132   -1.1267   27.6965 H   0  0  0  0  0  0  0  0  0  0  0  0
   44.5247   -2.2402   26.4377 H   0  0  0  0  0  0  0  0  0  0  0  0
   41.8781   -3.8237   28.0420 H   0  0  0  0  0  0  0  0  0  0  0  0
   42.2560   -0.0825   33.1152 C   0  0  0  0  0  0  0  0  0  0  0  0
   43.1903    0.0958   34.0021 N   0  0  0  0  0  0  0  0  0  0  0  0
   43.8564   -0.6692   33.8947 H   0  0  0  0  0  0  0  0  0  0  0  0
   43.9550    1.3391   33.9729 C   0  0  0  0  0  0  0  0  0  0  0  0
   43.5580    2.2205   35.1530 C   0  0  0  0  0  0  0  0  0  0  0  0
   45.4485    1.0320   34.0261 C   0  0  0  0  0  0  0  0  0  0  0  0
   46.0055    0.5660   33.0224 O   0  0  0  0  0  0  0  0  0  0  0  0
   46.0354    1.2843   35.1457 O   0  0  0  0  0  0  0  0  0  0  0  0
   45.5457    1.6374   35.8623 H   0  0  0  0  0  0  0  0  0  0  0  0
  1  2  2  0  0  0
  1  6  1  0  0  0
  1  9  1  0  0  0
  2  3  1  0  0  0
  3  4  2  0  0  0
  3  7  1  0  0  0
  4  5  1  0  0  0
  4 15  1  0  0  0
  5  6  2  0  0  0
 15 16  1  0  0  0
  9 10  1  0  0  0
  9 11  2  0  0  0
 16 18  1  0  0  0
 18 19  1  0  0  0
 18 20  1  0  0  0
 20 21  2  0  0  0
 20 22  1  0  0  0
  7  8  1  0  0  0
 10 12  1  0  0  0
 10 13  1  0  0  0
 11 14  1  0  0  0
 16 17  1  0  0  0
 22 23  1  0  0  0
M  END
> <minimizedAffinity>
-5.47129

$$$$
1G3E_109_A_601


 23 23  0  0  0  0  0  0  0  0999 V2000
   42.8551   -0.5990   32.7660 C   0  0  0  0  0  0  0  0  0  0  0  0
   41.7909   -0.1724   31.9888 C   0  0  0  0  0  0  0  0  0  0  0  0
   41.7049   -0.5082   30.6380 C   0  0  0  0  0  0  0  0  0  0  0  0
   42.7105   -1.2850   30.0529 C   0  0  0  0  0  0  0  0  0  0  0  0
   43.7729   -1.7051   30.8454 C   0  0  0  0  0  0  0  0  0  0  0  0
   43.8462   -1.3660   32.1806 C   0  0  0  0  0  0  0  0  0  0  0  0
   40.6199   -0.0350   29.9943 O   0  0  0  0  0  0  0  0  0  0  0  0
   39.9883    0.4800   30.4567 H   0  0  0  0  0  0  0  0  0  0  0  0
   42.8686   -0.3472   34.1920 C   0  0  0  0  0  0  0  0  0  0  0  0
   42.3570    0.7772   34.6734 N   0  0  0  0  0  0  0  0  0  0  0  0
   43.3953   -1.2405   35.0174 N   0  0  0  0  0  0  0  0  0  0  0  0
   41.9655    1.4415   34.0614 H   0  0  0  0  0  0  0  0  0  0  0  0
   42.3685    0.9477   35.6429 H   0  0  0  0  0  0  0  0  0  0  0  0
   43.7756   -2.0758   34.6612 H   0  0  0  0  0  0  0  0  0  0  0  0
   42.6835   -1.6722   28.6550 C   0  0  0  0  0  0  0  0  0  0  0  0
   43.6429   -1.4358   27.8094 N   0  0  0  0  0  0  0  0  0  0  0  0
   44.4193   -1.0393   28.3390 H   0  0  0  0  0  0  0  0  0  0  0  0
   44.1781   -2.5476   27.0292 C   0  0  0  0  0  0  0  0  0  0  0  0
   43.3230   -3.7922   27.2449 C   0  0  0  0  0  0  0  0  0  0  0  0
   44.2043   -2.1787   25.5490 C   0  0  0  0  0  0  0  0  0  0  0  0
   44.4445   -3.0591   24.7112 O   0  0  0  0  0  0  0  0  0  0  0  0
   43.9714   -0.9413   25.2732 O   0  0  0  0  0  0  0  0  0  0  0  0
   43.7972   -0.3322   25.9636 H   0  0  0  0  0  0  0  0  0  0  0  0
  1  2  2  0  0  0
  1  6  1  0  0  0
  1  9  1  0  0  0
  2  3  1  0  0  0
  3  4  2  0  0  0
  3  7  1  0  0  0
  4  5  1  0  0  0
  4 15  1  0  0  0
  5  6  2  0  0  0
 15 16  1  0  0  0
  9 10  1  0  0  0
  9 11  2  0  0  0
 16 18  1  0  0  0
 18 19  1  0  0  0
 18 20  1  0  0  0
 20 21  2  0  0  0
 20 22  1  0  0  0
  7  8  1  0  0  0
 10 12  1  0  0  0
 10 13  1  0  0  0
 11 14  1  0  0  0
 16 17  1  0  0  0
 22 23  1  0  0  0
M  END
> <minimizedAffinity>
-5.45443

$$$$
1G3E_109_A_601


 23 23  0  0  0  0  0  0  0  0999 V2000
   46.0484   -1.0217   34.8906 C   0  0  0  0  0  0  0  0  0  0  0  0
   45.4405   -0.1014   34.0527 C   0  0  0  0  0  0  0  0  0  0  0  0
   44.1033   -0.2382   33.6814 C   0  0  0  0  0  0  0  0  0  0  0  0
   43.3608   -1.3243   34.1570 C   0  0  0  0  0  0  0  0  0  0  0  0
   43.9848   -2.2403   34.9967 C   0  0  0  0  0  0  0  0  0  0  0  0
   45.3084   -2.0935   35.3565 C   0  0  0  0  0  0  0  0  0  0  0  0
   43.6299    0.7245   32.8660 O   0  0  0  0  0  0  0  0  0  0  0  0
   44.1911    1.4222   32.5897 H   0  0  0  0  0  0  0  0  0  0  0  0
   47.3984   -0.8008   35.3655 C   0  0  0  0  0  0  0  0  0  0  0  0
   48.2664   -1.8025   35.3910 N   0  0  0  0  0  0  0  0  0  0  0  0
   47.7668    0.4039   35.7777 N   0  0  0  0  0  0  0  0  0  0  0  0
   47.9941   -2.6978   35.0851 H   0  0  0  0  0  0  0  0  0  0  0  0
   49.1834   -1.6512   35.7158 H   0  0  0  0  0  0  0  0  0  0  0  0
   47.1232    1.1487   35.7592 H   0  0  0  0  0  0  0  0  0  0  0  0
   41.9662   -1.5269   33.8125 C   0  0  0  0  0  0  0  0  0  0  0  0
   41.4962   -1.4851   32.6006 N   0  0  0  0  0  0  0  0  0  0  0  0
   41.2329   -2.4375   32.3475 H   0  0  0  0  0  0  0  0  0  0  0  0
   40.3431   -0.6329   32.3259 C   0  0  0  0  0  0  0  0  0  0  0  0
   40.1051    0.3124   33.4992 C   0  0  0  0  0  0  0  0  0  0  0  0
   40.5800    0.1660   31.0479 C   0  0  0  0  0  0  0  0  0  0  0  0
   39.6318    0.7723   30.5301 O   0  0  0  0  0  0  0  0  0  0  0  0
   41.7836    0.1464   30.5869 O   0  0  0  0  0  0  0  0  0  0  0  0
   42.4494   -0.3366   31.0357 H   0  0  0  0  0  0  0  0  0  0  0  0
  1  2  2  0  0  0
  1  6  1  0  0  0
  1  9  1  0  0  0
  2  3  1  0  0  0
  3  4  2  0  0  0
  3  7  1  0  0  0
  4  5  1  0  0  0
  4 15  1  0  0  0
  5  6  2  0  0  0
 15 16  1  0  0  0
  9 10  1  0  0  0
  9 11  2  0  0  0
 16 18  1  0  0  0
 18 19  1  0  0  0
 18 20  1  0  0  0
 20 21  2  0  0  0
 20 22  1  0  0  0
  7  8  1  0  0  0
 10 12  1  0  0  0
 10 13  1  0  0  0
 11 14  1  0  0  0
 16 17  1  0  0  0
 22 23  1  0  0  0
M  END
> <minimizedAffinity>
-5.32986

$$$$
1G3E_109_A_601


 23 23  0  0  0  0  0  0  0  0999 V2000
   39.2062    1.0154   33.3902 C   0  0  0  0  0  0  0  0  0  0  0  0
   40.3990    0.3387   33.5848 C   0  0  0  0  0  0  0  0  0  0  0  0
   41.0998   -0.2097   32.5110 C   0  0  0  0  0  0  0  0  0  0  0  0
   40.5909   -0.0805   31.2143 C   0  0  0  0  0  0  0  0  0  0  0  0
   39.3922    0.6008   31.0347 C   0  0  0  0  0  0  0  0  0  0  0  0
   38.7086    1.1387   32.1055 C   0  0  0  0  0  0  0  0  0  0  0  0
   42.2470   -0.8392   32.8325 O   0  0  0  0  0  0  0  0  0  0  0  0
   42.5221   -0.8839   33.7271 H   0  0  0  0  0  0  0  0  0  0  0  0
   38.5541    1.6844   34.4966 C   0  0  0  0  0  0  0  0  0  0  0  0
   37.2347    1.6370   34.6176 N   0  0  0  0  0  0  0  0  0  0  0  0
   39.2764    2.3471   35.3887 N   0  0  0  0  0  0  0  0  0  0  0  0
   36.6970    1.1450   33.9557 H   0  0  0  0  0  0  0  0  0  0  0  0
   36.7926    2.0937   35.3694 H   0  0  0  0  0  0  0  0  0  0  0  0
   40.2563    2.3831   35.2999 H   0  0  0  0  0  0  0  0  0  0  0  0
   41.2682   -0.6245   30.0525 C   0  0  0  0  0  0  0  0  0  0  0  0
   42.4962   -0.3500   29.7236 N   0  0  0  0  0  0  0  0  0  0  0  0
   42.9571    0.0119   30.5585 H   0  0  0  0  0  0  0  0  0  0  0  0
   43.3368   -1.4223   29.1990 C   0  0  0  0  0  0  0  0  0  0  0  0
   42.4646   -2.5092   28.5787 C   0  0  0  0  0  0  0  0  0  0  0  0
   44.3008   -0.8641   28.1565 C   0  0  0  0  0  0  0  0  0  0  0  0
   44.0373   -1.0039   26.9541 O   0  0  0  0  0  0  0  0  0  0  0  0
   45.3500   -0.2750   28.6186 O   0  0  0  0  0  0  0  0  0  0  0  0
   45.4805   -0.2082   29.5440 H   0  0  0  0  0  0  0  0  0  0  0  0
  1  2  2  0  0  0
  1  6  1  0  0  0
  1  9  1  0  0  0
  2  3  1  0  0  0
  3  4  2  0  0  0
  3  7  1  0  0  0
  4  5  1  0  0  0
  4 15  1  0  0  0
  5  6  2  0  0  0
 15 16  1  0  0  0
  9 10  1  0  0  0
  9 11  2  0  0  0
 16 18  1  0  0  0
 18 19  1  0  0  0
 18 20  1  0  0  0
 20 21  2  0  0  0
 20 22  1  0  0  0
  7  8  1  0  0  0
 10 12  1  0  0  0
 10 13  1  0  0  0
 11 14  1  0  0  0
 16 17  1  0  0  0
 22 23  1  0  0  0
M  END
> <minimizedAffinity>
-5.30425

$$$$
1G3E_109_A_601


 23 23  0  0  0  0  0  0  0  0999 V2000
   46.5585   -0.6088   35.0290 C   0  0  0  0  0  0  0  0  0  0  0  0
   46.0981    0.6201   34.5860 C   0  0  0  0  0  0  0  0  0  0  0  0
   44.8261    0.7554   34.0305 C   0  0  0  0  0  0  0  0  0  0  0  0
   43.9997   -0.3671   33.9125 C   0  0  0  0  0  0  0  0  0  0  0  0
   44.4759   -1.5941   34.3608 C   0  0  0  0  0  0  0  0  0  0  0  0
   45.7363   -1.7146   34.9085 C   0  0  0  0  0  0  0  0  0  0  0  0
   44.4964    2.0029   33.6420 O   0  0  0  0  0  0  0  0  0  0  0  0
   45.1064    2.7052   33.7545 H   0  0  0  0  0  0  0  0  0  0  0  0
   47.8299   -0.7115   35.7145 C   0  0  0  0  0  0  0  0  0  0  0  0
   48.4408    0.3818   36.1495 N   0  0  0  0  0  0  0  0  0  0  0  0
   48.3854   -1.8997   35.9056 N   0  0  0  0  0  0  0  0  0  0  0  0
   48.0293    1.2649   36.0083 H   0  0  0  0  0  0  0  0  0  0  0  0
   49.3060    0.3105   36.6139 H   0  0  0  0  0  0  0  0  0  0  0  0
   47.9328   -2.7123   35.5831 H   0  0  0  0  0  0  0  0  0  0  0  0
   42.6657   -0.2979   33.3465 C   0  0  0  0  0  0  0  0  0  0  0  0
   42.3946    0.1628   32.1609 N   0  0  0  0  0  0  0  0  0  0  0  0
   43.2810    0.4292   31.7322 H   0  0  0  0  0  0  0  0  0  0  0  0
   41.7027   -0.7062   31.2135 C   0  0  0  0  0  0  0  0  0  0  0  0
   40.4727    0.0054   30.6591 C   0  0  0  0  0  0  0  0  0  0  0  0
   42.6447   -1.0893   30.0761 C   0  0  0  0  0  0  0  0  0  0  0  0
   43.0304   -2.2626   29.9805 O   0  0  0  0  0  0  0  0  0  0  0  0
   42.9816   -0.1342   29.2786 O   0  0  0  0  0  0  0  0  0  0  0  0
   42.6477    0.7304   29.4158 H   0  0  0  0  0  0  0  0  0  0  0  0
  1  2  2  0  0  0
  1  6  1  0  0  0
  1  9  1  0  0  0
  2  3  1  0  0  0
  3  4  2  0  0  0
  3  7  1  0  0  0
  4  5  1  0  0  0
  4 15  1  0  0  0
  5  6  2  0  0  0
 15 16  1  0  0  0
  9 10  1  0  0  0
  9 11  2  0  0  0
 16 18  1  0  0  0
 18 19  1  0  0  0
 18 20  1  0  0  0
 20 21  2  0  0  0
 20 22  1  0  0  0
  7  8  1  0  0  0
 10 12  1  0  0  0
 10 13  1  0  0  0
 11 14  1  0  0  0
 16 17  1  0  0  0
 22 23  1  0  0  0
M  END
> <minimizedAffinity>
-5.22574

$$$$
