4R5B_3J4_A_303


 30 31  0  0  0  0  0  0  0  0999 V2000
    0.5261    4.6477   79.1719 C   0  0  0  0  0  0  0  0  0  0  0  0
   -0.9465    4.6649   79.5870 C   0  0  0  0  0  0  0  0  0  0  0  0
    2.3739    2.4614   81.6935 O   0  0  0  0  0  0  0  0  0  0  0  0
    1.2810    3.3794   81.2573 C   0  0  0  0  0  0  0  0  0  0  0  0
    1.5892    4.1034   79.9999 C   0  0  0  0  0  0  0  0  0  0  0  0
    2.5359    3.3344   79.2329 O   0  0  0  0  0  0  0  0  0  0  0  0
    0.9323    5.9948   78.8112 O   0  0  0  0  0  0  0  0  0  0  0  0
   -1.2813    3.7845   80.6937 O   0  0  0  0  0  0  0  0  0  0  0  0
   -0.2563    3.2419   81.5742 C   0  0  0  0  0  0  0  0  0  0  0  0
    3.2232    2.7865   81.3562 H   0  0  0  0  0  0  0  0  0  0  0  0
    2.1170    2.5129   78.9321 H   0  0  0  0  0  0  0  0  0  0  0  0
    0.9464    6.5519   79.6051 H   0  0  0  0  0  0  0  0  0  0  0  0
   -1.6550    5.9633   79.5791 C   0  0  0  0  0  0  0  0  0  0  0  0
   -3.0561    5.9244   79.4163 O   0  0  0  0  0  0  0  0  0  0  0  0
   -3.2702    5.5599   78.5433 H   0  0  0  0  0  0  0  0  0  0  0  0
   -1.0573    1.7306   82.1638 S   0  0  0  0  0  0  0  0  0  0  0  0
   -0.0248    0.7619   82.2033 O   0  0  0  0  0  0  0  0  0  0  0  0
   -2.2449    1.4306   81.4728 O   0  0  0  0  0  0  0  0  0  0  0  0
   -1.4687    1.9740   83.4712 N   0  0  0  0  0  0  0  0  0  0  0  0
   -1.4205    1.0912   84.3516 C   0  0  0  0  0  0  0  0  0  0  0  0
   -0.9860    3.1947   84.1140 C   0  0  0  0  0  0  0  0  0  0  0  0
   -0.4294    2.7599   85.4627 C   0  0  0  0  0  0  0  0  0  0  0  0
   -1.0614    1.7613   85.7686 C   0  0  0  0  0  0  0  0  0  0  0  0
   -2.3549    2.0740   86.4136 O   0  0  0  0  0  0  0  0  0  0  0  0
   -3.0892    1.1963   87.3883 S   0  0  0  0  0  0  0  0  0  0  0  0
   -4.4784    1.0237   87.1284 O   0  0  0  0  0  0  0  0  0  0  0  0
   -2.9089    1.8091   88.6138 O   0  0  0  0  0  0  0  0  0  0  0  0
   -2.2565   -0.1460   87.3831 N   0  0  0  0  0  0  0  0  0  0  0  0
   -2.3751   -0.6162   86.4858 H   0  0  0  0  0  0  0  0  0  0  0  0
   -2.5874   -0.7543   88.1321 H   0  0  0  0  0  0  0  0  0  0  0  0
  6  5  1  0  0  0
  3  4  1  0  0  0
  5  1  1  0  0  0
  5  4  1  0  0  0
  1  7  1  0  0  0
  1  2  1  0  0  0
  4  9  1  0  0  0
 18 16  2  0  0  0
 17 16  2  0  0  0
  2  8  1  0  0  0
  2 13  1  0  0  0
  9 16  1  0  0  0
  9  8  1  0  0  0
 16 19  1  0  0  0
 13 14  1  0  0  0
 19 21  1  0  0  0
 19 20  1  0  0  0
 21 22  1  0  0  0
 20 23  1  0  0  0
 22 23  1  0  0  0
 23 24  1  0  0  0
 24 25  1  0  0  0
 28 25  1  0  0  0
 25 26  2  0  0  0
 25 27  2  0  0  0
 28 29  1  0  0  0
 28 30  1  0  0  0
  3 10  1  0  0  0
  6 11  1  0  0  0
  7 12  1  0  0  0
 14 15  1  0  0  0
M  END
> <minimizedAffinity>
-7.85187

$$$$
4R5B_3J4_A_303


 30 31  0  0  0  0  0  0  0  0999 V2000
   -1.0452    1.0145   85.0753 C   0  0  0  0  0  0  0  0  0  0  0  0
   -1.7989    1.8970   86.0724 C   0  0  0  0  0  0  0  0  0  0  0  0
   -1.5060    2.5783   81.6263 O   0  0  0  0  0  0  0  0  0  0  0  0
   -1.9100    2.2812   83.0320 C   0  0  0  0  0  0  0  0  0  0  0  0
   -1.1582    1.1525   83.6330 C   0  0  0  0  0  0  0  0  0  0  0  0
    0.1172    1.0313   82.9737 O   0  0  0  0  0  0  0  0  0  0  0  0
   -1.3145   -0.3801   85.3790 O   0  0  0  0  0  0  0  0  0  0  0  0
   -2.3559    3.1167   85.5120 O   0  0  0  0  0  0  0  0  0  0  0  0
   -2.5234    3.2895   84.0759 C   0  0  0  0  0  0  0  0  0  0  0  0
   -1.1593    1.7725   81.2124 H   0  0  0  0  0  0  0  0  0  0  0  0
    0.6613    1.8081   83.1769 H   0  0  0  0  0  0  0  0  0  0  0  0
   -2.2414   -0.5820   85.1764 H   0  0  0  0  0  0  0  0  0  0  0  0
   -2.6395    1.2314   87.0913 C   0  0  0  0  0  0  0  0  0  0  0  0
   -1.9810    0.3820   88.0057 O   0  0  0  0  0  0  0  0  0  0  0  0
   -1.5919   -0.3674   87.5283 H   0  0  0  0  0  0  0  0  0  0  0  0
   -2.4677    5.0916   83.9255 S   0  0  0  0  0  0  0  0  0  0  0  0
   -1.8997    5.5419   85.1423 O   0  0  0  0  0  0  0  0  0  0  0  0
   -3.6870    5.6469   83.4980 O   0  0  0  0  0  0  0  0  0  0  0  0
   -1.5741    5.3850   82.8993 N   0  0  0  0  0  0  0  0  0  0  0  0
   -1.9474    5.9122   81.8319 C   0  0  0  0  0  0  0  0  0  0  0  0
   -0.3333    6.0678   83.2603 C   0  0  0  0  0  0  0  0  0  0  0  0
   -0.2181    7.2485   82.3061 C   0  0  0  0  0  0  0  0  0  0  0  0
   -0.8037    6.9051   81.2916 C   0  0  0  0  0  0  0  0  0  0  0  0
    0.0417    6.1004   80.3834 O   0  0  0  0  0  0  0  0  0  0  0  0
   -0.3906    5.5050   79.0726 S   0  0  0  0  0  0  0  0  0  0  0  0
   -1.6366    5.9755   78.5694 O   0  0  0  0  0  0  0  0  0  0  0  0
   -0.4595    4.1457   79.3128 O   0  0  0  0  0  0  0  0  0  0  0  0
    0.8381    5.7733   78.1170 N   0  0  0  0  0  0  0  0  0  0  0  0
    0.9082    6.7727   77.9258 H   0  0  0  0  0  0  0  0  0  0  0  0
    0.7042    5.2681   77.2410 H   0  0  0  0  0  0  0  0  0  0  0  0
  6  5  1  0  0  0
  3  4  1  0  0  0
  5  1  1  0  0  0
  5  4  1  0  0  0
  1  7  1  0  0  0
  1  2  1  0  0  0
  4  9  1  0  0  0
 18 16  2  0  0  0
 17 16  2  0  0  0
  2  8  1  0  0  0
  2 13  1  0  0  0
  9 16  1  0  0  0
  9  8  1  0  0  0
 16 19  1  0  0  0
 13 14  1  0  0  0
 19 21  1  0  0  0
 19 20  1  0  0  0
 21 22  1  0  0  0
 20 23  1  0  0  0
 22 23  1  0  0  0
 23 24  1  0  0  0
 24 25  1  0  0  0
 28 25  1  0  0  0
 25 26  2  0  0  0
 25 27  2  0  0  0
 28 29  1  0  0  0
 28 30  1  0  0  0
  3 10  1  0  0  0
  6 11  1  0  0  0
  7 12  1  0  0  0
 14 15  1  0  0  0
M  END
> <minimizedAffinity>
-7.77737

$$$$
4R5B_3J4_A_303


 30 31  0  0  0  0  0  0  0  0999 V2000
    1.5969    4.9083   79.9165 C   0  0  0  0  0  0  0  0  0  0  0  0
    2.0402    5.4635   81.2716 C   0  0  0  0  0  0  0  0  0  0  0  0
   -1.7274    3.1214   80.4726 O   0  0  0  0  0  0  0  0  0  0  0  0
   -0.3883    3.6297   80.8919 C   0  0  0  0  0  0  0  0  0  0  0  0
    0.4907    3.9807   79.7498 C   0  0  0  0  0  0  0  0  0  0  0  0
   -0.3265    4.3086   78.6093 O   0  0  0  0  0  0  0  0  0  0  0  0
    2.7416    4.3094   79.2525 O   0  0  0  0  0  0  0  0  0  0  0  0
    1.0745    5.3014   82.3455 O   0  0  0  0  0  0  0  0  0  0  0  0
   -0.0308    4.3590   82.2420 C   0  0  0  0  0  0  0  0  0  0  0  0
   -1.6587    2.7160   79.5941 H   0  0  0  0  0  0  0  0  0  0  0  0
   -0.8160    5.1270   78.7868 H   0  0  0  0  0  0  0  0  0  0  0  0
    3.0085    3.5076   79.7287 H   0  0  0  0  0  0  0  0  0  0  0  0
    3.4548    5.2865   81.6653 C   0  0  0  0  0  0  0  0  0  0  0  0
    3.8594    3.9823   82.0214 O   0  0  0  0  0  0  0  0  0  0  0  0
    3.3805    3.7010   82.8166 H   0  0  0  0  0  0  0  0  0  0  0  0
   -1.2391    5.1033   83.3643 S   0  0  0  0  0  0  0  0  0  0  0  0
   -2.4282    5.2089   82.6022 O   0  0  0  0  0  0  0  0  0  0  0  0
   -0.7496    6.2458   84.0222 O   0  0  0  0  0  0  0  0  0  0  0  0
   -1.4631    4.1841   84.3854 N   0  0  0  0  0  0  0  0  0  0  0  0
   -2.2599    3.2333   84.2521 C   0  0  0  0  0  0  0  0  0  0  0  0
   -0.2923    3.6228   85.0564 C   0  0  0  0  0  0  0  0  0  0  0  0
   -0.4969    2.1141   85.0525 C   0  0  0  0  0  0  0  0  0  0  0  0
   -1.7065    1.9500   85.0477 C   0  0  0  0  0  0  0  0  0  0  0  0
   -2.3019    2.0180   86.3997 O   0  0  0  0  0  0  0  0  0  0  0  0
   -2.7226    0.8434   87.2381 S   0  0  0  0  0  0  0  0  0  0  0  0
   -2.2225    0.8341   88.5711 O   0  0  0  0  0  0  0  0  0  0  0  0
   -2.2573   -0.2609   86.5497 O   0  0  0  0  0  0  0  0  0  0  0  0
   -4.2988    0.8573   87.1365 N   0  0  0  0  0  0  0  0  0  0  0  0
   -4.6648    1.6660   87.6389 H   0  0  0  0  0  0  0  0  0  0  0  0
   -4.6736    0.0029   87.5487 H   0  0  0  0  0  0  0  0  0  0  0  0
  6  5  1  0  0  0
  3  4  1  0  0  0
  5  1  1  0  0  0
  5  4  1  0  0  0
  1  7  1  0  0  0
  1  2  1  0  0  0
  4  9  1  0  0  0
 18 16  2  0  0  0
 17 16  2  0  0  0
  2  8  1  0  0  0
  2 13  1  0  0  0
  9 16  1  0  0  0
  9  8  1  0  0  0
 16 19  1  0  0  0
 13 14  1  0  0  0
 19 21  1  0  0  0
 19 20  1  0  0  0
 21 22  1  0  0  0
 20 23  1  0  0  0
 22 23  1  0  0  0
 23 24  1  0  0  0
 24 25  1  0  0  0
 28 25  1  0  0  0
 25 26  2  0  0  0
 25 27  2  0  0  0
 28 29  1  0  0  0
 28 30  1  0  0  0
  3 10  1  0  0  0
  6 11  1  0  0  0
  7 12  1  0  0  0
 14 15  1  0  0  0
M  END
> <minimizedAffinity>
-7.67658

$$$$
4R5B_3J4_A_303


 30 31  0  0  0  0  0  0  0  0999 V2000
    3.8658    3.8227   79.6197 C   0  0  0  0  0  0  0  0  0  0  0  0
    2.7677    3.6773   78.5642 C   0  0  0  0  0  0  0  0  0  0  0  0
    2.2355    5.3055   82.7336 O   0  0  0  0  0  0  0  0  0  0  0  0
    2.3629    5.0724   81.2650 C   0  0  0  0  0  0  0  0  0  0  0  0
    3.6923    4.5485   80.8667 C   0  0  0  0  0  0  0  0  0  0  0  0
    4.2806    3.8561   81.9850 O   0  0  0  0  0  0  0  0  0  0  0  0
    5.0590    4.3618   78.9908 O   0  0  0  0  0  0  0  0  0  0  0  0
    1.4270    3.9927   79.0277 O   0  0  0  0  0  0  0  0  0  0  0  0
    1.2008    4.7486   80.2516 C   0  0  0  0  0  0  0  0  0  0  0  0
    3.1115    5.4837   83.1099 H   0  0  0  0  0  0  0  0  0  0  0  0
    3.7642    3.0583   82.1793 H   0  0  0  0  0  0  0  0  0  0  0  0
    4.8989    5.2819   78.7290 H   0  0  0  0  0  0  0  0  0  0  0  0
    3.0726    4.1053   77.1816 C   0  0  0  0  0  0  0  0  0  0  0  0
    3.9087    3.2598   76.4219 O   0  0  0  0  0  0  0  0  0  0  0  0
    4.7872    3.2210   76.8313 H   0  0  0  0  0  0  0  0  0  0  0  0
   -0.4499    4.1771   80.7227 S   0  0  0  0  0  0  0  0  0  0  0  0
   -0.9173    3.4479   79.6020 O   0  0  0  0  0  0  0  0  0  0  0  0
   -1.2568    5.1997   81.2529 O   0  0  0  0  0  0  0  0  0  0  0  0
   -0.2836    3.2842   81.7776 N   0  0  0  0  0  0  0  0  0  0  0  0
   -1.2225    2.9886   82.5442 C   0  0  0  0  0  0  0  0  0  0  0  0
    0.4013    2.0247   81.4935 C   0  0  0  0  0  0  0  0  0  0  0  0
   -0.4917    0.9307   82.0625 C   0  0  0  0  0  0  0  0  0  0  0  0
   -1.0900    1.4497   82.9914 C   0  0  0  0  0  0  0  0  0  0  0  0
   -0.3100    1.4539   84.2479 O   0  0  0  0  0  0  0  0  0  0  0  0
   -0.8670    1.2714   85.6321 S   0  0  0  0  0  0  0  0  0  0  0  0
   -1.9010    2.1788   85.9989 O   0  0  0  0  0  0  0  0  0  0  0  0
    0.2211    1.4292   86.4695 O   0  0  0  0  0  0  0  0  0  0  0  0
   -1.2957   -0.2485   85.6649 N   0  0  0  0  0  0  0  0  0  0  0  0
   -2.0992   -0.3884   85.0523 H   0  0  0  0  0  0  0  0  0  0  0  0
   -1.5454   -0.5108   86.6185 H   0  0  0  0  0  0  0  0  0  0  0  0
  6  5  1  0  0  0
  3  4  1  0  0  0
  5  1  1  0  0  0
  5  4  1  0  0  0
  1  7  1  0  0  0
  1  2  1  0  0  0
  4  9  1  0  0  0
 18 16  2  0  0  0
 17 16  2  0  0  0
  2  8  1  0  0  0
  2 13  1  0  0  0
  9 16  1  0  0  0
  9  8  1  0  0  0
 16 19  1  0  0  0
 13 14  1  0  0  0
 19 21  1  0  0  0
 19 20  1  0  0  0
 21 22  1  0  0  0
 20 23  1  0  0  0
 22 23  1  0  0  0
 23 24  1  0  0  0
 24 25  1  0  0  0
 28 25  1  0  0  0
 25 26  2  0  0  0
 25 27  2  0  0  0
 28 29  1  0  0  0
 28 30  1  0  0  0
  3 10  1  0  0  0
  6 11  1  0  0  0
  7 12  1  0  0  0
 14 15  1  0  0  0
M  END
> <minimizedAffinity>
-7.62091

$$$$
4R5B_3J4_A_303


 30 31  0  0  0  0  0  0  0  0999 V2000
   -1.0998    0.9662   85.1452 C   0  0  0  0  0  0  0  0  0  0  0  0
   -1.8976    1.7926   86.1560 C   0  0  0  0  0  0  0  0  0  0  0  0
   -1.4946    2.6639   81.7518 O   0  0  0  0  0  0  0  0  0  0  0  0
   -1.9317    2.3012   83.1320 C   0  0  0  0  0  0  0  0  0  0  0  0
   -1.1754    1.1622   83.7072 C   0  0  0  0  0  0  0  0  0  0  0  0
    0.1198    1.0914   83.0800 O   0  0  0  0  0  0  0  0  0  0  0  0
   -1.3507   -0.4446   85.3834 O   0  0  0  0  0  0  0  0  0  0  0  0
   -2.4620    3.0244   85.6306 O   0  0  0  0  0  0  0  0  0  0  0  0
   -2.5929    3.2539   84.1986 C   0  0  0  0  0  0  0  0  0  0  0  0
   -1.1212    1.8824   81.3151 H   0  0  0  0  0  0  0  0  0  0  0  0
    0.6432    1.8688   83.3304 H   0  0  0  0  0  0  0  0  0  0  0  0
   -2.2676   -0.6544   85.1463 H   0  0  0  0  0  0  0  0  0  0  0  0
   -2.7532    1.0701   87.1222 C   0  0  0  0  0  0  0  0  0  0  0  0
   -2.1005    0.2246   88.0443 O   0  0  0  0  0  0  0  0  0  0  0  0
   -1.6623   -0.4972   87.5670 H   0  0  0  0  0  0  0  0  0  0  0  0
   -2.5676    5.0615   84.1243 S   0  0  0  0  0  0  0  0  0  0  0  0
   -2.5993    5.4827   85.4761 O   0  0  0  0  0  0  0  0  0  0  0  0
   -3.5116    5.5894   83.2254 O   0  0  0  0  0  0  0  0  0  0  0  0
   -1.3360    5.4275   83.5887 N   0  0  0  0  0  0  0  0  0  0  0  0
   -1.2200    6.3878   82.8006 C   0  0  0  0  0  0  0  0  0  0  0  0
   -0.2062    5.5379   84.5093 C   0  0  0  0  0  0  0  0  0  0  0  0
    0.4277    6.8928   84.2258 C   0  0  0  0  0  0  0  0  0  0  0  0
    0.1867    7.1253   83.0520 C   0  0  0  0  0  0  0  0  0  0  0  0
    1.1526    6.4907   82.1294 O   0  0  0  0  0  0  0  0  0  0  0  0
    2.6484    6.6284   82.1872 S   0  0  0  0  0  0  0  0  0  0  0  0
    3.1308    7.7426   82.9309 O   0  0  0  0  0  0  0  0  0  0  0  0
    3.0402    6.7350   80.8662 O   0  0  0  0  0  0  0  0  0  0  0  0
    3.1319    5.2266   82.7314 N   0  0  0  0  0  0  0  0  0  0  0  0
    2.8528    5.1261   83.7073 H   0  0  0  0  0  0  0  0  0  0  0  0
    4.1476    5.1663   82.6604 H   0  0  0  0  0  0  0  0  0  0  0  0
  6  5  1  0  0  0
  3  4  1  0  0  0
  5  1  1  0  0  0
  5  4  1  0  0  0
  1  7  1  0  0  0
  1  2  1  0  0  0
  4  9  1  0  0  0
 18 16  2  0  0  0
 17 16  2  0  0  0
  2  8  1  0  0  0
  2 13  1  0  0  0
  9 16  1  0  0  0
  9  8  1  0  0  0
 16 19  1  0  0  0
 13 14  1  0  0  0
 19 21  1  0  0  0
 19 20  1  0  0  0
 21 22  1  0  0  0
 20 23  1  0  0  0
 22 23  1  0  0  0
 23 24  1  0  0  0
 24 25  1  0  0  0
 28 25  1  0  0  0
 25 26  2  0  0  0
 25 27  2  0  0  0
 28 29  1  0  0  0
 28 30  1  0  0  0
  3 10  1  0  0  0
  6 11  1  0  0  0
  7 12  1  0  0  0
 14 15  1  0  0  0
M  END
> <minimizedAffinity>
-7.52041

$$$$
4R5B_3J4_A_303


 30 31  0  0  0  0  0  0  0  0999 V2000
   -2.4464    2.7335   84.9146 C   0  0  0  0  0  0  0  0  0  0  0  0
   -1.5625    1.5304   84.5793 C   0  0  0  0  0  0  0  0  0  0  0  0
   -1.8325    5.3596   82.2165 O   0  0  0  0  0  0  0  0  0  0  0  0
   -1.4499    4.2008   83.0758 C   0  0  0  0  0  0  0  0  0  0  0  0
   -2.3393    4.0210   84.2492 C   0  0  0  0  0  0  0  0  0  0  0  0
   -3.6300    4.5894   83.9542 O   0  0  0  0  0  0  0  0  0  0  0  0
   -2.3659    2.9976   86.3407 O   0  0  0  0  0  0  0  0  0  0  0  0
   -0.8530    1.6252   83.3146 O   0  0  0  0  0  0  0  0  0  0  0  0
   -0.6870    2.8976   82.6263 C   0  0  0  0  0  0  0  0  0  0  0  0
   -2.2932    6.0226   82.7542 H   0  0  0  0  0  0  0  0  0  0  0  0
   -4.0591    4.0718   83.2550 H   0  0  0  0  0  0  0  0  0  0  0  0
   -1.4789    3.3236   86.5595 H   0  0  0  0  0  0  0  0  0  0  0  0
   -0.8045    0.8975   85.6804 C   0  0  0  0  0  0  0  0  0  0  0  0
    0.2658    1.6379   86.2260 O   0  0  0  0  0  0  0  0  0  0  0  0
    0.9464    1.7702   85.5476 H   0  0  0  0  0  0  0  0  0  0  0  0
   -0.4976    2.3524   80.9116 S   0  0  0  0  0  0  0  0  0  0  0  0
   -1.3666    3.1856   80.1656 O   0  0  0  0  0  0  0  0  0  0  0  0
   -0.5989    0.9576   80.7623 O   0  0  0  0  0  0  0  0  0  0  0  0
    0.8096    2.6476   80.5348 N   0  0  0  0  0  0  0  0  0  0  0  0
    1.2152    3.8229   80.4310 C   0  0  0  0  0  0  0  0  0  0  0  0
    1.8853    1.9199   81.2051 C   0  0  0  0  0  0  0  0  0  0  0  0
    2.8734    2.9798   81.6722 C   0  0  0  0  0  0  0  0  0  0  0  0
    2.7563    3.9038   80.8832 C   0  0  0  0  0  0  0  0  0  0  0  0
    3.5548    3.7148   79.6529 O   0  0  0  0  0  0  0  0  0  0  0  0
    4.9598    4.2006   79.4302 S   0  0  0  0  0  0  0  0  0  0  0  0
    5.8101    4.1541   80.5712 O   0  0  0  0  0  0  0  0  0  0  0  0
    4.8136    5.5061   79.0011 O   0  0  0  0  0  0  0  0  0  0  0  0
    5.4650    3.3357   78.2089 N   0  0  0  0  0  0  0  0  0  0  0  0
    5.5801    2.3659   78.5035 H   0  0  0  0  0  0  0  0  0  0  0  0
    6.3596    3.6999   77.8812 H   0  0  0  0  0  0  0  0  0  0  0  0
  6  5  1  0  0  0
  3  4  1  0  0  0
  5  1  1  0  0  0
  5  4  1  0  0  0
  1  7  1  0  0  0
  1  2  1  0  0  0
  4  9  1  0  0  0
 18 16  2  0  0  0
 17 16  2  0  0  0
  2  8  1  0  0  0
  2 13  1  0  0  0
  9 16  1  0  0  0
  9  8  1  0  0  0
 16 19  1  0  0  0
 13 14  1  0  0  0
 19 21  1  0  0  0
 19 20  1  0  0  0
 21 22  1  0  0  0
 20 23  1  0  0  0
 22 23  1  0  0  0
 23 24  1  0  0  0
 24 25  1  0  0  0
 28 25  1  0  0  0
 25 26  2  0  0  0
 25 27  2  0  0  0
 28 29  1  0  0  0
 28 30  1  0  0  0
  3 10  1  0  0  0
  6 11  1  0  0  0
  7 12  1  0  0  0
 14 15  1  0  0  0
M  END
> <minimizedAffinity>
-7.49098

$$$$
4R5B_3J4_A_303


 30 31  0  0  0  0  0  0  0  0999 V2000
   -2.0804    8.0220   80.2762 C   0  0  0  0  0  0  0  0  0  0  0  0
   -2.6761    6.8242   79.5336 C   0  0  0  0  0  0  0  0  0  0  0  0
    0.3836    6.6373   82.8383 O   0  0  0  0  0  0  0  0  0  0  0  0
   -0.8260    6.5739   81.9664 C   0  0  0  0  0  0  0  0  0  0  0  0
   -1.2644    7.9022   81.4727 C   0  0  0  0  0  0  0  0  0  0  0  0
   -0.1328    8.7939   81.4506 O   0  0  0  0  0  0  0  0  0  0  0  0
   -3.1438    8.9592   80.5937 O   0  0  0  0  0  0  0  0  0  0  0  0
   -2.0887    5.5391   79.8730 O   0  0  0  0  0  0  0  0  0  0  0  0
   -1.2932    5.3585   81.0793 C   0  0  0  0  0  0  0  0  0  0  0  0
    0.4264    7.5053   83.2692 H   0  0  0  0  0  0  0  0  0  0  0  0
    0.5019    8.4943   80.7810 H   0  0  0  0  0  0  0  0  0  0  0  0
   -3.7289    8.5699   81.2622 H   0  0  0  0  0  0  0  0  0  0  0  0
   -4.1370    6.8071   79.3026 C   0  0  0  0  0  0  0  0  0  0  0  0
   -4.6447    5.7582   78.5069 O   0  0  0  0  0  0  0  0  0  0  0  0
   -4.2880    5.8325   77.6079 H   0  0  0  0  0  0  0  0  0  0  0  0
   -0.2445    3.9616   80.6080 S   0  0  0  0  0  0  0  0  0  0  0  0
    1.0363    4.5248   80.3879 O   0  0  0  0  0  0  0  0  0  0  0  0
   -0.8151    3.1577   79.6050 O   0  0  0  0  0  0  0  0  0  0  0  0
   -0.1613    3.1251   81.7176 N   0  0  0  0  0  0  0  0  0  0  0  0
   -1.1225    2.9688   82.4977 C   0  0  0  0  0  0  0  0  0  0  0  0
    0.4001    1.7909   81.5158 C   0  0  0  0  0  0  0  0  0  0  0  0
   -0.5914    0.8246   82.1491 C   0  0  0  0  0  0  0  0  0  0  0  0
   -1.1357    1.4555   83.0412 C   0  0  0  0  0  0  0  0  0  0  0  0
   -0.3561    1.4647   84.2979 O   0  0  0  0  0  0  0  0  0  0  0  0
   -0.9067    1.2418   85.6788 S   0  0  0  0  0  0  0  0  0  0  0  0
   -1.9650    2.1136   86.0624 O   0  0  0  0  0  0  0  0  0  0  0  0
    0.1773    1.4142   86.5185 O   0  0  0  0  0  0  0  0  0  0  0  0
   -1.2934   -0.2897   85.6841 N   0  0  0  0  0  0  0  0  0  0  0  0
   -2.0932   -0.4405   85.0694 H   0  0  0  0  0  0  0  0  0  0  0  0
   -1.5350   -0.5760   86.6328 H   0  0  0  0  0  0  0  0  0  0  0  0
  6  5  1  0  0  0
  3  4  1  0  0  0
  5  1  1  0  0  0
  5  4  1  0  0  0
  1  7  1  0  0  0
  1  2  1  0  0  0
  4  9  1  0  0  0
 18 16  2  0  0  0
 17 16  2  0  0  0
  2  8  1  0  0  0
  2 13  1  0  0  0
  9 16  1  0  0  0
  9  8  1  0  0  0
 16 19  1  0  0  0
 13 14  1  0  0  0
 19 21  1  0  0  0
 19 20  1  0  0  0
 21 22  1  0  0  0
 20 23  1  0  0  0
 22 23  1  0  0  0
 23 24  1  0  0  0
 24 25  1  0  0  0
 28 25  1  0  0  0
 25 26  2  0  0  0
 25 27  2  0  0  0
 28 29  1  0  0  0
 28 30  1  0  0  0
  3 10  1  0  0  0
  6 11  1  0  0  0
  7 12  1  0  0  0
 14 15  1  0  0  0
M  END
> <minimizedAffinity>
-7.47226

$$$$
4R5B_3J4_A_303


 30 31  0  0  0  0  0  0  0  0999 V2000
    1.1842    6.2275   84.0693 C   0  0  0  0  0  0  0  0  0  0  0  0
    2.1191    5.6627   82.9978 C   0  0  0  0  0  0  0  0  0  0  0  0
   -2.3865    5.6238   82.8697 O   0  0  0  0  0  0  0  0  0  0  0  0
   -0.9247    5.8540   82.6762 C   0  0  0  0  0  0  0  0  0  0  0  0
   -0.2487    6.3851   83.8850 C   0  0  0  0  0  0  0  0  0  0  0  0
   -0.9937    5.9907   85.0535 O   0  0  0  0  0  0  0  0  0  0  0  0
    1.6888    7.5177   84.5059 O   0  0  0  0  0  0  0  0  0  0  0  0
    1.4547    4.9543   81.9167 O   0  0  0  0  0  0  0  0  0  0  0  0
    0.0280    5.1064   81.6681 C   0  0  0  0  0  0  0  0  0  0  0  0
   -2.7203    6.2237   83.5550 H   0  0  0  0  0  0  0  0  0  0  0  0
   -0.9409    5.0281   85.1609 H   0  0  0  0  0  0  0  0  0  0  0  0
    1.5945    8.1619   83.7869 H   0  0  0  0  0  0  0  0  0  0  0  0
    3.2843    6.4788   82.5929 C   0  0  0  0  0  0  0  0  0  0  0  0
    3.0210    7.6207   81.8068 O   0  0  0  0  0  0  0  0  0  0  0  0
    2.6463    7.3473   80.9548 H   0  0  0  0  0  0  0  0  0  0  0  0
   -0.3598    3.5397   80.8505 S   0  0  0  0  0  0  0  0  0  0  0  0
    0.7164    3.3185   79.9566 O   0  0  0  0  0  0  0  0  0  0  0  0
   -1.6755    3.4865   80.3567 O   0  0  0  0  0  0  0  0  0  0  0  0
   -0.3161    2.5506   81.8290 N   0  0  0  0  0  0  0  0  0  0  0  0
   -1.3006    2.2959   82.5519 C   0  0  0  0  0  0  0  0  0  0  0  0
    0.2388    1.2523   81.4514 C   0  0  0  0  0  0  0  0  0  0  0  0
   -0.7793    0.2177   81.9109 C   0  0  0  0  0  0  0  0  0  0  0  0
   -1.3431    0.7201   82.8700 C   0  0  0  0  0  0  0  0  0  0  0  0
   -0.5999    0.5373   84.1353 O   0  0  0  0  0  0  0  0  0  0  0  0
   -1.1531    0.7337   85.5192 S   0  0  0  0  0  0  0  0  0  0  0  0
   -1.6706   -0.4375   86.1419 O   0  0  0  0  0  0  0  0  0  0  0  0
   -2.1568    1.6708   85.3638 O   0  0  0  0  0  0  0  0  0  0  0  0
    0.0369    1.4140   86.3042 N   0  0  0  0  0  0  0  0  0  0  0  0
    0.7909    0.7387   86.4305 H   0  0  0  0  0  0  0  0  0  0  0  0
   -0.2936    1.7291   87.2162 H   0  0  0  0  0  0  0  0  0  0  0  0
  6  5  1  0  0  0
  3  4  1  0  0  0
  5  1  1  0  0  0
  5  4  1  0  0  0
  1  7  1  0  0  0
  1  2  1  0  0  0
  4  9  1  0  0  0
 18 16  2  0  0  0
 17 16  2  0  0  0
  2  8  1  0  0  0
  2 13  1  0  0  0
  9 16  1  0  0  0
  9  8  1  0  0  0
 16 19  1  0  0  0
 13 14  1  0  0  0
 19 21  1  0  0  0
 19 20  1  0  0  0
 21 22  1  0  0  0
 20 23  1  0  0  0
 22 23  1  0  0  0
 23 24  1  0  0  0
 24 25  1  0  0  0
 28 25  1  0  0  0
 25 26  2  0  0  0
 25 27  2  0  0  0
 28 29  1  0  0  0
 28 30  1  0  0  0
  3 10  1  0  0  0
  6 11  1  0  0  0
  7 12  1  0  0  0
 14 15  1  0  0  0
M  END
> <minimizedAffinity>
-7.40587

$$$$
4R5B_3J4_A_303


 30 31  0  0  0  0  0  0  0  0999 V2000
   -2.3886    2.6963   85.0649 C   0  0  0  0  0  0  0  0  0  0  0  0
   -1.4080    1.6975   84.4469 C   0  0  0  0  0  0  0  0  0  0  0  0
   -0.8119    6.1554   84.7466 O   0  0  0  0  0  0  0  0  0  0  0  0
   -0.7763    4.6685   84.8695 C   0  0  0  0  0  0  0  0  0  0  0  0
   -2.0600    4.0865   85.3317 C   0  0  0  0  0  0  0  0  0  0  0  0
   -3.1359    4.9770   84.9778 O   0  0  0  0  0  0  0  0  0  0  0  0
   -2.9032    2.1478   86.3076 O   0  0  0  0  0  0  0  0  0  0  0  0
   -0.2487    2.2944   83.8052 O   0  0  0  0  0  0  0  0  0  0  0  0
    0.1434    3.6721   84.0671 C   0  0  0  0  0  0  0  0  0  0  0  0
   -1.4717    6.5149   85.3600 H   0  0  0  0  0  0  0  0  0  0  0  0
   -3.2274    5.0060   84.0125 H   0  0  0  0  0  0  0  0  0  0  0  0
   -2.1924    2.1187   86.9670 H   0  0  0  0  0  0  0  0  0  0  0  0
   -1.1441    0.4398   85.1792 C   0  0  0  0  0  0  0  0  0  0  0  0
   -0.3974    0.5411   86.3722 O   0  0  0  0  0  0  0  0  0  0  0  0
    0.4957    0.8602   86.1687 H   0  0  0  0  0  0  0  0  0  0  0  0
    1.0307    4.0848   82.5453 S   0  0  0  0  0  0  0  0  0  0  0  0
    1.6736    2.8829   82.1603 O   0  0  0  0  0  0  0  0  0  0  0  0
    1.7955    5.2600   82.6545 O   0  0  0  0  0  0  0  0  0  0  0  0
    0.0691    4.3848   81.5845 N   0  0  0  0  0  0  0  0  0  0  0  0
   -0.2449    5.5612   81.3122 C   0  0  0  0  0  0  0  0  0  0  0  0
    0.1633    3.6970   80.2983 C   0  0  0  0  0  0  0  0  0  0  0  0
    0.0762    4.7870   79.2389 C   0  0  0  0  0  0  0  0  0  0  0  0
   -0.5843    5.6802   79.7449 C   0  0  0  0  0  0  0  0  0  0  0  0
   -2.0413    5.4583   79.6232 O   0  0  0  0  0  0  0  0  0  0  0  0
   -3.0916    6.5296   79.5289 S   0  0  0  0  0  0  0  0  0  0  0  0
   -2.6404    7.7851   79.0316 O   0  0  0  0  0  0  0  0  0  0  0  0
   -3.5610    6.6727   80.8208 O   0  0  0  0  0  0  0  0  0  0  0  0
   -4.2311    5.8606   78.6635 N   0  0  0  0  0  0  0  0  0  0  0  0
   -3.9057    5.7451   77.7037 H   0  0  0  0  0  0  0  0  0  0  0  0
   -5.0590    6.4563   78.6725 H   0  0  0  0  0  0  0  0  0  0  0  0
  6  5  1  0  0  0
  3  4  1  0  0  0
  5  1  1  0  0  0
  5  4  1  0  0  0
  1  7  1  0  0  0
  1  2  1  0  0  0
  4  9  1  0  0  0
 18 16  2  0  0  0
 17 16  2  0  0  0
  2  8  1  0  0  0
  2 13  1  0  0  0
  9 16  1  0  0  0
  9  8  1  0  0  0
 16 19  1  0  0  0
 13 14  1  0  0  0
 19 21  1  0  0  0
 19 20  1  0  0  0
 21 22  1  0  0  0
 20 23  1  0  0  0
 22 23  1  0  0  0
 23 24  1  0  0  0
 24 25  1  0  0  0
 28 25  1  0  0  0
 25 26  2  0  0  0
 25 27  2  0  0  0
 28 29  1  0  0  0
 28 30  1  0  0  0
  3 10  1  0  0  0
  6 11  1  0  0  0
  7 12  1  0  0  0
 14 15  1  0  0  0
M  END
> <minimizedAffinity>
-7.37592

$$$$
4R5B_3J4_A_303


 30 31  0  0  0  0  0  0  0  0999 V2000
   -0.2167    6.2715   82.6643 C   0  0  0  0  0  0  0  0  0  0  0  0
    1.2745    6.0220   82.8992 C   0  0  0  0  0  0  0  0  0  0  0  0
   -1.4188    3.6241   80.1946 O   0  0  0  0  0  0  0  0  0  0  0  0
   -0.3979    4.5200   80.8131 C   0  0  0  0  0  0  0  0  0  0  0  0
   -0.9892    5.6113   81.6253 C   0  0  0  0  0  0  0  0  0  0  0  0
   -2.2888    5.2004   82.0924 O   0  0  0  0  0  0  0  0  0  0  0  0
   -0.4383    7.6977   82.5003 O   0  0  0  0  0  0  0  0  0  0  0  0
    1.8021    4.8244   82.2673 O   0  0  0  0  0  0  0  0  0  0  0  0
    1.0838    4.1465   81.1973 C   0  0  0  0  0  0  0  0  0  0  0  0
   -2.2454    4.1154   80.0671 H   0  0  0  0  0  0  0  0  0  0  0  0
   -2.1898    4.4689   82.7217 H   0  0  0  0  0  0  0  0  0  0  0  0
   -0.0438    7.9922   81.6645 H   0  0  0  0  0  0  0  0  0  0  0  0
    2.1831    7.1891   82.8933 C   0  0  0  0  0  0  0  0  0  0  0  0
    2.0549    8.1025   83.9612 O   0  0  0  0  0  0  0  0  0  0  0  0
    1.1778    8.5156   83.9299 H   0  0  0  0  0  0  0  0  0  0  0  0
    1.7134    2.4582   81.3600 S   0  0  0  0  0  0  0  0  0  0  0  0
    2.9490    2.5934   82.0391 O   0  0  0  0  0  0  0  0  0  0  0  0
    1.6764    1.7373   80.1530 O   0  0  0  0  0  0  0  0  0  0  0  0
    0.8346    1.7773   82.1978 N   0  0  0  0  0  0  0  0  0  0  0  0
    0.1049    2.3766   83.0133 C   0  0  0  0  0  0  0  0  0  0  0  0
   -0.0130    0.7505   81.5949 C   0  0  0  0  0  0  0  0  0  0  0  0
   -1.4292    1.0559   82.0627 C   0  0  0  0  0  0  0  0  0  0  0  0
   -1.3025    1.6095   83.1432 C   0  0  0  0  0  0  0  0  0  0  0  0
   -1.1478    0.6566   84.2635 O   0  0  0  0  0  0  0  0  0  0  0  0
   -1.2033    0.9988   85.7262 S   0  0  0  0  0  0  0  0  0  0  0  0
    0.0524    1.2783   86.3362 O   0  0  0  0  0  0  0  0  0  0  0  0
   -1.7837   -0.1055   86.3209 O   0  0  0  0  0  0  0  0  0  0  0  0
   -2.2364    2.1919   85.7919 N   0  0  0  0  0  0  0  0  0  0  0  0
   -1.8281    3.0195   85.3575 H   0  0  0  0  0  0  0  0  0  0  0  0
   -2.4602    2.3946   86.7661 H   0  0  0  0  0  0  0  0  0  0  0  0
  6  5  1  0  0  0
  3  4  1  0  0  0
  5  1  1  0  0  0
  5  4  1  0  0  0
  1  7  1  0  0  0
  1  2  1  0  0  0
  4  9  1  0  0  0
 18 16  2  0  0  0
 17 16  2  0  0  0
  2  8  1  0  0  0
  2 13  1  0  0  0
  9 16  1  0  0  0
  9  8  1  0  0  0
 16 19  1  0  0  0
 13 14  1  0  0  0
 19 21  1  0  0  0
 19 20  1  0  0  0
 21 22  1  0  0  0
 20 23  1  0  0  0
 22 23  1  0  0  0
 23 24  1  0  0  0
 24 25  1  0  0  0
 28 25  1  0  0  0
 25 26  2  0  0  0
 25 27  2  0  0  0
 28 29  1  0  0  0
 28 30  1  0  0  0
  3 10  1  0  0  0
  6 11  1  0  0  0
  7 12  1  0  0  0
 14 15  1  0  0  0
M  END
> <minimizedAffinity>
-7.37129

$$$$
