1FKH_SBX_A_108


 33 35  0  0  0  0  0  0  0  0999 V2000
  -28.3354   28.9918   43.7908 C   0  0  0  0  0  0  0  0  0  0  0  0
  -29.4685   29.2592   43.4104 O   0  0  0  0  0  0  0  0  0  0  0  0
  -27.3128   30.1023   44.0002 C   0  0  0  0  0  0  0  0  0  0  0  0
  -27.5625   31.2316   43.0068 C   0  0  0  0  0  0  0  0  0  0  0  0
  -27.1561   30.8703   41.5881 C   0  0  0  0  0  0  0  0  0  0  0  0
  -25.6705   30.5313   41.6661 C   0  0  0  0  0  0  0  0  0  0  0  0
  -25.4325   29.3503   42.5932 C   0  0  0  0  0  0  0  0  0  0  0  0
  -25.8815   29.7992   43.9153 N   0  0  0  0  0  0  0  0  0  0  0  0
  -25.1326   29.7659   45.0346 C   0  0  0  0  0  0  0  0  0  0  0  0
  -25.6900   29.9711   46.1139 O   0  0  0  0  0  0  0  0  0  0  0  0
  -23.6234   29.5826   45.0940 C   0  0  0  0  0  0  0  0  0  0  0  0
  -23.2202   28.4369   44.8851 O   0  0  0  0  0  0  0  0  0  0  0  0
  -22.6279   30.7237   45.2703 C   0  0  0  0  0  0  0  0  0  0  0  0
  -21.2764   30.2891   44.8006 C   0  0  0  0  0  0  0  0  0  0  0  0
  -22.3678   31.0407   46.7134 C   0  0  0  0  0  0  0  0  0  0  0  0
  -23.0179   32.0014   44.5400 C   0  0  0  0  0  0  0  0  0  0  0  0
  -21.8288   32.9324   44.1606 C   0  0  0  0  0  0  0  0  0  0  0  0
  -27.8656   27.7801   44.0624 O   0  0  0  0  0  0  0  0  0  0  0  0
  -28.4129   26.5840   43.4350 C   0  0  0  0  0  0  0  0  0  0  0  0
  -27.5736   26.2375   42.2292 C   0  0  0  0  0  0  0  0  0  0  0  0
  -27.8176   27.0623   40.9855 C   0  0  0  0  0  0  0  0  0  0  0  0
  -27.1351   26.3343   39.8682 C   0  0  0  0  0  0  0  0  0  0  0  0
  -25.6461   26.1826   40.1473 C   0  0  0  0  0  0  0  0  0  0  0  0
  -25.3644   25.4176   41.4234 C   0  0  0  0  0  0  0  0  0  0  0  0
  -26.0916   26.1283   42.5616 C   0  0  0  0  0  0  0  0  0  0  0  0
  -28.4158   25.3989   44.3883 C   0  0  0  0  0  0  0  0  0  0  0  0
  -29.1119   25.6730   45.7154 C   0  0  0  0  0  0  0  0  0  0  0  0
  -30.3517   26.5337   45.7512 C   0  0  0  0  0  0  0  0  0  0  0  0
  -30.3781   27.6253   46.5036 C   0  0  0  0  0  0  0  0  0  0  0  0
  -31.3844   28.4761   46.4240 C   0  0  0  0  0  0  0  0  0  0  0  0
  -32.3762   28.2259   45.5903 C   0  0  0  0  0  0  0  0  0  0  0  0
  -32.3628   27.1319   44.8524 C   0  0  0  0  0  0  0  0  0  0  0  0
  -31.3539   26.2865   44.9343 C   0  0  0  0  0  0  0  0  0  0  0  0
  1  3  1  0  0  0
  1  2  2  0  0  0
  1 18  1  0  0  0
  3  4  1  0  0  0
  3  8  1  0  0  0
  4  5  1  0  0  0
  5  6  1  0  0  0
  6  7  1  0  0  0
  7  8  1  0  0  0
  8  9  1  0  0  0
 18 19  1  0  0  0
  9 10  2  0  0  0
  9 11  1  0  0  0
 11 12  2  0  0  0
 11 13  1  0  0  0
 13 16  1  0  0  0
 13 14  1  0  0  0
 13 15  1  0  0  0
 16 17  1  0  0  0
 19 26  1  0  0  0
 19 20  1  0  0  0
 26 27  1  0  0  0
 27 28  1  0  0  0
 28 29  2  0  0  0
 28 33  1  0  0  0
 29 30  1  0  0  0
 30 31  2  0  0  0
 31 32  1  0  0  0
 32 33  2  0  0  0
 20 21  1  0  0  0
 20 25  1  0  0  0
 21 22  1  0  0  0
 22 23  1  0  0  0
 23 24  1  0  0  0
 24 25  1  0  0  0
M  END
> <minimizedAffinity>
-8.44139

$$$$
1FKH_SBX_A_108


 33 35  0  0  0  0  0  0  0  0999 V2000
  -28.3789   28.7399   44.3025 C   0  0  0  0  0  0  0  0  0  0  0  0
  -28.0006   28.1973   45.3334 O   0  0  0  0  0  0  0  0  0  0  0  0
  -27.7169   30.0263   43.8233 C   0  0  0  0  0  0  0  0  0  0  0  0
  -28.2583   30.4081   42.4501 C   0  0  0  0  0  0  0  0  0  0  0  0
  -27.7406   29.5085   41.3405 C   0  0  0  0  0  0  0  0  0  0  0  0
  -26.2215   29.6442   41.3847 C   0  0  0  0  0  0  0  0  0  0  0  0
  -25.6754   29.1836   42.7265 C   0  0  0  0  0  0  0  0  0  0  0  0
  -26.2571   30.0972   43.7156 N   0  0  0  0  0  0  0  0  0  0  0  0
  -25.5499   30.8151   44.6096 C   0  0  0  0  0  0  0  0  0  0  0  0
  -26.1621   31.3784   45.5182 O   0  0  0  0  0  0  0  0  0  0  0  0
  -24.0519   31.0769   44.5598 C   0  0  0  0  0  0  0  0  0  0  0  0
  -23.7098   32.0779   43.9275 O   0  0  0  0  0  0  0  0  0  0  0  0
  -23.0141   30.2632   45.3245 C   0  0  0  0  0  0  0  0  0  0  0  0
  -21.6492   30.5602   44.7906 C   0  0  0  0  0  0  0  0  0  0  0  0
  -23.1348   28.7905   45.0657 C   0  0  0  0  0  0  0  0  0  0  0  0
  -23.0215   30.5092   46.8270 C   0  0  0  0  0  0  0  0  0  0  0  0
  -21.8573   29.8346   47.6107 C   0  0  0  0  0  0  0  0  0  0  0  0
  -29.3505   28.3141   43.5042 O   0  0  0  0  0  0  0  0  0  0  0  0
  -30.1098   27.1044   43.7935 C   0  0  0  0  0  0  0  0  0  0  0  0
  -31.5684   27.4658   43.9363 C   0  0  0  0  0  0  0  0  0  0  0  0
  -32.1808   27.2470   45.3015 C   0  0  0  0  0  0  0  0  0  0  0  0
  -33.6628   27.3527   45.1097 C   0  0  0  0  0  0  0  0  0  0  0  0
  -34.0425   28.7148   44.5455 C   0  0  0  0  0  0  0  0  0  0  0  0
  -33.3927   28.9962   43.2071 C   0  0  0  0  0  0  0  0  0  0  0  0
  -31.8838   28.8489   43.3827 C   0  0  0  0  0  0  0  0  0  0  0  0
  -29.9660   26.0709   42.6869 C   0  0  0  0  0  0  0  0  0  0  0  0
  -28.6851   25.2503   42.7682 C   0  0  0  0  0  0  0  0  0  0  0  0
  -27.4790   25.6554   41.9556 C   0  0  0  0  0  0  0  0  0  0  0  0
  -26.2612   25.5066   42.4590 C   0  0  0  0  0  0  0  0  0  0  0  0
  -25.1922   25.6989   41.7087 C   0  0  0  0  0  0  0  0  0  0  0  0
  -25.3452   26.0521   40.4464 C   0  0  0  0  0  0  0  0  0  0  0  0
  -26.5547   26.2186   39.9459 C   0  0  0  0  0  0  0  0  0  0  0  0
  -27.6193   26.0230   40.6993 C   0  0  0  0  0  0  0  0  0  0  0  0
  1  3  1  0  0  0
  1  2  2  0  0  0
  1 18  1  0  0  0
  3  4  1  0  0  0
  3  8  1  0  0  0
  4  5  1  0  0  0
  5  6  1  0  0  0
  6  7  1  0  0  0
  7  8  1  0  0  0
  8  9  1  0  0  0
 18 19  1  0  0  0
  9 10  2  0  0  0
  9 11  1  0  0  0
 11 12  2  0  0  0
 11 13  1  0  0  0
 13 16  1  0  0  0
 13 14  1  0  0  0
 13 15  1  0  0  0
 16 17  1  0  0  0
 19 26  1  0  0  0
 19 20  1  0  0  0
 26 27  1  0  0  0
 27 28  1  0  0  0
 28 29  2  0  0  0
 28 33  1  0  0  0
 29 30  1  0  0  0
 30 31  2  0  0  0
 31 32  1  0  0  0
 32 33  2  0  0  0
 20 21  1  0  0  0
 20 25  1  0  0  0
 21 22  1  0  0  0
 22 23  1  0  0  0
 23 24  1  0  0  0
 24 25  1  0  0  0
M  END
> <minimizedAffinity>
-8.43168

$$$$
1FKH_SBX_A_108


 33 35  0  0  0  0  0  0  0  0999 V2000
  -27.2452   28.6987   43.0766 C   0  0  0  0  0  0  0  0  0  0  0  0
  -26.1449   28.3412   43.4788 O   0  0  0  0  0  0  0  0  0  0  0  0
  -27.3865   29.3629   41.7122 C   0  0  0  0  0  0  0  0  0  0  0  0
  -26.1278   30.1611   41.3910 C   0  0  0  0  0  0  0  0  0  0  0  0
  -26.0138   31.4373   42.2077 C   0  0  0  0  0  0  0  0  0  0  0  0
  -27.2681   32.2416   41.8797 C   0  0  0  0  0  0  0  0  0  0  0  0
  -28.5207   31.4780   42.2781 C   0  0  0  0  0  0  0  0  0  0  0  0
  -28.5128   30.2643   41.4547 N   0  0  0  0  0  0  0  0  0  0  0  0
  -29.5254   29.8669   40.6600 C   0  0  0  0  0  0  0  0  0  0  0  0
  -29.4822   28.7302   40.1872 O   0  0  0  0  0  0  0  0  0  0  0  0
  -30.6967   30.7269   40.2088 C   0  0  0  0  0  0  0  0  0  0  0  0
  -30.5091   31.3802   39.1808 O   0  0  0  0  0  0  0  0  0  0  0  0
  -32.0693   30.7214   40.8721 C   0  0  0  0  0  0  0  0  0  0  0  0
  -33.1337   30.8137   39.8259 C   0  0  0  0  0  0  0  0  0  0  0  0
  -32.3209   31.9596   41.6809 C   0  0  0  0  0  0  0  0  0  0  0  0
  -32.3317   29.4966   41.7377 C   0  0  0  0  0  0  0  0  0  0  0  0
  -33.6417   29.5521   42.5776 C   0  0  0  0  0  0  0  0  0  0  0  0
  -28.3971   28.5649   43.7232 O   0  0  0  0  0  0  0  0  0  0  0  0
  -28.9896   27.2581   43.9778 C   0  0  0  0  0  0  0  0  0  0  0  0
  -30.2287   27.4397   44.8206 C   0  0  0  0  0  0  0  0  0  0  0  0
  -30.5921   28.8636   45.1769 C   0  0  0  0  0  0  0  0  0  0  0  0
  -31.6234   28.7669   46.2591 C   0  0  0  0  0  0  0  0  0  0  0  0
  -32.8417   27.9886   45.7816 C   0  0  0  0  0  0  0  0  0  0  0  0
  -32.5032   26.5764   45.3527 C   0  0  0  0  0  0  0  0  0  0  0  0
  -31.4215   26.6631   44.2795 C   0  0  0  0  0  0  0  0  0  0  0  0
  -29.3732   26.5523   42.6863 C   0  0  0  0  0  0  0  0  0  0  0  0
  -28.5167   25.3333   42.3686 C   0  0  0  0  0  0  0  0  0  0  0  0
  -27.2010   25.5050   41.6485 C   0  0  0  0  0  0  0  0  0  0  0  0
  -27.1734   26.0554   40.4423 C   0  0  0  0  0  0  0  0  0  0  0  0
  -26.0260   26.3639   39.8669 C   0  0  0  0  0  0  0  0  0  0  0  0
  -24.8973   26.1102   40.5017 C   0  0  0  0  0  0  0  0  0  0  0  0
  -24.9192   25.5464   41.6946 C   0  0  0  0  0  0  0  0  0  0  0  0
  -26.0684   25.2423   42.2658 C   0  0  0  0  0  0  0  0  0  0  0  0
  1  3  1  0  0  0
  1  2  2  0  0  0
  1 18  1  0  0  0
  3  4  1  0  0  0
  3  8  1  0  0  0
  4  5  1  0  0  0
  5  6  1  0  0  0
  6  7  1  0  0  0
  7  8  1  0  0  0
  8  9  1  0  0  0
 18 19  1  0  0  0
  9 10  2  0  0  0
  9 11  1  0  0  0
 11 12  2  0  0  0
 11 13  1  0  0  0
 13 16  1  0  0  0
 13 14  1  0  0  0
 13 15  1  0  0  0
 16 17  1  0  0  0
 19 26  1  0  0  0
 19 20  1  0  0  0
 26 27  1  0  0  0
 27 28  1  0  0  0
 28 29  2  0  0  0
 28 33  1  0  0  0
 29 30  1  0  0  0
 30 31  2  0  0  0
 31 32  1  0  0  0
 32 33  2  0  0  0
 20 21  1  0  0  0
 20 25  1  0  0  0
 21 22  1  0  0  0
 22 23  1  0  0  0
 23 24  1  0  0  0
 24 25  1  0  0  0
M  END
> <minimizedAffinity>
-8.28712

$$$$
1FKH_SBX_A_108


 33 35  0  0  0  0  0  0  0  0999 V2000
  -24.9358   26.4872   42.6779 C   0  0  0  0  0  0  0  0  0  0  0  0
  -23.8814   26.1528   42.1519 O   0  0  0  0  0  0  0  0  0  0  0  0
  -26.2026   25.6720   42.4468 C   0  0  0  0  0  0  0  0  0  0  0  0
  -26.3031   25.2745   40.9784 C   0  0  0  0  0  0  0  0  0  0  0  0
  -26.6656   26.4409   40.0746 C   0  0  0  0  0  0  0  0  0  0  0  0
  -28.0054   26.9541   40.5934 C   0  0  0  0  0  0  0  0  0  0  0  0
  -27.8832   27.4283   42.0326 C   0  0  0  0  0  0  0  0  0  0  0  0
  -27.5070   26.2376   42.8020 N   0  0  0  0  0  0  0  0  0  0  0  0
  -28.1688   25.7783   43.8817 C   0  0  0  0  0  0  0  0  0  0  0  0
  -27.6356   24.8995   44.5606 O   0  0  0  0  0  0  0  0  0  0  0  0
  -29.5732   26.1813   44.3064 C   0  0  0  0  0  0  0  0  0  0  0  0
  -30.4843   25.7591   43.5921 O   0  0  0  0  0  0  0  0  0  0  0  0
  -29.8953   26.9453   45.5857 C   0  0  0  0  0  0  0  0  0  0  0  0
  -29.6741   26.0594   46.7698 C   0  0  0  0  0  0  0  0  0  0  0  0
  -31.3550   27.2691   45.7088 C   0  0  0  0  0  0  0  0  0  0  0  0
  -29.0833   28.2208   45.7640 C   0  0  0  0  0  0  0  0  0  0  0  0
  -29.6315   29.4627   45.0012 C   0  0  0  0  0  0  0  0  0  0  0  0
  -25.1164   27.5334   43.4752 O   0  0  0  0  0  0  0  0  0  0  0  0
  -24.2527   28.7056   43.4143 C   0  0  0  0  0  0  0  0  0  0  0  0
  -25.0235   29.8485   42.7994 C   0  0  0  0  0  0  0  0  0  0  0  0
  -25.3059   29.7438   41.3175 C   0  0  0  0  0  0  0  0  0  0  0  0
  -25.7663   31.1034   40.8889 C   0  0  0  0  0  0  0  0  0  0  0  0
  -27.0097   31.5247   41.6600 C   0  0  0  0  0  0  0  0  0  0  0  0
  -26.7817   31.5757   43.1561 C   0  0  0  0  0  0  0  0  0  0  0  0
  -26.2712   30.2063   43.5956 C   0  0  0  0  0  0  0  0  0  0  0  0
  -23.7725   29.1239   44.7955 C   0  0  0  0  0  0  0  0  0  0  0  0
  -22.3970   29.7785   44.8012 C   0  0  0  0  0  0  0  0  0  0  0  0
  -21.4647   29.5604   45.9685 C   0  0  0  0  0  0  0  0  0  0  0  0
  -21.9582   29.3987   47.1886 C   0  0  0  0  0  0  0  0  0  0  0  0
  -21.1765   29.0450   48.1918 C   0  0  0  0  0  0  0  0  0  0  0  0
  -19.8884   28.8609   47.9719 C   0  0  0  0  0  0  0  0  0  0  0  0
  -19.3896   29.0380   46.7631 C   0  0  0  0  0  0  0  0  0  0  0  0
  -20.1756   29.3892   45.7640 C   0  0  0  0  0  0  0  0  0  0  0  0
  1  3  1  0  0  0
  1  2  2  0  0  0
  1 18  1  0  0  0
  3  4  1  0  0  0
  3  8  1  0  0  0
  4  5  1  0  0  0
  5  6  1  0  0  0
  6  7  1  0  0  0
  7  8  1  0  0  0
  8  9  1  0  0  0
 18 19  1  0  0  0
  9 10  2  0  0  0
  9 11  1  0  0  0
 11 12  2  0  0  0
 11 13  1  0  0  0
 13 16  1  0  0  0
 13 14  1  0  0  0
 13 15  1  0  0  0
 16 17  1  0  0  0
 19 26  1  0  0  0
 19 20  1  0  0  0
 26 27  1  0  0  0
 27 28  1  0  0  0
 28 29  2  0  0  0
 28 33  1  0  0  0
 29 30  1  0  0  0
 30 31  2  0  0  0
 31 32  1  0  0  0
 32 33  2  0  0  0
 20 21  1  0  0  0
 20 25  1  0  0  0
 21 22  1  0  0  0
 22 23  1  0  0  0
 23 24  1  0  0  0
 24 25  1  0  0  0
M  END
> <minimizedAffinity>
-8.23366

$$$$
1FKH_SBX_A_108


 33 35  0  0  0  0  0  0  0  0999 V2000
  -28.3012   30.6608   43.2264 C   0  0  0  0  0  0  0  0  0  0  0  0
  -29.1455   31.3853   42.7141 O   0  0  0  0  0  0  0  0  0  0  0  0
  -27.1787   31.2617   44.0640 C   0  0  0  0  0  0  0  0  0  0  0  0
  -27.0631   32.7555   43.7815 C   0  0  0  0  0  0  0  0  0  0  0  0
  -26.4586   33.0537   42.4198 C   0  0  0  0  0  0  0  0  0  0  0  0
  -25.0832   32.3934   42.4339 C   0  0  0  0  0  0  0  0  0  0  0  0
  -25.2055   30.8912   42.6321 C   0  0  0  0  0  0  0  0  0  0  0  0
  -25.8200   30.7238   43.9533 N   0  0  0  0  0  0  0  0  0  0  0  0
  -25.3075   29.9782   44.9515 C   0  0  0  0  0  0  0  0  0  0  0  0
  -26.0189   29.7490   45.9307 O   0  0  0  0  0  0  0  0  0  0  0  0
  -23.8819   29.4528   45.0322 C   0  0  0  0  0  0  0  0  0  0  0  0
  -23.6843   28.3696   44.4786 O   0  0  0  0  0  0  0  0  0  0  0  0
  -22.7153   30.2291   45.6327 C   0  0  0  0  0  0  0  0  0  0  0  0
  -23.1695   30.9474   46.8631 C   0  0  0  0  0  0  0  0  0  0  0  0
  -22.2697   31.3634   44.7579 C   0  0  0  0  0  0  0  0  0  0  0  0
  -21.5122   29.3637   45.9812 C   0  0  0  0  0  0  0  0  0  0  0  0
  -21.3994   28.9664   47.4826 C   0  0  0  0  0  0  0  0  0  0  0  0
  -28.2465   29.3373   43.1375 O   0  0  0  0  0  0  0  0  0  0  0  0
  -28.8355   28.6162   42.0165 C   0  0  0  0  0  0  0  0  0  0  0  0
  -27.9906   27.4011   41.7194 C   0  0  0  0  0  0  0  0  0  0  0  0
  -27.6536   27.1605   40.2650 C   0  0  0  0  0  0  0  0  0  0  0  0
  -27.1163   25.7640   40.1924 C   0  0  0  0  0  0  0  0  0  0  0  0
  -25.8876   25.6072   41.0776 C   0  0  0  0  0  0  0  0  0  0  0  0
  -26.1732   25.9062   42.5343 C   0  0  0  0  0  0  0  0  0  0  0  0
  -26.7613   27.3122   42.6137 C   0  0  0  0  0  0  0  0  0  0  0  0
  -30.2555   28.1644   42.3209 C   0  0  0  0  0  0  0  0  0  0  0  0
  -30.3408   26.8014   42.9957 C   0  0  0  0  0  0  0  0  0  0  0  0
  -30.2286   26.6969   44.4976 C   0  0  0  0  0  0  0  0  0  0  0  0
  -29.2823   25.9425   45.0398 C   0  0  0  0  0  0  0  0  0  0  0  0
  -29.0629   25.9660   46.3414 C   0  0  0  0  0  0  0  0  0  0  0  0
  -29.8041   26.7450   47.1064 C   0  0  0  0  0  0  0  0  0  0  0  0
  -30.7587   27.4842   46.5736 C   0  0  0  0  0  0  0  0  0  0  0  0
  -30.9720   27.4585   45.2724 C   0  0  0  0  0  0  0  0  0  0  0  0
  1  3  1  0  0  0
  1  2  2  0  0  0
  1 18  1  0  0  0
  3  4  1  0  0  0
  3  8  1  0  0  0
  4  5  1  0  0  0
  5  6  1  0  0  0
  6  7  1  0  0  0
  7  8  1  0  0  0
  8  9  1  0  0  0
 18 19  1  0  0  0
  9 10  2  0  0  0
  9 11  1  0  0  0
 11 12  2  0  0  0
 11 13  1  0  0  0
 13 16  1  0  0  0
 13 14  1  0  0  0
 13 15  1  0  0  0
 16 17  1  0  0  0
 19 26  1  0  0  0
 19 20  1  0  0  0
 26 27  1  0  0  0
 27 28  1  0  0  0
 28 29  2  0  0  0
 28 33  1  0  0  0
 29 30  1  0  0  0
 30 31  2  0  0  0
 31 32  1  0  0  0
 32 33  2  0  0  0
 20 21  1  0  0  0
 20 25  1  0  0  0
 21 22  1  0  0  0
 22 23  1  0  0  0
 23 24  1  0  0  0
 24 25  1  0  0  0
M  END
> <minimizedAffinity>
-8.01322

$$$$
1FKH_SBX_A_108


 33 35  0  0  0  0  0  0  0  0999 V2000
  -29.3659   28.9145   41.4813 C   0  0  0  0  0  0  0  0  0  0  0  0
  -29.9257   28.8332   40.3949 O   0  0  0  0  0  0  0  0  0  0  0  0
  -29.4043   30.2179   42.2701 C   0  0  0  0  0  0  0  0  0  0  0  0
  -30.0677   31.3091   41.4373 C   0  0  0  0  0  0  0  0  0  0  0  0
  -29.1858   31.8045   40.3034 C   0  0  0  0  0  0  0  0  0  0  0  0
  -27.9182   32.3252   40.9741 C   0  0  0  0  0  0  0  0  0  0  0  0
  -27.2130   31.2145   41.7357 C   0  0  0  0  0  0  0  0  0  0  0  0
  -28.1581   30.7987   42.7773 N   0  0  0  0  0  0  0  0  0  0  0  0
  -27.8789   30.7489   44.0943 C   0  0  0  0  0  0  0  0  0  0  0  0
  -28.6829   30.1857   44.8386 O   0  0  0  0  0  0  0  0  0  0  0  0
  -26.6906   31.4061   44.7806 C   0  0  0  0  0  0  0  0  0  0  0  0
  -26.9444   32.4356   45.4086 O   0  0  0  0  0  0  0  0  0  0  0  0
  -25.2890   30.8082   44.8257 C   0  0  0  0  0  0  0  0  0  0  0  0
  -24.8393   30.6873   46.2467 C   0  0  0  0  0  0  0  0  0  0  0  0
  -24.2536   31.7284   44.2498 C   0  0  0  0  0  0  0  0  0  0  0  0
  -25.1768   29.4464   44.1542 C   0  0  0  0  0  0  0  0  0  0  0  0
  -23.7578   28.8065   44.1953 C   0  0  0  0  0  0  0  0  0  0  0  0
  -28.6941   27.9451   42.0909 O   0  0  0  0  0  0  0  0  0  0  0  0
  -28.6641   26.5844   41.5703 C   0  0  0  0  0  0  0  0  0  0  0  0
  -27.2262   26.1639   41.3857 C   0  0  0  0  0  0  0  0  0  0  0  0
  -26.3511   27.1057   40.5894 C   0  0  0  0  0  0  0  0  0  0  0  0
  -25.1067   26.3371   40.2658 C   0  0  0  0  0  0  0  0  0  0  0  0
  -24.4073   25.8743   41.5365 C   0  0  0  0  0  0  0  0  0  0  0  0
  -25.2799   24.9812   42.3932 C   0  0  0  0  0  0  0  0  0  0  0  0
  -26.5696   25.7403   42.6926 C   0  0  0  0  0  0  0  0  0  0  0  0
  -29.3449   25.6050   42.5139 C   0  0  0  0  0  0  0  0  0  0  0  0
  -30.5148   26.2006   43.2867 C   0  0  0  0  0  0  0  0  0  0  0  0
  -30.3985   26.4220   44.7755 C   0  0  0  0  0  0  0  0  0  0  0  0
  -29.3961   25.8751   45.4498 C   0  0  0  0  0  0  0  0  0  0  0  0
  -29.1828   26.1878   46.7145 C   0  0  0  0  0  0  0  0  0  0  0  0
  -29.9863   27.0484   47.3104 C   0  0  0  0  0  0  0  0  0  0  0  0
  -30.9957   27.5817   46.6487 C   0  0  0  0  0  0  0  0  0  0  0  0
  -31.2028   27.2675   45.3847 C   0  0  0  0  0  0  0  0  0  0  0  0
  1  3  1  0  0  0
  1  2  2  0  0  0
  1 18  1  0  0  0
  3  4  1  0  0  0
  3  8  1  0  0  0
  4  5  1  0  0  0
  5  6  1  0  0  0
  6  7  1  0  0  0
  7  8  1  0  0  0
  8  9  1  0  0  0
 18 19  1  0  0  0
  9 10  2  0  0  0
  9 11  1  0  0  0
 11 12  2  0  0  0
 11 13  1  0  0  0
 13 16  1  0  0  0
 13 14  1  0  0  0
 13 15  1  0  0  0
 16 17  1  0  0  0
 19 26  1  0  0  0
 19 20  1  0  0  0
 26 27  1  0  0  0
 27 28  1  0  0  0
 28 29  2  0  0  0
 28 33  1  0  0  0
 29 30  1  0  0  0
 30 31  2  0  0  0
 31 32  1  0  0  0
 32 33  2  0  0  0
 20 21  1  0  0  0
 20 25  1  0  0  0
 21 22  1  0  0  0
 22 23  1  0  0  0
 23 24  1  0  0  0
 24 25  1  0  0  0
M  END
> <minimizedAffinity>
-7.98659

$$$$
1FKH_SBX_A_108


 33 35  0  0  0  0  0  0  0  0999 V2000
  -29.1498   28.6639   41.2857 C   0  0  0  0  0  0  0  0  0  0  0  0
  -28.6891   28.6917   40.1511 O   0  0  0  0  0  0  0  0  0  0  0  0
  -28.5806   29.5723   42.3690 C   0  0  0  0  0  0  0  0  0  0  0  0
  -29.1352   30.9832   42.2072 C   0  0  0  0  0  0  0  0  0  0  0  0
  -28.5408   31.7182   41.0176 C   0  0  0  0  0  0  0  0  0  0  0  0
  -27.0367   31.7494   41.2710 C   0  0  0  0  0  0  0  0  0  0  0  0
  -26.4712   30.3404   41.3486 C   0  0  0  0  0  0  0  0  0  0  0  0
  -27.1291   29.7222   42.5045 N   0  0  0  0  0  0  0  0  0  0  0  0
  -26.4863   29.1463   43.5388 C   0  0  0  0  0  0  0  0  0  0  0  0
  -27.1477   28.4809   44.3371 O   0  0  0  0  0  0  0  0  0  0  0  0
  -25.0115   29.3090   43.8757 C   0  0  0  0  0  0  0  0  0  0  0  0
  -24.2442   28.5560   43.2731 O   0  0  0  0  0  0  0  0  0  0  0  0
  -24.4563   30.3945   44.7908 C   0  0  0  0  0  0  0  0  0  0  0  0
  -25.4511   30.7056   45.8630 C   0  0  0  0  0  0  0  0  0  0  0  0
  -24.3238   31.7179   44.0969 C   0  0  0  0  0  0  0  0  0  0  0  0
  -23.1267   30.0345   45.4395 C   0  0  0  0  0  0  0  0  0  0  0  0
  -21.8734   30.6717   44.7702 C   0  0  0  0  0  0  0  0  0  0  0  0
  -30.1467   27.8953   41.7077 O   0  0  0  0  0  0  0  0  0  0  0  0
  -30.0881   27.1890   42.9811 C   0  0  0  0  0  0  0  0  0  0  0  0
  -31.4324   27.2932   43.6596 C   0  0  0  0  0  0  0  0  0  0  0  0
  -31.5001   26.8023   45.0882 C   0  0  0  0  0  0  0  0  0  0  0  0
  -32.9574   26.6966   45.4187 C   0  0  0  0  0  0  0  0  0  0  0  0
  -33.6494   28.0439   45.2640 C   0  0  0  0  0  0  0  0  0  0  0  0
  -33.5440   28.5985   43.8589 C   0  0  0  0  0  0  0  0  0  0  0  0
  -32.0630   28.6698   43.4972 C   0  0  0  0  0  0  0  0  0  0  0  0
  -29.7447   25.7191   42.7947 C   0  0  0  0  0  0  0  0  0  0  0  0
  -28.3265   25.3559   43.2159 C   0  0  0  0  0  0  0  0  0  0  0  0
  -27.1937   25.4736   42.2248 C   0  0  0  0  0  0  0  0  0  0  0  0
  -27.4547   25.7061   40.9457 C   0  0  0  0  0  0  0  0  0  0  0  0
  -26.4810   25.9747   40.0957 C   0  0  0  0  0  0  0  0  0  0  0  0
  -25.2351   26.0013   40.5297 C   0  0  0  0  0  0  0  0  0  0  0  0
  -24.9688   25.7531   41.7981 C   0  0  0  0  0  0  0  0  0  0  0  0
  -25.9457   25.4875   42.6434 C   0  0  0  0  0  0  0  0  0  0  0  0
  1  3  1  0  0  0
  1  2  2  0  0  0
  1 18  1  0  0  0
  3  4  1  0  0  0
  3  8  1  0  0  0
  4  5  1  0  0  0
  5  6  1  0  0  0
  6  7  1  0  0  0
  7  8  1  0  0  0
  8  9  1  0  0  0
 18 19  1  0  0  0
  9 10  2  0  0  0
  9 11  1  0  0  0
 11 12  2  0  0  0
 11 13  1  0  0  0
 13 16  1  0  0  0
 13 14  1  0  0  0
 13 15  1  0  0  0
 16 17  1  0  0  0
 19 26  1  0  0  0
 19 20  1  0  0  0
 26 27  1  0  0  0
 27 28  1  0  0  0
 28 29  2  0  0  0
 28 33  1  0  0  0
 29 30  1  0  0  0
 30 31  2  0  0  0
 31 32  1  0  0  0
 32 33  2  0  0  0
 20 21  1  0  0  0
 20 25  1  0  0  0
 21 22  1  0  0  0
 22 23  1  0  0  0
 23 24  1  0  0  0
 24 25  1  0  0  0
M  END
> <minimizedAffinity>
-7.95747

$$$$
1FKH_SBX_A_108


 33 35  0  0  0  0  0  0  0  0999 V2000
  -27.4539   28.7993   43.8343 C   0  0  0  0  0  0  0  0  0  0  0  0
  -27.0018   29.0194   44.9512 O   0  0  0  0  0  0  0  0  0  0  0  0
  -26.8023   29.4213   42.6050 C   0  0  0  0  0  0  0  0  0  0  0  0
  -25.2925   29.2162   42.6583 C   0  0  0  0  0  0  0  0  0  0  0  0
  -24.6134   30.0968   43.6937 C   0  0  0  0  0  0  0  0  0  0  0  0
  -24.9554   31.5290   43.2944 C   0  0  0  0  0  0  0  0  0  0  0  0
  -26.4584   31.7551   43.3230 C   0  0  0  0  0  0  0  0  0  0  0  0
  -27.0065   30.8430   42.3138 N   0  0  0  0  0  0  0  0  0  0  0  0
  -27.8053   31.2136   41.2943 C   0  0  0  0  0  0  0  0  0  0  0  0
  -28.3667   30.3305   40.6443 O   0  0  0  0  0  0  0  0  0  0  0  0
  -28.0204   32.6365   40.8002 C   0  0  0  0  0  0  0  0  0  0  0  0
  -29.0276   33.2005   41.2316 O   0  0  0  0  0  0  0  0  0  0  0  0
  -27.0270   33.4018   39.9333 C   0  0  0  0  0  0  0  0  0  0  0  0
  -26.6386   34.6738   40.6170 C   0  0  0  0  0  0  0  0  0  0  0  0
  -27.6445   33.9082   38.6633 C   0  0  0  0  0  0  0  0  0  0  0  0
  -25.7668   32.6160   39.5981 C   0  0  0  0  0  0  0  0  0  0  0  0
  -24.4464   33.2151   40.1659 C   0  0  0  0  0  0  0  0  0  0  0  0
  -28.5022   28.0358   43.5500 O   0  0  0  0  0  0  0  0  0  0  0  0
  -29.0006   27.0340   44.4836 C   0  0  0  0  0  0  0  0  0  0  0  0
  -30.5089   27.0922   44.5029 C   0  0  0  0  0  0  0  0  0  0  0  0
  -31.1819   26.5731   45.7536 C   0  0  0  0  0  0  0  0  0  0  0  0
  -32.6324   26.4251   45.4095 C   0  0  0  0  0  0  0  0  0  0  0  0
  -33.2269   27.7575   44.9745 C   0  0  0  0  0  0  0  0  0  0  0  0
  -32.5322   28.3408   43.7619 C   0  0  0  0  0  0  0  0  0  0  0  0
  -31.0457   28.4555   44.0882 C   0  0  0  0  0  0  0  0  0  0  0  0
  -28.5683   25.6306   44.0877 C   0  0  0  0  0  0  0  0  0  0  0  0
  -28.6332   25.3617   42.5897 C   0  0  0  0  0  0  0  0  0  0  0  0
  -27.4051   25.5632   41.7351 C   0  0  0  0  0  0  0  0  0  0  0  0
  -27.5170   26.1177   40.5357 C   0  0  0  0  0  0  0  0  0  0  0  0
  -26.4438   26.4520   39.8435 C   0  0  0  0  0  0  0  0  0  0  0  0
  -25.2491   26.2202   40.3538 C   0  0  0  0  0  0  0  0  0  0  0  0
  -25.1326   25.6524   41.5393 C   0  0  0  0  0  0  0  0  0  0  0  0
  -26.2082   25.3225   42.2275 C   0  0  0  0  0  0  0  0  0  0  0  0
  1  3  1  0  0  0
  1  2  2  0  0  0
  1 18  1  0  0  0
  3  4  1  0  0  0
  3  8  1  0  0  0
  4  5  1  0  0  0
  5  6  1  0  0  0
  6  7  1  0  0  0
  7  8  1  0  0  0
  8  9  1  0  0  0
 18 19  1  0  0  0
  9 10  2  0  0  0
  9 11  1  0  0  0
 11 12  2  0  0  0
 11 13  1  0  0  0
 13 16  1  0  0  0
 13 14  1  0  0  0
 13 15  1  0  0  0
 16 17  1  0  0  0
 19 26  1  0  0  0
 19 20  1  0  0  0
 26 27  1  0  0  0
 27 28  1  0  0  0
 28 29  2  0  0  0
 28 33  1  0  0  0
 29 30  1  0  0  0
 30 31  2  0  0  0
 31 32  1  0  0  0
 32 33  2  0  0  0
 20 21  1  0  0  0
 20 25  1  0  0  0
 21 22  1  0  0  0
 22 23  1  0  0  0
 23 24  1  0  0  0
 24 25  1  0  0  0
M  END
> <minimizedAffinity>
-7.75677

$$$$
1FKH_SBX_A_108


 33 35  0  0  0  0  0  0  0  0999 V2000
  -28.3724   28.8086   44.1929 C   0  0  0  0  0  0  0  0  0  0  0  0
  -27.8916   28.2871   45.1915 O   0  0  0  0  0  0  0  0  0  0  0  0
  -27.8458   30.1500   43.6971 C   0  0  0  0  0  0  0  0  0  0  0  0
  -28.0912   30.2818   42.1981 C   0  0  0  0  0  0  0  0  0  0  0  0
  -27.1693   29.4030   41.3697 C   0  0  0  0  0  0  0  0  0  0  0  0
  -25.7547   29.8454   41.7316 C   0  0  0  0  0  0  0  0  0  0  0  0
  -25.4836   29.6349   43.2125 C   0  0  0  0  0  0  0  0  0  0  0  0
  -26.4393   30.5029   43.9084 N   0  0  0  0  0  0  0  0  0  0  0  0
  -26.1084   31.4307   44.8273 C   0  0  0  0  0  0  0  0  0  0  0  0
  -27.0128   31.9434   45.4882 O   0  0  0  0  0  0  0  0  0  0  0  0
  -24.7126   31.9829   45.0762 C   0  0  0  0  0  0  0  0  0  0  0  0
  -23.9647   31.2561   45.7329 O   0  0  0  0  0  0  0  0  0  0  0  0
  -24.1840   33.2794   44.4732 C   0  0  0  0  0  0  0  0  0  0  0  0
  -22.7879   33.0717   43.9793 C   0  0  0  0  0  0  0  0  0  0  0  0
  -23.9925   34.3546   45.5017 C   0  0  0  0  0  0  0  0  0  0  0  0
  -25.0356   33.8227   43.3341 C   0  0  0  0  0  0  0  0  0  0  0  0
  -24.6626   33.2883   41.9199 C   0  0  0  0  0  0  0  0  0  0  0  0
  -29.3514   28.3138   43.4450 O   0  0  0  0  0  0  0  0  0  0  0  0
  -30.0602   27.0948   43.8129 C   0  0  0  0  0  0  0  0  0  0  0  0
  -31.5249   27.4152   43.9869 C   0  0  0  0  0  0  0  0  0  0  0  0
  -32.1047   27.1679   45.3615 C   0  0  0  0  0  0  0  0  0  0  0  0
  -33.5924   27.2349   45.1991 C   0  0  0  0  0  0  0  0  0  0  0  0
  -34.0196   28.5912   44.6550 C   0  0  0  0  0  0  0  0  0  0  0  0
  -33.4037   28.9019   43.3071 C   0  0  0  0  0  0  0  0  0  0  0  0
  -31.8882   28.7940   43.4525 C   0  0  0  0  0  0  0  0  0  0  0  0
  -29.9162   26.0168   42.7496 C   0  0  0  0  0  0  0  0  0  0  0  0
  -28.5904   25.2684   42.8016 C   0  0  0  0  0  0  0  0  0  0  0  0
  -27.4402   25.7138   41.9310 C   0  0  0  0  0  0  0  0  0  0  0  0
  -26.2145   25.7743   42.4334 C   0  0  0  0  0  0  0  0  0  0  0  0
  -25.1749   26.0011   41.6521 C   0  0  0  0  0  0  0  0  0  0  0  0
  -25.3666   26.1776   40.3585 C   0  0  0  0  0  0  0  0  0  0  0  0
  -26.5863   26.1359   39.8566 C   0  0  0  0  0  0  0  0  0  0  0  0
  -27.6212   25.9068   40.6415 C   0  0  0  0  0  0  0  0  0  0  0  0
  1  3  1  0  0  0
  1  2  2  0  0  0
  1 18  1  0  0  0
  3  4  1  0  0  0
  3  8  1  0  0  0
  4  5  1  0  0  0
  5  6  1  0  0  0
  6  7  1  0  0  0
  7  8  1  0  0  0
  8  9  1  0  0  0
 18 19  1  0  0  0
  9 10  2  0  0  0
  9 11  1  0  0  0
 11 12  2  0  0  0
 11 13  1  0  0  0
 13 16  1  0  0  0
 13 14  1  0  0  0
 13 15  1  0  0  0
 16 17  1  0  0  0
 19 26  1  0  0  0
 19 20  1  0  0  0
 26 27  1  0  0  0
 27 28  1  0  0  0
 28 29  2  0  0  0
 28 33  1  0  0  0
 29 30  1  0  0  0
 30 31  2  0  0  0
 31 32  1  0  0  0
 32 33  2  0  0  0
 20 21  1  0  0  0
 20 25  1  0  0  0
 21 22  1  0  0  0
 22 23  1  0  0  0
 23 24  1  0  0  0
 24 25  1  0  0  0
M  END
> <minimizedAffinity>
-7.74206

$$$$
1FKH_SBX_A_108


 33 35  0  0  0  0  0  0  0  0999 V2000
  -25.0595   27.4281   43.0255 C   0  0  0  0  0  0  0  0  0  0  0  0
  -23.9244   27.2108   43.4313 O   0  0  0  0  0  0  0  0  0  0  0  0
  -25.9798   26.2699   42.6591 C   0  0  0  0  0  0  0  0  0  0  0  0
  -25.5458   25.6629   41.3295 C   0  0  0  0  0  0  0  0  0  0  0  0
  -25.8786   26.5477   40.1401 C   0  0  0  0  0  0  0  0  0  0  0  0
  -27.3921   26.7352   40.1857 C   0  0  0  0  0  0  0  0  0  0  0  0
  -27.8147   27.4171   41.4769 C   0  0  0  0  0  0  0  0  0  0  0  0
  -27.4236   26.4945   42.5480 N   0  0  0  0  0  0  0  0  0  0  0  0
  -28.2538   26.0220   43.4979 C   0  0  0  0  0  0  0  0  0  0  0  0
  -27.7612   25.4272   44.4576 O   0  0  0  0  0  0  0  0  0  0  0  0
  -29.7740   26.0739   43.4615 C   0  0  0  0  0  0  0  0  0  0  0  0
  -30.3183   25.1925   42.7939 O   0  0  0  0  0  0  0  0  0  0  0  0
  -30.6178   27.0480   44.2757 C   0  0  0  0  0  0  0  0  0  0  0  0
  -31.7605   26.3181   44.9063 C   0  0  0  0  0  0  0  0  0  0  0  0
  -31.3275   28.0510   43.4150 C   0  0  0  0  0  0  0  0  0  0  0  0
  -29.8404   27.7809   45.3604 C   0  0  0  0  0  0  0  0  0  0  0  0
  -30.0111   27.2043   46.7968 C   0  0  0  0  0  0  0  0  0  0  0  0
  -25.6176   28.6215   42.8612 O   0  0  0  0  0  0  0  0  0  0  0  0
  -25.0529   29.8242   43.4596 C   0  0  0  0  0  0  0  0  0  0  0  0
  -25.5117   31.0250   42.6682 C   0  0  0  0  0  0  0  0  0  0  0  0
  -24.7309   32.3027   42.8791 C   0  0  0  0  0  0  0  0  0  0  0  0
  -25.5550   33.3944   42.2682 C   0  0  0  0  0  0  0  0  0  0  0  0
  -25.7949   33.1314   40.7879 C   0  0  0  0  0  0  0  0  0  0  0  0
  -26.5171   31.8247   40.5348 C   0  0  0  0  0  0  0  0  0  0  0  0
  -25.7063   30.7107   41.1910 C   0  0  0  0  0  0  0  0  0  0  0  0
  -25.4914   29.9928   44.9062 C   0  0  0  0  0  0  0  0  0  0  0  0
  -26.9958   29.8763   45.1153 C   0  0  0  0  0  0  0  0  0  0  0  0
  -27.9141   30.9541   44.5914 C   0  0  0  0  0  0  0  0  0  0  0  0
  -27.8288   32.1873   45.0714 C   0  0  0  0  0  0  0  0  0  0  0  0
  -28.5040   33.1763   44.5159 C   0  0  0  0  0  0  0  0  0  0  0  0
  -29.2777   32.9254   43.4767 C   0  0  0  0  0  0  0  0  0  0  0  0
  -29.3794   31.6965   43.0065 C   0  0  0  0  0  0  0  0  0  0  0  0
  -28.7009   30.7126   43.5640 C   0  0  0  0  0  0  0  0  0  0  0  0
  1  3  1  0  0  0
  1  2  2  0  0  0
  1 18  1  0  0  0
  3  4  1  0  0  0
  3  8  1  0  0  0
  4  5  1  0  0  0
  5  6  1  0  0  0
  6  7  1  0  0  0
  7  8  1  0  0  0
  8  9  1  0  0  0
 18 19  1  0  0  0
  9 10  2  0  0  0
  9 11  1  0  0  0
 11 12  2  0  0  0
 11 13  1  0  0  0
 13 16  1  0  0  0
 13 14  1  0  0  0
 13 15  1  0  0  0
 16 17  1  0  0  0
 19 26  1  0  0  0
 19 20  1  0  0  0
 26 27  1  0  0  0
 27 28  1  0  0  0
 28 29  2  0  0  0
 28 33  1  0  0  0
 29 30  1  0  0  0
 30 31  2  0  0  0
 31 32  1  0  0  0
 32 33  2  0  0  0
 20 21  1  0  0  0
 20 25  1  0  0  0
 21 22  1  0  0  0
 22 23  1  0  0  0
 23 24  1  0  0  0
 24 25  1  0  0  0
M  END
> <minimizedAffinity>
-7.65926

$$$$
