4KAO_KAO_A_701


 34 37  0  0  0  0  0  0  0  0999 V2000
    3.4909  -10.8933   16.8426 N   0  0  0  0  0  0  0  0  0  0  0  0
    2.5099   -9.9242   16.8631 C   0  0  0  0  0  0  0  0  0  0  0  0
    1.5028  -10.0288   16.1768 O   0  0  0  0  0  0  0  0  0  0  0  0
    2.7534   -8.8678   17.6959 N   0  0  0  0  0  0  0  0  0  0  0  0
    4.1735  -10.8820   17.5519 H   0  0  0  0  0  0  0  0  0  0  0  0
    3.5741   -8.9085   18.2382 H   0  0  0  0  0  0  0  0  0  0  0  0
    1.9403   -7.7236   17.8529 C   0  0  0  0  0  0  0  0  0  0  0  0
    1.5955   -7.2589   19.1116 C   0  0  0  0  0  0  0  0  0  0  0  0
    0.7668   -6.1624   19.2434 C   0  0  0  0  0  0  0  0  0  0  0  0
    0.2581   -5.5007   18.1318 C   0  0  0  0  0  0  0  0  0  0  0  0
    0.6271   -5.9723   16.8776 C   0  0  0  0  0  0  0  0  0  0  0  0
    1.4552   -7.0661   16.7359 C   0  0  0  0  0  0  0  0  0  0  0  0
   -0.6762   -4.3620   18.2778 C   0  0  0  0  0  0  0  0  0  0  0  0
   -1.0792   -3.9174   19.5297 C   0  0  0  0  0  0  0  0  0  0  0  0
   -1.9865   -2.8881   19.6385 C   0  0  0  0  0  0  0  0  0  0  0  0
   -2.4731   -2.3189   18.4895 C   0  0  0  0  0  0  0  0  0  0  0  0
   -2.1073   -2.7098   17.2684 N   0  0  0  0  0  0  0  0  0  0  0  0
   -1.2250   -3.7103   17.1827 C   0  0  0  0  0  0  0  0  0  0  0  0
    4.4345  -12.9505   15.9138 N   0  0  0  0  0  0  0  0  0  0  0  0
    3.5645  -11.8776   15.8790 C   0  0  0  0  0  0  0  0  0  0  0  0
    2.8505  -12.0568   14.7241 C   0  0  0  0  0  0  0  0  0  0  0  0
    3.3241  -13.2298   14.1187 C   0  0  0  0  0  0  0  0  0  0  0  0
    4.2901  -13.7874   14.8289 N   0  0  0  0  0  0  0  0  0  0  0  0
    5.4114  -13.2735   16.8987 C   0  0  0  0  0  0  0  0  0  0  0  0
    6.7544  -13.3009   16.5693 C   0  0  0  0  0  0  0  0  0  0  0  0
    7.6931  -13.6503   17.5184 C   0  0  0  0  0  0  0  0  0  0  0  0
    7.3225  -13.9760   18.8119 C   0  0  0  0  0  0  0  0  0  0  0  0
    5.9754  -13.9358   19.1306 C   0  0  0  0  0  0  0  0  0  0  0  0
    5.0266  -13.5894   18.1899 C   0  0  0  0  0  0  0  0  0  0  0  0
    8.3522  -14.3709   19.8389 C   0  0  0  0  0  0  0  0  0  0  0  0
    2.8623  -13.8671   12.8206 C   0  0  0  0  0  0  0  0  0  0  0  0
    3.1391  -15.3669   12.8578 C   0  0  0  0  0  0  0  0  0  0  0  0
    1.3654  -13.6375   12.6386 C   0  0  0  0  0  0  0  0  0  0  0  0
    3.6122  -13.2470   11.6474 C   0  0  0  0  0  0  0  0  0  0  0  0
 33 31  1  0  0  0
 32 31  1  0  0  0
 34 31  1  0  0  0
 31 22  1  0  0  0
 22 21  1  0  0  0
 22 23  2  0  0  0
 21 20  2  0  0  0
 23 19  1  0  0  0
 20 19  1  0  0  0
 20  1  1  0  0  0
 19 24  1  0  0  0
  3  2  2  0  0  0
 25 24  2  0  0  0
 25 26  1  0  0  0
 12 11  2  0  0  0
 12  7  1  0  0  0
  1  2  1  0  0  0
  2  4  1  0  0  0
 11 10  1  0  0  0
 24 29  1  0  0  0
 18 17  2  0  0  0
 18 13  1  0  0  0
 17 16  1  0  0  0
  4  7  1  0  0  0
 26 27  2  0  0  0
  7  8  2  0  0  0
 10 13  1  0  0  0
 10  9  2  0  0  0
 29 28  2  0  0  0
 13 14  2  0  0  0
 16 15  2  0  0  0
 27 28  1  0  0  0
 27 30  1  0  0  0
  8  9  1  0  0  0
 14 15  1  0  0  0
  1  5  1  0  0  0
  4  6  1  0  0  0
M  END
> <minimizedAffinity>
-11.92787

$$$$
4KAO_KAO_A_701


 34 37  0  0  0  0  0  0  0  0999 V2000
    1.7247   -6.7668   18.0790 N   0  0  0  0  0  0  0  0  0  0  0  0
    1.5256   -7.7275   17.1098 C   0  0  0  0  0  0  0  0  0  0  0  0
    0.5003   -7.7505   16.4431 O   0  0  0  0  0  0  0  0  0  0  0  0
    2.5463   -8.6247   16.9619 N   0  0  0  0  0  0  0  0  0  0  0  0
    2.6324   -6.6510   18.4422 H   0  0  0  0  0  0  0  0  0  0  0  0
    3.3461   -8.4848   17.5186 H   0  0  0  0  0  0  0  0  0  0  0  0
    2.5634   -9.7333   16.0867 C   0  0  0  0  0  0  0  0  0  0  0  0
    3.1728  -10.9227   16.4516 C   0  0  0  0  0  0  0  0  0  0  0  0
    3.2138  -11.9813   15.5663 C   0  0  0  0  0  0  0  0  0  0  0  0
    2.6538  -11.8871   14.2975 C   0  0  0  0  0  0  0  0  0  0  0  0
    2.0338  -10.6913   13.9550 C   0  0  0  0  0  0  0  0  0  0  0  0
    1.9870   -9.6286   14.8329 C   0  0  0  0  0  0  0  0  0  0  0  0
    2.7511  -13.0040   13.3310 C   0  0  0  0  0  0  0  0  0  0  0  0
    1.6283  -13.4854   12.6717 C   0  0  0  0  0  0  0  0  0  0  0  0
    1.7365  -14.5567   11.8143 C   0  0  0  0  0  0  0  0  0  0  0  0
    2.9704  -15.1264   11.6295 C   0  0  0  0  0  0  0  0  0  0  0  0
    4.0748  -14.6910   12.2363 N   0  0  0  0  0  0  0  0  0  0  0  0
    3.9501  -13.6495   13.0648 C   0  0  0  0  0  0  0  0  0  0  0  0
    0.1882   -6.0415   19.8392 N   0  0  0  0  0  0  0  0  0  0  0  0
    0.7172   -5.9598   18.5654 C   0  0  0  0  0  0  0  0  0  0  0  0
    0.0270   -4.9341   17.9762 C   0  0  0  0  0  0  0  0  0  0  0  0
   -0.8845   -4.4464   18.9238 C   0  0  0  0  0  0  0  0  0  0  0  0
   -0.8013   -5.1097   20.0647 N   0  0  0  0  0  0  0  0  0  0  0  0
    0.5372   -6.9338   20.8930 C   0  0  0  0  0  0  0  0  0  0  0  0
    1.5722   -7.8368   20.7312 C   0  0  0  0  0  0  0  0  0  0  0  0
    1.8819   -8.7236   21.7419 C   0  0  0  0  0  0  0  0  0  0  0  0
    1.1765   -8.7326   22.9331 C   0  0  0  0  0  0  0  0  0  0  0  0
    0.1486   -7.8173   23.0854 C   0  0  0  0  0  0  0  0  0  0  0  0
   -0.1720   -6.9261   22.0813 C   0  0  0  0  0  0  0  0  0  0  0  0
    1.5110   -9.7141   24.0267 C   0  0  0  0  0  0  0  0  0  0  0  0
   -1.8817   -3.3122   18.7684 C   0  0  0  0  0  0  0  0  0  0  0  0
   -1.5531   -2.2000   19.7595 C   0  0  0  0  0  0  0  0  0  0  0  0
   -1.8120   -2.7566   17.3495 C   0  0  0  0  0  0  0  0  0  0  0  0
   -3.2912   -3.8254   19.0386 C   0  0  0  0  0  0  0  0  0  0  0  0
 33 31  1  0  0  0
 32 31  1  0  0  0
 34 31  1  0  0  0
 31 22  1  0  0  0
 22 21  1  0  0  0
 22 23  2  0  0  0
 21 20  2  0  0  0
 23 19  1  0  0  0
 20 19  1  0  0  0
 20  1  1  0  0  0
 19 24  1  0  0  0
  3  2  2  0  0  0
 25 24  2  0  0  0
 25 26  1  0  0  0
 12 11  2  0  0  0
 12  7  1  0  0  0
  1  2  1  0  0  0
  2  4  1  0  0  0
 11 10  1  0  0  0
 24 29  1  0  0  0
 18 17  2  0  0  0
 18 13  1  0  0  0
 17 16  1  0  0  0
  4  7  1  0  0  0
 26 27  2  0  0  0
  7  8  2  0  0  0
 10 13  1  0  0  0
 10  9  2  0  0  0
 29 28  2  0  0  0
 13 14  2  0  0  0
 16 15  2  0  0  0
 27 28  1  0  0  0
 27 30  1  0  0  0
  8  9  1  0  0  0
 14 15  1  0  0  0
  1  5  1  0  0  0
  4  6  1  0  0  0
M  END
> <minimizedAffinity>
-9.93027

$$$$
