4MC2_525_A_101


 40 43  0  0  0  0  0  0  0  0999 V2000
   14.3380   23.3970    5.0285 C   0  0  0  0  0  0  0  0  0  0  0  0
   15.3781   24.2135    4.5393 O   0  0  0  0  0  0  0  0  0  0  0  0
   15.7636   24.7195    5.2716 H   0  0  0  0  0  0  0  0  0  0  0  0
   13.2528   24.3015    5.5743 C   0  0  0  0  0  0  0  0  0  0  0  0
    9.9042   26.9917    8.5728 C   0  0  0  0  0  0  0  0  0  0  0  0
    8.9914   27.3695    7.6080 C   0  0  0  0  0  0  0  0  0  0  0  0
    8.7500   26.5702    6.5087 C   0  0  0  0  0  0  0  0  0  0  0  0
    9.4397   25.3802    6.3438 C   0  0  0  0  0  0  0  0  0  0  0  0
   10.3481   25.0074    7.3288 C   0  0  0  0  0  0  0  0  0  0  0  0
   10.5831   25.7975    8.4354 C   0  0  0  0  0  0  0  0  0  0  0  0
    9.1084   24.5391    5.1436 C   0  0  0  0  0  0  0  0  0  0  0  0
   10.2154   24.3981    4.1018 C   0  0  0  0  0  0  0  0  0  0  0  0
   11.1924   23.2858    4.4786 C   0  0  0  0  0  0  0  0  0  0  0  0
   11.9726   23.5942    5.6932 N   0  0  0  0  0  0  0  0  0  0  0  0
   11.2502   23.4735    7.2206 S   0  0  0  0  0  0  0  0  0  0  0  0
   12.2570   23.4148    8.2535 O   0  0  0  0  0  0  0  0  0  0  0  0
   10.2237   22.4509    7.1334 O   0  0  0  0  0  0  0  0  0  0  0  0
    8.3436   28.5392    7.7548 F   0  0  0  0  0  0  0  0  0  0  0  0
    9.6893   24.1833    2.6766 C   0  0  0  0  0  0  0  0  0  0  0  0
    8.7684   25.2938    2.2311 C   0  0  0  0  0  0  0  0  0  0  0  0
    8.9250   22.8783    2.5228 C   0  0  0  0  0  0  0  0  0  0  0  0
   10.8429   24.1929    1.6961 C   0  0  0  0  0  0  0  0  0  0  0  0
   14.8982   22.3506    5.9812 C   0  0  0  0  0  0  0  0  0  0  0  0
   15.8192   21.5301    5.2314 N   0  0  0  0  0  0  0  0  0  0  0  0
   15.5862   20.1925    5.0077 C   0  0  0  0  0  0  0  0  0  0  0  0
   14.5879   19.5777    5.3730 O   0  0  0  0  0  0  0  0  0  0  0  0
   16.6381   21.9395    4.8694 H   0  0  0  0  0  0  0  0  0  0  0  0
   16.6742   19.6699    4.3493 O   0  0  0  0  0  0  0  0  0  0  0  0
   16.7169   18.2515    4.2130 C   0  0  0  0  0  0  0  0  0  0  0  0
   18.1846   17.9174    4.0533 C   0  0  0  0  0  0  0  0  0  0  0  0
   16.0932   17.8853    2.8880 C   0  0  0  0  0  0  0  0  0  0  0  0
   18.4292   17.9697    2.6525 O   0  0  0  0  0  0  0  0  0  0  0  0
   17.2588   17.4507    2.0410 C   0  0  0  0  0  0  0  0  0  0  0  0
   15.5612   22.9029    7.2390 C   0  0  0  0  0  0  0  0  0  0  0  0
   15.9720   21.8004    8.1574 C   0  0  0  0  0  0  0  0  0  0  0  0
   17.3140   21.5188    8.3323 C   0  0  0  0  0  0  0  0  0  0  0  0
   17.7035   20.4876    9.1663 C   0  0  0  0  0  0  0  0  0  0  0  0
   16.7503   19.7301    9.8167 C   0  0  0  0  0  0  0  0  0  0  0  0
   15.4095   20.0128    9.6471 C   0  0  0  0  0  0  0  0  0  0  0  0
   15.0177   21.0504    8.8223 C   0  0  0  0  0  0  0  0  0  0  0  0
 33 32  1  0  0  0
 33 31  1  0  0  0
 22 19  1  0  0  0
 32 30  1  0  0  0
 20 19  1  0  0  0
 31 29  1  0  0  0
 21 19  1  0  0  0
 19 12  1  0  0  0
 30 29  1  0  0  0
 29 28  1  0  0  0
 12 13  1  0  0  0
 12 11  1  0  0  0
 28 25  1  0  0  0
 13 14  1  0  0  0
  2  1  1  0  0  0
 25 26  2  0  0  0
 25 24  1  0  0  0
  1  4  1  0  0  0
  1 23  1  0  0  0
 11  8  1  0  0  0
 24 23  1  0  0  0
  4 14  1  0  0  0
 14 15  1  0  0  0
 23 34  1  0  0  0
  8  7  2  0  0  0
  8  9  1  0  0  0
  7  6  1  0  0  0
 17 15  2  0  0  0
 15  9  1  0  0  0
 15 16  2  0  0  0
 34 35  1  0  0  0
  9 10  2  0  0  0
  6 18  1  0  0  0
  6  5  2  0  0  0
 35 36  2  0  0  0
 35 40  1  0  0  0
 36 37  1  0  0  0
 10  5  1  0  0  0
 40 39  2  0  0  0
 37 38  2  0  0  0
 39 38  1  0  0  0
  2  3  1  0  0  0
 24 27  1  0  0  0
M  END
> <minimizedAffinity>
-11.41675

$$$$
4MC2_525_A_101


 40 43  0  0  0  0  0  0  0  0999 V2000
   12.9476   24.4090    4.8906 C   0  0  0  0  0  0  0  0  0  0  0  0
   13.5233   25.6068    4.4196 O   0  0  0  0  0  0  0  0  0  0  0  0
   13.5463   25.5950    3.4500 H   0  0  0  0  0  0  0  0  0  0  0  0
   13.8465   23.2640    4.4729 C   0  0  0  0  0  0  0  0  0  0  0  0
   15.8028   18.9855    2.1688 C   0  0  0  0  0  0  0  0  0  0  0  0
   16.8516   18.7262    3.0286 C   0  0  0  0  0  0  0  0  0  0  0  0
   16.7673   19.0505    4.3678 C   0  0  0  0  0  0  0  0  0  0  0  0
   15.6313   19.6648    4.8688 C   0  0  0  0  0  0  0  0  0  0  0  0
   14.5789   19.9102    3.9933 C   0  0  0  0  0  0  0  0  0  0  0  0
   14.6543   19.5761    2.6565 C   0  0  0  0  0  0  0  0  0  0  0  0
   15.5874   19.9627    6.3409 C   0  0  0  0  0  0  0  0  0  0  0  0
   15.5842   21.4409    6.7225 C   0  0  0  0  0  0  0  0  0  0  0  0
   14.1728   22.0233    6.6710 C   0  0  0  0  0  0  0  0  0  0  0  0
   13.6225   22.0743    5.3022 N   0  0  0  0  0  0  0  0  0  0  0  0
   13.0628   20.6592    4.5581 S   0  0  0  0  0  0  0  0  0  0  0  0
   12.2171   20.9794    3.4329 O   0  0  0  0  0  0  0  0  0  0  0  0
   12.5885   19.7772    5.6089 O   0  0  0  0  0  0  0  0  0  0  0  0
   17.9654   18.1559    2.5350 F   0  0  0  0  0  0  0  0  0  0  0  0
   16.2253   21.7207    8.0880 C   0  0  0  0  0  0  0  0  0  0  0  0
   17.6879   21.3479    8.1229 C   0  0  0  0  0  0  0  0  0  0  0  0
   15.5444   20.9707    9.2216 C   0  0  0  0  0  0  0  0  0  0  0  0
   16.1760   23.2046    8.3844 C   0  0  0  0  0  0  0  0  0  0  0  0
   11.4900   24.3248    4.4608 C   0  0  0  0  0  0  0  0  0  0  0  0
   10.7979   25.4447    5.0528 N   0  0  0  0  0  0  0  0  0  0  0  0
    9.7899   25.2731    5.9737 C   0  0  0  0  0  0  0  0  0  0  0  0
    9.4061   24.1908    6.4088 O   0  0  0  0  0  0  0  0  0  0  0  0
   11.0545   26.3581    4.7900 H   0  0  0  0  0  0  0  0  0  0  0  0
    9.2719   26.5092    6.2808 O   0  0  0  0  0  0  0  0  0  0  0  0
    8.1577   26.5312    7.1698 C   0  0  0  0  0  0  0  0  0  0  0  0
    7.4507   27.8378    6.8792 C   0  0  0  0  0  0  0  0  0  0  0  0
    8.6800   26.6820    8.5781 C   0  0  0  0  0  0  0  0  0  0  0  0
    8.0509   28.7890    7.7509 O   0  0  0  0  0  0  0  0  0  0  0  0
    8.3098   28.0903    8.9583 C   0  0  0  0  0  0  0  0  0  0  0  0
   11.2565   24.2754    2.9542 C   0  0  0  0  0  0  0  0  0  0  0  0
    9.8118   24.0691    2.6415 C   0  0  0  0  0  0  0  0  0  0  0  0
    9.0806   25.0955    2.0734 C   0  0  0  0  0  0  0  0  0  0  0  0
    7.7375   24.9203    1.7975 C   0  0  0  0  0  0  0  0  0  0  0  0
    7.1225   23.7222    2.1003 C   0  0  0  0  0  0  0  0  0  0  0  0
    7.8522   22.6941    2.6634 C   0  0  0  0  0  0  0  0  0  0  0  0
    9.1978   22.8629    2.9302 C   0  0  0  0  0  0  0  0  0  0  0  0
 33 32  1  0  0  0
 33 31  1  0  0  0
 22 19  1  0  0  0
 32 30  1  0  0  0
 20 19  1  0  0  0
 31 29  1  0  0  0
 21 19  1  0  0  0
 19 12  1  0  0  0
 30 29  1  0  0  0
 29 28  1  0  0  0
 12 13  1  0  0  0
 12 11  1  0  0  0
 28 25  1  0  0  0
 13 14  1  0  0  0
  2  1  1  0  0  0
 25 26  2  0  0  0
 25 24  1  0  0  0
  1  4  1  0  0  0
  1 23  1  0  0  0
 11  8  1  0  0  0
 24 23  1  0  0  0
  4 14  1  0  0  0
 14 15  1  0  0  0
 23 34  1  0  0  0
  8  7  2  0  0  0
  8  9  1  0  0  0
  7  6  1  0  0  0
 17 15  2  0  0  0
 15  9  1  0  0  0
 15 16  2  0  0  0
 34 35  1  0  0  0
  9 10  2  0  0  0
  6 18  1  0  0  0
  6  5  2  0  0  0
 35 36  2  0  0  0
 35 40  1  0  0  0
 36 37  1  0  0  0
 10  5  1  0  0  0
 40 39  2  0  0  0
 37 38  2  0  0  0
 39 38  1  0  0  0
  2  3  1  0  0  0
 24 27  1  0  0  0
M  END
> <minimizedAffinity>
-11.18782

$$$$
4MC2_525_A_101


 40 43  0  0  0  0  0  0  0  0999 V2000
   10.9824   22.6524    4.4479 C   0  0  0  0  0  0  0  0  0  0  0  0
   10.0804   21.7734    3.8141 O   0  0  0  0  0  0  0  0  0  0  0  0
    9.6419   21.2232    4.4818 H   0  0  0  0  0  0  0  0  0  0  0  0
   12.0522   21.8176    5.1202 C   0  0  0  0  0  0  0  0  0  0  0  0
   15.5654   22.1549    8.9913 C   0  0  0  0  0  0  0  0  0  0  0  0
   16.3086   21.0231    8.7203 C   0  0  0  0  0  0  0  0  0  0  0  0
   16.4581   20.5662    7.4263 C   0  0  0  0  0  0  0  0  0  0  0  0
   15.8432   21.2269    6.3755 C   0  0  0  0  0  0  0  0  0  0  0  0
   15.1067   22.3713    6.6623 C   0  0  0  0  0  0  0  0  0  0  0  0
   14.9652   22.8385    7.9529 C   0  0  0  0  0  0  0  0  0  0  0  0
   16.0710   20.6995    4.9871 C   0  0  0  0  0  0  0  0  0  0  0  0
   14.8469   20.1153    4.2863 C   0  0  0  0  0  0  0  0  0  0  0  0
   14.0155   21.2097    3.6192 C   0  0  0  0  0  0  0  0  0  0  0  0
   13.3859   22.1251    4.5911 N   0  0  0  0  0  0  0  0  0  0  0  0
   14.3152   23.3088    5.3687 S   0  0  0  0  0  0  0  0  0  0  0  0
   13.4645   24.3253    5.9406 O   0  0  0  0  0  0  0  0  0  0  0  0
   15.3939   23.6720    4.4679 O   0  0  0  0  0  0  0  0  0  0  0  0
   16.8812   20.3660    9.7449 F   0  0  0  0  0  0  0  0  0  0  0  0
   15.1900   19.0158    3.2726 C   0  0  0  0  0  0  0  0  0  0  0  0
   16.6794   18.8347    3.1042 C   0  0  0  0  0  0  0  0  0  0  0  0
   14.6125   19.2877    1.8929 C   0  0  0  0  0  0  0  0  0  0  0  0
   14.6707   17.6820    3.7659 C   0  0  0  0  0  0  0  0  0  0  0  0
   10.2241   23.6319    5.3323 C   0  0  0  0  0  0  0  0  0  0  0  0
    8.9454   23.8784    4.7094 N   0  0  0  0  0  0  0  0  0  0  0  0
    8.4684   25.1531    4.5063 C   0  0  0  0  0  0  0  0  0  0  0  0
    9.0702   26.1864    4.7856 O   0  0  0  0  0  0  0  0  0  0  0  0
    8.3986   23.1121    4.4214 H   0  0  0  0  0  0  0  0  0  0  0  0
    7.2007   25.0601    3.9819 O   0  0  0  0  0  0  0  0  0  0  0  0
    6.9716   24.0065    3.0496 C   0  0  0  0  0  0  0  0  0  0  0  0
    7.0969   24.6547    1.6874 C   0  0  0  0  0  0  0  0  0  0  0  0
    5.5222   23.5959    3.1476 C   0  0  0  0  0  0  0  0  0  0  0  0
    5.7857   25.1040    1.3655 O   0  0  0  0  0  0  0  0  0  0  0  0
    4.9069   24.1137    1.8754 C   0  0  0  0  0  0  0  0  0  0  0  0
   10.0477   23.1975    6.7838 C   0  0  0  0  0  0  0  0  0  0  0  0
    9.9593   24.3795    7.6908 C   0  0  0  0  0  0  0  0  0  0  0  0
    8.7329   24.7600    8.2027 C   0  0  0  0  0  0  0  0  0  0  0  0
    8.6383   25.8644    9.0285 C   0  0  0  0  0  0  0  0  0  0  0  0
    9.7687   26.5957    9.3333 C   0  0  0  0  0  0  0  0  0  0  0  0
   10.9954   26.2146    8.8268 C   0  0  0  0  0  0  0  0  0  0  0  0
   11.0944   25.1042    8.0097 C   0  0  0  0  0  0  0  0  0  0  0  0
 33 32  1  0  0  0
 33 31  1  0  0  0
 22 19  1  0  0  0
 32 30  1  0  0  0
 20 19  1  0  0  0
 31 29  1  0  0  0
 21 19  1  0  0  0
 19 12  1  0  0  0
 30 29  1  0  0  0
 29 28  1  0  0  0
 12 13  1  0  0  0
 12 11  1  0  0  0
 28 25  1  0  0  0
 13 14  1  0  0  0
  2  1  1  0  0  0
 25 26  2  0  0  0
 25 24  1  0  0  0
  1  4  1  0  0  0
  1 23  1  0  0  0
 11  8  1  0  0  0
 24 23  1  0  0  0
  4 14  1  0  0  0
 14 15  1  0  0  0
 23 34  1  0  0  0
  8  7  2  0  0  0
  8  9  1  0  0  0
  7  6  1  0  0  0
 17 15  2  0  0  0
 15  9  1  0  0  0
 15 16  2  0  0  0
 34 35  1  0  0  0
  9 10  2  0  0  0
  6 18  1  0  0  0
  6  5  2  0  0  0
 35 36  2  0  0  0
 35 40  1  0  0  0
 36 37  1  0  0  0
 10  5  1  0  0  0
 40 39  2  0  0  0
 37 38  2  0  0  0
 39 38  1  0  0  0
  2  3  1  0  0  0
 24 27  1  0  0  0
M  END
> <minimizedAffinity>
-10.88861

$$$$
4MC2_525_A_101


 40 43  0  0  0  0  0  0  0  0999 V2000
   14.2085   23.4045    4.4990 C   0  0  0  0  0  0  0  0  0  0  0  0
   15.3963   24.1523    4.3655 O   0  0  0  0  0  0  0  0  0  0  0  0
   15.9190   24.0770    5.1791 H   0  0  0  0  0  0  0  0  0  0  0  0
   13.3944   24.0187    5.6186 C   0  0  0  0  0  0  0  0  0  0  0  0
   10.2695   26.7606    8.8059 C   0  0  0  0  0  0  0  0  0  0  0  0
    9.3560   27.2254    7.8806 C   0  0  0  0  0  0  0  0  0  0  0  0
    9.0453   26.4854    6.7574 C   0  0  0  0  0  0  0  0  0  0  0  0
    9.6650   25.2679    6.5283 C   0  0  0  0  0  0  0  0  0  0  0  0
   10.5749   24.8074    7.4741 C   0  0  0  0  0  0  0  0  0  0  0  0
   10.8788   25.5383    8.6044 C   0  0  0  0  0  0  0  0  0  0  0  0
    9.2600   24.4949    5.3051 C   0  0  0  0  0  0  0  0  0  0  0  0
   10.3326   24.3372    4.2302 C   0  0  0  0  0  0  0  0  0  0  0  0
   11.2562   23.1599    4.5378 C   0  0  0  0  0  0  0  0  0  0  0  0
   12.0807   23.3767    5.7429 N   0  0  0  0  0  0  0  0  0  0  0  0
   11.3893   23.2331    7.2826 S   0  0  0  0  0  0  0  0  0  0  0  0
   12.4156   23.0788    8.2860 O   0  0  0  0  0  0  0  0  0  0  0  0
   10.3068   22.2712    7.1821 O   0  0  0  0  0  0  0  0  0  0  0  0
    8.7766   28.4213    8.0898 F   0  0  0  0  0  0  0  0  0  0  0  0
    9.7619   24.2088    2.8118 C   0  0  0  0  0  0  0  0  0  0  0  0
    8.8488   25.3568    2.4542 C   0  0  0  0  0  0  0  0  0  0  0  0
    8.9700   22.9268    2.6110 C   0  0  0  0  0  0  0  0  0  0  0  0
   10.8868   24.2524    1.7995 C   0  0  0  0  0  0  0  0  0  0  0  0
   14.5343   21.9231    4.6246 C   0  0  0  0  0  0  0  0  0  0  0  0
   14.4510   21.5777    6.0236 N   0  0  0  0  0  0  0  0  0  0  0  0
   15.4483   20.8755    6.6607 C   0  0  0  0  0  0  0  0  0  0  0  0
   16.4994   20.5109    6.1409 O   0  0  0  0  0  0  0  0  0  0  0  0
   13.6573   21.8527    6.5372 H   0  0  0  0  0  0  0  0  0  0  0  0
   15.0423   20.6245    7.9501 O   0  0  0  0  0  0  0  0  0  0  0  0
   16.0494   20.6761    8.9577 C   0  0  0  0  0  0  0  0  0  0  0  0
   15.3847   20.1321   10.2041 C   0  0  0  0  0  0  0  0  0  0  0  0
   16.3285   22.1258    9.2728 C   0  0  0  0  0  0  0  0  0  0  0  0
   14.8107   21.2649   10.8460 O   0  0  0  0  0  0  0  0  0  0  0  0
   15.7283   22.3270   10.6382 C   0  0  0  0  0  0  0  0  0  0  0  0
   13.6691   20.9918    3.7816 C   0  0  0  0  0  0  0  0  0  0  0  0
   14.4426   19.7944    3.3393 C   0  0  0  0  0  0  0  0  0  0  0  0
   15.1751   19.8463    2.1681 C   0  0  0  0  0  0  0  0  0  0  0  0
   15.8795   18.7366    1.7407 C   0  0  0  0  0  0  0  0  0  0  0  0
   15.8423   17.5706    2.4786 C   0  0  0  0  0  0  0  0  0  0  0  0
   15.1152   17.5181    3.6512 C   0  0  0  0  0  0  0  0  0  0  0  0
   14.4188   18.6298    4.0865 C   0  0  0  0  0  0  0  0  0  0  0  0
 33 32  1  0  0  0
 33 31  1  0  0  0
 22 19  1  0  0  0
 32 30  1  0  0  0
 20 19  1  0  0  0
 31 29  1  0  0  0
 21 19  1  0  0  0
 19 12  1  0  0  0
 30 29  1  0  0  0
 29 28  1  0  0  0
 12 13  1  0  0  0
 12 11  1  0  0  0
 28 25  1  0  0  0
 13 14  1  0  0  0
  2  1  1  0  0  0
 25 26  2  0  0  0
 25 24  1  0  0  0
  1  4  1  0  0  0
  1 23  1  0  0  0
 11  8  1  0  0  0
 24 23  1  0  0  0
  4 14  1  0  0  0
 14 15  1  0  0  0
 23 34  1  0  0  0
  8  7  2  0  0  0
  8  9  1  0  0  0
  7  6  1  0  0  0
 17 15  2  0  0  0
 15  9  1  0  0  0
 15 16  2  0  0  0
 34 35  1  0  0  0
  9 10  2  0  0  0
  6 18  1  0  0  0
  6  5  2  0  0  0
 35 36  2  0  0  0
 35 40  1  0  0  0
 36 37  1  0  0  0
 10  5  1  0  0  0
 40 39  2  0  0  0
 37 38  2  0  0  0
 39 38  1  0  0  0
  2  3  1  0  0  0
 24 27  1  0  0  0
M  END
> <minimizedAffinity>
-10.85740

$$$$
4MC2_525_A_101


 40 43  0  0  0  0  0  0  0  0999 V2000
   12.8561   24.6952    5.5048 C   0  0  0  0  0  0  0  0  0  0  0  0
   13.3728   25.7515    4.7268 O   0  0  0  0  0  0  0  0  0  0  0  0
   12.7993   25.8975    3.9582 H   0  0  0  0  0  0  0  0  0  0  0  0
   12.8949   23.4355    4.6651 C   0  0  0  0  0  0  0  0  0  0  0  0
   15.0319   19.3585    2.1645 C   0  0  0  0  0  0  0  0  0  0  0  0
   16.1721   19.1992    2.9268 C   0  0  0  0  0  0  0  0  0  0  0  0
   16.1762   19.5147    4.2708 C   0  0  0  0  0  0  0  0  0  0  0  0
   15.0364   20.0199    4.8744 C   0  0  0  0  0  0  0  0  0  0  0  0
   13.8925   20.1651    4.0966 C   0  0  0  0  0  0  0  0  0  0  0  0
   13.8807   19.8390    2.7559 C   0  0  0  0  0  0  0  0  0  0  0  0
   15.0948   20.3129    6.3469 C   0  0  0  0  0  0  0  0  0  0  0  0
   14.9870   21.7845    6.7390 C   0  0  0  0  0  0  0  0  0  0  0  0
   13.5283   22.2318    6.8162 C   0  0  0  0  0  0  0  0  0  0  0  0
   12.8570   22.2304    5.5015 N   0  0  0  0  0  0  0  0  0  0  0  0
   12.3688   20.7687    4.7984 S   0  0  0  0  0  0  0  0  0  0  0  0
   11.4009   21.0076    3.7544 O   0  0  0  0  0  0  0  0  0  0  0  0
   12.0735   19.8465    5.8797 O   0  0  0  0  0  0  0  0  0  0  0  0
   17.2864   18.7357    2.3328 F   0  0  0  0  0  0  0  0  0  0  0  0
   15.7170   22.1238    8.0451 C   0  0  0  0  0  0  0  0  0  0  0  0
   17.0566   21.4353    8.1497 C   0  0  0  0  0  0  0  0  0  0  0  0
   14.9187   21.7413    9.2809 C   0  0  0  0  0  0  0  0  0  0  0  0
   16.0163   23.6071    8.0960 C   0  0  0  0  0  0  0  0  0  0  0  0
   11.5055   25.0866    6.0872 C   0  0  0  0  0  0  0  0  0  0  0  0
   10.4886   24.4136    5.3148 N   0  0  0  0  0  0  0  0  0  0  0  0
    9.3931   25.0803    4.8157 C   0  0  0  0  0  0  0  0  0  0  0  0
    9.1843   26.2847    4.9331 O   0  0  0  0  0  0  0  0  0  0  0  0
   10.5815   23.4492    5.1399 H   0  0  0  0  0  0  0  0  0  0  0  0
    8.5693   24.1618    4.2090 O   0  0  0  0  0  0  0  0  0  0  0  0
    8.7058   24.0164    2.7976 C   0  0  0  0  0  0  0  0  0  0  0  0
    8.2875   25.3533    2.2239 C   0  0  0  0  0  0  0  0  0  0  0  0
    7.6529   23.0465    2.3185 C   0  0  0  0  0  0  0  0  0  0  0  0
    6.8849   25.2452    2.0093 O   0  0  0  0  0  0  0  0  0  0  0  0
    6.6662   23.9106    1.5804 C   0  0  0  0  0  0  0  0  0  0  0  0
   11.3321   24.8066    7.5766 C   0  0  0  0  0  0  0  0  0  0  0  0
   10.2149   25.6146    8.1481 C   0  0  0  0  0  0  0  0  0  0  0  0
    8.9630   25.0465    8.2930 C   0  0  0  0  0  0  0  0  0  0  0  0
    7.9176   25.7926    8.8038 C   0  0  0  0  0  0  0  0  0  0  0  0
    8.1210   27.1109    9.1592 C   0  0  0  0  0  0  0  0  0  0  0  0
    9.3718   27.6788    9.0197 C   0  0  0  0  0  0  0  0  0  0  0  0
   10.4215   26.9317    8.5194 C   0  0  0  0  0  0  0  0  0  0  0  0
 33 32  1  0  0  0
 33 31  1  0  0  0
 22 19  1  0  0  0
 32 30  1  0  0  0
 20 19  1  0  0  0
 31 29  1  0  0  0
 21 19  1  0  0  0
 19 12  1  0  0  0
 30 29  1  0  0  0
 29 28  1  0  0  0
 12 13  1  0  0  0
 12 11  1  0  0  0
 28 25  1  0  0  0
 13 14  1  0  0  0
  2  1  1  0  0  0
 25 26  2  0  0  0
 25 24  1  0  0  0
  1  4  1  0  0  0
  1 23  1  0  0  0
 11  8  1  0  0  0
 24 23  1  0  0  0
  4 14  1  0  0  0
 14 15  1  0  0  0
 23 34  1  0  0  0
  8  7  2  0  0  0
  8  9  1  0  0  0
  7  6  1  0  0  0
 17 15  2  0  0  0
 15  9  1  0  0  0
 15 16  2  0  0  0
 34 35  1  0  0  0
  9 10  2  0  0  0
  6 18  1  0  0  0
  6  5  2  0  0  0
 35 36  2  0  0  0
 35 40  1  0  0  0
 36 37  1  0  0  0
 10  5  1  0  0  0
 40 39  2  0  0  0
 37 38  2  0  0  0
 39 38  1  0  0  0
  2  3  1  0  0  0
 24 27  1  0  0  0
M  END
> <minimizedAffinity>
-10.76577

$$$$
4MC2_525_A_101


 40 43  0  0  0  0  0  0  0  0999 V2000
   15.3996   22.8409    7.3916 C   0  0  0  0  0  0  0  0  0  0  0  0
   16.0251   23.7849    8.2315 O   0  0  0  0  0  0  0  0  0  0  0  0
   15.7875   23.6042    9.1544 H   0  0  0  0  0  0  0  0  0  0  0  0
   13.9017   23.0251    7.5177 C   0  0  0  0  0  0  0  0  0  0  0  0
   11.6791   21.2492    3.1190 C   0  0  0  0  0  0  0  0  0  0  0  0
   10.3655   21.5869    3.3782 C   0  0  0  0  0  0  0  0  0  0  0  0
   10.0556   22.6940    4.1423 C   0  0  0  0  0  0  0  0  0  0  0  0
   11.0635   23.4757    4.6826 C   0  0  0  0  0  0  0  0  0  0  0  0
   12.3815   23.1297    4.4044 C   0  0  0  0  0  0  0  0  0  0  0  0
   12.6954   22.0311    3.6307 C   0  0  0  0  0  0  0  0  0  0  0  0
   10.6616   24.6858    5.4775 C   0  0  0  0  0  0  0  0  0  0  0  0
   10.9894   24.6438    6.9680 C   0  0  0  0  0  0  0  0  0  0  0  0
   12.4294   25.0811    7.2310 C   0  0  0  0  0  0  0  0  0  0  0  0
   13.4247   24.1366    6.6869 N   0  0  0  0  0  0  0  0  0  0  0  0
   13.7420   24.1016    5.0233 S   0  0  0  0  0  0  0  0  0  0  0  0
   14.9927   23.4303    4.7606 O   0  0  0  0  0  0  0  0  0  0  0  0
   13.5008   25.4375    4.5093 O   0  0  0  0  0  0  0  0  0  0  0  0
    9.3883   20.8103    2.8769 F   0  0  0  0  0  0  0  0  0  0  0  0
   10.0193   25.4620    7.8302 C   0  0  0  0  0  0  0  0  0  0  0  0
    9.2922   26.5174    7.0322 C   0  0  0  0  0  0  0  0  0  0  0  0
   10.7121   26.1700    8.9834 C   0  0  0  0  0  0  0  0  0  0  0  0
    8.9406   24.5582    8.3885 C   0  0  0  0  0  0  0  0  0  0  0  0
   15.9428   21.4477    7.6748 C   0  0  0  0  0  0  0  0  0  0  0  0
   16.5243   20.9516    6.4504 N   0  0  0  0  0  0  0  0  0  0  0  0
   15.8050   20.1874    5.5603 C   0  0  0  0  0  0  0  0  0  0  0  0
   14.6212   19.8851    5.6831 O   0  0  0  0  0  0  0  0  0  0  0  0
   17.4631   21.1663    6.2460 H   0  0  0  0  0  0  0  0  0  0  0  0
   16.6493   19.7960    4.5481 O   0  0  0  0  0  0  0  0  0  0  0  0
   16.6460   18.4101    4.2144 C   0  0  0  0  0  0  0  0  0  0  0  0
   18.0966   18.0673    3.9506 C   0  0  0  0  0  0  0  0  0  0  0  0
   15.9636   18.2476    2.8777 C   0  0  0  0  0  0  0  0  0  0  0  0
   18.2908   18.3094    2.5619 O   0  0  0  0  0  0  0  0  0  0  0  0
   17.0843   17.9087    1.9321 C   0  0  0  0  0  0  0  0  0  0  0  0
   16.9395   21.3583    8.8260 C   0  0  0  0  0  0  0  0  0  0  0  0
   17.0118   19.9691    9.3668 C   0  0  0  0  0  0  0  0  0  0  0  0
   15.8659   19.3581    9.8408 C   0  0  0  0  0  0  0  0  0  0  0  0
   15.9262   18.0788   10.3608 C   0  0  0  0  0  0  0  0  0  0  0  0
   17.1349   17.4144   10.4176 C   0  0  0  0  0  0  0  0  0  0  0  0
   18.2797   18.0211    9.9404 C   0  0  0  0  0  0  0  0  0  0  0  0
   18.2202   19.2961    9.4099 C   0  0  0  0  0  0  0  0  0  0  0  0
 33 32  1  0  0  0
 33 31  1  0  0  0
 22 19  1  0  0  0
 32 30  1  0  0  0
 20 19  1  0  0  0
 31 29  1  0  0  0
 21 19  1  0  0  0
 19 12  1  0  0  0
 30 29  1  0  0  0
 29 28  1  0  0  0
 12 13  1  0  0  0
 12 11  1  0  0  0
 28 25  1  0  0  0
 13 14  1  0  0  0
  2  1  1  0  0  0
 25 26  2  0  0  0
 25 24  1  0  0  0
  1  4  1  0  0  0
  1 23  1  0  0  0
 11  8  1  0  0  0
 24 23  1  0  0  0
  4 14  1  0  0  0
 14 15  1  0  0  0
 23 34  1  0  0  0
  8  7  2  0  0  0
  8  9  1  0  0  0
  7  6  1  0  0  0
 17 15  2  0  0  0
 15  9  1  0  0  0
 15 16  2  0  0  0
 34 35  1  0  0  0
  9 10  2  0  0  0
  6 18  1  0  0  0
  6  5  2  0  0  0
 35 36  2  0  0  0
 35 40  1  0  0  0
 36 37  1  0  0  0
 10  5  1  0  0  0
 40 39  2  0  0  0
 37 38  2  0  0  0
 39 38  1  0  0  0
  2  3  1  0  0  0
 24 27  1  0  0  0
M  END
> <minimizedAffinity>
-10.66140

$$$$
4MC2_525_A_101


 40 43  0  0  0  0  0  0  0  0999 V2000
   11.2703   23.9084    3.1696 C   0  0  0  0  0  0  0  0  0  0  0  0
   11.6284   23.9177    1.8060 O   0  0  0  0  0  0  0  0  0  0  0  0
   11.2374   23.1480    1.3638 H   0  0  0  0  0  0  0  0  0  0  0  0
   11.8713   22.6700    3.8010 C   0  0  0  0  0  0  0  0  0  0  0  0
   13.4063   22.7406    8.8090 C   0  0  0  0  0  0  0  0  0  0  0  0
   14.0260   21.5083    8.8721 C   0  0  0  0  0  0  0  0  0  0  0  0
   14.6471   20.9694    7.7632 C   0  0  0  0  0  0  0  0  0  0  0  0
   14.6392   21.6504    6.5569 C   0  0  0  0  0  0  0  0  0  0  0  0
   14.0205   22.8951    6.5111 C   0  0  0  0  0  0  0  0  0  0  0  0
   13.4095   23.4428    7.6205 C   0  0  0  0  0  0  0  0  0  0  0  0
   15.3605   21.0266    5.3957 C   0  0  0  0  0  0  0  0  0  0  0  0
   14.4833   20.5734    4.2312 C   0  0  0  0  0  0  0  0  0  0  0  0
   14.1797   21.7319    3.2828 C   0  0  0  0  0  0  0  0  0  0  0  0
   13.3319   22.7713    3.8992 N   0  0  0  0  0  0  0  0  0  0  0  0
   13.9975   23.8607    5.0126 S   0  0  0  0  0  0  0  0  0  0  0  0
   13.1372   25.0086    5.1738 O   0  0  0  0  0  0  0  0  0  0  0  0
   15.3968   24.0316    4.6661 O   0  0  0  0  0  0  0  0  0  0  0  0
   14.0078   20.8351   10.0366 F   0  0  0  0  0  0  0  0  0  0  0  0
   15.0670   19.3875    3.4521 C   0  0  0  0  0  0  0  0  0  0  0  0
   16.5676   19.2929    3.5897 C   0  0  0  0  0  0  0  0  0  0  0  0
   14.7562   19.4511    1.9654 C   0  0  0  0  0  0  0  0  0  0  0  0
   14.5242   18.0890    4.0101 C   0  0  0  0  0  0  0  0  0  0  0  0
    9.7662   24.0888    3.3168 C   0  0  0  0  0  0  0  0  0  0  0  0
    9.5474   25.2591    4.1329 N   0  0  0  0  0  0  0  0  0  0  0  0
    9.4515   25.1831    5.5035 C   0  0  0  0  0  0  0  0  0  0  0  0
    9.5753   24.1562    6.1653 O   0  0  0  0  0  0  0  0  0  0  0  0
    9.4644   26.1375    3.6961 H   0  0  0  0  0  0  0  0  0  0  0  0
    9.1555   26.4366    5.9848 O   0  0  0  0  0  0  0  0  0  0  0  0
    8.1922   26.5065    7.0333 C   0  0  0  0  0  0  0  0  0  0  0  0
    7.5102   27.8454    6.8499 C   0  0  0  0  0  0  0  0  0  0  0  0
    8.9295   26.6275    8.3449 C   0  0  0  0  0  0  0  0  0  0  0  0
    8.2795   28.7645    7.6168 O   0  0  0  0  0  0  0  0  0  0  0  0
    8.6870   28.0499    8.7727 C   0  0  0  0  0  0  0  0  0  0  0  0
    8.9902   24.1857    2.0071 C   0  0  0  0  0  0  0  0  0  0  0  0
    7.5272   23.9972    2.2349 C   0  0  0  0  0  0  0  0  0  0  0  0
    6.6189   24.7412    1.5053 C   0  0  0  0  0  0  0  0  0  0  0  0
    5.2626   24.5872    1.7224 C   0  0  0  0  0  0  0  0  0  0  0  0
    4.8144   23.6971    2.6777 C   0  0  0  0  0  0  0  0  0  0  0  0
    5.7199   22.9496    3.4042 C   0  0  0  0  0  0  0  0  0  0  0  0
    7.0763   23.0938    3.1813 C   0  0  0  0  0  0  0  0  0  0  0  0
 33 32  1  0  0  0
 33 31  1  0  0  0
 22 19  1  0  0  0
 32 30  1  0  0  0
 20 19  1  0  0  0
 31 29  1  0  0  0
 21 19  1  0  0  0
 19 12  1  0  0  0
 30 29  1  0  0  0
 29 28  1  0  0  0
 12 13  1  0  0  0
 12 11  1  0  0  0
 28 25  1  0  0  0
 13 14  1  0  0  0
  2  1  1  0  0  0
 25 26  2  0  0  0
 25 24  1  0  0  0
  1  4  1  0  0  0
  1 23  1  0  0  0
 11  8  1  0  0  0
 24 23  1  0  0  0
  4 14  1  0  0  0
 14 15  1  0  0  0
 23 34  1  0  0  0
  8  7  2  0  0  0
  8  9  1  0  0  0
  7  6  1  0  0  0
 17 15  2  0  0  0
 15  9  1  0  0  0
 15 16  2  0  0  0
 34 35  1  0  0  0
  9 10  2  0  0  0
  6 18  1  0  0  0
  6  5  2  0  0  0
 35 36  2  0  0  0
 35 40  1  0  0  0
 36 37  1  0  0  0
 10  5  1  0  0  0
 40 39  2  0  0  0
 37 38  2  0  0  0
 39 38  1  0  0  0
  2  3  1  0  0  0
 24 27  1  0  0  0
M  END
> <minimizedAffinity>
-10.63639

$$$$
4MC2_525_A_101


 40 43  0  0  0  0  0  0  0  0999 V2000
   13.6487   21.9084    7.3063 C   0  0  0  0  0  0  0  0  0  0  0  0
   13.5460   21.3203    8.5836 O   0  0  0  0  0  0  0  0  0  0  0  0
   12.9523   20.5544    8.5401 H   0  0  0  0  0  0  0  0  0  0  0  0
   12.2774   22.4201    6.9172 C   0  0  0  0  0  0  0  0  0  0  0  0
    9.9943   23.2737    2.2803 C   0  0  0  0  0  0  0  0  0  0  0  0
    8.8720   23.9572    2.7043 C   0  0  0  0  0  0  0  0  0  0  0  0
    8.9099   24.7522    3.8322 C   0  0  0  0  0  0  0  0  0  0  0  0
   10.0752   24.8599    4.5734 C   0  0  0  0  0  0  0  0  0  0  0  0
   11.2005   24.1744    4.1285 C   0  0  0  0  0  0  0  0  0  0  0  0
   11.1702   23.3888    2.9945 C   0  0  0  0  0  0  0  0  0  0  0  0
   10.0619   25.7664    5.7717 C   0  0  0  0  0  0  0  0  0  0  0  0
   10.2091   25.0811    7.1280 C   0  0  0  0  0  0  0  0  0  0  0  0
   11.6779   24.8318    7.4661 C   0  0  0  0  0  0  0  0  0  0  0  0
   12.3137   23.8455    6.5706 N   0  0  0  0  0  0  0  0  0  0  0  0
   12.7540   24.2876    4.9958 S   0  0  0  0  0  0  0  0  0  0  0  0
   13.6983   23.3419    4.4499 O   0  0  0  0  0  0  0  0  0  0  0  0
   13.0598   25.7064    5.0149 O   0  0  0  0  0  0  0  0  0  0  0  0
    7.7332   23.8286    1.9999 F   0  0  0  0  0  0  0  0  0  0  0  0
    9.5210   25.8370    8.2723 C   0  0  0  0  0  0  0  0  0  0  0  0
    8.8064   27.0776    7.7929 C   0  0  0  0  0  0  0  0  0  0  0  0
   10.4927   26.2706    9.3580 C   0  0  0  0  0  0  0  0  0  0  0  0
    8.4508   24.9649    8.8937 C   0  0  0  0  0  0  0  0  0  0  0  0
   14.3177   20.9432    6.3382 C   0  0  0  0  0  0  0  0  0  0  0  0
   15.2369   20.1321    7.1001 N   0  0  0  0  0  0  0  0  0  0  0  0
   16.4278   20.6323    7.5748 C   0  0  0  0  0  0  0  0  0  0  0  0
   16.8109   21.7915    7.4426 O   0  0  0  0  0  0  0  0  0  0  0  0
   15.0051   19.1935    7.2857 H   0  0  0  0  0  0  0  0  0  0  0  0
   17.1168   19.6058    8.1766 O   0  0  0  0  0  0  0  0  0  0  0  0
   17.1208   19.5894    9.6020 C   0  0  0  0  0  0  0  0  0  0  0  0
   18.2400   18.6428    9.9796 C   0  0  0  0  0  0  0  0  0  0  0  0
   15.8613   18.9011   10.0699 C   0  0  0  0  0  0  0  0  0  0  0  0
   17.6329   17.3581   10.0556 O   0  0  0  0  0  0  0  0  0  0  0  0
   16.3419   17.5777   10.6016 C   0  0  0  0  0  0  0  0  0  0  0  0
   13.3660   20.0705    5.5261 C   0  0  0  0  0  0  0  0  0  0  0  0
   14.0404   19.5289    4.3097 C   0  0  0  0  0  0  0  0  0  0  0  0
   14.0511   20.2723    3.1443 C   0  0  0  0  0  0  0  0  0  0  0  0
   14.6568   19.7711    2.0074 C   0  0  0  0  0  0  0  0  0  0  0  0
   15.2420   18.5211    2.0325 C   0  0  0  0  0  0  0  0  0  0  0  0
   15.2365   17.7790    3.1968 C   0  0  0  0  0  0  0  0  0  0  0  0
   14.6411   18.2825    4.3381 C   0  0  0  0  0  0  0  0  0  0  0  0
 33 32  1  0  0  0
 33 31  1  0  0  0
 22 19  1  0  0  0
 32 30  1  0  0  0
 20 19  1  0  0  0
 31 29  1  0  0  0
 21 19  1  0  0  0
 19 12  1  0  0  0
 30 29  1  0  0  0
 29 28  1  0  0  0
 12 13  1  0  0  0
 12 11  1  0  0  0
 28 25  1  0  0  0
 13 14  1  0  0  0
  2  1  1  0  0  0
 25 26  2  0  0  0
 25 24  1  0  0  0
  1  4  1  0  0  0
  1 23  1  0  0  0
 11  8  1  0  0  0
 24 23  1  0  0  0
  4 14  1  0  0  0
 14 15  1  0  0  0
 23 34  1  0  0  0
  8  7  2  0  0  0
  8  9  1  0  0  0
  7  6  1  0  0  0
 17 15  2  0  0  0
 15  9  1  0  0  0
 15 16  2  0  0  0
 34 35  1  0  0  0
  9 10  2  0  0  0
  6 18  1  0  0  0
  6  5  2  0  0  0
 35 36  2  0  0  0
 35 40  1  0  0  0
 36 37  1  0  0  0
 10  5  1  0  0  0
 40 39  2  0  0  0
 37 38  2  0  0  0
 39 38  1  0  0  0
  2  3  1  0  0  0
 24 27  1  0  0  0
M  END
> <minimizedAffinity>
-10.28240

$$$$
4MC2_525_A_101


 40 43  0  0  0  0  0  0  0  0999 V2000
   11.6532   21.7531    5.9770 C   0  0  0  0  0  0  0  0  0  0  0  0
   11.0357   20.8086    6.8222 O   0  0  0  0  0  0  0  0  0  0  0  0
   10.8469   20.0003    6.3204 H   0  0  0  0  0  0  0  0  0  0  0  0
   10.6677   22.1172    4.8862 C   0  0  0  0  0  0  0  0  0  0  0  0
    6.5049   23.5909    2.0683 C   0  0  0  0  0  0  0  0  0  0  0  0
    5.8779   24.3973    2.9975 C   0  0  0  0  0  0  0  0  0  0  0  0
    6.6090   25.1025    3.9324 C   0  0  0  0  0  0  0  0  0  0  0  0
    7.9895   24.9945    3.9674 C   0  0  0  0  0  0  0  0  0  0  0  0
    8.6080   24.1871    3.0188 C   0  0  0  0  0  0  0  0  0  0  0  0
    7.8817   23.4904    2.0747 C   0  0  0  0  0  0  0  0  0  0  0  0
    8.7304   25.8125    4.9871 C   0  0  0  0  0  0  0  0  0  0  0  0
    9.4399   25.0252    6.0861 C   0  0  0  0  0  0  0  0  0  0  0  0
   10.8160   24.5480    5.6254 C   0  0  0  0  0  0  0  0  0  0  0  0
   10.7437   23.5428    4.5468 N   0  0  0  0  0  0  0  0  0  0  0  0
   10.3821   24.0210    2.9625 S   0  0  0  0  0  0  0  0  0  0  0  0
   10.7554   22.9890    2.0247 O   0  0  0  0  0  0  0  0  0  0  0  0
   10.8715   25.3776    2.7984 O   0  0  0  0  0  0  0  0  0  0  0  0
    4.5353   24.4785    2.9806 F   0  0  0  0  0  0  0  0  0  0  0  0
    9.5589   25.7938    7.4086 C   0  0  0  0  0  0  0  0  0  0  0  0
    8.7033   25.1955    8.4993 C   0  0  0  0  0  0  0  0  0  0  0  0
    9.1605   27.2549    7.2770 C   0  0  0  0  0  0  0  0  0  0  0  0
   10.9819   25.7191    7.9200 C   0  0  0  0  0  0  0  0  0  0  0  0
   13.0133   21.2406    5.5254 C   0  0  0  0  0  0  0  0  0  0  0  0
   13.9880   21.6876    6.4916 N   0  0  0  0  0  0  0  0  0  0  0  0
   14.7621   22.8056    6.2809 C   0  0  0  0  0  0  0  0  0  0  0  0
   14.6870   23.5437    5.3023 O   0  0  0  0  0  0  0  0  0  0  0  0
   14.1024   21.1776    7.3260 H   0  0  0  0  0  0  0  0  0  0  0  0
   15.6476   22.9199    7.3265 O   0  0  0  0  0  0  0  0  0  0  0  0
   15.8209   21.7656    8.1449 C   0  0  0  0  0  0  0  0  0  0  0  0
   16.2693   22.3014    9.4878 C   0  0  0  0  0  0  0  0  0  0  0  0
   17.0079   20.9915    7.6245 C   0  0  0  0  0  0  0  0  0  0  0  0
   17.6895   22.3524    9.4142 O   0  0  0  0  0  0  0  0  0  0  0  0
   18.0740   21.2114    8.6637 C   0  0  0  0  0  0  0  0  0  0  0  0
   13.1052   19.7322    5.3175 C   0  0  0  0  0  0  0  0  0  0  0  0
   13.9493   19.4044    4.1310 C   0  0  0  0  0  0  0  0  0  0  0  0
   13.9590   20.2548    3.0412 C   0  0  0  0  0  0  0  0  0  0  0  0
   14.7229   19.9502    1.9303 C   0  0  0  0  0  0  0  0  0  0  0  0
   15.4687   18.7889    1.9043 C   0  0  0  0  0  0  0  0  0  0  0  0
   15.4641   17.9405    2.9937 C   0  0  0  0  0  0  0  0  0  0  0  0
   14.7096   18.2483    4.1101 C   0  0  0  0  0  0  0  0  0  0  0  0
 33 32  1  0  0  0
 33 31  1  0  0  0
 22 19  1  0  0  0
 32 30  1  0  0  0
 20 19  1  0  0  0
 31 29  1  0  0  0
 21 19  1  0  0  0
 19 12  1  0  0  0
 30 29  1  0  0  0
 29 28  1  0  0  0
 12 13  1  0  0  0
 12 11  1  0  0  0
 28 25  1  0  0  0
 13 14  1  0  0  0
  2  1  1  0  0  0
 25 26  2  0  0  0
 25 24  1  0  0  0
  1  4  1  0  0  0
  1 23  1  0  0  0
 11  8  1  0  0  0
 24 23  1  0  0  0
  4 14  1  0  0  0
 14 15  1  0  0  0
 23 34  1  0  0  0
  8  7  2  0  0  0
  8  9  1  0  0  0
  7  6  1  0  0  0
 17 15  2  0  0  0
 15  9  1  0  0  0
 15 16  2  0  0  0
 34 35  1  0  0  0
  9 10  2  0  0  0
  6 18  1  0  0  0
  6  5  2  0  0  0
 35 36  2  0  0  0
 35 40  1  0  0  0
 36 37  1  0  0  0
 10  5  1  0  0  0
 40 39  2  0  0  0
 37 38  2  0  0  0
 39 38  1  0  0  0
  2  3  1  0  0  0
 24 27  1  0  0  0
M  END
> <minimizedAffinity>
-9.36776

$$$$
4MC2_525_A_101


 40 43  0  0  0  0  0  0  0  0999 V2000
   11.5328   21.7610    6.3457 C   0  0  0  0  0  0  0  0  0  0  0  0
   10.8919   20.6136    6.8560 O   0  0  0  0  0  0  0  0  0  0  0  0
   11.1138   19.8471    6.3045 H   0  0  0  0  0  0  0  0  0  0  0  0
   10.9819   22.0254    4.9600 C   0  0  0  0  0  0  0  0  0  0  0  0
    6.8996   23.3901    1.9743 C   0  0  0  0  0  0  0  0  0  0  0  0
    6.2137   24.1781    2.8771 C   0  0  0  0  0  0  0  0  0  0  0  0
    6.8866   24.9016    3.8412 C   0  0  0  0  0  0  0  0  0  0  0  0
    8.2670   24.8308    3.9327 C   0  0  0  0  0  0  0  0  0  0  0  0
    8.9453   24.0414    3.0101 C   0  0  0  0  0  0  0  0  0  0  0  0
    8.2773   23.3266    2.0370 C   0  0  0  0  0  0  0  0  0  0  0  0
    8.9433   25.6671    4.9820 C   0  0  0  0  0  0  0  0  0  0  0  0
    9.6281   24.8978    6.1090 C   0  0  0  0  0  0  0  0  0  0  0  0
   11.0343   24.4584    5.7049 C   0  0  0  0  0  0  0  0  0  0  0  0
   11.0333   23.4529    4.6242 N   0  0  0  0  0  0  0  0  0  0  0  0
   10.7240   23.9232    3.0265 S   0  0  0  0  0  0  0  0  0  0  0  0
   11.1631   22.9027    2.1046 O   0  0  0  0  0  0  0  0  0  0  0  0
   11.1830   25.2927    2.8827 O   0  0  0  0  0  0  0  0  0  0  0  0
    4.8712   24.2233    2.8053 F   0  0  0  0  0  0  0  0  0  0  0  0
    9.6721   25.6677    7.4354 C   0  0  0  0  0  0  0  0  0  0  0  0
    9.2288   27.1027    7.2813 C   0  0  0  0  0  0  0  0  0  0  0  0
   11.0600   25.6914    8.0552 C   0  0  0  0  0  0  0  0  0  0  0  0
    8.7063   25.0467    8.4222 C   0  0  0  0  0  0  0  0  0  0  0  0
   13.0430   21.6126    6.4634 C   0  0  0  0  0  0  0  0  0  0  0  0
   13.5519   21.3003    5.1492 N   0  0  0  0  0  0  0  0  0  0  0  0
   14.7474   20.6431    4.9688 C   0  0  0  0  0  0  0  0  0  0  0  0
   15.4701   20.2292    5.8711 O   0  0  0  0  0  0  0  0  0  0  0  0
   13.0283   21.5653    4.3587 H   0  0  0  0  0  0  0  0  0  0  0  0
   15.0010   20.5730    3.6192 O   0  0  0  0  0  0  0  0  0  0  0  0
   14.4572   19.4529    2.9251 C   0  0  0  0  0  0  0  0  0  0  0  0
   14.7637   18.2602    3.8055 C   0  0  0  0  0  0  0  0  0  0  0  0
   15.2749   19.2286    1.6762 C   0  0  0  0  0  0  0  0  0  0  0  0
   16.0376   17.7954    3.3743 O   0  0  0  0  0  0  0  0  0  0  0  0
   16.0525   17.9733    1.9668 C   0  0  0  0  0  0  0  0  0  0  0  0
   13.7716   22.8136    7.0579 C   0  0  0  0  0  0  0  0  0  0  0  0
   14.4744   22.4433    8.3215 C   0  0  0  0  0  0  0  0  0  0  0  0
   15.8106   22.7601    8.4802 C   0  0  0  0  0  0  0  0  0  0  0  0
   16.4749   22.4048    9.6391 C   0  0  0  0  0  0  0  0  0  0  0  0
   15.8059   21.7221   10.6350 C   0  0  0  0  0  0  0  0  0  0  0  0
   14.4701   21.4088   10.4804 C   0  0  0  0  0  0  0  0  0  0  0  0
   13.8007   21.7727    9.3272 C   0  0  0  0  0  0  0  0  0  0  0  0
 33 32  1  0  0  0
 33 31  1  0  0  0
 22 19  1  0  0  0
 32 30  1  0  0  0
 20 19  1  0  0  0
 31 29  1  0  0  0
 21 19  1  0  0  0
 19 12  1  0  0  0
 30 29  1  0  0  0
 29 28  1  0  0  0
 12 13  1  0  0  0
 12 11  1  0  0  0
 28 25  1  0  0  0
 13 14  1  0  0  0
  2  1  1  0  0  0
 25 26  2  0  0  0
 25 24  1  0  0  0
  1  4  1  0  0  0
  1 23  1  0  0  0
 11  8  1  0  0  0
 24 23  1  0  0  0
  4 14  1  0  0  0
 14 15  1  0  0  0
 23 34  1  0  0  0
  8  7  2  0  0  0
  8  9  1  0  0  0
  7  6  1  0  0  0
 17 15  2  0  0  0
 15  9  1  0  0  0
 15 16  2  0  0  0
 34 35  1  0  0  0
  9 10  2  0  0  0
  6 18  1  0  0  0
  6  5  2  0  0  0
 35 36  2  0  0  0
 35 40  1  0  0  0
 36 37  1  0  0  0
 10  5  1  0  0  0
 40 39  2  0  0  0
 37 38  2  0  0  0
 39 38  1  0  0  0
  2  3  1  0  0  0
 24 27  1  0  0  0
M  END
> <minimizedAffinity>
-9.13022

$$$$
