6EXI_ADN_A_502


 24 26  0  0  0  0  0  0  0  0999 V2000
  -13.7227   65.3942   19.7772 C   0  0  0  0  0  0  0  0  0  0  0  0
  -14.9073   66.0935   20.2258 O   0  0  0  0  0  0  0  0  0  0  0  0
  -12.7947   66.4672   19.2247 C   0  0  0  0  0  0  0  0  0  0  0  0
  -13.1493   66.7034   17.8654 O   0  0  0  0  0  0  0  0  0  0  0  0
  -13.1670   67.7003   20.0483 C   0  0  0  0  0  0  0  0  0  0  0  0
  -12.9435   68.9412   19.4153 O   0  0  0  0  0  0  0  0  0  0  0  0
  -14.6712   67.4908   20.2934 C   0  0  0  0  0  0  0  0  0  0  0  0
  -14.0903   66.9328   17.8119 H   0  0  0  0  0  0  0  0  0  0  0  0
  -13.4598   68.9835   18.5952 H   0  0  0  0  0  0  0  0  0  0  0  0
  -15.0775   67.9009   21.6407 N   0  0  0  0  0  0  0  0  0  0  0  0
  -14.7033   67.2457   22.7187 C   0  0  0  0  0  0  0  0  0  0  0  0
  -15.2903   67.8114   23.8446 N   0  0  0  0  0  0  0  0  0  0  0  0
  -16.0478   68.8658   23.4105 C   0  0  0  0  0  0  0  0  0  0  0  0
  -16.8470   69.8181   24.0778 C   0  0  0  0  0  0  0  0  0  0  0  0
  -16.9569   69.7938   25.4925 N   0  0  0  0  0  0  0  0  0  0  0  0
  -17.4972   70.7481   23.3706 N   0  0  0  0  0  0  0  0  0  0  0  0
  -17.3742   70.7986   22.0238 C   0  0  0  0  0  0  0  0  0  0  0  0
  -16.6385   69.9306   21.3404 N   0  0  0  0  0  0  0  0  0  0  0  0
  -15.9502   68.9469   21.9998 C   0  0  0  0  0  0  0  0  0  0  0  0
  -16.4775   69.1083   26.0117 H   0  0  0  0  0  0  0  0  0  0  0  0
  -17.5124   70.4624   25.9546 H   0  0  0  0  0  0  0  0  0  0  0  0
  -14.2301   63.9118   21.6535 O   0  0  0  0  0  0  0  0  0  0  0  0
  -13.1923   64.4946   20.8845 C   0  0  0  0  0  0  0  0  0  0  0  0
  -13.8445   63.3496   22.3435 H   0  0  0  0  0  0  0  0  0  0  0  0
 22 23  1  0  0  0
 23  1  1  0  0  0
  1  2  1  0  0  0
  1  3  1  0  0  0
  2  7  1  0  0  0
  3  4  1  0  0  0
  3  5  1  0  0  0
  5  6  1  0  0  0
  5  7  1  0  0  0
  7 10  1  0  0  0
 10 11  1  0  0  0
 10 19  1  0  0  0
 11 12  2  0  0  0
 12 13  1  0  0  0
 13 14  1  0  0  0
 13 19  2  0  0  0
 14 15  1  0  0  0
 14 16  2  0  0  0
 16 17  1  0  0  0
 17 18  2  0  0  0
 18 19  1  0  0  0
 22 24  1  0  0  0
  4  8  1  0  0  0
  6  9  1  0  0  0
 15 20  1  0  0  0
 15 21  1  0  0  0
M  END
> <minimizedAffinity>
-10.05639

$$$$
6EXI_ADN_A_502


 24 26  0  0  0  0  0  0  0  0999 V2000
  -12.3037   66.6954   19.0749 C   0  0  0  0  0  0  0  0  0  0  0  0
  -12.6661   67.8158   19.9156 O   0  0  0  0  0  0  0  0  0  0  0  0
  -12.6314   65.4487   19.8852 C   0  0  0  0  0  0  0  0  0  0  0  0
  -11.5165   65.1587   20.7232 O   0  0  0  0  0  0  0  0  0  0  0  0
  -13.7966   65.9063   20.7629 C   0  0  0  0  0  0  0  0  0  0  0  0
  -13.9332   65.2254   21.9910 O   0  0  0  0  0  0  0  0  0  0  0  0
  -13.4614   67.3873   21.0096 C   0  0  0  0  0  0  0  0  0  0  0  0
  -11.3086   65.9357   21.2653 H   0  0  0  0  0  0  0  0  0  0  0  0
  -13.1246   65.3378   22.5148 H   0  0  0  0  0  0  0  0  0  0  0  0
  -14.6552   68.2376   20.9942 N   0  0  0  0  0  0  0  0  0  0  0  0
  -15.1583   68.7243   19.8800 C   0  0  0  0  0  0  0  0  0  0  0  0
  -16.2397   69.5486   20.1689 N   0  0  0  0  0  0  0  0  0  0  0  0
  -16.3910   69.5435   21.5294 C   0  0  0  0  0  0  0  0  0  0  0  0
  -17.3128   70.1635   22.3993 C   0  0  0  0  0  0  0  0  0  0  0  0
  -18.3558   70.9720   21.8774 N   0  0  0  0  0  0  0  0  0  0  0  0
  -17.2022   69.9813   23.7193 N   0  0  0  0  0  0  0  0  0  0  0  0
  -16.2298   69.1872   24.2248 C   0  0  0  0  0  0  0  0  0  0  0  0
  -15.3337   68.5785   23.4579 N   0  0  0  0  0  0  0  0  0  0  0  0
  -15.3831   68.7260   22.0970 C   0  0  0  0  0  0  0  0  0  0  0  0
  -18.4358   71.1051   20.9052 H   0  0  0  0  0  0  0  0  0  0  0  0
  -18.9993   71.3997   22.4874 H   0  0  0  0  0  0  0  0  0  0  0  0
  -11.9925   66.7771   16.6518 O   0  0  0  0  0  0  0  0  0  0  0  0
  -12.9427   66.8405   17.7011 C   0  0  0  0  0  0  0  0  0  0  0  0
  -12.4451   66.8740   15.7994 H   0  0  0  0  0  0  0  0  0  0  0  0
 22 23  1  0  0  0
 23  1  1  0  0  0
  1  2  1  0  0  0
  1  3  1  0  0  0
  2  7  1  0  0  0
  3  4  1  0  0  0
  3  5  1  0  0  0
  5  6  1  0  0  0
  5  7  1  0  0  0
  7 10  1  0  0  0
 10 11  1  0  0  0
 10 19  1  0  0  0
 11 12  2  0  0  0
 12 13  1  0  0  0
 13 14  1  0  0  0
 13 19  2  0  0  0
 14 15  1  0  0  0
 14 16  2  0  0  0
 16 17  1  0  0  0
 17 18  2  0  0  0
 18 19  1  0  0  0
 22 24  1  0  0  0
  4  8  1  0  0  0
  6  9  1  0  0  0
 15 20  1  0  0  0
 15 21  1  0  0  0
M  END
> <minimizedAffinity>
-9.28755

$$$$
6EXI_ADN_A_502


 24 26  0  0  0  0  0  0  0  0999 V2000
  -13.2112   68.5610   18.8336 C   0  0  0  0  0  0  0  0  0  0  0  0
  -13.0525   68.2748   20.2430 O   0  0  0  0  0  0  0  0  0  0  0  0
  -13.9981   67.3901   18.2610 C   0  0  0  0  0  0  0  0  0  0  0  0
  -13.0762   66.3558   17.9297 O   0  0  0  0  0  0  0  0  0  0  0  0
  -14.8425   66.9300   19.4496 C   0  0  0  0  0  0  0  0  0  0  0  0
  -15.2090   65.5676   19.4405 O   0  0  0  0  0  0  0  0  0  0  0  0
  -13.9187   67.2251   20.6438 C   0  0  0  0  0  0  0  0  0  0  0  0
  -12.5494   66.1295   18.7121 H   0  0  0  0  0  0  0  0  0  0  0  0
  -14.4098   65.0179   19.4328 H   0  0  0  0  0  0  0  0  0  0  0  0
  -14.6554   67.7346   21.8040 N   0  0  0  0  0  0  0  0  0  0  0  0
  -14.5059   67.2295   23.0098 C   0  0  0  0  0  0  0  0  0  0  0  0
  -15.3754   67.8545   23.8963 N   0  0  0  0  0  0  0  0  0  0  0  0
  -16.0729   68.7876   23.1775 C   0  0  0  0  0  0  0  0  0  0  0  0
  -17.0639   69.7296   23.5260 C   0  0  0  0  0  0  0  0  0  0  0  0
  -17.5022   69.8417   24.8711 N   0  0  0  0  0  0  0  0  0  0  0  0
  -17.5853   70.5208   22.5827 N   0  0  0  0  0  0  0  0  0  0  0  0
  -17.1519   70.4428   21.3030 C   0  0  0  0  0  0  0  0  0  0  0  0
  -16.2239   69.5771   20.9144 N   0  0  0  0  0  0  0  0  0  0  0  0
  -15.6509   68.7312   21.8267 C   0  0  0  0  0  0  0  0  0  0  0  0
  -17.1173   69.2584   25.5645 H   0  0  0  0  0  0  0  0  0  0  0  0
  -18.1911   70.5029   25.1109 H   0  0  0  0  0  0  0  0  0  0  0  0
  -15.1592   69.9499   18.3325 O   0  0  0  0  0  0  0  0  0  0  0  0
  -13.7764   69.9611   18.6419 C   0  0  0  0  0  0  0  0  0  0  0  0
  -15.4728   70.8609   18.2199 H   0  0  0  0  0  0  0  0  0  0  0  0
 22 23  1  0  0  0
 23  1  1  0  0  0
  1  2  1  0  0  0
  1  3  1  0  0  0
  2  7  1  0  0  0
  3  4  1  0  0  0
  3  5  1  0  0  0
  5  6  1  0  0  0
  5  7  1  0  0  0
  7 10  1  0  0  0
 10 11  1  0  0  0
 10 19  1  0  0  0
 11 12  2  0  0  0
 12 13  1  0  0  0
 13 14  1  0  0  0
 13 19  2  0  0  0
 14 15  1  0  0  0
 14 16  2  0  0  0
 16 17  1  0  0  0
 17 18  2  0  0  0
 18 19  1  0  0  0
 22 24  1  0  0  0
  4  8  1  0  0  0
  6  9  1  0  0  0
 15 20  1  0  0  0
 15 21  1  0  0  0
M  END
> <minimizedAffinity>
-8.75746

$$$$
6EXI_ADN_A_502


 24 26  0  0  0  0  0  0  0  0999 V2000
  -13.4799   66.3037   18.6683 C   0  0  0  0  0  0  0  0  0  0  0  0
  -14.7454   67.0049   18.6810 O   0  0  0  0  0  0  0  0  0  0  0  0
  -12.4292   67.3547   18.3375 C   0  0  0  0  0  0  0  0  0  0  0  0
  -12.3559   67.4778   16.9201 O   0  0  0  0  0  0  0  0  0  0  0  0
  -13.0347   68.6371   18.9087 C   0  0  0  0  0  0  0  0  0  0  0  0
  -12.6314   69.8315   18.2753 O   0  0  0  0  0  0  0  0  0  0  0  0
  -14.5424   68.4089   18.7045 C   0  0  0  0  0  0  0  0  0  0  0  0
  -13.2367   67.6786   16.5670 H   0  0  0  0  0  0  0  0  0  0  0  0
  -12.8752   69.7982   17.3371 H   0  0  0  0  0  0  0  0  0  0  0  0
  -15.3379   68.9099   19.8290 N   0  0  0  0  0  0  0  0  0  0  0  0
  -16.1954   69.8995   19.6988 C   0  0  0  0  0  0  0  0  0  0  0  0
  -16.7517   70.2099   20.9343 N   0  0  0  0  0  0  0  0  0  0  0  0
  -16.1995   69.3508   21.8458 C   0  0  0  0  0  0  0  0  0  0  0  0
  -16.3825   69.1690   23.2331 C   0  0  0  0  0  0  0  0  0  0  0  0
  -17.3156   69.9693   23.9421 N   0  0  0  0  0  0  0  0  0  0  0  0
  -15.6754   68.2343   23.8766 N   0  0  0  0  0  0  0  0  0  0  0  0
  -14.8058   67.4452   23.2038 C   0  0  0  0  0  0  0  0  0  0  0  0
  -14.5901   67.5690   21.9000 N   0  0  0  0  0  0  0  0  0  0  0  0
  -15.2751   68.5105   21.1785 C   0  0  0  0  0  0  0  0  0  0  0  0
  -17.8354   70.6572   23.4667 H   0  0  0  0  0  0  0  0  0  0  0  0
  -17.4431   69.8367   24.9092 H   0  0  0  0  0  0  0  0  0  0  0  0
  -12.2192   65.9621   20.7345 O   0  0  0  0  0  0  0  0  0  0  0  0
  -13.3087   65.5046   19.9524 C   0  0  0  0  0  0  0  0  0  0  0  0
  -12.1504   65.4245   21.5390 H   0  0  0  0  0  0  0  0  0  0  0  0
 22 23  1  0  0  0
 23  1  1  0  0  0
  1  2  1  0  0  0
  1  3  1  0  0  0
  2  7  1  0  0  0
  3  4  1  0  0  0
  3  5  1  0  0  0
  5  6  1  0  0  0
  5  7  1  0  0  0
  7 10  1  0  0  0
 10 11  1  0  0  0
 10 19  1  0  0  0
 11 12  2  0  0  0
 12 13  1  0  0  0
 13 14  1  0  0  0
 13 19  2  0  0  0
 14 15  1  0  0  0
 14 16  2  0  0  0
 16 17  1  0  0  0
 17 18  2  0  0  0
 18 19  1  0  0  0
 22 24  1  0  0  0
  4  8  1  0  0  0
  6  9  1  0  0  0
 15 20  1  0  0  0
 15 21  1  0  0  0
M  END
> <minimizedAffinity>
-8.58034

$$$$
6EXI_ADN_A_502


 24 26  0  0  0  0  0  0  0  0999 V2000
  -12.3484   64.0946   20.0641 C   0  0  0  0  0  0  0  0  0  0  0  0
  -13.4448   64.8520   19.5004 O   0  0  0  0  0  0  0  0  0  0  0  0
  -11.0824   64.8348   19.6550 C   0  0  0  0  0  0  0  0  0  0  0  0
  -10.7045   64.3838   18.3576 O   0  0  0  0  0  0  0  0  0  0  0  0
  -11.5518   66.2860   19.5504 C   0  0  0  0  0  0  0  0  0  0  0  0
  -10.8228   67.0950   18.6535 O   0  0  0  0  0  0  0  0  0  0  0  0
  -13.0035   66.1285   19.0661 C   0  0  0  0  0  0  0  0  0  0  0  0
  -11.4460   64.5057   17.7443 H   0  0  0  0  0  0  0  0  0  0  0  0
  -10.8747   66.7169   17.7617 H   0  0  0  0  0  0  0  0  0  0  0  0
  -13.9067   67.0987   19.6916 N   0  0  0  0  0  0  0  0  0  0  0  0
  -14.4009   68.1258   19.0342 C   0  0  0  0  0  0  0  0  0  0  0  0
  -15.1634   68.9132   19.8892 N   0  0  0  0  0  0  0  0  0  0  0  0
  -15.1259   68.3147   21.1198 C   0  0  0  0  0  0  0  0  0  0  0  0
  -15.7150   68.6287   22.3629 C   0  0  0  0  0  0  0  0  0  0  0  0
  -16.5544   69.7660   22.4893 N   0  0  0  0  0  0  0  0  0  0  0  0
  -15.4827   67.8458   23.4216 N   0  0  0  0  0  0  0  0  0  0  0  0
  -14.7088   66.7418   23.3037 C   0  0  0  0  0  0  0  0  0  0  0  0
  -14.1272   66.3953   22.1621 N   0  0  0  0  0  0  0  0  0  0  0  0
  -14.3164   67.1554   21.0384 C   0  0  0  0  0  0  0  0  0  0  0  0
  -16.7244   70.3415   21.7088 H   0  0  0  0  0  0  0  0  0  0  0  0
  -16.9666   69.9795   23.3574 H   0  0  0  0  0  0  0  0  0  0  0  0
  -13.8982   63.3973   21.8211 O   0  0  0  0  0  0  0  0  0  0  0  0
  -12.5845   63.8531   21.5482 C   0  0  0  0  0  0  0  0  0  0  0  0
  -14.0004   63.2581   22.7756 H   0  0  0  0  0  0  0  0  0  0  0  0
 22 23  1  0  0  0
 23  1  1  0  0  0
  1  2  1  0  0  0
  1  3  1  0  0  0
  2  7  1  0  0  0
  3  4  1  0  0  0
  3  5  1  0  0  0
  5  6  1  0  0  0
  5  7  1  0  0  0
  7 10  1  0  0  0
 10 11  1  0  0  0
 10 19  1  0  0  0
 11 12  2  0  0  0
 12 13  1  0  0  0
 13 14  1  0  0  0
 13 19  2  0  0  0
 14 15  1  0  0  0
 14 16  2  0  0  0
 16 17  1  0  0  0
 17 18  2  0  0  0
 18 19  1  0  0  0
 22 24  1  0  0  0
  4  8  1  0  0  0
  6  9  1  0  0  0
 15 20  1  0  0  0
 15 21  1  0  0  0
M  END
> <minimizedAffinity>
-8.10872

$$$$
6EXI_ADN_A_502


 24 26  0  0  0  0  0  0  0  0999 V2000
  -12.9936   66.0977   19.1984 C   0  0  0  0  0  0  0  0  0  0  0  0
  -12.8877   66.7780   20.4709 O   0  0  0  0  0  0  0  0  0  0  0  0
  -13.5695   64.7236   19.5119 C   0  0  0  0  0  0  0  0  0  0  0  0
  -12.4920   63.8609   19.8642 O   0  0  0  0  0  0  0  0  0  0  0  0
  -14.4160   64.9826   20.7584 C   0  0  0  0  0  0  0  0  0  0  0  0
  -14.5861   63.8749   21.6155 O   0  0  0  0  0  0  0  0  0  0  0  0
  -13.6220   66.0906   21.4715 C   0  0  0  0  0  0  0  0  0  0  0  0
  -11.9903   64.2526   20.5962 H   0  0  0  0  0  0  0  0  0  0  0  0
  -13.7188   63.5674   21.9225 H   0  0  0  0  0  0  0  0  0  0  0  0
  -14.4964   67.0933   22.0866 N   0  0  0  0  0  0  0  0  0  0  0  0
  -14.7820   67.0850   23.3711 C   0  0  0  0  0  0  0  0  0  0  0  0
  -15.6843   68.1017   23.6623 N   0  0  0  0  0  0  0  0  0  0  0  0
  -15.9410   68.7540   22.4865 C   0  0  0  0  0  0  0  0  0  0  0  0
  -16.7464   69.8644   22.1560 C   0  0  0  0  0  0  0  0  0  0  0  0
  -17.4789   70.5419   23.1652 N   0  0  0  0  0  0  0  0  0  0  0  0
  -16.8124   70.2793   20.8867 N   0  0  0  0  0  0  0  0  0  0  0  0
  -16.0934   69.6590   19.9223 C   0  0  0  0  0  0  0  0  0  0  0  0
  -15.3194   68.6099   20.1712 N   0  0  0  0  0  0  0  0  0  0  0  0
  -15.2095   68.1270   21.4483 C   0  0  0  0  0  0  0  0  0  0  0  0
  -17.4293   70.2351   24.0994 H   0  0  0  0  0  0  0  0  0  0  0  0
  -18.0367   71.3186   22.9311 H   0  0  0  0  0  0  0  0  0  0  0  0
  -15.0627   66.5258   17.9694 O   0  0  0  0  0  0  0  0  0  0  0  0
  -13.7363   66.9698   18.1961 C   0  0  0  0  0  0  0  0  0  0  0  0
  -15.4939   67.1103   17.3265 H   0  0  0  0  0  0  0  0  0  0  0  0
 22 23  1  0  0  0
 23  1  1  0  0  0
  1  2  1  0  0  0
  1  3  1  0  0  0
  2  7  1  0  0  0
  3  4  1  0  0  0
  3  5  1  0  0  0
  5  6  1  0  0  0
  5  7  1  0  0  0
  7 10  1  0  0  0
 10 11  1  0  0  0
 10 19  1  0  0  0
 11 12  2  0  0  0
 12 13  1  0  0  0
 13 14  1  0  0  0
 13 19  2  0  0  0
 14 15  1  0  0  0
 14 16  2  0  0  0
 16 17  1  0  0  0
 17 18  2  0  0  0
 18 19  1  0  0  0
 22 24  1  0  0  0
  4  8  1  0  0  0
  6  9  1  0  0  0
 15 20  1  0  0  0
 15 21  1  0  0  0
M  END
> <minimizedAffinity>
-7.94150

$$$$
6EXI_ADN_A_502


 24 26  0  0  0  0  0  0  0  0999 V2000
  -14.6423   68.8484   20.5189 C   0  0  0  0  0  0  0  0  0  0  0  0
  -13.2494   68.4615   20.4592 O   0  0  0  0  0  0  0  0  0  0  0  0
  -15.1465   68.7969   19.0832 C   0  0  0  0  0  0  0  0  0  0  0  0
  -14.8446   70.0429   18.4621 O   0  0  0  0  0  0  0  0  0  0  0  0
  -14.2740   67.7119   18.4517 C   0  0  0  0  0  0  0  0  0  0  0  0
  -14.0713   67.8315   17.0606 O   0  0  0  0  0  0  0  0  0  0  0  0
  -12.9413   67.8834   19.2008 C   0  0  0  0  0  0  0  0  0  0  0  0
  -13.8940   70.2201   18.5381 H   0  0  0  0  0  0  0  0  0  0  0  0
  -13.6471   68.6822   16.8677 H   0  0  0  0  0  0  0  0  0  0  0  0
  -12.3002   66.5989   19.4962 N   0  0  0  0  0  0  0  0  0  0  0  0
  -11.0966   66.2960   19.0590 C   0  0  0  0  0  0  0  0  0  0  0  0
  -10.7722   64.9954   19.4273 N   0  0  0  0  0  0  0  0  0  0  0  0
  -11.8395   64.5032   20.1290 C   0  0  0  0  0  0  0  0  0  0  0  0
  -12.0883   63.2686   20.7654 C   0  0  0  0  0  0  0  0  0  0  0  0
  -11.0997   62.2504   20.7617 N   0  0  0  0  0  0  0  0  0  0  0  0
  -13.2593   63.0640   21.3775 N   0  0  0  0  0  0  0  0  0  0  0  0
  -14.1963   64.0400   21.4132 C   0  0  0  0  0  0  0  0  0  0  0  0
  -14.0209   65.2206   20.8325 N   0  0  0  0  0  0  0  0  0  0  0  0
  -12.8476   65.4967   20.1818 C   0  0  0  0  0  0  0  0  0  0  0  0
  -10.2380   62.4027   20.3105 H   0  0  0  0  0  0  0  0  0  0  0  0
  -11.2757   61.3919   21.2102 H   0  0  0  0  0  0  0  0  0  0  0  0
  -14.5195   67.5741   22.6012 O   0  0  0  0  0  0  0  0  0  0  0  0
  -15.3749   68.0162   21.5617 C   0  0  0  0  0  0  0  0  0  0  0  0
  -15.0294   67.0502   23.2388 H   0  0  0  0  0  0  0  0  0  0  0  0
 22 23  1  0  0  0
 23  1  1  0  0  0
  1  2  1  0  0  0
  1  3  1  0  0  0
  2  7  1  0  0  0
  3  4  1  0  0  0
  3  5  1  0  0  0
  5  6  1  0  0  0
  5  7  1  0  0  0
  7 10  1  0  0  0
 10 11  1  0  0  0
 10 19  1  0  0  0
 11 12  2  0  0  0
 12 13  1  0  0  0
 13 14  1  0  0  0
 13 19  2  0  0  0
 14 15  1  0  0  0
 14 16  2  0  0  0
 16 17  1  0  0  0
 17 18  2  0  0  0
 18 19  1  0  0  0
 22 24  1  0  0  0
  4  8  1  0  0  0
  6  9  1  0  0  0
 15 20  1  0  0  0
 15 21  1  0  0  0
M  END
> <minimizedAffinity>
-7.89466

$$$$
6EXI_ADN_A_502


 24 26  0  0  0  0  0  0  0  0999 V2000
  -11.1220   65.0230   19.7990 C   0  0  0  0  0  0  0  0  0  0  0  0
  -11.7162   66.0068   20.6779 O   0  0  0  0  0  0  0  0  0  0  0  0
  -11.9119   63.7405   20.0214 C   0  0  0  0  0  0  0  0  0  0  0  0
  -11.3468   63.0595   21.1378 O   0  0  0  0  0  0  0  0  0  0  0  0
  -13.2976   64.2544   20.4126 C   0  0  0  0  0  0  0  0  0  0  0  0
  -14.0550   63.3901   21.2310 O   0  0  0  0  0  0  0  0  0  0  0  0
  -12.9661   65.5512   21.1709 C   0  0  0  0  0  0  0  0  0  0  0  0
  -11.3355   63.6518   21.9059 H   0  0  0  0  0  0  0  0  0  0  0  0
  -13.5735   63.2216   22.0561 H   0  0  0  0  0  0  0  0  0  0  0  0
  -13.9242   66.6230   20.8851 N   0  0  0  0  0  0  0  0  0  0  0  0
  -14.1758   67.0339   19.6606 C   0  0  0  0  0  0  0  0  0  0  0  0
  -15.0649   68.1020   19.6927 N   0  0  0  0  0  0  0  0  0  0  0  0
  -15.3631   68.3314   21.0089 C   0  0  0  0  0  0  0  0  0  0  0  0
  -16.2091   69.2548   21.6590 C   0  0  0  0  0  0  0  0  0  0  0  0
  -16.9748   70.1789   20.9016 N   0  0  0  0  0  0  0  0  0  0  0  0
  -16.2902   69.2517   22.9936 N   0  0  0  0  0  0  0  0  0  0  0  0
  -15.5877   68.3539   23.7231 C   0  0  0  0  0  0  0  0  0  0  0  0
  -14.7754   67.4622   23.1693 N   0  0  0  0  0  0  0  0  0  0  0  0
  -14.6386   67.4128   21.8072 C   0  0  0  0  0  0  0  0  0  0  0  0
  -16.9139   70.1799   19.9190 H   0  0  0  0  0  0  0  0  0  0  0  0
  -17.5668   70.8190   21.3588 H   0  0  0  0  0  0  0  0  0  0  0  0
  -10.7556   66.9582   18.3512 O   0  0  0  0  0  0  0  0  0  0  0  0
  -11.0348   65.5692   18.3810 C   0  0  0  0  0  0  0  0  0  0  0  0
  -10.7098   67.2591   17.4302 H   0  0  0  0  0  0  0  0  0  0  0  0
 22 23  1  0  0  0
 23  1  1  0  0  0
  1  2  1  0  0  0
  1  3  1  0  0  0
  2  7  1  0  0  0
  3  4  1  0  0  0
  3  5  1  0  0  0
  5  6  1  0  0  0
  5  7  1  0  0  0
  7 10  1  0  0  0
 10 11  1  0  0  0
 10 19  1  0  0  0
 11 12  2  0  0  0
 12 13  1  0  0  0
 13 14  1  0  0  0
 13 19  2  0  0  0
 14 15  1  0  0  0
 14 16  2  0  0  0
 16 17  1  0  0  0
 17 18  2  0  0  0
 18 19  1  0  0  0
 22 24  1  0  0  0
  4  8  1  0  0  0
  6  9  1  0  0  0
 15 20  1  0  0  0
 15 21  1  0  0  0
M  END
> <minimizedAffinity>
-7.70650

$$$$
6EXI_ADN_A_502


 24 26  0  0  0  0  0  0  0  0999 V2000
  -11.1142   65.2357   18.9194 C   0  0  0  0  0  0  0  0  0  0  0  0
  -12.5185   65.1898   19.2645 O   0  0  0  0  0  0  0  0  0  0  0  0
  -10.9794   66.3457   17.8861 C   0  0  0  0  0  0  0  0  0  0  0  0
  -11.2593   65.7937   16.6030 O   0  0  0  0  0  0  0  0  0  0  0  0
  -12.1093   67.3043   18.2628 C   0  0  0  0  0  0  0  0  0  0  0  0
  -12.6224   68.0816   17.2030 O   0  0  0  0  0  0  0  0  0  0  0  0
  -13.1905   66.3469   18.7929 C   0  0  0  0  0  0  0  0  0  0  0  0
  -12.1333   65.3732   16.6155 H   0  0  0  0  0  0  0  0  0  0  0  0
  -12.9680   67.4965   16.5107 H   0  0  0  0  0  0  0  0  0  0  0  0
  -13.9012   66.8972   19.9507 N   0  0  0  0  0  0  0  0  0  0  0  0
  -13.8587   66.3301   21.1373 C   0  0  0  0  0  0  0  0  0  0  0  0
  -14.6770   67.0220   22.0227 N   0  0  0  0  0  0  0  0  0  0  0  0
  -15.2286   68.0620   21.3240 C   0  0  0  0  0  0  0  0  0  0  0  0
  -16.1092   69.1047   21.6823 C   0  0  0  0  0  0  0  0  0  0  0  0
  -16.5792   69.2167   23.0166 N   0  0  0  0  0  0  0  0  0  0  0  0
  -16.4953   69.9911   20.7587 N   0  0  0  0  0  0  0  0  0  0  0  0
  -16.0282   69.9109   19.4909 C   0  0  0  0  0  0  0  0  0  0  0  0
  -15.1994   68.9532   19.0940 N   0  0  0  0  0  0  0  0  0  0  0  0
  -14.7677   68.0074   19.9859 C   0  0  0  0  0  0  0  0  0  0  0  0
  -16.2939   68.5632   23.6955 H   0  0  0  0  0  0  0  0  0  0  0  0
  -17.1904   69.9479   23.2634 H   0  0  0  0  0  0  0  0  0  0  0  0
  -10.8022   64.5722   21.2512 O   0  0  0  0  0  0  0  0  0  0  0  0
  -10.2658   65.3285   20.1796 C   0  0  0  0  0  0  0  0  0  0  0  0
  -10.2295   64.6622   22.0289 H   0  0  0  0  0  0  0  0  0  0  0  0
 22 23  1  0  0  0
 23  1  1  0  0  0
  1  2  1  0  0  0
  1  3  1  0  0  0
  2  7  1  0  0  0
  3  4  1  0  0  0
  3  5  1  0  0  0
  5  6  1  0  0  0
  5  7  1  0  0  0
  7 10  1  0  0  0
 10 11  1  0  0  0
 10 19  1  0  0  0
 11 12  2  0  0  0
 12 13  1  0  0  0
 13 14  1  0  0  0
 13 19  2  0  0  0
 14 15  1  0  0  0
 14 16  2  0  0  0
 16 17  1  0  0  0
 17 18  2  0  0  0
 18 19  1  0  0  0
 22 24  1  0  0  0
  4  8  1  0  0  0
  6  9  1  0  0  0
 15 20  1  0  0  0
 15 21  1  0  0  0
M  END
> <minimizedAffinity>
-7.69903

$$$$
6EXI_ADN_A_502


 24 26  0  0  0  0  0  0  0  0999 V2000
  -14.3400   67.3650   21.7118 C   0  0  0  0  0  0  0  0  0  0  0  0
  -13.1711   67.7822   20.9681 O   0  0  0  0  0  0  0  0  0  0  0  0
  -15.5116   68.1161   21.0943 C   0  0  0  0  0  0  0  0  0  0  0  0
  -15.5946   69.3958   21.7148 O   0  0  0  0  0  0  0  0  0  0  0  0
  -15.0715   68.3046   19.6423 C   0  0  0  0  0  0  0  0  0  0  0  0
  -15.6174   69.4273   18.9851 O   0  0  0  0  0  0  0  0  0  0  0  0
  -13.5465   68.4559   19.7773 C   0  0  0  0  0  0  0  0  0  0  0  0
  -14.7442   69.8538   21.6262 H   0  0  0  0  0  0  0  0  0  0  0  0
  -15.3681   70.2342   19.4623 H   0  0  0  0  0  0  0  0  0  0  0  0
  -12.8231   67.7858   18.6929 N   0  0  0  0  0  0  0  0  0  0  0  0
  -13.0833   68.0185   17.4242 C   0  0  0  0  0  0  0  0  0  0  0  0
  -12.3004   67.1968   16.6216 N   0  0  0  0  0  0  0  0  0  0  0  0
  -11.5271   66.4412   17.4612 C   0  0  0  0  0  0  0  0  0  0  0  0
  -10.5383   65.4594   17.2389 C   0  0  0  0  0  0  0  0  0  0  0  0
  -10.1677   65.1049   15.9156 N   0  0  0  0  0  0  0  0  0  0  0  0
   -9.9474   64.8676   18.2821 N   0  0  0  0  0  0  0  0  0  0  0  0
  -10.2718   65.2210   19.5476 C   0  0  0  0  0  0  0  0  0  0  0  0
  -11.1938   66.1361   19.8200 N   0  0  0  0  0  0  0  0  0  0  0  0
  -11.8442   66.7783   18.7998 C   0  0  0  0  0  0  0  0  0  0  0  0
  -10.6038   65.5416   15.1486 H   0  0  0  0  0  0  0  0  0  0  0  0
   -9.4746   64.4222   15.7647 H   0  0  0  0  0  0  0  0  0  0  0  0
  -13.1360   65.2415   21.8391 O   0  0  0  0  0  0  0  0  0  0  0  0
  -14.4155   65.8457   21.7636 C   0  0  0  0  0  0  0  0  0  0  0  0
  -13.2351   64.2771   21.8699 H   0  0  0  0  0  0  0  0  0  0  0  0
 22 23  1  0  0  0
 23  1  1  0  0  0
  1  2  1  0  0  0
  1  3  1  0  0  0
  2  7  1  0  0  0
  3  4  1  0  0  0
  3  5  1  0  0  0
  5  6  1  0  0  0
  5  7  1  0  0  0
  7 10  1  0  0  0
 10 11  1  0  0  0
 10 19  1  0  0  0
 11 12  2  0  0  0
 12 13  1  0  0  0
 13 14  1  0  0  0
 13 19  2  0  0  0
 14 15  1  0  0  0
 14 16  2  0  0  0
 16 17  1  0  0  0
 17 18  2  0  0  0
 18 19  1  0  0  0
 22 24  1  0  0  0
  4  8  1  0  0  0
  6  9  1  0  0  0
 15 20  1  0  0  0
 15 21  1  0  0  0
M  END
> <minimizedAffinity>
-7.62766

$$$$
