3IJH_KO2_B_214


 26 26  0  0  0  0  0  0  0  0999 V2000
   -9.4597   -1.7603   -2.0638 C   0  0  0  0  0  0  0  0  0  0  0  0
  -10.3324   -0.8368   -1.3712 O   0  0  0  0  0  0  0  0  0  0  0  0
  -10.8841    0.2039   -2.2065 C   0  0  0  0  0  0  0  0  0  0  0  0
  -11.7799   -0.4436   -3.2766 C   0  0  0  0  0  0  0  0  0  0  0  0
  -12.8618   -1.1482   -2.6513 O   0  0  0  0  0  0  0  0  0  0  0  0
  -10.8851   -1.3630   -4.0869 C   0  0  0  0  0  0  0  0  0  0  0  0
  -11.6757   -2.0382   -5.0681 O   0  0  0  0  0  0  0  0  0  0  0  0
  -10.2663   -2.4359   -3.1721 C   0  0  0  0  0  0  0  0  0  0  0  0
  -11.2432   -3.3242   -2.6410 O   0  0  0  0  0  0  0  0  0  0  0  0
  -12.5052   -1.8241   -2.0541 H   0  0  0  0  0  0  0  0  0  0  0  0
  -12.3638   -2.5596   -4.6259 H   0  0  0  0  0  0  0  0  0  0  0  0
  -11.8692   -2.8259   -2.0926 H   0  0  0  0  0  0  0  0  0  0  0  0
   -9.0390   -2.8493   -1.0763 C   0  0  0  0  0  0  0  0  0  0  0  0
   -8.8880   -4.0168   -1.5103 O   0  0  0  0  0  0  0  0  0  0  0  0
   -8.9488   -2.4922    0.1217 O   0  0  0  0  0  0  0  0  0  0  0  0
   -8.9745   -4.1908   -2.4269 H   0  0  0  0  0  0  0  0  0  0  0  0
  -11.7668    1.1364   -1.3746 C   0  0  0  0  0  0  0  0  0  0  0  0
  -12.7109    1.8040   -2.2132 O   0  0  0  0  0  0  0  0  0  0  0  0
  -12.2383    2.3270   -2.8795 H   0  0  0  0  0  0  0  0  0  0  0  0
  -10.8694    2.1633   -0.6691 C   0  0  0  0  0  0  0  0  0  0  0  0
   -9.9522    1.5029    0.2022 O   0  0  0  0  0  0  0  0  0  0  0  0
  -10.4450    1.0058    0.8737 H   0  0  0  0  0  0  0  0  0  0  0  0
   -8.4003   -0.9530   -2.5498 O   0  0  0  0  0  0  0  0  0  0  0  0
   -7.3431   -1.4950   -3.3176 C   0  0  0  0  0  0  0  0  0  0  0  0
   -6.6275    0.7335   -2.3643 C   0  0  0  0  0  0  0  0  0  0  0  0
   -6.1921   -0.6835   -2.7084 C   0  0  0  0  0  0  0  0  0  0  0  0
 15 13  2  0  0  0
 14 13  1  0  0  0
 13  1  1  0  0  0
  8  1  1  0  0  0
  1  2  1  0  0  0
  1 23  1  0  0  0
  2  3  1  0  0  0
  4  3  1  0  0  0
  3 17  1  0  0  0
 17 18  1  0  0  0
 17 20  1  0  0  0
 20 21  1  0  0  0
  5  4  1  0  0  0
  6  4  1  0  0  0
  7  6  1  0  0  0
  8  6  1  0  0  0
  9  8  1  0  0  0
 23 24  1  0  0  0
 26 25  2  0  0  0
 24 26  1  0  0  0
 14 16  1  0  0  0
 21 22  1  0  0  0
 18 19  1  0  0  0
  5 10  1  0  0  0
  7 11  1  0  0  0
  9 12  1  0  0  0
M  END
> <minimizedAffinity>
-6.92901

$$$$
3IJH_KO2_B_214


 26 26  0  0  0  0  0  0  0  0999 V2000
   -9.3792   -0.5377   -1.2787 C   0  0  0  0  0  0  0  0  0  0  0  0
  -10.5460   -0.5498   -2.1346 O   0  0  0  0  0  0  0  0  0  0  0  0
  -10.4254   -1.3988   -3.2964 C   0  0  0  0  0  0  0  0  0  0  0  0
  -10.2749   -2.8571   -2.8299 C   0  0  0  0  0  0  0  0  0  0  0  0
  -11.4363   -3.2589   -2.0899 O   0  0  0  0  0  0  0  0  0  0  0  0
   -9.0104   -2.9119   -1.9927 C   0  0  0  0  0  0  0  0  0  0  0  0
   -8.8451   -4.2373   -1.4830 O   0  0  0  0  0  0  0  0  0  0  0  0
   -9.1365   -1.9638   -0.7860 C   0  0  0  0  0  0  0  0  0  0  0  0
  -10.1452   -2.3805    0.1275 O   0  0  0  0  0  0  0  0  0  0  0  0
  -11.5540   -2.6701   -1.3281 H   0  0  0  0  0  0  0  0  0  0  0  0
   -9.6100   -4.4702   -0.9339 H   0  0  0  0  0  0  0  0  0  0  0  0
  -11.0073   -2.3727   -0.3171 H   0  0  0  0  0  0  0  0  0  0  0  0
   -9.6962    0.3210   -0.0538 C   0  0  0  0  0  0  0  0  0  0  0  0
  -10.8624    0.2878    0.4077 O   0  0  0  0  0  0  0  0  0  0  0  0
   -8.7653    1.0562    0.3509 O   0  0  0  0  0  0  0  0  0  0  0  0
  -11.4954   -0.2970    0.0399 H   0  0  0  0  0  0  0  0  0  0  0  0
  -11.6971   -1.3189   -4.1433 C   0  0  0  0  0  0  0  0  0  0  0  0
  -11.6854   -2.3300   -5.1520 O   0  0  0  0  0  0  0  0  0  0  0  0
  -10.9142   -2.2042   -5.7269 H   0  0  0  0  0  0  0  0  0  0  0  0
  -11.7699    0.0714   -4.7909 C   0  0  0  0  0  0  0  0  0  0  0  0
  -11.8083   -0.0465   -6.2126 O   0  0  0  0  0  0  0  0  0  0  0  0
  -11.0046   -0.4929   -6.5218 H   0  0  0  0  0  0  0  0  0  0  0  0
   -8.3379   -0.0413   -2.1029 O   0  0  0  0  0  0  0  0  0  0  0  0
   -6.9888   -0.4185   -1.9063 C   0  0  0  0  0  0  0  0  0  0  0  0
   -5.5022    0.8346   -3.5209 C   0  0  0  0  0  0  0  0  0  0  0  0
   -6.5124   -0.2921   -3.3594 C   0  0  0  0  0  0  0  0  0  0  0  0
 15 13  2  0  0  0
 14 13  1  0  0  0
 13  1  1  0  0  0
  8  1  1  0  0  0
  1  2  1  0  0  0
  1 23  1  0  0  0
  2  3  1  0  0  0
  4  3  1  0  0  0
  3 17  1  0  0  0
 17 18  1  0  0  0
 17 20  1  0  0  0
 20 21  1  0  0  0
  5  4  1  0  0  0
  6  4  1  0  0  0
  7  6  1  0  0  0
  8  6  1  0  0  0
  9  8  1  0  0  0
 23 24  1  0  0  0
 26 25  2  0  0  0
 24 26  1  0  0  0
 14 16  1  0  0  0
 21 22  1  0  0  0
 18 19  1  0  0  0
  5 10  1  0  0  0
  7 11  1  0  0  0
  9 12  1  0  0  0
M  END
> <minimizedAffinity>
-6.92376

$$$$
3IJH_KO2_B_214


 26 26  0  0  0  0  0  0  0  0999 V2000
   -9.5394   -1.6613   -3.2608 C   0  0  0  0  0  0  0  0  0  0  0  0
   -9.0354   -0.9145   -2.1284 O   0  0  0  0  0  0  0  0  0  0  0  0
  -10.0552   -0.4522   -1.2165 C   0  0  0  0  0  0  0  0  0  0  0  0
  -10.7518   -1.6740   -0.5929 C   0  0  0  0  0  0  0  0  0  0  0  0
   -9.8029   -2.4583    0.1436 O   0  0  0  0  0  0  0  0  0  0  0  0
  -11.3714   -2.4480   -1.7418 C   0  0  0  0  0  0  0  0  0  0  0  0
  -11.9904   -3.6299   -1.2284 O   0  0  0  0  0  0  0  0  0  0  0  0
  -10.2762   -2.8902   -2.7297 C   0  0  0  0  0  0  0  0  0  0  0  0
   -9.3768   -3.8320   -2.1557 O   0  0  0  0  0  0  0  0  0  0  0  0
   -9.0886   -2.7413   -0.4485 H   0  0  0  0  0  0  0  0  0  0  0  0
  -11.3231   -4.1789   -0.7877 H   0  0  0  0  0  0  0  0  0  0  0  0
   -8.9182   -3.4247   -1.4042 H   0  0  0  0  0  0  0  0  0  0  0  0
   -8.3433   -2.1610   -4.0719 C   0  0  0  0  0  0  0  0  0  0  0  0
   -7.3187   -2.5321   -3.4500 O   0  0  0  0  0  0  0  0  0  0  0  0
   -8.4620   -2.0884   -5.3175 O   0  0  0  0  0  0  0  0  0  0  0  0
   -7.3217   -2.5547   -2.5133 H   0  0  0  0  0  0  0  0  0  0  0  0
   -9.4209    0.3443   -0.0746 C   0  0  0  0  0  0  0  0  0  0  0  0
  -10.1227    0.1053    1.1462 O   0  0  0  0  0  0  0  0  0  0  0  0
  -11.0480    0.3785    1.0460 H   0  0  0  0  0  0  0  0  0  0  0  0
   -9.4723    1.8375   -0.4289 C   0  0  0  0  0  0  0  0  0  0  0  0
  -10.5528    2.4713    0.2549 O   0  0  0  0  0  0  0  0  0  0  0  0
  -11.3897    2.0587   -0.0104 H   0  0  0  0  0  0  0  0  0  0  0  0
  -10.3837   -0.7486   -3.9422 O   0  0  0  0  0  0  0  0  0  0  0  0
  -11.5400   -1.1786   -4.6344 C   0  0  0  0  0  0  0  0  0  0  0  0
  -13.4478    0.0338   -3.5042 C   0  0  0  0  0  0  0  0  0  0  0  0
  -12.3441    0.1254   -4.5479 C   0  0  0  0  0  0  0  0  0  0  0  0
 15 13  2  0  0  0
 14 13  1  0  0  0
 13  1  1  0  0  0
  8  1  1  0  0  0
  1  2  1  0  0  0
  1 23  1  0  0  0
  2  3  1  0  0  0
  4  3  1  0  0  0
  3 17  1  0  0  0
 17 18  1  0  0  0
 17 20  1  0  0  0
 20 21  1  0  0  0
  5  4  1  0  0  0
  6  4  1  0  0  0
  7  6  1  0  0  0
  8  6  1  0  0  0
  9  8  1  0  0  0
 23 24  1  0  0  0
 26 25  2  0  0  0
 24 26  1  0  0  0
 14 16  1  0  0  0
 21 22  1  0  0  0
 18 19  1  0  0  0
  5 10  1  0  0  0
  7 11  1  0  0  0
  9 12  1  0  0  0
M  END
> <minimizedAffinity>
-6.74048

$$$$
3IJH_KO2_B_214


 26 26  0  0  0  0  0  0  0  0999 V2000
  -10.5746   -0.8121   -2.8652 C   0  0  0  0  0  0  0  0  0  0  0  0
   -9.3751   -0.5103   -3.6163 O   0  0  0  0  0  0  0  0  0  0  0  0
   -8.1461   -0.7183   -2.8873 C   0  0  0  0  0  0  0  0  0  0  0  0
   -8.0206   -2.2131   -2.5456 C   0  0  0  0  0  0  0  0  0  0  0  0
   -7.9736   -2.9905   -3.7503 O   0  0  0  0  0  0  0  0  0  0  0  0
   -9.2203   -2.5587   -1.6829 C   0  0  0  0  0  0  0  0  0  0  0  0
   -9.1883   -3.9546   -1.3766 O   0  0  0  0  0  0  0  0  0  0  0  0
  -10.5223   -2.2840   -2.4577 C   0  0  0  0  0  0  0  0  0  0  0  0
  -10.6760   -3.1438   -3.5813 O   0  0  0  0  0  0  0  0  0  0  0  0
   -8.7756   -2.8283   -4.2713 H   0  0  0  0  0  0  0  0  0  0  0  0
   -9.2200   -4.4671   -2.1995 H   0  0  0  0  0  0  0  0  0  0  0  0
   -9.9496   -2.9925   -4.2060 H   0  0  0  0  0  0  0  0  0  0  0  0
  -11.7754   -0.6383   -3.7959 C   0  0  0  0  0  0  0  0  0  0  0  0
  -12.9092   -0.9628   -3.3676 O   0  0  0  0  0  0  0  0  0  0  0  0
  -11.5118   -0.2467   -4.9569 O   0  0  0  0  0  0  0  0  0  0  0  0
  -13.0116   -1.2450   -2.4800 H   0  0  0  0  0  0  0  0  0  0  0  0
   -6.9453   -0.3465   -3.7595 C   0  0  0  0  0  0  0  0  0  0  0  0
   -5.7915   -1.0851   -3.3555 O   0  0  0  0  0  0  0  0  0  0  0  0
   -5.5851   -0.8816   -2.4299 H   0  0  0  0  0  0  0  0  0  0  0  0
   -6.6831    1.1599   -3.6188 C   0  0  0  0  0  0  0  0  0  0  0  0
   -7.6757    1.9030   -4.3253 O   0  0  0  0  0  0  0  0  0  0  0  0
   -7.6469    1.6679   -5.2660 H   0  0  0  0  0  0  0  0  0  0  0  0
  -10.5389    0.0794   -1.7634 O   0  0  0  0  0  0  0  0  0  0  0  0
  -11.3808   -0.0917   -0.6397 C   0  0  0  0  0  0  0  0  0  0  0  0
  -13.5196    1.2543   -0.6708 C   0  0  0  0  0  0  0  0  0  0  0  0
  -12.0000    1.3121   -0.6146 C   0  0  0  0  0  0  0  0  0  0  0  0
 15 13  2  0  0  0
 14 13  1  0  0  0
 13  1  1  0  0  0
  8  1  1  0  0  0
  1  2  1  0  0  0
  1 23  1  0  0  0
  2  3  1  0  0  0
  4  3  1  0  0  0
  3 17  1  0  0  0
 17 18  1  0  0  0
 17 20  1  0  0  0
 20 21  1  0  0  0
  5  4  1  0  0  0
  6  4  1  0  0  0
  7  6  1  0  0  0
  8  6  1  0  0  0
  9  8  1  0  0  0
 23 24  1  0  0  0
 26 25  2  0  0  0
 24 26  1  0  0  0
 14 16  1  0  0  0
 21 22  1  0  0  0
 18 19  1  0  0  0
  5 10  1  0  0  0
  7 11  1  0  0  0
  9 12  1  0  0  0
M  END
> <minimizedAffinity>
-6.35528

$$$$
3IJH_KO2_B_214


 26 26  0  0  0  0  0  0  0  0999 V2000
  -11.3697   -0.1421   -1.1836 C   0  0  0  0  0  0  0  0  0  0  0  0
  -10.5452   -1.1854   -1.7543 O   0  0  0  0  0  0  0  0  0  0  0  0
   -9.3892   -0.7060   -2.4746 C   0  0  0  0  0  0  0  0  0  0  0  0
   -8.4598    0.0235   -1.4892 C   0  0  0  0  0  0  0  0  0  0  0  0
   -8.0178   -0.8820   -0.4681 O   0  0  0  0  0  0  0  0  0  0  0  0
   -9.2584    1.1838   -0.9244 C   0  0  0  0  0  0  0  0  0  0  0  0
   -8.4620    1.8713    0.0434 O   0  0  0  0  0  0  0  0  0  0  0  0
  -10.5129    0.6577   -0.2030 C   0  0  0  0  0  0  0  0  0  0  0  0
  -10.1923   -0.1055    0.9547 O   0  0  0  0  0  0  0  0  0  0  0  0
   -8.7875   -1.2448   -0.0025 H   0  0  0  0  0  0  0  0  0  0  0  0
   -8.2238    1.2608    0.7586 H   0  0  0  0  0  0  0  0  0  0  0  0
   -9.6789   -0.8866    0.6951 H   0  0  0  0  0  0  0  0  0  0  0  0
  -12.4872   -0.8055   -0.3779 C   0  0  0  0  0  0  0  0  0  0  0  0
  -13.2504   -0.0704    0.2939 O   0  0  0  0  0  0  0  0  0  0  0  0
  -12.5027   -2.0586   -0.3985 O   0  0  0  0  0  0  0  0  0  0  0  0
  -13.1651    0.8615    0.2461 H   0  0  0  0  0  0  0  0  0  0  0  0
   -8.6042   -1.8830   -3.0570 C   0  0  0  0  0  0  0  0  0  0  0  0
   -8.5483   -1.7855   -4.4809 O   0  0  0  0  0  0  0  0  0  0  0  0
   -9.4488   -1.7967   -4.8414 H   0  0  0  0  0  0  0  0  0  0  0  0
   -9.2984   -3.1891   -2.6447 C   0  0  0  0  0  0  0  0  0  0  0  0
   -8.7748   -3.6568   -1.4022 O   0  0  0  0  0  0  0  0  0  0  0  0
   -7.8239   -3.8247   -1.4948 H   0  0  0  0  0  0  0  0  0  0  0  0
  -11.8068    0.6166   -2.2987 O   0  0  0  0  0  0  0  0  0  0  0  0
  -12.9864    0.2877   -3.0068 C   0  0  0  0  0  0  0  0  0  0  0  0
  -12.0577   -0.8516   -5.0627 C   0  0  0  0  0  0  0  0  0  0  0  0
  -12.4467    0.4770   -4.4307 C   0  0  0  0  0  0  0  0  0  0  0  0
 15 13  2  0  0  0
 14 13  1  0  0  0
 13  1  1  0  0  0
  8  1  1  0  0  0
  1  2  1  0  0  0
  1 23  1  0  0  0
  2  3  1  0  0  0
  4  3  1  0  0  0
  3 17  1  0  0  0
 17 18  1  0  0  0
 17 20  1  0  0  0
 20 21  1  0  0  0
  5  4  1  0  0  0
  6  4  1  0  0  0
  7  6  1  0  0  0
  8  6  1  0  0  0
  9  8  1  0  0  0
 23 24  1  0  0  0
 26 25  2  0  0  0
 24 26  1  0  0  0
 14 16  1  0  0  0
 21 22  1  0  0  0
 18 19  1  0  0  0
  5 10  1  0  0  0
  7 11  1  0  0  0
  9 12  1  0  0  0
M  END
> <minimizedAffinity>
-6.22456

$$$$
3IJH_KO2_B_214


 26 26  0  0  0  0  0  0  0  0999 V2000
  -10.3347   -1.0766   -3.5865 C   0  0  0  0  0  0  0  0  0  0  0  0
   -9.8985    0.2918   -3.7631 O   0  0  0  0  0  0  0  0  0  0  0  0
   -8.9213    0.7364   -2.7973 C   0  0  0  0  0  0  0  0  0  0  0  0
   -7.6417   -0.1007   -2.9671 C   0  0  0  0  0  0  0  0  0  0  0  0
   -7.1016    0.0882   -4.2826 O   0  0  0  0  0  0  0  0  0  0  0  0
   -8.0345   -1.5433   -2.7069 C   0  0  0  0  0  0  0  0  0  0  0  0
   -6.8927   -2.3807   -2.9040 O   0  0  0  0  0  0  0  0  0  0  0  0
   -9.1125   -1.9851   -3.7136 C   0  0  0  0  0  0  0  0  0  0  0  0
   -8.6240   -2.0210   -5.0499 O   0  0  0  0  0  0  0  0  0  0  0  0
   -7.7637   -0.1674   -4.9438 H   0  0  0  0  0  0  0  0  0  0  0  0
   -6.5776   -2.2882   -3.8167 H   0  0  0  0  0  0  0  0  0  0  0  0
   -8.3492   -1.1302   -5.3177 H   0  0  0  0  0  0  0  0  0  0  0  0
  -11.2843   -1.4253   -4.7331 C   0  0  0  0  0  0  0  0  0  0  0  0
  -11.4411   -2.6353   -5.0258 O   0  0  0  0  0  0  0  0  0  0  0  0
  -11.7807   -0.4502   -5.3442 O   0  0  0  0  0  0  0  0  0  0  0  0
  -11.0291   -3.2995   -4.5091 H   0  0  0  0  0  0  0  0  0  0  0  0
   -8.5493    2.1976   -3.0567 C   0  0  0  0  0  0  0  0  0  0  0  0
   -7.1441    2.3890   -2.8866 O   0  0  0  0  0  0  0  0  0  0  0  0
   -6.8934    2.1551   -1.9793 H   0  0  0  0  0  0  0  0  0  0  0  0
   -9.3253    3.0846   -2.0724 C   0  0  0  0  0  0  0  0  0  0  0  0
   -8.4389    3.9936   -1.4209 O   0  0  0  0  0  0  0  0  0  0  0  0
   -7.7682    3.4946   -0.9289 H   0  0  0  0  0  0  0  0  0  0  0  0
  -10.9222   -1.0996   -2.2964 O   0  0  0  0  0  0  0  0  0  0  0  0
  -11.3393   -2.3073   -1.6896 C   0  0  0  0  0  0  0  0  0  0  0  0
   -9.9308   -1.8097    0.3489 C   0  0  0  0  0  0  0  0  0  0  0  0
  -11.3377   -1.8312   -0.2309 C   0  0  0  0  0  0  0  0  0  0  0  0
 15 13  2  0  0  0
 14 13  1  0  0  0
 13  1  1  0  0  0
  8  1  1  0  0  0
  1  2  1  0  0  0
  1 23  1  0  0  0
  2  3  1  0  0  0
  4  3  1  0  0  0
  3 17  1  0  0  0
 17 18  1  0  0  0
 17 20  1  0  0  0
 20 21  1  0  0  0
  5  4  1  0  0  0
  6  4  1  0  0  0
  7  6  1  0  0  0
  8  6  1  0  0  0
  9  8  1  0  0  0
 23 24  1  0  0  0
 26 25  2  0  0  0
 24 26  1  0  0  0
 14 16  1  0  0  0
 21 22  1  0  0  0
 18 19  1  0  0  0
  5 10  1  0  0  0
  7 11  1  0  0  0
  9 12  1  0  0  0
M  END
> <minimizedAffinity>
-6.18853

$$$$
3IJH_KO2_B_214


 26 26  0  0  0  0  0  0  0  0999 V2000
  -11.3119   -0.7127   -1.7163 C   0  0  0  0  0  0  0  0  0  0  0  0
   -9.9313   -1.1348   -1.6170 O   0  0  0  0  0  0  0  0  0  0  0  0
   -8.9678   -0.0843   -1.8477 C   0  0  0  0  0  0  0  0  0  0  0  0
   -9.1248    0.9810   -0.7489 C   0  0  0  0  0  0  0  0  0  0  0  0
   -8.8683    0.4014    0.5380 O   0  0  0  0  0  0  0  0  0  0  0  0
  -10.5398    1.5161   -0.8686 C   0  0  0  0  0  0  0  0  0  0  0  0
  -10.7648    2.4763    0.1664 O   0  0  0  0  0  0  0  0  0  0  0  0
  -11.5531    0.3740   -0.6693 C   0  0  0  0  0  0  0  0  0  0  0  0
  -11.5202   -0.1554    0.6513 O   0  0  0  0  0  0  0  0  0  0  0  0
   -9.4821   -0.3343    0.6894 H   0  0  0  0  0  0  0  0  0  0  0  0
  -10.6484    2.0527    1.0312 H   0  0  0  0  0  0  0  0  0  0  0  0
  -10.6444   -0.5339    0.8263 H   0  0  0  0  0  0  0  0  0  0  0  0
  -12.2008   -1.9026   -1.3527 C   0  0  0  0  0  0  0  0  0  0  0  0
  -13.4449   -1.7574   -1.4261 O   0  0  0  0  0  0  0  0  0  0  0  0
  -11.6023   -2.9210   -0.9338 O   0  0  0  0  0  0  0  0  0  0  0  0
  -13.8046   -0.9568   -1.7541 H   0  0  0  0  0  0  0  0  0  0  0  0
   -7.5460   -0.6400   -1.7456 C   0  0  0  0  0  0  0  0  0  0  0  0
   -6.6157    0.4182   -1.5118 O   0  0  0  0  0  0  0  0  0  0  0  0
   -6.6556    1.0518   -2.2453 H   0  0  0  0  0  0  0  0  0  0  0  0
   -7.2048   -1.3619   -3.0573 C   0  0  0  0  0  0  0  0  0  0  0  0
   -7.7907   -2.6631   -3.0726 O   0  0  0  0  0  0  0  0  0  0  0  0
   -7.4432   -3.1829   -2.3310 H   0  0  0  0  0  0  0  0  0  0  0  0
  -11.4482   -0.2508   -3.0498 O   0  0  0  0  0  0  0  0  0  0  0  0
  -11.3368   -1.1255   -4.1558 C   0  0  0  0  0  0  0  0  0  0  0  0
  -12.2903    0.9748   -5.1887 C   0  0  0  0  0  0  0  0  0  0  0  0
  -12.4553   -0.5286   -5.0202 C   0  0  0  0  0  0  0  0  0  0  0  0
 15 13  2  0  0  0
 14 13  1  0  0  0
 13  1  1  0  0  0
  8  1  1  0  0  0
  1  2  1  0  0  0
  1 23  1  0  0  0
  2  3  1  0  0  0
  4  3  1  0  0  0
  3 17  1  0  0  0
 17 18  1  0  0  0
 17 20  1  0  0  0
 20 21  1  0  0  0
  5  4  1  0  0  0
  6  4  1  0  0  0
  7  6  1  0  0  0
  8  6  1  0  0  0
  9  8  1  0  0  0
 23 24  1  0  0  0
 26 25  2  0  0  0
 24 26  1  0  0  0
 14 16  1  0  0  0
 21 22  1  0  0  0
 18 19  1  0  0  0
  5 10  1  0  0  0
  7 11  1  0  0  0
  9 12  1  0  0  0
M  END
> <minimizedAffinity>
-6.09775

$$$$
3IJH_KO2_B_214


 26 26  0  0  0  0  0  0  0  0999 V2000
   -9.6946   -0.0751   -1.4428 C   0  0  0  0  0  0  0  0  0  0  0  0
  -10.8359   -0.5074   -2.2203 O   0  0  0  0  0  0  0  0  0  0  0  0
  -10.5351   -0.8248   -3.5965 C   0  0  0  0  0  0  0  0  0  0  0  0
   -9.5711   -2.0234   -3.6283 C   0  0  0  0  0  0  0  0  0  0  0  0
  -10.1883   -3.1670   -3.0208 O   0  0  0  0  0  0  0  0  0  0  0  0
   -8.3177   -1.5861   -2.8931 C   0  0  0  0  0  0  0  0  0  0  0  0
   -7.4005   -2.6815   -2.8418 O   0  0  0  0  0  0  0  0  0  0  0  0
   -8.6647   -1.2040   -1.4424 C   0  0  0  0  0  0  0  0  0  0  0  0
   -9.1118   -2.3197   -0.6802 O   0  0  0  0  0  0  0  0  0  0  0  0
  -10.4343   -2.9544   -2.1069 H   0  0  0  0  0  0  0  0  0  0  0  0
   -7.8108   -3.4250   -2.3731 H   0  0  0  0  0  0  0  0  0  0  0  0
   -9.9258   -2.6733   -1.0715 H   0  0  0  0  0  0  0  0  0  0  0  0
  -10.1518    0.1266    0.0024 C   0  0  0  0  0  0  0  0  0  0  0  0
   -9.2746    0.2915    0.8841 O   0  0  0  0  0  0  0  0  0  0  0  0
  -11.3861    0.0360    0.2002 O   0  0  0  0  0  0  0  0  0  0  0  0
   -8.3714    0.3482    0.6416 H   0  0  0  0  0  0  0  0  0  0  0  0
  -11.8094   -1.2436   -4.3326 C   0  0  0  0  0  0  0  0  0  0  0  0
  -11.5321   -2.3183   -5.2315 O   0  0  0  0  0  0  0  0  0  0  0  0
  -10.8706   -2.0337   -5.8814 H   0  0  0  0  0  0  0  0  0  0  0  0
  -12.3495   -0.0333   -5.1080 C   0  0  0  0  0  0  0  0  0  0  0  0
  -11.5024    1.0983   -4.9115 O   0  0  0  0  0  0  0  0  0  0  0  0
  -11.4732    1.3203   -3.9677 H   0  0  0  0  0  0  0  0  0  0  0  0
   -9.2430    1.0996   -2.0958 O   0  0  0  0  0  0  0  0  0  0  0  0
   -9.8561    2.3555   -1.8773 C   0  0  0  0  0  0  0  0  0  0  0  0
   -8.6257    3.6047   -0.0573 C   0  0  0  0  0  0  0  0  0  0  0  0
   -8.5973    3.1524   -1.5100 C   0  0  0  0  0  0  0  0  0  0  0  0
 15 13  2  0  0  0
 14 13  1  0  0  0
 13  1  1  0  0  0
  8  1  1  0  0  0
  1  2  1  0  0  0
  1 23  1  0  0  0
  2  3  1  0  0  0
  4  3  1  0  0  0
  3 17  1  0  0  0
 17 18  1  0  0  0
 17 20  1  0  0  0
 20 21  1  0  0  0
  5  4  1  0  0  0
  6  4  1  0  0  0
  7  6  1  0  0  0
  8  6  1  0  0  0
  9  8  1  0  0  0
 23 24  1  0  0  0
 26 25  2  0  0  0
 24 26  1  0  0  0
 14 16  1  0  0  0
 21 22  1  0  0  0
 18 19  1  0  0  0
  5 10  1  0  0  0
  7 11  1  0  0  0
  9 12  1  0  0  0
M  END
> <minimizedAffinity>
-6.05733

$$$$
3IJH_KO2_B_214


 26 26  0  0  0  0  0  0  0  0999 V2000
   -9.3271    0.5873   -1.7760 C   0  0  0  0  0  0  0  0  0  0  0  0
  -10.3992   -0.1221   -1.1117 O   0  0  0  0  0  0  0  0  0  0  0  0
  -10.9423   -1.2265   -1.8670 C   0  0  0  0  0  0  0  0  0  0  0  0
   -9.8413   -2.2839   -2.0581 C   0  0  0  0  0  0  0  0  0  0  0  0
   -9.4041   -2.7746   -0.7830 O   0  0  0  0  0  0  0  0  0  0  0  0
   -8.7237   -1.6058   -2.8289 C   0  0  0  0  0  0  0  0  0  0  0  0
   -7.6428   -2.5272   -2.9911 O   0  0  0  0  0  0  0  0  0  0  0  0
   -8.1902   -0.4012   -2.0319 C   0  0  0  0  0  0  0  0  0  0  0  0
   -7.5539   -0.7919   -0.8202 O   0  0  0  0  0  0  0  0  0  0  0  0
   -9.0748   -2.0356   -0.2478 H   0  0  0  0  0  0  0  0  0  0  0  0
   -7.3178   -2.8012   -2.1192 H   0  0  0  0  0  0  0  0  0  0  0  0
   -8.1972   -1.2360   -0.2459 H   0  0  0  0  0  0  0  0  0  0  0  0
   -8.7972    1.6548   -0.8179 C   0  0  0  0  0  0  0  0  0  0  0  0
   -7.7713    2.2950   -1.1525 O   0  0  0  0  0  0  0  0  0  0  0  0
   -9.4016    1.7528    0.2757 O   0  0  0  0  0  0  0  0  0  0  0  0
   -7.3860    2.1554   -1.9951 H   0  0  0  0  0  0  0  0  0  0  0  0
  -12.0816   -1.8885   -1.0895 C   0  0  0  0  0  0  0  0  0  0  0  0
  -12.1651   -3.2761   -1.4177 O   0  0  0  0  0  0  0  0  0  0  0  0
  -12.3321   -3.3740   -2.3682 H   0  0  0  0  0  0  0  0  0  0  0  0
  -13.3969   -1.1818   -1.4477 C   0  0  0  0  0  0  0  0  0  0  0  0
  -14.2359   -1.0852   -0.2974 O   0  0  0  0  0  0  0  0  0  0  0  0
  -14.4393   -1.9753    0.0301 H   0  0  0  0  0  0  0  0  0  0  0  0
   -9.9150    1.0900   -2.9642 O   0  0  0  0  0  0  0  0  0  0  0  0
  -10.7600    2.2244   -2.9546 C   0  0  0  0  0  0  0  0  0  0  0  0
   -8.9565    3.2357   -4.4078 C   0  0  0  0  0  0  0  0  0  0  0  0
  -10.4048    2.7732   -4.3429 C   0  0  0  0  0  0  0  0  0  0  0  0
 15 13  2  0  0  0
 14 13  1  0  0  0
 13  1  1  0  0  0
  8  1  1  0  0  0
  1  2  1  0  0  0
  1 23  1  0  0  0
  2  3  1  0  0  0
  4  3  1  0  0  0
  3 17  1  0  0  0
 17 18  1  0  0  0
 17 20  1  0  0  0
 20 21  1  0  0  0
  5  4  1  0  0  0
  6  4  1  0  0  0
  7  6  1  0  0  0
  8  6  1  0  0  0
  9  8  1  0  0  0
 23 24  1  0  0  0
 26 25  2  0  0  0
 24 26  1  0  0  0
 14 16  1  0  0  0
 21 22  1  0  0  0
 18 19  1  0  0  0
  5 10  1  0  0  0
  7 11  1  0  0  0
  9 12  1  0  0  0
M  END
> <minimizedAffinity>
-5.99870

$$$$
3IJH_KO2_B_214


 26 26  0  0  0  0  0  0  0  0999 V2000
   -9.4229   -1.6270   -2.1248 C   0  0  0  0  0  0  0  0  0  0  0  0
  -10.1693   -0.3919   -2.0172 O   0  0  0  0  0  0  0  0  0  0  0  0
  -10.4573    0.2438   -3.2813 C   0  0  0  0  0  0  0  0  0  0  0  0
  -11.3656   -0.6844   -4.1062 C   0  0  0  0  0  0  0  0  0  0  0  0
  -12.6026   -0.9042   -3.4138 O   0  0  0  0  0  0  0  0  0  0  0  0
  -10.5872   -1.9698   -4.3179 C   0  0  0  0  0  0  0  0  0  0  0  0
  -11.4043   -2.8975   -5.0357 O   0  0  0  0  0  0  0  0  0  0  0  0
  -10.2455   -2.6082   -2.9589 C   0  0  0  0  0  0  0  0  0  0  0  0
  -11.4048   -3.0460   -2.2591 O   0  0  0  0  0  0  0  0  0  0  0  0
  -12.4215   -1.2931   -2.5439 H   0  0  0  0  0  0  0  0  0  0  0  0
  -12.2078   -3.0833   -4.5249 H   0  0  0  0  0  0  0  0  0  0  0  0
  -11.9738   -2.2841   -2.0674 H   0  0  0  0  0  0  0  0  0  0  0  0
   -9.2842   -2.2231   -0.7236 C   0  0  0  0  0  0  0  0  0  0  0  0
   -9.6949   -1.5482    0.2511 O   0  0  0  0  0  0  0  0  0  0  0  0
   -8.6939   -3.3268   -0.6578 O   0  0  0  0  0  0  0  0  0  0  0  0
  -10.1277   -0.7301    0.1053 H   0  0  0  0  0  0  0  0  0  0  0  0
  -11.2232    1.5486   -3.0540 C   0  0  0  0  0  0  0  0  0  0  0  0
  -12.2677    1.3506   -2.1001 O   0  0  0  0  0  0  0  0  0  0  0  0
  -12.8825    0.6762   -2.4291 H   0  0  0  0  0  0  0  0  0  0  0  0
  -11.8134    2.0121   -4.3937 C   0  0  0  0  0  0  0  0  0  0  0  0
  -10.7846    2.5356   -5.2328 O   0  0  0  0  0  0  0  0  0  0  0  0
  -10.3667    3.2946   -4.7968 H   0  0  0  0  0  0  0  0  0  0  0  0
   -8.2008   -1.2524   -2.7383 O   0  0  0  0  0  0  0  0  0  0  0  0
   -7.2014   -0.5413   -2.0338 C   0  0  0  0  0  0  0  0  0  0  0  0
   -5.5816    0.7480   -3.4834 C   0  0  0  0  0  0  0  0  0  0  0  0
   -6.0871   -0.6310   -3.0849 C   0  0  0  0  0  0  0  0  0  0  0  0
 15 13  2  0  0  0
 14 13  1  0  0  0
 13  1  1  0  0  0
  8  1  1  0  0  0
  1  2  1  0  0  0
  1 23  1  0  0  0
  2  3  1  0  0  0
  4  3  1  0  0  0
  3 17  1  0  0  0
 17 18  1  0  0  0
 17 20  1  0  0  0
 20 21  1  0  0  0
  5  4  1  0  0  0
  6  4  1  0  0  0
  7  6  1  0  0  0
  8  6  1  0  0  0
  9  8  1  0  0  0
 23 24  1  0  0  0
 26 25  2  0  0  0
 24 26  1  0  0  0
 14 16  1  0  0  0
 21 22  1  0  0  0
 18 19  1  0  0  0
  5 10  1  0  0  0
  7 11  1  0  0  0
  9 12  1  0  0  0
M  END
> <minimizedAffinity>
-5.78398

$$$$
