3N2U_D3X_A_0


 37 38  0  0  0  0  0  0  0  0999 V2000
    1.9527   -5.5614    4.9433 N   0  0  0  0  0  0  0  0  0  0  0  0
    2.2596   -5.0216    6.3563 S   0  0  0  0  0  0  0  0  0  0  0  0
    2.5712   -3.6238    6.2551 O   0  0  0  0  0  0  0  0  0  0  0  0
    1.1393   -5.1764    7.2425 O   0  0  0  0  0  0  0  0  0  0  0  0
    5.8095   -6.5358    6.8608 C   0  0  0  0  0  0  0  0  0  0  0  0
    3.5220   -5.7459    7.0448 C   0  0  0  0  0  0  0  0  0  0  0  0
    3.5153   -6.1219    8.4070 C   0  0  0  0  0  0  0  0  0  0  0  0
    4.6791   -5.9590    6.2811 C   0  0  0  0  0  0  0  0  0  0  0  0
    4.6484   -6.7216    8.9816 C   0  0  0  0  0  0  0  0  0  0  0  0
    5.8007   -6.9237    8.2038 C   0  0  0  0  0  0  0  0  0  0  0  0
    6.9528   -7.4778    8.7169 O   0  0  0  0  0  0  0  0  0  0  0  0
    7.3771   -7.3041   10.0782 C   0  0  0  0  0  0  0  0  0  0  0  0
    2.4130   -4.7963    3.7856 C   0  0  0  0  0  0  0  0  0  0  0  0
    1.3317   -3.7972    3.3808 C   0  0  0  0  0  0  0  0  0  0  0  0
    1.9317   -2.5056    3.3462 O   0  0  0  0  0  0  0  0  0  0  0  0
    1.0221   -1.4163    3.4885 C   0  0  0  0  0  0  0  0  0  0  0  0
    1.6815   -0.3648    4.3595 C   0  0  0  0  0  0  0  0  0  0  0  0
    1.8900   -0.9632    5.6298 O   0  0  0  0  0  0  0  0  0  0  0  0
   -0.1507    0.2524    2.2223 C   0  0  0  0  0  0  0  0  0  0  0  0
    1.5481    1.8712    5.2160 O   0  0  0  0  0  0  0  0  0  0  0  0
    0.3686    1.3943    3.1011 C   0  0  0  0  0  0  0  0  0  0  0  0
   -0.7007    2.3052    3.2546 O   0  0  0  0  0  0  0  0  0  0  0  0
    0.8161    0.8824    4.4810 C   0  0  0  0  0  0  0  0  0  0  0  0
    0.7664   -0.8538    2.1992 O   0  0  0  0  0  0  0  0  0  0  0  0
    1.0380   -1.2436    5.9989 H   0  0  0  0  0  0  0  0  0  0  0  0
    1.8094    1.5070    6.0763 H   0  0  0  0  0  0  0  0  0  0  0  0
   -1.4521    1.8546    3.6708 H   0  0  0  0  0  0  0  0  0  0  0  0
   -0.4414    0.6569    0.7734 C   0  0  0  0  0  0  0  0  0  0  0  0
   -1.6949    1.3451    0.6593 O   0  0  0  0  0  0  0  0  0  0  0  0
   -2.4122    0.7606    0.9502 H   0  0  0  0  0  0  0  0  0  0  0  0
    1.1715   -6.7945    4.7922 C   0  0  0  0  0  0  0  0  0  0  0  0
    2.0565   -8.0142    2.8937 N   0  0  0  0  0  0  0  0  0  0  0  0
    2.8833   -8.4534    4.9363 O   0  0  0  0  0  0  0  0  0  0  0  0
    2.1045   -7.8296    4.2131 C   0  0  0  0  0  0  0  0  0  0  0  0
    2.9802   -8.9077    2.3795 O   0  0  0  0  0  0  0  0  0  0  0  0
    1.4062   -7.5456    2.3221 H   0  0  0  0  0  0  0  0  0  0  0  0
    3.5258   -9.2594    3.1003 H   0  0  0  0  0  0  0  0  0  0  0  0
 16 17  1  0  0  0
 16 24  1  0  0  0
 16 15  1  0  0  0
 32 34  1  0  0  0
 32 35  1  0  0  0
 33 34  2  0  0  0
  2  1  1  0  0  0
  2  3  2  0  0  0
  2  4  2  0  0  0
  2  6  1  0  0  0
 17 18  1  0  0  0
 17 23  1  0  0  0
  1 13  1  0  0  0
  1 31  1  0  0  0
 34 31  1  0  0  0
 28 19  1  0  0  0
 28 29  1  0  0  0
 19 21  1  0  0  0
 19 24  1  0  0  0
 20 23  1  0  0  0
 21 22  1  0  0  0
 21 23  1  0  0  0
 11 10  1  0  0  0
 11 12  1  0  0  0
 14 13  1  0  0  0
 14 15  1  0  0  0
  5  8  2  0  0  0
  5 10  1  0  0  0
  6  7  2  0  0  0
  6  8  1  0  0  0
  7  9  1  0  0  0
  9 10  2  0  0  0
 32 36  1  0  0  0
 18 25  1  0  0  0
 20 26  1  0  0  0
 22 27  1  0  0  0
 29 30  1  0  0  0
 35 37  1  0  0  0
M  END
> <minimizedAffinity>
-8.81783

$$$$
3N2U_D3X_A_0


 37 38  0  0  0  0  0  0  0  0999 V2000
    3.7049   -6.2997    6.1845 N   0  0  0  0  0  0  0  0  0  0  0  0
    3.8305   -6.1719    7.7176 S   0  0  0  0  0  0  0  0  0  0  0  0
    3.6098   -4.8011    8.0827 O   0  0  0  0  0  0  0  0  0  0  0  0
    2.8661   -6.9875    8.4025 O   0  0  0  0  0  0  0  0  0  0  0  0
    6.6949   -7.1975   10.1449 C   0  0  0  0  0  0  0  0  0  0  0  0
    5.2868   -6.5858    8.2651 C   0  0  0  0  0  0  0  0  0  0  0  0
    6.3777   -6.8040    7.3936 C   0  0  0  0  0  0  0  0  0  0  0  0
    5.4598   -6.7870    9.6425 C   0  0  0  0  0  0  0  0  0  0  0  0
    7.6255   -7.1971    7.9056 C   0  0  0  0  0  0  0  0  0  0  0  0
    7.7804   -7.3986    9.2873 C   0  0  0  0  0  0  0  0  0  0  0  0
    8.9689   -7.8136    9.8466 O   0  0  0  0  0  0  0  0  0  0  0  0
    9.0496   -8.5665   11.0671 C   0  0  0  0  0  0  0  0  0  0  0  0
    4.4328   -5.3534    5.3405 C   0  0  0  0  0  0  0  0  0  0  0  0
    3.4602   -4.7038    4.3590 C   0  0  0  0  0  0  0  0  0  0  0  0
    3.0161   -3.4813    4.9402 O   0  0  0  0  0  0  0  0  0  0  0  0
    1.9225   -2.8590    4.2687 C   0  0  0  0  0  0  0  0  0  0  0  0
    2.0055   -1.3659    4.5200 C   0  0  0  0  0  0  0  0  0  0  0  0
    1.8555   -1.1815    5.9195 O   0  0  0  0  0  0  0  0  0  0  0  0
    0.9824   -2.5208    2.0859 C   0  0  0  0  0  0  0  0  0  0  0  0
    1.1393    0.7948    3.9437 O   0  0  0  0  0  0  0  0  0  0  0  0
    0.9172   -1.0011    2.2652 C   0  0  0  0  0  0  0  0  0  0  0  0
   -0.2915   -0.5748    1.6700 O   0  0  0  0  0  0  0  0  0  0  0  0
    0.9289   -0.6100    3.7530 C   0  0  0  0  0  0  0  0  0  0  0  0
    2.0433   -3.0983    2.8644 O   0  0  0  0  0  0  0  0  0  0  0  0
    1.0000   -1.5401    6.2031 H   0  0  0  0  0  0  0  0  0  0  0  0
    1.1393    0.9958    4.8927 H   0  0  0  0  0  0  0  0  0  0  0  0
   -1.0389   -1.0131    2.1062 H   0  0  0  0  0  0  0  0  0  0  0  0
    1.1596   -2.9750    0.6333 C   0  0  0  0  0  0  0  0  0  0  0  0
   -0.0728   -2.8993   -0.0970 O   0  0  0  0  0  0  0  0  0  0  0  0
   -0.7291   -3.4829    0.3149 H   0  0  0  0  0  0  0  0  0  0  0  0
    2.8285   -7.3282    5.6122 C   0  0  0  0  0  0  0  0  0  0  0  0
    1.1835   -5.6488    6.2032 N   0  0  0  0  0  0  0  0  0  0  0  0
    0.6984   -7.0991    4.5569 O   0  0  0  0  0  0  0  0  0  0  0  0
    1.4768   -6.6858    5.4184 C   0  0  0  0  0  0  0  0  0  0  0  0
   -0.0263   -5.0269    5.9474 O   0  0  0  0  0  0  0  0  0  0  0  0
    1.7882   -5.3451    6.9183 H   0  0  0  0  0  0  0  0  0  0  0  0
   -0.4697   -5.4734    5.2092 H   0  0  0  0  0  0  0  0  0  0  0  0
 16 17  1  0  0  0
 16 24  1  0  0  0
 16 15  1  0  0  0
 32 34  1  0  0  0
 32 35  1  0  0  0
 33 34  2  0  0  0
  2  1  1  0  0  0
  2  3  2  0  0  0
  2  4  2  0  0  0
  2  6  1  0  0  0
 17 18  1  0  0  0
 17 23  1  0  0  0
  1 13  1  0  0  0
  1 31  1  0  0  0
 34 31  1  0  0  0
 28 19  1  0  0  0
 28 29  1  0  0  0
 19 21  1  0  0  0
 19 24  1  0  0  0
 20 23  1  0  0  0
 21 22  1  0  0  0
 21 23  1  0  0  0
 11 10  1  0  0  0
 11 12  1  0  0  0
 14 13  1  0  0  0
 14 15  1  0  0  0
  5  8  2  0  0  0
  5 10  1  0  0  0
  6  7  2  0  0  0
  6  8  1  0  0  0
  7  9  1  0  0  0
  9 10  2  0  0  0
 32 36  1  0  0  0
 18 25  1  0  0  0
 20 26  1  0  0  0
 22 27  1  0  0  0
 29 30  1  0  0  0
 35 37  1  0  0  0
M  END
> <minimizedAffinity>
-8.39841

$$$$
3N2U_D3X_A_0


 37 38  0  0  0  0  0  0  0  0999 V2000
    2.0522   -5.7291    4.8380 N   0  0  0  0  0  0  0  0  0  0  0  0
    2.2755   -5.0815    6.2211 S   0  0  0  0  0  0  0  0  0  0  0  0
    2.5342   -3.6816    6.0351 O   0  0  0  0  0  0  0  0  0  0  0  0
    1.1250   -5.2240    7.0699 O   0  0  0  0  0  0  0  0  0  0  0  0
    5.8068   -6.5531    6.9374 C   0  0  0  0  0  0  0  0  0  0  0  0
    3.5351   -5.7017    7.0090 C   0  0  0  0  0  0  0  0  0  0  0  0
    3.5408   -5.8415    8.4152 C   0  0  0  0  0  0  0  0  0  0  0  0
    4.6782   -6.0622    6.2802 C   0  0  0  0  0  0  0  0  0  0  0  0
    4.6717   -6.3559    9.0711 C   0  0  0  0  0  0  0  0  0  0  0  0
    5.8100   -6.7078    8.3267 C   0  0  0  0  0  0  0  0  0  0  0  0
    6.9597   -7.1880    8.9140 O   0  0  0  0  0  0  0  0  0  0  0  0
    6.9942   -7.7739   10.2250 C   0  0  0  0  0  0  0  0  0  0  0  0
    2.5993   -5.0643    3.6564 C   0  0  0  0  0  0  0  0  0  0  0  0
    1.4760   -4.3327    2.9255 C   0  0  0  0  0  0  0  0  0  0  0  0
    2.0757   -3.5172    1.9230 O   0  0  0  0  0  0  0  0  0  0  0  0
    1.6926   -2.1438    1.9570 C   0  0  0  0  0  0  0  0  0  0  0  0
    0.2741   -2.0390    1.4313 C   0  0  0  0  0  0  0  0  0  0  0  0
    0.3087   -2.4771    0.0815 O   0  0  0  0  0  0  0  0  0  0  0  0
    1.3555   -0.3061    3.4644 C   0  0  0  0  0  0  0  0  0  0  0  0
   -1.6286   -0.6117    1.1253 O   0  0  0  0  0  0  0  0  0  0  0  0
   -0.0574   -0.0345    2.9392 C   0  0  0  0  0  0  0  0  0  0  0  0
   -0.2131    1.3696    2.9040 O   0  0  0  0  0  0  0  0  0  0  0  0
   -0.2530   -0.6135    1.5275 C   0  0  0  0  0  0  0  0  0  0  0  0
    1.7176   -1.6884    3.3120 O   0  0  0  0  0  0  0  0  0  0  0  0
    0.9154   -1.9152   -0.4254 H   0  0  0  0  0  0  0  0  0  0  0  0
   -1.7050   -0.9838    0.2328 H   0  0  0  0  0  0  0  0  0  0  0  0
    0.4594    1.7549    2.3207 H   0  0  0  0  0  0  0  0  0  0  0  0
    1.5649    0.0793    4.9325 C   0  0  0  0  0  0  0  0  0  0  0  0
    1.5487   -1.0724    5.7876 O   0  0  0  0  0  0  0  0  0  0  0  0
    0.6873   -1.5132    5.7200 H   0  0  0  0  0  0  0  0  0  0  0  0
    1.2622   -6.9614    4.7336 C   0  0  0  0  0  0  0  0  0  0  0  0
    2.1820   -8.2577    2.9036 N   0  0  0  0  0  0  0  0  0  0  0  0
    2.9399   -8.6425    4.9836 O   0  0  0  0  0  0  0  0  0  0  0  0
    2.1939   -8.0302    4.2171 C   0  0  0  0  0  0  0  0  0  0  0  0
    3.1050   -9.1826    2.4471 O   0  0  0  0  0  0  0  0  0  0  0  0
    1.5573   -7.7976    2.2976 H   0  0  0  0  0  0  0  0  0  0  0  0
    3.6227   -9.5192    3.1953 H   0  0  0  0  0  0  0  0  0  0  0  0
 16 17  1  0  0  0
 16 24  1  0  0  0
 16 15  1  0  0  0
 32 34  1  0  0  0
 32 35  1  0  0  0
 33 34  2  0  0  0
  2  1  1  0  0  0
  2  3  2  0  0  0
  2  4  2  0  0  0
  2  6  1  0  0  0
 17 18  1  0  0  0
 17 23  1  0  0  0
  1 13  1  0  0  0
  1 31  1  0  0  0
 34 31  1  0  0  0
 28 19  1  0  0  0
 28 29  1  0  0  0
 19 21  1  0  0  0
 19 24  1  0  0  0
 20 23  1  0  0  0
 21 22  1  0  0  0
 21 23  1  0  0  0
 11 10  1  0  0  0
 11 12  1  0  0  0
 14 13  1  0  0  0
 14 15  1  0  0  0
  5  8  2  0  0  0
  5 10  1  0  0  0
  6  7  2  0  0  0
  6  8  1  0  0  0
  7  9  1  0  0  0
  9 10  2  0  0  0
 32 36  1  0  0  0
 18 25  1  0  0  0
 20 26  1  0  0  0
 22 27  1  0  0  0
 29 30  1  0  0  0
 35 37  1  0  0  0
M  END
> <minimizedAffinity>
-8.34311

$$$$
3N2U_D3X_A_0


 37 38  0  0  0  0  0  0  0  0999 V2000
    3.6604   -6.5348    6.9214 N   0  0  0  0  0  0  0  0  0  0  0  0
    4.0424   -6.3929    8.4102 S   0  0  0  0  0  0  0  0  0  0  0  0
    3.9220   -5.0121    8.7844 O   0  0  0  0  0  0  0  0  0  0  0  0
    3.1838   -7.1721    9.2587 O   0  0  0  0  0  0  0  0  0  0  0  0
    7.1858   -7.6906   10.3031 C   0  0  0  0  0  0  0  0  0  0  0  0
    5.5579   -6.8424    8.7154 C   0  0  0  0  0  0  0  0  0  0  0  0
    6.5399   -6.8944    7.7004 C   0  0  0  0  0  0  0  0  0  0  0  0
    5.8954   -7.2448   10.0161 C   0  0  0  0  0  0  0  0  0  0  0  0
    7.8438   -7.3240    7.9981 C   0  0  0  0  0  0  0  0  0  0  0  0
    8.1640   -7.7279    9.3051 C   0  0  0  0  0  0  0  0  0  0  0  0
    9.4150   -8.1881    9.6526 O   0  0  0  0  0  0  0  0  0  0  0  0
    9.7870   -8.5324   10.9965 C   0  0  0  0  0  0  0  0  0  0  0  0
    4.6063   -6.0701    5.9080 C   0  0  0  0  0  0  0  0  0  0  0  0
    4.1166   -4.7428    5.3340 C   0  0  0  0  0  0  0  0  0  0  0  0
    3.5377   -5.0132    4.0606 O   0  0  0  0  0  0  0  0  0  0  0  0
    3.1481   -3.8582    3.3201 C   0  0  0  0  0  0  0  0  0  0  0  0
    2.2446   -4.3087    2.1887 C   0  0  0  0  0  0  0  0  0  0  0  0
    3.0270   -5.1509    1.3559 O   0  0  0  0  0  0  0  0  0  0  0  0
    1.9750   -1.7748    3.5349 C   0  0  0  0  0  0  0  0  0  0  0  0
    0.7673   -3.6140    0.4320 O   0  0  0  0  0  0  0  0  0  0  0  0
    1.0698   -2.0727    2.3359 C   0  0  0  0  0  0  0  0  0  0  0  0
    0.9071   -0.8542    1.6389 O   0  0  0  0  0  0  0  0  0  0  0  0
    1.6987   -3.1231    1.4043 C   0  0  0  0  0  0  0  0  0  0  0  0
    2.4121   -2.9831    4.1782 O   0  0  0  0  0  0  0  0  0  0  0  0
    3.7910   -4.6555    1.0216 H   0  0  0  0  0  0  0  0  0  0  0  0
    1.2046   -4.2712   -0.1316 H   0  0  0  0  0  0  0  0  0  0  0  0
    1.7743   -0.5273    1.3525 H   0  0  0  0  0  0  0  0  0  0  0  0
    1.3340   -0.8771    4.5983 C   0  0  0  0  0  0  0  0  0  0  0  0
    1.8164   -1.1895    5.9126 O   0  0  0  0  0  0  0  0  0  0  0  0
    1.5917   -2.1078    6.1297 H   0  0  0  0  0  0  0  0  0  0  0  0
    2.3488   -7.0838    6.5587 C   0  0  0  0  0  0  0  0  0  0  0  0
    0.8660   -5.7052    5.2259 N   0  0  0  0  0  0  0  0  0  0  0  0
    1.1525   -5.1936    7.3950 O   0  0  0  0  0  0  0  0  0  0  0  0
    1.4101   -5.9097    6.4256 C   0  0  0  0  0  0  0  0  0  0  0  0
   -0.0544   -4.6740    5.1531 O   0  0  0  0  0  0  0  0  0  0  0  0
    1.1035   -6.2522    4.4425 H   0  0  0  0  0  0  0  0  0  0  0  0
   -0.1475   -4.2614    6.0260 H   0  0  0  0  0  0  0  0  0  0  0  0
 16 17  1  0  0  0
 16 24  1  0  0  0
 16 15  1  0  0  0
 32 34  1  0  0  0
 32 35  1  0  0  0
 33 34  2  0  0  0
  2  1  1  0  0  0
  2  3  2  0  0  0
  2  4  2  0  0  0
  2  6  1  0  0  0
 17 18  1  0  0  0
 17 23  1  0  0  0
  1 13  1  0  0  0
  1 31  1  0  0  0
 34 31  1  0  0  0
 28 19  1  0  0  0
 28 29  1  0  0  0
 19 21  1  0  0  0
 19 24  1  0  0  0
 20 23  1  0  0  0
 21 22  1  0  0  0
 21 23  1  0  0  0
 11 10  1  0  0  0
 11 12  1  0  0  0
 14 13  1  0  0  0
 14 15  1  0  0  0
  5  8  2  0  0  0
  5 10  1  0  0  0
  6  7  2  0  0  0
  6  8  1  0  0  0
  7  9  1  0  0  0
  9 10  2  0  0  0
 32 36  1  0  0  0
 18 25  1  0  0  0
 20 26  1  0  0  0
 22 27  1  0  0  0
 29 30  1  0  0  0
 35 37  1  0  0  0
M  END
> <minimizedAffinity>
-8.20494

$$$$
3N2U_D3X_A_0


 37 38  0  0  0  0  0  0  0  0999 V2000
    2.0140   -5.6541    4.5738 N   0  0  0  0  0  0  0  0  0  0  0  0
    2.1197   -5.1001    6.0106 S   0  0  0  0  0  0  0  0  0  0  0  0
    2.3230   -3.6806    5.9405 O   0  0  0  0  0  0  0  0  0  0  0  0
    0.9266   -5.3532    6.7700 O   0  0  0  0  0  0  0  0  0  0  0  0
    4.1927   -6.6842    8.8989 C   0  0  0  0  0  0  0  0  0  0  0  0
    3.3557   -5.7217    6.8340 C   0  0  0  0  0  0  0  0  0  0  0  0
    4.6134   -5.9519    6.2320 C   0  0  0  0  0  0  0  0  0  0  0  0
    3.1584   -6.0939    8.1720 C   0  0  0  0  0  0  0  0  0  0  0  0
    5.6586   -6.5274    6.9735 C   0  0  0  0  0  0  0  0  0  0  0  0
    5.4429   -6.8985    8.3112 C   0  0  0  0  0  0  0  0  0  0  0  0
    6.4174   -7.4948    9.0808 O   0  0  0  0  0  0  0  0  0  0  0  0
    7.7783   -7.6556    8.6505 C   0  0  0  0  0  0  0  0  0  0  0  0
    2.6947   -4.9391    3.4953 C   0  0  0  0  0  0  0  0  0  0  0  0
    1.6720   -4.5343    2.4364 C   0  0  0  0  0  0  0  0  0  0  0  0
    1.8768   -5.3692    1.3003 O   0  0  0  0  0  0  0  0  0  0  0  0
    3.0106   -5.0323    0.5034 C   0  0  0  0  0  0  0  0  0  0  0  0
    3.1379   -6.0703   -0.5946 C   0  0  0  0  0  0  0  0  0  0  0  0
    3.3762   -7.3133    0.0483 O   0  0  0  0  0  0  0  0  0  0  0  0
    3.8841   -3.3054   -0.9171 C   0  0  0  0  0  0  0  0  0  0  0  0
    4.2546   -6.6833   -2.6264 O   0  0  0  0  0  0  0  0  0  0  0  0
    4.1582   -4.2818   -2.0648 C   0  0  0  0  0  0  0  0  0  0  0  0
    5.3835   -3.8873   -2.6478 O   0  0  0  0  0  0  0  0  0  0  0  0
    4.2680   -5.7296   -1.5567 C   0  0  0  0  0  0  0  0  0  0  0  0
    2.7937   -3.7519   -0.0945 O   0  0  0  0  0  0  0  0  0  0  0  0
    4.1890   -7.2546    0.5743 H   0  0  0  0  0  0  0  0  0  0  0  0
    4.3256   -7.5793   -2.2617 H   0  0  0  0  0  0  0  0  0  0  0  0
    6.0859   -3.9233   -1.9798 H   0  0  0  0  0  0  0  0  0  0  0  0
    3.5806   -1.8733   -1.3695 C   0  0  0  0  0  0  0  0  0  0  0  0
    4.7808   -1.1021   -1.5194 O   0  0  0  0  0  0  0  0  0  0  0  0
    5.2399   -1.0493   -0.6666 H   0  0  0  0  0  0  0  0  0  0  0  0
    1.2011   -6.8481    4.3153 C   0  0  0  0  0  0  0  0  0  0  0  0
    2.2090   -8.2453    2.6102 N   0  0  0  0  0  0  0  0  0  0  0  0
    2.8648   -8.5071    4.7433 O   0  0  0  0  0  0  0  0  0  0  0  0
    2.1569   -7.9423    3.9074 C   0  0  0  0  0  0  0  0  0  0  0  0
    3.1532   -9.1924    2.2534 O   0  0  0  0  0  0  0  0  0  0  0  0
    1.6144   -7.8229    1.9490 H   0  0  0  0  0  0  0  0  0  0  0  0
    3.6338   -9.4837    3.0440 H   0  0  0  0  0  0  0  0  0  0  0  0
 16 17  1  0  0  0
 16 24  1  0  0  0
 16 15  1  0  0  0
 32 34  1  0  0  0
 32 35  1  0  0  0
 33 34  2  0  0  0
  2  1  1  0  0  0
  2  3  2  0  0  0
  2  4  2  0  0  0
  2  6  1  0  0  0
 17 18  1  0  0  0
 17 23  1  0  0  0
  1 13  1  0  0  0
  1 31  1  0  0  0
 34 31  1  0  0  0
 28 19  1  0  0  0
 28 29  1  0  0  0
 19 21  1  0  0  0
 19 24  1  0  0  0
 20 23  1  0  0  0
 21 22  1  0  0  0
 21 23  1  0  0  0
 11 10  1  0  0  0
 11 12  1  0  0  0
 14 13  1  0  0  0
 14 15  1  0  0  0
  5  8  2  0  0  0
  5 10  1  0  0  0
  6  7  2  0  0  0
  6  8  1  0  0  0
  7  9  1  0  0  0
  9 10  2  0  0  0
 32 36  1  0  0  0
 18 25  1  0  0  0
 20 26  1  0  0  0
 22 27  1  0  0  0
 29 30  1  0  0  0
 35 37  1  0  0  0
M  END
> <minimizedAffinity>
-7.95114

$$$$
3N2U_D3X_A_0


 37 38  0  0  0  0  0  0  0  0999 V2000
    1.9694   -5.2356    4.2566 N   0  0  0  0  0  0  0  0  0  0  0  0
    1.6706   -5.9995    5.5641 S   0  0  0  0  0  0  0  0  0  0  0  0
    0.7365   -5.2330    6.3394 O   0  0  0  0  0  0  0  0  0  0  0  0
    1.0988   -7.2926    5.3087 O   0  0  0  0  0  0  0  0  0  0  0  0
    5.3821   -6.5444    6.6018 C   0  0  0  0  0  0  0  0  0  0  0  0
    2.9798   -6.2230    6.4741 C   0  0  0  0  0  0  0  0  0  0  0  0
    2.9221   -6.1905    7.8858 C   0  0  0  0  0  0  0  0  0  0  0  0
    4.2200   -6.4011    5.8433 C   0  0  0  0  0  0  0  0  0  0  0  0
    4.0916   -6.3562    8.6463 C   0  0  0  0  0  0  0  0  0  0  0  0
    5.3263   -6.5289    7.9986 C   0  0  0  0  0  0  0  0  0  0  0  0
    6.5113   -6.6655    8.6874 O   0  0  0  0  0  0  0  0  0  0  0  0
    6.5956   -7.1890   10.0223 C   0  0  0  0  0  0  0  0  0  0  0  0
    1.2790   -5.6427    3.0338 C   0  0  0  0  0  0  0  0  0  0  0  0
    2.1911   -5.3945    1.8348 C   0  0  0  0  0  0  0  0  0  0  0  0
    2.2956   -6.6190    1.1141 O   0  0  0  0  0  0  0  0  0  0  0  0
    1.4779   -7.6783    1.6073 C   0  0  0  0  0  0  0  0  0  0  0  0
    0.9070   -8.4241    0.4168 C   0  0  0  0  0  0  0  0  0  0  0  0
    0.0923   -7.4995   -0.2879 O   0  0  0  0  0  0  0  0  0  0  0  0
    1.5633   -9.6835    2.9245 C   0  0  0  0  0  0  0  0  0  0  0  0
   -0.3089  -10.3562   -0.3177 O   0  0  0  0  0  0  0  0  0  0  0  0
    0.8934  -10.5216    1.8316 C   0  0  0  0  0  0  0  0  0  0  0  0
    0.0163  -11.4149    2.4870 O   0  0  0  0  0  0  0  0  0  0  0  0
    0.0990   -9.6386    0.8539 C   0  0  0  0  0  0  0  0  0  0  0  0
    2.2902   -8.5758    2.3680 O   0  0  0  0  0  0  0  0  0  0  0  0
   -0.6112   -7.1772    0.2971 H   0  0  0  0  0  0  0  0  0  0  0  0
   -0.8046   -9.7632   -0.9038 H   0  0  0  0  0  0  0  0  0  0  0  0
   -0.6385  -10.9108    2.9949 H   0  0  0  0  0  0  0  0  0  0  0  0
    2.5192  -10.4732    3.8246 C   0  0  0  0  0  0  0  0  0  0  0  0
    1.8338  -11.0483    4.9459 O   0  0  0  0  0  0  0  0  0  0  0  0
    1.4422  -10.3415    5.4826 H   0  0  0  0  0  0  0  0  0  0  0  0
    2.9660   -4.1585    4.2580 C   0  0  0  0  0  0  0  0  0  0  0  0
    2.0925   -2.4381    5.7253 N   0  0  0  0  0  0  0  0  0  0  0  0
    1.7449   -2.2458    3.5137 O   0  0  0  0  0  0  0  0  0  0  0  0
    2.2098   -2.8697    4.4694 C   0  0  0  0  0  0  0  0  0  0  0  0
    1.4681   -1.2128    5.8821 O   0  0  0  0  0  0  0  0  0  0  0  0
    2.4281   -2.9573    6.4915 H   0  0  0  0  0  0  0  0  0  0  0  0
    1.2134   -0.8661    5.0127 H   0  0  0  0  0  0  0  0  0  0  0  0
 16 17  1  0  0  0
 16 24  1  0  0  0
 16 15  1  0  0  0
 32 34  1  0  0  0
 32 35  1  0  0  0
 33 34  2  0  0  0
  2  1  1  0  0  0
  2  3  2  0  0  0
  2  4  2  0  0  0
  2  6  1  0  0  0
 17 18  1  0  0  0
 17 23  1  0  0  0
  1 13  1  0  0  0
  1 31  1  0  0  0
 34 31  1  0  0  0
 28 19  1  0  0  0
 28 29  1  0  0  0
 19 21  1  0  0  0
 19 24  1  0  0  0
 20 23  1  0  0  0
 21 22  1  0  0  0
 21 23  1  0  0  0
 11 10  1  0  0  0
 11 12  1  0  0  0
 14 13  1  0  0  0
 14 15  1  0  0  0
  5  8  2  0  0  0
  5 10  1  0  0  0
  6  7  2  0  0  0
  6  8  1  0  0  0
  7  9  1  0  0  0
  9 10  2  0  0  0
 32 36  1  0  0  0
 18 25  1  0  0  0
 20 26  1  0  0  0
 22 27  1  0  0  0
 29 30  1  0  0  0
 35 37  1  0  0  0
M  END
> <minimizedAffinity>
-7.86088

$$$$
3N2U_D3X_A_0


 37 38  0  0  0  0  0  0  0  0999 V2000
    2.4502   -4.5489    4.6896 N   0  0  0  0  0  0  0  0  0  0  0  0
    2.3675   -5.9383    5.3565 S   0  0  0  0  0  0  0  0  0  0  0  0
    1.0871   -6.0653    5.9934 O   0  0  0  0  0  0  0  0  0  0  0  0
    2.5080   -7.0000    4.3987 O   0  0  0  0  0  0  0  0  0  0  0  0
    4.0319   -6.4842    8.8322 C   0  0  0  0  0  0  0  0  0  0  0  0
    3.4906   -6.1594    6.4887 C   0  0  0  0  0  0  0  0  0  0  0  0
    4.8555   -6.3279    6.1635 C   0  0  0  0  0  0  0  0  0  0  0  0
    3.0913   -6.2404    7.8310 C   0  0  0  0  0  0  0  0  0  0  0  0
    5.8024   -6.5523    7.1766 C   0  0  0  0  0  0  0  0  0  0  0  0
    5.3851   -6.6351    8.5156 C   0  0  0  0  0  0  0  0  0  0  0  0
    6.2600   -6.8839    9.5500 O   0  0  0  0  0  0  0  0  0  0  0  0
    7.1402   -8.0184    9.5873 C   0  0  0  0  0  0  0  0  0  0  0  0
    1.5094   -3.5122    5.1111 C   0  0  0  0  0  0  0  0  0  0  0  0
    2.2311   -2.1675    5.1594 C   0  0  0  0  0  0  0  0  0  0  0  0
    1.2648   -1.1522    4.9047 O   0  0  0  0  0  0  0  0  0  0  0  0
    1.5423   -0.3285    3.7739 C   0  0  0  0  0  0  0  0  0  0  0  0
    0.2893   -0.2622    2.9225 C   0  0  0  0  0  0  0  0  0  0  0  0
    0.0300   -1.5857    2.4792 O   0  0  0  0  0  0  0  0  0  0  0  0
    2.1712    1.9069    3.1650 C   0  0  0  0  0  0  0  0  0  0  0  0
   -0.7863    0.7849    1.0523 O   0  0  0  0  0  0  0  0  0  0  0  0
    0.9981    2.0539    2.1914 C   0  0  0  0  0  0  0  0  0  0  0  0
    1.4872    2.7657    1.0729 O   0  0  0  0  0  0  0  0  0  0  0  0
    0.4662    0.6824    1.7413 C   0  0  0  0  0  0  0  0  0  0  0  0
    1.8629    0.9891    4.2269 O   0  0  0  0  0  0  0  0  0  0  0  0
    0.7877   -1.9096    1.9675 H   0  0  0  0  0  0  0  0  0  0  0  0
   -1.0832   -0.0998    0.7878 H   0  0  0  0  0  0  0  0  0  0  0  0
    2.2189    2.2723    0.6704 H   0  0  0  0  0  0  0  0  0  0  0  0
    2.6324    3.2244    3.7967 C   0  0  0  0  0  0  0  0  0  0  0  0
    1.6206    4.2369    3.7028 O   0  0  0  0  0  0  0  0  0  0  0  0
    1.4241    4.4121    2.7692 H   0  0  0  0  0  0  0  0  0  0  0  0
    3.4305   -4.3139    3.6231 C   0  0  0  0  0  0  0  0  0  0  0  0
    2.5692   -5.5371    1.7158 N   0  0  0  0  0  0  0  0  0  0  0  0
    2.1545   -3.3334    1.8585 O   0  0  0  0  0  0  0  0  0  0  0  0
    2.6700   -4.3531    2.3202 C   0  0  0  0  0  0  0  0  0  0  0  0
    1.7964   -5.5602    0.5677 O   0  0  0  0  0  0  0  0  0  0  0  0
    3.0155   -6.3428    2.0636 H   0  0  0  0  0  0  0  0  0  0  0  0
    1.4473   -4.6718    0.3951 H   0  0  0  0  0  0  0  0  0  0  0  0
 16 17  1  0  0  0
 16 24  1  0  0  0
 16 15  1  0  0  0
 32 34  1  0  0  0
 32 35  1  0  0  0
 33 34  2  0  0  0
  2  1  1  0  0  0
  2  3  2  0  0  0
  2  4  2  0  0  0
  2  6  1  0  0  0
 17 18  1  0  0  0
 17 23  1  0  0  0
  1 13  1  0  0  0
  1 31  1  0  0  0
 34 31  1  0  0  0
 28 19  1  0  0  0
 28 29  1  0  0  0
 19 21  1  0  0  0
 19 24  1  0  0  0
 20 23  1  0  0  0
 21 22  1  0  0  0
 21 23  1  0  0  0
 11 10  1  0  0  0
 11 12  1  0  0  0
 14 13  1  0  0  0
 14 15  1  0  0  0
  5  8  2  0  0  0
  5 10  1  0  0  0
  6  7  2  0  0  0
  6  8  1  0  0  0
  7  9  1  0  0  0
  9 10  2  0  0  0
 32 36  1  0  0  0
 18 25  1  0  0  0
 20 26  1  0  0  0
 22 27  1  0  0  0
 29 30  1  0  0  0
 35 37  1  0  0  0
M  END
> <minimizedAffinity>
-7.74346

$$$$
3N2U_D3X_A_0


 37 38  0  0  0  0  0  0  0  0999 V2000
    2.0373   -5.6503    4.5917 N   0  0  0  0  0  0  0  0  0  0  0  0
    2.1203   -5.1218    6.0395 S   0  0  0  0  0  0  0  0  0  0  0  0
    2.2918   -3.6970    5.9980 O   0  0  0  0  0  0  0  0  0  0  0  0
    0.9280   -5.4163    6.7851 O   0  0  0  0  0  0  0  0  0  0  0  0
    4.2230   -6.6566    8.9329 C   0  0  0  0  0  0  0  0  0  0  0  0
    3.3643   -5.7310    6.8601 C   0  0  0  0  0  0  0  0  0  0  0  0
    4.6143   -5.9761    6.2480 C   0  0  0  0  0  0  0  0  0  0  0  0
    3.1818   -6.0773    8.2072 C   0  0  0  0  0  0  0  0  0  0  0  0
    5.6667   -6.5402    6.9880 C   0  0  0  0  0  0  0  0  0  0  0  0
    5.4657   -6.8854    8.3350 C   0  0  0  0  0  0  0  0  0  0  0  0
    6.4477   -7.4696    9.1043 O   0  0  0  0  0  0  0  0  0  0  0  0
    7.7809   -7.7188    8.6314 C   0  0  0  0  0  0  0  0  0  0  0  0
    2.7666   -4.9388    3.5431 C   0  0  0  0  0  0  0  0  0  0  0  0
    1.7741   -4.4110    2.5098 C   0  0  0  0  0  0  0  0  0  0  0  0
    1.7694   -2.9896    2.6060 O   0  0  0  0  0  0  0  0  0  0  0  0
    0.5235   -2.3702    2.2928 C   0  0  0  0  0  0  0  0  0  0  0  0
    0.5531   -0.9548    2.8360 C   0  0  0  0  0  0  0  0  0  0  0  0
    0.6745   -1.0643    4.2462 O   0  0  0  0  0  0  0  0  0  0  0  0
   -0.8560   -1.7160    0.4401 C   0  0  0  0  0  0  0  0  0  0  0  0
   -0.5563    1.1703    2.8995 O   0  0  0  0  0  0  0  0  0  0  0  0
   -0.9874   -0.2767    0.9470 C   0  0  0  0  0  0  0  0  0  0  0  0
   -2.3171    0.1244    0.6862 O   0  0  0  0  0  0  0  0  0  0  0  0
   -0.7044   -0.1845    2.4563 C   0  0  0  0  0  0  0  0  0  0  0  0
    0.3763   -2.3162    0.8717 O   0  0  0  0  0  0  0  0  0  0  0  0
   -0.0803   -1.5617    4.5980 H   0  0  0  0  0  0  0  0  0  0  0  0
   -0.3798    1.1811    3.8532 H   0  0  0  0  0  0  0  0  0  0  0  0
   -2.9302   -0.4687    1.1480 H   0  0  0  0  0  0  0  0  0  0  0  0
   -0.9431   -1.8561   -1.0831 C   0  0  0  0  0  0  0  0  0  0  0  0
   -0.8434   -0.5829   -1.7364 O   0  0  0  0  0  0  0  0  0  0  0  0
   -1.5765   -0.0151   -1.4516 H   0  0  0  0  0  0  0  0  0  0  0  0
    1.1979   -6.8163    4.2927 C   0  0  0  0  0  0  0  0  0  0  0  0
    2.2673   -8.3148    2.7159 N   0  0  0  0  0  0  0  0  0  0  0  0
    2.7611   -8.5171    4.8986 O   0  0  0  0  0  0  0  0  0  0  0  0
    2.1363   -7.9598    3.9942 C   0  0  0  0  0  0  0  0  0  0  0  0
    3.1963   -9.3090    2.4621 O   0  0  0  0  0  0  0  0  0  0  0  0
    1.7376   -7.8969    1.9989 H   0  0  0  0  0  0  0  0  0  0  0  0
    3.6085   -9.5866    3.2951 H   0  0  0  0  0  0  0  0  0  0  0  0
 16 17  1  0  0  0
 16 24  1  0  0  0
 16 15  1  0  0  0
 32 34  1  0  0  0
 32 35  1  0  0  0
 33 34  2  0  0  0
  2  1  1  0  0  0
  2  3  2  0  0  0
  2  4  2  0  0  0
  2  6  1  0  0  0
 17 18  1  0  0  0
 17 23  1  0  0  0
  1 13  1  0  0  0
  1 31  1  0  0  0
 34 31  1  0  0  0
 28 19  1  0  0  0
 28 29  1  0  0  0
 19 21  1  0  0  0
 19 24  1  0  0  0
 20 23  1  0  0  0
 21 22  1  0  0  0
 21 23  1  0  0  0
 11 10  1  0  0  0
 11 12  1  0  0  0
 14 13  1  0  0  0
 14 15  1  0  0  0
  5  8  2  0  0  0
  5 10  1  0  0  0
  6  7  2  0  0  0
  6  8  1  0  0  0
  7  9  1  0  0  0
  9 10  2  0  0  0
 32 36  1  0  0  0
 18 25  1  0  0  0
 20 26  1  0  0  0
 22 27  1  0  0  0
 29 30  1  0  0  0
 35 37  1  0  0  0
M  END
> <minimizedAffinity>
-7.68966

$$$$
3N2U_D3X_A_0


 37 38  0  0  0  0  0  0  0  0999 V2000
    2.6457   -4.4559    4.6923 N   0  0  0  0  0  0  0  0  0  0  0  0
    2.3986   -5.8192    5.3724 S   0  0  0  0  0  0  0  0  0  0  0  0
    1.0900   -5.8062    5.9629 O   0  0  0  0  0  0  0  0  0  0  0  0
    2.4646   -6.9046    4.4333 O   0  0  0  0  0  0  0  0  0  0  0  0
    3.8526   -6.6567    8.8843 C   0  0  0  0  0  0  0  0  0  0  0  0
    3.4523   -6.1347    6.5481 C   0  0  0  0  0  0  0  0  0  0  0  0
    4.8354   -6.2740    6.2934 C   0  0  0  0  0  0  0  0  0  0  0  0
    2.9730   -6.3295    7.8519 C   0  0  0  0  0  0  0  0  0  0  0  0
    5.7205   -6.5829    7.3396 C   0  0  0  0  0  0  0  0  0  0  0  0
    5.2234   -6.7793    8.6389 C   0  0  0  0  0  0  0  0  0  0  0  0
    6.0355   -7.1143    9.6999 O   0  0  0  0  0  0  0  0  0  0  0  0
    7.4338   -6.7913    9.7598 C   0  0  0  0  0  0  0  0  0  0  0  0
    2.1229   -3.2491    5.3311 C   0  0  0  0  0  0  0  0  0  0  0  0
    2.3255   -2.0579    4.3978 C   0  0  0  0  0  0  0  0  0  0  0  0
    1.8254   -0.9015    5.0627 O   0  0  0  0  0  0  0  0  0  0  0  0
    0.8250   -0.1813    4.3454 C   0  0  0  0  0  0  0  0  0  0  0  0
    1.3061    1.2466    4.1747 C   0  0  0  0  0  0  0  0  0  0  0  0
    1.4246    1.7932    5.4794 O   0  0  0  0  0  0  0  0  0  0  0  0
   -0.3321   -0.1280    2.2427 C   0  0  0  0  0  0  0  0  0  0  0  0
    0.9119    3.3600    3.1121 O   0  0  0  0  0  0  0  0  0  0  0  0
    0.0024    1.3482    2.0087 C   0  0  0  0  0  0  0  0  0  0  0  0
   -1.1439    1.9357    1.4275 O   0  0  0  0  0  0  0  0  0  0  0  0
    0.3396    2.0639    3.3280 C   0  0  0  0  0  0  0  0  0  0  0  0
    0.6645   -0.7720    3.0535 O   0  0  0  0  0  0  0  0  0  0  0  0
    0.5624    1.7619    5.9227 H   0  0  0  0  0  0  0  0  0  0  0  0
    1.1081    3.7734    3.9674 H   0  0  0  0  0  0  0  0  0  0  0  0
   -1.8982    1.8368    2.0292 H   0  0  0  0  0  0  0  0  0  0  0  0
   -0.4983   -0.9459    0.9578 C   0  0  0  0  0  0  0  0  0  0  0  0
   -1.7911   -0.7461    0.3690 O   0  0  0  0  0  0  0  0  0  0  0  0
   -2.4776   -1.0340    0.9909 H   0  0  0  0  0  0  0  0  0  0  0  0
    3.3518   -4.4044    3.4069 C   0  0  0  0  0  0  0  0  0  0  0  0
    2.5727   -5.9341    1.6956 N   0  0  0  0  0  0  0  0  0  0  0  0
    1.3659   -4.0867    2.1192 O   0  0  0  0  0  0  0  0  0  0  0  0
    2.3500   -4.7925    2.3471 C   0  0  0  0  0  0  0  0  0  0  0  0
    1.5954   -6.3075    0.7893 O   0  0  0  0  0  0  0  0  0  0  0  0
    3.3798   -6.4765    1.8492 H   0  0  0  0  0  0  0  0  0  0  0  0
    0.8875   -5.6443    0.7857 H   0  0  0  0  0  0  0  0  0  0  0  0
 16 17  1  0  0  0
 16 24  1  0  0  0
 16 15  1  0  0  0
 32 34  1  0  0  0
 32 35  1  0  0  0
 33 34  2  0  0  0
  2  1  1  0  0  0
  2  3  2  0  0  0
  2  4  2  0  0  0
  2  6  1  0  0  0
 17 18  1  0  0  0
 17 23  1  0  0  0
  1 13  1  0  0  0
  1 31  1  0  0  0
 34 31  1  0  0  0
 28 19  1  0  0  0
 28 29  1  0  0  0
 19 21  1  0  0  0
 19 24  1  0  0  0
 20 23  1  0  0  0
 21 22  1  0  0  0
 21 23  1  0  0  0
 11 10  1  0  0  0
 11 12  1  0  0  0
 14 13  1  0  0  0
 14 15  1  0  0  0
  5  8  2  0  0  0
  5 10  1  0  0  0
  6  7  2  0  0  0
  6  8  1  0  0  0
  7  9  1  0  0  0
  9 10  2  0  0  0
 32 36  1  0  0  0
 18 25  1  0  0  0
 20 26  1  0  0  0
 22 27  1  0  0  0
 29 30  1  0  0  0
 35 37  1  0  0  0
M  END
> <minimizedAffinity>
-7.63395

$$$$
3N2U_D3X_A_0


 37 38  0  0  0  0  0  0  0  0999 V2000
    2.1885   -5.1626    4.1533 N   0  0  0  0  0  0  0  0  0  0  0  0
    1.8078   -5.9985    5.3937 S   0  0  0  0  0  0  0  0  0  0  0  0
    0.7201   -5.3481    6.0683 O   0  0  0  0  0  0  0  0  0  0  0  0
    1.3939   -7.3272    5.0363 O   0  0  0  0  0  0  0  0  0  0  0  0
    3.7444   -6.1682    8.7656 C   0  0  0  0  0  0  0  0  0  0  0  0
    3.0136   -6.1379    6.4514 C   0  0  0  0  0  0  0  0  0  0  0  0
    4.3313   -6.4470    6.0448 C   0  0  0  0  0  0  0  0  0  0  0  0
    2.7333   -6.0010    7.8190 C   0  0  0  0  0  0  0  0  0  0  0  0
    5.3510   -6.5939    6.9998 C   0  0  0  0  0  0  0  0  0  0  0  0
    5.0522   -6.4581    8.3658 C   0  0  0  0  0  0  0  0  0  0  0  0
    6.0009   -6.6209    9.3512 O   0  0  0  0  0  0  0  0  0  0  0  0
    7.3701   -6.9628    9.0837 C   0  0  0  0  0  0  0  0  0  0  0  0
    1.8464   -5.6785    2.8288 C   0  0  0  0  0  0  0  0  0  0  0  0
    2.6060   -4.8850    1.7684 C   0  0  0  0  0  0  0  0  0  0  0  0
    1.6437   -4.1882    0.9822 O   0  0  0  0  0  0  0  0  0  0  0  0
    2.0501   -2.8936    0.5430 C   0  0  0  0  0  0  0  0  0  0  0  0
    1.7288   -2.7768   -0.9344 C   0  0  0  0  0  0  0  0  0  0  0  0
    2.5110   -3.7580   -1.5981 O   0  0  0  0  0  0  0  0  0  0  0  0
    1.6402   -0.5552    0.8993 C   0  0  0  0  0  0  0  0  0  0  0  0
    1.6045   -1.3112   -2.8285 O   0  0  0  0  0  0  0  0  0  0  0  0
    1.3983   -0.2921   -0.5900 C   0  0  0  0  0  0  0  0  0  0  0  0
    1.9878    0.9588   -0.8810 O   0  0  0  0  0  0  0  0  0  0  0  0
    2.0390   -1.3834   -1.4647 C   0  0  0  0  0  0  0  0  0  0  0  0
    1.3035   -1.9056    1.2573 O   0  0  0  0  0  0  0  0  0  0  0  0
    3.4513   -3.5918   -1.4272 H   0  0  0  0  0  0  0  0  0  0  0  0
    2.0316   -2.0149   -3.3416 H   0  0  0  0  0  0  0  0  0  0  0  0
    2.9359    0.9242   -0.6791 H   0  0  0  0  0  0  0  0  0  0  0  0
    0.8773    0.3874    1.8358 C   0  0  0  0  0  0  0  0  0  0  0  0
    1.2924    0.2259    3.1994 O   0  0  0  0  0  0  0  0  0  0  0  0
    1.1119   -0.6828    3.4869 H   0  0  0  0  0  0  0  0  0  0  0  0
    2.9211   -3.9028    4.3252 C   0  0  0  0  0  0  0  0  0  0  0  0
    0.7302   -2.9866    3.8395 N   0  0  0  0  0  0  0  0  0  0  0  0
    2.1017   -1.8363    5.1977 O   0  0  0  0  0  0  0  0  0  0  0  0
    1.8845   -2.8178    4.4847 C   0  0  0  0  0  0  0  0  0  0  0  0
   -0.2325   -2.0192    4.0703 O   0  0  0  0  0  0  0  0  0  0  0  0
    0.5727   -3.7498    3.2379 H   0  0  0  0  0  0  0  0  0  0  0  0
    0.1156   -1.3577    4.6885 H   0  0  0  0  0  0  0  0  0  0  0  0
 16 17  1  0  0  0
 16 24  1  0  0  0
 16 15  1  0  0  0
 32 34  1  0  0  0
 32 35  1  0  0  0
 33 34  2  0  0  0
  2  1  1  0  0  0
  2  3  2  0  0  0
  2  4  2  0  0  0
  2  6  1  0  0  0
 17 18  1  0  0  0
 17 23  1  0  0  0
  1 13  1  0  0  0
  1 31  1  0  0  0
 34 31  1  0  0  0
 28 19  1  0  0  0
 28 29  1  0  0  0
 19 21  1  0  0  0
 19 24  1  0  0  0
 20 23  1  0  0  0
 21 22  1  0  0  0
 21 23  1  0  0  0
 11 10  1  0  0  0
 11 12  1  0  0  0
 14 13  1  0  0  0
 14 15  1  0  0  0
  5  8  2  0  0  0
  5 10  1  0  0  0
  6  7  2  0  0  0
  6  8  1  0  0  0
  7  9  1  0  0  0
  9 10  2  0  0  0
 32 36  1  0  0  0
 18 25  1  0  0  0
 20 26  1  0  0  0
 22 27  1  0  0  0
 29 30  1  0  0  0
 35 37  1  0  0  0
M  END
> <minimizedAffinity>
-7.48003

$$$$
