3E93_19B_A_361


 39 44  0  0  0  0  0  0  0  0999 V2000
   39.8917   30.3978   34.1831 C   0  0  0  0  0  0  0  0  0  0  0  0
   38.6672   30.6436   33.5476 C   0  0  0  0  0  0  0  0  0  0  0  0
   38.6223   31.4743   32.4251 C   0  0  0  0  0  0  0  0  0  0  0  0
   39.7845   32.0625   31.9257 C   0  0  0  0  0  0  0  0  0  0  0  0
   39.7066   32.9607   30.6945 C   0  0  0  0  0  0  0  0  0  0  0  0
   40.9973   31.8152   32.5726 C   0  0  0  0  0  0  0  0  0  0  0  0
   41.0595   31.0009   33.6863 C   0  0  0  0  0  0  0  0  0  0  0  0
   42.2305   32.4268   32.0502 C   0  0  0  0  0  0  0  0  0  0  0  0
   42.9808   31.7291   31.1053 C   0  0  0  0  0  0  0  0  0  0  0  0
   44.1390   32.3101   30.5845 C   0  0  0  0  0  0  0  0  0  0  0  0
   44.5154   33.5963   31.0373 C   0  0  0  0  0  0  0  0  0  0  0  0
   43.7554   34.2534   31.9645 C   0  0  0  0  0  0  0  0  0  0  0  0
   44.3513   35.4565   32.2092 O   0  0  0  0  0  0  0  0  0  0  0  0
   42.6161   33.6977   32.4764 C   0  0  0  0  0  0  0  0  0  0  0  0
   45.6043   34.4058   30.7011 C   0  0  0  0  0  0  0  0  0  0  0  0
   45.4409   35.5383   31.4570 N   0  0  0  0  0  0  0  0  0  0  0  0
   46.7275   34.0994   29.7347 C   0  0  0  0  0  0  0  0  0  0  0  0
   47.6376   32.9577   30.2488 C   0  0  0  0  0  0  0  0  0  0  0  0
   48.5455   32.4781   29.1176 C   0  0  0  0  0  0  0  0  0  0  0  0
   49.3909   33.5521   28.5725 N   0  0  0  0  0  0  0  0  0  0  0  0
   48.7570   34.8812   28.4100 C   0  0  0  0  0  0  0  0  0  0  0  0
   47.6731   35.2808   29.4502 C   0  0  0  0  0  0  0  0  0  0  0  0
   49.7184   33.2516   27.6545 H   0  0  0  0  0  0  0  0  0  0  0  0
   40.9331   29.8433   36.1911 O   0  0  0  0  0  0  0  0  0  0  0  0
   40.0381   29.5621   35.3989 C   0  0  0  0  0  0  0  0  0  0  0  0
   39.1305   28.5720   35.6408 N   0  0  0  0  0  0  0  0  0  0  0  0
   38.4251   28.4319   34.9686 H   0  0  0  0  0  0  0  0  0  0  0  0
   39.1199   27.7394   36.7658 C   0  0  0  0  0  0  0  0  0  0  0  0
   39.4336   28.1595   38.0930 C   0  0  0  0  0  0  0  0  0  0  0  0
   39.4253   27.2735   39.2018 C   0  0  0  0  0  0  0  0  0  0  0  0
   39.0838   25.9287   38.9225 C   0  0  0  0  0  0  0  0  0  0  0  0
   38.7649   25.5042   37.6266 C   0  0  0  0  0  0  0  0  0  0  0  0
   38.7855   26.4045   36.5522 C   0  0  0  0  0  0  0  0  0  0  0  0
   39.7990   27.6898   40.4983 N   0  0  0  0  0  0  0  0  0  0  0  0
   40.5567   28.9606   40.6477 C   0  0  0  0  0  0  0  0  0  0  0  0
   40.4910   29.5812   42.0579 C   0  0  0  0  0  0  0  0  0  0  0  0
   40.7451   28.5539   42.9858 O   0  0  0  0  0  0  0  0  0  0  0  0
   39.6930   27.6093   43.0470 C   0  0  0  0  0  0  0  0  0  0  0  0
   39.5666   26.8413   41.7111 C   0  0  0  0  0  0  0  0  0  0  0  0
 24 25  2  0  0  0
 25 26  1  0  0  0
 25  1  1  0  0  0
 26 28  1  0  0  0
 28 29  2  0  0  0
 28 33  1  0  0  0
 29 30  1  0  0  0
 30 31  2  0  0  0
 30 34  1  0  0  0
 31 32  1  0  0  0
 32 33  2  0  0  0
 34 35  1  0  0  0
 34 39  1  0  0  0
 35 36  1  0  0  0
 36 37  1  0  0  0
 37 38  1  0  0  0
 38 39  1  0  0  0
  1  2  2  0  0  0
  1  7  1  0  0  0
  2  3  1  0  0  0
  3  4  2  0  0  0
  4  5  1  0  0  0
  4  6  1  0  0  0
  6  7  2  0  0  0
  6  8  1  0  0  0
  8  9  2  0  0  0
  8 14  1  0  0  0
  9 10  1  0  0  0
 10 11  2  0  0  0
 11 12  1  0  0  0
 11 15  1  0  0  0
 12 13  1  0  0  0
 12 14  2  0  0  0
 13 16  1  0  0  0
 15 16  2  0  0  0
 15 17  1  0  0  0
 17 18  1  0  0  0
 17 22  1  0  0  0
 18 19  1  0  0  0
 19 20  1  0  0  0
 20 21  1  0  0  0
 21 22  1  0  0  0
 26 27  1  0  0  0
 20 23  1  0  0  0
M  END
> <minimizedAffinity>
-14.28121

$$$$
3E93_19B_A_361


 39 44  0  0  0  0  0  0  0  0999 V2000
   40.0268   30.4654   34.0791 C   0  0  0  0  0  0  0  0  0  0  0  0
   38.8367   30.6610   33.3656 C   0  0  0  0  0  0  0  0  0  0  0  0
   38.8336   31.4767   32.2314 C   0  0  0  0  0  0  0  0  0  0  0  0
   40.0039   32.0996   31.7972 C   0  0  0  0  0  0  0  0  0  0  0  0
   39.9724   32.9806   30.5515 C   0  0  0  0  0  0  0  0  0  0  0  0
   41.1817   31.9024   32.5215 C   0  0  0  0  0  0  0  0  0  0  0  0
   41.2020   31.1034   33.6477 C   0  0  0  0  0  0  0  0  0  0  0  0
   42.4235   32.5508   32.0684 C   0  0  0  0  0  0  0  0  0  0  0  0
   43.3509   31.8011   31.3471 C   0  0  0  0  0  0  0  0  0  0  0  0
   44.5208   32.4123   30.8910 C   0  0  0  0  0  0  0  0  0  0  0  0
   44.7275   33.7817   31.1792 C   0  0  0  0  0  0  0  0  0  0  0  0
   43.7962   34.4879   31.8883 C   0  0  0  0  0  0  0  0  0  0  0  0
   44.2553   35.7670   32.0133 O   0  0  0  0  0  0  0  0  0  0  0  0
   42.6442   33.9022   32.3341 C   0  0  0  0  0  0  0  0  0  0  0  0
   45.7853   34.6377   30.8592 C   0  0  0  0  0  0  0  0  0  0  0  0
   45.4291   35.8463   31.4007 N   0  0  0  0  0  0  0  0  0  0  0  0
   47.0528   34.3070   30.1021 C   0  0  0  0  0  0  0  0  0  0  0  0
   47.3869   35.3793   29.0370 C   0  0  0  0  0  0  0  0  0  0  0  0
   48.8134   35.1713   28.5312 C   0  0  0  0  0  0  0  0  0  0  0  0
   49.0203   33.8376   27.9450 N   0  0  0  0  0  0  0  0  0  0  0  0
   48.3794   32.6975   28.6410 C   0  0  0  0  0  0  0  0  0  0  0  0
   47.0179   32.9694   29.3402 C   0  0  0  0  0  0  0  0  0  0  0  0
   50.0248   33.6617   27.9243 H   0  0  0  0  0  0  0  0  0  0  0  0
   40.9283   29.9962   36.1747 O   0  0  0  0  0  0  0  0  0  0  0  0
   40.1255   29.6492   35.3128 C   0  0  0  0  0  0  0  0  0  0  0  0
   39.2702   28.6003   35.4887 N   0  0  0  0  0  0  0  0  0  0  0  0
   38.6360   28.4078   34.7608 H   0  0  0  0  0  0  0  0  0  0  0  0
   39.2204   27.7757   36.6186 C   0  0  0  0  0  0  0  0  0  0  0  0
   39.1992   26.3492   36.5855 C   0  0  0  0  0  0  0  0  0  0  0  0
   39.1316   25.5542   37.7592 C   0  0  0  0  0  0  0  0  0  0  0  0
   39.0862   26.2573   38.9866 C   0  0  0  0  0  0  0  0  0  0  0  0
   39.1153   27.6567   39.0347 C   0  0  0  0  0  0  0  0  0  0  0  0
   39.1793   28.4130   37.8560 C   0  0  0  0  0  0  0  0  0  0  0  0
   39.0479   24.1455   37.7080 N   0  0  0  0  0  0  0  0  0  0  0  0
   39.7638   23.4284   36.6197 C   0  0  0  0  0  0  0  0  0  0  0  0
   40.0350   21.9379   36.9078 C   0  0  0  0  0  0  0  0  0  0  0  0
   38.8380   21.3738   37.3872 O   0  0  0  0  0  0  0  0  0  0  0  0
   38.4951   21.8494   38.6754 C   0  0  0  0  0  0  0  0  0  0  0  0
   38.1698   23.3602   38.6339 C   0  0  0  0  0  0  0  0  0  0  0  0
 24 25  2  0  0  0
 25 26  1  0  0  0
 25  1  1  0  0  0
 26 28  1  0  0  0
 28 29  2  0  0  0
 28 33  1  0  0  0
 29 30  1  0  0  0
 30 31  2  0  0  0
 30 34  1  0  0  0
 31 32  1  0  0  0
 32 33  2  0  0  0
 34 35  1  0  0  0
 34 39  1  0  0  0
 35 36  1  0  0  0
 36 37  1  0  0  0
 37 38  1  0  0  0
 38 39  1  0  0  0
  1  2  2  0  0  0
  1  7  1  0  0  0
  2  3  1  0  0  0
  3  4  2  0  0  0
  4  5  1  0  0  0
  4  6  1  0  0  0
  6  7  2  0  0  0
  6  8  1  0  0  0
  8  9  2  0  0  0
  8 14  1  0  0  0
  9 10  1  0  0  0
 10 11  2  0  0  0
 11 12  1  0  0  0
 11 15  1  0  0  0
 12 13  1  0  0  0
 12 14  2  0  0  0
 13 16  1  0  0  0
 15 16  2  0  0  0
 15 17  1  0  0  0
 17 18  1  0  0  0
 17 22  1  0  0  0
 18 19  1  0  0  0
 19 20  1  0  0  0
 20 21  1  0  0  0
 21 22  1  0  0  0
 26 27  1  0  0  0
 20 23  1  0  0  0
M  END
> <minimizedAffinity>
-12.06422

$$$$
