3I60_E86_A_401


 36 39  0  0  0  0  0  0  0  0999 V2000
    7.0053   -3.3740   44.3157 C   0  0  0  0  0  0  0  0  0  0  0  0
    7.0629   -4.5970   43.6736 C   0  0  0  0  0  0  0  0  0  0  0  0
    8.3612   -4.9025   43.4483 N   0  0  0  0  0  0  0  0  0  0  0  0
    9.1542   -3.8967   43.9445 C   0  0  0  0  0  0  0  0  0  0  0  0
    8.3389   -2.9229   44.4687 C   0  0  0  0  0  0  0  0  0  0  0  0
    8.6862   -5.7165   42.9999 H   0  0  0  0  0  0  0  0  0  0  0  0
    6.5568   -1.7914   46.9576 C   0  0  0  0  0  0  0  0  0  0  0  0
    5.5313   -1.9525   45.8651 C   0  0  0  0  0  0  0  0  0  0  0  0
    4.3006   -1.3375   46.0462 C   0  0  0  0  0  0  0  0  0  0  0  0
    3.3557   -1.4555   45.1191 N   0  0  0  0  0  0  0  0  0  0  0  0
    3.5815   -2.1487   44.0194 C   0  0  0  0  0  0  0  0  0  0  0  0
    4.7398   -2.7405   43.8005 N   0  0  0  0  0  0  0  0  0  0  0  0
    5.7356   -2.7004   44.6861 C   0  0  0  0  0  0  0  0  0  0  0  0
    2.5856   -2.2215   43.0741 N   0  0  0  0  0  0  0  0  0  0  0  0
    2.3639   -1.4057   42.5696 H   0  0  0  0  0  0  0  0  0  0  0  0
    1.8659   -3.3945   42.7871 C   0  0  0  0  0  0  0  0  0  0  0  0
    0.8278   -3.8588   43.6011 C   0  0  0  0  0  0  0  0  0  0  0  0
    0.1617   -5.0250   43.2666 C   0  0  0  0  0  0  0  0  0  0  0  0
    0.5310   -5.7510   42.1355 C   0  0  0  0  0  0  0  0  0  0  0  0
    1.5725   -5.3085   41.3342 C   0  0  0  0  0  0  0  0  0  0  0  0
    2.2354   -4.1342   41.6642 C   0  0  0  0  0  0  0  0  0  0  0  0
    3.5308   -3.5496   40.6792 Cl  0  0  0  0  0  0  0  0  0  0  0  0
   10.6127   -3.9057   43.8550 C   0  0  0  0  0  0  0  0  0  0  0  0
   11.1940   -2.9224   43.4149 O   0  0  0  0  0  0  0  0  0  0  0  0
   11.2918   -5.0180   44.2151 N   0  0  0  0  0  0  0  0  0  0  0  0
   10.7938   -5.7890   44.5712 H   0  0  0  0  0  0  0  0  0  0  0  0
   12.7609   -5.1077   44.0888 C   0  0  0  0  0  0  0  0  0  0  0  0
   13.4341   -6.0128   45.0961 C   0  0  0  0  0  0  0  0  0  0  0  0
   14.8168   -6.0823   45.1838 C   0  0  0  0  0  0  0  0  0  0  0  0
   15.4010   -6.9263   46.1111 C   0  0  0  0  0  0  0  0  0  0  0  0
   14.6078   -7.6865   46.9576 C   0  0  0  0  0  0  0  0  0  0  0  0
   13.2244   -7.6194   46.8870 C   0  0  0  0  0  0  0  0  0  0  0  0
   12.6435   -6.7812   45.9466 C   0  0  0  0  0  0  0  0  0  0  0  0
   13.0522   -5.6461   42.6822 C   0  0  0  0  0  0  0  0  0  0  0  0
   13.0847   -4.5804   41.7225 O   0  0  0  0  0  0  0  0  0  0  0  0
   12.2229   -4.1355   41.7041 H   0  0  0  0  0  0  0  0  0  0  0  0
  8  7  1  0  0  0
 13  8  2  0  0  0
  8  9  1  0  0  0
 10  9  2  0  0  0
 11 10  1  0  0  0
 14 11  1  0  0  0
 12 11  2  0  0  0
 16 14  1  0  0  0
 17 16  2  0  0  0
 21 16  1  0  0  0
 18 17  1  0  0  0
 19 18  2  0  0  0
 19 20  1  0  0  0
 20 21  2  0  0  0
 21 22  1  0  0  0
 12 13  1  0  0  0
  1 13  1  0  0  0
  2  1  2  0  0  0
  1  5  1  0  0  0
  3  2  1  0  0  0
  3  4  1  0  0  0
  4 23  1  0  0  0
  4  5  2  0  0  0
 25 23  1  0  0  0
 23 24  2  0  0  0
 25 27  1  0  0  0
 34 27  1  0  0  0
 27 28  1  0  0  0
 35 34  1  0  0  0
 28 33  2  0  0  0
 28 29  1  0  0  0
 29 30  2  0  0  0
 30 31  1  0  0  0
 32 31  2  0  0  0
 33 32  1  0  0  0
 14 15  1  0  0  0
  3  6  1  0  0  0
 25 26  1  0  0  0
 35 36  1  0  0  0
M  END
> <minimizedAffinity>
-10.48331

$$$$
3I60_E86_A_401


 36 39  0  0  0  0  0  0  0  0999 V2000
   10.4815   -3.5153   44.4030 C   0  0  0  0  0  0  0  0  0  0  0  0
   10.8066   -3.2254   43.0908 C   0  0  0  0  0  0  0  0  0  0  0  0
   11.9304   -3.9051   42.7671 N   0  0  0  0  0  0  0  0  0  0  0  0
   12.3389   -4.6438   43.8507 C   0  0  0  0  0  0  0  0  0  0  0  0
   11.4713   -4.4039   44.8886 C   0  0  0  0  0  0  0  0  0  0  0  0
   12.3836   -3.8750   41.8937 H   0  0  0  0  0  0  0  0  0  0  0  0
   10.6858   -1.1434   46.4072 C   0  0  0  0  0  0  0  0  0  0  0  0
    9.4016   -1.8182   45.9991 C   0  0  0  0  0  0  0  0  0  0  0  0
    8.2220   -1.3360   46.5484 C   0  0  0  0  0  0  0  0  0  0  0  0
    7.0615   -1.9006   46.2311 N   0  0  0  0  0  0  0  0  0  0  0  0
    7.0202   -2.9150   45.3883 C   0  0  0  0  0  0  0  0  0  0  0  0
    8.1151   -3.3984   44.8339 N   0  0  0  0  0  0  0  0  0  0  0  0
    9.3254   -2.9146   45.1141 C   0  0  0  0  0  0  0  0  0  0  0  0
    5.7955   -3.4508   45.0667 N   0  0  0  0  0  0  0  0  0  0  0  0
    5.3148   -3.9590   45.7595 H   0  0  0  0  0  0  0  0  0  0  0  0
    5.1906   -3.3145   43.8051 C   0  0  0  0  0  0  0  0  0  0  0  0
    5.7092   -3.9140   42.6530 C   0  0  0  0  0  0  0  0  0  0  0  0
    5.0695   -3.7362   41.4386 C   0  0  0  0  0  0  0  0  0  0  0  0
    3.9234   -2.9476   41.3517 C   0  0  0  0  0  0  0  0  0  0  0  0
    3.4141   -2.3332   42.4855 C   0  0  0  0  0  0  0  0  0  0  0  0
    4.0503   -2.5181   43.7056 C   0  0  0  0  0  0  0  0  0  0  0  0
    3.4337   -1.7748   45.1398 Cl  0  0  0  0  0  0  0  0  0  0  0  0
   13.5322   -5.4872   43.8437 C   0  0  0  0  0  0  0  0  0  0  0  0
   13.9488   -5.9306   42.7815 O   0  0  0  0  0  0  0  0  0  0  0  0
   14.1277   -5.8025   45.0159 N   0  0  0  0  0  0  0  0  0  0  0  0
   13.7707   -5.4236   45.8516 H   0  0  0  0  0  0  0  0  0  0  0  0
   15.2994   -6.6999   45.0768 C   0  0  0  0  0  0  0  0  0  0  0  0
   16.6205   -6.0492   44.7326 C   0  0  0  0  0  0  0  0  0  0  0  0
   17.0169   -4.8682   45.3429 C   0  0  0  0  0  0  0  0  0  0  0  0
   18.2282   -4.2949   44.9996 C   0  0  0  0  0  0  0  0  0  0  0  0
   19.0471   -4.9064   44.0620 C   0  0  0  0  0  0  0  0  0  0  0  0
   18.6672   -6.0922   43.4514 C   0  0  0  0  0  0  0  0  0  0  0  0
   17.4458   -6.6562   43.7896 C   0  0  0  0  0  0  0  0  0  0  0  0
   15.3789   -7.2272   46.5152 C   0  0  0  0  0  0  0  0  0  0  0  0
   15.7855   -8.6027   46.5345 O   0  0  0  0  0  0  0  0  0  0  0  0
   15.1373   -9.1384   46.0509 H   0  0  0  0  0  0  0  0  0  0  0  0
  8  7  1  0  0  0
 13  8  2  0  0  0
  8  9  1  0  0  0
 10  9  2  0  0  0
 11 10  1  0  0  0
 14 11  1  0  0  0
 12 11  2  0  0  0
 16 14  1  0  0  0
 17 16  2  0  0  0
 21 16  1  0  0  0
 18 17  1  0  0  0
 19 18  2  0  0  0
 19 20  1  0  0  0
 20 21  2  0  0  0
 21 22  1  0  0  0
 12 13  1  0  0  0
  1 13  1  0  0  0
  2  1  2  0  0  0
  1  5  1  0  0  0
  3  2  1  0  0  0
  3  4  1  0  0  0
  4 23  1  0  0  0
  4  5  2  0  0  0
 25 23  1  0  0  0
 23 24  2  0  0  0
 25 27  1  0  0  0
 34 27  1  0  0  0
 27 28  1  0  0  0
 35 34  1  0  0  0
 28 33  2  0  0  0
 28 29  1  0  0  0
 29 30  2  0  0  0
 30 31  1  0  0  0
 32 31  2  0  0  0
 33 32  1  0  0  0
 14 15  1  0  0  0
  3  6  1  0  0  0
 25 26  1  0  0  0
 35 36  1  0  0  0
M  END
> <minimizedAffinity>
-10.40616

$$$$
3I60_E86_A_401


 36 39  0  0  0  0  0  0  0  0999 V2000
   12.8731   -5.6246   44.7572 C   0  0  0  0  0  0  0  0  0  0  0  0
   12.9162   -4.2586   44.5476 C   0  0  0  0  0  0  0  0  0  0  0  0
   11.7412   -3.8713   44.0006 N   0  0  0  0  0  0  0  0  0  0  0  0
   10.9263   -4.9678   43.8587 C   0  0  0  0  0  0  0  0  0  0  0  0
   11.6110   -6.0746   44.2989 C   0  0  0  0  0  0  0  0  0  0  0  0
   11.5073   -2.9498   43.7448 H   0  0  0  0  0  0  0  0  0  0  0  0
   12.6862   -7.4815   47.2476 C   0  0  0  0  0  0  0  0  0  0  0  0
   13.9267   -7.2768   46.4167 C   0  0  0  0  0  0  0  0  0  0  0  0
   15.0659   -7.9797   46.7826 C   0  0  0  0  0  0  0  0  0  0  0  0
   16.1907   -7.8291   46.0909 N   0  0  0  0  0  0  0  0  0  0  0  0
   16.2316   -7.0196   45.0498 C   0  0  0  0  0  0  0  0  0  0  0  0
   15.1703   -6.3404   44.6598 N   0  0  0  0  0  0  0  0  0  0  0  0
   14.0076   -6.4065   45.3089 C   0  0  0  0  0  0  0  0  0  0  0  0
   17.4083   -6.9152   44.3463 N   0  0  0  0  0  0  0  0  0  0  0  0
   17.9707   -7.7187   44.2604 H   0  0  0  0  0  0  0  0  0  0  0  0
   17.8542   -5.7265   43.7427 C   0  0  0  0  0  0  0  0  0  0  0  0
   18.4802   -4.7048   44.4640 C   0  0  0  0  0  0  0  0  0  0  0  0
   18.8908   -3.5553   43.8115 C   0  0  0  0  0  0  0  0  0  0  0  0
   18.6671   -3.3997   42.4445 C   0  0  0  0  0  0  0  0  0  0  0  0
   18.0291   -4.3991   41.7258 C   0  0  0  0  0  0  0  0  0  0  0  0
   17.6247   -5.5562   42.3778 C   0  0  0  0  0  0  0  0  0  0  0  0
   16.8367   -6.8257   41.5077 Cl  0  0  0  0  0  0  0  0  0  0  0  0
    9.5837   -4.9018   43.2856 C   0  0  0  0  0  0  0  0  0  0  0  0
    9.2809   -5.6614   42.3747 O   0  0  0  0  0  0  0  0  0  0  0  0
    8.7147   -3.9704   43.7389 N   0  0  0  0  0  0  0  0  0  0  0  0
    8.9883   -3.3793   44.4772 H   0  0  0  0  0  0  0  0  0  0  0  0
    7.3661   -3.8157   43.1566 C   0  0  0  0  0  0  0  0  0  0  0  0
    6.3504   -3.1582   44.0640 C   0  0  0  0  0  0  0  0  0  0  0  0
    5.0046   -3.1291   43.7291 C   0  0  0  0  0  0  0  0  0  0  0  0
    4.1025   -2.5129   44.5778 C   0  0  0  0  0  0  0  0  0  0  0  0
    4.5405   -1.9413   45.7632 C   0  0  0  0  0  0  0  0  0  0  0  0
    5.8817   -1.9718   46.1146 C   0  0  0  0  0  0  0  0  0  0  0  0
    6.7840   -2.5796   45.2540 C   0  0  0  0  0  0  0  0  0  0  0  0
    7.5235   -2.9518   41.8987 C   0  0  0  0  0  0  0  0  0  0  0  0
    7.5346   -3.7650   40.7171 O   0  0  0  0  0  0  0  0  0  0  0  0
    8.2821   -4.3820   40.7563 H   0  0  0  0  0  0  0  0  0  0  0  0
  8  7  1  0  0  0
 13  8  2  0  0  0
  8  9  1  0  0  0
 10  9  2  0  0  0
 11 10  1  0  0  0
 14 11  1  0  0  0
 12 11  2  0  0  0
 16 14  1  0  0  0
 17 16  2  0  0  0
 21 16  1  0  0  0
 18 17  1  0  0  0
 19 18  2  0  0  0
 19 20  1  0  0  0
 20 21  2  0  0  0
 21 22  1  0  0  0
 12 13  1  0  0  0
  1 13  1  0  0  0
  2  1  2  0  0  0
  1  5  1  0  0  0
  3  2  1  0  0  0
  3  4  1  0  0  0
  4 23  1  0  0  0
  4  5  2  0  0  0
 25 23  1  0  0  0
 23 24  2  0  0  0
 25 27  1  0  0  0
 34 27  1  0  0  0
 27 28  1  0  0  0
 35 34  1  0  0  0
 28 33  2  0  0  0
 28 29  1  0  0  0
 29 30  2  0  0  0
 30 31  1  0  0  0
 32 31  2  0  0  0
 33 32  1  0  0  0
 14 15  1  0  0  0
  3  6  1  0  0  0
 25 26  1  0  0  0
 35 36  1  0  0  0
M  END
> <minimizedAffinity>
-10.02070

$$$$
3I60_E86_A_401


 36 39  0  0  0  0  0  0  0  0999 V2000
   10.5993   -3.5796   44.7964 C   0  0  0  0  0  0  0  0  0  0  0  0
   11.0942   -3.4107   43.5165 C   0  0  0  0  0  0  0  0  0  0  0  0
   12.2396   -4.1213   43.4024 N   0  0  0  0  0  0  0  0  0  0  0  0
   12.4944   -4.7607   44.5911 C   0  0  0  0  0  0  0  0  0  0  0  0
   11.5048   -4.4246   45.4829 C   0  0  0  0  0  0  0  0  0  0  0  0
   12.8014   -4.1721   42.5955 H   0  0  0  0  0  0  0  0  0  0  0  0
   10.5746   -0.9348   46.4364 C   0  0  0  0  0  0  0  0  0  0  0  0
    9.3457   -1.6966   46.0115 C   0  0  0  0  0  0  0  0  0  0  0  0
    8.1116   -1.1711   46.3673 C   0  0  0  0  0  0  0  0  0  0  0  0
    6.9953   -1.8071   46.0273 N   0  0  0  0  0  0  0  0  0  0  0  0
    7.0502   -2.9348   45.3445 C   0  0  0  0  0  0  0  0  0  0  0  0
    8.2005   -3.4646   44.9758 N   0  0  0  0  0  0  0  0  0  0  0  0
    9.3711   -2.9125   45.2960 C   0  0  0  0  0  0  0  0  0  0  0  0
    5.8701   -3.5448   44.9899 N   0  0  0  0  0  0  0  0  0  0  0  0
    5.4492   -4.1539   45.6388 H   0  0  0  0  0  0  0  0  0  0  0  0
    5.2304   -3.3483   43.7537 C   0  0  0  0  0  0  0  0  0  0  0  0
    5.7070   -3.9051   42.5626 C   0  0  0  0  0  0  0  0  0  0  0  0
    5.0343   -3.6687   41.3763 C   0  0  0  0  0  0  0  0  0  0  0  0
    3.8967   -2.8634   41.3566 C   0  0  0  0  0  0  0  0  0  0  0  0
    3.4291   -2.2911   42.5297 C   0  0  0  0  0  0  0  0  0  0  0  0
    4.0983   -2.5347   43.7215 C   0  0  0  0  0  0  0  0  0  0  0  0
    3.5339   -1.8450   45.2032 Cl  0  0  0  0  0  0  0  0  0  0  0  0
   13.6654   -5.6060   44.8133 C   0  0  0  0  0  0  0  0  0  0  0  0
   13.6046   -6.5141   45.6320 O   0  0  0  0  0  0  0  0  0  0  0  0
   14.8108   -5.3403   44.1458 N   0  0  0  0  0  0  0  0  0  0  0  0
   14.8235   -4.6065   43.4896 H   0  0  0  0  0  0  0  0  0  0  0  0
   16.0436   -6.1213   44.3743 C   0  0  0  0  0  0  0  0  0  0  0  0
   16.8189   -6.4708   43.1237 C   0  0  0  0  0  0  0  0  0  0  0  0
   18.2061   -6.4613   43.1157 C   0  0  0  0  0  0  0  0  0  0  0  0
   18.8848   -6.7786   41.9528 C   0  0  0  0  0  0  0  0  0  0  0  0
   18.1814   -7.1186   40.8068 C   0  0  0  0  0  0  0  0  0  0  0  0
   16.7948   -7.1414   40.8038 C   0  0  0  0  0  0  0  0  0  0  0  0
   16.1188   -6.8099   41.9689 C   0  0  0  0  0  0  0  0  0  0  0  0
   16.9436   -5.2726   45.2814 C   0  0  0  0  0  0  0  0  0  0  0  0
   16.4515   -5.2654   46.6288 O   0  0  0  0  0  0  0  0  0  0  0  0
   15.5596   -4.8846   46.6452 H   0  0  0  0  0  0  0  0  0  0  0  0
  8  7  1  0  0  0
 13  8  2  0  0  0
  8  9  1  0  0  0
 10  9  2  0  0  0
 11 10  1  0  0  0
 14 11  1  0  0  0
 12 11  2  0  0  0
 16 14  1  0  0  0
 17 16  2  0  0  0
 21 16  1  0  0  0
 18 17  1  0  0  0
 19 18  2  0  0  0
 19 20  1  0  0  0
 20 21  2  0  0  0
 21 22  1  0  0  0
 12 13  1  0  0  0
  1 13  1  0  0  0
  2  1  2  0  0  0
  1  5  1  0  0  0
  3  2  1  0  0  0
  3  4  1  0  0  0
  4 23  1  0  0  0
  4  5  2  0  0  0
 25 23  1  0  0  0
 23 24  2  0  0  0
 25 27  1  0  0  0
 34 27  1  0  0  0
 27 28  1  0  0  0
 35 34  1  0  0  0
 28 33  2  0  0  0
 28 29  1  0  0  0
 29 30  2  0  0  0
 30 31  1  0  0  0
 32 31  2  0  0  0
 33 32  1  0  0  0
 14 15  1  0  0  0
  3  6  1  0  0  0
 25 26  1  0  0  0
 35 36  1  0  0  0
M  END
> <minimizedAffinity>
-10.00614

$$$$
3I60_E86_A_401


 36 39  0  0  0  0  0  0  0  0999 V2000
   12.0524   -4.9469   44.8873 C   0  0  0  0  0  0  0  0  0  0  0  0
   11.2421   -5.3465   43.8407 C   0  0  0  0  0  0  0  0  0  0  0  0
   10.1270   -4.5808   43.8450 N   0  0  0  0  0  0  0  0  0  0  0  0
   10.2033   -3.6783   44.8776 C   0  0  0  0  0  0  0  0  0  0  0  0
   11.3776   -3.8971   45.5565 C   0  0  0  0  0  0  0  0  0  0  0  0
    9.3795   -4.6581   43.2091 H   0  0  0  0  0  0  0  0  0  0  0  0
   12.3551   -7.4685   46.6859 C   0  0  0  0  0  0  0  0  0  0  0  0
   13.4937   -6.7559   46.0027 C   0  0  0  0  0  0  0  0  0  0  0  0
   14.7699   -7.2717   46.1788 C   0  0  0  0  0  0  0  0  0  0  0  0
   15.8119   -6.6769   45.6074 N   0  0  0  0  0  0  0  0  0  0  0  0
   15.6419   -5.6000   44.8643 C   0  0  0  0  0  0  0  0  0  0  0  0
   14.4461   -5.0819   44.6608 N   0  0  0  0  0  0  0  0  0  0  0  0
   13.3473   -5.5936   45.2160 C   0  0  0  0  0  0  0  0  0  0  0  0
   16.7443   -5.0330   44.2695 N   0  0  0  0  0  0  0  0  0  0  0  0
   17.2512   -4.3594   44.7780 H   0  0  0  0  0  0  0  0  0  0  0  0
   17.1889   -5.3603   42.9767 C   0  0  0  0  0  0  0  0  0  0  0  0
   16.6771   -6.4446   42.2567 C   0  0  0  0  0  0  0  0  0  0  0  0
   17.1618   -6.7180   40.9894 C   0  0  0  0  0  0  0  0  0  0  0  0
   18.1704   -5.9329   40.4333 C   0  0  0  0  0  0  0  0  0  0  0  0
   18.6975   -4.8683   41.1484 C   0  0  0  0  0  0  0  0  0  0  0  0
   18.2058   -4.5881   42.4161 C   0  0  0  0  0  0  0  0  0  0  0  0
   18.8341   -3.2607   43.3289 Cl  0  0  0  0  0  0  0  0  0  0  0  0
    9.1533   -2.7061   45.1737 C   0  0  0  0  0  0  0  0  0  0  0  0
    9.4629   -1.5771   45.5315 O   0  0  0  0  0  0  0  0  0  0  0  0
    7.8578   -3.0849   45.0936 N   0  0  0  0  0  0  0  0  0  0  0  0
    7.6435   -3.9987   44.7964 H   0  0  0  0  0  0  0  0  0  0  0  0
    6.7553   -2.1648   45.4399 C   0  0  0  0  0  0  0  0  0  0  0  0
    5.4058   -2.5430   44.8716 C   0  0  0  0  0  0  0  0  0  0  0  0
    5.2653   -3.6357   44.0286 C   0  0  0  0  0  0  0  0  0  0  0  0
    4.0179   -3.9500   43.5197 C   0  0  0  0  0  0  0  0  0  0  0  0
    2.9128   -3.1854   43.8633 C   0  0  0  0  0  0  0  0  0  0  0  0
    3.0378   -2.0963   44.7126 C   0  0  0  0  0  0  0  0  0  0  0  0
    4.2930   -1.7776   45.2099 C   0  0  0  0  0  0  0  0  0  0  0  0
    6.6513   -2.1547   46.9704 C   0  0  0  0  0  0  0  0  0  0  0  0
    7.2569   -0.9748   47.5170 O   0  0  0  0  0  0  0  0  0  0  0  0
    8.1965   -0.9528   47.2771 H   0  0  0  0  0  0  0  0  0  0  0  0
  8  7  1  0  0  0
 13  8  2  0  0  0
  8  9  1  0  0  0
 10  9  2  0  0  0
 11 10  1  0  0  0
 14 11  1  0  0  0
 12 11  2  0  0  0
 16 14  1  0  0  0
 17 16  2  0  0  0
 21 16  1  0  0  0
 18 17  1  0  0  0
 19 18  2  0  0  0
 19 20  1  0  0  0
 20 21  2  0  0  0
 21 22  1  0  0  0
 12 13  1  0  0  0
  1 13  1  0  0  0
  2  1  2  0  0  0
  1  5  1  0  0  0
  3  2  1  0  0  0
  3  4  1  0  0  0
  4 23  1  0  0  0
  4  5  2  0  0  0
 25 23  1  0  0  0
 23 24  2  0  0  0
 25 27  1  0  0  0
 34 27  1  0  0  0
 27 28  1  0  0  0
 35 34  1  0  0  0
 28 33  2  0  0  0
 28 29  1  0  0  0
 29 30  2  0  0  0
 30 31  1  0  0  0
 32 31  2  0  0  0
 33 32  1  0  0  0
 14 15  1  0  0  0
  3  6  1  0  0  0
 25 26  1  0  0  0
 35 36  1  0  0  0
M  END
> <minimizedAffinity>
-9.98725

$$$$
3I60_E86_A_401


 36 39  0  0  0  0  0  0  0  0999 V2000
    7.7025   -2.3949   46.4404 C   0  0  0  0  0  0  0  0  0  0  0  0
    8.2620   -2.7395   47.6568 C   0  0  0  0  0  0  0  0  0  0  0  0
    9.5500   -3.0977   47.4505 N   0  0  0  0  0  0  0  0  0  0  0  0
    9.8418   -2.9822   46.1133 C   0  0  0  0  0  0  0  0  0  0  0  0
    8.7071   -2.5697   45.4577 C   0  0  0  0  0  0  0  0  0  0  0  0
   10.1784   -3.3941   48.1480 H   0  0  0  0  0  0  0  0  0  0  0  0
    6.5102    0.2873   47.4745 C   0  0  0  0  0  0  0  0  0  0  0  0
    5.7413   -0.7594   46.7102 C   0  0  0  0  0  0  0  0  0  0  0  0
    4.4058   -0.5004   46.4362 C   0  0  0  0  0  0  0  0  0  0  0  0
    3.6777   -1.3936   45.7742 N   0  0  0  0  0  0  0  0  0  0  0  0
    4.2182   -2.5260   45.3662 C   0  0  0  0  0  0  0  0  0  0  0  0
    5.4860   -2.8090   45.5948 N   0  0  0  0  0  0  0  0  0  0  0  0
    6.2851   -1.9866   46.2751 C   0  0  0  0  0  0  0  0  0  0  0  0
    3.4356   -3.4093   44.6606 N   0  0  0  0  0  0  0  0  0  0  0  0
    2.8132   -3.9825   45.1638 H   0  0  0  0  0  0  0  0  0  0  0  0
    3.4736   -3.5405   43.2615 C   0  0  0  0  0  0  0  0  0  0  0  0
    4.6173   -3.2541   42.5094 C   0  0  0  0  0  0  0  0  0  0  0  0
    4.5883   -3.3976   41.1331 C   0  0  0  0  0  0  0  0  0  0  0  0
    3.4216   -3.8063   40.4890 C   0  0  0  0  0  0  0  0  0  0  0  0
    2.2773   -4.0728   41.2253 C   0  0  0  0  0  0  0  0  0  0  0  0
    2.3082   -3.9375   42.6066 C   0  0  0  0  0  0  0  0  0  0  0  0
    0.9013   -4.2732   43.5543 Cl  0  0  0  0  0  0  0  0  0  0  0  0
   11.1494   -3.3044   45.5460 C   0  0  0  0  0  0  0  0  0  0  0  0
   11.9686   -2.4104   45.3780 O   0  0  0  0  0  0  0  0  0  0  0  0
   11.4143   -4.5764   45.1720 N   0  0  0  0  0  0  0  0  0  0  0  0
   10.7355   -5.2725   45.3271 H   0  0  0  0  0  0  0  0  0  0  0  0
   12.6945   -4.9502   44.5370 C   0  0  0  0  0  0  0  0  0  0  0  0
   13.5175   -5.9597   45.3055 C   0  0  0  0  0  0  0  0  0  0  0  0
   12.9192   -6.8491   46.1860 C   0  0  0  0  0  0  0  0  0  0  0  0
   13.7018   -7.7551   46.8792 C   0  0  0  0  0  0  0  0  0  0  0  0
   15.0745   -7.7828   46.6826 C   0  0  0  0  0  0  0  0  0  0  0  0
   15.6843   -6.9057   45.7982 C   0  0  0  0  0  0  0  0  0  0  0  0
   14.8965   -5.9907   45.1152 C   0  0  0  0  0  0  0  0  0  0  0  0
   12.3511   -5.5472   43.1662 C   0  0  0  0  0  0  0  0  0  0  0  0
   10.9625   -5.8998   43.0946 O   0  0  0  0  0  0  0  0  0  0  0  0
   10.7620   -6.5635   43.7729 H   0  0  0  0  0  0  0  0  0  0  0  0
  8  7  1  0  0  0
 13  8  2  0  0  0
  8  9  1  0  0  0
 10  9  2  0  0  0
 11 10  1  0  0  0
 14 11  1  0  0  0
 12 11  2  0  0  0
 16 14  1  0  0  0
 17 16  2  0  0  0
 21 16  1  0  0  0
 18 17  1  0  0  0
 19 18  2  0  0  0
 19 20  1  0  0  0
 20 21  2  0  0  0
 21 22  1  0  0  0
 12 13  1  0  0  0
  1 13  1  0  0  0
  2  1  2  0  0  0
  1  5  1  0  0  0
  3  2  1  0  0  0
  3  4  1  0  0  0
  4 23  1  0  0  0
  4  5  2  0  0  0
 25 23  1  0  0  0
 23 24  2  0  0  0
 25 27  1  0  0  0
 34 27  1  0  0  0
 27 28  1  0  0  0
 35 34  1  0  0  0
 28 33  2  0  0  0
 28 29  1  0  0  0
 29 30  2  0  0  0
 30 31  1  0  0  0
 32 31  2  0  0  0
 33 32  1  0  0  0
 14 15  1  0  0  0
  3  6  1  0  0  0
 25 26  1  0  0  0
 35 36  1  0  0  0
M  END
> <minimizedAffinity>
-9.93431

$$$$
3I60_E86_A_401


 36 39  0  0  0  0  0  0  0  0999 V2000
   10.2678   -4.2971   43.2615 C   0  0  0  0  0  0  0  0  0  0  0  0
   10.9615   -3.2344   43.8101 C   0  0  0  0  0  0  0  0  0  0  0  0
   12.2442   -3.6157   44.0077 N   0  0  0  0  0  0  0  0  0  0  0  0
   12.3993   -4.9136   43.5857 C   0  0  0  0  0  0  0  0  0  0  0  0
   11.1832   -5.3705   43.1386 C   0  0  0  0  0  0  0  0  0  0  0  0
   12.9539   -3.0525   44.3929 H   0  0  0  0  0  0  0  0  0  0  0  0
    9.0676   -4.7543   40.4268 C   0  0  0  0  0  0  0  0  0  0  0  0
    8.2602   -4.4943   41.6726 C   0  0  0  0  0  0  0  0  0  0  0  0
    6.8785   -4.4708   41.5470 C   0  0  0  0  0  0  0  0  0  0  0  0
    6.1182   -4.2357   42.6114 N   0  0  0  0  0  0  0  0  0  0  0  0
    6.6680   -4.0317   43.7933 C   0  0  0  0  0  0  0  0  0  0  0  0
    7.9761   -4.0560   43.9610 N   0  0  0  0  0  0  0  0  0  0  0  0
    8.8179   -4.2559   42.9466 C   0  0  0  0  0  0  0  0  0  0  0  0
    5.8429   -3.8198   44.8725 N   0  0  0  0  0  0  0  0  0  0  0  0
    5.2530   -4.5548   45.1573 H   0  0  0  0  0  0  0  0  0  0  0  0
    5.7934   -2.6134   45.5926 C   0  0  0  0  0  0  0  0  0  0  0  0
    6.8467   -2.1763   46.4021 C   0  0  0  0  0  0  0  0  0  0  0  0
    6.7335   -0.9810   47.0907 C   0  0  0  0  0  0  0  0  0  0  0  0
    5.5697   -0.2194   46.9992 C   0  0  0  0  0  0  0  0  0  0  0  0
    4.5128   -0.6556   46.2148 C   0  0  0  0  0  0  0  0  0  0  0  0
    4.6289   -1.8501   45.5169 C   0  0  0  0  0  0  0  0  0  0  0  0
    3.3333   -2.4157   44.5212 Cl  0  0  0  0  0  0  0  0  0  0  0  0
   13.6647   -5.6396   43.6697 C   0  0  0  0  0  0  0  0  0  0  0  0
   14.2078   -6.0218   42.6413 O   0  0  0  0  0  0  0  0  0  0  0  0
   14.1895   -5.9183   44.8842 N   0  0  0  0  0  0  0  0  0  0  0  0
   13.7304   -5.5905   45.6910 H   0  0  0  0  0  0  0  0  0  0  0  0
   15.4332   -6.7013   45.0333 C   0  0  0  0  0  0  0  0  0  0  0  0
   16.7058   -5.9418   44.7319 C   0  0  0  0  0  0  0  0  0  0  0  0
   17.0292   -4.7842   45.4245 C   0  0  0  0  0  0  0  0  0  0  0  0
   18.1974   -4.1091   45.1190 C   0  0  0  0  0  0  0  0  0  0  0  0
   19.0464   -4.5961   44.1363 C   0  0  0  0  0  0  0  0  0  0  0  0
   18.7398   -5.7574   43.4430 C   0  0  0  0  0  0  0  0  0  0  0  0
   17.5609   -6.4236   43.7443 C   0  0  0  0  0  0  0  0  0  0  0  0
   15.4854   -7.1758   46.4912 C   0  0  0  0  0  0  0  0  0  0  0  0
   15.6921   -8.5935   46.5612 O   0  0  0  0  0  0  0  0  0  0  0  0
   14.9581   -9.0494   46.1203 H   0  0  0  0  0  0  0  0  0  0  0  0
  8  7  1  0  0  0
 13  8  2  0  0  0
  8  9  1  0  0  0
 10  9  2  0  0  0
 11 10  1  0  0  0
 14 11  1  0  0  0
 12 11  2  0  0  0
 16 14  1  0  0  0
 17 16  2  0  0  0
 21 16  1  0  0  0
 18 17  1  0  0  0
 19 18  2  0  0  0
 19 20  1  0  0  0
 20 21  2  0  0  0
 21 22  1  0  0  0
 12 13  1  0  0  0
  1 13  1  0  0  0
  2  1  2  0  0  0
  1  5  1  0  0  0
  3  2  1  0  0  0
  3  4  1  0  0  0
  4 23  1  0  0  0
  4  5  2  0  0  0
 25 23  1  0  0  0
 23 24  2  0  0  0
 25 27  1  0  0  0
 34 27  1  0  0  0
 27 28  1  0  0  0
 35 34  1  0  0  0
 28 33  2  0  0  0
 28 29  1  0  0  0
 29 30  2  0  0  0
 30 31  1  0  0  0
 32 31  2  0  0  0
 33 32  1  0  0  0
 14 15  1  0  0  0
  3  6  1  0  0  0
 25 26  1  0  0  0
 35 36  1  0  0  0
M  END
> <minimizedAffinity>
-9.71312

$$$$
3I60_E86_A_401


 36 39  0  0  0  0  0  0  0  0999 V2000
   10.2782   -5.3212   40.8170 C   0  0  0  0  0  0  0  0  0  0  0  0
    9.8709   -5.0262   39.5291 C   0  0  0  0  0  0  0  0  0  0  0  0
    8.5341   -4.8193   39.5388 N   0  0  0  0  0  0  0  0  0  0  0  0
    8.0639   -4.9668   40.8210 C   0  0  0  0  0  0  0  0  0  0  0  0
    9.1208   -5.3013   41.6326 C   0  0  0  0  0  0  0  0  0  0  0  0
    7.9854   -4.5982   38.7519 H   0  0  0  0  0  0  0  0  0  0  0  0
   12.3276   -6.6648   38.8987 C   0  0  0  0  0  0  0  0  0  0  0  0
   12.6273   -6.2254   40.3088 C   0  0  0  0  0  0  0  0  0  0  0  0
   13.9171   -6.4231   40.7808 C   0  0  0  0  0  0  0  0  0  0  0  0
   14.2337   -6.0636   42.0204 N   0  0  0  0  0  0  0  0  0  0  0  0
   13.3303   -5.5105   42.8071 C   0  0  0  0  0  0  0  0  0  0  0  0
   12.0957   -5.2938   42.3967 N   0  0  0  0  0  0  0  0  0  0  0  0
   11.6800   -5.6470   41.1801 C   0  0  0  0  0  0  0  0  0  0  0  0
   13.7085   -5.1286   44.0727 N   0  0  0  0  0  0  0  0  0  0  0  0
   13.7669   -4.1657   44.2689 H   0  0  0  0  0  0  0  0  0  0  0  0
   14.0163   -6.0348   45.1023 C   0  0  0  0  0  0  0  0  0  0  0  0
   13.0319   -6.7214   45.8201 C   0  0  0  0  0  0  0  0  0  0  0  0
   13.4004   -7.5963   46.8272 C   0  0  0  0  0  0  0  0  0  0  0  0
   14.7447   -7.7831   47.1450 C   0  0  0  0  0  0  0  0  0  0  0  0
   15.7261   -7.0911   46.4519 C   0  0  0  0  0  0  0  0  0  0  0  0
   15.3577   -6.2199   45.4357 C   0  0  0  0  0  0  0  0  0  0  0  0
   16.5581   -5.3507   44.5450 Cl  0  0  0  0  0  0  0  0  0  0  0  0
    6.6552   -4.8218   41.1813 C   0  0  0  0  0  0  0  0  0  0  0  0
    5.8169   -5.5160   40.6211 O   0  0  0  0  0  0  0  0  0  0  0  0
    6.2969   -3.8898   42.0929 N   0  0  0  0  0  0  0  0  0  0  0  0
    6.9971   -3.3527   42.5293 H   0  0  0  0  0  0  0  0  0  0  0  0
    4.8833   -3.6557   42.4519 C   0  0  0  0  0  0  0  0  0  0  0  0
    4.6666   -2.9982   43.7966 C   0  0  0  0  0  0  0  0  0  0  0  0
    3.4714   -2.3616   44.0974 C   0  0  0  0  0  0  0  0  0  0  0  0
    3.3084   -1.7634   45.3341 C   0  0  0  0  0  0  0  0  0  0  0  0
    4.3290   -1.8138   46.2719 C   0  0  0  0  0  0  0  0  0  0  0  0
    5.5252   -2.4553   45.9875 C   0  0  0  0  0  0  0  0  0  0  0  0
    5.6884   -3.0424   44.7414 C   0  0  0  0  0  0  0  0  0  0  0  0
    4.2959   -2.7446   41.3665 C   0  0  0  0  0  0  0  0  0  0  0  0
    3.6715   -3.5176   40.3319 O   0  0  0  0  0  0  0  0  0  0  0  0
    4.3309   -4.0960   39.9178 H   0  0  0  0  0  0  0  0  0  0  0  0
  8  7  1  0  0  0
 13  8  2  0  0  0
  8  9  1  0  0  0
 10  9  2  0  0  0
 11 10  1  0  0  0
 14 11  1  0  0  0
 12 11  2  0  0  0
 16 14  1  0  0  0
 17 16  2  0  0  0
 21 16  1  0  0  0
 18 17  1  0  0  0
 19 18  2  0  0  0
 19 20  1  0  0  0
 20 21  2  0  0  0
 21 22  1  0  0  0
 12 13  1  0  0  0
  1 13  1  0  0  0
  2  1  2  0  0  0
  1  5  1  0  0  0
  3  2  1  0  0  0
  3  4  1  0  0  0
  4 23  1  0  0  0
  4  5  2  0  0  0
 25 23  1  0  0  0
 23 24  2  0  0  0
 25 27  1  0  0  0
 34 27  1  0  0  0
 27 28  1  0  0  0
 35 34  1  0  0  0
 28 33  2  0  0  0
 28 29  1  0  0  0
 29 30  2  0  0  0
 30 31  1  0  0  0
 32 31  2  0  0  0
 33 32  1  0  0  0
 14 15  1  0  0  0
  3  6  1  0  0  0
 25 26  1  0  0  0
 35 36  1  0  0  0
M  END
> <minimizedAffinity>
-9.69338

$$$$
3I60_E86_A_401


 36 39  0  0  0  0  0  0  0  0999 V2000
    9.3780   -5.3048   41.7802 C   0  0  0  0  0  0  0  0  0  0  0  0
    8.5204   -6.3892   41.7674 C   0  0  0  0  0  0  0  0  0  0  0  0
    7.2491   -5.9314   41.8305 N   0  0  0  0  0  0  0  0  0  0  0  0
    7.2655   -4.5587   41.8751 C   0  0  0  0  0  0  0  0  0  0  0  0
    8.5747   -4.1420   41.8685 C   0  0  0  0  0  0  0  0  0  0  0  0
    6.4406   -6.4929   41.8425 H   0  0  0  0  0  0  0  0  0  0  0  0
   11.0594   -5.9986   39.2550 C   0  0  0  0  0  0  0  0  0  0  0  0
   11.6321   -5.7091   40.6186 C   0  0  0  0  0  0  0  0  0  0  0  0
   13.0129   -5.7414   40.7533 C   0  0  0  0  0  0  0  0  0  0  0  0
   13.5711   -5.5038   41.9358 N   0  0  0  0  0  0  0  0  0  0  0  0
   12.8208   -5.2282   42.9856 C   0  0  0  0  0  0  0  0  0  0  0  0
   11.5056   -5.1760   42.9010 N   0  0  0  0  0  0  0  0  0  0  0  0
   10.8571   -5.4279   41.7637 C   0  0  0  0  0  0  0  0  0  0  0  0
   13.4414   -4.9615   44.1832 N   0  0  0  0  0  0  0  0  0  0  0  0
   13.6236   -4.0216   44.4124 H   0  0  0  0  0  0  0  0  0  0  0  0
   13.8306   -5.9545   45.0989 C   0  0  0  0  0  0  0  0  0  0  0  0
   12.9111   -6.6535   45.8873 C   0  0  0  0  0  0  0  0  0  0  0  0
   13.3591   -7.6160   46.7753 C   0  0  0  0  0  0  0  0  0  0  0  0
   14.7218   -7.8799   46.9041 C   0  0  0  0  0  0  0  0  0  0  0  0
   15.6416   -7.1773   46.1408 C   0  0  0  0  0  0  0  0  0  0  0  0
   15.1924   -6.2178   45.2437 C   0  0  0  0  0  0  0  0  0  0  0  0
   16.3133   -5.3324   44.2693 Cl  0  0  0  0  0  0  0  0  0  0  0  0
    6.0557   -3.7435   41.9601 C   0  0  0  0  0  0  0  0  0  0  0  0
    5.7586   -3.0095   41.0266 O   0  0  0  0  0  0  0  0  0  0  0  0
    5.3111   -3.7781   43.0882 N   0  0  0  0  0  0  0  0  0  0  0  0
    5.5749   -4.3844   43.8176 H   0  0  0  0  0  0  0  0  0  0  0  0
    4.1127   -2.9310   43.2558 C   0  0  0  0  0  0  0  0  0  0  0  0
    2.7934   -3.6599   43.1327 C   0  0  0  0  0  0  0  0  0  0  0  0
    1.7834   -3.4738   44.0652 C   0  0  0  0  0  0  0  0  0  0  0  0
    0.5911   -4.1619   43.9275 C   0  0  0  0  0  0  0  0  0  0  0  0
    0.4027   -5.0206   42.8548 C   0  0  0  0  0  0  0  0  0  0  0  0
    1.4005   -5.2084   41.9102 C   0  0  0  0  0  0  0  0  0  0  0  0
    2.5989   -4.5260   42.0599 C   0  0  0  0  0  0  0  0  0  0  0  0
    4.1979   -2.3162   44.6587 C   0  0  0  0  0  0  0  0  0  0  0  0
    5.2294   -2.9454   45.4317 O   0  0  0  0  0  0  0  0  0  0  0  0
    5.0316   -3.8903   45.5266 H   0  0  0  0  0  0  0  0  0  0  0  0
  8  7  1  0  0  0
 13  8  2  0  0  0
  8  9  1  0  0  0
 10  9  2  0  0  0
 11 10  1  0  0  0
 14 11  1  0  0  0
 12 11  2  0  0  0
 16 14  1  0  0  0
 17 16  2  0  0  0
 21 16  1  0  0  0
 18 17  1  0  0  0
 19 18  2  0  0  0
 19 20  1  0  0  0
 20 21  2  0  0  0
 21 22  1  0  0  0
 12 13  1  0  0  0
  1 13  1  0  0  0
  2  1  2  0  0  0
  1  5  1  0  0  0
  3  2  1  0  0  0
  3  4  1  0  0  0
  4 23  1  0  0  0
  4  5  2  0  0  0
 25 23  1  0  0  0
 23 24  2  0  0  0
 25 27  1  0  0  0
 34 27  1  0  0  0
 27 28  1  0  0  0
 35 34  1  0  0  0
 28 33  2  0  0  0
 28 29  1  0  0  0
 29 30  2  0  0  0
 30 31  1  0  0  0
 32 31  2  0  0  0
 33 32  1  0  0  0
 14 15  1  0  0  0
  3  6  1  0  0  0
 25 26  1  0  0  0
 35 36  1  0  0  0
M  END
> <minimizedAffinity>
-9.15935

$$$$
3I60_E86_A_401


 36 39  0  0  0  0  0  0  0  0999 V2000
   11.7282   -5.0796   41.8551 C   0  0  0  0  0  0  0  0  0  0  0  0
   11.6137   -3.8189   42.4110 C   0  0  0  0  0  0  0  0  0  0  0  0
   10.3217   -3.6190   42.7583 N   0  0  0  0  0  0  0  0  0  0  0  0
    9.5914   -4.7391   42.4440 C   0  0  0  0  0  0  0  0  0  0  0  0
   10.4340   -5.6542   41.8606 C   0  0  0  0  0  0  0  0  0  0  0  0
    9.9619   -2.8007   43.1708 H   0  0  0  0  0  0  0  0  0  0  0  0
   12.2653   -5.6643   38.8460 C   0  0  0  0  0  0  0  0  0  0  0  0
   13.2658   -5.8661   39.9548 C   0  0  0  0  0  0  0  0  0  0  0  0
   14.5242   -6.3347   39.6046 C   0  0  0  0  0  0  0  0  0  0  0  0
   15.4419   -6.5404   40.5436 N   0  0  0  0  0  0  0  0  0  0  0  0
   15.1684   -6.2942   41.8106 C   0  0  0  0  0  0  0  0  0  0  0  0
   13.9897   -5.8375   42.1875 N   0  0  0  0  0  0  0  0  0  0  0  0
   12.9993   -5.6283   41.3199 C   0  0  0  0  0  0  0  0  0  0  0  0
   16.1563   -6.4947   42.7457 N   0  0  0  0  0  0  0  0  0  0  0  0
   16.1876   -7.3628   43.2089 H   0  0  0  0  0  0  0  0  0  0  0  0
   17.1241   -5.5308   43.0779 C   0  0  0  0  0  0  0  0  0  0  0  0
   17.8440   -4.8225   42.1106 C   0  0  0  0  0  0  0  0  0  0  0  0
   18.7886   -3.8901   42.5030 C   0  0  0  0  0  0  0  0  0  0  0  0
   19.0420   -3.6661   43.8553 C   0  0  0  0  0  0  0  0  0  0  0  0
   18.3471   -4.3786   44.8206 C   0  0  0  0  0  0  0  0  0  0  0  0
   17.3932   -5.3078   44.4279 C   0  0  0  0  0  0  0  0  0  0  0  0
   16.5016   -6.2042   45.6074 Cl  0  0  0  0  0  0  0  0  0  0  0  0
    8.1534   -4.8520   42.6780 C   0  0  0  0  0  0  0  0  0  0  0  0
    7.6149   -5.9481   42.5933 O   0  0  0  0  0  0  0  0  0  0  0  0
    7.4346   -3.7365   42.9369 N   0  0  0  0  0  0  0  0  0  0  0  0
    7.9001   -2.8717   43.0044 H   0  0  0  0  0  0  0  0  0  0  0  0
    5.9696   -3.7803   43.1212 C   0  0  0  0  0  0  0  0  0  0  0  0
    5.4341   -2.8645   44.1990 C   0  0  0  0  0  0  0  0  0  0  0  0
    6.2100   -2.5207   45.2963 C   0  0  0  0  0  0  0  0  0  0  0  0
    5.6873   -1.6867   46.2684 C   0  0  0  0  0  0  0  0  0  0  0  0
    4.4004   -1.1860   46.1377 C   0  0  0  0  0  0  0  0  0  0  0  0
    3.6176   -1.5139   45.0409 C   0  0  0  0  0  0  0  0  0  0  0  0
    4.1419   -2.3609   44.0754 C   0  0  0  0  0  0  0  0  0  0  0  0
    5.3426   -3.3717   41.7821 C   0  0  0  0  0  0  0  0  0  0  0  0
    5.3831   -4.4572   40.8452 O   0  0  0  0  0  0  0  0  0  0  0  0
    6.3055   -4.7101   40.6832 H   0  0  0  0  0  0  0  0  0  0  0  0
  8  7  1  0  0  0
 13  8  2  0  0  0
  8  9  1  0  0  0
 10  9  2  0  0  0
 11 10  1  0  0  0
 14 11  1  0  0  0
 12 11  2  0  0  0
 16 14  1  0  0  0
 17 16  2  0  0  0
 21 16  1  0  0  0
 18 17  1  0  0  0
 19 18  2  0  0  0
 19 20  1  0  0  0
 20 21  2  0  0  0
 21 22  1  0  0  0
 12 13  1  0  0  0
  1 13  1  0  0  0
  2  1  2  0  0  0
  1  5  1  0  0  0
  3  2  1  0  0  0
  3  4  1  0  0  0
  4 23  1  0  0  0
  4  5  2  0  0  0
 25 23  1  0  0  0
 23 24  2  0  0  0
 25 27  1  0  0  0
 34 27  1  0  0  0
 27 28  1  0  0  0
 35 34  1  0  0  0
 28 33  2  0  0  0
 28 29  1  0  0  0
 29 30  2  0  0  0
 30 31  1  0  0  0
 32 31  2  0  0  0
 33 32  1  0  0  0
 14 15  1  0  0  0
  3  6  1  0  0  0
 25 26  1  0  0  0
 35 36  1  0  0  0
M  END
> <minimizedAffinity>
-9.07112

$$$$
