6DH6_017_A_104


 42 45  0  0  0  0  0  0  0  0999 V2000
   71.1802   57.4921   15.4108 C   0  0  0  0  0  0  0  0  0  0  0  0
   71.2516   58.5682   14.5512 O   0  0  0  0  0  0  0  0  0  0  0  0
   70.3793   58.9872   14.4845 H   0  0  0  0  0  0  0  0  0  0  0  0
   70.1387   56.4835   14.8384 C   0  0  0  0  0  0  0  0  0  0  0  0
   70.4867   55.0564   15.3026 N   0  0  0  0  0  0  0  0  0  0  0  0
   69.3380   54.3518   16.3816 S   0  0  0  0  0  0  0  0  0  0  0  0
   69.9729   53.4703   17.3369 O   0  0  0  0  0  0  0  0  0  0  0  0
   68.6839   55.3871   17.2232 O   0  0  0  0  0  0  0  0  0  0  0  0
   65.1737   51.6947   12.8439 N   0  0  0  0  0  0  0  0  0  0  0  0
   66.2006   52.3408   13.7160 C   0  0  0  0  0  0  0  0  0  0  0  0
   67.2740   51.6000   14.1705 C   0  0  0  0  0  0  0  0  0  0  0  0
   68.2227   52.1895   14.9723 C   0  0  0  0  0  0  0  0  0  0  0  0
   68.0840   53.5323   15.3274 C   0  0  0  0  0  0  0  0  0  0  0  0
   67.0297   54.2694   14.8767 C   0  0  0  0  0  0  0  0  0  0  0  0
   66.0692   53.6724   14.0655 C   0  0  0  0  0  0  0  0  0  0  0  0
   65.2659   50.7468   12.5942 H   0  0  0  0  0  0  0  0  0  0  0  0
   64.4049   52.2168   12.5191 H   0  0  0  0  0  0  0  0  0  0  0  0
   71.1268   54.1429   14.3331 C   0  0  0  0  0  0  0  0  0  0  0  0
   72.5666   53.8173   14.7408 C   0  0  0  0  0  0  0  0  0  0  0  0
   72.7899   52.2686   14.8258 C   0  0  0  0  0  0  0  0  0  0  0  0
   73.5600   54.5022   13.7711 C   0  0  0  0  0  0  0  0  0  0  0  0
   70.7850   57.9347   16.8351 C   0  0  0  0  0  0  0  0  0  0  0  0
   71.7692   58.8828   17.2892 N   0  0  0  0  0  0  0  0  0  0  0  0
   72.9956   58.4636   17.9674 C   0  0  0  0  0  0  0  0  0  0  0  0
   73.1862   57.3293   18.2915 O   0  0  0  0  0  0  0  0  0  0  0  0
   71.6118   59.8429   17.1386 H   0  0  0  0  0  0  0  0  0  0  0  0
   73.9045   59.4901   18.2178 O   0  0  0  0  0  0  0  0  0  0  0  0
   74.6322   59.4616   19.4286 C   0  0  0  0  0  0  0  0  0  0  0  0
   76.0992   60.1401   19.0777 C   0  0  0  0  0  0  0  0  0  0  0  0
   75.8155   61.4391   18.9329 O   0  0  0  0  0  0  0  0  0  0  0  0
   74.7220   61.7126   20.0282 C   0  0  0  0  0  0  0  0  0  0  0  0
   73.7840   62.4089   19.5679 O   0  0  0  0  0  0  0  0  0  0  0  0
   72.4220   61.5106   19.5960 C   0  0  0  0  0  0  0  0  0  0  0  0
   72.6505   60.4718   20.3704 C   0  0  0  0  0  0  0  0  0  0  0  0
   74.1369   60.2766   20.3795 C   0  0  0  0  0  0  0  0  0  0  0  0
   69.4473   58.6653   16.8807 C   0  0  0  0  0  0  0  0  0  0  0  0
   68.8656   60.6346   18.3417 C   0  0  0  0  0  0  0  0  0  0  0  0
   68.6214   61.2240   19.5947 C   0  0  0  0  0  0  0  0  0  0  0  0
   68.7111   60.4515   20.7679 C   0  0  0  0  0  0  0  0  0  0  0  0
   69.0341   59.1148   20.6839 C   0  0  0  0  0  0  0  0  0  0  0  0
   69.2740   58.5234   19.4345 C   0  0  0  0  0  0  0  0  0  0  0  0
   69.1869   59.3008   18.2525 C   0  0  0  0  0  0  0  0  0  0  0  0
  9 10  1  0  0  0
 10 11  2  0  0  0
 10 15  1  0  0  0
 11 12  1  0  0  0
 12 13  2  0  0  0
 13 14  1  0  0  0
 13  6  1  0  0  0
 14 15  2  0  0  0
  6  7  2  0  0  0
  6  8  2  0  0  0
  6  5  1  0  0  0
  5 18  1  0  0  0
  5  4  1  0  0  0
 18 19  1  0  0  0
 19 20  1  0  0  0
 19 21  1  0  0  0
  4  1  1  0  0  0
  1  2  1  0  0  0
  1 22  1  0  0  0
 22 23  1  0  0  0
 22 36  1  0  0  0
 23 24  1  0  0  0
 24 25  2  0  0  0
 24 27  1  0  0  0
 27 28  1  0  0  0
 28 29  1  0  0  0
 28 35  1  0  0  0
 29 30  1  0  0  0
 30 31  1  0  0  0
 31 32  1  0  0  0
 31 35  1  0  0  0
 32 33  1  0  0  0
 33 34  1  0  0  0
 34 35  1  0  0  0
 36 42  1  0  0  0
 37 38  2  0  0  0
 37 42  1  0  0  0
 38 39  1  0  0  0
 39 40  2  0  0  0
 40 41  1  0  0  0
 41 42  2  0  0  0
  9 16  1  0  0  0
  9 17  1  0  0  0
  2  3  1  0  0  0
 23 26  1  0  0  0
M  END
> <minimizedAffinity>
-9.59210

$$$$
6DH6_017_A_104


 42 45  0  0  0  0  0  0  0  0999 V2000
   71.2778   57.3930   15.4713 C   0  0  0  0  0  0  0  0  0  0  0  0
   71.4058   58.5467   14.7266 O   0  0  0  0  0  0  0  0  0  0  0  0
   70.5391   58.9740   14.6409 H   0  0  0  0  0  0  0  0  0  0  0  0
   70.2807   56.4488   14.7338 C   0  0  0  0  0  0  0  0  0  0  0  0
   70.6065   54.9815   15.0717 N   0  0  0  0  0  0  0  0  0  0  0  0
   72.2609   54.5428   14.8465 S   0  0  0  0  0  0  0  0  0  0  0  0
   72.9179   55.4080   13.8911 O   0  0  0  0  0  0  0  0  0  0  0  0
   73.0418   54.7255   16.0973 O   0  0  0  0  0  0  0  0  0  0  0  0
   72.2826   48.6551   13.3461 N   0  0  0  0  0  0  0  0  0  0  0  0
   72.2715   50.1043   13.7096 C   0  0  0  0  0  0  0  0  0  0  0  0
   71.2228   50.9033   13.2979 C   0  0  0  0  0  0  0  0  0  0  0  0
   71.2066   52.2373   13.6304 C   0  0  0  0  0  0  0  0  0  0  0  0
   72.2594   52.7729   14.3741 C   0  0  0  0  0  0  0  0  0  0  0  0
   73.2937   51.9875   14.7877 C   0  0  0  0  0  0  0  0  0  0  0  0
   73.3103   50.6373   14.4507 C   0  0  0  0  0  0  0  0  0  0  0  0
   71.5438   48.2742   12.8186 H   0  0  0  0  0  0  0  0  0  0  0  0
   73.0288   48.0810   13.6343 H   0  0  0  0  0  0  0  0  0  0  0  0
   69.9084   54.3561   16.2143 C   0  0  0  0  0  0  0  0  0  0  0  0
   68.4668   53.9871   15.8526 C   0  0  0  0  0  0  0  0  0  0  0  0
   68.1592   52.4955   16.2213 C   0  0  0  0  0  0  0  0  0  0  0  0
   67.4822   54.9741   16.5255 C   0  0  0  0  0  0  0  0  0  0  0  0
   70.7844   57.6976   16.9010 C   0  0  0  0  0  0  0  0  0  0  0  0
   71.6148   58.7442   17.4385 N   0  0  0  0  0  0  0  0  0  0  0  0
   72.9588   58.4817   17.9526 C   0  0  0  0  0  0  0  0  0  0  0  0
   73.3885   57.3729   18.0700 O   0  0  0  0  0  0  0  0  0  0  0  0
   71.2671   59.6650   17.4605 H   0  0  0  0  0  0  0  0  0  0  0  0
   73.6807   59.6197   18.3077 O   0  0  0  0  0  0  0  0  0  0  0  0
   74.3725   59.6184   19.5399 C   0  0  0  0  0  0  0  0  0  0  0  0
   75.8511   60.2850   19.2164 C   0  0  0  0  0  0  0  0  0  0  0  0
   75.5756   61.5808   19.0326 O   0  0  0  0  0  0  0  0  0  0  0  0
   74.4512   61.8827   20.0884 C   0  0  0  0  0  0  0  0  0  0  0  0
   73.5292   62.5701   19.5843 O   0  0  0  0  0  0  0  0  0  0  0  0
   72.1643   61.6758   19.5934 C   0  0  0  0  0  0  0  0  0  0  0  0
   72.3669   60.6551   20.3986 C   0  0  0  0  0  0  0  0  0  0  0  0
   73.8518   60.4568   20.4562 C   0  0  0  0  0  0  0  0  0  0  0  0
   69.3579   58.2353   16.9355 C   0  0  0  0  0  0  0  0  0  0  0  0
   68.7281   60.3651   18.1265 C   0  0  0  0  0  0  0  0  0  0  0  0
   68.4659   61.1072   19.2917 C   0  0  0  0  0  0  0  0  0  0  0  0
   68.5662   60.4960   20.5556 C   0  0  0  0  0  0  0  0  0  0  0  0
   68.9176   59.1670   20.6470 C   0  0  0  0  0  0  0  0  0  0  0  0
   69.1757   58.4233   19.4856 C   0  0  0  0  0  0  0  0  0  0  0  0
   69.0778   59.0382   18.2124 C   0  0  0  0  0  0  0  0  0  0  0  0
  9 10  1  0  0  0
 10 11  2  0  0  0
 10 15  1  0  0  0
 11 12  1  0  0  0
 12 13  2  0  0  0
 13 14  1  0  0  0
 13  6  1  0  0  0
 14 15  2  0  0  0
  6  7  2  0  0  0
  6  8  2  0  0  0
  6  5  1  0  0  0
  5 18  1  0  0  0
  5  4  1  0  0  0
 18 19  1  0  0  0
 19 20  1  0  0  0
 19 21  1  0  0  0
  4  1  1  0  0  0
  1  2  1  0  0  0
  1 22  1  0  0  0
 22 23  1  0  0  0
 22 36  1  0  0  0
 23 24  1  0  0  0
 24 25  2  0  0  0
 24 27  1  0  0  0
 27 28  1  0  0  0
 28 29  1  0  0  0
 28 35  1  0  0  0
 29 30  1  0  0  0
 30 31  1  0  0  0
 31 32  1  0  0  0
 31 35  1  0  0  0
 32 33  1  0  0  0
 33 34  1  0  0  0
 34 35  1  0  0  0
 36 42  1  0  0  0
 37 38  2  0  0  0
 37 42  1  0  0  0
 38 39  1  0  0  0
 39 40  2  0  0  0
 40 41  1  0  0  0
 41 42  2  0  0  0
  9 16  1  0  0  0
  9 17  1  0  0  0
  2  3  1  0  0  0
 23 26  1  0  0  0
M  END
> <minimizedAffinity>
-9.56999

$$$$
6DH6_017_A_104


 42 45  0  0  0  0  0  0  0  0999 V2000
   71.4713   55.8724   18.0611 C   0  0  0  0  0  0  0  0  0  0  0  0
   71.8613   55.0744   19.1162 O   0  0  0  0  0  0  0  0  0  0  0  0
   72.1490   54.2114   18.7798 H   0  0  0  0  0  0  0  0  0  0  0  0
   70.2965   55.1608   17.3243 C   0  0  0  0  0  0  0  0  0  0  0  0
   69.3329   56.2131   16.7432 N   0  0  0  0  0  0  0  0  0  0  0  0
   68.9707   56.0079   15.0679 S   0  0  0  0  0  0  0  0  0  0  0  0
   67.8162   56.7846   14.6717 O   0  0  0  0  0  0  0  0  0  0  0  0
   70.0682   56.5279   14.2118 O   0  0  0  0  0  0  0  0  0  0  0  0
   68.4268   50.0197   14.1948 N   0  0  0  0  0  0  0  0  0  0  0  0
   68.5529   51.4925   14.4124 C   0  0  0  0  0  0  0  0  0  0  0  0
   67.6336   52.1461   15.2093 C   0  0  0  0  0  0  0  0  0  0  0  0
   67.7453   53.5011   15.4142 C   0  0  0  0  0  0  0  0  0  0  0  0
   68.7846   54.2048   14.8034 C   0  0  0  0  0  0  0  0  0  0  0  0
   69.6979   53.5637   14.0207 C   0  0  0  0  0  0  0  0  0  0  0  0
   69.5844   52.1921   13.8131 C   0  0  0  0  0  0  0  0  0  0  0  0
   67.6930   49.5202   14.6207 H   0  0  0  0  0  0  0  0  0  0  0  0
   69.0773   49.5487   13.6254 H   0  0  0  0  0  0  0  0  0  0  0  0
   68.2328   56.7018   17.6004 C   0  0  0  0  0  0  0  0  0  0  0  0
   68.7293   57.7485   18.6020 C   0  0  0  0  0  0  0  0  0  0  0  0
   69.2791   59.0165   17.8635 C   0  0  0  0  0  0  0  0  0  0  0  0
   67.6048   58.0953   19.6077 C   0  0  0  0  0  0  0  0  0  0  0  0
   72.6427   56.1364   17.0922 C   0  0  0  0  0  0  0  0  0  0  0  0
   73.3751   57.2728   17.5880 N   0  0  0  0  0  0  0  0  0  0  0  0
   73.1482   58.6250   17.0782 C   0  0  0  0  0  0  0  0  0  0  0  0
   72.4383   58.8395   16.1412 O   0  0  0  0  0  0  0  0  0  0  0  0
   74.0495   57.1354   18.2920 H   0  0  0  0  0  0  0  0  0  0  0  0
   73.8366   59.6283   17.7576 O   0  0  0  0  0  0  0  0  0  0  0  0
   74.4643   59.3017   18.9807 C   0  0  0  0  0  0  0  0  0  0  0  0
   76.0022   59.8981   18.8603 C   0  0  0  0  0  0  0  0  0  0  0  0
   75.8323   61.2211   18.9584 O   0  0  0  0  0  0  0  0  0  0  0  0
   74.6822   61.3780   20.0180 C   0  0  0  0  0  0  0  0  0  0  0  0
   73.8395   62.2324   19.6487 O   0  0  0  0  0  0  0  0  0  0  0  0
   72.4137   61.4735   19.4160 C   0  0  0  0  0  0  0  0  0  0  0  0
   72.5004   60.2890   19.9821 C   0  0  0  0  0  0  0  0  0  0  0  0
   73.9619   59.9608   20.0423 C   0  0  0  0  0  0  0  0  0  0  0  0
   73.6412   54.9851   17.0392 C   0  0  0  0  0  0  0  0  0  0  0  0
   73.3748   52.7970   15.8175 C   0  0  0  0  0  0  0  0  0  0  0  0
   73.2436   52.0375   14.6415 C   0  0  0  0  0  0  0  0  0  0  0  0
   73.2489   52.6737   13.3859 C   0  0  0  0  0  0  0  0  0  0  0  0
   73.3784   54.0434   13.3134 C   0  0  0  0  0  0  0  0  0  0  0  0
   73.5053   54.8038   14.4856 C   0  0  0  0  0  0  0  0  0  0  0  0
   73.5029   54.1643   15.7505 C   0  0  0  0  0  0  0  0  0  0  0  0
  9 10  1  0  0  0
 10 11  2  0  0  0
 10 15  1  0  0  0
 11 12  1  0  0  0
 12 13  2  0  0  0
 13 14  1  0  0  0
 13  6  1  0  0  0
 14 15  2  0  0  0
  6  7  2  0  0  0
  6  8  2  0  0  0
  6  5  1  0  0  0
  5 18  1  0  0  0
  5  4  1  0  0  0
 18 19  1  0  0  0
 19 20  1  0  0  0
 19 21  1  0  0  0
  4  1  1  0  0  0
  1  2  1  0  0  0
  1 22  1  0  0  0
 22 23  1  0  0  0
 22 36  1  0  0  0
 23 24  1  0  0  0
 24 25  2  0  0  0
 24 27  1  0  0  0
 27 28  1  0  0  0
 28 29  1  0  0  0
 28 35  1  0  0  0
 29 30  1  0  0  0
 30 31  1  0  0  0
 31 32  1  0  0  0
 31 35  1  0  0  0
 32 33  1  0  0  0
 33 34  1  0  0  0
 34 35  1  0  0  0
 36 42  1  0  0  0
 37 38  2  0  0  0
 37 42  1  0  0  0
 38 39  1  0  0  0
 39 40  2  0  0  0
 40 41  1  0  0  0
 41 42  2  0  0  0
  9 16  1  0  0  0
  9 17  1  0  0  0
  2  3  1  0  0  0
 23 26  1  0  0  0
M  END
> <minimizedAffinity>
-9.55617

$$$$
6DH6_017_A_104


 42 45  0  0  0  0  0  0  0  0999 V2000
   71.5265   57.8697   15.5076 C   0  0  0  0  0  0  0  0  0  0  0  0
   71.2176   58.9483   14.7057 O   0  0  0  0  0  0  0  0  0  0  0  0
   70.2540   59.0295   14.6299 H   0  0  0  0  0  0  0  0  0  0  0  0
   70.9267   56.5900   14.8501 C   0  0  0  0  0  0  0  0  0  0  0  0
   70.3232   55.6803   15.9371 N   0  0  0  0  0  0  0  0  0  0  0  0
   68.6513   55.3108   15.7176 S   0  0  0  0  0  0  0  0  0  0  0  0
   67.9231   55.3670   16.9664 O   0  0  0  0  0  0  0  0  0  0  0  0
   67.9829   56.3258   14.8627 O   0  0  0  0  0  0  0  0  0  0  0  0
   68.5296   49.9014   12.9533 N   0  0  0  0  0  0  0  0  0  0  0  0
   68.5541   51.2290   13.6385 C   0  0  0  0  0  0  0  0  0  0  0  0
   68.0235   51.3520   14.9077 C   0  0  0  0  0  0  0  0  0  0  0  0
   68.0443   52.5709   15.5437 C   0  0  0  0  0  0  0  0  0  0  0  0
   68.5943   53.6763   14.8925 C   0  0  0  0  0  0  0  0  0  0  0  0
   69.1244   53.5589   13.6423 C   0  0  0  0  0  0  0  0  0  0  0  0
   69.1028   52.3252   12.9985 C   0  0  0  0  0  0  0  0  0  0  0  0
   68.1393   49.1201   13.4077 H   0  0  0  0  0  0  0  0  0  0  0  0
   68.9037   49.8080   12.0475 H   0  0  0  0  0  0  0  0  0  0  0  0
   71.1682   54.6043   16.4959 C   0  0  0  0  0  0  0  0  0  0  0  0
   72.3741   54.3185   15.5962 C   0  0  0  0  0  0  0  0  0  0  0  0
   73.7169   54.6398   16.3374 C   0  0  0  0  0  0  0  0  0  0  0  0
   72.3197   52.8584   15.0847 C   0  0  0  0  0  0  0  0  0  0  0  0
   70.9781   58.0562   16.9377 C   0  0  0  0  0  0  0  0  0  0  0  0
   71.7641   59.0779   17.5796 N   0  0  0  0  0  0  0  0  0  0  0  0
   73.1376   58.8373   18.0218 C   0  0  0  0  0  0  0  0  0  0  0  0
   73.6343   57.7510   17.9887 O   0  0  0  0  0  0  0  0  0  0  0  0
   71.3647   59.9658   17.7254 H   0  0  0  0  0  0  0  0  0  0  0  0
   73.8040   59.9652   18.4971 O   0  0  0  0  0  0  0  0  0  0  0  0
   74.4180   59.8963   19.7679 C   0  0  0  0  0  0  0  0  0  0  0  0
   75.9099   60.5835   19.5749 C   0  0  0  0  0  0  0  0  0  0  0  0
   75.6388   61.8870   19.4471 O   0  0  0  0  0  0  0  0  0  0  0  0
   74.4493   62.1264   20.4461 C   0  0  0  0  0  0  0  0  0  0  0  0
   73.5564   62.8388   19.9249 O   0  0  0  0  0  0  0  0  0  0  0  0
   72.1988   61.9421   19.7990 C   0  0  0  0  0  0  0  0  0  0  0  0
   72.3570   60.8783   20.5569 C   0  0  0  0  0  0  0  0  0  0  0  0
   73.8366   60.6806   20.6955 C   0  0  0  0  0  0  0  0  0  0  0  0
   69.5385   58.5584   16.9613 C   0  0  0  0  0  0  0  0  0  0  0  0
   69.2514   58.5382   19.4650 C   0  0  0  0  0  0  0  0  0  0  0  0
   68.9397   59.1622   20.6859 C   0  0  0  0  0  0  0  0  0  0  0  0
   68.5584   60.5170   20.7092 C   0  0  0  0  0  0  0  0  0  0  0  0
   68.4964   61.2306   19.5324 C   0  0  0  0  0  0  0  0  0  0  0  0
   68.8110   60.6113   18.3134 C   0  0  0  0  0  0  0  0  0  0  0  0
   69.1924   59.2465   18.2881 C   0  0  0  0  0  0  0  0  0  0  0  0
  9 10  1  0  0  0
 10 11  2  0  0  0
 10 15  1  0  0  0
 11 12  1  0  0  0
 12 13  2  0  0  0
 13 14  1  0  0  0
 13  6  1  0  0  0
 14 15  2  0  0  0
  6  7  2  0  0  0
  6  8  2  0  0  0
  6  5  1  0  0  0
  5 18  1  0  0  0
  5  4  1  0  0  0
 18 19  1  0  0  0
 19 20  1  0  0  0
 19 21  1  0  0  0
  4  1  1  0  0  0
  1  2  1  0  0  0
  1 22  1  0  0  0
 22 23  1  0  0  0
 22 36  1  0  0  0
 23 24  1  0  0  0
 24 25  2  0  0  0
 24 27  1  0  0  0
 27 28  1  0  0  0
 28 29  1  0  0  0
 28 35  1  0  0  0
 29 30  1  0  0  0
 30 31  1  0  0  0
 31 32  1  0  0  0
 31 35  1  0  0  0
 32 33  1  0  0  0
 33 34  1  0  0  0
 34 35  1  0  0  0
 36 42  1  0  0  0
 37 38  2  0  0  0
 37 42  1  0  0  0
 38 39  1  0  0  0
 39 40  2  0  0  0
 40 41  1  0  0  0
 41 42  2  0  0  0
  9 16  1  0  0  0
  9 17  1  0  0  0
  2  3  1  0  0  0
 23 26  1  0  0  0
M  END
> <minimizedAffinity>
-9.37555

$$$$
6DH6_017_A_104


 42 45  0  0  0  0  0  0  0  0999 V2000
   71.4818   55.5811   17.5844 C   0  0  0  0  0  0  0  0  0  0  0  0
   71.7661   55.1545   18.8647 O   0  0  0  0  0  0  0  0  0  0  0  0
   72.2626   54.3221   18.8254 H   0  0  0  0  0  0  0  0  0  0  0  0
   70.6321   54.4779   16.8839 C   0  0  0  0  0  0  0  0  0  0  0  0
   69.2246   55.0225   16.5750 N   0  0  0  0  0  0  0  0  0  0  0  0
   69.2038   56.5894   15.8507 S   0  0  0  0  0  0  0  0  0  0  0  0
   70.3533   56.7992   14.9977 O   0  0  0  0  0  0  0  0  0  0  0  0
   68.0420   56.7454   14.9376 O   0  0  0  0  0  0  0  0  0  0  0  0
   68.7262   60.6117   20.3795 N   0  0  0  0  0  0  0  0  0  0  0  0
   68.8435   59.6165   19.2712 C   0  0  0  0  0  0  0  0  0  0  0  0
   68.5665   58.2858   19.5164 C   0  0  0  0  0  0  0  0  0  0  0  0
   68.6716   57.3657   18.5002 C   0  0  0  0  0  0  0  0  0  0  0  0
   69.0685   57.7872   17.2301 C   0  0  0  0  0  0  0  0  0  0  0  0
   69.3373   59.1001   16.9814 C   0  0  0  0  0  0  0  0  0  0  0  0
   69.2314   60.0313   18.0103 C   0  0  0  0  0  0  0  0  0  0  0  0
   68.4501   60.3179   21.2777 H   0  0  0  0  0  0  0  0  0  0  0  0
   68.9250   61.5611   20.2116 H   0  0  0  0  0  0  0  0  0  0  0  0
   68.1922   54.0702   16.1154 C   0  0  0  0  0  0  0  0  0  0  0  0
   68.8040   52.9511   15.2676 C   0  0  0  0  0  0  0  0  0  0  0  0
   67.8169   51.7412   15.1373 C   0  0  0  0  0  0  0  0  0  0  0  0
   69.2380   53.5070   13.8896 C   0  0  0  0  0  0  0  0  0  0  0  0
   72.7713   55.8652   16.7863 C   0  0  0  0  0  0  0  0  0  0  0  0
   73.4926   56.9054   17.4731 N   0  0  0  0  0  0  0  0  0  0  0  0
   73.3326   58.3180   17.1287 C   0  0  0  0  0  0  0  0  0  0  0  0
   72.6954   58.6727   16.1821 O   0  0  0  0  0  0  0  0  0  0  0  0
   74.1125   56.6581   18.1968 H   0  0  0  0  0  0  0  0  0  0  0  0
   73.9940   59.2043   17.9768 O   0  0  0  0  0  0  0  0  0  0  0  0
   74.2362   58.8032   19.3099 C   0  0  0  0  0  0  0  0  0  0  0  0
   75.8708   58.9392   19.5215 C   0  0  0  0  0  0  0  0  0  0  0  0
   76.0703   60.2609   19.5688 O   0  0  0  0  0  0  0  0  0  0  0  0
   74.8208   60.8051   20.3516 C   0  0  0  0  0  0  0  0  0  0  0  0
   74.3529   61.8316   19.8004 O   0  0  0  0  0  0  0  0  0  0  0  0
   72.8493   61.4840   19.2700 C   0  0  0  0  0  0  0  0  0  0  0  0
   72.4748   60.3648   19.8518 C   0  0  0  0  0  0  0  0  0  0  0  0
   73.7362   59.6489   20.2311 C   0  0  0  0  0  0  0  0  0  0  0  0
   73.7133   54.6672   16.7331 C   0  0  0  0  0  0  0  0  0  0  0  0
   73.3032   52.4624   15.5835 C   0  0  0  0  0  0  0  0  0  0  0  0
   73.0969   51.6787   14.4345 C   0  0  0  0  0  0  0  0  0  0  0  0
   73.0902   52.2798   13.1617 C   0  0  0  0  0  0  0  0  0  0  0  0
   73.2816   53.6393   13.0461 C   0  0  0  0  0  0  0  0  0  0  0  0
   73.4835   54.4240   14.1915 C   0  0  0  0  0  0  0  0  0  0  0  0
   73.4933   53.8195   15.4735 C   0  0  0  0  0  0  0  0  0  0  0  0
  9 10  1  0  0  0
 10 11  2  0  0  0
 10 15  1  0  0  0
 11 12  1  0  0  0
 12 13  2  0  0  0
 13 14  1  0  0  0
 13  6  1  0  0  0
 14 15  2  0  0  0
  6  7  2  0  0  0
  6  8  2  0  0  0
  6  5  1  0  0  0
  5 18  1  0  0  0
  5  4  1  0  0  0
 18 19  1  0  0  0
 19 20  1  0  0  0
 19 21  1  0  0  0
  4  1  1  0  0  0
  1  2  1  0  0  0
  1 22  1  0  0  0
 22 23  1  0  0  0
 22 36  1  0  0  0
 23 24  1  0  0  0
 24 25  2  0  0  0
 24 27  1  0  0  0
 27 28  1  0  0  0
 28 29  1  0  0  0
 28 35  1  0  0  0
 29 30  1  0  0  0
 30 31  1  0  0  0
 31 32  1  0  0  0
 31 35  1  0  0  0
 32 33  1  0  0  0
 33 34  1  0  0  0
 34 35  1  0  0  0
 36 42  1  0  0  0
 37 38  2  0  0  0
 37 42  1  0  0  0
 38 39  1  0  0  0
 39 40  2  0  0  0
 40 41  1  0  0  0
 41 42  2  0  0  0
  9 16  1  0  0  0
  9 17  1  0  0  0
  2  3  1  0  0  0
 23 26  1  0  0  0
M  END
> <minimizedAffinity>
-9.28221

$$$$
6DH6_017_A_104


 42 45  0  0  0  0  0  0  0  0999 V2000
   69.1912   56.8595   17.5198 C   0  0  0  0  0  0  0  0  0  0  0  0
   68.2326   57.0620   18.4904 O   0  0  0  0  0  0  0  0  0  0  0  0
   67.5202   57.6136   18.1312 H   0  0  0  0  0  0  0  0  0  0  0  0
   69.7487   58.2509   17.0922 C   0  0  0  0  0  0  0  0  0  0  0  0
   70.5390   58.8756   18.2578 N   0  0  0  0  0  0  0  0  0  0  0  0
   69.7227   60.1604   19.0721 S   0  0  0  0  0  0  0  0  0  0  0  0
   68.9403   60.9618   18.1563 O   0  0  0  0  0  0  0  0  0  0  0  0
   68.7236   59.6366   20.0392 O   0  0  0  0  0  0  0  0  0  0  0  0
   74.0054   63.2247   22.1028 N   0  0  0  0  0  0  0  0  0  0  0  0
   72.9551   62.4740   21.3505 C   0  0  0  0  0  0  0  0  0  0  0  0
   73.0821   62.3053   19.9856 C   0  0  0  0  0  0  0  0  0  0  0  0
   72.1194   61.6145   19.2882 C   0  0  0  0  0  0  0  0  0  0  0  0
   71.0153   61.0986   19.9689 C   0  0  0  0  0  0  0  0  0  0  0  0
   70.8881   61.2573   21.3166 C   0  0  0  0  0  0  0  0  0  0  0  0
   71.8625   61.9571   22.0224 C   0  0  0  0  0  0  0  0  0  0  0  0
   74.7838   63.5933   21.6259 H   0  0  0  0  0  0  0  0  0  0  0  0
   73.9190   63.3507   23.0753 H   0  0  0  0  0  0  0  0  0  0  0  0
   71.3677   57.9848   19.0968 C   0  0  0  0  0  0  0  0  0  0  0  0
   72.8212   57.9588   18.6153 C   0  0  0  0  0  0  0  0  0  0  0  0
   73.0002   58.8246   17.3215 C   0  0  0  0  0  0  0  0  0  0  0  0
   73.7660   58.4057   19.7572 C   0  0  0  0  0  0  0  0  0  0  0  0
   68.6111   56.1074   16.3040 C   0  0  0  0  0  0  0  0  0  0  0  0
   69.6265   55.2094   15.8177 N   0  0  0  0  0  0  0  0  0  0  0  0
   70.5184   55.5701   14.7158 C   0  0  0  0  0  0  0  0  0  0  0  0
   70.3708   56.5717   14.0812 O   0  0  0  0  0  0  0  0  0  0  0  0
   69.7234   54.3254   16.2400 H   0  0  0  0  0  0  0  0  0  0  0  0
   71.5318   54.6484   14.4593 O   0  0  0  0  0  0  0  0  0  0  0  0
   72.8716   55.0961   14.4972 C   0  0  0  0  0  0  0  0  0  0  0  0
   73.2041   55.3582   16.0960 C   0  0  0  0  0  0  0  0  0  0  0  0
   73.2898   54.1236   16.6032 O   0  0  0  0  0  0  0  0  0  0  0  0
   73.9892   53.2942   15.4660 C   0  0  0  0  0  0  0  0  0  0  0  0
   73.4241   52.1852   15.3013 O   0  0  0  0  0  0  0  0  0  0  0  0
   72.7793   52.1600   13.8024 C   0  0  0  0  0  0  0  0  0  0  0  0
   73.3118   53.1559   13.1273 C   0  0  0  0  0  0  0  0  0  0  0  0
   73.7690   54.1549   14.1474 C   0  0  0  0  0  0  0  0  0  0  0  0
   67.4147   55.2324   16.6620 C   0  0  0  0  0  0  0  0  0  0  0  0
   66.5425   54.1469   14.5615 C   0  0  0  0  0  0  0  0  0  0  0  0
   66.4159   53.0525   13.6878 C   0  0  0  0  0  0  0  0  0  0  0  0
   67.0383   51.8280   13.9952 C   0  0  0  0  0  0  0  0  0  0  0  0
   67.7759   51.7070   15.1526 C   0  0  0  0  0  0  0  0  0  0  0  0
   67.9071   52.7988   16.0238 C   0  0  0  0  0  0  0  0  0  0  0  0
   67.2785   54.0316   15.7169 C   0  0  0  0  0  0  0  0  0  0  0  0
  9 10  1  0  0  0
 10 11  2  0  0  0
 10 15  1  0  0  0
 11 12  1  0  0  0
 12 13  2  0  0  0
 13 14  1  0  0  0
 13  6  1  0  0  0
 14 15  2  0  0  0
  6  7  2  0  0  0
  6  8  2  0  0  0
  6  5  1  0  0  0
  5 18  1  0  0  0
  5  4  1  0  0  0
 18 19  1  0  0  0
 19 20  1  0  0  0
 19 21  1  0  0  0
  4  1  1  0  0  0
  1  2  1  0  0  0
  1 22  1  0  0  0
 22 23  1  0  0  0
 22 36  1  0  0  0
 23 24  1  0  0  0
 24 25  2  0  0  0
 24 27  1  0  0  0
 27 28  1  0  0  0
 28 29  1  0  0  0
 28 35  1  0  0  0
 29 30  1  0  0  0
 30 31  1  0  0  0
 31 32  1  0  0  0
 31 35  1  0  0  0
 32 33  1  0  0  0
 33 34  1  0  0  0
 34 35  1  0  0  0
 36 42  1  0  0  0
 37 38  2  0  0  0
 37 42  1  0  0  0
 38 39  1  0  0  0
 39 40  2  0  0  0
 40 41  1  0  0  0
 41 42  2  0  0  0
  9 16  1  0  0  0
  9 17  1  0  0  0
  2  3  1  0  0  0
 23 26  1  0  0  0
M  END
> <minimizedAffinity>
-9.03527

$$$$
6DH6_017_A_104


 42 45  0  0  0  0  0  0  0  0999 V2000
   71.1204   57.2438   15.3659 C   0  0  0  0  0  0  0  0  0  0  0  0
   71.1962   57.4830   14.0098 O   0  0  0  0  0  0  0  0  0  0  0  0
   72.1135   57.3756   13.7133 H   0  0  0  0  0  0  0  0  0  0  0  0
   72.0459   58.2674   16.0906 C   0  0  0  0  0  0  0  0  0  0  0  0
   71.4986   58.5561   17.5015 N   0  0  0  0  0  0  0  0  0  0  0  0
   69.7840   58.7396   17.5831 S   0  0  0  0  0  0  0  0  0  0  0  0
   69.2452   59.2795   16.3538 O   0  0  0  0  0  0  0  0  0  0  0  0
   69.1077   57.4246   17.7282 O   0  0  0  0  0  0  0  0  0  0  0  0
   68.6281   62.1936   22.4463 N   0  0  0  0  0  0  0  0  0  0  0  0
   68.9152   61.3384   21.2552 C   0  0  0  0  0  0  0  0  0  0  0  0
   69.1769   59.9933   21.4277 C   0  0  0  0  0  0  0  0  0  0  0  0
   69.4406   59.2011   20.3353 C   0  0  0  0  0  0  0  0  0  0  0  0
   69.4511   59.7700   19.0606 C   0  0  0  0  0  0  0  0  0  0  0  0
   69.1878   61.0956   18.8844 C   0  0  0  0  0  0  0  0  0  0  0  0
   68.9214   61.8975   19.9903 C   0  0  0  0  0  0  0  0  0  0  0  0
   68.6234   61.7971   23.3474 H   0  0  0  0  0  0  0  0  0  0  0  0
   68.4436   63.1537   22.3300 H   0  0  0  0  0  0  0  0  0  0  0  0
   72.1457   57.8907   18.6515 C   0  0  0  0  0  0  0  0  0  0  0  0
   73.1922   58.7986   19.3042 C   0  0  0  0  0  0  0  0  0  0  0  0
   74.6381   58.4156   18.8371 C   0  0  0  0  0  0  0  0  0  0  0  0
   72.8568   60.2831   19.0210 C   0  0  0  0  0  0  0  0  0  0  0  0
   71.5353   55.7972   15.7063 C   0  0  0  0  0  0  0  0  0  0  0  0
   70.6952   54.9088   14.9456 N   0  0  0  0  0  0  0  0  0  0  0  0
   69.6883   54.0590   15.5810 C   0  0  0  0  0  0  0  0  0  0  0  0
   69.5956   53.9636   16.7685 O   0  0  0  0  0  0  0  0  0  0  0  0
   70.8018   54.8723   13.9676 H   0  0  0  0  0  0  0  0  0  0  0  0
   68.8678   53.3636   14.6948 O   0  0  0  0  0  0  0  0  0  0  0  0
   67.7118   52.7316   15.2055 C   0  0  0  0  0  0  0  0  0  0  0  0
   66.5009   53.8498   15.0690 C   0  0  0  0  0  0  0  0  0  0  0  0
   66.2601   53.8900   13.7540 O   0  0  0  0  0  0  0  0  0  0  0  0
   66.4213   52.3960   13.2934 C   0  0  0  0  0  0  0  0  0  0  0  0
   67.0829   52.3190   12.2290 O   0  0  0  0  0  0  0  0  0  0  0  0
   68.4680   51.5171   12.5475 C   0  0  0  0  0  0  0  0  0  0  0  0
   68.3243   50.9309   13.7166 C   0  0  0  0  0  0  0  0  0  0  0  0
   67.2718   51.7090   14.4476 C   0  0  0  0  0  0  0  0  0  0  0  0
   72.9674   55.4767   15.2921 C   0  0  0  0  0  0  0  0  0  0  0  0
   73.1484   53.9357   13.3061 C   0  0  0  0  0  0  0  0  0  0  0  0
   73.2613   52.6581   12.7299 C   0  0  0  0  0  0  0  0  0  0  0  0
   73.3053   51.5150   13.5501 C   0  0  0  0  0  0  0  0  0  0  0  0
   73.2420   51.6527   14.9195 C   0  0  0  0  0  0  0  0  0  0  0  0
   73.1335   52.9267   15.4970 C   0  0  0  0  0  0  0  0  0  0  0  0
   73.0863   54.0784   14.6722 C   0  0  0  0  0  0  0  0  0  0  0  0
  9 10  1  0  0  0
 10 11  2  0  0  0
 10 15  1  0  0  0
 11 12  1  0  0  0
 12 13  2  0  0  0
 13 14  1  0  0  0
 13  6  1  0  0  0
 14 15  2  0  0  0
  6  7  2  0  0  0
  6  8  2  0  0  0
  6  5  1  0  0  0
  5 18  1  0  0  0
  5  4  1  0  0  0
 18 19  1  0  0  0
 19 20  1  0  0  0
 19 21  1  0  0  0
  4  1  1  0  0  0
  1  2  1  0  0  0
  1 22  1  0  0  0
 22 23  1  0  0  0
 22 36  1  0  0  0
 23 24  1  0  0  0
 24 25  2  0  0  0
 24 27  1  0  0  0
 27 28  1  0  0  0
 28 29  1  0  0  0
 28 35  1  0  0  0
 29 30  1  0  0  0
 30 31  1  0  0  0
 31 32  1  0  0  0
 31 35  1  0  0  0
 32 33  1  0  0  0
 33 34  1  0  0  0
 34 35  1  0  0  0
 36 42  1  0  0  0
 37 38  2  0  0  0
 37 42  1  0  0  0
 38 39  1  0  0  0
 39 40  2  0  0  0
 40 41  1  0  0  0
 41 42  2  0  0  0
  9 16  1  0  0  0
  9 17  1  0  0  0
  2  3  1  0  0  0
 23 26  1  0  0  0
M  END
> <minimizedAffinity>
-8.92382

$$$$
6DH6_017_A_104


 42 45  0  0  0  0  0  0  0  0999 V2000
   69.8411   57.1129   17.6332 C   0  0  0  0  0  0  0  0  0  0  0  0
   69.1001   57.1222   18.7964 O   0  0  0  0  0  0  0  0  0  0  0  0
   68.2897   57.6372   18.6594 H   0  0  0  0  0  0  0  0  0  0  0  0
   70.1929   58.5876   17.2714 C   0  0  0  0  0  0  0  0  0  0  0  0
   70.8556   59.2761   18.4798 N   0  0  0  0  0  0  0  0  0  0  0  0
   72.5510   58.9875   18.6302 S   0  0  0  0  0  0  0  0  0  0  0  0
   72.8229   57.6888   19.2066 O   0  0  0  0  0  0  0  0  0  0  0  0
   73.2091   58.9379   17.2989 O   0  0  0  0  0  0  0  0  0  0  0  0
   74.7467   63.6138   21.9002 N   0  0  0  0  0  0  0  0  0  0  0  0
   74.2129   62.4769   21.0908 C   0  0  0  0  0  0  0  0  0  0  0  0
   75.0163   61.8800   20.1391 C   0  0  0  0  0  0  0  0  0  0  0  0
   74.5309   60.8327   19.3921 C   0  0  0  0  0  0  0  0  0  0  0  0
   73.2232   60.3901   19.5979 C   0  0  0  0  0  0  0  0  0  0  0  0
   72.4282   60.9719   20.5398 C   0  0  0  0  0  0  0  0  0  0  0  0
   72.9195   62.0323   21.2956 C   0  0  0  0  0  0  0  0  0  0  0  0
   75.6673   63.9314   21.7556 H   0  0  0  0  0  0  0  0  0  0  0  0
   74.1779   64.0452   22.5781 H   0  0  0  0  0  0  0  0  0  0  0  0
   70.3791   60.6207   18.8658 C   0  0  0  0  0  0  0  0  0  0  0  0
   68.8644   60.6319   19.0910 C   0  0  0  0  0  0  0  0  0  0  0  0
   68.5103   60.1909   20.5524 C   0  0  0  0  0  0  0  0  0  0  0  0
   68.2867   62.0248   18.7409 C   0  0  0  0  0  0  0  0  0  0  0  0
   69.0700   56.4375   16.4800 C   0  0  0  0  0  0  0  0  0  0  0  0
   69.9509   55.4785   15.8650 N   0  0  0  0  0  0  0  0  0  0  0  0
   70.7513   55.8051   14.6850 C   0  0  0  0  0  0  0  0  0  0  0  0
   70.6234   56.8373   14.0967 O   0  0  0  0  0  0  0  0  0  0  0  0
   70.0164   54.5751   16.2508 H   0  0  0  0  0  0  0  0  0  0  0  0
   71.6519   54.8145   14.2980 O   0  0  0  0  0  0  0  0  0  0  0  0
   73.0338   55.1036   14.3572 C   0  0  0  0  0  0  0  0  0  0  0  0
   73.3564   55.3912   15.9536 C   0  0  0  0  0  0  0  0  0  0  0  0
   73.2834   54.1773   16.5103 O   0  0  0  0  0  0  0  0  0  0  0  0
   73.9072   53.2252   15.4264 C   0  0  0  0  0  0  0  0  0  0  0  0
   73.2193   52.1840   15.2883 O   0  0  0  0  0  0  0  0  0  0  0  0
   72.6124   52.1721   13.7735 C   0  0  0  0  0  0  0  0  0  0  0  0
   73.2749   53.0699   13.0762 C   0  0  0  0  0  0  0  0  0  0  0  0
   73.8221   54.0501   14.0699 C   0  0  0  0  0  0  0  0  0  0  0  0
   67.8578   55.6460   16.9590 C   0  0  0  0  0  0  0  0  0  0  0  0
   68.0598   53.2327   16.2614 C   0  0  0  0  0  0  0  0  0  0  0  0
   67.7595   52.1555   15.4090 C   0  0  0  0  0  0  0  0  0  0  0  0
   66.9160   52.3477   14.2986 C   0  0  0  0  0  0  0  0  0  0  0  0
   66.3818   53.5936   14.0527 C   0  0  0  0  0  0  0  0  0  0  0  0
   66.6766   54.6690   14.9042 C   0  0  0  0  0  0  0  0  0  0  0  0
   67.5281   54.4776   16.0210 C   0  0  0  0  0  0  0  0  0  0  0  0
  9 10  1  0  0  0
 10 11  2  0  0  0
 10 15  1  0  0  0
 11 12  1  0  0  0
 12 13  2  0  0  0
 13 14  1  0  0  0
 13  6  1  0  0  0
 14 15  2  0  0  0
  6  7  2  0  0  0
  6  8  2  0  0  0
  6  5  1  0  0  0
  5 18  1  0  0  0
  5  4  1  0  0  0
 18 19  1  0  0  0
 19 20  1  0  0  0
 19 21  1  0  0  0
  4  1  1  0  0  0
  1  2  1  0  0  0
  1 22  1  0  0  0
 22 23  1  0  0  0
 22 36  1  0  0  0
 23 24  1  0  0  0
 24 25  2  0  0  0
 24 27  1  0  0  0
 27 28  1  0  0  0
 28 29  1  0  0  0
 28 35  1  0  0  0
 29 30  1  0  0  0
 30 31  1  0  0  0
 31 32  1  0  0  0
 31 35  1  0  0  0
 32 33  1  0  0  0
 33 34  1  0  0  0
 34 35  1  0  0  0
 36 42  1  0  0  0
 37 38  2  0  0  0
 37 42  1  0  0  0
 38 39  1  0  0  0
 39 40  2  0  0  0
 40 41  1  0  0  0
 41 42  2  0  0  0
  9 16  1  0  0  0
  9 17  1  0  0  0
  2  3  1  0  0  0
 23 26  1  0  0  0
M  END
> <minimizedAffinity>
-8.86077

$$$$
6DH6_017_A_104


 42 45  0  0  0  0  0  0  0  0999 V2000
   70.8422   54.5225   14.6622 C   0  0  0  0  0  0  0  0  0  0  0  0
   72.1189   54.6137   14.1484 O   0  0  0  0  0  0  0  0  0  0  0  0
   72.6427   53.8539   14.4472 H   0  0  0  0  0  0  0  0  0  0  0  0
   70.9456   54.5157   16.2174 C   0  0  0  0  0  0  0  0  0  0  0  0
   70.7539   55.9455   16.7581 N   0  0  0  0  0  0  0  0  0  0  0  0
   69.1608   56.5804   16.5608 S   0  0  0  0  0  0  0  0  0  0  0  0
   68.8909   56.9280   15.1827 O   0  0  0  0  0  0  0  0  0  0  0  0
   68.1303   55.5604   16.8855 O   0  0  0  0  0  0  0  0  0  0  0  0
   68.6768   61.2859   20.3741 N   0  0  0  0  0  0  0  0  0  0  0  0
   68.7959   60.1237   19.4427 C   0  0  0  0  0  0  0  0  0  0  0  0
   68.5594   58.8462   19.9113 C   0  0  0  0  0  0  0  0  0  0  0  0
   68.6664   57.7730   19.0586 C   0  0  0  0  0  0  0  0  0  0  0  0
   69.0243   57.9869   17.7265 C   0  0  0  0  0  0  0  0  0  0  0  0
   69.2531   59.2461   17.2575 C   0  0  0  0  0  0  0  0  0  0  0  0
   69.1453   60.3323   18.1210 C   0  0  0  0  0  0  0  0  0  0  0  0
   68.4282   61.1389   21.3153 H   0  0  0  0  0  0  0  0  0  0  0  0
   68.8469   62.1986   20.0466 H   0  0  0  0  0  0  0  0  0  0  0  0
   71.4665   56.3258   17.9957 C   0  0  0  0  0  0  0  0  0  0  0  0
   72.5839   57.3328   17.7085 C   0  0  0  0  0  0  0  0  0  0  0  0
   73.1904   57.8941   19.0399 C   0  0  0  0  0  0  0  0  0  0  0  0
   73.6580   56.6878   16.7992 C   0  0  0  0  0  0  0  0  0  0  0  0
   70.1218   53.2547   14.1580 C   0  0  0  0  0  0  0  0  0  0  0  0
   71.0773   52.1774   14.1575 N   0  0  0  0  0  0  0  0  0  0  0  0
   71.5288   51.5410   12.9202 C   0  0  0  0  0  0  0  0  0  0  0  0
   71.0380   51.7937   11.8604 O   0  0  0  0  0  0  0  0  0  0  0  0
   71.4379   51.8593   15.0166 H   0  0  0  0  0  0  0  0  0  0  0  0
   72.5549   50.6120   13.0822 O   0  0  0  0  0  0  0  0  0  0  0  0
   72.4084   49.6162   14.0739 C   0  0  0  0  0  0  0  0  0  0  0  0
   71.1099   48.7085   13.5992 C   0  0  0  0  0  0  0  0  0  0  0  0
   71.5773   48.0185   12.5532 O   0  0  0  0  0  0  0  0  0  0  0  0
   73.0577   47.6765   12.9555 C   0  0  0  0  0  0  0  0  0  0  0  0
   73.8442   47.8705   11.9962 O   0  0  0  0  0  0  0  0  0  0  0  0
   74.8689   49.0702   12.4128 C   0  0  0  0  0  0  0  0  0  0  0  0
   74.7673   49.2419   13.7133 C   0  0  0  0  0  0  0  0  0  0  0  0
   73.4151   48.7219   14.0989 C   0  0  0  0  0  0  0  0  0  0  0  0
   68.9891   52.8097   15.0769 C   0  0  0  0  0  0  0  0  0  0  0  0
   67.8909   51.1476   13.5334 C   0  0  0  0  0  0  0  0  0  0  0  0
   66.7863   50.6636   12.8104 C   0  0  0  0  0  0  0  0  0  0  0  0
   65.5596   51.3528   12.8500 C   0  0  0  0  0  0  0  0  0  0  0  0
   65.4437   52.5004   13.6034 C   0  0  0  0  0  0  0  0  0  0  0  0
   66.5432   52.9830   14.3291 C   0  0  0  0  0  0  0  0  0  0  0  0
   67.7798   52.2916   14.2878 C   0  0  0  0  0  0  0  0  0  0  0  0
  9 10  1  0  0  0
 10 11  2  0  0  0
 10 15  1  0  0  0
 11 12  1  0  0  0
 12 13  2  0  0  0
 13 14  1  0  0  0
 13  6  1  0  0  0
 14 15  2  0  0  0
  6  7  2  0  0  0
  6  8  2  0  0  0
  6  5  1  0  0  0
  5 18  1  0  0  0
  5  4  1  0  0  0
 18 19  1  0  0  0
 19 20  1  0  0  0
 19 21  1  0  0  0
  4  1  1  0  0  0
  1  2  1  0  0  0
  1 22  1  0  0  0
 22 23  1  0  0  0
 22 36  1  0  0  0
 23 24  1  0  0  0
 24 25  2  0  0  0
 24 27  1  0  0  0
 27 28  1  0  0  0
 28 29  1  0  0  0
 28 35  1  0  0  0
 29 30  1  0  0  0
 30 31  1  0  0  0
 31 32  1  0  0  0
 31 35  1  0  0  0
 32 33  1  0  0  0
 33 34  1  0  0  0
 34 35  1  0  0  0
 36 42  1  0  0  0
 37 38  2  0  0  0
 37 42  1  0  0  0
 38 39  1  0  0  0
 39 40  2  0  0  0
 40 41  1  0  0  0
 41 42  2  0  0  0
  9 16  1  0  0  0
  9 17  1  0  0  0
  2  3  1  0  0  0
 23 26  1  0  0  0
M  END
> <minimizedAffinity>
-8.84855

$$$$
6DH6_017_A_104


 42 45  0  0  0  0  0  0  0  0999 V2000
   70.9746   56.4611   15.3209 C   0  0  0  0  0  0  0  0  0  0  0  0
   71.3844   57.5678   14.6072 O   0  0  0  0  0  0  0  0  0  0  0  0
   70.6196   58.1356   14.4237 H   0  0  0  0  0  0  0  0  0  0  0  0
   69.9250   55.6926   14.4623 C   0  0  0  0  0  0  0  0  0  0  0  0
   70.0149   54.1834   14.7582 N   0  0  0  0  0  0  0  0  0  0  0  0
   68.6618   53.5373   15.6136 S   0  0  0  0  0  0  0  0  0  0  0  0
   69.0684   52.8691   16.8306 O   0  0  0  0  0  0  0  0  0  0  0  0
   67.7534   54.6170   16.0794 O   0  0  0  0  0  0  0  0  0  0  0  0
   65.7349   49.8975   11.7275 N   0  0  0  0  0  0  0  0  0  0  0  0
   66.4510   50.7990   12.6798 C   0  0  0  0  0  0  0  0  0  0  0  0
   66.0275   52.1046   12.8334 C   0  0  0  0  0  0  0  0  0  0  0  0
   66.6819   52.9385   13.7091 C   0  0  0  0  0  0  0  0  0  0  0  0
   67.7773   52.4569   14.4278 C   0  0  0  0  0  0  0  0  0  0  0  0
   68.1957   51.1677   14.2842 C   0  0  0  0  0  0  0  0  0  0  0  0
   67.5335   50.3238   13.3974 C   0  0  0  0  0  0  0  0  0  0  0  0
   64.9641   50.2343   11.2160 H   0  0  0  0  0  0  0  0  0  0  0  0
   66.0338   48.9667   11.6116 H   0  0  0  0  0  0  0  0  0  0  0  0
   70.6303   53.3072   13.7396 C   0  0  0  0  0  0  0  0  0  0  0  0
   72.1479   53.2183   13.9243 C   0  0  0  0  0  0  0  0  0  0  0  0
   72.5256   53.1402   15.4431 C   0  0  0  0  0  0  0  0  0  0  0  0
   72.7112   52.0240   13.1162 C   0  0  0  0  0  0  0  0  0  0  0  0
   70.3755   56.8614   16.6852 C   0  0  0  0  0  0  0  0  0  0  0  0
   71.3713   57.6205   17.3965 N   0  0  0  0  0  0  0  0  0  0  0  0
   72.1476   57.0453   18.4947 C   0  0  0  0  0  0  0  0  0  0  0  0
   71.9108   55.9623   18.9408 O   0  0  0  0  0  0  0  0  0  0  0  0
   71.5347   58.5556   17.1355 H   0  0  0  0  0  0  0  0  0  0  0  0
   73.1631   57.8650   18.9839 O   0  0  0  0  0  0  0  0  0  0  0  0
   73.4354   59.0739   18.3051 C   0  0  0  0  0  0  0  0  0  0  0  0
   72.2800   60.1392   18.8203 C   0  0  0  0  0  0  0  0  0  0  0  0
   72.6479   60.4152   20.0762 O   0  0  0  0  0  0  0  0  0  0  0  0
   74.2177   60.4571   20.0107 C   0  0  0  0  0  0  0  0  0  0  0  0
   74.7280   59.8449   20.9809 O   0  0  0  0  0  0  0  0  0  0  0  0
   75.5498   58.5614   20.3975 C   0  0  0  0  0  0  0  0  0  0  0  0
   75.6912   58.7396   19.1016 C   0  0  0  0  0  0  0  0  0  0  0  0
   74.5860   59.6624   18.6838 C   0  0  0  0  0  0  0  0  0  0  0  0
   69.1634   57.7777   16.5562 C   0  0  0  0  0  0  0  0  0  0  0  0
   68.7312   57.9046   19.0358 C   0  0  0  0  0  0  0  0  0  0  0  0
   68.4955   58.6223   20.2217 C   0  0  0  0  0  0  0  0  0  0  0  0
   68.4269   60.0279   20.1945 C   0  0  0  0  0  0  0  0  0  0  0  0
   68.5964   60.6983   19.0028 C   0  0  0  0  0  0  0  0  0  0  0  0
   68.8358   59.9845   17.8189 C   0  0  0  0  0  0  0  0  0  0  0  0
   68.9023   58.5689   17.8443 C   0  0  0  0  0  0  0  0  0  0  0  0
  9 10  1  0  0  0
 10 11  2  0  0  0
 10 15  1  0  0  0
 11 12  1  0  0  0
 12 13  2  0  0  0
 13 14  1  0  0  0
 13  6  1  0  0  0
 14 15  2  0  0  0
  6  7  2  0  0  0
  6  8  2  0  0  0
  6  5  1  0  0  0
  5 18  1  0  0  0
  5  4  1  0  0  0
 18 19  1  0  0  0
 19 20  1  0  0  0
 19 21  1  0  0  0
  4  1  1  0  0  0
  1  2  1  0  0  0
  1 22  1  0  0  0
 22 23  1  0  0  0
 22 36  1  0  0  0
 23 24  1  0  0  0
 24 25  2  0  0  0
 24 27  1  0  0  0
 27 28  1  0  0  0
 28 29  1  0  0  0
 28 35  1  0  0  0
 29 30  1  0  0  0
 30 31  1  0  0  0
 31 32  1  0  0  0
 31 35  1  0  0  0
 32 33  1  0  0  0
 33 34  1  0  0  0
 34 35  1  0  0  0
 36 42  1  0  0  0
 37 38  2  0  0  0
 37 42  1  0  0  0
 38 39  1  0  0  0
 39 40  2  0  0  0
 40 41  1  0  0  0
 41 42  2  0  0  0
  9 16  1  0  0  0
  9 17  1  0  0  0
  2  3  1  0  0  0
 23 26  1  0  0  0
M  END
> <minimizedAffinity>
-8.62884

$$$$
