5CS3_EP1_B_301


 18 18  0  0  0  0  0  0  0  0999 V2000
   -1.8825   26.7647  -10.9069 N   0  0  0  0  0  0  0  0  0  0  0  0
   -2.4613   25.4128  -11.1596 C   0  0  0  0  0  0  0  0  0  0  0  0
   -1.4210   24.2620  -11.1985 C   0  0  0  0  0  0  0  0  0  0  0  0
   -0.4445   24.3686  -10.0875 N   0  0  0  0  0  0  0  0  0  0  0  0
    0.3074   25.6192  -10.2856 C   0  0  0  0  0  0  0  0  0  0  0  0
   -0.6113   26.8535  -10.1454 C   0  0  0  0  0  0  0  0  0  0  0  0
   -2.9296   27.6050  -10.2630 C   0  0  0  0  0  0  0  0  0  0  0  0
   -3.3379   28.8173  -11.1229 C   0  0  0  0  0  0  0  0  0  0  0  0
   -4.8438   29.1019  -11.1236 C   0  0  0  0  0  0  0  0  0  0  0  0
   -5.6193   29.0710  -13.6941 O   0  0  0  0  0  0  0  0  0  0  0  0
   -5.2986   30.0367  -12.6406 S   0  0  0  0  0  0  0  0  0  0  0  0
   -6.4761   30.8749  -12.2063 O   0  0  0  0  0  0  0  0  0  0  0  0
   -4.2020   30.9497  -13.1381 O   0  0  0  0  0  0  0  0  0  0  0  0
   -4.5030   31.4115  -13.9362 H   0  0  0  0  0  0  0  0  0  0  0  0
   -1.1047   24.3195   -8.7586 C   0  0  0  0  0  0  0  0  0  0  0  0
   -0.0763   24.1879   -7.6432 C   0  0  0  0  0  0  0  0  0  0  0  0
   -0.5737   23.3108   -6.6205 O   0  0  0  0  0  0  0  0  0  0  0  0
   -1.3947   23.6746   -6.2537 H   0  0  0  0  0  0  0  0  0  0  0  0
 10 11  2  0  0  0
 11 12  2  0  0  0
 11 13  1  0  0  0
 11  9  1  0  0  0
  9  8  1  0  0  0
  8  7  1  0  0  0
  7  1  1  0  0  0
  1  2  1  0  0  0
  1  6  1  0  0  0
  2  3  1  0  0  0
  3  4  1  0  0  0
  4  5  1  0  0  0
  4 15  1  0  0  0
  5  6  1  0  0  0
 15 16  1  0  0  0
 16 17  1  0  0  0
 13 14  1  0  0  0
 17 18  1  0  0  0
M  END
> <minimizedAffinity>
-5.53874

$$$$
5CS3_EP1_B_301


 18 18  0  0  0  0  0  0  0  0999 V2000
   -0.6356   24.5252  -11.6685 N   0  0  0  0  0  0  0  0  0  0  0  0
   -1.4704   23.6750  -10.7702 C   0  0  0  0  0  0  0  0  0  0  0  0
   -0.6811   22.5891   -9.9918 C   0  0  0  0  0  0  0  0  0  0  0  0
    0.5732   23.1312   -9.4154 N   0  0  0  0  0  0  0  0  0  0  0  0
    1.4283   23.5439  -10.5410 C   0  0  0  0  0  0  0  0  0  0  0  0
    0.7959   24.7155  -11.3249 C   0  0  0  0  0  0  0  0  0  0  0  0
   -1.3103   25.8440  -11.8184 C   0  0  0  0  0  0  0  0  0  0  0  0
   -1.6507   26.5004  -10.4660 C   0  0  0  0  0  0  0  0  0  0  0  0
   -2.4189   27.8207  -10.5900 C   0  0  0  0  0  0  0  0  0  0  0  0
   -4.6043   26.6361   -9.5746 O   0  0  0  0  0  0  0  0  0  0  0  0
   -4.2225   27.4812  -10.7083 S   0  0  0  0  0  0  0  0  0  0  0  0
   -4.8488   28.8540  -10.6804 O   0  0  0  0  0  0  0  0  0  0  0  0
   -4.6225   26.7844  -11.9882 O   0  0  0  0  0  0  0  0  0  0  0  0
   -5.5809   26.6347  -11.9890 H   0  0  0  0  0  0  0  0  0  0  0  0
    0.3157   24.2484   -8.4720 C   0  0  0  0  0  0  0  0  0  0  0  0
   -0.8460   23.9213   -7.5434 C   0  0  0  0  0  0  0  0  0  0  0  0
   -0.3668   23.2055   -6.3941 O   0  0  0  0  0  0  0  0  0  0  0  0
    0.0534   22.3792   -6.6798 H   0  0  0  0  0  0  0  0  0  0  0  0
 10 11  2  0  0  0
 11 12  2  0  0  0
 11 13  1  0  0  0
 11  9  1  0  0  0
  9  8  1  0  0  0
  8  7  1  0  0  0
  7  1  1  0  0  0
  1  2  1  0  0  0
  1  6  1  0  0  0
  2  3  1  0  0  0
  3  4  1  0  0  0
  4  5  1  0  0  0
  4 15  1  0  0  0
  5  6  1  0  0  0
 15 16  1  0  0  0
 16 17  1  0  0  0
 13 14  1  0  0  0
 17 18  1  0  0  0
M  END
> <minimizedAffinity>
-5.51593

$$$$
5CS3_EP1_B_301


 18 18  0  0  0  0  0  0  0  0999 V2000
   -2.6737   27.0861  -11.5489 N   0  0  0  0  0  0  0  0  0  0  0  0
   -3.0002   28.2360  -10.6558 C   0  0  0  0  0  0  0  0  0  0  0  0
   -3.5744   29.4786  -11.3869 C   0  0  0  0  0  0  0  0  0  0  0  0
   -4.6044   29.0999  -12.3844 N   0  0  0  0  0  0  0  0  0  0  0  0
   -3.9377   28.2813  -13.4110 C   0  0  0  0  0  0  0  0  0  0  0  0
   -3.4274   26.9480  -12.8203 C   0  0  0  0  0  0  0  0  0  0  0  0
   -2.7760   25.8340  -10.7496 C   0  0  0  0  0  0  0  0  0  0  0  0
   -1.5751   25.6252   -9.8063 C   0  0  0  0  0  0  0  0  0  0  0  0
   -1.8816   24.7387   -8.5942 C   0  0  0  0  0  0  0  0  0  0  0  0
   -0.0927   22.7702   -8.9620 O   0  0  0  0  0  0  0  0  0  0  0  0
   -0.3481   23.8842   -8.0460 S   0  0  0  0  0  0  0  0  0  0  0  0
    0.7033   24.9657   -8.0971 O   0  0  0  0  0  0  0  0  0  0  0  0
   -0.4294   23.3438   -6.6371 O   0  0  0  0  0  0  0  0  0  0  0  0
    0.4063   22.9071   -6.4096 H   0  0  0  0  0  0  0  0  0  0  0  0
   -5.7490   28.3888  -11.7610 C   0  0  0  0  0  0  0  0  0  0  0  0
   -7.0430   28.6757  -12.5107 C   0  0  0  0  0  0  0  0  0  0  0  0
   -8.1165   27.9072  -11.9453 O   0  0  0  0  0  0  0  0  0  0  0  0
   -7.9106   26.9620  -12.0180 H   0  0  0  0  0  0  0  0  0  0  0  0
 10 11  2  0  0  0
 11 12  2  0  0  0
 11 13  1  0  0  0
 11  9  1  0  0  0
  9  8  1  0  0  0
  8  7  1  0  0  0
  7  1  1  0  0  0
  1  2  1  0  0  0
  1  6  1  0  0  0
  2  3  1  0  0  0
  3  4  1  0  0  0
  4  5  1  0  0  0
  4 15  1  0  0  0
  5  6  1  0  0  0
 15 16  1  0  0  0
 16 17  1  0  0  0
 13 14  1  0  0  0
 17 18  1  0  0  0
M  END
> <minimizedAffinity>
-5.43796

$$$$
5CS3_EP1_B_301


 18 18  0  0  0  0  0  0  0  0999 V2000
   -2.1024   27.0037   -9.9963 N   0  0  0  0  0  0  0  0  0  0  0  0
   -0.6297   26.8403  -10.1720 C   0  0  0  0  0  0  0  0  0  0  0  0
    0.0063   25.7310   -9.2927 C   0  0  0  0  0  0  0  0  0  0  0  0
   -0.8052   24.4898   -9.3051 N   0  0  0  0  0  0  0  0  0  0  0  0
   -2.1061   24.8126   -8.6953 C   0  0  0  0  0  0  0  0  0  0  0  0
   -2.8923   25.8265   -9.5562 C   0  0  0  0  0  0  0  0  0  0  0  0
   -2.6620   27.5575  -11.2602 C   0  0  0  0  0  0  0  0  0  0  0  0
   -3.1832   28.9996  -11.1037 C   0  0  0  0  0  0  0  0  0  0  0  0
   -4.7116   29.1125  -11.0975 C   0  0  0  0  0  0  0  0  0  0  0  0
   -4.1933   30.9304  -13.0045 O   0  0  0  0  0  0  0  0  0  0  0  0
   -5.2726   30.0322  -12.5879 S   0  0  0  0  0  0  0  0  0  0  0  0
   -5.5768   28.9437  -13.5881 O   0  0  0  0  0  0  0  0  0  0  0  0
   -6.5219   30.8506  -12.3571 O   0  0  0  0  0  0  0  0  0  0  0  0
   -6.7643   31.3089  -13.1769 H   0  0  0  0  0  0  0  0  0  0  0  0
   -0.9536   23.9346  -10.6740 C   0  0  0  0  0  0  0  0  0  0  0  0
   -0.3289   22.5492  -10.7714 C   0  0  0  0  0  0  0  0  0  0  0  0
   -0.3398   21.9162   -9.4822 O   0  0  0  0  0  0  0  0  0  0  0  0
    0.1713   22.4513   -8.8550 H   0  0  0  0  0  0  0  0  0  0  0  0
 10 11  2  0  0  0
 11 12  2  0  0  0
 11 13  1  0  0  0
 11  9  1  0  0  0
  9  8  1  0  0  0
  8  7  1  0  0  0
  7  1  1  0  0  0
  1  2  1  0  0  0
  1  6  1  0  0  0
  2  3  1  0  0  0
  3  4  1  0  0  0
  4  5  1  0  0  0
  4 15  1  0  0  0
  5  6  1  0  0  0
 15 16  1  0  0  0
 16 17  1  0  0  0
 13 14  1  0  0  0
 17 18  1  0  0  0
M  END
> <minimizedAffinity>
-5.36516

$$$$
5CS3_EP1_B_301


 18 18  0  0  0  0  0  0  0  0999 V2000
   -1.3402   26.4383   -9.6066 N   0  0  0  0  0  0  0  0  0  0  0  0
    0.1415   26.3329   -9.7476 C   0  0  0  0  0  0  0  0  0  0  0  0
    0.8000   25.2501   -8.8519 C   0  0  0  0  0  0  0  0  0  0  0  0
    0.0384   23.9779   -8.8813 N   0  0  0  0  0  0  0  0  0  0  0  0
   -1.2881   24.2497   -8.3025 C   0  0  0  0  0  0  0  0  0  0  0  0
   -2.0932   25.2312   -9.1831 C   0  0  0  0  0  0  0  0  0  0  0  0
   -1.8914   26.9688  -10.8841 C   0  0  0  0  0  0  0  0  0  0  0  0
   -2.8148   28.1858  -10.6789 C   0  0  0  0  0  0  0  0  0  0  0  0
   -4.3028   27.8304  -10.5868 C   0  0  0  0  0  0  0  0  0  0  0  0
   -6.5826   28.0967  -11.9803 O   0  0  0  0  0  0  0  0  0  0  0  0
   -5.2193   28.6317  -11.9652 S   0  0  0  0  0  0  0  0  0  0  0  0
   -5.1478   30.1029  -11.6365 O   0  0  0  0  0  0  0  0  0  0  0  0
   -4.5932   28.4000  -13.3210 O   0  0  0  0  0  0  0  0  0  0  0  0
   -5.1213   28.8461  -14.0015 H   0  0  0  0  0  0  0  0  0  0  0  0
   -0.0559   23.4163  -10.2524 C   0  0  0  0  0  0  0  0  0  0  0  0
   -0.5898   21.9905  -10.2223 C   0  0  0  0  0  0  0  0  0  0  0  0
   -1.8808   21.9384  -10.8495 O   0  0  0  0  0  0  0  0  0  0  0  0
   -2.4956   22.5175  -10.3725 H   0  0  0  0  0  0  0  0  0  0  0  0
 10 11  2  0  0  0
 11 12  2  0  0  0
 11 13  1  0  0  0
 11  9  1  0  0  0
  9  8  1  0  0  0
  8  7  1  0  0  0
  7  1  1  0  0  0
  1  2  1  0  0  0
  1  6  1  0  0  0
  2  3  1  0  0  0
  3  4  1  0  0  0
  4  5  1  0  0  0
  4 15  1  0  0  0
  5  6  1  0  0  0
 15 16  1  0  0  0
 16 17  1  0  0  0
 13 14  1  0  0  0
 17 18  1  0  0  0
M  END
> <minimizedAffinity>
-5.12629

$$$$
5CS3_EP1_B_301


 18 18  0  0  0  0  0  0  0  0999 V2000
   -2.0936   26.4549   -9.3863 N   0  0  0  0  0  0  0  0  0  0  0  0
   -0.8090   26.9456   -9.9657 C   0  0  0  0  0  0  0  0  0  0  0  0
    0.4298   26.0786   -9.6164 C   0  0  0  0  0  0  0  0  0  0  0  0
    0.1447   24.6309   -9.7655 N   0  0  0  0  0  0  0  0  0  0  0  0
   -0.8969   24.2876   -8.7827 C   0  0  0  0  0  0  0  0  0  0  0  0
   -2.2277   25.0039   -9.1035 C   0  0  0  0  0  0  0  0  0  0  0  0
   -3.2045   26.9145  -10.2648 C   0  0  0  0  0  0  0  0  0  0  0  0
   -2.8165   28.1229  -11.1394 C   0  0  0  0  0  0  0  0  0  0  0  0
   -3.8212   29.2790  -11.0858 C   0  0  0  0  0  0  0  0  0  0  0  0
   -4.3442   28.5225  -13.6086 O   0  0  0  0  0  0  0  0  0  0  0  0
   -5.0333   29.1126  -12.4588 S   0  0  0  0  0  0  0  0  0  0  0  0
   -6.1128   28.2311  -11.8798 O   0  0  0  0  0  0  0  0  0  0  0  0
   -5.6471   30.4264  -12.8841 O   0  0  0  0  0  0  0  0  0  0  0  0
   -6.2742   30.2711  -13.6078 H   0  0  0  0  0  0  0  0  0  0  0  0
   -0.2593   24.2822  -11.1509 C   0  0  0  0  0  0  0  0  0  0  0  0
    0.9054   24.4505  -12.1174 C   0  0  0  0  0  0  0  0  0  0  0  0
    0.4596   25.1163  -13.3093 O   0  0  0  0  0  0  0  0  0  0  0  0
   -0.2325   24.5870  -13.7356 H   0  0  0  0  0  0  0  0  0  0  0  0
 10 11  2  0  0  0
 11 12  2  0  0  0
 11 13  1  0  0  0
 11  9  1  0  0  0
  9  8  1  0  0  0
  8  7  1  0  0  0
  7  1  1  0  0  0
  1  2  1  0  0  0
  1  6  1  0  0  0
  2  3  1  0  0  0
  3  4  1  0  0  0
  4  5  1  0  0  0
  4 15  1  0  0  0
  5  6  1  0  0  0
 15 16  1  0  0  0
 16 17  1  0  0  0
 13 14  1  0  0  0
 17 18  1  0  0  0
M  END
> <minimizedAffinity>
-4.96978

$$$$
5CS3_EP1_B_301


 18 18  0  0  0  0  0  0  0  0999 V2000
   -2.9836   26.0945  -11.0303 N   0  0  0  0  0  0  0  0  0  0  0  0
   -2.3807   26.1098   -9.6654 C   0  0  0  0  0  0  0  0  0  0  0  0
   -1.7198   24.7729   -9.2365 C   0  0  0  0  0  0  0  0  0  0  0  0
   -0.8886   24.1996  -10.3226 N   0  0  0  0  0  0  0  0  0  0  0  0
   -1.7917   23.8800  -11.4411 C   0  0  0  0  0  0  0  0  0  0  0  0
   -2.4208   25.1594  -12.0364 C   0  0  0  0  0  0  0  0  0  0  0  0
   -2.9740   27.4870  -11.5576 C   0  0  0  0  0  0  0  0  0  0  0  0
   -4.0628   28.3753  -10.9242 C   0  0  0  0  0  0  0  0  0  0  0  0
   -4.0157   29.8383  -11.3787 C   0  0  0  0  0  0  0  0  0  0  0  0
   -6.3053   30.9399  -12.2470 O   0  0  0  0  0  0  0  0  0  0  0  0
   -5.2138   30.1019  -12.7486 S   0  0  0  0  0  0  0  0  0  0  0  0
   -4.3879   30.7613  -13.8261 O   0  0  0  0  0  0  0  0  0  0  0  0
   -5.7990   28.8195  -13.2935 O   0  0  0  0  0  0  0  0  0  0  0  0
   -6.4199   29.0261  -14.0096 H   0  0  0  0  0  0  0  0  0  0  0  0
    0.2034   25.1181  -10.7327 C   0  0  0  0  0  0  0  0  0  0  0  0
    1.1318   25.4179   -9.5635 C   0  0  0  0  0  0  0  0  0  0  0  0
    1.4612   26.8157   -9.5467 O   0  0  0  0  0  0  0  0  0  0  0  0
    1.9072   27.0528  -10.3748 H   0  0  0  0  0  0  0  0  0  0  0  0
 10 11  2  0  0  0
 11 12  2  0  0  0
 11 13  1  0  0  0
 11  9  1  0  0  0
  9  8  1  0  0  0
  8  7  1  0  0  0
  7  1  1  0  0  0
  1  2  1  0  0  0
  1  6  1  0  0  0
  2  3  1  0  0  0
  3  4  1  0  0  0
  4  5  1  0  0  0
  4 15  1  0  0  0
  5  6  1  0  0  0
 15 16  1  0  0  0
 16 17  1  0  0  0
 13 14  1  0  0  0
 17 18  1  0  0  0
M  END
> <minimizedAffinity>
-4.72773

$$$$
5CS3_EP1_B_301


 18 18  0  0  0  0  0  0  0  0999 V2000
    0.3353   23.4322   -9.1778 N   0  0  0  0  0  0  0  0  0  0  0  0
    1.4954   24.2200   -9.6878 C   0  0  0  0  0  0  0  0  0  0  0  0
    2.0749   23.7167  -11.0364 C   0  0  0  0  0  0  0  0  0  0  0  0
    1.0020   23.4081  -12.0125 N   0  0  0  0  0  0  0  0  0  0  0  0
    0.2118   22.2970  -11.4560 C   0  0  0  0  0  0  0  0  0  0  0  0
   -0.5187   22.7219  -10.1625 C   0  0  0  0  0  0  0  0  0  0  0  0
   -0.4949   24.3272   -8.3253 C   0  0  0  0  0  0  0  0  0  0  0  0
   -1.7823   24.8000   -9.0285 C   0  0  0  0  0  0  0  0  0  0  0  0
   -1.6992   26.2241   -9.5889 C   0  0  0  0  0  0  0  0  0  0  0  0
   -4.3742   26.3307   -9.3818 O   0  0  0  0  0  0  0  0  0  0  0  0
   -3.3163   26.6968  -10.3261 S   0  0  0  0  0  0  0  0  0  0  0  0
   -3.1885   28.1841  -10.5482 O   0  0  0  0  0  0  0  0  0  0  0  0
   -3.5952   26.0243  -11.6504 O   0  0  0  0  0  0  0  0  0  0  0  0
   -4.4584   26.3140  -11.9847 H   0  0  0  0  0  0  0  0  0  0  0  0
    0.1616   24.5951  -12.3109 C   0  0  0  0  0  0  0  0  0  0  0  0
   -0.7170   24.3488  -13.5300 C   0  0  0  0  0  0  0  0  0  0  0  0
   -1.6729   25.4120  -13.6667 O   0  0  0  0  0  0  0  0  0  0  0  0
   -2.2319   25.4481  -12.8748 H   0  0  0  0  0  0  0  0  0  0  0  0
 10 11  2  0  0  0
 11 12  2  0  0  0
 11 13  1  0  0  0
 11  9  1  0  0  0
  9  8  1  0  0  0
  8  7  1  0  0  0
  7  1  1  0  0  0
  1  2  1  0  0  0
  1  6  1  0  0  0
  2  3  1  0  0  0
  3  4  1  0  0  0
  4  5  1  0  0  0
  4 15  1  0  0  0
  5  6  1  0  0  0
 15 16  1  0  0  0
 16 17  1  0  0  0
 13 14  1  0  0  0
 17 18  1  0  0  0
M  END
> <minimizedAffinity>
-4.69322

$$$$
5CS3_EP1_B_301


 18 18  0  0  0  0  0  0  0  0999 V2000
   -3.0317   28.0554  -11.4643 N   0  0  0  0  0  0  0  0  0  0  0  0
   -3.6088   29.4005  -11.1741 C   0  0  0  0  0  0  0  0  0  0  0  0
   -4.3211   30.0710  -12.3788 C   0  0  0  0  0  0  0  0  0  0  0  0
   -5.1964   29.1148  -13.0990 N   0  0  0  0  0  0  0  0  0  0  0  0
   -4.3287   28.0644  -13.6578 C   0  0  0  0  0  0  0  0  0  0  0  0
   -3.6536   27.2410  -12.5382 C   0  0  0  0  0  0  0  0  0  0  0  0
   -2.9884   27.2844  -10.1911 C   0  0  0  0  0  0  0  0  0  0  0  0
   -1.6378   26.5773   -9.9642 C   0  0  0  0  0  0  0  0  0  0  0  0
   -1.7495   25.2480   -9.2095 C   0  0  0  0  0  0  0  0  0  0  0  0
    0.8656   25.6442   -8.7465 O   0  0  0  0  0  0  0  0  0  0  0  0
   -0.0729   24.5383   -8.9501 S   0  0  0  0  0  0  0  0  0  0  0  0
   -0.2409   23.6538   -7.7389 O   0  0  0  0  0  0  0  0  0  0  0  0
    0.4126   23.6983  -10.1087 O   0  0  0  0  0  0  0  0  0  0  0  0
    1.2979   23.3549   -9.9106 H   0  0  0  0  0  0  0  0  0  0  0  0
   -6.2534   28.5552  -12.2192 C   0  0  0  0  0  0  0  0  0  0  0  0
   -7.6075   28.5710  -12.9157 C   0  0  0  0  0  0  0  0  0  0  0  0
   -8.5214   27.7025  -12.2277 O   0  0  0  0  0  0  0  0  0  0  0  0
   -8.1728   26.7973  -12.2323 H   0  0  0  0  0  0  0  0  0  0  0  0
 10 11  2  0  0  0
 11 12  2  0  0  0
 11 13  1  0  0  0
 11  9  1  0  0  0
  9  8  1  0  0  0
  8  7  1  0  0  0
  7  1  1  0  0  0
  1  2  1  0  0  0
  1  6  1  0  0  0
  2  3  1  0  0  0
  3  4  1  0  0  0
  4  5  1  0  0  0
  4 15  1  0  0  0
  5  6  1  0  0  0
 15 16  1  0  0  0
 16 17  1  0  0  0
 13 14  1  0  0  0
 17 18  1  0  0  0
M  END
> <minimizedAffinity>
-4.68358

$$$$
5CS3_EP1_B_301


 18 18  0  0  0  0  0  0  0  0999 V2000
   -5.7624   29.3630  -13.5122 N   0  0  0  0  0  0  0  0  0  0  0  0
   -6.3579   30.2134  -12.4404 C   0  0  0  0  0  0  0  0  0  0  0  0
   -7.8089   30.6859  -12.7227 C   0  0  0  0  0  0  0  0  0  0  0  0
   -8.6535   29.5821  -13.2400 N   0  0  0  0  0  0  0  0  0  0  0  0
   -8.0880   29.1703  -14.5358 C   0  0  0  0  0  0  0  0  0  0  0  0
   -6.6777   28.5632  -14.3642 C   0  0  0  0  0  0  0  0  0  0  0  0
   -4.7356   28.4826  -12.8893 C   0  0  0  0  0  0  0  0  0  0  0  0
   -4.5301   28.7700  -11.3890 C   0  0  0  0  0  0  0  0  0  0  0  0
   -3.2581   28.1467  -10.8038 C   0  0  0  0  0  0  0  0  0  0  0  0
   -2.5271   26.0781   -9.2558 O   0  0  0  0  0  0  0  0  0  0  0  0
   -3.6405   26.4845  -10.1162 S   0  0  0  0  0  0  0  0  0  0  0  0
   -4.9374   26.6930   -9.3732 O   0  0  0  0  0  0  0  0  0  0  0  0
   -3.8454   25.4261  -11.1753 O   0  0  0  0  0  0  0  0  0  0  0  0
   -4.0427   24.5770  -10.7499 H   0  0  0  0  0  0  0  0  0  0  0  0
   -8.7382   28.4498  -12.2835 C   0  0  0  0  0  0  0  0  0  0  0  0
   -9.9618   27.5883  -12.5652 C   0  0  0  0  0  0  0  0  0  0  0  0
  -10.5747   27.1901  -11.3288 O   0  0  0  0  0  0  0  0  0  0  0  0
   -9.9401   26.6779  -10.8036 H   0  0  0  0  0  0  0  0  0  0  0  0
 10 11  2  0  0  0
 11 12  2  0  0  0
 11 13  1  0  0  0
 11  9  1  0  0  0
  9  8  1  0  0  0
  8  7  1  0  0  0
  7  1  1  0  0  0
  1  2  1  0  0  0
  1  6  1  0  0  0
  2  3  1  0  0  0
  3  4  1  0  0  0
  4  5  1  0  0  0
  4 15  1  0  0  0
  5  6  1  0  0  0
 15 16  1  0  0  0
 16 17  1  0  0  0
 13 14  1  0  0  0
 17 18  1  0  0  0
M  END
> <minimizedAffinity>
-4.53445

$$$$
