1TNH_FBA_A_900


 12 12  0  0  0  0  0  0  0  0999 V2000
   28.9713   15.0918   16.6923 C   0  0  0  0  0  0  0  0  0  0  0  0
   28.1302   15.4570   17.7240 C   0  0  0  0  0  0  0  0  0  0  0  0
   28.1372   14.7512   18.9124 C   0  0  0  0  0  0  0  0  0  0  0  0
   29.0105   13.6797   19.0563 C   0  0  0  0  0  0  0  0  0  0  0  0
   29.8575   13.3119   18.0276 C   0  0  0  0  0  0  0  0  0  0  0  0
   29.8225   14.0277   16.8471 C   0  0  0  0  0  0  0  0  0  0  0  0
   29.0588   12.9807   20.2558 F   0  0  0  0  0  0  0  0  0  0  0  0
   28.9910   15.8495   15.3840 C   0  0  0  0  0  0  0  0  0  0  0  0
   30.1317   15.4966   14.6116 N   0  0  0  0  0  0  0  0  0  0  0  0
   30.9787   15.7311   15.1293 H   0  0  0  0  0  0  0  0  0  0  0  0
   30.1182   16.0107   13.7308 H   0  0  0  0  0  0  0  0  0  0  0  0
   30.1163   14.4947   14.4207 H   0  0  0  0  0  0  0  0  0  0  0  0
  1  2  2  0  0  0
  1  6  1  0  0  0
  1  8  1  0  0  0
  2  3  1  0  0  0
  3  4  2  0  0  0
  4  5  1  0  0  0
  4  7  1  0  0  0
  5  6  2  0  0  0
  8  9  1  0  0  0
  9 10  1  0  0  0
  9 11  1  0  0  0
  9 12  1  0  0  0
M  CHG 1   9   1
M  END
> <minimizedAffinity>
-5.25356

$$$$
1TNH_FBA_A_900


 12 12  0  0  0  0  0  0  0  0999 V2000
   29.0209   15.0681   16.6919 C   0  0  0  0  0  0  0  0  0  0  0  0
   29.8629   13.9868   16.8566 C   0  0  0  0  0  0  0  0  0  0  0  0
   29.8666   13.2805   18.0448 C   0  0  0  0  0  0  0  0  0  0  0  0
   29.0031   13.6671   19.0628 C   0  0  0  0  0  0  0  0  0  0  0  0
   28.1553   14.7470   18.9019 C   0  0  0  0  0  0  0  0  0  0  0  0
   28.1795   15.4415   17.7085 C   0  0  0  0  0  0  0  0  0  0  0  0
   28.9655   12.9478   20.2507 F   0  0  0  0  0  0  0  0  0  0  0  0
   28.9896   15.8548   15.4011 C   0  0  0  0  0  0  0  0  0  0  0  0
   30.0901   15.5080   14.5699 N   0  0  0  0  0  0  0  0  0  0  0  0
   30.9623   15.7224   15.0535 H   0  0  0  0  0  0  0  0  0  0  0  0
   30.0424   16.0420   13.7022 H   0  0  0  0  0  0  0  0  0  0  0  0
   30.0551   14.5109   14.3579 H   0  0  0  0  0  0  0  0  0  0  0  0
  1  2  2  0  0  0
  1  6  1  0  0  0
  1  8  1  0  0  0
  2  3  1  0  0  0
  3  4  2  0  0  0
  4  5  1  0  0  0
  4  7  1  0  0  0
  5  6  2  0  0  0
  8  9  1  0  0  0
  9 10  1  0  0  0
  9 11  1  0  0  0
  9 12  1  0  0  0
M  CHG 1   9   1
M  END
> <minimizedAffinity>
-5.20883

$$$$
1TNH_FBA_A_900


 12 12  0  0  0  0  0  0  0  0999 V2000
   28.2919   13.3357   18.4624 C   0  0  0  0  0  0  0  0  0  0  0  0
   27.9010   14.6476   18.6394 C   0  0  0  0  0  0  0  0  0  0  0  0
   28.2051   15.6006   17.6854 C   0  0  0  0  0  0  0  0  0  0  0  0
   28.8972   15.2158   16.5433 C   0  0  0  0  0  0  0  0  0  0  0  0
   29.2879   13.9027   16.3593 C   0  0  0  0  0  0  0  0  0  0  0  0
   28.9803   12.9730   17.3330 C   0  0  0  0  0  0  0  0  0  0  0  0
   29.1802   16.1512   15.5559 F   0  0  0  0  0  0  0  0  0  0  0  0
   27.9670   12.2704   19.4849 C   0  0  0  0  0  0  0  0  0  0  0  0
   26.7666   12.5847   20.1797 N   0  0  0  0  0  0  0  0  0  0  0  0
   26.8793   13.4728   20.6685 H   0  0  0  0  0  0  0  0  0  0  0  0
   26.5619   11.8484   20.8552 H   0  0  0  0  0  0  0  0  0  0  0  0
   25.9976   12.6585   19.5136 H   0  0  0  0  0  0  0  0  0  0  0  0
  1  2  2  0  0  0
  1  6  1  0  0  0
  1  8  1  0  0  0
  2  3  1  0  0  0
  3  4  2  0  0  0
  4  5  1  0  0  0
  4  7  1  0  0  0
  5  6  2  0  0  0
  8  9  1  0  0  0
  9 10  1  0  0  0
  9 11  1  0  0  0
  9 12  1  0  0  0
M  CHG 1   9   1
M  END
> <minimizedAffinity>
-4.87714

$$$$
1TNH_FBA_A_900


 12 12  0  0  0  0  0  0  0  0999 V2000
   28.3549   13.3872   18.4991 C   0  0  0  0  0  0  0  0  0  0  0  0
   29.0408   13.0161   17.3603 C   0  0  0  0  0  0  0  0  0  0  0  0
   29.2857   13.9398   16.3616 C   0  0  0  0  0  0  0  0  0  0  0  0
   28.8430   15.2467   16.5273 C   0  0  0  0  0  0  0  0  0  0  0  0
   28.1587   15.6247   17.6673 C   0  0  0  0  0  0  0  0  0  0  0  0
   27.9184   14.6792   18.6448 C   0  0  0  0  0  0  0  0  0  0  0  0
   29.1111   16.1986   15.5516 F   0  0  0  0  0  0  0  0  0  0  0  0
   28.0790   12.4008   19.6113 C   0  0  0  0  0  0  0  0  0  0  0  0
   26.7790   12.5987   20.1527 N   0  0  0  0  0  0  0  0  0  0  0  0
   26.7107   13.5410   20.5373 H   0  0  0  0  0  0  0  0  0  0  0  0
   26.6112   11.9166   20.8923 H   0  0  0  0  0  0  0  0  0  0  0  0
   26.0826   12.4806   19.4169 H   0  0  0  0  0  0  0  0  0  0  0  0
  1  2  2  0  0  0
  1  6  1  0  0  0
  1  8  1  0  0  0
  2  3  1  0  0  0
  3  4  2  0  0  0
  4  5  1  0  0  0
  4  7  1  0  0  0
  5  6  2  0  0  0
  8  9  1  0  0  0
  9 10  1  0  0  0
  9 11  1  0  0  0
  9 12  1  0  0  0
M  CHG 1   9   1
M  END
> <minimizedAffinity>
-4.84494

$$$$
1TNH_FBA_A_900


 12 12  0  0  0  0  0  0  0  0999 V2000
   29.0166   14.7291   17.0418 C   0  0  0  0  0  0  0  0  0  0  0  0
   29.8628   13.6461   17.1688 C   0  0  0  0  0  0  0  0  0  0  0  0
   29.8492   12.8819   18.3206 C   0  0  0  0  0  0  0  0  0  0  0  0
   28.9642   13.2124   19.3399 C   0  0  0  0  0  0  0  0  0  0  0  0
   28.1121   14.2939   19.2165 C   0  0  0  0  0  0  0  0  0  0  0  0
   28.1537   15.0467   18.0595 C   0  0  0  0  0  0  0  0  0  0  0  0
   28.9095   12.4351   20.4899 F   0  0  0  0  0  0  0  0  0  0  0  0
   29.0038   15.5786   15.7911 C   0  0  0  0  0  0  0  0  0  0  0  0
   28.0563   16.6329   15.9047 N   0  0  0  0  0  0  0  0  0  0  0  0
   27.1239   16.2398   16.0333 H   0  0  0  0  0  0  0  0  0  0  0  0
   28.0729   17.1980   15.0557 H   0  0  0  0  0  0  0  0  0  0  0  0
   28.2924   17.2173   16.7067 H   0  0  0  0  0  0  0  0  0  0  0  0
  1  2  2  0  0  0
  1  6  1  0  0  0
  1  8  1  0  0  0
  2  3  1  0  0  0
  3  4  2  0  0  0
  4  5  1  0  0  0
  4  7  1  0  0  0
  5  6  2  0  0  0
  8  9  1  0  0  0
  9 10  1  0  0  0
  9 11  1  0  0  0
  9 12  1  0  0  0
M  CHG 1   9   1
M  END
> <minimizedAffinity>
-4.77779

$$$$
1TNH_FBA_A_900


 12 12  0  0  0  0  0  0  0  0999 V2000
   28.5428   15.4180   17.0341 C   0  0  0  0  0  0  0  0  0  0  0  0
   27.8810   15.2327   18.2311 C   0  0  0  0  0  0  0  0  0  0  0  0
   28.2445   14.2011   19.0764 C   0  0  0  0  0  0  0  0  0  0  0  0
   29.2914   13.3642   18.7091 C   0  0  0  0  0  0  0  0  0  0  0  0
   29.9599   13.5475   17.5131 C   0  0  0  0  0  0  0  0  0  0  0  0
   29.5695   14.5794   16.6825 C   0  0  0  0  0  0  0  0  0  0  0  0
   29.6958   12.3445   19.5614 F   0  0  0  0  0  0  0  0  0  0  0  0
   28.1723   16.5420   16.0931 C   0  0  0  0  0  0  0  0  0  0  0  0
   26.9457   17.1461   16.4840 N   0  0  0  0  0  0  0  0  0  0  0  0
   26.2007   16.4499   16.4589 H   0  0  0  0  0  0  0  0  0  0  0  0
   26.7218   17.9069   15.8426 H   0  0  0  0  0  0  0  0  0  0  0  0
   27.0348   17.5147   17.4309 H   0  0  0  0  0  0  0  0  0  0  0  0
  1  2  2  0  0  0
  1  6  1  0  0  0
  1  8  1  0  0  0
  2  3  1  0  0  0
  3  4  2  0  0  0
  4  5  1  0  0  0
  4  7  1  0  0  0
  5  6  2  0  0  0
  8  9  1  0  0  0
  9 10  1  0  0  0
  9 11  1  0  0  0
  9 12  1  0  0  0
M  CHG 1   9   1
M  END
> <minimizedAffinity>
-4.66145

$$$$
1TNH_FBA_A_900


 12 12  0  0  0  0  0  0  0  0999 V2000
   29.7010   13.4842   17.7231 C   0  0  0  0  0  0  0  0  0  0  0  0
   28.7888   13.7614   18.7212 C   0  0  0  0  0  0  0  0  0  0  0  0
   27.9386   14.8453   18.6075 C   0  0  0  0  0  0  0  0  0  0  0  0
   28.0077   15.6414   17.4704 C   0  0  0  0  0  0  0  0  0  0  0  0
   28.9169   15.3662   16.4661 C   0  0  0  0  0  0  0  0  0  0  0  0
   29.7617   14.2833   16.6101 C   0  0  0  0  0  0  0  0  0  0  0  0
   27.1371   16.7135   17.3205 F   0  0  0  0  0  0  0  0  0  0  0  0
   30.6383   12.3015   17.8164 C   0  0  0  0  0  0  0  0  0  0  0  0
   30.6683   11.5813   16.5905 N   0  0  0  0  0  0  0  0  0  0  0  0
   29.7337   11.2322   16.3783 H   0  0  0  0  0  0  0  0  0  0  0  0
   31.3139   10.7960   16.6733 H   0  0  0  0  0  0  0  0  0  0  0  0
   30.9788   12.1991   15.8407 H   0  0  0  0  0  0  0  0  0  0  0  0
  1  2  2  0  0  0
  1  6  1  0  0  0
  1  8  1  0  0  0
  2  3  1  0  0  0
  3  4  2  0  0  0
  4  5  1  0  0  0
  4  7  1  0  0  0
  5  6  2  0  0  0
  8  9  1  0  0  0
  9 10  1  0  0  0
  9 11  1  0  0  0
  9 12  1  0  0  0
M  CHG 1   9   1
M  END
> <minimizedAffinity>
-4.56433

$$$$
1TNH_FBA_A_900


 12 12  0  0  0  0  0  0  0  0999 V2000
   28.5872   14.5690   17.8649 C   0  0  0  0  0  0  0  0  0  0  0  0
   29.6933   14.0516   17.2214 C   0  0  0  0  0  0  0  0  0  0  0  0
   30.2661   12.8721   17.6585 C   0  0  0  0  0  0  0  0  0  0  0  0
   29.7051   12.2109   18.7446 C   0  0  0  0  0  0  0  0  0  0  0  0
   28.5952   12.7226   19.3905 C   0  0  0  0  0  0  0  0  0  0  0  0
   28.0492   13.9082   18.9396 C   0  0  0  0  0  0  0  0  0  0  0  0
   30.2438   11.0053   19.1763 F   0  0  0  0  0  0  0  0  0  0  0  0
   27.9349   15.8530   17.4047 C   0  0  0  0  0  0  0  0  0  0  0  0
   28.3636   16.1969   16.0930 N   0  0  0  0  0  0  0  0  0  0  0  0
   29.3744   16.3334   16.0906 H   0  0  0  0  0  0  0  0  0  0  0  0
   27.9034   17.0586   15.7999 H   0  0  0  0  0  0  0  0  0  0  0  0
   28.1205   15.4452   15.4479 H   0  0  0  0  0  0  0  0  0  0  0  0
  1  2  2  0  0  0
  1  6  1  0  0  0
  1  8  1  0  0  0
  2  3  1  0  0  0
  3  4  2  0  0  0
  4  5  1  0  0  0
  4  7  1  0  0  0
  5  6  2  0  0  0
  8  9  1  0  0  0
  9 10  1  0  0  0
  9 11  1  0  0  0
  9 12  1  0  0  0
M  CHG 1   9   1
M  END
> <minimizedAffinity>
-4.44222

$$$$
1TNH_FBA_A_900


 12 12  0  0  0  0  0  0  0  0999 V2000
   29.0330   14.2528   18.1557 C   0  0  0  0  0  0  0  0  0  0  0  0
   29.7683   13.5995   17.1872 C   0  0  0  0  0  0  0  0  0  0  0  0
   29.8351   14.1055   15.9027 C   0  0  0  0  0  0  0  0  0  0  0  0
   29.1630   15.2852   15.6059 C   0  0  0  0  0  0  0  0  0  0  0  0
   28.4281   15.9454   16.5728 C   0  0  0  0  0  0  0  0  0  0  0  0
   28.3697   15.4123   17.8454 C   0  0  0  0  0  0  0  0  0  0  0  0
   29.2476   15.8295   14.3306 F   0  0  0  0  0  0  0  0  0  0  0  0
   28.9478   13.7271   19.5708 C   0  0  0  0  0  0  0  0  0  0  0  0
   29.0168   14.7916   20.5113 N   0  0  0  0  0  0  0  0  0  0  0  0
   29.9051   15.2817   20.4056 H   0  0  0  0  0  0  0  0  0  0  0  0
   28.9466   14.4150   21.4566 H   0  0  0  0  0  0  0  0  0  0  0  0
   28.2482   15.4414   20.3462 H   0  0  0  0  0  0  0  0  0  0  0  0
  1  2  2  0  0  0
  1  6  1  0  0  0
  1  8  1  0  0  0
  2  3  1  0  0  0
  3  4  2  0  0  0
  4  5  1  0  0  0
  4  7  1  0  0  0
  5  6  2  0  0  0
  8  9  1  0  0  0
  9 10  1  0  0  0
  9 11  1  0  0  0
  9 12  1  0  0  0
M  CHG 1   9   1
M  END
> <minimizedAffinity>
-4.38635

$$$$
1TNH_FBA_A_900


 12 12  0  0  0  0  0  0  0  0999 V2000
   29.6778   13.2643   17.9941 C   0  0  0  0  0  0  0  0  0  0  0  0
   29.7791   14.0425   16.8586 C   0  0  0  0  0  0  0  0  0  0  0  0
   28.9455   15.1310   16.6825 C   0  0  0  0  0  0  0  0  0  0  0  0
   28.0155   15.4359   17.6692 C   0  0  0  0  0  0  0  0  0  0  0  0
   27.9121   14.6620   18.8100 C   0  0  0  0  0  0  0  0  0  0  0  0
   28.7502   13.5741   18.9557 C   0  0  0  0  0  0  0  0  0  0  0  0
   27.1937   16.5469   17.5280 F   0  0  0  0  0  0  0  0  0  0  0  0
   30.5809   12.0725   18.2175 C   0  0  0  0  0  0  0  0  0  0  0  0
   30.7872   11.3592   17.0047 N   0  0  0  0  0  0  0  0  0  0  0  0
   29.8918   11.0199   16.6532 H   0  0  0  0  0  0  0  0  0  0  0  0
   31.4068   10.5675   17.1770 H   0  0  0  0  0  0  0  0  0  0  0  0
   31.2111   11.9785   16.3139 H   0  0  0  0  0  0  0  0  0  0  0  0
  1  2  2  0  0  0
  1  6  1  0  0  0
  1  8  1  0  0  0
  2  3  1  0  0  0
  3  4  2  0  0  0
  4  5  1  0  0  0
  4  7  1  0  0  0
  5  6  2  0  0  0
  8  9  1  0  0  0
  9 10  1  0  0  0
  9 11  1  0  0  0
  9 12  1  0  0  0
M  CHG 1   9   1
M  END
> <minimizedAffinity>
-4.28155

$$$$
