3MHW_ABV_U_245


 12 13  0  0  0  0  0  0  0  0999 V2000
  -28.5156  -18.1316   12.4179 C   0  0  0  0  0  0  0  0  0  0  0  0
  -29.7279  -17.3660    9.2243 N   0  0  0  0  0  0  0  0  0  0  0  0
  -30.4494  -19.0701   10.9679 S   0  0  0  0  0  0  0  0  0  0  0  0
  -27.4676  -17.3139   12.5217 C   0  0  0  0  0  0  0  0  0  0  0  0
  -31.6132  -18.6428    8.6654 N   0  0  0  0  0  0  0  0  0  0  0  0
  -27.1205  -16.4552   11.5471 C   0  0  0  0  0  0  0  0  0  0  0  0
  -27.8513  -16.3749   10.4141 C   0  0  0  0  0  0  0  0  0  0  0  0
  -28.8955  -17.1959   10.2763 C   0  0  0  0  0  0  0  0  0  0  0  0
  -29.1982  -18.0747   11.2786 C   0  0  0  0  0  0  0  0  0  0  0  0
  -30.6609  -18.2950    9.4911 C   0  0  0  0  0  0  0  0  0  0  0  0
  -31.7158  -18.1729    7.8064 H   0  0  0  0  0  0  0  0  0  0  0  0
  -32.2275  -19.3746    8.9027 H   0  0  0  0  0  0  0  0  0  0  0  0
  1  4  2  0  0  0
  1  9  1  0  0  0
  2  8  1  0  0  0
  2 10  2  0  0  0
  3  9  1  0  0  0
  3 10  1  0  0  0
  4  6  1  0  0  0
  5 10  1  0  0  0
  6  7  2  0  0  0
  7  8  1  0  0  0
  8  9  2  0  0  0
  5 11  1  0  0  0
  5 12  1  0  0  0
M  END
> <minimizedAffinity>
-5.30211

$$$$
3MHW_ABV_U_245


 12 13  0  0  0  0  0  0  0  0999 V2000
  -27.5447  -17.1334   10.1721 C   0  0  0  0  0  0  0  0  0  0  0  0
  -30.5001  -18.2152   11.7053 N   0  0  0  0  0  0  0  0  0  0  0  0
  -29.4914  -18.6702    9.4161 S   0  0  0  0  0  0  0  0  0  0  0  0
  -27.0366  -16.3141   11.0931 C   0  0  0  0  0  0  0  0  0  0  0  0
  -31.7048  -19.7024   10.3510 N   0  0  0  0  0  0  0  0  0  0  0  0
  -27.6377  -16.0927   12.2752 C   0  0  0  0  0  0  0  0  0  0  0  0
  -28.7907  -16.7241   12.5851 C   0  0  0  0  0  0  0  0  0  0  0  0
  -29.3313  -17.5361   11.6730 C   0  0  0  0  0  0  0  0  0  0  0  0
  -28.7035  -17.7122   10.4716 C   0  0  0  0  0  0  0  0  0  0  0  0
  -30.6761  -18.9288   10.5807 C   0  0  0  0  0  0  0  0  0  0  0  0
  -32.3849  -19.8374   11.0499 H   0  0  0  0  0  0  0  0  0  0  0  0
  -31.7993  -20.1499    9.4792 H   0  0  0  0  0  0  0  0  0  0  0  0
  1  4  2  0  0  0
  1  9  1  0  0  0
  2  8  1  0  0  0
  2 10  2  0  0  0
  3  9  1  0  0  0
  3 10  1  0  0  0
  4  6  1  0  0  0
  5 10  1  0  0  0
  6  7  2  0  0  0
  7  8  1  0  0  0
  8  9  2  0  0  0
  5 11  1  0  0  0
  5 12  1  0  0  0
M  END
> <minimizedAffinity>
-5.20435

$$$$
3MHW_ABV_U_245


 12 13  0  0  0  0  0  0  0  0999 V2000
  -29.7717  -17.9358   11.8785 C   0  0  0  0  0  0  0  0  0  0  0  0
  -28.5856  -15.5995    9.5568 N   0  0  0  0  0  0  0  0  0  0  0  0
  -29.1350  -15.4271   12.0334 S   0  0  0  0  0  0  0  0  0  0  0  0
  -29.9477  -19.0180   11.1199 C   0  0  0  0  0  0  0  0  0  0  0  0
  -28.1589  -13.5146   10.5407 N   0  0  0  0  0  0  0  0  0  0  0  0
  -29.6655  -19.0339    9.8055 C   0  0  0  0  0  0  0  0  0  0  0  0
  -29.1621  -17.9363    9.2007 C   0  0  0  0  0  0  0  0  0  0  0  0
  -28.9933  -16.8326    9.9334 C   0  0  0  0  0  0  0  0  0  0  0  0
  -29.3195  -16.8490   11.2607 C   0  0  0  0  0  0  0  0  0  0  0  0
  -28.5443  -14.7623   10.6066 C   0  0  0  0  0  0  0  0  0  0  0  0
  -27.8166  -13.1493    9.6929 H   0  0  0  0  0  0  0  0  0  0  0  0
  -28.2109  -12.9405   11.3387 H   0  0  0  0  0  0  0  0  0  0  0  0
  1  4  2  0  0  0
  1  9  1  0  0  0
  2  8  1  0  0  0
  2 10  2  0  0  0
  3  9  1  0  0  0
  3 10  1  0  0  0
  4  6  1  0  0  0
  5 10  1  0  0  0
  6  7  2  0  0  0
  7  8  1  0  0  0
  8  9  2  0  0  0
  5 11  1  0  0  0
  5 12  1  0  0  0
M  END
> <minimizedAffinity>
-5.11201

$$$$
3MHW_ABV_U_245


 12 13  0  0  0  0  0  0  0  0999 V2000
  -29.5195  -18.1115   12.0474 C   0  0  0  0  0  0  0  0  0  0  0  0
  -27.5584  -17.1880    9.2986 N   0  0  0  0  0  0  0  0  0  0  0  0
  -27.4148  -16.6223   11.7733 S   0  0  0  0  0  0  0  0  0  0  0  0
  -30.4780  -18.8396   11.4740 C   0  0  0  0  0  0  0  0  0  0  0  0
  -25.7321  -15.8571    9.9235 N   0  0  0  0  0  0  0  0  0  0  0  0
  -30.5130  -19.0765   10.1510 C   0  0  0  0  0  0  0  0  0  0  0  0
  -29.5446  -18.5924    9.3436 C   0  0  0  0  0  0  0  0  0  0  0  0
  -28.5826  -17.8441    9.8894 C   0  0  0  0  0  0  0  0  0  0  0  0
  -28.5987  -17.6027   11.2347 C   0  0  0  0  0  0  0  0  0  0  0  0
  -26.8047  -16.5484   10.2084 C   0  0  0  0  0  0  0  0  0  0  0  0
  -25.3952  -15.8300    8.9989 H   0  0  0  0  0  0  0  0  0  0  0  0
  -25.2615  -15.3637   10.6336 H   0  0  0  0  0  0  0  0  0  0  0  0
  1  4  2  0  0  0
  1  9  1  0  0  0
  2  8  1  0  0  0
  2 10  2  0  0  0
  3  9  1  0  0  0
  3 10  1  0  0  0
  4  6  1  0  0  0
  5 10  1  0  0  0
  6  7  2  0  0  0
  7  8  1  0  0  0
  8  9  2  0  0  0
  5 11  1  0  0  0
  5 12  1  0  0  0
M  END
> <minimizedAffinity>
-4.99662

$$$$
3MHW_ABV_U_245


 12 13  0  0  0  0  0  0  0  0999 V2000
  -29.0383  -16.8497   11.8224 C   0  0  0  0  0  0  0  0  0  0  0  0
  -30.8070  -18.8833    9.5882 N   0  0  0  0  0  0  0  0  0  0  0  0
  -30.4689  -18.9935   12.1058 S   0  0  0  0  0  0  0  0  0  0  0  0
  -28.4795  -15.9572   11.0045 C   0  0  0  0  0  0  0  0  0  0  0  0
  -31.9422  -20.6187   10.6821 N   0  0  0  0  0  0  0  0  0  0  0  0
  -28.6748  -15.9730    9.6744 C   0  0  0  0  0  0  0  0  0  0  0  0
  -29.4793  -16.9008    9.1122 C   0  0  0  0  0  0  0  0  0  0  0  0
  -30.0370  -17.8182    9.9064 C   0  0  0  0  0  0  0  0  0  0  0  0
  -29.7902  -17.7850   11.2504 C   0  0  0  0  0  0  0  0  0  0  0  0
  -31.1729  -19.5615   10.6887 C   0  0  0  0  0  0  0  0  0  0  0  0
  -32.3424  -20.9310    9.8387 H   0  0  0  0  0  0  0  0  0  0  0  0
  -32.1212  -21.1024   11.5207 H   0  0  0  0  0  0  0  0  0  0  0  0
  1  4  2  0  0  0
  1  9  1  0  0  0
  2  8  1  0  0  0
  2 10  2  0  0  0
  3  9  1  0  0  0
  3 10  1  0  0  0
  4  6  1  0  0  0
  5 10  1  0  0  0
  6  7  2  0  0  0
  7  8  1  0  0  0
  8  9  2  0  0  0
  5 11  1  0  0  0
  5 12  1  0  0  0
M  END
> <minimizedAffinity>
-4.94957

$$$$
3MHW_ABV_U_245


 12 13  0  0  0  0  0  0  0  0999 V2000
  -29.3773  -17.0728    9.3602 C   0  0  0  0  0  0  0  0  0  0  0  0
  -27.7731  -17.7972   12.3862 N   0  0  0  0  0  0  0  0  0  0  0  0
  -27.4381  -15.9535   10.6676 S   0  0  0  0  0  0  0  0  0  0  0  0
  -30.2396  -18.0840    9.2527 C   0  0  0  0  0  0  0  0  0  0  0  0
  -26.1385  -16.2045   12.9230 N   0  0  0  0  0  0  0  0  0  0  0  0
  -30.3458  -19.0466   10.1854 C   0  0  0  0  0  0  0  0  0  0  0  0
  -29.5810  -19.0083   11.2980 C   0  0  0  0  0  0  0  0  0  0  0  0
  -28.6956  -18.0163   11.4222 C   0  0  0  0  0  0  0  0  0  0  0  0
  -28.5986  -17.0730   10.4376 C   0  0  0  0  0  0  0  0  0  0  0  0
  -27.0756  -16.6753   12.1422 C   0  0  0  0  0  0  0  0  0  0  0  0
  -25.9456  -16.6456   13.7817 H   0  0  0  0  0  0  0  0  0  0  0  0
  -25.6258  -15.4088   12.6523 H   0  0  0  0  0  0  0  0  0  0  0  0
  1  4  2  0  0  0
  1  9  1  0  0  0
  2  8  1  0  0  0
  2 10  2  0  0  0
  3  9  1  0  0  0
  3 10  1  0  0  0
  4  6  1  0  0  0
  5 10  1  0  0  0
  6  7  2  0  0  0
  7  8  1  0  0  0
  8  9  2  0  0  0
  5 11  1  0  0  0
  5 12  1  0  0  0
M  END
> <minimizedAffinity>
-4.82234

$$$$
3MHW_ABV_U_245


 12 13  0  0  0  0  0  0  0  0999 V2000
  -27.3520  -16.8827   12.8293 C   0  0  0  0  0  0  0  0  0  0  0  0
  -28.0634  -17.4408    9.4474 N   0  0  0  0  0  0  0  0  0  0  0  0
  -29.0420  -18.4064   11.5862 S   0  0  0  0  0  0  0  0  0  0  0  0
  -26.3323  -16.0264   12.7621 C   0  0  0  0  0  0  0  0  0  0  0  0
  -29.8412  -18.9409    9.1543 N   0  0  0  0  0  0  0  0  0  0  0  0
  -25.8408  -15.5769   11.5942 C   0  0  0  0  0  0  0  0  0  0  0  0
  -26.3903  -15.9692   10.4246 C   0  0  0  0  0  0  0  0  0  0  0  0
  -27.4011  -16.8411   10.4624 C   0  0  0  0  0  0  0  0  0  0  0  0
  -27.8530  -17.2964   11.6695 C   0  0  0  0  0  0  0  0  0  0  0  0
  -29.0260  -18.2546    9.9120 C   0  0  0  0  0  0  0  0  0  0  0  0
  -29.8118  -18.8338    8.1761 H   0  0  0  0  0  0  0  0  0  0  0  0
  -30.4844  -19.5648    9.5621 H   0  0  0  0  0  0  0  0  0  0  0  0
  1  4  2  0  0  0
  1  9  1  0  0  0
  2  8  1  0  0  0
  2 10  2  0  0  0
  3  9  1  0  0  0
  3 10  1  0  0  0
  4  6  1  0  0  0
  5 10  1  0  0  0
  6  7  2  0  0  0
  7  8  1  0  0  0
  8  9  2  0  0  0
  5 11  1  0  0  0
  5 12  1  0  0  0
M  END
> <minimizedAffinity>
-4.81216

$$$$
3MHW_ABV_U_245


 12 13  0  0  0  0  0  0  0  0999 V2000
  -29.0606  -15.6529   12.5622 C   0  0  0  0  0  0  0  0  0  0  0  0
  -28.7599  -16.8451    9.2845 N   0  0  0  0  0  0  0  0  0  0  0  0
  -29.3803  -17.9835   11.4718 S   0  0  0  0  0  0  0  0  0  0  0  0
  -28.6950  -14.3776   12.4296 C   0  0  0  0  0  0  0  0  0  0  0  0
  -29.3242  -19.1144    9.1145 N   0  0  0  0  0  0  0  0  0  0  0  0
  -28.3480  -13.8438   11.2455 C   0  0  0  0  0  0  0  0  0  0  0  0
  -28.3803  -14.5925   10.1219 C   0  0  0  0  0  0  0  0  0  0  0  0
  -28.7250  -15.8782   10.2292 C   0  0  0  0  0  0  0  0  0  0  0  0
  -29.0432  -16.3901   11.4561 C   0  0  0  0  0  0  0  0  0  0  0  0
  -29.1696  -18.0143    9.8041 C   0  0  0  0  0  0  0  0  0  0  0  0
  -29.1950  -19.1059    8.1386 H   0  0  0  0  0  0  0  0  0  0  0  0
  -29.5699  -19.9512    9.5713 H   0  0  0  0  0  0  0  0  0  0  0  0
  1  4  2  0  0  0
  1  9  1  0  0  0
  2  8  1  0  0  0
  2 10  2  0  0  0
  3  9  1  0  0  0
  3 10  1  0  0  0
  4  6  1  0  0  0
  5 10  1  0  0  0
  6  7  2  0  0  0
  7  8  1  0  0  0
  8  9  2  0  0  0
  5 11  1  0  0  0
  5 12  1  0  0  0
M  END
> <minimizedAffinity>
-4.80468

$$$$
3MHW_ABV_U_245


 12 13  0  0  0  0  0  0  0  0999 V2000
  -29.5601  -17.2258    9.2083 C   0  0  0  0  0  0  0  0  0  0  0  0
  -28.9840  -16.4494   12.5728 N   0  0  0  0  0  0  0  0  0  0  0  0
  -28.4751  -15.2038   10.4154 S   0  0  0  0  0  0  0  0  0  0  0  0
  -30.0973  -18.4433    9.2911 C   0  0  0  0  0  0  0  0  0  0  0  0
  -28.0120  -14.3322   12.8370 N   0  0  0  0  0  0  0  0  0  0  0  0
  -30.3124  -19.0608   10.4659 C   0  0  0  0  0  0  0  0  0  0  0  0
  -30.0051  -18.4456   11.6283 C   0  0  0  0  0  0  0  0  0  0  0  0
  -29.4485  -17.2329   11.5734 C   0  0  0  0  0  0  0  0  0  0  0  0
  -29.2198  -16.6513   10.3578 C   0  0  0  0  0  0  0  0  0  0  0  0
  -28.4996  -15.2913   12.0942 C   0  0  0  0  0  0  0  0  0  0  0  0
  -28.0385  -14.4078   13.8183 H   0  0  0  0  0  0  0  0  0  0  0  0
  -27.6183  -13.5346   12.4152 H   0  0  0  0  0  0  0  0  0  0  0  0
  1  4  2  0  0  0
  1  9  1  0  0  0
  2  8  1  0  0  0
  2 10  2  0  0  0
  3  9  1  0  0  0
  3 10  1  0  0  0
  4  6  1  0  0  0
  5 10  1  0  0  0
  6  7  2  0  0  0
  7  8  1  0  0  0
  8  9  2  0  0  0
  5 11  1  0  0  0
  5 12  1  0  0  0
M  END
> <minimizedAffinity>
-4.78783

$$$$
3MHW_ABV_U_245


 12 13  0  0  0  0  0  0  0  0999 V2000
  -26.8938  -16.2284   11.3419 C   0  0  0  0  0  0  0  0  0  0  0  0
  -29.2242  -18.8097   11.7432 N   0  0  0  0  0  0  0  0  0  0  0  0
  -28.6064  -17.3531    9.7529 S   0  0  0  0  0  0  0  0  0  0  0  0
  -26.3899  -16.1142   12.5710 C   0  0  0  0  0  0  0  0  0  0  0  0
  -30.3489  -19.3030    9.7460 N   0  0  0  0  0  0  0  0  0  0  0  0
  -26.7834  -16.8981   13.5900 C   0  0  0  0  0  0  0  0  0  0  0  0
  -27.7067  -17.8638   13.3930 C   0  0  0  0  0  0  0  0  0  0  0  0
  -28.2415  -17.9877   12.1756 C   0  0  0  0  0  0  0  0  0  0  0  0
  -27.8351  -17.1519   11.1733 C   0  0  0  0  0  0  0  0  0  0  0  0
  -29.4690  -18.6245   10.4353 C   0  0  0  0  0  0  0  0  0  0  0  0
  -30.8409  -20.0433   10.1691 H   0  0  0  0  0  0  0  0  0  0  0  0
  -30.5194  -19.0734    8.8039 H   0  0  0  0  0  0  0  0  0  0  0  0
  1  4  2  0  0  0
  1  9  1  0  0  0
  2  8  1  0  0  0
  2 10  2  0  0  0
  3  9  1  0  0  0
  3 10  1  0  0  0
  4  6  1  0  0  0
  5 10  1  0  0  0
  6  7  2  0  0  0
  7  8  1  0  0  0
  8  9  2  0  0  0
  5 11  1  0  0  0
  5 12  1  0  0  0
M  END
> <minimizedAffinity>
-4.72563

$$$$
