6G9U_ETK_A_302


 38 40  0  0  0  0  0  0  0  0999 V2000
    8.9470  -29.6804  -59.9014 F   0  0  0  0  0  0  0  0  0  0  0  0
    9.7054  -28.7910  -59.2449 C   0  0  0  0  0  0  0  0  0  0  0  0
   10.9524  -28.2983  -59.7945 C   0  0  0  0  0  0  0  0  0  0  0  0
    9.2587  -28.3296  -57.9242 C   0  0  0  0  0  0  0  0  0  0  0  0
    8.1196  -28.8212  -57.4736 F   0  0  0  0  0  0  0  0  0  0  0  0
    9.9836  -27.3369  -57.1114 C   0  0  0  0  0  0  0  0  0  0  0  0
   11.2561  -26.8248  -57.6853 C   0  0  0  0  0  0  0  0  0  0  0  0
   11.7281  -27.3216  -59.0165 C   0  0  0  0  0  0  0  0  0  0  0  0
   12.8533  -26.8582  -59.5469 F   0  0  0  0  0  0  0  0  0  0  0  0
    9.3086  -26.9241  -55.6673 S   0  0  0  0  0  0  0  0  0  0  0  0
    7.8739  -26.7743  -55.8367 O   0  0  0  0  0  0  0  0  0  0  0  0
    9.9645  -25.5481  -55.2131 N   0  0  0  0  0  0  0  0  0  0  0  0
    9.5879  -27.9636  -54.7196 O   0  0  0  0  0  0  0  0  0  0  0  0
   10.9705  -25.6722  -55.0993 H   0  0  0  0  0  0  0  0  0  0  0  0
    9.5558  -25.2529  -54.3264 H   0  0  0  0  0  0  0  0  0  0  0  0
   12.0279  -26.0421  -56.9115 N   0  0  0  0  0  0  0  0  0  0  0  0
   11.6098  -25.2722  -56.4626 H   0  0  0  0  0  0  0  0  0  0  0  0
   13.4541  -26.2745  -56.7024 C   0  0  0  0  0  0  0  0  0  0  0  0
   13.5600  -27.0704  -55.3868 C   0  0  0  0  0  0  0  0  0  0  0  0
   14.9050  -27.7402  -55.1070 C   0  0  0  0  0  0  0  0  0  0  0  0
   15.7566  -27.0552  -54.0370 C   0  0  0  0  0  0  0  0  0  0  0  0
   15.6623  -25.5199  -53.9570 C   0  0  0  0  0  0  0  0  0  0  0  0
   16.2600  -24.7730  -55.1441 C   0  0  0  0  0  0  0  0  0  0  0  0
   15.6891  -25.0084  -56.5495 C   0  0  0  0  0  0  0  0  0  0  0  0
   14.1617  -24.9351  -56.5956 C   0  0  0  0  0  0  0  0  0  0  0  0
   11.4507  -28.8730  -61.3103 S   0  0  0  0  0  0  0  0  0  0  0  0
   12.0352  -30.5198  -60.8899 C   0  0  0  0  0  0  0  0  0  0  0  0
   13.3991  -30.5773  -60.1763 C   0  0  0  0  0  0  0  0  0  0  0  0
   14.4477  -29.9873  -61.0764 C   0  0  0  0  0  0  0  0  0  0  0  0
   14.7530  -30.6705  -62.2600 C   0  0  0  0  0  0  0  0  0  0  0  0
   15.6991  -30.1432  -63.1254 C   0  0  0  0  0  0  0  0  0  0  0  0
   16.3433  -28.9367  -62.8359 C   0  0  0  0  0  0  0  0  0  0  0  0
   16.0379  -28.2450  -61.6494 C   0  0  0  0  0  0  0  0  0  0  0  0
   15.0902  -28.7781  -60.7668 C   0  0  0  0  0  0  0  0  0  0  0  0
   17.3384  -28.4039  -63.8364 C   0  0  0  0  0  0  0  0  0  0  0  0
   17.7825  -27.2439  -63.7338 O   0  0  0  0  0  0  0  0  0  0  0  0
   17.6474  -29.1163  -64.8051 O   0  0  0  0  0  0  0  0  0  0  0  0
   17.5435  -26.7140  -62.9989 H   0  0  0  0  0  0  0  0  0  0  0  0
 37 35  2  0  0  0
 36 35  1  0  0  0
 35 32  1  0  0  0
 31 32  2  0  0  0
 31 30  1  0  0  0
 32 33  1  0  0  0
 30 29  2  0  0  0
 33 34  2  0  0  0
 26 27  1  0  0  0
 26  3  1  0  0  0
 29 34  1  0  0  0
 29 28  1  0  0  0
 27 28  1  0  0  0
  3  2  2  0  0  0
  3  8  1  0  0  0
  1  2  1  0  0  0
  9  8  1  0  0  0
  2  4  1  0  0  0
  8  7  2  0  0  0
  4  5  1  0  0  0
  4  6  2  0  0  0
  7  6  1  0  0  0
  7 16  1  0  0  0
  6 10  1  0  0  0
 16 18  1  0  0  0
 18 25  1  0  0  0
 18 19  1  0  0  0
 25 24  1  0  0  0
 20 19  1  0  0  0
 20 21  1  0  0  0
 24 23  1  0  0  0
 12 10  1  0  0  0
 10 13  2  0  0  0
 10 11  2  0  0  0
 21 22  1  0  0  0
 23 22  1  0  0  0
 36 38  1  0  0  0
 12 14  1  0  0  0
 12 15  1  0  0  0
 16 17  1  0  0  0
M  END
> <minimizedAffinity>
-8.72322

$$$$
6G9U_ETK_A_302


 38 40  0  0  0  0  0  0  0  0999 V2000
    8.7517  -29.6555  -59.9054 F   0  0  0  0  0  0  0  0  0  0  0  0
    9.5243  -28.7535  -59.2835 C   0  0  0  0  0  0  0  0  0  0  0  0
   10.6999  -28.1901  -59.9161 C   0  0  0  0  0  0  0  0  0  0  0  0
    9.1696  -28.3518  -57.9162 C   0  0  0  0  0  0  0  0  0  0  0  0
    8.0931  -28.9064  -57.3910 F   0  0  0  0  0  0  0  0  0  0  0  0
    9.9175  -27.3528  -57.1324 C   0  0  0  0  0  0  0  0  0  0  0  0
   11.1158  -26.7682  -57.7906 C   0  0  0  0  0  0  0  0  0  0  0  0
   11.4962  -27.2038  -59.1716 C   0  0  0  0  0  0  0  0  0  0  0  0
   12.5534  -26.6756  -59.7762 F   0  0  0  0  0  0  0  0  0  0  0  0
    9.3478  -27.0134  -55.6252 S   0  0  0  0  0  0  0  0  0  0  0  0
    7.9097  -26.8200  -55.6912 O   0  0  0  0  0  0  0  0  0  0  0  0
   10.0687  -25.6835  -55.1340 N   0  0  0  0  0  0  0  0  0  0  0  0
    9.6585  -28.1151  -54.7615 O   0  0  0  0  0  0  0  0  0  0  0  0
   11.0761  -25.8378  -55.0938 H   0  0  0  0  0  0  0  0  0  0  0  0
    9.7257  -25.4336  -54.2064 H   0  0  0  0  0  0  0  0  0  0  0  0
   11.9158  -25.9756  -57.0566 N   0  0  0  0  0  0  0  0  0  0  0  0
   11.5293  -25.1621  -56.6592 H   0  0  0  0  0  0  0  0  0  0  0  0
   13.3281  -26.2586  -56.8182 C   0  0  0  0  0  0  0  0  0  0  0  0
   13.3761  -27.0819  -55.5161 C   0  0  0  0  0  0  0  0  0  0  0  0
   14.6914  -27.8007  -55.2175 C   0  0  0  0  0  0  0  0  0  0  0  0
   15.5384  -27.1641  -54.1144 C   0  0  0  0  0  0  0  0  0  0  0  0
   15.4920  -25.6283  -54.0069 C   0  0  0  0  0  0  0  0  0  0  0  0
   16.1424  -24.8795  -55.1647 C   0  0  0  0  0  0  0  0  0  0  0  0
   15.5987  -25.0698  -56.5876 C   0  0  0  0  0  0  0  0  0  0  0  0
   14.0760  -24.9454  -56.6685 C   0  0  0  0  0  0  0  0  0  0  0  0
   11.0946  -28.6968  -61.4857 S   0  0  0  0  0  0  0  0  0  0  0  0
   11.8493  -30.2957  -61.1624 C   0  0  0  0  0  0  0  0  0  0  0  0
   13.3456  -30.4055  -61.5114 C   0  0  0  0  0  0  0  0  0  0  0  0
   14.1309  -30.5962  -60.2445 C   0  0  0  0  0  0  0  0  0  0  0  0
   14.6869  -31.8585  -60.0037 C   0  0  0  0  0  0  0  0  0  0  0  0
   15.4368  -32.0641  -58.8559 C   0  0  0  0  0  0  0  0  0  0  0  0
   15.6514  -31.0269  -57.9435 C   0  0  0  0  0  0  0  0  0  0  0  0
   15.0973  -29.7559  -58.1824 C   0  0  0  0  0  0  0  0  0  0  0  0
   14.3306  -29.5453  -59.3352 C   0  0  0  0  0  0  0  0  0  0  0  0
   16.5036  -31.3108  -56.7317 C   0  0  0  0  0  0  0  0  0  0  0  0
   16.6957  -32.4819  -56.3511 O   0  0  0  0  0  0  0  0  0  0  0  0
   16.9462  -30.3524  -56.0781 O   0  0  0  0  0  0  0  0  0  0  0  0
   16.3577  -33.1985  -56.8513 H   0  0  0  0  0  0  0  0  0  0  0  0
 37 35  2  0  0  0
 36 35  1  0  0  0
 35 32  1  0  0  0
 31 32  2  0  0  0
 31 30  1  0  0  0
 32 33  1  0  0  0
 30 29  2  0  0  0
 33 34  2  0  0  0
 26 27  1  0  0  0
 26  3  1  0  0  0
 29 34  1  0  0  0
 29 28  1  0  0  0
 27 28  1  0  0  0
  3  2  2  0  0  0
  3  8  1  0  0  0
  1  2  1  0  0  0
  9  8  1  0  0  0
  2  4  1  0  0  0
  8  7  2  0  0  0
  4  5  1  0  0  0
  4  6  2  0  0  0
  7  6  1  0  0  0
  7 16  1  0  0  0
  6 10  1  0  0  0
 16 18  1  0  0  0
 18 25  1  0  0  0
 18 19  1  0  0  0
 25 24  1  0  0  0
 20 19  1  0  0  0
 20 21  1  0  0  0
 24 23  1  0  0  0
 12 10  1  0  0  0
 10 13  2  0  0  0
 10 11  2  0  0  0
 21 22  1  0  0  0
 23 22  1  0  0  0
 36 38  1  0  0  0
 12 14  1  0  0  0
 12 15  1  0  0  0
 16 17  1  0  0  0
M  END
> <minimizedAffinity>
-8.50114

$$$$
6G9U_ETK_A_302


 38 40  0  0  0  0  0  0  0  0999 V2000
   14.9282  -31.3866  -60.7011 F   0  0  0  0  0  0  0  0  0  0  0  0
   14.2639  -30.3590  -60.1535 C   0  0  0  0  0  0  0  0  0  0  0  0
   14.8633  -29.5174  -59.1375 C   0  0  0  0  0  0  0  0  0  0  0  0
   12.8846  -30.1050  -60.5890 C   0  0  0  0  0  0  0  0  0  0  0  0
   12.3914  -30.9110  -61.5107 F   0  0  0  0  0  0  0  0  0  0  0  0
   12.0549  -28.9952  -60.0874 C   0  0  0  0  0  0  0  0  0  0  0  0
   12.6788  -28.1269  -59.0542 C   0  0  0  0  0  0  0  0  0  0  0  0
   14.0730  -28.4074  -58.5859 C   0  0  0  0  0  0  0  0  0  0  0  0
   14.6468  -27.6281  -57.6771 F   0  0  0  0  0  0  0  0  0  0  0  0
   10.5401  -28.8566  -60.7181 S   0  0  0  0  0  0  0  0  0  0  0  0
    9.9397  -27.6199  -60.2496 O   0  0  0  0  0  0  0  0  0  0  0  0
    9.7007  -30.1108  -60.2160 N   0  0  0  0  0  0  0  0  0  0  0  0
   10.6410  -28.8455  -62.1485 O   0  0  0  0  0  0  0  0  0  0  0  0
   10.1364  -30.9689  -60.5539 H   0  0  0  0  0  0  0  0  0  0  0  0
    8.7483  -30.0485  -60.5758 H   0  0  0  0  0  0  0  0  0  0  0  0
   11.9067  -27.2041  -58.4549 N   0  0  0  0  0  0  0  0  0  0  0  0
   11.4810  -26.5162  -59.0159 H   0  0  0  0  0  0  0  0  0  0  0  0
   11.6668  -27.1689  -57.0152 C   0  0  0  0  0  0  0  0  0  0  0  0
   10.1630  -27.4545  -56.8343 C   0  0  0  0  0  0  0  0  0  0  0  0
    9.7073  -27.8139  -55.4204 C   0  0  0  0  0  0  0  0  0  0  0  0
    8.9516  -26.7059  -54.6850 C   0  0  0  0  0  0  0  0  0  0  0  0
    9.3909  -25.2588  -54.9768 C   0  0  0  0  0  0  0  0  0  0  0  0
   10.7745  -24.8860  -54.4562 C   0  0  0  0  0  0  0  0  0  0  0  0
   12.0040  -25.6518  -54.9642 C   0  0  0  0  0  0  0  0  0  0  0  0
   12.0345  -25.7933  -56.4872 C   0  0  0  0  0  0  0  0  0  0  0  0
   16.4487  -29.8561  -58.6393 S   0  0  0  0  0  0  0  0  0  0  0  0
   16.1660  -30.5473  -57.0043 C   0  0  0  0  0  0  0  0  0  0  0  0
   17.1648  -30.1082  -55.9170 C   0  0  0  0  0  0  0  0  0  0  0  0
   16.8648  -28.6901  -55.5208 C   0  0  0  0  0  0  0  0  0  0  0  0
   17.7263  -27.6866  -55.9808 C   0  0  0  0  0  0  0  0  0  0  0  0
   17.4671  -26.3645  -55.6536 C   0  0  0  0  0  0  0  0  0  0  0  0
   16.3543  -26.0216  -54.8799 C   0  0  0  0  0  0  0  0  0  0  0  0
   15.4841  -27.0259  -54.4178 C   0  0  0  0  0  0  0  0  0  0  0  0
   15.7467  -28.3640  -54.7369 C   0  0  0  0  0  0  0  0  0  0  0  0
   16.1139  -24.5613  -54.5880 C   0  0  0  0  0  0  0  0  0  0  0  0
   15.9826  -23.7415  -55.5175 O   0  0  0  0  0  0  0  0  0  0  0  0
   16.1253  -24.1814  -53.4061 O   0  0  0  0  0  0  0  0  0  0  0  0
   15.9751  -24.0382  -56.4062 H   0  0  0  0  0  0  0  0  0  0  0  0
 37 35  2  0  0  0
 36 35  1  0  0  0
 35 32  1  0  0  0
 31 32  2  0  0  0
 31 30  1  0  0  0
 32 33  1  0  0  0
 30 29  2  0  0  0
 33 34  2  0  0  0
 26 27  1  0  0  0
 26  3  1  0  0  0
 29 34  1  0  0  0
 29 28  1  0  0  0
 27 28  1  0  0  0
  3  2  2  0  0  0
  3  8  1  0  0  0
  1  2  1  0  0  0
  9  8  1  0  0  0
  2  4  1  0  0  0
  8  7  2  0  0  0
  4  5  1  0  0  0
  4  6  2  0  0  0
  7  6  1  0  0  0
  7 16  1  0  0  0
  6 10  1  0  0  0
 16 18  1  0  0  0
 18 25  1  0  0  0
 18 19  1  0  0  0
 25 24  1  0  0  0
 20 19  1  0  0  0
 20 21  1  0  0  0
 24 23  1  0  0  0
 12 10  1  0  0  0
 10 13  2  0  0  0
 10 11  2  0  0  0
 21 22  1  0  0  0
 23 22  1  0  0  0
 36 38  1  0  0  0
 12 14  1  0  0  0
 12 15  1  0  0  0
 16 17  1  0  0  0
M  END
> <minimizedAffinity>
-8.26403

$$$$
6G9U_ETK_A_302


 38 40  0  0  0  0  0  0  0  0999 V2000
   14.1424  -30.7111  -62.9696 F   0  0  0  0  0  0  0  0  0  0  0  0
   14.7125  -30.0206  -61.9720 C   0  0  0  0  0  0  0  0  0  0  0  0
   14.1122  -29.9457  -60.6552 C   0  0  0  0  0  0  0  0  0  0  0  0
   15.9678  -29.3078  -62.2418 C   0  0  0  0  0  0  0  0  0  0  0  0
   16.4604  -29.4069  -63.4624 F   0  0  0  0  0  0  0  0  0  0  0  0
   16.7094  -28.5359  -61.2289 C   0  0  0  0  0  0  0  0  0  0  0  0
   16.0958  -28.4724  -59.8761 C   0  0  0  0  0  0  0  0  0  0  0  0
   14.7983  -29.1711  -59.6111 C   0  0  0  0  0  0  0  0  0  0  0  0
   14.2503  -29.1365  -58.4025 F   0  0  0  0  0  0  0  0  0  0  0  0
   18.1148  -27.8294  -61.7159 S   0  0  0  0  0  0  0  0  0  0  0  0
   18.5815  -28.4810  -62.9272 O   0  0  0  0  0  0  0  0  0  0  0  0
   19.1702  -28.0130  -60.5403 N   0  0  0  0  0  0  0  0  0  0  0  0
   17.8634  -26.4403  -61.9681 O   0  0  0  0  0  0  0  0  0  0  0  0
   18.8262  -27.5498  -59.6991 H   0  0  0  0  0  0  0  0  0  0  0  0
   20.0612  -27.5999  -60.8156 H   0  0  0  0  0  0  0  0  0  0  0  0
   16.6519  -27.6516  -58.9683 N   0  0  0  0  0  0  0  0  0  0  0  0
   17.4514  -27.9630  -58.4856 H   0  0  0  0  0  0  0  0  0  0  0  0
   16.1318  -26.3224  -58.6611 C   0  0  0  0  0  0  0  0  0  0  0  0
   17.3492  -25.3778  -58.6980 C   0  0  0  0  0  0  0  0  0  0  0  0
   17.0436  -23.8812  -58.7498 C   0  0  0  0  0  0  0  0  0  0  0  0
   17.2818  -23.1284  -57.4398 C   0  0  0  0  0  0  0  0  0  0  0  0
   16.9937  -23.8991  -56.1378 C   0  0  0  0  0  0  0  0  0  0  0  0
   15.5231  -24.2095  -55.8824 C   0  0  0  0  0  0  0  0  0  0  0  0
   14.7481  -25.0730  -56.8875 C   0  0  0  0  0  0  0  0  0  0  0  0
   15.4950  -26.3483  -57.2827 C   0  0  0  0  0  0  0  0  0  0  0  0
   12.6485  -30.7593  -60.3866 S   0  0  0  0  0  0  0  0  0  0  0  0
   11.4808  -29.6683  -61.2093 C   0  0  0  0  0  0  0  0  0  0  0  0
   11.5660  -28.1831  -60.8094 C   0  0  0  0  0  0  0  0  0  0  0  0
   10.8756  -27.9916  -59.4886 C   0  0  0  0  0  0  0  0  0  0  0  0
   11.5677  -27.3067  -58.4823 C   0  0  0  0  0  0  0  0  0  0  0  0
   10.9526  -27.0918  -57.2586 C   0  0  0  0  0  0  0  0  0  0  0  0
    9.6504  -27.5414  -57.0211 C   0  0  0  0  0  0  0  0  0  0  0  0
    8.9496  -28.2275  -58.0299 C   0  0  0  0  0  0  0  0  0  0  0  0
    9.5698  -28.4561  -59.2646 C   0  0  0  0  0  0  0  0  0  0  0  0
    9.0297  -27.2457  -55.6785 C   0  0  0  0  0  0  0  0  0  0  0  0
    7.9642  -26.6041  -55.5993 O   0  0  0  0  0  0  0  0  0  0  0  0
    9.6400  -27.5878  -54.6528 O   0  0  0  0  0  0  0  0  0  0  0  0
    7.5110  -26.3504  -56.3792 H   0  0  0  0  0  0  0  0  0  0  0  0
 37 35  2  0  0  0
 36 35  1  0  0  0
 35 32  1  0  0  0
 31 32  2  0  0  0
 31 30  1  0  0  0
 32 33  1  0  0  0
 30 29  2  0  0  0
 33 34  2  0  0  0
 26 27  1  0  0  0
 26  3  1  0  0  0
 29 34  1  0  0  0
 29 28  1  0  0  0
 27 28  1  0  0  0
  3  2  2  0  0  0
  3  8  1  0  0  0
  1  2  1  0  0  0
  9  8  1  0  0  0
  2  4  1  0  0  0
  8  7  2  0  0  0
  4  5  1  0  0  0
  4  6  2  0  0  0
  7  6  1  0  0  0
  7 16  1  0  0  0
  6 10  1  0  0  0
 16 18  1  0  0  0
 18 25  1  0  0  0
 18 19  1  0  0  0
 25 24  1  0  0  0
 20 19  1  0  0  0
 20 21  1  0  0  0
 24 23  1  0  0  0
 12 10  1  0  0  0
 10 13  2  0  0  0
 10 11  2  0  0  0
 21 22  1  0  0  0
 23 22  1  0  0  0
 36 38  1  0  0  0
 12 14  1  0  0  0
 12 15  1  0  0  0
 16 17  1  0  0  0
M  END
> <minimizedAffinity>
-8.02922

$$$$
6G9U_ETK_A_302


 38 40  0  0  0  0  0  0  0  0999 V2000
   15.4665  -30.4439  -60.5626 F   0  0  0  0  0  0  0  0  0  0  0  0
   14.9808  -29.7400  -59.5303 C   0  0  0  0  0  0  0  0  0  0  0  0
   15.7016  -29.6250  -58.2785 C   0  0  0  0  0  0  0  0  0  0  0  0
   13.6715  -29.0918  -59.6790 C   0  0  0  0  0  0  0  0  0  0  0  0
   13.0599  -29.2403  -60.8394 F   0  0  0  0  0  0  0  0  0  0  0  0
   13.0374  -28.2692  -58.6336 C   0  0  0  0  0  0  0  0  0  0  0  0
   13.7868  -28.1438  -57.3555 C   0  0  0  0  0  0  0  0  0  0  0  0
   15.1058  -28.8333  -57.1926 C   0  0  0  0  0  0  0  0  0  0  0  0
   15.7922  -28.7137  -56.0626 F   0  0  0  0  0  0  0  0  0  0  0  0
   11.5775  -27.6006  -58.9983 S   0  0  0  0  0  0  0  0  0  0  0  0
   10.7719  -28.5748  -59.7136 O   0  0  0  0  0  0  0  0  0  0  0  0
   11.8537  -26.3266  -59.9096 N   0  0  0  0  0  0  0  0  0  0  0  0
   10.9290  -27.2263  -57.7753 O   0  0  0  0  0  0  0  0  0  0  0  0
   12.4197  -25.6544  -59.3918 H   0  0  0  0  0  0  0  0  0  0  0  0
   10.9664  -25.8954  -60.1691 H   0  0  0  0  0  0  0  0  0  0  0  0
   13.1762  -27.5383  -56.3223 N   0  0  0  0  0  0  0  0  0  0  0  0
   12.4124  -27.9936  -55.8997 H   0  0  0  0  0  0  0  0  0  0  0  0
   13.5868  -26.2406  -55.7942 C   0  0  0  0  0  0  0  0  0  0  0  0
   14.3786  -25.5591  -56.9274 C   0  0  0  0  0  0  0  0  0  0  0  0
   14.6315  -24.0600  -56.7701 C   0  0  0  0  0  0  0  0  0  0  0  0
   16.0632  -23.6842  -56.3845 C   0  0  0  0  0  0  0  0  0  0  0  0
   16.8086  -24.6629  -55.4578 C   0  0  0  0  0  0  0  0  0  0  0  0
   16.2710  -24.7406  -54.0333 C   0  0  0  0  0  0  0  0  0  0  0  0
   14.8226  -25.1904  -53.7963 C   0  0  0  0  0  0  0  0  0  0  0  0
   14.4556  -26.4594  -54.5681 C   0  0  0  0  0  0  0  0  0  0  0  0
   17.1986  -30.4086  -58.1327 S   0  0  0  0  0  0  0  0  0  0  0  0
   18.3276  -29.1187  -58.6731 C   0  0  0  0  0  0  0  0  0  0  0  0
   18.5684  -27.9818  -57.6621 C   0  0  0  0  0  0  0  0  0  0  0  0
   18.3404  -26.6630  -58.3452 C   0  0  0  0  0  0  0  0  0  0  0  0
   19.2974  -25.6574  -58.1614 C   0  0  0  0  0  0  0  0  0  0  0  0
   19.1310  -24.4356  -58.7950 C   0  0  0  0  0  0  0  0  0  0  0  0
   18.0273  -24.1993  -59.6199 C   0  0  0  0  0  0  0  0  0  0  0  0
   17.0644  -25.2075  -59.8101 C   0  0  0  0  0  0  0  0  0  0  0  0
   17.2224  -26.4401  -59.1646 C   0  0  0  0  0  0  0  0  0  0  0  0
   17.9247  -22.8589  -60.3040 C   0  0  0  0  0  0  0  0  0  0  0  0
   17.4857  -22.7719  -61.4672 O   0  0  0  0  0  0  0  0  0  0  0  0
   18.3567  -21.8555  -59.7140 O   0  0  0  0  0  0  0  0  0  0  0  0
   17.1619  -23.5350  -61.9040 H   0  0  0  0  0  0  0  0  0  0  0  0
 37 35  2  0  0  0
 36 35  1  0  0  0
 35 32  1  0  0  0
 31 32  2  0  0  0
 31 30  1  0  0  0
 32 33  1  0  0  0
 30 29  2  0  0  0
 33 34  2  0  0  0
 26 27  1  0  0  0
 26  3  1  0  0  0
 29 34  1  0  0  0
 29 28  1  0  0  0
 27 28  1  0  0  0
  3  2  2  0  0  0
  3  8  1  0  0  0
  1  2  1  0  0  0
  9  8  1  0  0  0
  2  4  1  0  0  0
  8  7  2  0  0  0
  4  5  1  0  0  0
  4  6  2  0  0  0
  7  6  1  0  0  0
  7 16  1  0  0  0
  6 10  1  0  0  0
 16 18  1  0  0  0
 18 25  1  0  0  0
 18 19  1  0  0  0
 25 24  1  0  0  0
 20 19  1  0  0  0
 20 21  1  0  0  0
 24 23  1  0  0  0
 12 10  1  0  0  0
 10 13  2  0  0  0
 10 11  2  0  0  0
 21 22  1  0  0  0
 23 22  1  0  0  0
 36 38  1  0  0  0
 12 14  1  0  0  0
 12 15  1  0  0  0
 16 17  1  0  0  0
M  END
> <minimizedAffinity>
-8.01173

$$$$
6G9U_ETK_A_302


 38 40  0  0  0  0  0  0  0  0999 V2000
   15.8626  -29.7002  -61.2388 F   0  0  0  0  0  0  0  0  0  0  0  0
   14.8939  -29.0164  -60.6134 C   0  0  0  0  0  0  0  0  0  0  0  0
   15.1939  -27.9592  -59.6688 C   0  0  0  0  0  0  0  0  0  0  0  0
   13.4961  -29.3743  -60.8862 C   0  0  0  0  0  0  0  0  0  0  0  0
   13.2872  -30.3513  -61.7490 F   0  0  0  0  0  0  0  0  0  0  0  0
   12.3388  -28.6861  -60.2872 C   0  0  0  0  0  0  0  0  0  0  0  0
   12.6516  -27.5937  -59.3283 C   0  0  0  0  0  0  0  0  0  0  0  0
   14.0775  -27.2523  -59.0247 C   0  0  0  0  0  0  0  0  0  0  0  0
   14.3688  -26.2670  -58.1841 F   0  0  0  0  0  0  0  0  0  0  0  0
   10.8457  -29.2135  -60.7389 S   0  0  0  0  0  0  0  0  0  0  0  0
   10.7199  -30.6239  -60.4155 O   0  0  0  0  0  0  0  0  0  0  0  0
   10.7169  -28.9861  -62.3078 N   0  0  0  0  0  0  0  0  0  0  0  0
    9.8593  -28.4540  -60.0272 O   0  0  0  0  0  0  0  0  0  0  0  0
   10.8076  -27.9917  -62.5158 H   0  0  0  0  0  0  0  0  0  0  0  0
    9.8065  -29.3184  -62.6259 H   0  0  0  0  0  0  0  0  0  0  0  0
   11.6346  -27.0475  -58.6397 N   0  0  0  0  0  0  0  0  0  0  0  0
   10.9168  -26.6002  -59.1436 H   0  0  0  0  0  0  0  0  0  0  0  0
   11.5391  -27.0830  -57.1832 C   0  0  0  0  0  0  0  0  0  0  0  0
   10.0744  -27.4447  -56.8685 C   0  0  0  0  0  0  0  0  0  0  0  0
    9.7782  -27.8828  -55.4345 C   0  0  0  0  0  0  0  0  0  0  0  0
    9.0547  -26.8421  -54.5783 C   0  0  0  0  0  0  0  0  0  0  0  0
    9.4019  -25.3655  -54.8454 C   0  0  0  0  0  0  0  0  0  0  0  0
   10.8141  -24.9513  -54.4470 C   0  0  0  0  0  0  0  0  0  0  0  0
   12.0172  -25.6382  -55.1082 C   0  0  0  0  0  0  0  0  0  0  0  0
   11.9005  -25.7150  -56.6317 C   0  0  0  0  0  0  0  0  0  0  0  0
   16.8198  -27.5903  -59.3578 S   0  0  0  0  0  0  0  0  0  0  0  0
   16.9852  -25.9997  -60.1783 C   0  0  0  0  0  0  0  0  0  0  0  0
   17.7885  -24.9358  -59.4065 C   0  0  0  0  0  0  0  0  0  0  0  0
   17.3476  -24.9365  -57.9700 C   0  0  0  0  0  0  0  0  0  0  0  0
   16.2846  -24.0983  -57.6119 C   0  0  0  0  0  0  0  0  0  0  0  0
   15.8365  -24.0901  -56.3000 C   0  0  0  0  0  0  0  0  0  0  0  0
   16.4254  -24.9129  -55.3353 C   0  0  0  0  0  0  0  0  0  0  0  0
   17.4918  -25.7591  -55.6907 C   0  0  0  0  0  0  0  0  0  0  0  0
   17.9551  -25.7640  -57.0123 C   0  0  0  0  0  0  0  0  0  0  0  0
   15.8677  -24.8777  -53.9342 C   0  0  0  0  0  0  0  0  0  0  0  0
   16.2019  -23.9769  -53.1405 O   0  0  0  0  0  0  0  0  0  0  0  0
   15.1298  -25.8051  -53.5644 O   0  0  0  0  0  0  0  0  0  0  0  0
   16.7592  -23.2811  -53.4292 H   0  0  0  0  0  0  0  0  0  0  0  0
 37 35  2  0  0  0
 36 35  1  0  0  0
 35 32  1  0  0  0
 31 32  2  0  0  0
 31 30  1  0  0  0
 32 33  1  0  0  0
 30 29  2  0  0  0
 33 34  2  0  0  0
 26 27  1  0  0  0
 26  3  1  0  0  0
 29 34  1  0  0  0
 29 28  1  0  0  0
 27 28  1  0  0  0
  3  2  2  0  0  0
  3  8  1  0  0  0
  1  2  1  0  0  0
  9  8  1  0  0  0
  2  4  1  0  0  0
  8  7  2  0  0  0
  4  5  1  0  0  0
  4  6  2  0  0  0
  7  6  1  0  0  0
  7 16  1  0  0  0
  6 10  1  0  0  0
 16 18  1  0  0  0
 18 25  1  0  0  0
 18 19  1  0  0  0
 25 24  1  0  0  0
 20 19  1  0  0  0
 20 21  1  0  0  0
 24 23  1  0  0  0
 12 10  1  0  0  0
 10 13  2  0  0  0
 10 11  2  0  0  0
 21 22  1  0  0  0
 23 22  1  0  0  0
 36 38  1  0  0  0
 12 14  1  0  0  0
 12 15  1  0  0  0
 16 17  1  0  0  0
M  END
> <minimizedAffinity>
-7.99751

$$$$
6G9U_ETK_A_302


 38 40  0  0  0  0  0  0  0  0999 V2000
   14.0295  -32.6359  -60.0646 F   0  0  0  0  0  0  0  0  0  0  0  0
   14.4638  -31.4590  -59.5919 C   0  0  0  0  0  0  0  0  0  0  0  0
   14.0096  -30.1995  -60.1462 C   0  0  0  0  0  0  0  0  0  0  0  0
   15.4428  -31.4623  -58.4974 C   0  0  0  0  0  0  0  0  0  0  0  0
   15.8245  -32.6407  -58.0410 F   0  0  0  0  0  0  0  0  0  0  0  0
   15.9797  -30.2416  -57.8703 C   0  0  0  0  0  0  0  0  0  0  0  0
   15.5011  -28.9517  -58.4342 C   0  0  0  0  0  0  0  0  0  0  0  0
   14.5289  -28.9495  -59.5729 C   0  0  0  0  0  0  0  0  0  0  0  0
   14.0808  -27.8040  -60.0724 F   0  0  0  0  0  0  0  0  0  0  0  0
   17.0486  -30.4496  -56.6352 S   0  0  0  0  0  0  0  0  0  0  0  0
   16.3605  -30.2555  -55.3710 O   0  0  0  0  0  0  0  0  0  0  0  0
   18.1998  -29.3672  -56.8169 N   0  0  0  0  0  0  0  0  0  0  0  0
   17.5783  -31.7801  -56.7098 O   0  0  0  0  0  0  0  0  0  0  0  0
   18.6713  -29.5187  -57.7086 H   0  0  0  0  0  0  0  0  0  0  0  0
   18.8737  -29.4567  -56.0564 H   0  0  0  0  0  0  0  0  0  0  0  0
   16.0824  -27.8192  -58.0022 N   0  0  0  0  0  0  0  0  0  0  0  0
   17.0442  -27.6946  -58.1712 H   0  0  0  0  0  0  0  0  0  0  0  0
   15.3616  -26.7645  -57.2954 C   0  0  0  0  0  0  0  0  0  0  0  0
   16.3565  -25.5951  -57.1612 C   0  0  0  0  0  0  0  0  0  0  0  0
   15.7629  -24.2428  -56.7676 C   0  0  0  0  0  0  0  0  0  0  0  0
   16.0268  -23.8184  -55.3220 C   0  0  0  0  0  0  0  0  0  0  0  0
   16.0730  -24.9421  -54.2696 C   0  0  0  0  0  0  0  0  0  0  0  0
   14.7389  -25.6279  -53.9974 C   0  0  0  0  0  0  0  0  0  0  0  0
   14.0164  -26.3545  -55.1404 C   0  0  0  0  0  0  0  0  0  0  0  0
   14.9352  -27.2853  -55.9340 C   0  0  0  0  0  0  0  0  0  0  0  0
   12.8988  -30.2338  -61.4273 S   0  0  0  0  0  0  0  0  0  0  0  0
   11.3503  -29.9466  -60.5610 C   0  0  0  0  0  0  0  0  0  0  0  0
   10.8466  -28.4909  -60.5680 C   0  0  0  0  0  0  0  0  0  0  0  0
   10.4279  -28.1113  -59.1757 C   0  0  0  0  0  0  0  0  0  0  0  0
   11.3407  -27.3964  -58.3905 C   0  0  0  0  0  0  0  0  0  0  0  0
   10.9795  -27.0098  -57.1090 C   0  0  0  0  0  0  0  0  0  0  0  0
    9.7155  -27.3163  -56.5964 C   0  0  0  0  0  0  0  0  0  0  0  0
    8.7938  -28.0318  -57.3824 C   0  0  0  0  0  0  0  0  0  0  0  0
    9.1569  -28.4335  -58.6739 C   0  0  0  0  0  0  0  0  0  0  0  0
    9.3765  -26.8375  -55.2067 C   0  0  0  0  0  0  0  0  0  0  0  0
    8.4111  -27.3232  -54.5860 O   0  0  0  0  0  0  0  0  0  0  0  0
   10.0306  -25.8985  -54.7251 O   0  0  0  0  0  0  0  0  0  0  0  0
    7.9236  -28.0317  -54.9579 H   0  0  0  0  0  0  0  0  0  0  0  0
 37 35  2  0  0  0
 36 35  1  0  0  0
 35 32  1  0  0  0
 31 32  2  0  0  0
 31 30  1  0  0  0
 32 33  1  0  0  0
 30 29  2  0  0  0
 33 34  2  0  0  0
 26 27  1  0  0  0
 26  3  1  0  0  0
 29 34  1  0  0  0
 29 28  1  0  0  0
 27 28  1  0  0  0
  3  2  2  0  0  0
  3  8  1  0  0  0
  1  2  1  0  0  0
  9  8  1  0  0  0
  2  4  1  0  0  0
  8  7  2  0  0  0
  4  5  1  0  0  0
  4  6  2  0  0  0
  7  6  1  0  0  0
  7 16  1  0  0  0
  6 10  1  0  0  0
 16 18  1  0  0  0
 18 25  1  0  0  0
 18 19  1  0  0  0
 25 24  1  0  0  0
 20 19  1  0  0  0
 20 21  1  0  0  0
 24 23  1  0  0  0
 12 10  1  0  0  0
 10 13  2  0  0  0
 10 11  2  0  0  0
 21 22  1  0  0  0
 23 22  1  0  0  0
 36 38  1  0  0  0
 12 14  1  0  0  0
 12 15  1  0  0  0
 16 17  1  0  0  0
M  END
> <minimizedAffinity>
-7.86037

$$$$
6G9U_ETK_A_302


 38 40  0  0  0  0  0  0  0  0999 V2000
   11.8966  -27.4359  -55.5773 F   0  0  0  0  0  0  0  0  0  0  0  0
   12.6727  -27.3897  -56.6693 C   0  0  0  0  0  0  0  0  0  0  0  0
   14.1185  -27.3556  -56.5773 C   0  0  0  0  0  0  0  0  0  0  0  0
   12.0257  -27.3506  -57.9871 C   0  0  0  0  0  0  0  0  0  0  0  0
   10.7060  -27.3752  -58.0054 F   0  0  0  0  0  0  0  0  0  0  0  0
   12.7609  -27.3251  -59.2639 C   0  0  0  0  0  0  0  0  0  0  0  0
   14.2443  -27.3030  -59.1645 C   0  0  0  0  0  0  0  0  0  0  0  0
   14.9026  -27.3082  -57.8198 C   0  0  0  0  0  0  0  0  0  0  0  0
   16.2263  -27.3069  -57.7190 F   0  0  0  0  0  0  0  0  0  0  0  0
   11.8578  -27.3120  -60.6408 S   0  0  0  0  0  0  0  0  0  0  0  0
   12.1009  -28.5369  -61.3825 O   0  0  0  0  0  0  0  0  0  0  0  0
   12.3075  -26.0452  -61.4909 N   0  0  0  0  0  0  0  0  0  0  0  0
   10.4735  -27.2215  -60.2773 O   0  0  0  0  0  0  0  0  0  0  0  0
   12.1296  -25.1956  -60.9552 H   0  0  0  0  0  0  0  0  0  0  0  0
   11.7778  -26.0149  -62.3621 H   0  0  0  0  0  0  0  0  0  0  0  0
   14.9502  -27.1190  -60.2936 N   0  0  0  0  0  0  0  0  0  0  0  0
   14.7326  -26.3428  -60.8587 H   0  0  0  0  0  0  0  0  0  0  0  0
   16.0228  -28.0104  -60.7253 C   0  0  0  0  0  0  0  0  0  0  0  0
   17.2171  -27.0960  -61.0618 C   0  0  0  0  0  0  0  0  0  0  0  0
   18.5745  -27.7824  -61.2112 C   0  0  0  0  0  0  0  0  0  0  0  0
   19.0726  -27.9207  -62.6507 C   0  0  0  0  0  0  0  0  0  0  0  0
   18.0017  -28.1526  -63.7332 C   0  0  0  0  0  0  0  0  0  0  0  0
   17.3031  -29.5063  -63.6715 C   0  0  0  0  0  0  0  0  0  0  0  0
   16.5083  -29.8893  -62.4152 C   0  0  0  0  0  0  0  0  0  0  0  0
   15.5593  -28.7846  -61.9468 C   0  0  0  0  0  0  0  0  0  0  0  0
   14.8312  -27.3752  -55.0384 S   0  0  0  0  0  0  0  0  0  0  0  0
   14.5309  -25.6908  -54.4877 C   0  0  0  0  0  0  0  0  0  0  0  0
   15.7907  -24.8410  -54.2356 C   0  0  0  0  0  0  0  0  0  0  0  0
   16.4251  -24.5029  -55.5550 C   0  0  0  0  0  0  0  0  0  0  0  0
   17.7415  -24.9266  -55.7752 C   0  0  0  0  0  0  0  0  0  0  0  0
   18.3506  -24.6521  -56.9900 C   0  0  0  0  0  0  0  0  0  0  0  0
   17.6653  -23.9675  -57.9979 C   0  0  0  0  0  0  0  0  0  0  0  0
   16.3415  -23.5422  -57.7827 C   0  0  0  0  0  0  0  0  0  0  0  0
   15.7248  -23.8081  -56.5539 C   0  0  0  0  0  0  0  0  0  0  0  0
   18.3767  -23.7303  -59.3068 C   0  0  0  0  0  0  0  0  0  0  0  0
   18.0586  -22.7720  -60.0374 O   0  0  0  0  0  0  0  0  0  0  0  0
   19.2316  -24.5512  -59.6763 O   0  0  0  0  0  0  0  0  0  0  0  0
   17.4123  -22.1578  -59.7496 H   0  0  0  0  0  0  0  0  0  0  0  0
 37 35  2  0  0  0
 36 35  1  0  0  0
 35 32  1  0  0  0
 31 32  2  0  0  0
 31 30  1  0  0  0
 32 33  1  0  0  0
 30 29  2  0  0  0
 33 34  2  0  0  0
 26 27  1  0  0  0
 26  3  1  0  0  0
 29 34  1  0  0  0
 29 28  1  0  0  0
 27 28  1  0  0  0
  3  2  2  0  0  0
  3  8  1  0  0  0
  1  2  1  0  0  0
  9  8  1  0  0  0
  2  4  1  0  0  0
  8  7  2  0  0  0
  4  5  1  0  0  0
  4  6  2  0  0  0
  7  6  1  0  0  0
  7 16  1  0  0  0
  6 10  1  0  0  0
 16 18  1  0  0  0
 18 25  1  0  0  0
 18 19  1  0  0  0
 25 24  1  0  0  0
 20 19  1  0  0  0
 20 21  1  0  0  0
 24 23  1  0  0  0
 12 10  1  0  0  0
 10 13  2  0  0  0
 10 11  2  0  0  0
 21 22  1  0  0  0
 23 22  1  0  0  0
 36 38  1  0  0  0
 12 14  1  0  0  0
 12 15  1  0  0  0
 16 17  1  0  0  0
M  END
> <minimizedAffinity>
-7.73766

$$$$
6G9U_ETK_A_302


 38 40  0  0  0  0  0  0  0  0999 V2000
   11.9578  -29.5528  -61.6965 F   0  0  0  0  0  0  0  0  0  0  0  0
   12.4674  -29.2269  -60.5002 C   0  0  0  0  0  0  0  0  0  0  0  0
   11.7846  -28.3178  -59.6018 C   0  0  0  0  0  0  0  0  0  0  0  0
   13.7641  -29.7970  -60.1126 C   0  0  0  0  0  0  0  0  0  0  0  0
   14.3409  -30.6111  -60.9769 F   0  0  0  0  0  0  0  0  0  0  0  0
   14.4210  -29.5417  -58.8184 C   0  0  0  0  0  0  0  0  0  0  0  0
   13.7104  -28.6181  -57.8949 C   0  0  0  0  0  0  0  0  0  0  0  0
   12.4050  -28.0104  -58.3050 C   0  0  0  0  0  0  0  0  0  0  0  0
   11.7528  -27.1988  -57.4815 F   0  0  0  0  0  0  0  0  0  0  0  0
   15.8613  -30.2953  -58.5552 S   0  0  0  0  0  0  0  0  0  0  0  0
   16.1656  -31.1517  -59.6881 O   0  0  0  0  0  0  0  0  0  0  0  0
   15.7097  -31.1576  -57.2274 N   0  0  0  0  0  0  0  0  0  0  0  0
   16.8783  -29.2955  -58.4050 O   0  0  0  0  0  0  0  0  0  0  0  0
   15.4965  -30.5406  -56.4437 H   0  0  0  0  0  0  0  0  0  0  0  0
   16.5818  -31.6532  -57.0425 H   0  0  0  0  0  0  0  0  0  0  0  0
   14.3460  -28.2324  -56.7750 N   0  0  0  0  0  0  0  0  0  0  0  0
   14.9198  -28.8869  -56.3150 H   0  0  0  0  0  0  0  0  0  0  0  0
   14.2296  -26.8932  -56.2052 C   0  0  0  0  0  0  0  0  0  0  0  0
   15.0971  -25.9825  -57.0961 C   0  0  0  0  0  0  0  0  0  0  0  0
   14.8862  -24.4774  -56.9343 C   0  0  0  0  0  0  0  0  0  0  0  0
   15.9968  -23.7480  -56.1767 C   0  0  0  0  0  0  0  0  0  0  0  0
   16.6836  -24.5267  -55.0390 C   0  0  0  0  0  0  0  0  0  0  0  0
   15.8074  -24.7992  -53.8215 C   0  0  0  0  0  0  0  0  0  0  0  0
   14.5256  -25.6281  -53.9841 C   0  0  0  0  0  0  0  0  0  0  0  0
   14.7432  -26.9186  -54.7763 C   0  0  0  0  0  0  0  0  0  0  0  0
   10.3018  -27.6573  -60.0931 S   0  0  0  0  0  0  0  0  0  0  0  0
    9.1948  -29.0522  -59.8491 C   0  0  0  0  0  0  0  0  0  0  0  0
    8.3911  -29.4858  -61.0896 C   0  0  0  0  0  0  0  0  0  0  0  0
    7.4569  -30.5976  -60.7034 C   0  0  0  0  0  0  0  0  0  0  0  0
    7.2246  -30.8122  -59.3393 C   0  0  0  0  0  0  0  0  0  0  0  0
    6.3508  -31.8146  -58.9472 C   0  0  0  0  0  0  0  0  0  0  0  0
    5.6939  -32.6052  -59.8947 C   0  0  0  0  0  0  0  0  0  0  0  0
    5.9217  -32.3916  -61.2666 C   0  0  0  0  0  0  0  0  0  0  0  0
    6.8110  -31.3870  -61.6680 C   0  0  0  0  0  0  0  0  0  0  0  0
    4.7322  -33.6566  -59.3999 C   0  0  0  0  0  0  0  0  0  0  0  0
    3.7627  -34.0094  -60.0991 O   0  0  0  0  0  0  0  0  0  0  0  0
    4.8823  -34.1074  -58.2529 O   0  0  0  0  0  0  0  0  0  0  0  0
    3.6580  -33.6635  -60.9636 H   0  0  0  0  0  0  0  0  0  0  0  0
 37 35  2  0  0  0
 36 35  1  0  0  0
 35 32  1  0  0  0
 31 32  2  0  0  0
 31 30  1  0  0  0
 32 33  1  0  0  0
 30 29  2  0  0  0
 33 34  2  0  0  0
 26 27  1  0  0  0
 26  3  1  0  0  0
 29 34  1  0  0  0
 29 28  1  0  0  0
 27 28  1  0  0  0
  3  2  2  0  0  0
  3  8  1  0  0  0
  1  2  1  0  0  0
  9  8  1  0  0  0
  2  4  1  0  0  0
  8  7  2  0  0  0
  4  5  1  0  0  0
  4  6  2  0  0  0
  7  6  1  0  0  0
  7 16  1  0  0  0
  6 10  1  0  0  0
 16 18  1  0  0  0
 18 25  1  0  0  0
 18 19  1  0  0  0
 25 24  1  0  0  0
 20 19  1  0  0  0
 20 21  1  0  0  0
 24 23  1  0  0  0
 12 10  1  0  0  0
 10 13  2  0  0  0
 10 11  2  0  0  0
 21 22  1  0  0  0
 23 22  1  0  0  0
 36 38  1  0  0  0
 12 14  1  0  0  0
 12 15  1  0  0  0
 16 17  1  0  0  0
M  END
> <minimizedAffinity>
-7.68103

$$$$
6G9U_ETK_A_302


 38 40  0  0  0  0  0  0  0  0999 V2000
   18.6745  -26.2682  -55.9407 F   0  0  0  0  0  0  0  0  0  0  0  0
   17.8197  -26.9543  -56.7125 C   0  0  0  0  0  0  0  0  0  0  0  0
   16.8632  -27.8864  -56.1503 C   0  0  0  0  0  0  0  0  0  0  0  0
   17.8809  -26.7622  -58.1672 C   0  0  0  0  0  0  0  0  0  0  0  0
   18.7788  -25.9068  -58.6194 F   0  0  0  0  0  0  0  0  0  0  0  0
   16.9830  -27.4331  -59.1239 C   0  0  0  0  0  0  0  0  0  0  0  0
   15.9950  -28.3791  -58.5411 C   0  0  0  0  0  0  0  0  0  0  0  0
   15.9562  -28.6001  -57.0607 C   0  0  0  0  0  0  0  0  0  0  0  0
   15.0665  -29.4286  -56.5275 F   0  0  0  0  0  0  0  0  0  0  0  0
   17.1874  -27.0670  -60.7163 S   0  0  0  0  0  0  0  0  0  0  0  0
   18.5726  -27.3004  -61.0855 O   0  0  0  0  0  0  0  0  0  0  0  0
   16.8101  -25.5332  -60.9026 N   0  0  0  0  0  0  0  0  0  0  0  0
   16.3216  -27.9068  -61.4920 O   0  0  0  0  0  0  0  0  0  0  0  0
   15.8354  -25.3884  -60.6390 H   0  0  0  0  0  0  0  0  0  0  0  0
   16.9416  -25.2668  -61.8783 H   0  0  0  0  0  0  0  0  0  0  0  0
   15.2663  -29.1303  -59.3847 N   0  0  0  0  0  0  0  0  0  0  0  0
   15.7405  -29.6648  -60.0619 H   0  0  0  0  0  0  0  0  0  0  0  0
   13.8081  -29.1946  -59.3489 C   0  0  0  0  0  0  0  0  0  0  0  0
   13.3758  -29.6746  -60.7482 C   0  0  0  0  0  0  0  0  0  0  0  0
   11.9313  -30.1557  -60.8827 C   0  0  0  0  0  0  0  0  0  0  0  0
   10.9936  -29.1877  -61.6059 C   0  0  0  0  0  0  0  0  0  0  0  0
   11.2579  -27.6846  -61.3979 C   0  0  0  0  0  0  0  0  0  0  0  0
   10.9742  -27.1670  -59.9923 C   0  0  0  0  0  0  0  0  0  0  0  0
   11.7515  -27.7476  -58.8027 C   0  0  0  0  0  0  0  0  0  0  0  0
   13.2605  -27.8108  -59.0465 C   0  0  0  0  0  0  0  0  0  0  0  0
   16.8384  -28.1032  -54.4684 S   0  0  0  0  0  0  0  0  0  0  0  0
   15.5205  -26.9802  -53.9861 C   0  0  0  0  0  0  0  0  0  0  0  0
   14.9000  -26.1558  -55.1298 C   0  0  0  0  0  0  0  0  0  0  0  0
   13.4406  -26.4957  -55.2421 C   0  0  0  0  0  0  0  0  0  0  0  0
   12.5341  -25.4407  -55.4035 C   0  0  0  0  0  0  0  0  0  0  0  0
   11.1822  -25.7189  -55.5333 C   0  0  0  0  0  0  0  0  0  0  0  0
   10.7156  -27.0366  -55.5142 C   0  0  0  0  0  0  0  0  0  0  0  0
   11.6227  -28.1003  -55.3552 C   0  0  0  0  0  0  0  0  0  0  0  0
   12.9883  -27.8245  -55.2137 C   0  0  0  0  0  0  0  0  0  0  0  0
    9.2360  -27.2697  -55.6928 C   0  0  0  0  0  0  0  0  0  0  0  0
    8.4284  -26.3255  -55.5952 O   0  0  0  0  0  0  0  0  0  0  0  0
    8.8333  -28.4317  -55.8632 O   0  0  0  0  0  0  0  0  0  0  0  0
    8.7422  -25.4520  -55.4667 H   0  0  0  0  0  0  0  0  0  0  0  0
 37 35  2  0  0  0
 36 35  1  0  0  0
 35 32  1  0  0  0
 31 32  2  0  0  0
 31 30  1  0  0  0
 32 33  1  0  0  0
 30 29  2  0  0  0
 33 34  2  0  0  0
 26 27  1  0  0  0
 26  3  1  0  0  0
 29 34  1  0  0  0
 29 28  1  0  0  0
 27 28  1  0  0  0
  3  2  2  0  0  0
  3  8  1  0  0  0
  1  2  1  0  0  0
  9  8  1  0  0  0
  2  4  1  0  0  0
  8  7  2  0  0  0
  4  5  1  0  0  0
  4  6  2  0  0  0
  7  6  1  0  0  0
  7 16  1  0  0  0
  6 10  1  0  0  0
 16 18  1  0  0  0
 18 25  1  0  0  0
 18 19  1  0  0  0
 25 24  1  0  0  0
 20 19  1  0  0  0
 20 21  1  0  0  0
 24 23  1  0  0  0
 12 10  1  0  0  0
 10 13  2  0  0  0
 10 11  2  0  0  0
 21 22  1  0  0  0
 23 22  1  0  0  0
 36 38  1  0  0  0
 12 14  1  0  0  0
 12 15  1  0  0  0
 16 17  1  0  0  0
M  END
> <minimizedAffinity>
-7.67273

$$$$
