5D3J_L33_A_201


 30 31  0  0  0  0  0  0  0  0999 V2000
    4.1560   57.2524   20.9057 C   0  0  0  0  0  0  0  0  0  0  0  0
    4.2575   56.3219   21.8590 N   0  0  0  0  0  0  0  0  0  0  0  0
    3.4702   57.0618   19.9106 O   0  0  0  0  0  0  0  0  0  0  0  0
    4.9999   56.3916   22.5018 H   0  0  0  0  0  0  0  0  0  0  0  0
    5.3903   60.7404   21.4270 C   0  0  0  0  0  0  0  0  0  0  0  0
    4.4243   59.7885   21.7403 C   0  0  0  0  0  0  0  0  0  0  0  0
    4.8412   58.5860   20.9664 C   0  0  0  0  0  0  0  0  0  0  0  0
    6.3626   60.1297   20.5013 C   0  0  0  0  0  0  0  0  0  0  0  0
    7.5648   60.8000   19.8833 C   0  0  0  0  0  0  0  0  0  0  0  0
    5.9633   58.8635   20.2768 N   0  0  0  0  0  0  0  0  0  0  0  0
    6.4291   58.2267   19.6880 H   0  0  0  0  0  0  0  0  0  0  0  0
    5.4915   62.1633   21.8619 C   0  0  0  0  0  0  0  0  0  0  0  0
    4.3725   63.0729   21.4243 C   0  0  0  0  0  0  0  0  0  0  0  0
    6.4724   62.5926   22.4666 O   0  0  0  0  0  0  0  0  0  0  0  0
    3.5954   59.3383   24.0017 C   0  0  0  0  0  0  0  0  0  0  0  0
    3.2416   59.9452   22.6639 C   0  0  0  0  0  0  0  0  0  0  0  0
    1.4241   54.4246   23.1316 C   0  0  0  0  0  0  0  0  0  0  0  0
    1.4558   53.2534   22.3733 C   0  0  0  0  0  0  0  0  0  0  0  0
    3.4068   54.0871   21.2122 C   0  0  0  0  0  0  0  0  0  0  0  0
    3.3803   55.2731   21.9892 C   0  0  0  0  0  0  0  0  0  0  0  0
    2.3717   55.4281   22.9447 C   0  0  0  0  0  0  0  0  0  0  0  0
    2.4388   53.0854   21.4020 C   0  0  0  0  0  0  0  0  0  0  0  0
    2.0494   50.6244   21.3721 O   0  0  0  0  0  0  0  0  0  0  0  0
    3.7601   51.4487   20.0092 O   0  0  0  0  0  0  0  0  0  0  0  0
    2.4412   51.7156   20.5429 S   0  0  0  0  0  0  0  0  0  0  0  0
    1.5119   51.9358   19.3342 N   0  0  0  0  0  0  0  0  0  0  0  0
    1.4993   50.5949   17.3097 C   0  0  0  0  0  0  0  0  0  0  0  0
    0.8766   50.8006   18.6756 C   0  0  0  0  0  0  0  0  0  0  0  0
   -0.2101   53.5988   18.9008 C   0  0  0  0  0  0  0  0  0  0  0  0
    1.2679   53.2951   18.8478 C   0  0  0  0  0  0  0  0  0  0  0  0
  9  8  1  0  0  0
 27 28  1  0  0  0
 23 25  2  0  0  0
  8 10  1  0  0  0
  8  5  2  0  0  0
 28 26  1  0  0  0
 10  7  1  0  0  0
 14 12  2  0  0  0
  3  1  2  0  0  0
  5 12  1  0  0  0
  5  6  1  0  0  0
 12 13  1  0  0  0
 26 25  1  0  0  0
 26 30  1  0  0  0
  7  1  1  0  0  0
  7  6  2  0  0  0
 25 24  2  0  0  0
 25 22  1  0  0  0
  1  2  1  0  0  0
  6 16  1  0  0  0
 30 29  1  0  0  0
 19 22  2  0  0  0
 19 20  1  0  0  0
 22 18  1  0  0  0
  2 20  1  0  0  0
 16 15  1  0  0  0
 20 21  2  0  0  0
 18 17  2  0  0  0
 21 17  1  0  0  0
 10 11  1  0  0  0
  2  4  1  0  0  0
M  END
> <minimizedAffinity>
-6.92653

$$$$
5D3J_L33_A_201


 30 31  0  0  0  0  0  0  0  0999 V2000
    4.1539   57.3458   20.9675 C   0  0  0  0  0  0  0  0  0  0  0  0
    4.2511   56.4352   21.9403 N   0  0  0  0  0  0  0  0  0  0  0  0
    3.4311   57.1569   19.9985 O   0  0  0  0  0  0  0  0  0  0  0  0
    5.0152   56.4929   22.5585 H   0  0  0  0  0  0  0  0  0  0  0  0
    5.5277   60.7981   21.3614 C   0  0  0  0  0  0  0  0  0  0  0  0
    4.5366   59.8912   21.7255 C   0  0  0  0  0  0  0  0  0  0  0  0
    4.8884   58.6543   20.9740 C   0  0  0  0  0  0  0  0  0  0  0  0
    6.4518   60.1278   20.4276 C   0  0  0  0  0  0  0  0  0  0  0  0
    7.6605   60.7366   19.7606 C   0  0  0  0  0  0  0  0  0  0  0  0
    6.0008   58.8718   20.2481 N   0  0  0  0  0  0  0  0  0  0  0  0
    6.4272   58.2030   19.6649 H   0  0  0  0  0  0  0  0  0  0  0  0
    5.6922   62.2272   21.7547 C   0  0  0  0  0  0  0  0  0  0  0  0
    4.5012   63.1212   21.5237 C   0  0  0  0  0  0  0  0  0  0  0  0
    6.7637   62.6729   22.1613 O   0  0  0  0  0  0  0  0  0  0  0  0
    3.7727   59.5760   24.0322 C   0  0  0  0  0  0  0  0  0  0  0  0
    3.3857   60.1158   22.6750 C   0  0  0  0  0  0  0  0  0  0  0  0
    1.5213   54.5824   23.4774 C   0  0  0  0  0  0  0  0  0  0  0  0
    1.3750   53.4745   22.6414 C   0  0  0  0  0  0  0  0  0  0  0  0
    3.1859   54.3022   21.2684 C   0  0  0  0  0  0  0  0  0  0  0  0
    3.3410   55.4230   22.1232 C   0  0  0  0  0  0  0  0  0  0  0  0
    2.4903   55.5507   23.2250 C   0  0  0  0  0  0  0  0  0  0  0  0
    2.1974   53.3365   21.5267 C   0  0  0  0  0  0  0  0  0  0  0  0
    2.1420   52.4122   19.2133 O   0  0  0  0  0  0  0  0  0  0  0  0
    0.6806   51.4667   20.7733 O   0  0  0  0  0  0  0  0  0  0  0  0
    1.9959   52.0402   20.5815 S   0  0  0  0  0  0  0  0  0  0  0  0
    3.0121   50.9788   21.0435 N   0  0  0  0  0  0  0  0  0  0  0  0
    4.8444   49.5976   20.2485 C   0  0  0  0  0  0  0  0  0  0  0  0
    4.3850   51.0089   20.5531 C   0  0  0  0  0  0  0  0  0  0  0  0
    3.0756   50.2738   23.3711 C   0  0  0  0  0  0  0  0  0  0  0  0
    2.5925   49.9356   21.9813 C   0  0  0  0  0  0  0  0  0  0  0  0
  9  8  1  0  0  0
 27 28  1  0  0  0
 23 25  2  0  0  0
  8 10  1  0  0  0
  8  5  2  0  0  0
 28 26  1  0  0  0
 10  7  1  0  0  0
 14 12  2  0  0  0
  3  1  2  0  0  0
  5 12  1  0  0  0
  5  6  1  0  0  0
 12 13  1  0  0  0
 26 25  1  0  0  0
 26 30  1  0  0  0
  7  1  1  0  0  0
  7  6  2  0  0  0
 25 24  2  0  0  0
 25 22  1  0  0  0
  1  2  1  0  0  0
  6 16  1  0  0  0
 30 29  1  0  0  0
 19 22  2  0  0  0
 19 20  1  0  0  0
 22 18  1  0  0  0
  2 20  1  0  0  0
 16 15  1  0  0  0
 20 21  2  0  0  0
 18 17  2  0  0  0
 21 17  1  0  0  0
 10 11  1  0  0  0
  2  4  1  0  0  0
M  END
> <minimizedAffinity>
-6.85126

$$$$
5D3J_L33_A_201


 30 31  0  0  0  0  0  0  0  0999 V2000
    4.0873   57.5541   23.8278 C   0  0  0  0  0  0  0  0  0  0  0  0
    2.8361   57.1018   23.9499 N   0  0  0  0  0  0  0  0  0  0  0  0
    5.0393   56.7859   23.8506 O   0  0  0  0  0  0  0  0  0  0  0  0
    2.1286   57.7447   24.1850 H   0  0  0  0  0  0  0  0  0  0  0  0
    5.1494   60.9864   22.8020 C   0  0  0  0  0  0  0  0  0  0  0  0
    5.0048   59.6530   22.4301 C   0  0  0  0  0  0  0  0  0  0  0  0
    4.4361   59.0018   23.6431 C   0  0  0  0  0  0  0  0  0  0  0  0
    4.6757   61.1365   24.1906 C   0  0  0  0  0  0  0  0  0  0  0  0
    4.6672   62.4035   25.0098 C   0  0  0  0  0  0  0  0  0  0  0  0
    4.2788   59.9212   24.6134 N   0  0  0  0  0  0  0  0  0  0  0  0
    3.9219   59.7309   25.5110 H   0  0  0  0  0  0  0  0  0  0  0  0
    5.7116   62.1288   22.0255 C   0  0  0  0  0  0  0  0  0  0  0  0
    4.7092   63.0565   21.3886 C   0  0  0  0  0  0  0  0  0  0  0  0
    6.9201   62.2595   21.8395 O   0  0  0  0  0  0  0  0  0  0  0  0
    4.0564   58.5179   20.4767 C   0  0  0  0  0  0  0  0  0  0  0  0
    5.3363   59.0265   21.0982 C   0  0  0  0  0  0  0  0  0  0  0  0
    1.5445   53.8006   24.7754 C   0  0  0  0  0  0  0  0  0  0  0  0
    1.6610   53.1009   23.5734 C   0  0  0  0  0  0  0  0  0  0  0  0
    2.5948   55.0787   22.5409 C   0  0  0  0  0  0  0  0  0  0  0  0
    2.4853   55.7869   23.7647 C   0  0  0  0  0  0  0  0  0  0  0  0
    1.9483   55.1299   24.8756 C   0  0  0  0  0  0  0  0  0  0  0  0
    2.1741   53.7405   22.4484 C   0  0  0  0  0  0  0  0  0  0  0  0
    2.0787   51.5122   21.3372 O   0  0  0  0  0  0  0  0  0  0  0  0
    3.6014   53.0651   20.4808 O   0  0  0  0  0  0  0  0  0  0  0  0
    2.2916   52.8968   21.0741 S   0  0  0  0  0  0  0  0  0  0  0  0
    1.2774   53.4989   20.0833 N   0  0  0  0  0  0  0  0  0  0  0  0
   -0.5356   52.3244   18.9740 C   0  0  0  0  0  0  0  0  0  0  0  0
   -0.1369   53.1565   20.1758 C   0  0  0  0  0  0  0  0  0  0  0  0
    1.1181   55.7800   19.2525 C   0  0  0  0  0  0  0  0  0  0  0  0
    1.7411   54.4206   19.0443 C   0  0  0  0  0  0  0  0  0  0  0  0
  9  8  1  0  0  0
 27 28  1  0  0  0
 23 25  2  0  0  0
  8 10  1  0  0  0
  8  5  2  0  0  0
 28 26  1  0  0  0
 10  7  1  0  0  0
 14 12  2  0  0  0
  3  1  2  0  0  0
  5 12  1  0  0  0
  5  6  1  0  0  0
 12 13  1  0  0  0
 26 25  1  0  0  0
 26 30  1  0  0  0
  7  1  1  0  0  0
  7  6  2  0  0  0
 25 24  2  0  0  0
 25 22  1  0  0  0
  1  2  1  0  0  0
  6 16  1  0  0  0
 30 29  1  0  0  0
 19 22  2  0  0  0
 19 20  1  0  0  0
 22 18  1  0  0  0
  2 20  1  0  0  0
 16 15  1  0  0  0
 20 21  2  0  0  0
 18 17  2  0  0  0
 21 17  1  0  0  0
 10 11  1  0  0  0
  2  4  1  0  0  0
M  END
> <minimizedAffinity>
-6.82954

$$$$
5D3J_L33_A_201


 30 31  0  0  0  0  0  0  0  0999 V2000
    4.0830   58.9739   23.9336 C   0  0  0  0  0  0  0  0  0  0  0  0
    4.8190   58.2497   23.0858 N   0  0  0  0  0  0  0  0  0  0  0  0
    2.9284   59.2765   23.6647 O   0  0  0  0  0  0  0  0  0  0  0  0
    5.7963   58.2436   23.2043 H   0  0  0  0  0  0  0  0  0  0  0  0
    5.3919   60.7348   26.9581 C   0  0  0  0  0  0  0  0  0  0  0  0
    5.0139   60.8397   25.6227 C   0  0  0  0  0  0  0  0  0  0  0  0
    4.5804   59.4608   25.2630 C   0  0  0  0  0  0  0  0  0  0  0  0
    5.1853   59.3405   27.3923 C   0  0  0  0  0  0  0  0  0  0  0  0
    5.4812   58.7660   28.7557 C   0  0  0  0  0  0  0  0  0  0  0  0
    4.7117   58.6559   26.3338 N   0  0  0  0  0  0  0  0  0  0  0  0
    4.4912   57.6965   26.3421 H   0  0  0  0  0  0  0  0  0  0  0  0
    5.9572   61.7748   27.8652 C   0  0  0  0  0  0  0  0  0  0  0  0
    5.0507   62.9327   28.1948 C   0  0  0  0  0  0  0  0  0  0  0  0
    7.1237   61.7387   28.2524 O   0  0  0  0  0  0  0  0  0  0  0  0
    3.6323   62.6482   24.7146 C   0  0  0  0  0  0  0  0  0  0  0  0
    5.0293   62.0738   24.7547 C   0  0  0  0  0  0  0  0  0  0  0  0
    3.7756   57.4428   19.6935 C   0  0  0  0  0  0  0  0  0  0  0  0
    3.2711   56.1470   19.8128 C   0  0  0  0  0  0  0  0  0  0  0  0
    3.7797   56.1930   22.1769 C   0  0  0  0  0  0  0  0  0  0  0  0
    4.2835   57.5132   22.0576 C   0  0  0  0  0  0  0  0  0  0  0  0
    4.2798   58.1228   20.7996 C   0  0  0  0  0  0  0  0  0  0  0  0
    3.2831   55.5121   21.0517 C   0  0  0  0  0  0  0  0  0  0  0  0
    2.4876   53.6588   22.5152 O   0  0  0  0  0  0  0  0  0  0  0  0
    3.6065   53.0605   20.5521 O   0  0  0  0  0  0  0  0  0  0  0  0
    2.6915   54.0104   21.1489 S   0  0  0  0  0  0  0  0  0  0  0  0
    1.4039   53.9738   20.3043 N   0  0  0  0  0  0  0  0  0  0  0  0
    0.6743   51.9783   19.1286 C   0  0  0  0  0  0  0  0  0  0  0  0
    1.3910   53.3077   19.0072 C   0  0  0  0  0  0  0  0  0  0  0  0
   -0.4686   55.4085   19.7089 C   0  0  0  0  0  0  0  0  0  0  0  0
    0.1879   54.6128   20.8113 C   0  0  0  0  0  0  0  0  0  0  0  0
  9  8  1  0  0  0
 27 28  1  0  0  0
 23 25  2  0  0  0
  8 10  1  0  0  0
  8  5  2  0  0  0
 28 26  1  0  0  0
 10  7  1  0  0  0
 14 12  2  0  0  0
  3  1  2  0  0  0
  5 12  1  0  0  0
  5  6  1  0  0  0
 12 13  1  0  0  0
 26 25  1  0  0  0
 26 30  1  0  0  0
  7  1  1  0  0  0
  7  6  2  0  0  0
 25 24  2  0  0  0
 25 22  1  0  0  0
  1  2  1  0  0  0
  6 16  1  0  0  0
 30 29  1  0  0  0
 19 22  2  0  0  0
 19 20  1  0  0  0
 22 18  1  0  0  0
  2 20  1  0  0  0
 16 15  1  0  0  0
 20 21  2  0  0  0
 18 17  2  0  0  0
 21 17  1  0  0  0
 10 11  1  0  0  0
  2  4  1  0  0  0
M  END
> <minimizedAffinity>
-6.70973

$$$$
5D3J_L33_A_201


 30 31  0  0  0  0  0  0  0  0999 V2000
    3.9912   57.4252   23.5987 C   0  0  0  0  0  0  0  0  0  0  0  0
    2.7379   56.9737   23.6993 N   0  0  0  0  0  0  0  0  0  0  0  0
    4.9308   56.6517   23.4730 O   0  0  0  0  0  0  0  0  0  0  0  0
    2.0496   57.5826   24.0524 H   0  0  0  0  0  0  0  0  0  0  0  0
    4.9824   60.9824   23.0282 C   0  0  0  0  0  0  0  0  0  0  0  0
    4.7205   59.7410   22.4559 C   0  0  0  0  0  0  0  0  0  0  0  0
    4.3569   58.8805   23.6160 C   0  0  0  0  0  0  0  0  0  0  0  0
    4.7753   60.8766   24.4846 C   0  0  0  0  0  0  0  0  0  0  0  0
    4.9655   61.9711   25.5056 C   0  0  0  0  0  0  0  0  0  0  0  0
    4.4148   59.6062   24.7481 N   0  0  0  0  0  0  0  0  0  0  0  0
    4.2199   59.2557   25.6472 H   0  0  0  0  0  0  0  0  0  0  0  0
    5.4382   62.2454   22.3793 C   0  0  0  0  0  0  0  0  0  0  0  0
    4.3537   63.1615   21.8736 C   0  0  0  0  0  0  0  0  0  0  0  0
    6.6283   62.4876   22.1869 O   0  0  0  0  0  0  0  0  0  0  0  0
    6.2249   59.3863   20.5546 C   0  0  0  0  0  0  0  0  0  0  0  0
    4.7796   59.3688   20.9949 C   0  0  0  0  0  0  0  0  0  0  0  0
    1.6122   53.5364   24.1062 C   0  0  0  0  0  0  0  0  0  0  0  0
    1.5133   53.0738   22.7932 C   0  0  0  0  0  0  0  0  0  0  0  0
    2.2498   55.2372   22.0015 C   0  0  0  0  0  0  0  0  0  0  0  0
    2.3593   55.7044   23.3359 C   0  0  0  0  0  0  0  0  0  0  0  0
    2.0277   54.8372   24.3809 C   0  0  0  0  0  0  0  0  0  0  0  0
    1.8189   53.9257   21.7354 C   0  0  0  0  0  0  0  0  0  0  0  0
    2.3157   54.2515   19.3155 O   0  0  0  0  0  0  0  0  0  0  0  0
    0.2999   53.1992   19.8567 O   0  0  0  0  0  0  0  0  0  0  0  0
    1.6905   53.3533   20.2287 S   0  0  0  0  0  0  0  0  0  0  0  0
    2.3076   51.9419   20.2249 N   0  0  0  0  0  0  0  0  0  0  0  0
    1.8201   50.5232   18.3153 C   0  0  0  0  0  0  0  0  0  0  0  0
    1.5255   50.7959   19.7763 C   0  0  0  0  0  0  0  0  0  0  0  0
    3.8083   50.4516   21.4272 C   0  0  0  0  0  0  0  0  0  0  0  0
    3.6884   51.7550   20.6748 C   0  0  0  0  0  0  0  0  0  0  0  0
  9  8  1  0  0  0
 27 28  1  0  0  0
 23 25  2  0  0  0
  8 10  1  0  0  0
  8  5  2  0  0  0
 28 26  1  0  0  0
 10  7  1  0  0  0
 14 12  2  0  0  0
  3  1  2  0  0  0
  5 12  1  0  0  0
  5  6  1  0  0  0
 12 13  1  0  0  0
 26 25  1  0  0  0
 26 30  1  0  0  0
  7  1  1  0  0  0
  7  6  2  0  0  0
 25 24  2  0  0  0
 25 22  1  0  0  0
  1  2  1  0  0  0
  6 16  1  0  0  0
 30 29  1  0  0  0
 19 22  2  0  0  0
 19 20  1  0  0  0
 22 18  1  0  0  0
  2 20  1  0  0  0
 16 15  1  0  0  0
 20 21  2  0  0  0
 18 17  2  0  0  0
 21 17  1  0  0  0
 10 11  1  0  0  0
  2  4  1  0  0  0
M  END
> <minimizedAffinity>
-6.56147

$$$$
5D3J_L33_A_201


 30 31  0  0  0  0  0  0  0  0999 V2000
    5.1746   59.2986   21.2308 C   0  0  0  0  0  0  0  0  0  0  0  0
    5.4944   58.3559   22.1219 N   0  0  0  0  0  0  0  0  0  0  0  0
    4.0431   59.7614   21.1828 O   0  0  0  0  0  0  0  0  0  0  0  0
    6.3125   57.8294   21.9707 H   0  0  0  0  0  0  0  0  0  0  0  0
    7.5663   61.2435   19.1192 C   0  0  0  0  0  0  0  0  0  0  0  0
    6.7783   61.2217   20.2664 C   0  0  0  0  0  0  0  0  0  0  0  0
    6.1450   59.8738   20.2413 C   0  0  0  0  0  0  0  0  0  0  0  0
    7.4199   59.9482   18.4292 C   0  0  0  0  0  0  0  0  0  0  0  0
    8.0745   59.5361   17.1338 C   0  0  0  0  0  0  0  0  0  0  0  0
    6.5622   59.2027   19.1517 N   0  0  0  0  0  0  0  0  0  0  0  0
    6.2785   58.2902   18.9148 H   0  0  0  0  0  0  0  0  0  0  0  0
    8.4110   62.3446   18.5732 C   0  0  0  0  0  0  0  0  0  0  0  0
    9.8127   61.9680   18.1676 C   0  0  0  0  0  0  0  0  0  0  0  0
    8.0204   63.5099   18.5368 O   0  0  0  0  0  0  0  0  0  0  0  0
    5.2950   62.9984   21.0709 C   0  0  0  0  0  0  0  0  0  0  0  0
    6.6219   62.3118   21.2977 C   0  0  0  0  0  0  0  0  0  0  0  0
    3.2161   56.5332   24.2978 C   0  0  0  0  0  0  0  0  0  0  0  0
    3.1700   57.3230   25.4475 C   0  0  0  0  0  0  0  0  0  0  0  0
    4.7022   58.8802   24.4096 C   0  0  0  0  0  0  0  0  0  0  0  0
    4.7416   58.0826   23.2376 C   0  0  0  0  0  0  0  0  0  0  0  0
    3.9933   56.9024   23.2025 C   0  0  0  0  0  0  0  0  0  0  0  0
    3.9226   58.4923   25.5133 C   0  0  0  0  0  0  0  0  0  0  0  0
    2.9355   58.7797   27.7832 O   0  0  0  0  0  0  0  0  0  0  0  0
    3.3928   60.7226   26.5668 O   0  0  0  0  0  0  0  0  0  0  0  0
    3.8440   59.3793   26.8629 S   0  0  0  0  0  0  0  0  0  0  0  0
    5.2794   59.5056   27.4077 N   0  0  0  0  0  0  0  0  0  0  0  0
    6.1057   61.2552   28.8750 C   0  0  0  0  0  0  0  0  0  0  0  0
    5.9455   60.8024   27.4380 C   0  0  0  0  0  0  0  0  0  0  0  0
    7.1616   58.0155   27.0132 C   0  0  0  0  0  0  0  0  0  0  0  0
    5.9747   58.3137   27.8973 C   0  0  0  0  0  0  0  0  0  0  0  0
  9  8  1  0  0  0
 27 28  1  0  0  0
 23 25  2  0  0  0
  8 10  1  0  0  0
  8  5  2  0  0  0
 28 26  1  0  0  0
 10  7  1  0  0  0
 14 12  2  0  0  0
  3  1  2  0  0  0
  5 12  1  0  0  0
  5  6  1  0  0  0
 12 13  1  0  0  0
 26 25  1  0  0  0
 26 30  1  0  0  0
  7  1  1  0  0  0
  7  6  2  0  0  0
 25 24  2  0  0  0
 25 22  1  0  0  0
  1  2  1  0  0  0
  6 16  1  0  0  0
 30 29  1  0  0  0
 19 22  2  0  0  0
 19 20  1  0  0  0
 22 18  1  0  0  0
  2 20  1  0  0  0
 16 15  1  0  0  0
 20 21  2  0  0  0
 18 17  2  0  0  0
 21 17  1  0  0  0
 10 11  1  0  0  0
  2  4  1  0  0  0
M  END
> <minimizedAffinity>
-6.55260

$$$$
5D3J_L33_A_201


 30 31  0  0  0  0  0  0  0  0999 V2000
    5.3173   59.1766   21.1218 C   0  0  0  0  0  0  0  0  0  0  0  0
    5.7151   58.5509   22.2332 N   0  0  0  0  0  0  0  0  0  0  0  0
    4.1287   59.2916   20.8554 O   0  0  0  0  0  0  0  0  0  0  0  0
    6.6511   58.2509   22.2901 H   0  0  0  0  0  0  0  0  0  0  0  0
    7.6290   61.2156   19.0100 C   0  0  0  0  0  0  0  0  0  0  0  0
    6.8565   61.1560   20.1663 C   0  0  0  0  0  0  0  0  0  0  0  0
    6.2594   59.7920   20.1291 C   0  0  0  0  0  0  0  0  0  0  0  0
    7.5087   59.9269   18.3028 C   0  0  0  0  0  0  0  0  0  0  0  0
    8.1577   59.5514   16.9935 C   0  0  0  0  0  0  0  0  0  0  0  0
    6.6805   59.1482   19.0246 N   0  0  0  0  0  0  0  0  0  0  0  0
    6.4185   58.2319   18.7778 H   0  0  0  0  0  0  0  0  0  0  0  0
    8.4369   62.3469   18.4699 C   0  0  0  0  0  0  0  0  0  0  0  0
    9.8302   62.0068   18.0071 C   0  0  0  0  0  0  0  0  0  0  0  0
    8.0263   63.5059   18.4817 O   0  0  0  0  0  0  0  0  0  0  0  0
    5.2934   62.8035   21.0863 C   0  0  0  0  0  0  0  0  0  0  0  0
    6.6839   62.2265   21.2154 C   0  0  0  0  0  0  0  0  0  0  0  0
    3.5993   56.6430   24.4983 C   0  0  0  0  0  0  0  0  0  0  0  0
    3.2160   57.5878   25.4514 C   0  0  0  0  0  0  0  0  0  0  0  0
    4.5049   59.2620   24.2743 C   0  0  0  0  0  0  0  0  0  0  0  0
    4.8867   58.3043   23.3006 C   0  0  0  0  0  0  0  0  0  0  0  0
    4.4274   56.9908   23.4337 C   0  0  0  0  0  0  0  0  0  0  0  0
    3.6775   58.8974   25.3508 C   0  0  0  0  0  0  0  0  0  0  0  0
    4.3579   60.5572   27.0803 O   0  0  0  0  0  0  0  0  0  0  0  0
    2.4252   59.3119   27.5013 O   0  0  0  0  0  0  0  0  0  0  0  0
    3.2126   59.9622   26.4752 S   0  0  0  0  0  0  0  0  0  0  0  0
    2.2839   60.9776   25.7829 N   0  0  0  0  0  0  0  0  0  0  0  0
   -0.1352   60.8056   25.6591 C   0  0  0  0  0  0  0  0  0  0  0  0
    1.1751   60.5181   24.9548 C   0  0  0  0  0  0  0  0  0  0  0  0
    3.3147   62.9472   24.7946 C   0  0  0  0  0  0  0  0  0  0  0  0
    2.5195   62.4117   25.9609 C   0  0  0  0  0  0  0  0  0  0  0  0
  9  8  1  0  0  0
 27 28  1  0  0  0
 23 25  2  0  0  0
  8 10  1  0  0  0
  8  5  2  0  0  0
 28 26  1  0  0  0
 10  7  1  0  0  0
 14 12  2  0  0  0
  3  1  2  0  0  0
  5 12  1  0  0  0
  5  6  1  0  0  0
 12 13  1  0  0  0
 26 25  1  0  0  0
 26 30  1  0  0  0
  7  1  1  0  0  0
  7  6  2  0  0  0
 25 24  2  0  0  0
 25 22  1  0  0  0
  1  2  1  0  0  0
  6 16  1  0  0  0
 30 29  1  0  0  0
 19 22  2  0  0  0
 19 20  1  0  0  0
 22 18  1  0  0  0
  2 20  1  0  0  0
 16 15  1  0  0  0
 20 21  2  0  0  0
 18 17  2  0  0  0
 21 17  1  0  0  0
 10 11  1  0  0  0
  2  4  1  0  0  0
M  END
> <minimizedAffinity>
-6.48690

$$$$
5D3J_L33_A_201


 30 31  0  0  0  0  0  0  0  0999 V2000
    2.9922   55.1883   21.5420 C   0  0  0  0  0  0  0  0  0  0  0  0
    4.0995   55.8993   21.3110 N   0  0  0  0  0  0  0  0  0  0  0  0
    2.1977   55.5246   22.4094 O   0  0  0  0  0  0  0  0  0  0  0  0
    4.8291   55.4751   20.8041 H   0  0  0  0  0  0  0  0  0  0  0  0
    1.6399   52.4759   19.3567 C   0  0  0  0  0  0  0  0  0  0  0  0
    1.5873   53.8213   19.7095 C   0  0  0  0  0  0  0  0  0  0  0  0
    2.6195   53.9534   20.7751 C   0  0  0  0  0  0  0  0  0  0  0  0
    2.6755   51.8197   20.1765 C   0  0  0  0  0  0  0  0  0  0  0  0
    3.0604   50.3612   20.1472 C   0  0  0  0  0  0  0  0  0  0  0  0
    3.1992   52.7575   20.9886 N   0  0  0  0  0  0  0  0  0  0  0  0
    3.9099   52.5910   21.6492 H   0  0  0  0  0  0  0  0  0  0  0  0
    0.8118   51.7242   18.3701 C   0  0  0  0  0  0  0  0  0  0  0  0
   -0.5803   51.3560   18.8148 C   0  0  0  0  0  0  0  0  0  0  0  0
    1.2644   51.3480   17.2905 O   0  0  0  0  0  0  0  0  0  0  0  0
   -0.4774   55.0940   20.0577 C   0  0  0  0  0  0  0  0  0  0  0  0
    0.6972   54.8922   19.1287 C   0  0  0  0  0  0  0  0  0  0  0  0
    4.7097   59.4811   21.0977 C   0  0  0  0  0  0  0  0  0  0  0  0
    4.6137   59.9024   22.4248 C   0  0  0  0  0  0  0  0  0  0  0  0
    4.1663   57.6208   23.0910 C   0  0  0  0  0  0  0  0  0  0  0  0
    4.2732   57.1912   21.7437 C   0  0  0  0  0  0  0  0  0  0  0  0
    4.5399   58.1420   20.7543 C   0  0  0  0  0  0  0  0  0  0  0  0
    4.3288   58.9768   23.4248 C   0  0  0  0  0  0  0  0  0  0  0  0
    5.4739   60.0543   25.3579 O   0  0  0  0  0  0  0  0  0  0  0  0
    3.8754   58.4194   25.8431 O   0  0  0  0  0  0  0  0  0  0  0  0
    4.2240   59.5039   24.9497 S   0  0  0  0  0  0  0  0  0  0  0  0
    3.0600   60.5115   25.0031 N   0  0  0  0  0  0  0  0  0  0  0  0
    0.6732   60.8141   25.3326 C   0  0  0  0  0  0  0  0  0  0  0  0
    1.7435   60.1456   24.4940 C   0  0  0  0  0  0  0  0  0  0  0  0
    3.6153   62.8186   24.4667 C   0  0  0  0  0  0  0  0  0  0  0  0
    3.2816   61.8433   25.5698 C   0  0  0  0  0  0  0  0  0  0  0  0
  9  8  1  0  0  0
 27 28  1  0  0  0
 23 25  2  0  0  0
  8 10  1  0  0  0
  8  5  2  0  0  0
 28 26  1  0  0  0
 10  7  1  0  0  0
 14 12  2  0  0  0
  3  1  2  0  0  0
  5 12  1  0  0  0
  5  6  1  0  0  0
 12 13  1  0  0  0
 26 25  1  0  0  0
 26 30  1  0  0  0
  7  1  1  0  0  0
  7  6  2  0  0  0
 25 24  2  0  0  0
 25 22  1  0  0  0
  1  2  1  0  0  0
  6 16  1  0  0  0
 30 29  1  0  0  0
 19 22  2  0  0  0
 19 20  1  0  0  0
 22 18  1  0  0  0
  2 20  1  0  0  0
 16 15  1  0  0  0
 20 21  2  0  0  0
 18 17  2  0  0  0
 21 17  1  0  0  0
 10 11  1  0  0  0
  2  4  1  0  0  0
M  END
> <minimizedAffinity>
-6.40725

$$$$
5D3J_L33_A_201


 30 31  0  0  0  0  0  0  0  0999 V2000
    4.4568   57.8334   23.0308 C   0  0  0  0  0  0  0  0  0  0  0  0
    4.4436   56.6433   22.4237 N   0  0  0  0  0  0  0  0  0  0  0  0
    3.9999   58.8259   22.4803 O   0  0  0  0  0  0  0  0  0  0  0  0
    5.0356   55.9367   22.7693 H   0  0  0  0  0  0  0  0  0  0  0  0
    5.5514   58.9573   26.4220 C   0  0  0  0  0  0  0  0  0  0  0  0
    4.8312   59.2627   25.2707 C   0  0  0  0  0  0  0  0  0  0  0  0
    5.0040   58.0597   24.4095 C   0  0  0  0  0  0  0  0  0  0  0  0
    6.1326   57.6109   26.2641 C   0  0  0  0  0  0  0  0  0  0  0  0
    7.0067   56.8829   27.2551 C   0  0  0  0  0  0  0  0  0  0  0  0
    5.7677   57.1555   25.0505 N   0  0  0  0  0  0  0  0  0  0  0  0
    6.0248   56.2796   24.6819 H   0  0  0  0  0  0  0  0  0  0  0  0
    5.7904   59.7894   27.6363 C   0  0  0  0  0  0  0  0  0  0  0  0
    4.8696   59.5417   28.8032 C   0  0  0  0  0  0  0  0  0  0  0  0
    6.6307   60.6869   27.6572 O   0  0  0  0  0  0  0  0  0  0  0  0
    4.9965   61.5583   24.4300 C   0  0  0  0  0  0  0  0  0  0  0  0
    4.0476   60.5189   24.9800 C   0  0  0  0  0  0  0  0  0  0  0  0
    3.2619   56.7153   18.9819 C   0  0  0  0  0  0  0  0  0  0  0  0
    2.1666   55.8506   19.0008 C   0  0  0  0  0  0  0  0  0  0  0  0
    2.5402   55.4682   21.3595 C   0  0  0  0  0  0  0  0  0  0  0  0
    3.6474   56.3541   21.3425 C   0  0  0  0  0  0  0  0  0  0  0  0
    3.9997   56.9665   20.1363 C   0  0  0  0  0  0  0  0  0  0  0  0
    1.8093   55.2136   20.1859 C   0  0  0  0  0  0  0  0  0  0  0  0
   -0.1101   54.2831   18.8977 O   0  0  0  0  0  0  0  0  0  0  0  0
   -0.4153   54.5839   21.1955 O   0  0  0  0  0  0  0  0  0  0  0  0
    0.5354   54.2180   20.1669 S   0  0  0  0  0  0  0  0  0  0  0  0
    1.0528   52.8116   20.5238 N   0  0  0  0  0  0  0  0  0  0  0  0
    1.6513   52.0593   22.7538 C   0  0  0  0  0  0  0  0  0  0  0  0
    0.5563   52.1214   21.7084 C   0  0  0  0  0  0  0  0  0  0  0  0
    1.3787   51.1344   18.7919 C   0  0  0  0  0  0  0  0  0  0  0  0
    2.0487   52.1679   19.6650 C   0  0  0  0  0  0  0  0  0  0  0  0
  9  8  1  0  0  0
 27 28  1  0  0  0
 23 25  2  0  0  0
  8 10  1  0  0  0
  8  5  2  0  0  0
 28 26  1  0  0  0
 10  7  1  0  0  0
 14 12  2  0  0  0
  3  1  2  0  0  0
  5 12  1  0  0  0
  5  6  1  0  0  0
 12 13  1  0  0  0
 26 25  1  0  0  0
 26 30  1  0  0  0
  7  1  1  0  0  0
  7  6  2  0  0  0
 25 24  2  0  0  0
 25 22  1  0  0  0
  1  2  1  0  0  0
  6 16  1  0  0  0
 30 29  1  0  0  0
 19 22  2  0  0  0
 19 20  1  0  0  0
 22 18  1  0  0  0
  2 20  1  0  0  0
 16 15  1  0  0  0
 20 21  2  0  0  0
 18 17  2  0  0  0
 21 17  1  0  0  0
 10 11  1  0  0  0
  2  4  1  0  0  0
M  END
> <minimizedAffinity>
-6.23678

$$$$
5D3J_L33_A_201


 30 31  0  0  0  0  0  0  0  0999 V2000
    2.9717   55.1145   21.5450 C   0  0  0  0  0  0  0  0  0  0  0  0
    4.1035   55.7954   21.3441 N   0  0  0  0  0  0  0  0  0  0  0  0
    2.1563   55.4813   22.3802 O   0  0  0  0  0  0  0  0  0  0  0  0
    4.8395   55.3469   20.8681 H   0  0  0  0  0  0  0  0  0  0  0  0
    1.6192   52.4045   19.3568 C   0  0  0  0  0  0  0  0  0  0  0  0
    1.5787   53.7530   19.6994 C   0  0  0  0  0  0  0  0  0  0  0  0
    2.5952   53.8792   20.7808 C   0  0  0  0  0  0  0  0  0  0  0  0
    2.6328   51.7407   20.1978 C   0  0  0  0  0  0  0  0  0  0  0  0
    2.9989   50.2771   20.1849 C   0  0  0  0  0  0  0  0  0  0  0  0
    3.1556   52.6774   21.0118 N   0  0  0  0  0  0  0  0  0  0  0  0
    3.8533   52.5063   21.6850 H   0  0  0  0  0  0  0  0  0  0  0  0
    0.7973   51.6567   18.3622 C   0  0  0  0  0  0  0  0  0  0  0  0
   -0.5587   51.1970   18.8322 C   0  0  0  0  0  0  0  0  0  0  0  0
    1.2318   51.3540   17.2524 O   0  0  0  0  0  0  0  0  0  0  0  0
   -0.4558   55.0797   20.0228 C   0  0  0  0  0  0  0  0  0  0  0  0
    0.7122   54.8313   19.0970 C   0  0  0  0  0  0  0  0  0  0  0  0
    4.7053   59.3766   21.0992 C   0  0  0  0  0  0  0  0  0  0  0  0
    4.6613   59.8008   22.4281 C   0  0  0  0  0  0  0  0  0  0  0  0
    4.2400   57.5207   23.1162 C   0  0  0  0  0  0  0  0  0  0  0  0
    4.2942   57.0882   21.7668 C   0  0  0  0  0  0  0  0  0  0  0  0
    4.5221   58.0367   20.7657 C   0  0  0  0  0  0  0  0  0  0  0  0
    4.4156   58.8774   23.4405 C   0  0  0  0  0  0  0  0  0  0  0  0
    3.0423   59.8017   25.3030 O   0  0  0  0  0  0  0  0  0  0  0  0
    5.2536   60.5418   25.1411 O   0  0  0  0  0  0  0  0  0  0  0  0
    4.3705   59.4079   24.9672 S   0  0  0  0  0  0  0  0  0  0  0  0
    4.9220   58.2780   25.8572 N   0  0  0  0  0  0  0  0  0  0  0  0
    3.4474   56.4544   26.4871 C   0  0  0  0  0  0  0  0  0  0  0  0
    4.1159   57.7349   26.9442 C   0  0  0  0  0  0  0  0  0  0  0  0
    7.1492   58.0142   26.7999 C   0  0  0  0  0  0  0  0  0  0  0  0
    6.2640   57.7491   25.6059 C   0  0  0  0  0  0  0  0  0  0  0  0
  9  8  1  0  0  0
 27 28  1  0  0  0
 23 25  2  0  0  0
  8 10  1  0  0  0
  8  5  2  0  0  0
 28 26  1  0  0  0
 10  7  1  0  0  0
 14 12  2  0  0  0
  3  1  2  0  0  0
  5 12  1  0  0  0
  5  6  1  0  0  0
 12 13  1  0  0  0
 26 25  1  0  0  0
 26 30  1  0  0  0
  7  1  1  0  0  0
  7  6  2  0  0  0
 25 24  2  0  0  0
 25 22  1  0  0  0
  1  2  1  0  0  0
  6 16  1  0  0  0
 30 29  1  0  0  0
 19 22  2  0  0  0
 19 20  1  0  0  0
 22 18  1  0  0  0
  2 20  1  0  0  0
 16 15  1  0  0  0
 20 21  2  0  0  0
 18 17  2  0  0  0
 21 17  1  0  0  0
 10 11  1  0  0  0
  2  4  1  0  0  0
M  END
> <minimizedAffinity>
-6.22804

$$$$
