1S5Z_SON_A_1160


 32 34  0  0  0  0  0  0  0  0999 V2000
    0.2029  -18.9605    5.8254 C   0  0  0  0  0  0  0  0  0  0  0  0
    0.0401  -18.0453    6.9393 O   0  0  0  0  0  0  0  0  0  0  0  0
   -1.0868  -18.4291    7.7125 C   0  0  0  0  0  0  0  0  0  0  0  0
   -1.7254  -19.6418    7.0301 C   0  0  0  0  0  0  0  0  0  0  0  0
   -1.3168  -20.8260    7.6833 O   0  0  0  0  0  0  0  0  0  0  0  0
   -1.1970  -19.5084    5.6037 C   0  0  0  0  0  0  0  0  0  0  0  0
   -1.1491  -20.7561    4.9181 O   0  0  0  0  0  0  0  0  0  0  0  0
   -0.3478  -20.8667    7.7026 H   0  0  0  0  0  0  0  0  0  0  0  0
   -0.5961  -21.3779    5.4165 H   0  0  0  0  0  0  0  0  0  0  0  0
   -1.9934  -17.2847    7.8089 N   0  0  0  0  0  0  0  0  0  0  0  0
   -3.2799  -17.3064    8.2888 C   0  0  0  0  0  0  0  0  0  0  0  0
   -3.9526  -18.3654    8.7690 N   0  0  0  0  0  0  0  0  0  0  0  0
   -5.1803  -18.0071    9.1465 C   0  0  0  0  0  0  0  0  0  0  0  0
   -5.7649  -16.7996    9.1006 N   0  0  0  0  0  0  0  0  0  0  0  0
   -5.0567  -15.7579    8.6114 C   0  0  0  0  0  0  0  0  0  0  0  0
   -5.6357  -14.5557    8.5624 N   0  0  0  0  0  0  0  0  0  0  0  0
   -3.7446  -16.0065    8.1787 C   0  0  0  0  0  0  0  0  0  0  0  0
   -2.7689  -15.1809    7.6405 N   0  0  0  0  0  0  0  0  0  0  0  0
   -1.7528  -15.9844    7.4406 C   0  0  0  0  0  0  0  0  0  0  0  0
   -6.5603  -14.4413    8.8807 H   0  0  0  0  0  0  0  0  0  0  0  0
   -5.1380  -13.7837    8.2081 H   0  0  0  0  0  0  0  0  0  0  0  0
    0.7943  -18.2362    4.6381 C   0  0  0  0  0  0  0  0  0  0  0  0
    2.1759  -17.9556    4.8703 O   0  0  0  0  0  0  0  0  0  0  0  0
    2.8769  -19.1678    5.1677 C   0  0  0  0  0  0  0  0  0  0  0  0
    3.3721  -19.3969    6.2711 O   0  0  0  0  0  0  0  0  0  0  0  0
    3.4007  -19.9061    3.9554 C   0  0  0  0  0  0  0  0  0  0  0  0
    4.7007  -19.2933    2.9921 P   0  0  0  0  0  0  0  0  0  0  0  0
    5.9754  -19.3404    3.7499 O   0  0  0  0  0  0  0  0  0  0  0  0
    4.4136  -17.9129    2.5305 O   0  0  0  0  0  0  0  0  0  0  0  0
    4.9422  -20.1531    1.6720 O   0  0  0  0  0  0  0  0  0  0  0  0
    5.1544  -17.5908    1.9936 H   0  0  0  0  0  0  0  0  0  0  0  0
    5.6778  -19.7716    1.1677 H   0  0  0  0  0  0  0  0  0  0  0  0
 27 28  2  0  0  0
 27 29  1  0  0  0
 27 30  1  0  0  0
 27 26  1  0  0  0
 26 24  1  0  0  0
 24 25  2  0  0  0
 24 23  1  0  0  0
 23 22  1  0  0  0
 22  1  1  0  0  0
  1  2  1  0  0  0
  1  6  1  0  0  0
  2  3  1  0  0  0
  3 10  1  0  0  0
  3  4  1  0  0  0
 10 11  1  0  0  0
 10 19  1  0  0  0
 11 12  2  0  0  0
 11 17  1  0  0  0
 12 13  1  0  0  0
 13 14  2  0  0  0
 14 15  1  0  0  0
 15 16  1  0  0  0
 15 17  2  0  0  0
 17 18  1  0  0  0
 18 19  2  0  0  0
  4  5  1  0  0  0
  4  6  1  0  0  0
  6  7  1  0  0  0
 29 31  1  0  0  0
 30 32  1  0  0  0
 16 20  1  0  0  0
 16 21  1  0  0  0
  5  8  1  0  0  0
  7  9  1  0  0  0
M  END
> <minimizedAffinity>
-9.85822

$$$$
1S5Z_SON_A_1160


 32 34  0  0  0  0  0  0  0  0999 V2000
   -0.1054  -19.1558    6.0902 C   0  0  0  0  0  0  0  0  0  0  0  0
   -0.3973  -18.2144    7.1548 O   0  0  0  0  0  0  0  0  0  0  0  0
   -1.1487  -18.8601    8.1712 C   0  0  0  0  0  0  0  0  0  0  0  0
   -1.4029  -20.2996    7.7157 C   0  0  0  0  0  0  0  0  0  0  0  0
   -0.4782  -21.1669    8.3391 O   0  0  0  0  0  0  0  0  0  0  0  0
   -1.2194  -20.1830    6.2042 C   0  0  0  0  0  0  0  0  0  0  0  0
   -0.8346  -21.4153    5.6022 O   0  0  0  0  0  0  0  0  0  0  0  0
    0.4246  -20.8633    8.1552 H   0  0  0  0  0  0  0  0  0  0  0  0
   -0.0130  -21.7315    6.0095 H   0  0  0  0  0  0  0  0  0  0  0  0
   -2.3820  -18.1031    8.3869 N   0  0  0  0  0  0  0  0  0  0  0  0
   -2.6171  -16.8067    7.9998 C   0  0  0  0  0  0  0  0  0  0  0  0
   -1.7778  -15.9869    7.3455 N   0  0  0  0  0  0  0  0  0  0  0  0
   -2.3507  -14.8010    7.1371 C   0  0  0  0  0  0  0  0  0  0  0  0
   -3.5762  -14.3767    7.4839 N   0  0  0  0  0  0  0  0  0  0  0  0
   -4.3925  -15.2297    8.1409 C   0  0  0  0  0  0  0  0  0  0  0  0
   -5.6114  -14.8104    8.4892 N   0  0  0  0  0  0  0  0  0  0  0  0
   -3.9036  -16.5154    8.4215 C   0  0  0  0  0  0  0  0  0  0  0  0
   -4.4691  -17.6081    9.0613 N   0  0  0  0  0  0  0  0  0  0  0  0
   -3.5298  -18.5210    9.0135 C   0  0  0  0  0  0  0  0  0  0  0  0
   -5.9002  -13.8962    8.2653 H   0  0  0  0  0  0  0  0  0  0  0  0
   -6.2214  -15.4154    8.9699 H   0  0  0  0  0  0  0  0  0  0  0  0
   -0.0409  -18.4371    4.7623 C   0  0  0  0  0  0  0  0  0  0  0  0
    0.8854  -19.0908    3.8927 O   0  0  0  0  0  0  0  0  0  0  0  0
    2.2056  -18.5846    4.1167 C   0  0  0  0  0  0  0  0  0  0  0  0
    2.4747  -17.3842    4.0729 O   0  0  0  0  0  0  0  0  0  0  0  0
    3.3113  -19.5973    3.9135 C   0  0  0  0  0  0  0  0  0  0  0  0
    4.7273  -19.2438    2.9842 P   0  0  0  0  0  0  0  0  0  0  0  0
    5.9455  -19.3906    3.8182 O   0  0  0  0  0  0  0  0  0  0  0  0
    4.6511  -17.8827    2.3988 O   0  0  0  0  0  0  0  0  0  0  0  0
    4.9151  -20.2382    1.7529 O   0  0  0  0  0  0  0  0  0  0  0  0
    5.4538  -17.7070    1.8834 H   0  0  0  0  0  0  0  0  0  0  0  0
    5.7189  -20.0003    1.2649 H   0  0  0  0  0  0  0  0  0  0  0  0
 27 28  2  0  0  0
 27 29  1  0  0  0
 27 30  1  0  0  0
 27 26  1  0  0  0
 26 24  1  0  0  0
 24 25  2  0  0  0
 24 23  1  0  0  0
 23 22  1  0  0  0
 22  1  1  0  0  0
  1  2  1  0  0  0
  1  6  1  0  0  0
  2  3  1  0  0  0
  3 10  1  0  0  0
  3  4  1  0  0  0
 10 11  1  0  0  0
 10 19  1  0  0  0
 11 12  2  0  0  0
 11 17  1  0  0  0
 12 13  1  0  0  0
 13 14  2  0  0  0
 14 15  1  0  0  0
 15 16  1  0  0  0
 15 17  2  0  0  0
 17 18  1  0  0  0
 18 19  2  0  0  0
  4  5  1  0  0  0
  4  6  1  0  0  0
  6  7  1  0  0  0
 29 31  1  0  0  0
 30 32  1  0  0  0
 16 20  1  0  0  0
 16 21  1  0  0  0
  5  8  1  0  0  0
  7  9  1  0  0  0
M  END
> <minimizedAffinity>
-9.57230

$$$$
1S5Z_SON_A_1160


 32 34  0  0  0  0  0  0  0  0999 V2000
    0.3278  -19.0181    5.5184 C   0  0  0  0  0  0  0  0  0  0  0  0
    0.2827  -18.0815    6.6254 O   0  0  0  0  0  0  0  0  0  0  0  0
   -0.7503  -18.4539    7.5249 C   0  0  0  0  0  0  0  0  0  0  0  0
   -1.4528  -19.6823    6.9404 C   0  0  0  0  0  0  0  0  0  0  0  0
   -0.9680  -20.8517    7.5677 O   0  0  0  0  0  0  0  0  0  0  0  0
   -1.0847  -19.5755    5.4623 C   0  0  0  0  0  0  0  0  0  0  0  0
   -1.1049  -20.8364    4.8000 O   0  0  0  0  0  0  0  0  0  0  0  0
   -0.0026  -20.8884    7.4814 H   0  0  0  0  0  0  0  0  0  0  0  0
   -0.4970  -21.4461    5.2467 H   0  0  0  0  0  0  0  0  0  0  0  0
   -1.6476  -17.3112    7.6979 N   0  0  0  0  0  0  0  0  0  0  0  0
   -2.9257  -17.3511    8.1985 C   0  0  0  0  0  0  0  0  0  0  0  0
   -3.5969  -18.4304    8.6336 N   0  0  0  0  0  0  0  0  0  0  0  0
   -4.8155  -18.0857    9.0512 C   0  0  0  0  0  0  0  0  0  0  0  0
   -5.3929  -16.8742    9.0798 N   0  0  0  0  0  0  0  0  0  0  0  0
   -4.6864  -15.8120    8.6342 C   0  0  0  0  0  0  0  0  0  0  0  0
   -5.2583  -14.6056    8.6594 N   0  0  0  0  0  0  0  0  0  0  0  0
   -3.3837  -16.0446    8.1658 C   0  0  0  0  0  0  0  0  0  0  0  0
   -2.4120  -15.1970    7.6551 N   0  0  0  0  0  0  0  0  0  0  0  0
   -1.4048  -15.9944    7.3950 C   0  0  0  0  0  0  0  0  0  0  0  0
   -6.1764  -14.5031    8.9995 H   0  0  0  0  0  0  0  0  0  0  0  0
   -4.7617  -13.8187    8.3378 H   0  0  0  0  0  0  0  0  0  0  0  0
    0.7813  -18.3155    4.2595 C   0  0  0  0  0  0  0  0  0  0  0  0
    2.1190  -18.6991    3.9357 O   0  0  0  0  0  0  0  0  0  0  0  0
    2.1161  -19.9683    3.2736 C   0  0  0  0  0  0  0  0  0  0  0  0
    1.1184  -20.4265    2.7169 O   0  0  0  0  0  0  0  0  0  0  0  0
    3.2145  -20.9110    3.7141 C   0  0  0  0  0  0  0  0  0  0  0  0
    4.4634  -20.4256    4.8088 P   0  0  0  0  0  0  0  0  0  0  0  0
    5.4011  -21.5483    5.0572 O   0  0  0  0  0  0  0  0  0  0  0  0
    3.8881  -19.9287    6.0828 O   0  0  0  0  0  0  0  0  0  0  0  0
    5.3496  -19.2315    4.2354 O   0  0  0  0  0  0  0  0  0  0  0  0
    4.6052  -19.6629    6.6794 H   0  0  0  0  0  0  0  0  0  0  0  0
    6.0328  -18.9963    4.8825 H   0  0  0  0  0  0  0  0  0  0  0  0
 27 28  2  0  0  0
 27 29  1  0  0  0
 27 30  1  0  0  0
 27 26  1  0  0  0
 26 24  1  0  0  0
 24 25  2  0  0  0
 24 23  1  0  0  0
 23 22  1  0  0  0
 22  1  1  0  0  0
  1  2  1  0  0  0
  1  6  1  0  0  0
  2  3  1  0  0  0
  3 10  1  0  0  0
  3  4  1  0  0  0
 10 11  1  0  0  0
 10 19  1  0  0  0
 11 12  2  0  0  0
 11 17  1  0  0  0
 12 13  1  0  0  0
 13 14  2  0  0  0
 14 15  1  0  0  0
 15 16  1  0  0  0
 15 17  2  0  0  0
 17 18  1  0  0  0
 18 19  2  0  0  0
  4  5  1  0  0  0
  4  6  1  0  0  0
  6  7  1  0  0  0
 29 31  1  0  0  0
 30 32  1  0  0  0
 16 20  1  0  0  0
 16 21  1  0  0  0
  5  8  1  0  0  0
  7  9  1  0  0  0
M  END
> <minimizedAffinity>
-9.34939

$$$$
1S5Z_SON_A_1160


 32 34  0  0  0  0  0  0  0  0999 V2000
    1.0955  -18.9106    5.8860 C   0  0  0  0  0  0  0  0  0  0  0  0
    2.2126  -19.7303    5.4560 O   0  0  0  0  0  0  0  0  0  0  0  0
    2.3325  -19.6717    4.0428 C   0  0  0  0  0  0  0  0  0  0  0  0
    1.1910  -18.7973    3.5171 C   0  0  0  0  0  0  0  0  0  0  0  0
    1.6697  -17.4935    3.2587 O   0  0  0  0  0  0  0  0  0  0  0  0
    0.1890  -18.8715    4.6670 C   0  0  0  0  0  0  0  0  0  0  0  0
   -0.6748  -17.7400    4.7152 O   0  0  0  0  0  0  0  0  0  0  0  0
    2.0845  -17.1367    4.0596 H   0  0  0  0  0  0  0  0  0  0  0  0
   -0.1446  -16.9315    4.7931 H   0  0  0  0  0  0  0  0  0  0  0  0
    2.2944  -21.0370    3.5180 N   0  0  0  0  0  0  0  0  0  0  0  0
    2.4459  -21.4062    2.2041 C   0  0  0  0  0  0  0  0  0  0  0  0
    2.6665  -20.6008    1.1518 N   0  0  0  0  0  0  0  0  0  0  0  0
    2.7623  -21.3143    0.0293 C   0  0  0  0  0  0  0  0  0  0  0  0
    2.6694  -22.6422   -0.1440 N   0  0  0  0  0  0  0  0  0  0  0  0
    2.4473  -23.4202    0.9383 C   0  0  0  0  0  0  0  0  0  0  0  0
    2.3523  -24.7414    0.7693 N   0  0  0  0  0  0  0  0  0  0  0  0
    2.3269  -22.7858    2.1846 C   0  0  0  0  0  0  0  0  0  0  0  0
    2.1056  -23.2768    3.4626 N   0  0  0  0  0  0  0  0  0  0  0  0
    2.0962  -22.2033    4.2145 C   0  0  0  0  0  0  0  0  0  0  0  0
    2.4454  -25.1306   -0.1302 H   0  0  0  0  0  0  0  0  0  0  0  0
    2.1892  -25.3262    1.5443 H   0  0  0  0  0  0  0  0  0  0  0  0
    0.4635  -19.5001    7.1258 C   0  0  0  0  0  0  0  0  0  0  0  0
   -0.1508  -18.4704    7.9029 O   0  0  0  0  0  0  0  0  0  0  0  0
   -1.5062  -18.8245    8.1979 C   0  0  0  0  0  0  0  0  0  0  0  0
   -1.8581  -19.9827    8.4213 O   0  0  0  0  0  0  0  0  0  0  0  0
   -2.5353  -17.8157    7.7370 C   0  0  0  0  0  0  0  0  0  0  0  0
   -2.1587  -16.1390    7.5361 P   0  0  0  0  0  0  0  0  0  0  0  0
   -2.0785  -15.7940    6.0953 O   0  0  0  0  0  0  0  0  0  0  0  0
   -0.8948  -15.7925    8.2314 O   0  0  0  0  0  0  0  0  0  0  0  0
   -3.2734  -15.1830    8.1555 O   0  0  0  0  0  0  0  0  0  0  0  0
   -0.7043  -14.8498    8.1052 H   0  0  0  0  0  0  0  0  0  0  0  0
   -3.0180  -14.2573    8.0184 H   0  0  0  0  0  0  0  0  0  0  0  0
 27 28  2  0  0  0
 27 29  1  0  0  0
 27 30  1  0  0  0
 27 26  1  0  0  0
 26 24  1  0  0  0
 24 25  2  0  0  0
 24 23  1  0  0  0
 23 22  1  0  0  0
 22  1  1  0  0  0
  1  2  1  0  0  0
  1  6  1  0  0  0
  2  3  1  0  0  0
  3 10  1  0  0  0
  3  4  1  0  0  0
 10 11  1  0  0  0
 10 19  1  0  0  0
 11 12  2  0  0  0
 11 17  1  0  0  0
 12 13  1  0  0  0
 13 14  2  0  0  0
 14 15  1  0  0  0
 15 16  1  0  0  0
 15 17  2  0  0  0
 17 18  1  0  0  0
 18 19  2  0  0  0
  4  5  1  0  0  0
  4  6  1  0  0  0
  6  7  1  0  0  0
 29 31  1  0  0  0
 30 32  1  0  0  0
 16 20  1  0  0  0
 16 21  1  0  0  0
  5  8  1  0  0  0
  7  9  1  0  0  0
M  END
> <minimizedAffinity>
-9.05080

$$$$
1S5Z_SON_A_1160


 32 34  0  0  0  0  0  0  0  0999 V2000
    1.9005  -20.9229    4.8221 C   0  0  0  0  0  0  0  0  0  0  0  0
    0.4744  -20.6651    4.8911 O   0  0  0  0  0  0  0  0  0  0  0  0
    0.2497  -19.3425    5.3550 C   0  0  0  0  0  0  0  0  0  0  0  0
    1.6154  -18.7177    5.6526 C   0  0  0  0  0  0  0  0  0  0  0  0
    2.0083  -17.8951    4.5733 O   0  0  0  0  0  0  0  0  0  0  0  0
    2.4893  -19.9564    5.8361 C   0  0  0  0  0  0  0  0  0  0  0  0
    3.8630  -19.7043    5.5562 O   0  0  0  0  0  0  0  0  0  0  0  0
    1.9968  -18.4115    3.7523 H   0  0  0  0  0  0  0  0  0  0  0  0
    3.9523  -19.3706    4.6498 H   0  0  0  0  0  0  0  0  0  0  0  0
   -0.6180  -19.4058    6.5314 N   0  0  0  0  0  0  0  0  0  0  0  0
   -1.3771  -18.3789    7.0365 C   0  0  0  0  0  0  0  0  0  0  0  0
   -1.4825  -17.1298    6.5535 N   0  0  0  0  0  0  0  0  0  0  0  0
   -2.3144  -16.4072    7.3044 C   0  0  0  0  0  0  0  0  0  0  0  0
   -3.0002  -16.7678    8.4006 N   0  0  0  0  0  0  0  0  0  0  0  0
   -2.8691  -18.0330    8.8567 C   0  0  0  0  0  0  0  0  0  0  0  0
   -3.5482  -18.3947    9.9480 N   0  0  0  0  0  0  0  0  0  0  0  0
   -2.0175  -18.8966    8.1499 C   0  0  0  0  0  0  0  0  0  0  0  0
   -1.6693  -20.2251    8.3423 N   0  0  0  0  0  0  0  0  0  0  0  0
   -0.8411  -20.4785    7.3585 C   0  0  0  0  0  0  0  0  0  0  0  0
   -4.1314  -17.7448   10.4027 H   0  0  0  0  0  0  0  0  0  0  0  0
   -3.4656  -19.3112   10.2979 H   0  0  0  0  0  0  0  0  0  0  0  0
    2.1804  -22.3815    5.1016 C   0  0  0  0  0  0  0  0  0  0  0  0
    2.4306  -23.0782    3.8795 O   0  0  0  0  0  0  0  0  0  0  0  0
    3.7335  -22.7475    3.3871 C   0  0  0  0  0  0  0  0  0  0  0  0
    4.6522  -22.3885    4.1236 O   0  0  0  0  0  0  0  0  0  0  0  0
    3.7785  -22.3836    1.9192 C   0  0  0  0  0  0  0  0  0  0  0  0
    3.8969  -20.7446    1.3778 P   0  0  0  0  0  0  0  0  0  0  0  0
    2.6131  -20.0327    1.5932 O   0  0  0  0  0  0  0  0  0  0  0  0
    4.2987  -20.6852   -0.0490 O   0  0  0  0  0  0  0  0  0  0  0  0
    4.9989  -19.9147    2.1761 O   0  0  0  0  0  0  0  0  0  0  0  0
    4.3586  -19.7587   -0.3298 H   0  0  0  0  0  0  0  0  0  0  0  0
    5.0273  -19.0060    1.8377 H   0  0  0  0  0  0  0  0  0  0  0  0
 27 28  2  0  0  0
 27 29  1  0  0  0
 27 30  1  0  0  0
 27 26  1  0  0  0
 26 24  1  0  0  0
 24 25  2  0  0  0
 24 23  1  0  0  0
 23 22  1  0  0  0
 22  1  1  0  0  0
  1  2  1  0  0  0
  1  6  1  0  0  0
  2  3  1  0  0  0
  3 10  1  0  0  0
  3  4  1  0  0  0
 10 11  1  0  0  0
 10 19  1  0  0  0
 11 12  2  0  0  0
 11 17  1  0  0  0
 12 13  1  0  0  0
 13 14  2  0  0  0
 14 15  1  0  0  0
 15 16  1  0  0  0
 15 17  2  0  0  0
 17 18  1  0  0  0
 18 19  2  0  0  0
  4  5  1  0  0  0
  4  6  1  0  0  0
  6  7  1  0  0  0
 29 31  1  0  0  0
 30 32  1  0  0  0
 16 20  1  0  0  0
 16 21  1  0  0  0
  5  8  1  0  0  0
  7  9  1  0  0  0
M  END
> <minimizedAffinity>
-8.70200

$$$$
1S5Z_SON_A_1160


 32 34  0  0  0  0  0  0  0  0999 V2000
    2.2477  -19.3779    5.4455 C   0  0  0  0  0  0  0  0  0  0  0  0
    2.7556  -20.7002    5.1318 O   0  0  0  0  0  0  0  0  0  0  0  0
    3.4621  -20.6613    3.9013 C   0  0  0  0  0  0  0  0  0  0  0  0
    3.3656  -19.2337    3.3567 C   0  0  0  0  0  0  0  0  0  0  0  0
    4.5529  -18.5286    3.6551 O   0  0  0  0  0  0  0  0  0  0  0  0
    2.1328  -18.7062    4.0874 C   0  0  0  0  0  0  0  0  0  0  0  0
    2.1406  -17.2882    4.2222 O   0  0  0  0  0  0  0  0  0  0  0  0
    4.7168  -18.5612    4.6106 H   0  0  0  0  0  0  0  0  0  0  0  0
    2.9436  -17.0124    4.6912 H   0  0  0  0  0  0  0  0  0  0  0  0
    2.8791  -21.6567    3.0012 N   0  0  0  0  0  0  0  0  0  0  0  0
    2.9723  -23.0207    3.1295 C   0  0  0  0  0  0  0  0  0  0  0  0
    3.6000  -23.7068    4.0989 N   0  0  0  0  0  0  0  0  0  0  0  0
    3.4779  -25.0192    3.8966 C   0  0  0  0  0  0  0  0  0  0  0  0
    2.8458  -25.6714    2.9081 N   0  0  0  0  0  0  0  0  0  0  0  0
    2.2253  -24.9473    1.9508 C   0  0  0  0  0  0  0  0  0  0  0  0
    1.5972  -25.5926    0.9649 N   0  0  0  0  0  0  0  0  0  0  0  0
    2.2814  -23.5482    2.0514 C   0  0  0  0  0  0  0  0  0  0  0  0
    1.7617  -22.5356    1.2591 N   0  0  0  0  0  0  0  0  0  0  0  0
    2.1418  -21.4368    1.8642 C   0  0  0  0  0  0  0  0  0  0  0  0
    1.5912  -26.5769    0.9464 H   0  0  0  0  0  0  0  0  0  0  0  0
    1.1402  -25.0842    0.2565 H   0  0  0  0  0  0  0  0  0  0  0  0
    0.9483  -19.4867    6.2096 C   0  0  0  0  0  0  0  0  0  0  0  0
    0.5158  -18.1924    6.6330 O   0  0  0  0  0  0  0  0  0  0  0  0
   -0.8105  -17.9409    6.1567 C   0  0  0  0  0  0  0  0  0  0  0  0
   -1.0607  -17.7122    4.9734 O   0  0  0  0  0  0  0  0  0  0  0  0
   -1.7852  -17.4831    7.2195 C   0  0  0  0  0  0  0  0  0  0  0  0
   -2.1470  -15.8116    7.4816 P   0  0  0  0  0  0  0  0  0  0  0  0
   -3.4530  -15.6649    8.1702 O   0  0  0  0  0  0  0  0  0  0  0  0
   -2.1394  -15.0606    6.2022 O   0  0  0  0  0  0  0  0  0  0  0  0
   -1.0744  -15.0925    8.4158 O   0  0  0  0  0  0  0  0  0  0  0  0
   -2.3443  -14.1280    6.3734 H   0  0  0  0  0  0  0  0  0  0  0  0
   -1.3199  -14.1614    8.5324 H   0  0  0  0  0  0  0  0  0  0  0  0
 27 28  2  0  0  0
 27 29  1  0  0  0
 27 30  1  0  0  0
 27 26  1  0  0  0
 26 24  1  0  0  0
 24 25  2  0  0  0
 24 23  1  0  0  0
 23 22  1  0  0  0
 22  1  1  0  0  0
  1  2  1  0  0  0
  1  6  1  0  0  0
  2  3  1  0  0  0
  3 10  1  0  0  0
  3  4  1  0  0  0
 10 11  1  0  0  0
 10 19  1  0  0  0
 11 12  2  0  0  0
 11 17  1  0  0  0
 12 13  1  0  0  0
 13 14  2  0  0  0
 14 15  1  0  0  0
 15 16  1  0  0  0
 15 17  2  0  0  0
 17 18  1  0  0  0
 18 19  2  0  0  0
  4  5  1  0  0  0
  4  6  1  0  0  0
  6  7  1  0  0  0
 29 31  1  0  0  0
 30 32  1  0  0  0
 16 20  1  0  0  0
 16 21  1  0  0  0
  5  8  1  0  0  0
  7  9  1  0  0  0
M  END
> <minimizedAffinity>
-8.59023

$$$$
1S5Z_SON_A_1160


 32 34  0  0  0  0  0  0  0  0999 V2000
    1.8063  -20.3522    3.4813 C   0  0  0  0  0  0  0  0  0  0  0  0
    0.4001  -20.2806    3.8314 O   0  0  0  0  0  0  0  0  0  0  0  0
    0.1190  -19.0227    4.4259 C   0  0  0  0  0  0  0  0  0  0  0  0
    1.4358  -18.2463    4.5118 C   0  0  0  0  0  0  0  0  0  0  0  0
    1.5171  -17.3263    3.4427 O   0  0  0  0  0  0  0  0  0  0  0  0
    2.4646  -19.3724    4.4382 C   0  0  0  0  0  0  0  0  0  0  0  0
    3.7208  -18.9347    3.9290 O   0  0  0  0  0  0  0  0  0  0  0  0
    1.4072  -17.7972    2.6019 H   0  0  0  0  0  0  0  0  0  0  0  0
    3.5954  -18.5462    3.0490 H   0  0  0  0  0  0  0  0  0  0  0  0
   -0.4933  -19.2555    5.7342 N   0  0  0  0  0  0  0  0  0  0  0  0
   -1.1893  -18.3361    6.4799 C   0  0  0  0  0  0  0  0  0  0  0  0
   -1.4535  -17.0587    6.1589 N   0  0  0  0  0  0  0  0  0  0  0  0
   -2.1561  -16.4694    7.1269 C   0  0  0  0  0  0  0  0  0  0  0  0
   -2.5908  -16.9771    8.2910 N   0  0  0  0  0  0  0  0  0  0  0  0
   -2.3060  -18.2662    8.5792 C   0  0  0  0  0  0  0  0  0  0  0  0
   -2.7350  -18.7741    9.7372 N   0  0  0  0  0  0  0  0  0  0  0  0
   -1.5679  -18.9982    7.6359 C   0  0  0  0  0  0  0  0  0  0  0  0
   -1.1197  -20.3105    7.6184 N   0  0  0  0  0  0  0  0  0  0  0  0
   -0.4914  -20.4127    6.4727 C   0  0  0  0  0  0  0  0  0  0  0  0
   -3.2493  -18.2120   10.3608 H   0  0  0  0  0  0  0  0  0  0  0  0
   -2.5370  -19.7105    9.9675 H   0  0  0  0  0  0  0  0  0  0  0  0
    2.2997  -21.7761    3.5951 C   0  0  0  0  0  0  0  0  0  0  0  0
    3.6715  -21.8550    3.2033 O   0  0  0  0  0  0  0  0  0  0  0  0
    3.7818  -22.5297    1.9454 C   0  0  0  0  0  0  0  0  0  0  0  0
    3.5862  -21.9665    0.8685 O   0  0  0  0  0  0  0  0  0  0  0  0
    3.6556  -24.0353    2.0251 C   0  0  0  0  0  0  0  0  0  0  0  0
    2.2814  -24.8807    1.4002 P   0  0  0  0  0  0  0  0  0  0  0  0
    1.5977  -25.6314    2.4820 O   0  0  0  0  0  0  0  0  0  0  0  0
    2.6754  -25.7902    0.2963 O   0  0  0  0  0  0  0  0  0  0  0  0
    1.1861  -23.8989    0.7864 O   0  0  0  0  0  0  0  0  0  0  0  0
    1.8906  -26.2523   -0.0376 H   0  0  0  0  0  0  0  0  0  0  0  0
    0.4386  -24.4179    0.4506 H   0  0  0  0  0  0  0  0  0  0  0  0
 27 28  2  0  0  0
 27 29  1  0  0  0
 27 30  1  0  0  0
 27 26  1  0  0  0
 26 24  1  0  0  0
 24 25  2  0  0  0
 24 23  1  0  0  0
 23 22  1  0  0  0
 22  1  1  0  0  0
  1  2  1  0  0  0
  1  6  1  0  0  0
  2  3  1  0  0  0
  3 10  1  0  0  0
  3  4  1  0  0  0
 10 11  1  0  0  0
 10 19  1  0  0  0
 11 12  2  0  0  0
 11 17  1  0  0  0
 12 13  1  0  0  0
 13 14  2  0  0  0
 14 15  1  0  0  0
 15 16  1  0  0  0
 15 17  2  0  0  0
 17 18  1  0  0  0
 18 19  2  0  0  0
  4  5  1  0  0  0
  4  6  1  0  0  0
  6  7  1  0  0  0
 29 31  1  0  0  0
 30 32  1  0  0  0
 16 20  1  0  0  0
 16 21  1  0  0  0
  5  8  1  0  0  0
  7  9  1  0  0  0
M  END
> <minimizedAffinity>
-8.30065

$$$$
1S5Z_SON_A_1160


 32 34  0  0  0  0  0  0  0  0999 V2000
    2.6851  -20.5092    0.9399 C   0  0  0  0  0  0  0  0  0  0  0  0
    1.6174  -19.9920    1.7751 O   0  0  0  0  0  0  0  0  0  0  0  0
    2.1698  -19.3536    2.9161 C   0  0  0  0  0  0  0  0  0  0  0  0
    3.6912  -19.5081    2.8423 C   0  0  0  0  0  0  0  0  0  0  0  0
    4.2667  -18.3210    2.3368 O   0  0  0  0  0  0  0  0  0  0  0  0
    3.8356  -20.7103    1.9119 C   0  0  0  0  0  0  0  0  0  0  0  0
    5.0827  -20.7240    1.2237 O   0  0  0  0  0  0  0  0  0  0  0  0
    3.8641  -18.1055    1.4810 H   0  0  0  0  0  0  0  0  0  0  0  0
    5.1814  -19.9028    0.7171 H   0  0  0  0  0  0  0  0  0  0  0  0
    1.5911  -19.9637    4.1135 N   0  0  0  0  0  0  0  0  0  0  0  0
    0.5415  -19.4711    4.8493 C   0  0  0  0  0  0  0  0  0  0  0  0
   -0.1623  -18.3509    4.6160 N   0  0  0  0  0  0  0  0  0  0  0  0
   -1.1100  -18.1934    5.5407 C   0  0  0  0  0  0  0  0  0  0  0  0
   -1.4091  -18.9725    6.5922 N   0  0  0  0  0  0  0  0  0  0  0  0
   -0.6793  -20.0915    6.7945 C   0  0  0  0  0  0  0  0  0  0  0  0
   -0.9727  -20.8678    7.8406 N   0  0  0  0  0  0  0  0  0  0  0  0
    0.3534  -20.3705    5.8855 C   0  0  0  0  0  0  0  0  0  0  0  0
    1.2666  -21.4109    5.8035 N   0  0  0  0  0  0  0  0  0  0  0  0
    1.9747  -21.1243    4.7383 C   0  0  0  0  0  0  0  0  0  0  0  0
   -1.7094  -20.6212    8.4453 H   0  0  0  0  0  0  0  0  0  0  0  0
   -0.4523  -21.6867    8.0071 H   0  0  0  0  0  0  0  0  0  0  0  0
    2.2301  -21.7633    0.2297 C   0  0  0  0  0  0  0  0  0  0  0  0
    3.0248  -22.8776    0.6399 O   0  0  0  0  0  0  0  0  0  0  0  0
    2.1906  -23.8822    1.2268 C   0  0  0  0  0  0  0  0  0  0  0  0
    1.0433  -24.1042    0.8399 O   0  0  0  0  0  0  0  0  0  0  0  0
    2.5908  -24.2944    2.6265 C   0  0  0  0  0  0  0  0  0  0  0  0
    4.2458  -24.4738    3.0981 P   0  0  0  0  0  0  0  0  0  0  0  0
    4.4560  -25.7811    3.7675 O   0  0  0  0  0  0  0  0  0  0  0  0
    4.6703  -23.3575    3.9782 O   0  0  0  0  0  0  0  0  0  0  0  0
    5.2423  -24.4517    1.8544 O   0  0  0  0  0  0  0  0  0  0  0  0
    5.5993  -23.4791    4.2294 H   0  0  0  0  0  0  0  0  0  0  0  0
    6.1541  -24.5552    2.1688 H   0  0  0  0  0  0  0  0  0  0  0  0
 27 28  2  0  0  0
 27 29  1  0  0  0
 27 30  1  0  0  0
 27 26  1  0  0  0
 26 24  1  0  0  0
 24 25  2  0  0  0
 24 23  1  0  0  0
 23 22  1  0  0  0
 22  1  1  0  0  0
  1  2  1  0  0  0
  1  6  1  0  0  0
  2  3  1  0  0  0
  3 10  1  0  0  0
  3  4  1  0  0  0
 10 11  1  0  0  0
 10 19  1  0  0  0
 11 12  2  0  0  0
 11 17  1  0  0  0
 12 13  1  0  0  0
 13 14  2  0  0  0
 14 15  1  0  0  0
 15 16  1  0  0  0
 15 17  2  0  0  0
 17 18  1  0  0  0
 18 19  2  0  0  0
  4  5  1  0  0  0
  4  6  1  0  0  0
  6  7  1  0  0  0
 29 31  1  0  0  0
 30 32  1  0  0  0
 16 20  1  0  0  0
 16 21  1  0  0  0
  5  8  1  0  0  0
  7  9  1  0  0  0
M  END
> <minimizedAffinity>
-8.19825

$$$$
1S5Z_SON_A_1160


 32 34  0  0  0  0  0  0  0  0999 V2000
    0.3137  -19.9627    4.3626 C   0  0  0  0  0  0  0  0  0  0  0  0
   -0.8723  -20.5302    4.9759 O   0  0  0  0  0  0  0  0  0  0  0  0
   -1.4427  -19.5902    5.8735 C   0  0  0  0  0  0  0  0  0  0  0  0
   -0.5429  -18.3514    5.8805 C   0  0  0  0  0  0  0  0  0  0  0  0
   -1.0954  -17.3565    5.0433 O   0  0  0  0  0  0  0  0  0  0  0  0
    0.7775  -18.9249    5.3711 C   0  0  0  0  0  0  0  0  0  0  0  0
    1.5967  -17.9421    4.7451 O   0  0  0  0  0  0  0  0  0  0  0  0
   -1.2337  -17.7215    4.1553 H   0  0  0  0  0  0  0  0  0  0  0  0
    1.1101  -17.5355    4.0110 H   0  0  0  0  0  0  0  0  0  0  0  0
   -1.5594  -20.2187    7.1897 N   0  0  0  0  0  0  0  0  0  0  0  0
   -2.3317  -19.7758    8.2352 C   0  0  0  0  0  0  0  0  0  0  0  0
   -3.1322  -18.6972    8.2571 N   0  0  0  0  0  0  0  0  0  0  0  0
   -3.7281  -18.5816    9.4444 C   0  0  0  0  0  0  0  0  0  0  0  0
   -3.6205  -19.3653   10.5290 N   0  0  0  0  0  0  0  0  0  0  0  0
   -2.8058  -20.4416   10.4692 C   0  0  0  0  0  0  0  0  0  0  0  0
   -2.6948  -21.2222   11.5468 N   0  0  0  0  0  0  0  0  0  0  0  0
   -2.1182  -20.6738    9.2676 C   0  0  0  0  0  0  0  0  0  0  0  0
   -1.2288  -21.6646    8.8795 N   0  0  0  0  0  0  0  0  0  0  0  0
   -0.9291  -21.3509    7.6427 C   0  0  0  0  0  0  0  0  0  0  0  0
   -3.2024  -21.0095   12.3631 H   0  0  0  0  0  0  0  0  0  0  0  0
   -2.1054  -22.0105   11.5250 H   0  0  0  0  0  0  0  0  0  0  0  0
    1.3194  -21.0515    4.0672 C   0  0  0  0  0  0  0  0  0  0  0  0
    2.5546  -20.4775    3.6357 O   0  0  0  0  0  0  0  0  0  0  0  0
    3.5973  -20.8138    4.5571 C   0  0  0  0  0  0  0  0  0  0  0  0
    3.3900  -21.4355    5.5991 O   0  0  0  0  0  0  0  0  0  0  0  0
    4.8395  -19.9575    4.4426 C   0  0  0  0  0  0  0  0  0  0  0  0
    5.1043  -18.8895    3.1074 P   0  0  0  0  0  0  0  0  0  0  0  0
    5.1274  -19.6480    1.8325 O   0  0  0  0  0  0  0  0  0  0  0  0
    6.3603  -18.1202    3.2849 O   0  0  0  0  0  0  0  0  0  0  0  0
    3.9468  -17.8048    2.9525 O   0  0  0  0  0  0  0  0  0  0  0  0
    6.4877  -17.5295    2.5261 H   0  0  0  0  0  0  0  0  0  0  0  0
    4.1397  -17.2322    2.1937 H   0  0  0  0  0  0  0  0  0  0  0  0
 27 28  2  0  0  0
 27 29  1  0  0  0
 27 30  1  0  0  0
 27 26  1  0  0  0
 26 24  1  0  0  0
 24 25  2  0  0  0
 24 23  1  0  0  0
 23 22  1  0  0  0
 22  1  1  0  0  0
  1  2  1  0  0  0
  1  6  1  0  0  0
  2  3  1  0  0  0
  3 10  1  0  0  0
  3  4  1  0  0  0
 10 11  1  0  0  0
 10 19  1  0  0  0
 11 12  2  0  0  0
 11 17  1  0  0  0
 12 13  1  0  0  0
 13 14  2  0  0  0
 14 15  1  0  0  0
 15 16  1  0  0  0
 15 17  2  0  0  0
 17 18  1  0  0  0
 18 19  2  0  0  0
  4  5  1  0  0  0
  4  6  1  0  0  0
  6  7  1  0  0  0
 29 31  1  0  0  0
 30 32  1  0  0  0
 16 20  1  0  0  0
 16 21  1  0  0  0
  5  8  1  0  0  0
  7  9  1  0  0  0
M  END
> <minimizedAffinity>
-8.05497

$$$$
1S5Z_SON_A_1160


 32 34  0  0  0  0  0  0  0  0999 V2000
    1.7244  -20.3978    3.3943 C   0  0  0  0  0  0  0  0  0  0  0  0
    0.3275  -20.2952    3.7726 O   0  0  0  0  0  0  0  0  0  0  0  0
    0.0940  -19.0461    4.4050 C   0  0  0  0  0  0  0  0  0  0  0  0
    1.4343  -18.3104    4.4864 C   0  0  0  0  0  0  0  0  0  0  0  0
    1.5231  -17.3649    3.4404 O   0  0  0  0  0  0  0  0  0  0  0  0
    2.4283  -19.4632    4.3640 C   0  0  0  0  0  0  0  0  0  0  0  0
    3.6873  -19.0483    3.8428 O   0  0  0  0  0  0  0  0  0  0  0  0
    1.3843  -17.8098    2.5897 H   0  0  0  0  0  0  0  0  0  0  0  0
    3.5574  -18.6330    2.9758 H   0  0  0  0  0  0  0  0  0  0  0  0
   -0.5010  -19.2960    5.7181 N   0  0  0  0  0  0  0  0  0  0  0  0
   -1.1955  -18.3893    6.4806 C   0  0  0  0  0  0  0  0  0  0  0  0
   -1.4733  -17.1111    6.1748 N   0  0  0  0  0  0  0  0  0  0  0  0
   -2.1692  -16.5365    7.1565 C   0  0  0  0  0  0  0  0  0  0  0  0
   -2.5862  -17.0587    8.3207 N   0  0  0  0  0  0  0  0  0  0  0  0
   -2.2879  -18.3481    8.5933 C   0  0  0  0  0  0  0  0  0  0  0  0
   -2.6994  -18.8702    9.7513 N   0  0  0  0  0  0  0  0  0  0  0  0
   -1.5553  -19.0653    7.6345 C   0  0  0  0  0  0  0  0  0  0  0  0
   -1.0971  -20.3738    7.5992 N   0  0  0  0  0  0  0  0  0  0  0  0
   -0.4815  -20.4602    6.4454 C   0  0  0  0  0  0  0  0  0  0  0  0
   -3.2108  -18.3182   10.3861 H   0  0  0  0  0  0  0  0  0  0  0  0
   -2.4914  -19.8073    9.9703 H   0  0  0  0  0  0  0  0  0  0  0  0
    2.1780  -21.8379    3.4614 C   0  0  0  0  0  0  0  0  0  0  0  0
    3.5474  -21.9420    3.0671 O   0  0  0  0  0  0  0  0  0  0  0  0
    3.7545  -23.1568    2.3387 C   0  0  0  0  0  0  0  0  0  0  0  0
    3.4286  -23.2895    1.1591 O   0  0  0  0  0  0  0  0  0  0  0  0
    3.9213  -24.3882    3.2018 C   0  0  0  0  0  0  0  0  0  0  0  0
    4.8792  -24.3825    4.6427 P   0  0  0  0  0  0  0  0  0  0  0  0
    6.0259  -25.3142    4.5073 O   0  0  0  0  0  0  0  0  0  0  0  0
    4.0566  -24.7291    5.8276 O   0  0  0  0  0  0  0  0  0  0  0  0
    5.5095  -22.9519    4.9527 O   0  0  0  0  0  0  0  0  0  0  0  0
    4.6135  -24.7196    6.6218 H   0  0  0  0  0  0  0  0  0  0  0  0
    6.0354  -22.9997    5.7664 H   0  0  0  0  0  0  0  0  0  0  0  0
 27 28  2  0  0  0
 27 29  1  0  0  0
 27 30  1  0  0  0
 27 26  1  0  0  0
 26 24  1  0  0  0
 24 25  2  0  0  0
 24 23  1  0  0  0
 23 22  1  0  0  0
 22  1  1  0  0  0
  1  2  1  0  0  0
  1  6  1  0  0  0
  2  3  1  0  0  0
  3 10  1  0  0  0
  3  4  1  0  0  0
 10 11  1  0  0  0
 10 19  1  0  0  0
 11 12  2  0  0  0
 11 17  1  0  0  0
 12 13  1  0  0  0
 13 14  2  0  0  0
 14 15  1  0  0  0
 15 16  1  0  0  0
 15 17  2  0  0  0
 17 18  1  0  0  0
 18 19  2  0  0  0
  4  5  1  0  0  0
  4  6  1  0  0  0
  6  7  1  0  0  0
 29 31  1  0  0  0
 30 32  1  0  0  0
 16 20  1  0  0  0
 16 21  1  0  0  0
  5  8  1  0  0  0
  7  9  1  0  0  0
M  END
> <minimizedAffinity>
-8.01698

$$$$
