4DUH_RLI_A_301


 29 31  0  0  0  0  0  0  0  0999 V2000
    1.3351    2.7885   33.3033 S   0  0  0  0  0  0  0  0  0  0  0  0
    2.0253    5.1574   33.9898 N   0  0  0  0  0  0  0  0  0  0  0  0
    2.4159    4.3702   35.0436 C   0  0  0  0  0  0  0  0  0  0  0  0
    2.0890    2.9708   34.8479 C   0  0  0  0  0  0  0  0  0  0  0  0
    1.4430    4.4599   33.0063 C   0  0  0  0  0  0  0  0  0  0  0  0
    4.3065    6.0542   36.1990 S   0  0  0  0  0  0  0  0  0  0  0  0
    3.5475    5.1578   38.4421 N   0  0  0  0  0  0  0  0  0  0  0  0
    4.3699    6.0001   37.9023 C   0  0  0  0  0  0  0  0  0  0  0  0
    2.7774    4.4857   37.5187 C   0  0  0  0  0  0  0  0  0  0  0  0
    1.7663    3.4664   37.9493 C   0  0  0  0  0  0  0  0  0  0  0  0
    3.0784    4.8772   36.2581 C   0  0  0  0  0  0  0  0  0  0  0  0
    5.1883    6.7225   38.6605 N   0  0  0  0  0  0  0  0  0  0  0  0
    5.0630    8.6143   37.5730 O   0  0  0  0  0  0  0  0  0  0  0  0
    5.4827    7.9886   38.4630 C   0  0  0  0  0  0  0  0  0  0  0  0
    5.6070    6.2743   39.4305 H   0  0  0  0  0  0  0  0  0  0  0  0
    7.8023    8.2666   39.2854 C   0  0  0  0  0  0  0  0  0  0  0  0
    6.4381    8.5794   39.5048 C   0  0  0  0  0  0  0  0  0  0  0  0
    0.9620    4.9863   31.8730 N   0  0  0  0  0  0  0  0  0  0  0  0
    1.4848    4.8089   31.0579 H   0  0  0  0  0  0  0  0  0  0  0  0
   -0.2128    5.7709   31.7032 C   0  0  0  0  0  0  0  0  0  0  0  0
   -0.8743    5.8298   30.5195 C   0  0  0  0  0  0  0  0  0  0  0  0
   -1.9832    6.6208   30.3981 C   0  0  0  0  0  0  0  0  0  0  0  0
   -2.4376    7.3590   31.4624 C   0  0  0  0  0  0  0  0  0  0  0  0
   -1.7743    7.2865   32.6316 C   0  0  0  0  0  0  0  0  0  0  0  0
   -0.6662    6.5020   32.7635 C   0  0  0  0  0  0  0  0  0  0  0  0
   -4.2181    8.2367   30.2757 O   0  0  0  0  0  0  0  0  0  0  0  0
   -3.8952    8.9300   32.2373 O   0  0  0  0  0  0  0  0  0  0  0  0
   -3.6008    8.2656   31.3195 C   0  0  0  0  0  0  0  0  0  0  0  0
   -3.9308    7.6826   29.5768 H   0  0  0  0  0  0  0  0  0  0  0  0
  8 12  1  0  0  0
 12 14  1  0  0  0
 13 14  2  0  0  0
 11  6  1  0  0  0
  6  8  1  0  0  0
 17 16  1  0  0  0
  9  7  1  0  0  0
  7  8  2  0  0  0
 28 26  1  0  0  0
  1  5  1  0  0  0
  1  4  1  0  0  0
 14 17  1  0  0  0
  5  2  2  0  0  0
  2  3  1  0  0  0
 27 28  2  0  0  0
 18 20  1  0  0  0
 18  5  1  0  0  0
 11  9  2  0  0  0
 10  9  1  0  0  0
  3 11  1  0  0  0
  4  3  2  0  0  0
 25 20  2  0  0  0
 20 21  1  0  0  0
 21 22  2  0  0  0
 23 22  1  0  0  0
 24 23  2  0  0  0
 23 28  1  0  0  0
 25 24  1  0  0  0
 12 15  1  0  0  0
 26 29  1  0  0  0
 18 19  1  0  0  0
M  END
> <minimizedAffinity>
-9.00836

$$$$
4DUH_RLI_A_301


 29 31  0  0  0  0  0  0  0  0999 V2000
    1.3554    2.5968   33.6979 S   0  0  0  0  0  0  0  0  0  0  0  0
    1.3649    2.4112   36.2523 N   0  0  0  0  0  0  0  0  0  0  0  0
    2.2061    3.4616   35.9842 C   0  0  0  0  0  0  0  0  0  0  0  0
    2.3482    3.7160   34.5634 C   0  0  0  0  0  0  0  0  0  0  0  0
    0.8480    1.8622   35.1458 C   0  0  0  0  0  0  0  0  0  0  0  0
    3.5102    5.8090   36.7146 S   0  0  0  0  0  0  0  0  0  0  0  0
    3.7962    4.7850   39.0125 N   0  0  0  0  0  0  0  0  0  0  0  0
    4.0419    5.8604   38.3341 C   0  0  0  0  0  0  0  0  0  0  0  0
    3.1387    3.8214   38.2801 C   0  0  0  0  0  0  0  0  0  0  0  0
    2.7678    2.5037   38.8909 C   0  0  0  0  0  0  0  0  0  0  0  0
    2.9120    4.2440   37.0140 C   0  0  0  0  0  0  0  0  0  0  0  0
    4.6779    6.8820   38.8983 N   0  0  0  0  0  0  0  0  0  0  0  0
    6.3202    7.0791   37.4695 O   0  0  0  0  0  0  0  0  0  0  0  0
    5.7728    7.4418   38.4332 C   0  0  0  0  0  0  0  0  0  0  0  0
    4.2992    7.2485   39.7299 H   0  0  0  0  0  0  0  0  0  0  0  0
    7.6685    8.5745   39.5546 C   0  0  0  0  0  0  0  0  0  0  0  0
    6.2806    8.6179   39.2735 C   0  0  0  0  0  0  0  0  0  0  0  0
    0.0090    0.8189   35.1268 N   0  0  0  0  0  0  0  0  0  0  0  0
   -0.6242    0.7871   34.3735 H   0  0  0  0  0  0  0  0  0  0  0  0
   -0.0791   -0.2493   36.0625 C   0  0  0  0  0  0  0  0  0  0  0  0
    0.4398   -0.1555   37.3131 C   0  0  0  0  0  0  0  0  0  0  0  0
    0.3547   -1.2204   38.1670 C   0  0  0  0  0  0  0  0  0  0  0  0
   -0.2512   -2.3876   37.7737 C   0  0  0  0  0  0  0  0  0  0  0  0
   -0.7659   -2.4640   36.5321 C   0  0  0  0  0  0  0  0  0  0  0  0
   -0.6853   -1.4086   35.6716 C   0  0  0  0  0  0  0  0  0  0  0  0
   -0.3379   -4.6656   38.1631 O   0  0  0  0  0  0  0  0  0  0  0  0
   -0.2278   -3.3786   39.8256 O   0  0  0  0  0  0  0  0  0  0  0  0
   -0.2912   -3.5654   38.6717 C   0  0  0  0  0  0  0  0  0  0  0  0
   -0.3878   -4.7491   37.2311 H   0  0  0  0  0  0  0  0  0  0  0  0
  8 12  1  0  0  0
 12 14  1  0  0  0
 13 14  2  0  0  0
 11  6  1  0  0  0
  6  8  1  0  0  0
 17 16  1  0  0  0
  9  7  1  0  0  0
  7  8  2  0  0  0
 28 26  1  0  0  0
  1  5  1  0  0  0
  1  4  1  0  0  0
 14 17  1  0  0  0
  5  2  2  0  0  0
  2  3  1  0  0  0
 27 28  2  0  0  0
 18 20  1  0  0  0
 18  5  1  0  0  0
 11  9  2  0  0  0
 10  9  1  0  0  0
  3 11  1  0  0  0
  4  3  2  0  0  0
 25 20  2  0  0  0
 20 21  1  0  0  0
 21 22  2  0  0  0
 23 22  1  0  0  0
 24 23  2  0  0  0
 23 28  1  0  0  0
 25 24  1  0  0  0
 12 15  1  0  0  0
 26 29  1  0  0  0
 18 19  1  0  0  0
M  END
> <minimizedAffinity>
-8.70953

$$$$
4DUH_RLI_A_301


 29 31  0  0  0  0  0  0  0  0999 V2000
   -0.0479    6.2389   29.7847 S   0  0  0  0  0  0  0  0  0  0  0  0
   -0.3922    6.4915   32.3099 N   0  0  0  0  0  0  0  0  0  0  0  0
   -1.2871    7.3711   31.7547 C   0  0  0  0  0  0  0  0  0  0  0  0
   -1.2300    7.3871   30.3055 C   0  0  0  0  0  0  0  0  0  0  0  0
    0.3254    5.8302   31.3931 C   0  0  0  0  0  0  0  0  0  0  0  0
   -1.7532    8.9128   34.0242 S   0  0  0  0  0  0  0  0  0  0  0  0
   -4.0453    9.4016   33.0659 N   0  0  0  0  0  0  0  0  0  0  0  0
   -3.2819    9.6668   34.0779 C   0  0  0  0  0  0  0  0  0  0  0  0
   -3.4514    8.5689   32.1434 C   0  0  0  0  0  0  0  0  0  0  0  0
   -4.1778    8.1452   30.9025 C   0  0  0  0  0  0  0  0  0  0  0  0
   -2.1999    8.2281   32.5314 C   0  0  0  0  0  0  0  0  0  0  0  0
   -3.7133   10.4521   35.0595 N   0  0  0  0  0  0  0  0  0  0  0  0
   -2.9005   12.3512   34.3455 O   0  0  0  0  0  0  0  0  0  0  0  0
   -3.5097   11.7487   35.1364 C   0  0  0  0  0  0  0  0  0  0  0  0
   -4.2256   10.0296   35.7864 H   0  0  0  0  0  0  0  0  0  0  0  0
   -4.1643   11.5861   37.5196 C   0  0  0  0  0  0  0  0  0  0  0  0
   -4.1389   12.4096   36.3670 C   0  0  0  0  0  0  0  0  0  0  0  0
    1.2727    4.9245   31.6671 N   0  0  0  0  0  0  0  0  0  0  0  0
    1.9511    4.7834   30.9678 H   0  0  0  0  0  0  0  0  0  0  0  0
    1.4184    4.1409   32.8459 C   0  0  0  0  0  0  0  0  0  0  0  0
    0.6766    3.0257   33.0652 C   0  0  0  0  0  0  0  0  0  0  0  0
    0.8333    2.3217   34.2271 C   0  0  0  0  0  0  0  0  0  0  0  0
    1.7348    2.7302   35.1782 C   0  0  0  0  0  0  0  0  0  0  0  0
    2.4671    3.8353   34.9444 C   0  0  0  0  0  0  0  0  0  0  0  0
    2.3180    4.5461   33.7896 C   0  0  0  0  0  0  0  0  0  0  0  0
    2.6934    2.4037   37.2573 O   0  0  0  0  0  0  0  0  0  0  0  0
    1.1288    1.1214   36.6739 O   0  0  0  0  0  0  0  0  0  0  0  0
    1.8643    2.0078   36.4653 C   0  0  0  0  0  0  0  0  0  0  0  0
    3.2540    3.1193   37.0304 H   0  0  0  0  0  0  0  0  0  0  0  0
  8 12  1  0  0  0
 12 14  1  0  0  0
 13 14  2  0  0  0
 11  6  1  0  0  0
  6  8  1  0  0  0
 17 16  1  0  0  0
  9  7  1  0  0  0
  7  8  2  0  0  0
 28 26  1  0  0  0
  1  5  1  0  0  0
  1  4  1  0  0  0
 14 17  1  0  0  0
  5  2  2  0  0  0
  2  3  1  0  0  0
 27 28  2  0  0  0
 18 20  1  0  0  0
 18  5  1  0  0  0
 11  9  2  0  0  0
 10  9  1  0  0  0
  3 11  1  0  0  0
  4  3  2  0  0  0
 25 20  2  0  0  0
 20 21  1  0  0  0
 21 22  2  0  0  0
 23 22  1  0  0  0
 24 23  2  0  0  0
 23 28  1  0  0  0
 25 24  1  0  0  0
 12 15  1  0  0  0
 26 29  1  0  0  0
 18 19  1  0  0  0
M  END
> <minimizedAffinity>
-8.52514

$$$$
4DUH_RLI_A_301


 29 31  0  0  0  0  0  0  0  0999 V2000
    2.7824    3.3416   34.8084 S   0  0  0  0  0  0  0  0  0  0  0  0
    1.3242    2.9826   36.8830 N   0  0  0  0  0  0  0  0  0  0  0  0
    1.3338    1.7610   36.2582 C   0  0  0  0  0  0  0  0  0  0  0  0
    2.1068    1.7663   35.0310 C   0  0  0  0  0  0  0  0  0  0  0  0
    2.0425    3.9064   36.2320 C   0  0  0  0  0  0  0  0  0  0  0  0
   -0.4361   -0.3316   35.7753 S   0  0  0  0  0  0  0  0  0  0  0  0
   -0.0135   -1.0707   38.1599 N   0  0  0  0  0  0  0  0  0  0  0  0
   -0.6694   -1.3919   37.0904 C   0  0  0  0  0  0  0  0  0  0  0  0
    0.7527    0.0634   38.0048 C   0  0  0  0  0  0  0  0  0  0  0  0
    1.5837    0.5963   39.1327 C   0  0  0  0  0  0  0  0  0  0  0  0
    0.6254    0.5685   36.7552 C   0  0  0  0  0  0  0  0  0  0  0  0
   -1.4612   -2.4594   37.0810 N   0  0  0  0  0  0  0  0  0  0  0  0
   -3.3749   -1.4547   37.4060 O   0  0  0  0  0  0  0  0  0  0  0  0
   -2.7674   -2.4341   37.2285 C   0  0  0  0  0  0  0  0  0  0  0  0
   -1.0361   -3.3382   36.9537 H   0  0  0  0  0  0  0  0  0  0  0  0
   -3.9692   -4.2652   38.3848 C   0  0  0  0  0  0  0  0  0  0  0  0
   -3.4329   -3.8120   37.1543 C   0  0  0  0  0  0  0  0  0  0  0  0
    2.1883    5.1793   36.6208 N   0  0  0  0  0  0  0  0  0  0  0  0
    1.4200    5.7724   36.4556 H   0  0  0  0  0  0  0  0  0  0  0  0
    3.3182    5.7793   37.2435 C   0  0  0  0  0  0  0  0  0  0  0  0
    3.4381    5.8600   38.5931 C   0  0  0  0  0  0  0  0  0  0  0  0
    4.5301    6.4716   39.1440 C   0  0  0  0  0  0  0  0  0  0  0  0
    5.5105    7.0072   38.3463 C   0  0  0  0  0  0  0  0  0  0  0  0
    5.3803    6.9150   37.0096 C   0  0  0  0  0  0  0  0  0  0  0  0
    4.2945    6.3085   36.4493 C   0  0  0  0  0  0  0  0  0  0  0  0
    6.7698    7.7353   40.1442 O   0  0  0  0  0  0  0  0  0  0  0  0
    7.4420    8.2081   38.2059 O   0  0  0  0  0  0  0  0  0  0  0  0
    6.6643    7.7259   38.9358 C   0  0  0  0  0  0  0  0  0  0  0  0
    6.1120    7.3311   40.6751 H   0  0  0  0  0  0  0  0  0  0  0  0
  8 12  1  0  0  0
 12 14  1  0  0  0
 13 14  2  0  0  0
 11  6  1  0  0  0
  6  8  1  0  0  0
 17 16  1  0  0  0
  9  7  1  0  0  0
  7  8  2  0  0  0
 28 26  1  0  0  0
  1  5  1  0  0  0
  1  4  1  0  0  0
 14 17  1  0  0  0
  5  2  2  0  0  0
  2  3  1  0  0  0
 27 28  2  0  0  0
 18 20  1  0  0  0
 18  5  1  0  0  0
 11  9  2  0  0  0
 10  9  1  0  0  0
  3 11  1  0  0  0
  4  3  2  0  0  0
 25 20  2  0  0  0
 20 21  1  0  0  0
 21 22  2  0  0  0
 23 22  1  0  0  0
 24 23  2  0  0  0
 23 28  1  0  0  0
 25 24  1  0  0  0
 12 15  1  0  0  0
 26 29  1  0  0  0
 18 19  1  0  0  0
M  END
> <minimizedAffinity>
-8.23449

$$$$
4DUH_RLI_A_301


 29 31  0  0  0  0  0  0  0  0999 V2000
    1.2371    0.0179   38.6148 S   0  0  0  0  0  0  0  0  0  0  0  0
    1.2656    1.8489   36.8243 N   0  0  0  0  0  0  0  0  0  0  0  0
    1.9386    2.4000   37.8855 C   0  0  0  0  0  0  0  0  0  0  0  0
    2.0138    1.5063   39.0254 C   0  0  0  0  0  0  0  0  0  0  0  0
    0.8401    0.6028   37.0677 C   0  0  0  0  0  0  0  0  0  0  0  0
    3.5096    4.3171   39.1511 S   0  0  0  0  0  0  0  0  0  0  0  0
    3.0107    5.8374   37.1887 N   0  0  0  0  0  0  0  0  0  0  0  0
    3.6678    5.7885   38.3036 C   0  0  0  0  0  0  0  0  0  0  0  0
    2.3261    4.6744   36.9124 C   0  0  0  0  0  0  0  0  0  0  0  0
    1.5042    4.5375   35.6664 C   0  0  0  0  0  0  0  0  0  0  0  0
    2.5116    3.7574   37.8910 C   0  0  0  0  0  0  0  0  0  0  0  0
    4.3747    6.8360   38.7153 N   0  0  0  0  0  0  0  0  0  0  0  0
    6.0275    6.7001   37.2915 O   0  0  0  0  0  0  0  0  0  0  0  0
    5.5069    7.2411   38.1837 C   0  0  0  0  0  0  0  0  0  0  0  0
    4.0228    7.3490   39.4783 H   0  0  0  0  0  0  0  0  0  0  0  0
    7.2885    8.2560   39.5730 C   0  0  0  0  0  0  0  0  0  0  0  0
    6.0968    8.4914   38.8438 C   0  0  0  0  0  0  0  0  0  0  0  0
    0.1499   -0.1544   36.2058 N   0  0  0  0  0  0  0  0  0  0  0  0
    0.5219   -0.2232   35.2969 H   0  0  0  0  0  0  0  0  0  0  0  0
   -1.0557   -0.8718   36.4434 C   0  0  0  0  0  0  0  0  0  0  0  0
   -2.2768   -0.3067   36.2649 C   0  0  0  0  0  0  0  0  0  0  0  0
   -3.4067   -1.0286   36.5338 C   0  0  0  0  0  0  0  0  0  0  0  0
   -3.3214   -2.3226   36.9836 C   0  0  0  0  0  0  0  0  0  0  0  0
   -2.1035   -2.8714   37.1509 C   0  0  0  0  0  0  0  0  0  0  0  0
   -0.9698   -2.1601   36.8873 C   0  0  0  0  0  0  0  0  0  0  0  0
   -5.2065   -3.5427   36.4304 O   0  0  0  0  0  0  0  0  0  0  0  0
   -4.7727   -3.2580   38.4708 O   0  0  0  0  0  0  0  0  0  0  0  0
   -4.5397   -3.0886   37.3362 C   0  0  0  0  0  0  0  0  0  0  0  0
   -4.9673   -3.3709   35.5408 H   0  0  0  0  0  0  0  0  0  0  0  0
  8 12  1  0  0  0
 12 14  1  0  0  0
 13 14  2  0  0  0
 11  6  1  0  0  0
  6  8  1  0  0  0
 17 16  1  0  0  0
  9  7  1  0  0  0
  7  8  2  0  0  0
 28 26  1  0  0  0
  1  5  1  0  0  0
  1  4  1  0  0  0
 14 17  1  0  0  0
  5  2  2  0  0  0
  2  3  1  0  0  0
 27 28  2  0  0  0
 18 20  1  0  0  0
 18  5  1  0  0  0
 11  9  2  0  0  0
 10  9  1  0  0  0
  3 11  1  0  0  0
  4  3  2  0  0  0
 25 20  2  0  0  0
 20 21  1  0  0  0
 21 22  2  0  0  0
 23 22  1  0  0  0
 24 23  2  0  0  0
 23 28  1  0  0  0
 25 24  1  0  0  0
 12 15  1  0  0  0
 26 29  1  0  0  0
 18 19  1  0  0  0
M  END
> <minimizedAffinity>
-7.94868

$$$$
4DUH_RLI_A_301


 29 31  0  0  0  0  0  0  0  0999 V2000
    0.2553    4.3081   31.4300 S   0  0  0  0  0  0  0  0  0  0  0  0
   -0.0334    5.8153   33.4804 N   0  0  0  0  0  0  0  0  0  0  0  0
   -0.9928    6.2497   32.6009 C   0  0  0  0  0  0  0  0  0  0  0  0
   -0.9768    5.5175   31.3490 C   0  0  0  0  0  0  0  0  0  0  0  0
    0.6959    4.8017   32.9970 C   0  0  0  0  0  0  0  0  0  0  0  0
   -2.1369    8.0054   34.4321 S   0  0  0  0  0  0  0  0  0  0  0  0
   -3.4513    8.9690   32.4943 N   0  0  0  0  0  0  0  0  0  0  0  0
   -3.2545    9.1084   33.7667 C   0  0  0  0  0  0  0  0  0  0  0  0
   -2.6992    7.9581   31.9378 C   0  0  0  0  0  0  0  0  0  0  0  0
   -2.7896    7.6412   30.4755 C   0  0  0  0  0  0  0  0  0  0  0  0
   -1.9321    7.3515   32.8740 C   0  0  0  0  0  0  0  0  0  0  0  0
   -3.9122   10.0379   34.4522 N   0  0  0  0  0  0  0  0  0  0  0  0
   -2.3382   11.5511   34.5518 O   0  0  0  0  0  0  0  0  0  0  0  0
   -3.4254   11.2091   34.7984 C   0  0  0  0  0  0  0  0  0  0  0  0
   -4.8367    9.8334   34.7219 H   0  0  0  0  0  0  0  0  0  0  0  0
   -4.0433   12.3419   36.9124 C   0  0  0  0  0  0  0  0  0  0  0  0
   -4.4113   12.0949   35.5668 C   0  0  0  0  0  0  0  0  0  0  0  0
    1.7014    4.2018   33.6465 N   0  0  0  0  0  0  0  0  0  0  0  0
    2.1507    3.4695   33.1656 H   0  0  0  0  0  0  0  0  0  0  0  0
    2.1998    4.4935   34.9469 C   0  0  0  0  0  0  0  0  0  0  0  0
    3.2845    5.2859   35.1411 C   0  0  0  0  0  0  0  0  0  0  0  0
    3.7425    5.5140   36.4093 C   0  0  0  0  0  0  0  0  0  0  0  0
    3.1167    4.9494   37.4928 C   0  0  0  0  0  0  0  0  0  0  0  0
    2.0390    4.1699   37.2849 C   0  0  0  0  0  0  0  0  0  0  0  0
    1.5745    3.9345   36.0242 C   0  0  0  0  0  0  0  0  0  0  0  0
    3.4370    6.2054   39.4080 O   0  0  0  0  0  0  0  0  0  0  0  0
    4.1960    4.2420   39.3709 O   0  0  0  0  0  0  0  0  0  0  0  0
    3.6453    5.1417   38.8635 C   0  0  0  0  0  0  0  0  0  0  0  0
    2.9899    6.8880   38.9473 H   0  0  0  0  0  0  0  0  0  0  0  0
  8 12  1  0  0  0
 12 14  1  0  0  0
 13 14  2  0  0  0
 11  6  1  0  0  0
  6  8  1  0  0  0
 17 16  1  0  0  0
  9  7  1  0  0  0
  7  8  2  0  0  0
 28 26  1  0  0  0
  1  5  1  0  0  0
  1  4  1  0  0  0
 14 17  1  0  0  0
  5  2  2  0  0  0
  2  3  1  0  0  0
 27 28  2  0  0  0
 18 20  1  0  0  0
 18  5  1  0  0  0
 11  9  2  0  0  0
 10  9  1  0  0  0
  3 11  1  0  0  0
  4  3  2  0  0  0
 25 20  2  0  0  0
 20 21  1  0  0  0
 21 22  2  0  0  0
 23 22  1  0  0  0
 24 23  2  0  0  0
 23 28  1  0  0  0
 25 24  1  0  0  0
 12 15  1  0  0  0
 26 29  1  0  0  0
 18 19  1  0  0  0
M  END
> <minimizedAffinity>
-7.77967

$$$$
4DUH_RLI_A_301


 29 31  0  0  0  0  0  0  0  0999 V2000
    3.3258    3.5256   38.8895 S   0  0  0  0  0  0  0  0  0  0  0  0
    2.1485    3.2128   36.6366 N   0  0  0  0  0  0  0  0  0  0  0  0
    1.8397    2.0774   37.3425 C   0  0  0  0  0  0  0  0  0  0  0  0
    2.4409    2.0584   38.6623 C   0  0  0  0  0  0  0  0  0  0  0  0
    2.9229    4.0603   37.3258 C   0  0  0  0  0  0  0  0  0  0  0  0
    0.4999   -0.3175   37.8048 S   0  0  0  0  0  0  0  0  0  0  0  0
   -0.2239   -0.2334   35.3800 N   0  0  0  0  0  0  0  0  0  0  0  0
   -0.3405   -0.9411   36.4583 C   0  0  0  0  0  0  0  0  0  0  0  0
    0.5509    0.8922   35.5524 C   0  0  0  0  0  0  0  0  0  0  0  0
    0.8050    1.8383   34.4178 C   0  0  0  0  0  0  0  0  0  0  0  0
    1.0064    0.9783   36.8244 C   0  0  0  0  0  0  0  0  0  0  0  0
   -1.0522   -2.0636   36.4537 N   0  0  0  0  0  0  0  0  0  0  0  0
   -2.9109   -1.2803   37.2956 O   0  0  0  0  0  0  0  0  0  0  0  0
   -2.2975   -2.1718   36.8611 C   0  0  0  0  0  0  0  0  0  0  0  0
   -0.6121   -2.8781   36.1188 H   0  0  0  0  0  0  0  0  0  0  0  0
   -2.5066   -4.4692   37.7624 C   0  0  0  0  0  0  0  0  0  0  0  0
   -2.8812   -3.5816   36.7237 C   0  0  0  0  0  0  0  0  0  0  0  0
    3.3757    5.2333   36.8655 N   0  0  0  0  0  0  0  0  0  0  0  0
    3.0096    5.5287   36.0007 H   0  0  0  0  0  0  0  0  0  0  0  0
    4.3215    6.1050   37.4740 C   0  0  0  0  0  0  0  0  0  0  0  0
    5.5321    6.3570   36.9145 C   0  0  0  0  0  0  0  0  0  0  0  0
    6.4185    7.1803   37.5522 C   0  0  0  0  0  0  0  0  0  0  0  0
    6.0981    7.7574   38.7557 C   0  0  0  0  0  0  0  0  0  0  0  0
    4.8917    7.5023   39.2959 C   0  0  0  0  0  0  0  0  0  0  0  0
    4.0005    6.6814   38.6693 C   0  0  0  0  0  0  0  0  0  0  0  0
    8.2424    8.5283   39.1510 O   0  0  0  0  0  0  0  0  0  0  0  0
    6.6728    9.3268   40.3048 O   0  0  0  0  0  0  0  0  0  0  0  0
    7.0775    8.5998   39.4814 C   0  0  0  0  0  0  0  0  0  0  0  0
    8.5039    7.9246   38.4839 H   0  0  0  0  0  0  0  0  0  0  0  0
  8 12  1  0  0  0
 12 14  1  0  0  0
 13 14  2  0  0  0
 11  6  1  0  0  0
  6  8  1  0  0  0
 17 16  1  0  0  0
  9  7  1  0  0  0
  7  8  2  0  0  0
 28 26  1  0  0  0
  1  5  1  0  0  0
  1  4  1  0  0  0
 14 17  1  0  0  0
  5  2  2  0  0  0
  2  3  1  0  0  0
 27 28  2  0  0  0
 18 20  1  0  0  0
 18  5  1  0  0  0
 11  9  2  0  0  0
 10  9  1  0  0  0
  3 11  1  0  0  0
  4  3  2  0  0  0
 25 20  2  0  0  0
 20 21  1  0  0  0
 21 22  2  0  0  0
 23 22  1  0  0  0
 24 23  2  0  0  0
 23 28  1  0  0  0
 25 24  1  0  0  0
 12 15  1  0  0  0
 26 29  1  0  0  0
 18 19  1  0  0  0
M  END
> <minimizedAffinity>
-7.74239

$$$$
4DUH_RLI_A_301


 29 31  0  0  0  0  0  0  0  0999 V2000
    0.4384    3.7007   31.9053 S   0  0  0  0  0  0  0  0  0  0  0  0
    0.3682    5.5551   33.6705 N   0  0  0  0  0  0  0  0  0  0  0  0
   -0.6154    5.8979   32.7774 C   0  0  0  0  0  0  0  0  0  0  0  0
   -0.7208    4.9618   31.6746 C   0  0  0  0  0  0  0  0  0  0  0  0
    1.0037    4.4246   33.3370 C   0  0  0  0  0  0  0  0  0  0  0  0
   -2.1627    7.5669   34.3790 S   0  0  0  0  0  0  0  0  0  0  0  0
   -2.5603    8.9719   32.3105 N   0  0  0  0  0  0  0  0  0  0  0  0
   -2.8333    8.9131   33.5751 C   0  0  0  0  0  0  0  0  0  0  0  0
   -1.7669    7.9320   31.8791 C   0  0  0  0  0  0  0  0  0  0  0  0
   -1.3443    7.8241   30.4449 C   0  0  0  0  0  0  0  0  0  0  0  0
   -1.4677    7.0937   32.8992 C   0  0  0  0  0  0  0  0  0  0  0  0
   -3.5956    9.8416   34.1435 N   0  0  0  0  0  0  0  0  0  0  0  0
   -2.0177   11.0742   35.0199 O   0  0  0  0  0  0  0  0  0  0  0  0
   -3.1497   10.8743   34.8243 C   0  0  0  0  0  0  0  0  0  0  0  0
   -4.5710    9.7489   34.0472 H   0  0  0  0  0  0  0  0  0  0  0  0
   -4.8315   11.3752   36.5721 C   0  0  0  0  0  0  0  0  0  0  0  0
   -4.2509   11.7997   35.3515 C   0  0  0  0  0  0  0  0  0  0  0  0
    2.0090    3.8762   34.0308 N   0  0  0  0  0  0  0  0  0  0  0  0
    2.9120    4.0097   33.6619 H   0  0  0  0  0  0  0  0  0  0  0  0
    1.9314    3.1239   35.2360 C   0  0  0  0  0  0  0  0  0  0  0  0
    1.4164    1.8686   35.2692 C   0  0  0  0  0  0  0  0  0  0  0  0
    1.3374    1.1966   36.4577 C   0  0  0  0  0  0  0  0  0  0  0  0
    1.7739    1.7779   37.6221 C   0  0  0  0  0  0  0  0  0  0  0  0
    2.2871    3.0214   37.5727 C   0  0  0  0  0  0  0  0  0  0  0  0
    2.3693    3.7015   36.3931 C   0  0  0  0  0  0  0  0  0  0  0  0
    2.3584    1.4228   39.8313 O   0  0  0  0  0  0  0  0  0  0  0  0
    0.7984    0.2652   39.0196 O   0  0  0  0  0  0  0  0  0  0  0  0
    1.6334    1.0798   38.9214 C   0  0  0  0  0  0  0  0  0  0  0  0
    3.0091    2.0818   39.6889 H   0  0  0  0  0  0  0  0  0  0  0  0
  8 12  1  0  0  0
 12 14  1  0  0  0
 13 14  2  0  0  0
 11  6  1  0  0  0
  6  8  1  0  0  0
 17 16  1  0  0  0
  9  7  1  0  0  0
  7  8  2  0  0  0
 28 26  1  0  0  0
  1  5  1  0  0  0
  1  4  1  0  0  0
 14 17  1  0  0  0
  5  2  2  0  0  0
  2  3  1  0  0  0
 27 28  2  0  0  0
 18 20  1  0  0  0
 18  5  1  0  0  0
 11  9  2  0  0  0
 10  9  1  0  0  0
  3 11  1  0  0  0
  4  3  2  0  0  0
 25 20  2  0  0  0
 20 21  1  0  0  0
 21 22  2  0  0  0
 23 22  1  0  0  0
 24 23  2  0  0  0
 23 28  1  0  0  0
 25 24  1  0  0  0
 12 15  1  0  0  0
 26 29  1  0  0  0
 18 19  1  0  0  0
M  END
> <minimizedAffinity>
-7.56802

$$$$
4DUH_RLI_A_301


 29 31  0  0  0  0  0  0  0  0999 V2000
    1.5768    1.6526   36.1445 S   0  0  0  0  0  0  0  0  0  0  0  0
    0.2840    0.4575   38.0045 N   0  0  0  0  0  0  0  0  0  0  0  0
   -0.0688   -0.2124   36.8602 C   0  0  0  0  0  0  0  0  0  0  0  0
    0.5585    0.3378   35.6739 C   0  0  0  0  0  0  0  0  0  0  0  0
    1.1411    1.4609   37.7775 C   0  0  0  0  0  0  0  0  0  0  0  0
   -0.6159   -2.8611   37.5156 S   0  0  0  0  0  0  0  0  0  0  0  0
   -2.8672   -2.5384   36.4027 N   0  0  0  0  0  0  0  0  0  0  0  0
   -2.1564   -3.4151   37.0378 C   0  0  0  0  0  0  0  0  0  0  0  0
   -2.2285   -1.3267   36.2568 C   0  0  0  0  0  0  0  0  0  0  0  0
   -2.8894   -0.1840   35.5466 C   0  0  0  0  0  0  0  0  0  0  0  0
   -0.9977   -1.3554   36.8200 C   0  0  0  0  0  0  0  0  0  0  0  0
   -2.6304   -4.6378   37.2538 N   0  0  0  0  0  0  0  0  0  0  0  0
   -3.4196   -4.3355   39.2695 O   0  0  0  0  0  0  0  0  0  0  0  0
   -3.2433   -5.0294   38.3490 C   0  0  0  0  0  0  0  0  0  0  0  0
   -2.5133   -5.3027   36.5372 H   0  0  0  0  0  0  0  0  0  0  0  0
   -2.8978   -7.3393   37.5247 C   0  0  0  0  0  0  0  0  0  0  0  0
   -3.7057   -6.4897   38.3201 C   0  0  0  0  0  0  0  0  0  0  0  0
    1.6335    2.2771   38.7178 N   0  0  0  0  0  0  0  0  0  0  0  0
    1.4080    2.0496   39.6488 H   0  0  0  0  0  0  0  0  0  0  0  0
    2.4427    3.4332   38.5356 C   0  0  0  0  0  0  0  0  0  0  0  0
    3.6673    3.5522   39.1086 C   0  0  0  0  0  0  0  0  0  0  0  0
    4.3956    4.6953   38.9267 C   0  0  0  0  0  0  0  0  0  0  0  0
    3.9019    5.7280   38.1689 C   0  0  0  0  0  0  0  0  0  0  0  0
    2.6881    5.5933   37.6026 C   0  0  0  0  0  0  0  0  0  0  0  0
    1.9524    4.4582   37.7787 C   0  0  0  0  0  0  0  0  0  0  0  0
    4.6524    7.7712   38.9502 O   0  0  0  0  0  0  0  0  0  0  0  0
    5.2635    7.1578   37.0311 O   0  0  0  0  0  0  0  0  0  0  0  0
    4.6587    6.9930   38.0197 C   0  0  0  0  0  0  0  0  0  0  0  0
    4.1467    7.5818   39.7159 H   0  0  0  0  0  0  0  0  0  0  0  0
  8 12  1  0  0  0
 12 14  1  0  0  0
 13 14  2  0  0  0
 11  6  1  0  0  0
  6  8  1  0  0  0
 17 16  1  0  0  0
  9  7  1  0  0  0
  7  8  2  0  0  0
 28 26  1  0  0  0
  1  5  1  0  0  0
  1  4  1  0  0  0
 14 17  1  0  0  0
  5  2  2  0  0  0
  2  3  1  0  0  0
 27 28  2  0  0  0
 18 20  1  0  0  0
 18  5  1  0  0  0
 11  9  2  0  0  0
 10  9  1  0  0  0
  3 11  1  0  0  0
  4  3  2  0  0  0
 25 20  2  0  0  0
 20 21  1  0  0  0
 21 22  2  0  0  0
 23 22  1  0  0  0
 24 23  2  0  0  0
 23 28  1  0  0  0
 25 24  1  0  0  0
 12 15  1  0  0  0
 26 29  1  0  0  0
 18 19  1  0  0  0
M  END
> <minimizedAffinity>
-7.47508

$$$$
4DUH_RLI_A_301


 29 31  0  0  0  0  0  0  0  0999 V2000
    2.7629    3.5019   34.3625 S   0  0  0  0  0  0  0  0  0  0  0  0
    0.6446    2.0798   34.1392 N   0  0  0  0  0  0  0  0  0  0  0  0
    1.2025    1.6755   35.3258 C   0  0  0  0  0  0  0  0  0  0  0  0
    2.4426    2.3656   35.6249 C   0  0  0  0  0  0  0  0  0  0  0  0
    1.3581    3.0327   33.5261 C   0  0  0  0  0  0  0  0  0  0  0  0
   -0.3759   -0.5989   35.6097 S   0  0  0  0  0  0  0  0  0  0  0  0
    0.1975   -0.5341   38.0750 N   0  0  0  0  0  0  0  0  0  0  0  0
   -0.4616   -1.2195   37.1958 C   0  0  0  0  0  0  0  0  0  0  0  0
    0.8465    0.5551   37.5367 C   0  0  0  0  0  0  0  0  0  0  0  0
    1.6616    1.4733   38.3967 C   0  0  0  0  0  0  0  0  0  0  0  0
    0.6284    0.6404   36.2033 C   0  0  0  0  0  0  0  0  0  0  0  0
   -1.1480   -2.2980   37.5590 N   0  0  0  0  0  0  0  0  0  0  0  0
    0.5309   -3.6122   38.0401 O   0  0  0  0  0  0  0  0  0  0  0  0
   -0.6186   -3.4292   37.9699 C   0  0  0  0  0  0  0  0  0  0  0  0
   -2.1302   -2.2459   37.5171 H   0  0  0  0  0  0  0  0  0  0  0  0
   -1.7042   -4.7891   39.7324 C   0  0  0  0  0  0  0  0  0  0  0  0
   -1.6461   -4.5014   38.3464 C   0  0  0  0  0  0  0  0  0  0  0  0
    1.0416    3.5922   32.3515 N   0  0  0  0  0  0  0  0  0  0  0  0
    1.2877    3.0792   31.5481 H   0  0  0  0  0  0  0  0  0  0  0  0
    0.3930    4.8379   32.1230 C   0  0  0  0  0  0  0  0  0  0  0  0
    0.4428    5.4655   30.9206 C   0  0  0  0  0  0  0  0  0  0  0  0
   -0.1734    6.6756   30.7585 C   0  0  0  0  0  0  0  0  0  0  0  0
   -0.8442    7.2659   31.8006 C   0  0  0  0  0  0  0  0  0  0  0  0
   -0.8893    6.6291   32.9857 C   0  0  0  0  0  0  0  0  0  0  0  0
   -0.2770    5.4225   33.1591 C   0  0  0  0  0  0  0  0  0  0  0  0
   -2.6346    8.6591   31.3512 O   0  0  0  0  0  0  0  0  0  0  0  0
   -0.7957    9.5431   31.8705 O   0  0  0  0  0  0  0  0  0  0  0  0
   -1.4600    8.6050   31.6491 C   0  0  0  0  0  0  0  0  0  0  0  0
   -3.1127    7.8704   31.1857 H   0  0  0  0  0  0  0  0  0  0  0  0
  8 12  1  0  0  0
 12 14  1  0  0  0
 13 14  2  0  0  0
 11  6  1  0  0  0
  6  8  1  0  0  0
 17 16  1  0  0  0
  9  7  1  0  0  0
  7  8  2  0  0  0
 28 26  1  0  0  0
  1  5  1  0  0  0
  1  4  1  0  0  0
 14 17  1  0  0  0
  5  2  2  0  0  0
  2  3  1  0  0  0
 27 28  2  0  0  0
 18 20  1  0  0  0
 18  5  1  0  0  0
 11  9  2  0  0  0
 10  9  1  0  0  0
  3 11  1  0  0  0
  4  3  2  0  0  0
 25 20  2  0  0  0
 20 21  1  0  0  0
 21 22  2  0  0  0
 23 22  1  0  0  0
 24 23  2  0  0  0
 23 28  1  0  0  0
 25 24  1  0  0  0
 12 15  1  0  0  0
 26 29  1  0  0  0
 18 19  1  0  0  0
M  END
> <minimizedAffinity>
-7.44565

$$$$
