6FTP_DM2_B_501


 46 50  0  0  0  0  0  0  0  0999 V2000
  -21.7056    6.4466    1.7029 C   0  0  0  0  0  0  0  0  0  0  0  0
  -21.9381    7.6781    2.2969 C   0  0  0  0  0  0  0  0  0  0  0  0
  -20.8749    8.4960    2.6175 C   0  0  0  0  0  0  0  0  0  0  0  0
  -19.5660    8.0889    2.3461 C   0  0  0  0  0  0  0  0  0  0  0  0
  -19.3014    6.8463    1.7450 C   0  0  0  0  0  0  0  0  0  0  0  0
  -17.9336    6.3954    1.4496 C   0  0  0  0  0  0  0  0  0  0  0  0
  -16.9534    7.0769    1.7109 O   0  0  0  0  0  0  0  0  0  0  0  0
  -17.7766    5.0737    0.8178 C   0  0  0  0  0  0  0  0  0  0  0  0
  -16.5026    4.6007    0.5177 C   0  0  0  0  0  0  0  0  0  0  0  0
  -15.4188    5.3693    0.8136 O   0  0  0  0  0  0  0  0  0  0  0  0
  -16.3137    3.3491   -0.0826 C   0  0  0  0  0  0  0  0  0  0  0  0
  -14.9084    2.9185   -0.3711 C   0  0  0  0  0  0  0  0  0  0  0  0
  -14.8808    1.7525   -1.3755 C   0  0  0  0  0  0  0  0  0  0  0  0
  -15.8549    0.6852   -0.8620 C   0  0  0  0  0  0  0  0  0  0  0  0
  -15.5332    0.4681    0.4794 O   0  0  0  0  0  0  0  0  0  0  0  0
  -17.2792    1.2128   -1.0310 C   0  0  0  0  0  0  0  0  0  0  0  0
  -17.4007    2.5519   -0.3934 C   0  0  0  0  0  0  0  0  0  0  0  0
  -18.6817    3.0282   -0.0907 C   0  0  0  0  0  0  0  0  0  0  0  0
  -19.7536    2.2433   -0.3952 O   0  0  0  0  0  0  0  0  0  0  0  0
  -18.8748    4.2701    0.5051 C   0  0  0  0  0  0  0  0  0  0  0  0
  -20.2336    4.7216    0.8011 C   0  0  0  0  0  0  0  0  0  0  0  0
  -21.2018    4.0209    0.5292 O   0  0  0  0  0  0  0  0  0  0  0  0
  -20.4088    6.0400    1.4327 C   0  0  0  0  0  0  0  0  0  0  0  0
  -15.5348    6.2079    1.2152 H   0  0  0  0  0  0  0  0  0  0  0  0
  -14.6246    0.1347    0.5442 H   0  0  0  0  0  0  0  0  0  0  0  0
  -19.6228    1.4068   -0.7967 H   0  0  0  0  0  0  0  0  0  0  0  0
  -18.4951    8.8788    2.6537 O   0  0  0  0  0  0  0  0  0  0  0  0
  -18.7567   10.2595    2.4989 C   0  0  0  0  0  0  0  0  0  0  0  0
  -15.6715   -0.6045   -1.6760 C   0  0  0  0  0  0  0  0  0  0  0  0
  -15.1466   -1.5879   -1.2043 O   0  0  0  0  0  0  0  0  0  0  0  0
  -16.1849   -0.5778   -3.1001 C   0  0  0  0  0  0  0  0  0  0  0  0
  -16.7900   -1.8208   -3.2868 O   0  0  0  0  0  0  0  0  0  0  0  0
  -16.1412   -2.5237   -3.1256 H   0  0  0  0  0  0  0  0  0  0  0  0
  -14.3347    2.5655    0.8662 O   0  0  0  0  0  0  0  0  0  0  0  0
  -12.9638    2.2517    0.7512 C   0  0  0  0  0  0  0  0  0  0  0  0
  -12.1303    3.4196    1.2912 C   0  0  0  0  0  0  0  0  0  0  0  0
  -12.4500    3.6368    2.7748 C   0  0  0  0  0  0  0  0  0  0  0  0
  -11.5459    4.6289    3.3473 N   0  0  0  0  0  0  0  0  0  0  0  0
  -12.2788    2.2862    3.5327 C   0  0  0  0  0  0  0  0  0  0  0  0
  -10.9424    1.9168    3.4394 O   0  0  0  0  0  0  0  0  0  0  0  0
  -13.1924    1.2493    2.8491 C   0  0  0  0  0  0  0  0  0  0  0  0
  -12.7927    1.0856    1.5107 O   0  0  0  0  0  0  0  0  0  0  0  0
  -13.1368   -0.1173    3.5138 C   0  0  0  0  0  0  0  0  0  0  0  0
  -10.5836    4.3018    3.2610 H   0  0  0  0  0  0  0  0  0  0  0  0
  -11.7714    4.7659    4.3326 H   0  0  0  0  0  0  0  0  0  0  0  0
  -10.6906    1.8474    2.5052 H   0  0  0  0  0  0  0  0  0  0  0  0
  1  2  2  0  0  0
  1 23  1  0  0  0
  2  3  1  0  0  0
  3  4  2  0  0  0
  4 27  1  0  0  0
  4  5  1  0  0  0
 27 28  1  0  0  0
  5  6  1  0  0  0
  5 23  2  0  0  0
  6  7  2  0  0  0
  6  8  1  0  0  0
  8  9  2  0  0  0
  8 20  1  0  0  0
  9 10  1  0  0  0
  9 11  1  0  0  0
 11 12  1  0  0  0
 11 17  2  0  0  0
 12 34  1  0  0  0
 12 13  1  0  0  0
 34 35  1  0  0  0
 13 14  1  0  0  0
 14 15  1  0  0  0
 14 29  1  0  0  0
 14 16  1  0  0  0
 29 30  2  0  0  0
 29 31  1  0  0  0
 31 32  1  0  0  0
 16 17  1  0  0  0
 17 18  1  0  0  0
 18 19  1  0  0  0
 18 20  2  0  0  0
 20 21  1  0  0  0
 21 22  2  0  0  0
 21 23  1  0  0  0
 35 36  1  0  0  0
 35 42  1  0  0  0
 36 37  1  0  0  0
 37 38  1  0  0  0
 37 39  1  0  0  0
 39 40  1  0  0  0
 39 41  1  0  0  0
 41 42  1  0  0  0
 41 43  1  0  0  0
 10 24  1  0  0  0
 15 25  1  0  0  0
 32 33  1  0  0  0
 19 26  1  0  0  0
 38 44  1  0  0  0
 38 45  1  0  0  0
 40 46  1  0  0  0
M  END
> <minimizedAffinity>
-11.64421

$$$$
6FTP_DM2_B_501


 46 50  0  0  0  0  0  0  0  0999 V2000
  -17.0202    6.2951    1.5752 C   0  0  0  0  0  0  0  0  0  0  0  0
  -18.3425    6.7133    1.5718 C   0  0  0  0  0  0  0  0  0  0  0  0
  -19.3357    5.8427    1.1746 C   0  0  0  0  0  0  0  0  0  0  0  0
  -19.0148    4.5423    0.7763 C   0  0  0  0  0  0  0  0  0  0  0  0
  -17.6834    4.0920    0.7699 C   0  0  0  0  0  0  0  0  0  0  0  0
  -17.3203    2.7291    0.3551 C   0  0  0  0  0  0  0  0  0  0  0  0
  -18.1566    1.9147   -0.0064 O   0  0  0  0  0  0  0  0  0  0  0  0
  -15.8924    2.3675    0.3887 C   0  0  0  0  0  0  0  0  0  0  0  0
  -15.4962    1.0896    0.0057 C   0  0  0  0  0  0  0  0  0  0  0  0
  -16.4374    0.1915   -0.3949 O   0  0  0  0  0  0  0  0  0  0  0  0
  -14.1480    0.7094    0.0240 C   0  0  0  0  0  0  0  0  0  0  0  0
  -13.8105   -0.6857   -0.4039 C   0  0  0  0  0  0  0  0  0  0  0  0
  -12.3939   -1.0783    0.0523 C   0  0  0  0  0  0  0  0  0  0  0  0
  -11.4457    0.0440   -0.3874 C   0  0  0  0  0  0  0  0  0  0  0  0
  -11.7115    0.2802   -1.7378 O   0  0  0  0  0  0  0  0  0  0  0  0
  -11.7246    1.2745    0.4748 C   0  0  0  0  0  0  0  0  0  0  0  0
  -13.1748    1.6054    0.4288 C   0  0  0  0  0  0  0  0  0  0  0  0
  -13.5740    2.8907    0.8133 C   0  0  0  0  0  0  0  0  0  0  0  0
  -12.6161    3.7749    1.2112 O   0  0  0  0  0  0  0  0  0  0  0  0
  -14.9112    3.2732    0.7971 C   0  0  0  0  0  0  0  0  0  0  0  0
  -15.2761    4.6280    1.2082 C   0  0  0  0  0  0  0  0  0  0  0  0
  -14.4196    5.4278    1.5677 O   0  0  0  0  0  0  0  0  0  0  0  0
  -16.6988    5.0063    1.1806 C   0  0  0  0  0  0  0  0  0  0  0  0
  -17.3418    0.4362   -0.4106 H   0  0  0  0  0  0  0  0  0  0  0  0
  -11.5227   -0.5218   -2.2496 H   0  0  0  0  0  0  0  0  0  0  0  0
  -11.7155    3.5166    1.2219 H   0  0  0  0  0  0  0  0  0  0  0  0
  -19.9783    3.6601    0.3779 O   0  0  0  0  0  0  0  0  0  0  0  0
  -21.2721    4.2283    0.3339 C   0  0  0  0  0  0  0  0  0  0  0  0
   -9.9922   -0.4142   -0.1960 C   0  0  0  0  0  0  0  0  0  0  0  0
   -9.5428   -0.6720    0.8979 O   0  0  0  0  0  0  0  0  0  0  0  0
   -9.1533   -0.5268   -1.4514 C   0  0  0  0  0  0  0  0  0  0  0  0
   -9.5837   -1.7025   -2.0664 O   0  0  0  0  0  0  0  0  0  0  0  0
   -9.4654   -2.4481   -1.4573 H   0  0  0  0  0  0  0  0  0  0  0  0
  -13.9436   -0.7188   -1.8060 O   0  0  0  0  0  0  0  0  0  0  0  0
  -13.8091   -2.0234   -2.3265 C   0  0  0  0  0  0  0  0  0  0  0  0
  -15.1993   -2.5898   -2.6379 C   0  0  0  0  0  0  0  0  0  0  0  0
  -15.8838   -1.7187   -3.6977 C   0  0  0  0  0  0  0  0  0  0  0  0
  -17.1334   -2.3360   -4.1299 N   0  0  0  0  0  0  0  0  0  0  0  0
  -14.9323   -1.5699   -4.9226 C   0  0  0  0  0  0  0  0  0  0  0  0
  -14.7493   -2.8340   -5.4703 O   0  0  0  0  0  0  0  0  0  0  0  0
  -13.6004   -0.9869   -4.4097 C   0  0  0  0  0  0  0  0  0  0  0  0
  -13.0285   -1.8755   -3.4817 O   0  0  0  0  0  0  0  0  0  0  0  0
  -12.5842   -0.7679   -5.5198 C   0  0  0  0  0  0  0  0  0  0  0  0
  -16.9384   -3.2531   -4.5316 H   0  0  0  0  0  0  0  0  0  0  0  0
  -17.5795   -1.7453   -4.8317 H   0  0  0  0  0  0  0  0  0  0  0  0
  -14.3877   -3.4295   -4.7954 H   0  0  0  0  0  0  0  0  0  0  0  0
  1  2  2  0  0  0
  1 23  1  0  0  0
  2  3  1  0  0  0
  3  4  2  0  0  0
  4 27  1  0  0  0
  4  5  1  0  0  0
 27 28  1  0  0  0
  5  6  1  0  0  0
  5 23  2  0  0  0
  6  7  2  0  0  0
  6  8  1  0  0  0
  8  9  2  0  0  0
  8 20  1  0  0  0
  9 10  1  0  0  0
  9 11  1  0  0  0
 11 12  1  0  0  0
 11 17  2  0  0  0
 12 34  1  0  0  0
 12 13  1  0  0  0
 34 35  1  0  0  0
 13 14  1  0  0  0
 14 15  1  0  0  0
 14 29  1  0  0  0
 14 16  1  0  0  0
 29 30  2  0  0  0
 29 31  1  0  0  0
 31 32  1  0  0  0
 16 17  1  0  0  0
 17 18  1  0  0  0
 18 19  1  0  0  0
 18 20  2  0  0  0
 20 21  1  0  0  0
 21 22  2  0  0  0
 21 23  1  0  0  0
 35 36  1  0  0  0
 35 42  1  0  0  0
 36 37  1  0  0  0
 37 38  1  0  0  0
 37 39  1  0  0  0
 39 40  1  0  0  0
 39 41  1  0  0  0
 41 42  1  0  0  0
 41 43  1  0  0  0
 10 24  1  0  0  0
 15 25  1  0  0  0
 32 33  1  0  0  0
 19 26  1  0  0  0
 38 44  1  0  0  0
 38 45  1  0  0  0
 40 46  1  0  0  0
M  END
> <minimizedAffinity>
-8.68359

$$$$
