1JCX_PAI_A_1300


 35 34  0  0  0  0  0  0  0  0999 V2000
   34.6950   53.1799   19.6193 C   0  0  0  0  0  0  0  0  0  0  0  0
   34.5026   54.1943   20.6006 O   0  0  0  0  0  0  0  0  0  0  0  0
   35.0709   54.0156   21.3661 H   0  0  0  0  0  0  0  0  0  0  0  0
   36.0921   53.1135   19.0036 C   0  0  0  0  0  0  0  0  0  0  0  0
   36.3655   51.8471   18.3895 O   0  0  0  0  0  0  0  0  0  0  0  0
   35.7217   51.6849   17.6824 H   0  0  0  0  0  0  0  0  0  0  0  0
   36.1887   54.3007   18.0296 C   0  0  0  0  0  0  0  0  0  0  0  0
   34.9009   54.8281   17.6792 O   0  0  0  0  0  0  0  0  0  0  0  0
   34.3783   54.1394   17.2392 H   0  0  0  0  0  0  0  0  0  0  0  0
   37.0788   53.8800   16.8512 C   0  0  0  0  0  0  0  0  0  0  0  0
   38.1918   54.7675   16.6988 O   0  0  0  0  0  0  0  0  0  0  0  0
   37.8680   55.6679   16.5398 H   0  0  0  0  0  0  0  0  0  0  0  0
   36.1879   53.8129   15.6114 C   0  0  0  0  0  0  0  0  0  0  0  0
   35.1577   52.8267   15.6516 O   0  0  0  0  0  0  0  0  0  0  0  0
   35.2076   51.3451   15.0632 P   0  0  0  0  0  0  0  0  0  0  0  0
   33.8802   51.2398   14.4082 O   0  0  0  0  0  0  0  0  0  0  0  0
   36.3479   51.3419   14.1187 O   0  0  0  0  0  0  0  0  0  0  0  0
   35.3976   50.3393   16.1384 O   0  0  0  0  0  0  0  0  0  0  0  0
   36.1979   52.0066   13.4284 H   0  0  0  0  0  0  0  0  0  0  0  0
   35.4237   49.4511   15.7494 H   0  0  0  0  0  0  0  0  0  0  0  0
   34.3759   51.8696   20.3290 C   0  0  0  0  0  0  0  0  0  0  0  0
   33.0175   51.7337   20.3578 N   0  0  0  0  0  0  0  0  0  0  0  0
   32.4900   51.5027   21.6054 C   0  0  0  0  0  0  0  0  0  0  0  0
   32.8711   52.2263   22.8900 C   0  0  0  0  0  0  0  0  0  0  0  0
   33.1739   51.4405   23.8421 O   0  0  0  0  0  0  0  0  0  0  0  0
   32.7880   53.4093   22.9313 O   0  0  0  0  0  0  0  0  0  0  0  0
   33.2094   50.5161   23.6934 H   0  0  0  0  0  0  0  0  0  0  0  0
   32.5554   53.8897   22.1612 H   0  0  0  0  0  0  0  0  0  0  0  0
   32.5360   50.9064   19.3712 C   0  0  0  0  0  0  0  0  0  0  0  0
   32.3481   49.4280   18.9527 P   0  0  0  0  0  0  0  0  0  0  0  0
   33.0625   49.5041   17.6818 O   0  0  0  0  0  0  0  0  0  0  0  0
   30.9151   49.0480   18.8034 O   0  0  0  0  0  0  0  0  0  0  0  0
   32.9565   48.6017   20.1270 O   0  0  0  0  0  0  0  0  0  0  0  0
   30.5206   49.5538   18.0757 H   0  0  0  0  0  0  0  0  0  0  0  0
   33.8909   48.8374   20.2380 H   0  0  0  0  0  0  0  0  0  0  0  0
 15 16  2  0  0  0
 15 17  1  0  0  0
 15 14  1  0  0  0
 15 18  1  0  0  0
 14 13  1  0  0  0
 13 10  1  0  0  0
 10 11  1  0  0  0
 10  7  1  0  0  0
  7  8  1  0  0  0
  7  4  1  0  0  0
  4  5  1  0  0  0
  4  1  1  0  0  0
  1  2  1  0  0  0
  1 21  1  0  0  0
 21 22  1  0  0  0
 22 23  1  0  0  0
 22 29  1  0  0  0
 23 24  1  0  0  0
 24 25  1  0  0  0
 24 26  1  0  0  0
 29 30  1  0  0  0
 30 31  2  0  0  0
 30 32  1  0  0  0
 30 33  1  0  0  0
 17 19  1  0  0  0
 18 20  1  0  0  0
 11 12  1  0  0  0
  8  9  1  0  0  0
  5  6  1  0  0  0
  2  3  1  0  0  0
 25 27  1  0  0  0
 26 28  1  0  0  0
 32 34  1  0  0  0
 33 35  1  0  0  0
M  END
> <minimizedAffinity>
-9.43407

$$$$
1JCX_PAI_A_1300


 35 34  0  0  0  0  0  0  0  0999 V2000
   35.4890   52.0674   19.3836 C   0  0  0  0  0  0  0  0  0  0  0  0
   36.2274   51.5726   18.2706 O   0  0  0  0  0  0  0  0  0  0  0  0
   35.6346   51.4685   17.5099 H   0  0  0  0  0  0  0  0  0  0  0  0
   34.8967   53.4659   19.2140 C   0  0  0  0  0  0  0  0  0  0  0  0
   34.5819   54.0882   20.4667 O   0  0  0  0  0  0  0  0  0  0  0  0
   35.3888   54.1703   20.9987 H   0  0  0  0  0  0  0  0  0  0  0  0
   35.9089   54.2614   18.3714 C   0  0  0  0  0  0  0  0  0  0  0  0
   36.4288   55.4011   19.0715 O   0  0  0  0  0  0  0  0  0  0  0  0
   35.7022   56.0051   19.2905 H   0  0  0  0  0  0  0  0  0  0  0  0
   35.2686   54.5537   17.0067 C   0  0  0  0  0  0  0  0  0  0  0  0
   34.6605   53.3801   16.4567 O   0  0  0  0  0  0  0  0  0  0  0  0
   35.3327   52.6898   16.3449 H   0  0  0  0  0  0  0  0  0  0  0  0
   36.3580   55.1434   16.1118 C   0  0  0  0  0  0  0  0  0  0  0  0
   37.6818   54.6813   16.3749 O   0  0  0  0  0  0  0  0  0  0  0  0
   38.3644   53.3386   15.8505 P   0  0  0  0  0  0  0  0  0  0  0  0
   37.3282   52.8199   14.9236 O   0  0  0  0  0  0  0  0  0  0  0  0
   39.6103   53.7742   15.1793 O   0  0  0  0  0  0  0  0  0  0  0  0
   38.6541   52.4041   16.9671 O   0  0  0  0  0  0  0  0  0  0  0  0
   39.3921   54.3824   14.4558 H   0  0  0  0  0  0  0  0  0  0  0  0
   39.0676   51.5997   16.6165 H   0  0  0  0  0  0  0  0  0  0  0  0
   34.3739   51.0532   19.6079 C   0  0  0  0  0  0  0  0  0  0  0  0
   34.2927   50.8162   20.9502 N   0  0  0  0  0  0  0  0  0  0  0  0
   34.7339   49.5751   21.3417 C   0  0  0  0  0  0  0  0  0  0  0  0
   36.1827   49.1699   21.5776 C   0  0  0  0  0  0  0  0  0  0  0  0
   36.7489   49.8326   22.5027 O   0  0  0  0  0  0  0  0  0  0  0  0
   36.6775   48.3596   20.8658 O   0  0  0  0  0  0  0  0  0  0  0  0
   36.2559   50.4510   23.0052 H   0  0  0  0  0  0  0  0  0  0  0  0
   36.1596   47.9305   20.2133 H   0  0  0  0  0  0  0  0  0  0  0  0
   33.0873   51.1922   21.4936 C   0  0  0  0  0  0  0  0  0  0  0  0
   32.4209   51.9685   22.6552 P   0  0  0  0  0  0  0  0  0  0  0  0
   31.0359   51.7731   22.2366 O   0  0  0  0  0  0  0  0  0  0  0  0
   32.8280   53.4011   22.7006 O   0  0  0  0  0  0  0  0  0  0  0  0
   32.9376   51.2688   23.9495 O   0  0  0  0  0  0  0  0  0  0  0  0
   32.5139   53.8520   21.9012 H   0  0  0  0  0  0  0  0  0  0  0  0
   32.6806   50.3336   23.9360 H   0  0  0  0  0  0  0  0  0  0  0  0
 15 16  2  0  0  0
 15 17  1  0  0  0
 15 14  1  0  0  0
 15 18  1  0  0  0
 14 13  1  0  0  0
 13 10  1  0  0  0
 10 11  1  0  0  0
 10  7  1  0  0  0
  7  8  1  0  0  0
  7  4  1  0  0  0
  4  5  1  0  0  0
  4  1  1  0  0  0
  1  2  1  0  0  0
  1 21  1  0  0  0
 21 22  1  0  0  0
 22 23  1  0  0  0
 22 29  1  0  0  0
 23 24  1  0  0  0
 24 25  1  0  0  0
 24 26  1  0  0  0
 29 30  1  0  0  0
 30 31  2  0  0  0
 30 32  1  0  0  0
 30 33  1  0  0  0
 17 19  1  0  0  0
 18 20  1  0  0  0
 11 12  1  0  0  0
  8  9  1  0  0  0
  5  6  1  0  0  0
  2  3  1  0  0  0
 25 27  1  0  0  0
 26 28  1  0  0  0
 32 34  1  0  0  0
 33 35  1  0  0  0
M  END
> <minimizedAffinity>
-9.19928

$$$$
1JCX_PAI_A_1300


 35 34  0  0  0  0  0  0  0  0999 V2000
   34.5584   52.9367   19.6650 C   0  0  0  0  0  0  0  0  0  0  0  0
   34.6840   54.0436   20.5525 O   0  0  0  0  0  0  0  0  0  0  0  0
   35.5412   54.0000   21.0045 H   0  0  0  0  0  0  0  0  0  0  0  0
   35.5567   52.9011   18.5084 C   0  0  0  0  0  0  0  0  0  0  0  0
   36.0261   51.5765   18.2244 O   0  0  0  0  0  0  0  0  0  0  0  0
   35.2747   51.0115   17.9852 H   0  0  0  0  0  0  0  0  0  0  0  0
   34.8546   53.5719   17.3148 C   0  0  0  0  0  0  0  0  0  0  0  0
   34.7918   52.7162   16.1646 O   0  0  0  0  0  0  0  0  0  0  0  0
   35.6912   52.4928   15.8783 H   0  0  0  0  0  0  0  0  0  0  0  0
   35.5049   54.9445   17.0886 C   0  0  0  0  0  0  0  0  0  0  0  0
   35.4097   55.3442   15.7173 O   0  0  0  0  0  0  0  0  0  0  0  0
   35.8576   54.6903   15.1580 H   0  0  0  0  0  0  0  0  0  0  0  0
   36.9454   54.8518   17.5904 C   0  0  0  0  0  0  0  0  0  0  0  0
   37.9386   54.7138   16.5755 O   0  0  0  0  0  0  0  0  0  0  0  0
   38.4002   53.3741   15.8435 P   0  0  0  0  0  0  0  0  0  0  0  0
   39.6585   53.8105   15.1891 O   0  0  0  0  0  0  0  0  0  0  0  0
   38.5964   52.3873   16.9299 O   0  0  0  0  0  0  0  0  0  0  0  0
   37.3804   52.9069   14.8710 O   0  0  0  0  0  0  0  0  0  0  0  0
   39.2661   52.7171   17.5493 H   0  0  0  0  0  0  0  0  0  0  0  0
   37.6899   52.0929   14.4439 H   0  0  0  0  0  0  0  0  0  0  0  0
   34.7300   51.7002   20.5392 C   0  0  0  0  0  0  0  0  0  0  0  0
   33.4866   51.1967   20.7940 N   0  0  0  0  0  0  0  0  0  0  0  0
   33.1239   51.2063   22.1193 C   0  0  0  0  0  0  0  0  0  0  0  0
   32.3090   52.2852   22.8200 C   0  0  0  0  0  0  0  0  0  0  0  0
   32.8482   53.4354   22.7748 O   0  0  0  0  0  0  0  0  0  0  0  0
   31.3180   51.9765   23.3950 O   0  0  0  0  0  0  0  0  0  0  0  0
   33.6368   53.5643   22.2854 H   0  0  0  0  0  0  0  0  0  0  0  0
   31.0112   51.0919   23.3580 H   0  0  0  0  0  0  0  0  0  0  0  0
   33.2390   50.0121   20.1420 C   0  0  0  0  0  0  0  0  0  0  0  0
   32.9148   49.3793   18.7671 P   0  0  0  0  0  0  0  0  0  0  0  0
   33.5655   48.0930   18.9983 O   0  0  0  0  0  0  0  0  0  0  0  0
   33.5000   50.1414   17.6283 O   0  0  0  0  0  0  0  0  0  0  0  0
   31.3607   49.4442   18.6558 O   0  0  0  0  0  0  0  0  0  0  0  0
   34.4680   50.1111   17.6825 H   0  0  0  0  0  0  0  0  0  0  0  0
   30.9630   48.9520   19.3910 H   0  0  0  0  0  0  0  0  0  0  0  0
 15 16  2  0  0  0
 15 17  1  0  0  0
 15 14  1  0  0  0
 15 18  1  0  0  0
 14 13  1  0  0  0
 13 10  1  0  0  0
 10 11  1  0  0  0
 10  7  1  0  0  0
  7  8  1  0  0  0
  7  4  1  0  0  0
  4  5  1  0  0  0
  4  1  1  0  0  0
  1  2  1  0  0  0
  1 21  1  0  0  0
 21 22  1  0  0  0
 22 23  1  0  0  0
 22 29  1  0  0  0
 23 24  1  0  0  0
 24 25  1  0  0  0
 24 26  1  0  0  0
 29 30  1  0  0  0
 30 31  2  0  0  0
 30 32  1  0  0  0
 30 33  1  0  0  0
 17 19  1  0  0  0
 18 20  1  0  0  0
 11 12  1  0  0  0
  8  9  1  0  0  0
  5  6  1  0  0  0
  2  3  1  0  0  0
 25 27  1  0  0  0
 26 28  1  0  0  0
 32 34  1  0  0  0
 33 35  1  0  0  0
M  END
> <minimizedAffinity>
-9.13216

$$$$
1JCX_PAI_A_1300


 35 34  0  0  0  0  0  0  0  0999 V2000
   35.1405   53.0810   19.5860 C   0  0  0  0  0  0  0  0  0  0  0  0
   34.6521   54.1093   20.4421 O   0  0  0  0  0  0  0  0  0  0  0  0
   35.2896   54.2654   21.1563 H   0  0  0  0  0  0  0  0  0  0  0  0
   36.4298   53.4060   18.8325 C   0  0  0  0  0  0  0  0  0  0  0  0
   36.9879   52.2616   18.1735 O   0  0  0  0  0  0  0  0  0  0  0  0
   36.3488   51.9143   17.5318 H   0  0  0  0  0  0  0  0  0  0  0  0
   36.0872   54.5594   17.8735 C   0  0  0  0  0  0  0  0  0  0  0  0
   34.6726   54.7209   17.6941 O   0  0  0  0  0  0  0  0  0  0  0  0
   34.3006   53.9110   17.3113 H   0  0  0  0  0  0  0  0  0  0  0  0
   36.9038   54.3688   16.5871 C   0  0  0  0  0  0  0  0  0  0  0  0
   37.7178   55.5145   16.3146 O   0  0  0  0  0  0  0  0  0  0  0  0
   37.1524   56.2961   16.2128 H   0  0  0  0  0  0  0  0  0  0  0  0
   35.9154   54.0518   15.4655 C   0  0  0  0  0  0  0  0  0  0  0  0
   35.1666   52.8488   15.6324 O   0  0  0  0  0  0  0  0  0  0  0  0
   35.5256   51.3964   15.0800 P   0  0  0  0  0  0  0  0  0  0  0  0
   34.2162   50.7061   15.1838 O   0  0  0  0  0  0  0  0  0  0  0  0
   35.9841   51.6137   13.6889 O   0  0  0  0  0  0  0  0  0  0  0  0
   36.5814   50.7490   15.8987 O   0  0  0  0  0  0  0  0  0  0  0  0
   35.2766   52.0368   13.1777 H   0  0  0  0  0  0  0  0  0  0  0  0
   36.7766   49.8700   15.5381 H   0  0  0  0  0  0  0  0  0  0  0  0
   35.3566   51.8744   20.4914 C   0  0  0  0  0  0  0  0  0  0  0  0
   34.2423   51.0894   20.4092 N   0  0  0  0  0  0  0  0  0  0  0  0
   33.4731   51.2998   19.2902 C   0  0  0  0  0  0  0  0  0  0  0  0
   32.5370   50.2896   18.6404 C   0  0  0  0  0  0  0  0  0  0  0  0
   33.1001   49.5785   17.7500 O   0  0  0  0  0  0  0  0  0  0  0  0
   31.3893   50.2909   18.9417 O   0  0  0  0  0  0  0  0  0  0  0  0
   34.0207   49.6620   17.5966 H   0  0  0  0  0  0  0  0  0  0  0  0
   31.0832   50.8619   19.6186 H   0  0  0  0  0  0  0  0  0  0  0  0
   33.5350   51.0297   21.5864 C   0  0  0  0  0  0  0  0  0  0  0  0
   32.6055   51.8251   22.5348 P   0  0  0  0  0  0  0  0  0  0  0  0
   31.3422   51.4693   21.8956 O   0  0  0  0  0  0  0  0  0  0  0  0
   32.8831   53.2889   22.5213 O   0  0  0  0  0  0  0  0  0  0  0  0
   32.9265   51.2764   23.9588 O   0  0  0  0  0  0  0  0  0  0  0  0
   32.6883   53.6469   21.6411 H   0  0  0  0  0  0  0  0  0  0  0  0
   32.7509   50.3228   23.9850 H   0  0  0  0  0  0  0  0  0  0  0  0
 15 16  2  0  0  0
 15 17  1  0  0  0
 15 14  1  0  0  0
 15 18  1  0  0  0
 14 13  1  0  0  0
 13 10  1  0  0  0
 10 11  1  0  0  0
 10  7  1  0  0  0
  7  8  1  0  0  0
  7  4  1  0  0  0
  4  5  1  0  0  0
  4  1  1  0  0  0
  1  2  1  0  0  0
  1 21  1  0  0  0
 21 22  1  0  0  0
 22 23  1  0  0  0
 22 29  1  0  0  0
 23 24  1  0  0  0
 24 25  1  0  0  0
 24 26  1  0  0  0
 29 30  1  0  0  0
 30 31  2  0  0  0
 30 32  1  0  0  0
 30 33  1  0  0  0
 17 19  1  0  0  0
 18 20  1  0  0  0
 11 12  1  0  0  0
  8  9  1  0  0  0
  5  6  1  0  0  0
  2  3  1  0  0  0
 25 27  1  0  0  0
 26 28  1  0  0  0
 32 34  1  0  0  0
 33 35  1  0  0  0
M  END
> <minimizedAffinity>
-9.11190

$$$$
1JCX_PAI_A_1300


 35 34  0  0  0  0  0  0  0  0999 V2000
   34.8472   53.4989   19.2628 C   0  0  0  0  0  0  0  0  0  0  0  0
   34.6088   54.1264   20.5191 O   0  0  0  0  0  0  0  0  0  0  0  0
   35.1243   53.6778   21.2076 H   0  0  0  0  0  0  0  0  0  0  0  0
   36.2795   53.5942   18.7383 C   0  0  0  0  0  0  0  0  0  0  0  0
   36.7825   52.3347   18.2734 O   0  0  0  0  0  0  0  0  0  0  0  0
   36.2229   52.0099   17.5507 H   0  0  0  0  0  0  0  0  0  0  0  0
   36.2681   54.6873   17.6556 C   0  0  0  0  0  0  0  0  0  0  0  0
   34.9413   55.1381   17.3461 O   0  0  0  0  0  0  0  0  0  0  0  0
   34.4181   54.3949   17.0072 H   0  0  0  0  0  0  0  0  0  0  0  0
   37.0960   54.1865   16.4632 C   0  0  0  0  0  0  0  0  0  0  0  0
   38.1191   55.1241   16.1115 O   0  0  0  0  0  0  0  0  0  0  0  0
   37.7128   55.9726   15.8753 H   0  0  0  0  0  0  0  0  0  0  0  0
   36.1208   53.9027   15.3214 C   0  0  0  0  0  0  0  0  0  0  0  0
   35.1505   52.8902   15.5836 O   0  0  0  0  0  0  0  0  0  0  0  0
   35.2190   51.3498   15.1759 P   0  0  0  0  0  0  0  0  0  0  0  0
   33.9074   51.1596   14.5084 O   0  0  0  0  0  0  0  0  0  0  0  0
   36.3808   51.2421   14.2642 O   0  0  0  0  0  0  0  0  0  0  0  0
   35.3879   50.4793   16.3666 O   0  0  0  0  0  0  0  0  0  0  0  0
   36.2443   51.8196   13.4969 H   0  0  0  0  0  0  0  0  0  0  0  0
   35.4260   49.5516   16.0860 H   0  0  0  0  0  0  0  0  0  0  0  0
   34.4628   52.0381   19.4648 C   0  0  0  0  0  0  0  0  0  0  0  0
   34.6566   51.7366   20.7824 N   0  0  0  0  0  0  0  0  0  0  0  0
   35.6803   50.8526   21.0245 C   0  0  0  0  0  0  0  0  0  0  0  0
   35.5781   49.3334   21.0084 C   0  0  0  0  0  0  0  0  0  0  0  0
   35.9178   48.7921   22.1072 O   0  0  0  0  0  0  0  0  0  0  0  0
   35.2780   48.7868   19.9988 O   0  0  0  0  0  0  0  0  0  0  0  0
   36.1356   49.3267   22.8452 H   0  0  0  0  0  0  0  0  0  0  0  0
   35.0434   49.2912   19.2449 H   0  0  0  0  0  0  0  0  0  0  0  0
   33.4883   51.4554   21.4501 C   0  0  0  0  0  0  0  0  0  0  0  0
   32.5858   51.8778   22.6346 P   0  0  0  0  0  0  0  0  0  0  0  0
   32.8863   53.3059   22.5950 O   0  0  0  0  0  0  0  0  0  0  0  0
   32.9749   51.2273   23.9174 O   0  0  0  0  0  0  0  0  0  0  0  0
   31.1595   51.3824   22.2444 O   0  0  0  0  0  0  0  0  0  0  0  0
   33.8614   51.5250   24.1750 H   0  0  0  0  0  0  0  0  0  0  0  0
   30.8903   51.7971   21.4099 H   0  0  0  0  0  0  0  0  0  0  0  0
 15 16  2  0  0  0
 15 17  1  0  0  0
 15 14  1  0  0  0
 15 18  1  0  0  0
 14 13  1  0  0  0
 13 10  1  0  0  0
 10 11  1  0  0  0
 10  7  1  0  0  0
  7  8  1  0  0  0
  7  4  1  0  0  0
  4  5  1  0  0  0
  4  1  1  0  0  0
  1  2  1  0  0  0
  1 21  1  0  0  0
 21 22  1  0  0  0
 22 23  1  0  0  0
 22 29  1  0  0  0
 23 24  1  0  0  0
 24 25  1  0  0  0
 24 26  1  0  0  0
 29 30  1  0  0  0
 30 31  2  0  0  0
 30 32  1  0  0  0
 30 33  1  0  0  0
 17 19  1  0  0  0
 18 20  1  0  0  0
 11 12  1  0  0  0
  8  9  1  0  0  0
  5  6  1  0  0  0
  2  3  1  0  0  0
 25 27  1  0  0  0
 26 28  1  0  0  0
 32 34  1  0  0  0
 33 35  1  0  0  0
M  END
> <minimizedAffinity>
-9.02311

$$$$
1JCX_PAI_A_1300


 35 34  0  0  0  0  0  0  0  0999 V2000
   34.7110   52.7712   19.5258 C   0  0  0  0  0  0  0  0  0  0  0  0
   34.6675   53.9236   20.3619 O   0  0  0  0  0  0  0  0  0  0  0  0
   35.5287   54.0438   20.7918 H   0  0  0  0  0  0  0  0  0  0  0  0
   35.6782   52.8481   18.3451 C   0  0  0  0  0  0  0  0  0  0  0  0
   36.1752   51.5616   17.9534 O   0  0  0  0  0  0  0  0  0  0  0  0
   35.4331   50.9941   17.6924 H   0  0  0  0  0  0  0  0  0  0  0  0
   34.9265   53.5831   17.2217 C   0  0  0  0  0  0  0  0  0  0  0  0
   34.8868   52.8266   16.0030 O   0  0  0  0  0  0  0  0  0  0  0  0
   35.7913   52.6728   15.6883 H   0  0  0  0  0  0  0  0  0  0  0  0
   35.5068   55.0002   17.1070 C   0  0  0  0  0  0  0  0  0  0  0  0
   35.3875   55.5033   15.7720 O   0  0  0  0  0  0  0  0  0  0  0  0
   35.8658   54.9196   15.1626 H   0  0  0  0  0  0  0  0  0  0  0  0
   36.9516   54.9397   17.6011 C   0  0  0  0  0  0  0  0  0  0  0  0
   37.9487   54.9821   16.5815 O   0  0  0  0  0  0  0  0  0  0  0  0
   38.5513   53.7550   15.7602 P   0  0  0  0  0  0  0  0  0  0  0  0
   37.5339   53.5819   14.6938 O   0  0  0  0  0  0  0  0  0  0  0  0
   39.8660   54.2264   15.2686 O   0  0  0  0  0  0  0  0  0  0  0  0
   38.6977   52.5491   16.6137 O   0  0  0  0  0  0  0  0  0  0  0  0
   39.7410   55.0132   14.7151 H   0  0  0  0  0  0  0  0  0  0  0  0
   39.0655   51.8226   16.0866 H   0  0  0  0  0  0  0  0  0  0  0  0
   35.1037   51.6222   20.4467 C   0  0  0  0  0  0  0  0  0  0  0  0
   33.9768   50.8968   20.7085 N   0  0  0  0  0  0  0  0  0  0  0  0
   33.0245   50.9383   19.7188 C   0  0  0  0  0  0  0  0  0  0  0  0
   32.3180   49.7391   19.1011 C   0  0  0  0  0  0  0  0  0  0  0  0
   31.6503   49.0577   19.9412 O   0  0  0  0  0  0  0  0  0  0  0  0
   32.4945   49.4946   17.9535 O   0  0  0  0  0  0  0  0  0  0  0  0
   31.5778   49.3490   20.8288 H   0  0  0  0  0  0  0  0  0  0  0  0
   33.0083   50.0731   17.4249 H   0  0  0  0  0  0  0  0  0  0  0  0
   33.4902   51.0939   21.9790 C   0  0  0  0  0  0  0  0  0  0  0  0
   32.4979   51.9238   22.8291 P   0  0  0  0  0  0  0  0  0  0  0  0
   32.8802   51.3890   24.1327 O   0  0  0  0  0  0  0  0  0  0  0  0
   31.0745   51.6600   22.4764 O   0  0  0  0  0  0  0  0  0  0  0  0
   32.8235   53.4091   22.4834 O   0  0  0  0  0  0  0  0  0  0  0  0
   30.8550   50.7386   22.6855 H   0  0  0  0  0  0  0  0  0  0  0  0
   33.7482   53.5980   22.7074 H   0  0  0  0  0  0  0  0  0  0  0  0
 15 16  2  0  0  0
 15 17  1  0  0  0
 15 14  1  0  0  0
 15 18  1  0  0  0
 14 13  1  0  0  0
 13 10  1  0  0  0
 10 11  1  0  0  0
 10  7  1  0  0  0
  7  8  1  0  0  0
  7  4  1  0  0  0
  4  5  1  0  0  0
  4  1  1  0  0  0
  1  2  1  0  0  0
  1 21  1  0  0  0
 21 22  1  0  0  0
 22 23  1  0  0  0
 22 29  1  0  0  0
 23 24  1  0  0  0
 24 25  1  0  0  0
 24 26  1  0  0  0
 29 30  1  0  0  0
 30 31  2  0  0  0
 30 32  1  0  0  0
 30 33  1  0  0  0
 17 19  1  0  0  0
 18 20  1  0  0  0
 11 12  1  0  0  0
  8  9  1  0  0  0
  5  6  1  0  0  0
  2  3  1  0  0  0
 25 27  1  0  0  0
 26 28  1  0  0  0
 32 34  1  0  0  0
 33 35  1  0  0  0
M  END
> <minimizedAffinity>
-8.71809

$$$$
1JCX_PAI_A_1300


 35 34  0  0  0  0  0  0  0  0999 V2000
   34.9877   53.2924   19.5620 C   0  0  0  0  0  0  0  0  0  0  0  0
   34.5912   54.2213   20.5665 O   0  0  0  0  0  0  0  0  0  0  0  0
   35.2030   54.1664   21.3172 H   0  0  0  0  0  0  0  0  0  0  0  0
   36.3483   53.5568   18.9182 C   0  0  0  0  0  0  0  0  0  0  0  0
   37.4214   52.8993   19.6048 O   0  0  0  0  0  0  0  0  0  0  0  0
   37.2710   51.9411   19.5975 H   0  0  0  0  0  0  0  0  0  0  0  0
   36.2145   53.1363   17.4442 C   0  0  0  0  0  0  0  0  0  0  0  0
   37.0699   52.0339   17.1092 O   0  0  0  0  0  0  0  0  0  0  0  0
   37.9953   52.2880   17.2510 H   0  0  0  0  0  0  0  0  0  0  0  0
   36.3740   54.3911   16.5736 C   0  0  0  0  0  0  0  0  0  0  0  0
   35.2522   55.2688   16.7178 O   0  0  0  0  0  0  0  0  0  0  0  0
   34.4427   54.8052   16.4521 H   0  0  0  0  0  0  0  0  0  0  0  0
   36.5899   53.9208   15.1357 C   0  0  0  0  0  0  0  0  0  0  0  0
   35.4718   53.2746   14.5294 O   0  0  0  0  0  0  0  0  0  0  0  0
   35.4126   51.8006   13.9232 P   0  0  0  0  0  0  0  0  0  0  0  0
   34.0130   51.4104   14.2249 O   0  0  0  0  0  0  0  0  0  0  0  0
   35.6950   51.9644   12.4790 O   0  0  0  0  0  0  0  0  0  0  0  0
   36.4082   50.9075   14.5675 O   0  0  0  0  0  0  0  0  0  0  0  0
   35.0310   52.5511   12.0842 H   0  0  0  0  0  0  0  0  0  0  0  0
   36.3472   50.0212   14.1781 H   0  0  0  0  0  0  0  0  0  0  0  0
   34.9934   51.9337   20.2520 C   0  0  0  0  0  0  0  0  0  0  0  0
   33.6939   51.5630   20.4486 N   0  0  0  0  0  0  0  0  0  0  0  0
   33.4196   51.0756   21.7038 C   0  0  0  0  0  0  0  0  0  0  0  0
   32.9709   51.8941   22.9070 C   0  0  0  0  0  0  0  0  0  0  0  0
   32.7637   53.1187   22.6367 O   0  0  0  0  0  0  0  0  0  0  0  0
   32.9236   51.3738   23.9724 O   0  0  0  0  0  0  0  0  0  0  0  0
   32.8290   53.4207   21.7521 H   0  0  0  0  0  0  0  0  0  0  0  0
   33.0961   50.4564   24.0538 H   0  0  0  0  0  0  0  0  0  0  0  0
   33.1853   50.8082   19.4184 C   0  0  0  0  0  0  0  0  0  0  0  0
   33.5304   49.7322   18.3606 P   0  0  0  0  0  0  0  0  0  0  0  0
   32.1737   49.2336   18.1556 O   0  0  0  0  0  0  0  0  0  0  0  0
   34.4692   48.6962   18.8759 O   0  0  0  0  0  0  0  0  0  0  0  0
   34.2419   50.5146   17.2145 O   0  0  0  0  0  0  0  0  0  0  0  0
   34.0416   48.1993   19.5908 H   0  0  0  0  0  0  0  0  0  0  0  0
   33.6434   51.1943   16.8671 H   0  0  0  0  0  0  0  0  0  0  0  0
 15 16  2  0  0  0
 15 17  1  0  0  0
 15 14  1  0  0  0
 15 18  1  0  0  0
 14 13  1  0  0  0
 13 10  1  0  0  0
 10 11  1  0  0  0
 10  7  1  0  0  0
  7  8  1  0  0  0
  7  4  1  0  0  0
  4  5  1  0  0  0
  4  1  1  0  0  0
  1  2  1  0  0  0
  1 21  1  0  0  0
 21 22  1  0  0  0
 22 23  1  0  0  0
 22 29  1  0  0  0
 23 24  1  0  0  0
 24 25  1  0  0  0
 24 26  1  0  0  0
 29 30  1  0  0  0
 30 31  2  0  0  0
 30 32  1  0  0  0
 30 33  1  0  0  0
 17 19  1  0  0  0
 18 20  1  0  0  0
 11 12  1  0  0  0
  8  9  1  0  0  0
  5  6  1  0  0  0
  2  3  1  0  0  0
 25 27  1  0  0  0
 26 28  1  0  0  0
 32 34  1  0  0  0
 33 35  1  0  0  0
M  END
> <minimizedAffinity>
-8.63260

$$$$
1JCX_PAI_A_1300


 35 34  0  0  0  0  0  0  0  0999 V2000
   34.5465   52.3545   18.4129 C   0  0  0  0  0  0  0  0  0  0  0  0
   33.7967   52.4759   17.2080 O   0  0  0  0  0  0  0  0  0  0  0  0
   33.0185   53.0330   17.3661 H   0  0  0  0  0  0  0  0  0  0  0  0
   35.1536   53.6516   18.9463 C   0  0  0  0  0  0  0  0  0  0  0  0
   34.5660   54.0676   20.1862 O   0  0  0  0  0  0  0  0  0  0  0  0
   34.7022   53.3791   20.8557 H   0  0  0  0  0  0  0  0  0  0  0  0
   36.6704   53.4099   19.0372 C   0  0  0  0  0  0  0  0  0  0  0  0
   37.0330   52.6302   20.1861 O   0  0  0  0  0  0  0  0  0  0  0  0
   36.7699   53.1008   20.9924 H   0  0  0  0  0  0  0  0  0  0  0  0
   37.3786   54.7657   18.9024 C   0  0  0  0  0  0  0  0  0  0  0  0
   36.8850   55.7068   19.8616 O   0  0  0  0  0  0  0  0  0  0  0  0
   35.9332   55.8367   19.7269 H   0  0  0  0  0  0  0  0  0  0  0  0
   37.1997   55.2288   17.4571 C   0  0  0  0  0  0  0  0  0  0  0  0
   37.7511   54.3640   16.4653 O   0  0  0  0  0  0  0  0  0  0  0  0
   36.9821   53.6443   15.2677 P   0  0  0  0  0  0  0  0  0  0  0  0
   35.5952   54.1327   15.4680 O   0  0  0  0  0  0  0  0  0  0  0  0
   37.6271   54.1497   14.0344 O   0  0  0  0  0  0  0  0  0  0  0  0
   37.0889   52.1667   15.3631 O   0  0  0  0  0  0  0  0  0  0  0  0
   37.5427   55.1153   13.9977 H   0  0  0  0  0  0  0  0  0  0  0  0
   36.6124   51.7596   14.6228 H   0  0  0  0  0  0  0  0  0  0  0  0
   33.5740   51.7763   19.4339 C   0  0  0  0  0  0  0  0  0  0  0  0
   34.3025   51.0659   20.3444 N   0  0  0  0  0  0  0  0  0  0  0  0
   34.7758   49.8601   19.8858 C   0  0  0  0  0  0  0  0  0  0  0  0
   34.0214   48.8765   19.0013 C   0  0  0  0  0  0  0  0  0  0  0  0
   34.5140   48.7648   17.8349 O   0  0  0  0  0  0  0  0  0  0  0  0
   33.0328   48.3688   19.4173 O   0  0  0  0  0  0  0  0  0  0  0  0
   35.3060   49.2150   17.6157 H   0  0  0  0  0  0  0  0  0  0  0  0
   32.7631   48.5232   20.3012 H   0  0  0  0  0  0  0  0  0  0  0  0
   33.7142   51.0145   21.5857 C   0  0  0  0  0  0  0  0  0  0  0  0
   32.7069   51.7167   22.5282 P   0  0  0  0  0  0  0  0  0  0  0  0
   33.1153   53.0893   22.2444 O   0  0  0  0  0  0  0  0  0  0  0  0
   32.8860   51.3300   23.9559 O   0  0  0  0  0  0  0  0  0  0  0  0
   31.3065   51.2194   22.0556 O   0  0  0  0  0  0  0  0  0  0  0  0
   33.7538   51.6325   24.2664 H   0  0  0  0  0  0  0  0  0  0  0  0
   31.1734   51.4634   21.1263 H   0  0  0  0  0  0  0  0  0  0  0  0
 15 16  2  0  0  0
 15 17  1  0  0  0
 15 14  1  0  0  0
 15 18  1  0  0  0
 14 13  1  0  0  0
 13 10  1  0  0  0
 10 11  1  0  0  0
 10  7  1  0  0  0
  7  8  1  0  0  0
  7  4  1  0  0  0
  4  5  1  0  0  0
  4  1  1  0  0  0
  1  2  1  0  0  0
  1 21  1  0  0  0
 21 22  1  0  0  0
 22 23  1  0  0  0
 22 29  1  0  0  0
 23 24  1  0  0  0
 24 25  1  0  0  0
 24 26  1  0  0  0
 29 30  1  0  0  0
 30 31  2  0  0  0
 30 32  1  0  0  0
 30 33  1  0  0  0
 17 19  1  0  0  0
 18 20  1  0  0  0
 11 12  1  0  0  0
  8  9  1  0  0  0
  5  6  1  0  0  0
  2  3  1  0  0  0
 25 27  1  0  0  0
 26 28  1  0  0  0
 32 34  1  0  0  0
 33 35  1  0  0  0
M  END
> <minimizedAffinity>
-8.41467

$$$$
1JCX_PAI_A_1300


 35 34  0  0  0  0  0  0  0  0999 V2000
   35.0898   52.9260   19.2896 C   0  0  0  0  0  0  0  0  0  0  0  0
   34.6016   54.0458   20.0222 O   0  0  0  0  0  0  0  0  0  0  0  0
   35.2343   54.2761   20.7204 H   0  0  0  0  0  0  0  0  0  0  0  0
   36.3875   53.1578   18.5163 C   0  0  0  0  0  0  0  0  0  0  0  0
   37.5542   52.9914   19.3327 O   0  0  0  0  0  0  0  0  0  0  0  0
   37.5761   52.0879   19.6850 H   0  0  0  0  0  0  0  0  0  0  0  0
   36.3432   52.2055   17.3086 C   0  0  0  0  0  0  0  0  0  0  0  0
   37.6503   51.7741   16.9029 O   0  0  0  0  0  0  0  0  0  0  0  0
   38.1780   52.5445   16.6402 H   0  0  0  0  0  0  0  0  0  0  0  0
   35.4895   52.8623   16.2141 C   0  0  0  0  0  0  0  0  0  0  0  0
   34.4640   51.9758   15.7539 O   0  0  0  0  0  0  0  0  0  0  0  0
   34.8694   51.1717   15.3934 H   0  0  0  0  0  0  0  0  0  0  0  0
   36.4406   53.3103   15.1051 C   0  0  0  0  0  0  0  0  0  0  0  0
   37.2019   54.4830   15.3893 O   0  0  0  0  0  0  0  0  0  0  0  0
   38.7855   54.6559   15.3116 P   0  0  0  0  0  0  0  0  0  0  0  0
   38.9445   55.3678   14.0193 O   0  0  0  0  0  0  0  0  0  0  0  0
   39.1447   55.4687   16.4960 O   0  0  0  0  0  0  0  0  0  0  0  0
   39.4773   53.3425   15.3315 O   0  0  0  0  0  0  0  0  0  0  0  0
   38.6798   56.3192   16.4575 H   0  0  0  0  0  0  0  0  0  0  0  0
   40.4361   53.4814   15.2831 H   0  0  0  0  0  0  0  0  0  0  0  0
   35.2899   51.8258   20.3248 C   0  0  0  0  0  0  0  0  0  0  0  0
   34.1866   51.0219   20.2942 N   0  0  0  0  0  0  0  0  0  0  0  0
   33.8560   50.5479   19.0476 C   0  0  0  0  0  0  0  0  0  0  0  0
   33.0565   49.2867   18.7489 C   0  0  0  0  0  0  0  0  0  0  0  0
   31.8479   49.5179   18.4304 O   0  0  0  0  0  0  0  0  0  0  0  0
   33.5712   48.2285   18.9019 O   0  0  0  0  0  0  0  0  0  0  0  0
   31.5488   50.4009   18.3366 H   0  0  0  0  0  0  0  0  0  0  0  0
   34.4764   48.1777   19.1383 H   0  0  0  0  0  0  0  0  0  0  0  0
   33.1293   51.5276   21.0126 C   0  0  0  0  0  0  0  0  0  0  0  0
   32.6832   52.0258   22.4086 P   0  0  0  0  0  0  0  0  0  0  0  0
   31.2713   51.6750   22.2869 O   0  0  0  0  0  0  0  0  0  0  0  0
   32.9150   53.4849   22.6020 O   0  0  0  0  0  0  0  0  0  0  0  0
   33.5836   51.2467   23.4156 O   0  0  0  0  0  0  0  0  0  0  0  0
   32.3615   53.9852   21.9821 H   0  0  0  0  0  0  0  0  0  0  0  0
   33.4447   50.2934   23.3029 H   0  0  0  0  0  0  0  0  0  0  0  0
 15 16  2  0  0  0
 15 17  1  0  0  0
 15 14  1  0  0  0
 15 18  1  0  0  0
 14 13  1  0  0  0
 13 10  1  0  0  0
 10 11  1  0  0  0
 10  7  1  0  0  0
  7  8  1  0  0  0
  7  4  1  0  0  0
  4  5  1  0  0  0
  4  1  1  0  0  0
  1  2  1  0  0  0
  1 21  1  0  0  0
 21 22  1  0  0  0
 22 23  1  0  0  0
 22 29  1  0  0  0
 23 24  1  0  0  0
 24 25  1  0  0  0
 24 26  1  0  0  0
 29 30  1  0  0  0
 30 31  2  0  0  0
 30 32  1  0  0  0
 30 33  1  0  0  0
 17 19  1  0  0  0
 18 20  1  0  0  0
 11 12  1  0  0  0
  8  9  1  0  0  0
  5  6  1  0  0  0
  2  3  1  0  0  0
 25 27  1  0  0  0
 26 28  1  0  0  0
 32 34  1  0  0  0
 33 35  1  0  0  0
M  END
> <minimizedAffinity>
-8.32277

$$$$
1JCX_PAI_A_1300


 35 34  0  0  0  0  0  0  0  0999 V2000
   34.8488   53.8000   17.3272 C   0  0  0  0  0  0  0  0  0  0  0  0
   34.0187   52.6817   17.0289 O   0  0  0  0  0  0  0  0  0  0  0  0
   34.5722   51.9004   16.8736 H   0  0  0  0  0  0  0  0  0  0  0  0
   35.6631   53.6927   18.6160 C   0  0  0  0  0  0  0  0  0  0  0  0
   36.2602   54.9391   18.9976 O   0  0  0  0  0  0  0  0  0  0  0  0
   35.5650   55.6004   19.1401 H   0  0  0  0  0  0  0  0  0  0  0  0
   34.7104   53.1184   19.6790 C   0  0  0  0  0  0  0  0  0  0  0  0
   34.4211   54.0607   20.7219 O   0  0  0  0  0  0  0  0  0  0  0  0
   35.2434   54.3027   21.1761 H   0  0  0  0  0  0  0  0  0  0  0  0
   35.2707   51.7654   20.1409 C   0  0  0  0  0  0  0  0  0  0  0  0
   35.7646   51.0031   19.0343 O   0  0  0  0  0  0  0  0  0  0  0  0
   35.0445   50.8443   18.4041 H   0  0  0  0  0  0  0  0  0  0  0  0
   34.1603   51.0549   20.9140 C   0  0  0  0  0  0  0  0  0  0  0  0
   33.6001   49.9128   20.2681 O   0  0  0  0  0  0  0  0  0  0  0  0
   32.4281   49.8855   19.1867 P   0  0  0  0  0  0  0  0  0  0  0  0
   33.1945   49.8029   17.9187 O   0  0  0  0  0  0  0  0  0  0  0  0
   31.6431   48.6690   19.4972 O   0  0  0  0  0  0  0  0  0  0  0  0
   31.5847   51.1046   19.2683 O   0  0  0  0  0  0  0  0  0  0  0  0
   32.2173   47.8896   19.4366 H   0  0  0  0  0  0  0  0  0  0  0  0
   30.8833   51.0577   18.5999 H   0  0  0  0  0  0  0  0  0  0  0  0
   35.7830   53.9366   16.1310 C   0  0  0  0  0  0  0  0  0  0  0  0
   36.3243   52.7074   15.8850 N   0  0  0  0  0  0  0  0  0  0  0  0
   37.5954   52.5311   16.3764 C   0  0  0  0  0  0  0  0  0  0  0  0
   38.7607   53.4990   16.2214 C   0  0  0  0  0  0  0  0  0  0  0  0
   38.7886   54.4039   17.1136 O   0  0  0  0  0  0  0  0  0  0  0  0
   39.4783   53.3911   15.2825 O   0  0  0  0  0  0  0  0  0  0  0  0
   38.1679   54.3891   17.8154 H   0  0  0  0  0  0  0  0  0  0  0  0
   39.3645   52.6780   14.6854 H   0  0  0  0  0  0  0  0  0  0  0  0
   36.1501   52.2899   14.5869 C   0  0  0  0  0  0  0  0  0  0  0  0
   35.0951   51.8897   13.5273 P   0  0  0  0  0  0  0  0  0  0  0  0
   35.9644   51.0477   12.7108 O   0  0  0  0  0  0  0  0  0  0  0  0
   34.5446   53.0613   12.7896 O   0  0  0  0  0  0  0  0  0  0  0  0
   33.9393   51.2350   14.3441 O   0  0  0  0  0  0  0  0  0  0  0  0
   35.2519   53.4810   12.2752 H   0  0  0  0  0  0  0  0  0  0  0  0
   34.2811   50.4691   14.8313 H   0  0  0  0  0  0  0  0  0  0  0  0
 15 16  2  0  0  0
 15 17  1  0  0  0
 15 14  1  0  0  0
 15 18  1  0  0  0
 14 13  1  0  0  0
 13 10  1  0  0  0
 10 11  1  0  0  0
 10  7  1  0  0  0
  7  8  1  0  0  0
  7  4  1  0  0  0
  4  5  1  0  0  0
  4  1  1  0  0  0
  1  2  1  0  0  0
  1 21  1  0  0  0
 21 22  1  0  0  0
 22 23  1  0  0  0
 22 29  1  0  0  0
 23 24  1  0  0  0
 24 25  1  0  0  0
 24 26  1  0  0  0
 29 30  1  0  0  0
 30 31  2  0  0  0
 30 32  1  0  0  0
 30 33  1  0  0  0
 17 19  1  0  0  0
 18 20  1  0  0  0
 11 12  1  0  0  0
  8  9  1  0  0  0
  5  6  1  0  0  0
  2  3  1  0  0  0
 25 27  1  0  0  0
 26 28  1  0  0  0
 32 34  1  0  0  0
 33 35  1  0  0  0
M  END
> <minimizedAffinity>
-8.28824

$$$$
