5G17_6DK_A_373


 25 25  0  0  0  0  0  0  0  0999 V2000
   10.8330   55.6401   21.8107 C   0  0  0  0  0  0  0  0  0  0  0  0
   12.1167   55.0657   22.3501 C   0  0  0  0  0  0  0  0  0  0  0  0
   12.0199   53.6108   22.8500 C   0  0  0  0  0  0  0  0  0  0  0  0
   13.4494   53.1759   23.1328 C   0  0  0  0  0  0  0  0  0  0  0  0
   13.8645   51.7298   22.7931 C   0  0  0  0  0  0  0  0  0  0  0  0
   12.7522   50.8628   22.8625 O   0  0  0  0  0  0  0  0  0  0  0  0
   14.2460   51.5402   21.4138 O   0  0  0  0  0  0  0  0  0  0  0  0
   12.2786   50.7717   23.6659 H   0  0  0  0  0  0  0  0  0  0  0  0
   14.9810   52.0035   21.0630 H   0  0  0  0  0  0  0  0  0  0  0  0
   14.5462   51.3234   25.0029 F   0  0  0  0  0  0  0  0  0  0  0  0
   14.9451   51.2365   23.7459 C   0  0  0  0  0  0  0  0  0  0  0  0
   15.2717   49.9782   23.4330 F   0  0  0  0  0  0  0  0  0  0  0  0
   16.0400   52.0020   23.6876 F   0  0  0  0  0  0  0  0  0  0  0  0
   10.6908   57.0574   22.3947 C   0  0  0  0  0  0  0  0  0  0  0  0
   11.8247   57.3033   23.3880 C   0  0  0  0  0  0  0  0  0  0  0  0
   11.3578   59.6183   22.8868 N   0  0  0  0  0  0  0  0  0  0  0  0
   12.0586   58.7764   23.6851 C   0  0  0  0  0  0  0  0  0  0  0  0
   12.7746   59.0866   24.6382 O   0  0  0  0  0  0  0  0  0  0  0  0
   10.9901   59.2282   22.0611 H   0  0  0  0  0  0  0  0  0  0  0  0
   11.0989   60.9579   23.0948 C   0  0  0  0  0  0  0  0  0  0  0  0
   11.8542   61.8676   22.3271 C   0  0  0  0  0  0  0  0  0  0  0  0
   11.6874   63.2484   22.4597 C   0  0  0  0  0  0  0  0  0  0  0  0
   10.7490   63.7431   23.3665 C   0  0  0  0  0  0  0  0  0  0  0  0
    9.9874   62.8592   24.1325 C   0  0  0  0  0  0  0  0  0  0  0  0
   10.1509   61.4768   23.9997 C   0  0  0  0  0  0  0  0  0  0  0  0
 23 24  2  0  0  0
 23 22  1  0  0  0
 24 25  1  0  0  0
 22 21  2  0  0  0
 25 20  2  0  0  0
 21 20  1  0  0  0
 20 16  1  0  0  0
 16 17  1  0  0  0
 17 18  2  0  0  0
 17 15  1  0  0  0
 15 14  1  0  0  0
 14  1  1  0  0  0
  1  2  1  0  0  0
  2  3  1  0  0  0
  3  4  1  0  0  0
  4  5  1  0  0  0
  6  5  1  0  0  0
  5  7  1  0  0  0
  5 11  1  0  0  0
 12 11  1  0  0  0
 11 10  1  0  0  0
 11 13  1  0  0  0
 16 19  1  0  0  0
  6  8  1  0  0  0
  7  9  1  0  0  0
M  END
> <minimizedAffinity>
-9.13399

$$$$
5G17_6DK_A_373


 25 25  0  0  0  0  0  0  0  0999 V2000
   10.7291   63.0836   22.3453 C   0  0  0  0  0  0  0  0  0  0  0  0
   10.8271   64.3585   23.1414 C   0  0  0  0  0  0  0  0  0  0  0  0
    9.6152   65.3021   23.0118 C   0  0  0  0  0  0  0  0  0  0  0  0
    9.1709   65.6007   24.4352 C   0  0  0  0  0  0  0  0  0  0  0  0
    7.8145   65.0484   24.9189 C   0  0  0  0  0  0  0  0  0  0  0  0
    7.3089   65.8290   25.9813 O   0  0  0  0  0  0  0  0  0  0  0  0
    6.7455   65.2036   23.9613 O   0  0  0  0  0  0  0  0  0  0  0  0
    7.8029   65.9199   26.7723 H   0  0  0  0  0  0  0  0  0  0  0  0
    6.8001   64.7830   23.1258 H   0  0  0  0  0  0  0  0  0  0  0  0
    7.7730   62.7655   24.3713 F   0  0  0  0  0  0  0  0  0  0  0  0
    7.9490   63.6028   25.3786 C   0  0  0  0  0  0  0  0  0  0  0  0
    9.1480   63.4267   25.9438 F   0  0  0  0  0  0  0  0  0  0  0  0
    6.9964   63.2750   26.2579 F   0  0  0  0  0  0  0  0  0  0  0  0
   11.5058   62.0045   23.1214 C   0  0  0  0  0  0  0  0  0  0  0  0
   10.5132   61.1187   23.8718 C   0  0  0  0  0  0  0  0  0  0  0  0
   10.7162   58.8410   23.0975 N   0  0  0  0  0  0  0  0  0  0  0  0
   11.0193   59.7026   24.0990 C   0  0  0  0  0  0  0  0  0  0  0  0
   11.7059   59.4668   25.0941 O   0  0  0  0  0  0  0  0  0  0  0  0
   10.0072   59.1280   22.4777 H   0  0  0  0  0  0  0  0  0  0  0  0
   11.2841   57.6089   22.8441 C   0  0  0  0  0  0  0  0  0  0  0  0
   10.5606   56.7500   21.9919 C   0  0  0  0  0  0  0  0  0  0  0  0
   11.0307   55.4737   21.6725 C   0  0  0  0  0  0  0  0  0  0  0  0
   12.2461   55.0370   22.2012 C   0  0  0  0  0  0  0  0  0  0  0  0
   12.9803   55.8739   23.0430 C   0  0  0  0  0  0  0  0  0  0  0  0
   12.5130   57.1527   23.3622 C   0  0  0  0  0  0  0  0  0  0  0  0
 23 24  2  0  0  0
 23 22  1  0  0  0
 24 25  1  0  0  0
 22 21  2  0  0  0
 25 20  2  0  0  0
 21 20  1  0  0  0
 20 16  1  0  0  0
 16 17  1  0  0  0
 17 18  2  0  0  0
 17 15  1  0  0  0
 15 14  1  0  0  0
 14  1  1  0  0  0
  1  2  1  0  0  0
  2  3  1  0  0  0
  3  4  1  0  0  0
  4  5  1  0  0  0
  6  5  1  0  0  0
  5  7  1  0  0  0
  5 11  1  0  0  0
 12 11  1  0  0  0
 11 10  1  0  0  0
 11 13  1  0  0  0
 16 19  1  0  0  0
  6  8  1  0  0  0
  7  9  1  0  0  0
M  END
> <minimizedAffinity>
-8.55881

$$$$
5G17_6DK_A_373


 25 25  0  0  0  0  0  0  0  0999 V2000
    9.6801   62.8401   23.7127 C   0  0  0  0  0  0  0  0  0  0  0  0
    9.0867   63.2658   25.0301 C   0  0  0  0  0  0  0  0  0  0  0  0
    7.8234   64.1425   24.9226 C   0  0  0  0  0  0  0  0  0  0  0  0
    8.3143   65.5810   24.9716 C   0  0  0  0  0  0  0  0  0  0  0  0
    8.1666   66.4573   23.7111 C   0  0  0  0  0  0  0  0  0  0  0  0
    7.1123   65.9870   22.8980 O   0  0  0  0  0  0  0  0  0  0  0  0
    7.6982   67.7958   23.9816 O   0  0  0  0  0  0  0  0  0  0  0  0
    7.1372   65.1148   22.5566 H   0  0  0  0  0  0  0  0  0  0  0  0
    8.2082   68.3713   24.5170 H   0  0  0  0  0  0  0  0  0  0  0  0
   10.4767   66.0452   23.6290 F   0  0  0  0  0  0  0  0  0  0  0  0
    9.4570   66.4683   22.9025 C   0  0  0  0  0  0  0  0  0  0  0  0
    9.3020   65.7137   21.8095 F   0  0  0  0  0  0  0  0  0  0  0  0
    9.7977   67.7082   22.5356 F   0  0  0  0  0  0  0  0  0  0  0  0
   10.1809   61.3951   23.8878 C   0  0  0  0  0  0  0  0  0  0  0  0
   11.6648   61.3351   23.5305 C   0  0  0  0  0  0  0  0  0  0  0  0
   11.3586   58.9523   23.2906 N   0  0  0  0  0  0  0  0  0  0  0  0
   12.2455   59.9309   23.5957 C   0  0  0  0  0  0  0  0  0  0  0  0
   13.4462   59.7922   23.8331 O   0  0  0  0  0  0  0  0  0  0  0  0
   10.4075   59.2054   23.3150 H   0  0  0  0  0  0  0  0  0  0  0  0
   11.6315   57.6431   22.9497 C   0  0  0  0  0  0  0  0  0  0  0  0
   10.7253   57.0255   22.0637 C   0  0  0  0  0  0  0  0  0  0  0  0
   10.8924   55.6995   21.6565 C   0  0  0  0  0  0  0  0  0  0  0  0
   11.9824   54.9677   22.1296 C   0  0  0  0  0  0  0  0  0  0  0  0
   12.8939   55.5622   23.0035 C   0  0  0  0  0  0  0  0  0  0  0  0
   12.7302   56.8899   23.4105 C   0  0  0  0  0  0  0  0  0  0  0  0
 23 24  2  0  0  0
 23 22  1  0  0  0
 24 25  1  0  0  0
 22 21  2  0  0  0
 25 20  2  0  0  0
 21 20  1  0  0  0
 20 16  1  0  0  0
 16 17  1  0  0  0
 17 18  2  0  0  0
 17 15  1  0  0  0
 15 14  1  0  0  0
 14  1  1  0  0  0
  1  2  1  0  0  0
  2  3  1  0  0  0
  3  4  1  0  0  0
  4  5  1  0  0  0
  6  5  1  0  0  0
  5  7  1  0  0  0
  5 11  1  0  0  0
 12 11  1  0  0  0
 11 10  1  0  0  0
 11 13  1  0  0  0
 16 19  1  0  0  0
  6  8  1  0  0  0
  7  9  1  0  0  0
M  END
> <minimizedAffinity>
-8.28242

$$$$
5G17_6DK_A_373


 25 25  0  0  0  0  0  0  0  0999 V2000
    9.3426   63.2935   25.2594 C   0  0  0  0  0  0  0  0  0  0  0  0
    7.8624   63.3622   25.5300 C   0  0  0  0  0  0  0  0  0  0  0  0
    7.1142   64.4811   24.7788 C   0  0  0  0  0  0  0  0  0  0  0  0
    8.0505   65.6794   24.7848 C   0  0  0  0  0  0  0  0  0  0  0  0
    8.0805   66.6020   23.5492 C   0  0  0  0  0  0  0  0  0  0  0  0
    7.0375   66.2728   22.6561 O   0  0  0  0  0  0  0  0  0  0  0  0
    7.7415   67.9754   23.8372 O   0  0  0  0  0  0  0  0  0  0  0  0
    6.9912   65.4131   22.2864 H   0  0  0  0  0  0  0  0  0  0  0  0
    8.2739   68.4764   24.4232 H   0  0  0  0  0  0  0  0  0  0  0  0
    9.3311   65.6704   21.7938 F   0  0  0  0  0  0  0  0  0  0  0  0
    9.4149   66.4950   22.8233 C   0  0  0  0  0  0  0  0  0  0  0  0
    9.8055   67.7123   22.4313 F   0  0  0  0  0  0  0  0  0  0  0  0
   10.3594   65.9610   23.6049 F   0  0  0  0  0  0  0  0  0  0  0  0
    9.5339   62.4158   24.0093 C   0  0  0  0  0  0  0  0  0  0  0  0
   10.9481   62.6191   23.4692 C   0  0  0  0  0  0  0  0  0  0  0  0
   11.0835   60.2175   23.6762 N   0  0  0  0  0  0  0  0  0  0  0  0
   11.7970   61.3578   23.5088 C   0  0  0  0  0  0  0  0  0  0  0  0
   13.0102   61.4486   23.3158 O   0  0  0  0  0  0  0  0  0  0  0  0
   10.1624   60.3263   24.0063 H   0  0  0  0  0  0  0  0  0  0  0  0
   11.4958   58.9220   23.4385 C   0  0  0  0  0  0  0  0  0  0  0  0
   10.7296   58.1811   22.5159 C   0  0  0  0  0  0  0  0  0  0  0  0
   11.0444   56.8560   22.2041 C   0  0  0  0  0  0  0  0  0  0  0  0
   12.1446   56.2499   22.8122 C   0  0  0  0  0  0  0  0  0  0  0  0
   12.9191   56.9677   23.7248 C   0  0  0  0  0  0  0  0  0  0  0  0
   12.6075   58.2948   24.0366 C   0  0  0  0  0  0  0  0  0  0  0  0
 23 24  2  0  0  0
 23 22  1  0  0  0
 24 25  1  0  0  0
 22 21  2  0  0  0
 25 20  2  0  0  0
 21 20  1  0  0  0
 20 16  1  0  0  0
 16 17  1  0  0  0
 17 18  2  0  0  0
 17 15  1  0  0  0
 15 14  1  0  0  0
 14  1  1  0  0  0
  1  2  1  0  0  0
  2  3  1  0  0  0
  3  4  1  0  0  0
  4  5  1  0  0  0
  6  5  1  0  0  0
  5  7  1  0  0  0
  5 11  1  0  0  0
 12 11  1  0  0  0
 11 10  1  0  0  0
 11 13  1  0  0  0
 16 19  1  0  0  0
  6  8  1  0  0  0
  7  9  1  0  0  0
M  END
> <minimizedAffinity>
-8.25133

$$$$
5G17_6DK_A_373


 25 25  0  0  0  0  0  0  0  0999 V2000
   11.6064   59.1883   24.6753 C   0  0  0  0  0  0  0  0  0  0  0  0
   12.7210   58.3955   24.0446 C   0  0  0  0  0  0  0  0  0  0  0  0
   12.2736   57.3803   22.9744 C   0  0  0  0  0  0  0  0  0  0  0  0
   12.8867   56.0507   23.3854 C   0  0  0  0  0  0  0  0  0  0  0  0
   12.3624   54.7583   22.7269 C   0  0  0  0  0  0  0  0  0  0  0  0
   12.8593   54.6324   21.4112 O   0  0  0  0  0  0  0  0  0  0  0  0
   12.8899   53.5487   23.3122 O   0  0  0  0  0  0  0  0  0  0  0  0
   12.6724   55.2940   20.7745 H   0  0  0  0  0  0  0  0  0  0  0  0
   12.7186   53.3501   24.2118 H   0  0  0  0  0  0  0  0  0  0  0  0
   10.3359   55.5108   23.6436 F   0  0  0  0  0  0  0  0  0  0  0  0
   10.8400   54.7454   22.6914 C   0  0  0  0  0  0  0  0  0  0  0  0
   10.4210   55.1430   21.4854 F   0  0  0  0  0  0  0  0  0  0  0  0
   10.3517   53.5269   22.9464 F   0  0  0  0  0  0  0  0  0  0  0  0
   10.8813   59.9325   23.5394 C   0  0  0  0  0  0  0  0  0  0  0  0
   11.7965   61.0291   22.9982 C   0  0  0  0  0  0  0  0  0  0  0  0
    9.9718   62.4650   23.6595 N   0  0  0  0  0  0  0  0  0  0  0  0
   11.2526   62.4324   23.2171 C   0  0  0  0  0  0  0  0  0  0  0  0
   12.0049   63.3951   23.0602 O   0  0  0  0  0  0  0  0  0  0  0  0
    9.4531   61.6356   23.5488 H   0  0  0  0  0  0  0  0  0  0  0  0
    9.3090   63.5236   24.2468 C   0  0  0  0  0  0  0  0  0  0  0  0
    8.4035   63.2002   25.2778 C   0  0  0  0  0  0  0  0  0  0  0  0
    7.6671   64.1870   25.9379 C   0  0  0  0  0  0  0  0  0  0  0  0
    7.8324   65.5248   25.5766 C   0  0  0  0  0  0  0  0  0  0  0  0
    8.7276   65.8666   24.5618 C   0  0  0  0  0  0  0  0  0  0  0  0
    9.4677   64.8808   23.9013 C   0  0  0  0  0  0  0  0  0  0  0  0
 23 24  2  0  0  0
 23 22  1  0  0  0
 24 25  1  0  0  0
 22 21  2  0  0  0
 25 20  2  0  0  0
 21 20  1  0  0  0
 20 16  1  0  0  0
 16 17  1  0  0  0
 17 18  2  0  0  0
 17 15  1  0  0  0
 15 14  1  0  0  0
 14  1  1  0  0  0
  1  2  1  0  0  0
  2  3  1  0  0  0
  3  4  1  0  0  0
  4  5  1  0  0  0
  6  5  1  0  0  0
  5  7  1  0  0  0
  5 11  1  0  0  0
 12 11  1  0  0  0
 11 10  1  0  0  0
 11 13  1  0  0  0
 16 19  1  0  0  0
  6  8  1  0  0  0
  7  9  1  0  0  0
M  END
> <minimizedAffinity>
-8.20328

$$$$
5G17_6DK_A_373


 25 25  0  0  0  0  0  0  0  0999 V2000
   11.8409   59.3093   24.5378 C   0  0  0  0  0  0  0  0  0  0  0  0
   12.8859   58.4006   23.9454 C   0  0  0  0  0  0  0  0  0  0  0  0
   12.3503   57.3561   22.9464 C   0  0  0  0  0  0  0  0  0  0  0  0
   12.9307   56.0232   23.3925 C   0  0  0  0  0  0  0  0  0  0  0  0
   12.3942   54.7288   22.7477 C   0  0  0  0  0  0  0  0  0  0  0  0
   12.9095   54.5716   21.4425 O   0  0  0  0  0  0  0  0  0  0  0  0
   12.8912   53.5206   23.3620 O   0  0  0  0  0  0  0  0  0  0  0  0
   12.7442   55.2252   20.7918 H   0  0  0  0  0  0  0  0  0  0  0  0
   12.7022   53.3406   24.2619 H   0  0  0  0  0  0  0  0  0  0  0  0
   10.4465   55.1876   21.5191 F   0  0  0  0  0  0  0  0  0  0  0  0
   10.8726   54.7416   22.6880 C   0  0  0  0  0  0  0  0  0  0  0  0
   10.4088   53.5108   22.9289 F   0  0  0  0  0  0  0  0  0  0  0  0
   10.3518   55.5899   23.5810 F   0  0  0  0  0  0  0  0  0  0  0  0
   11.0697   59.9383   23.3632 C   0  0  0  0  0  0  0  0  0  0  0  0
   10.2873   61.1477   23.8713 C   0  0  0  0  0  0  0  0  0  0  0  0
   11.5417   62.2903   22.1538 N   0  0  0  0  0  0  0  0  0  0  0  0
   10.6596   62.4455   23.1711 C   0  0  0  0  0  0  0  0  0  0  0  0
   10.0990   63.4886   23.5103 O   0  0  0  0  0  0  0  0  0  0  0  0
   12.0373   61.4398   22.1350 H   0  0  0  0  0  0  0  0  0  0  0  0
   11.8272   63.1836   21.1413 C   0  0  0  0  0  0  0  0  0  0  0  0
   11.0257   63.0955   19.9849 C   0  0  0  0  0  0  0  0  0  0  0  0
   11.2288   63.9399   18.8906 C   0  0  0  0  0  0  0  0  0  0  0  0
   12.2424   64.8979   18.9407 C   0  0  0  0  0  0  0  0  0  0  0  0
   13.0439   65.0049   20.0784 C   0  0  0  0  0  0  0  0  0  0  0  0
   12.8409   64.1624   21.1759 C   0  0  0  0  0  0  0  0  0  0  0  0
 23 24  2  0  0  0
 23 22  1  0  0  0
 24 25  1  0  0  0
 22 21  2  0  0  0
 25 20  2  0  0  0
 21 20  1  0  0  0
 20 16  1  0  0  0
 16 17  1  0  0  0
 17 18  2  0  0  0
 17 15  1  0  0  0
 15 14  1  0  0  0
 14  1  1  0  0  0
  1  2  1  0  0  0
  2  3  1  0  0  0
  3  4  1  0  0  0
  4  5  1  0  0  0
  6  5  1  0  0  0
  5  7  1  0  0  0
  5 11  1  0  0  0
 12 11  1  0  0  0
 11 10  1  0  0  0
 11 13  1  0  0  0
 16 19  1  0  0  0
  6  8  1  0  0  0
  7  9  1  0  0  0
M  END
> <minimizedAffinity>
-7.97232

$$$$
5G17_6DK_A_373


 25 25  0  0  0  0  0  0  0  0999 V2000
   11.6294   59.2370   24.7723 C   0  0  0  0  0  0  0  0  0  0  0  0
   12.7489   58.3541   24.2866 C   0  0  0  0  0  0  0  0  0  0  0  0
   12.3904   57.4431   23.0960 C   0  0  0  0  0  0  0  0  0  0  0  0
   12.9450   56.0708   23.4451 C   0  0  0  0  0  0  0  0  0  0  0  0
   12.3350   54.8298   22.7619 C   0  0  0  0  0  0  0  0  0  0  0  0
   12.8712   54.6599   21.4668 O   0  0  0  0  0  0  0  0  0  0  0  0
   12.7293   53.5784   23.3640 O   0  0  0  0  0  0  0  0  0  0  0  0
   12.7695   55.3352   20.8253 H   0  0  0  0  0  0  0  0  0  0  0  0
   12.5050   53.3961   24.2553 H   0  0  0  0  0  0  0  0  0  0  0  0
   10.4535   55.3873   21.4726 F   0  0  0  0  0  0  0  0  0  0  0  0
   10.8201   54.9521   22.6654 C   0  0  0  0  0  0  0  0  0  0  0  0
   10.2614   53.7677   22.9357 F   0  0  0  0  0  0  0  0  0  0  0  0
   10.3446   55.8668   23.5172 F   0  0  0  0  0  0  0  0  0  0  0  0
   10.7929   59.6262   23.5400 C   0  0  0  0  0  0  0  0  0  0  0  0
   10.5613   61.1360   23.5514 C   0  0  0  0  0  0  0  0  0  0  0  0
   12.6998   62.2105   23.2336 N   0  0  0  0  0  0  0  0  0  0  0  0
   11.5171   61.9005   22.6485 C   0  0  0  0  0  0  0  0  0  0  0  0
   11.1958   62.1061   21.4773 O   0  0  0  0  0  0  0  0  0  0  0  0
   12.7267   62.1518   24.2160 H   0  0  0  0  0  0  0  0  0  0  0  0
   13.8708   62.5986   22.6148 C   0  0  0  0  0  0  0  0  0  0  0  0
   15.0617   62.0418   23.1240 C   0  0  0  0  0  0  0  0  0  0  0  0
   16.3085   62.3693   22.5855 C   0  0  0  0  0  0  0  0  0  0  0  0
   16.3817   63.2623   21.5156 C   0  0  0  0  0  0  0  0  0  0  0  0
   15.2140   63.8208   20.9935 C   0  0  0  0  0  0  0  0  0  0  0  0
   13.9647   63.4927   21.5292 C   0  0  0  0  0  0  0  0  0  0  0  0
 23 24  2  0  0  0
 23 22  1  0  0  0
 24 25  1  0  0  0
 22 21  2  0  0  0
 25 20  2  0  0  0
 21 20  1  0  0  0
 20 16  1  0  0  0
 16 17  1  0  0  0
 17 18  2  0  0  0
 17 15  1  0  0  0
 15 14  1  0  0  0
 14  1  1  0  0  0
  1  2  1  0  0  0
  2  3  1  0  0  0
  3  4  1  0  0  0
  4  5  1  0  0  0
  6  5  1  0  0  0
  5  7  1  0  0  0
  5 11  1  0  0  0
 12 11  1  0  0  0
 11 10  1  0  0  0
 11 13  1  0  0  0
 16 19  1  0  0  0
  6  8  1  0  0  0
  7  9  1  0  0  0
M  END
> <minimizedAffinity>
-7.83364

$$$$
5G17_6DK_A_373


 25 25  0  0  0  0  0  0  0  0999 V2000
    9.9353   63.4115   23.8124 C   0  0  0  0  0  0  0  0  0  0  0  0
   10.6402   63.6988   22.5127 C   0  0  0  0  0  0  0  0  0  0  0  0
   10.3036   65.0619   21.8766 C   0  0  0  0  0  0  0  0  0  0  0  0
   10.3716   66.0738   23.0097 C   0  0  0  0  0  0  0  0  0  0  0  0
    9.1628   67.0019   23.2473 C   0  0  0  0  0  0  0  0  0  0  0  0
    9.3907   68.2730   22.6763 O   0  0  0  0  0  0  0  0  0  0  0  0
    7.9752   66.6108   22.5258 O   0  0  0  0  0  0  0  0  0  0  0  0
   10.1210   68.7886   22.9568 H   0  0  0  0  0  0  0  0  0  0  0  0
    7.5751   65.7810   22.6968 H   0  0  0  0  0  0  0  0  0  0  0  0
    9.9003   67.7498   25.3474 F   0  0  0  0  0  0  0  0  0  0  0  0
    8.8859   67.1633   24.7361 C   0  0  0  0  0  0  0  0  0  0  0  0
    7.7574   67.8606   24.9043 F   0  0  0  0  0  0  0  0  0  0  0  0
    8.7657   65.9793   25.3459 F   0  0  0  0  0  0  0  0  0  0  0  0
    9.8456   61.8809   23.9500 C   0  0  0  0  0  0  0  0  0  0  0  0
   11.1727   61.2627   23.5146 C   0  0  0  0  0  0  0  0  0  0  0  0
   11.1502   58.9631   22.7797 N   0  0  0  0  0  0  0  0  0  0  0  0
   11.2888   59.7837   23.8495 C   0  0  0  0  0  0  0  0  0  0  0  0
   11.5666   59.4531   25.0032 O   0  0  0  0  0  0  0  0  0  0  0  0
   10.7440   59.3619   21.9764 H   0  0  0  0  0  0  0  0  0  0  0  0
   11.5114   57.6345   22.6833 C   0  0  0  0  0  0  0  0  0  0  0  0
   10.6180   56.7921   21.9908 C   0  0  0  0  0  0  0  0  0  0  0  0
   10.8721   55.4266   21.8392 C   0  0  0  0  0  0  0  0  0  0  0  0
   12.0379   54.8808   22.3782 C   0  0  0  0  0  0  0  0  0  0  0  0
   12.9379   55.6986   23.0632 C   0  0  0  0  0  0  0  0  0  0  0  0
   12.6869   57.0660   23.2140 C   0  0  0  0  0  0  0  0  0  0  0  0
 23 24  2  0  0  0
 23 22  1  0  0  0
 24 25  1  0  0  0
 22 21  2  0  0  0
 25 20  2  0  0  0
 21 20  1  0  0  0
 20 16  1  0  0  0
 16 17  1  0  0  0
 17 18  2  0  0  0
 17 15  1  0  0  0
 15 14  1  0  0  0
 14  1  1  0  0  0
  1  2  1  0  0  0
  2  3  1  0  0  0
  3  4  1  0  0  0
  4  5  1  0  0  0
  6  5  1  0  0  0
  5  7  1  0  0  0
  5 11  1  0  0  0
 12 11  1  0  0  0
 11 10  1  0  0  0
 11 13  1  0  0  0
 16 19  1  0  0  0
  6  8  1  0  0  0
  7  9  1  0  0  0
M  END
> <minimizedAffinity>
-7.70943

$$$$
5G17_6DK_A_373


 25 25  0  0  0  0  0  0  0  0999 V2000
   10.1216   61.9497   23.9810 C   0  0  0  0  0  0  0  0  0  0  0  0
    9.6380   63.2956   23.5085 C   0  0  0  0  0  0  0  0  0  0  0  0
   10.7433   64.3510   23.3071 C   0  0  0  0  0  0  0  0  0  0  0  0
   10.6276   64.7981   21.8582 C   0  0  0  0  0  0  0  0  0  0  0  0
   11.8949   64.7958   20.9791 C   0  0  0  0  0  0  0  0  0  0  0  0
   12.0419   66.0324   20.3136 O   0  0  0  0  0  0  0  0  0  0  0  0
   13.1272   64.7660   21.7304 O   0  0  0  0  0  0  0  0  0  0  0  0
   11.3722   66.3338   19.7316 H   0  0  0  0  0  0  0  0  0  0  0  0
   13.3186   64.0375   22.2878 H   0  0  0  0  0  0  0  0  0  0  0  0
   11.8966   64.1569   18.7196 F   0  0  0  0  0  0  0  0  0  0  0  0
   11.8398   63.6754   19.9491 C   0  0  0  0  0  0  0  0  0  0  0  0
   12.8399   62.8167   20.1738 F   0  0  0  0  0  0  0  0  0  0  0  0
   10.6766   63.0177   19.9986 F   0  0  0  0  0  0  0  0  0  0  0  0
   11.0835   61.4115   22.9064 C   0  0  0  0  0  0  0  0  0  0  0  0
   12.3591   60.9139   23.5833 C   0  0  0  0  0  0  0  0  0  0  0  0
   11.6991   58.6665   22.9985 N   0  0  0  0  0  0  0  0  0  0  0  0
   12.3224   59.4327   23.9266 C   0  0  0  0  0  0  0  0  0  0  0  0
   12.9042   59.0403   24.9390 O   0  0  0  0  0  0  0  0  0  0  0  0
   11.1256   59.1434   22.3559 H   0  0  0  0  0  0  0  0  0  0  0  0
   11.7733   57.2966   22.8478 C   0  0  0  0  0  0  0  0  0  0  0  0
   10.6385   56.6652   22.2994 C   0  0  0  0  0  0  0  0  0  0  0  0
   10.5935   55.2816   22.1105 C   0  0  0  0  0  0  0  0  0  0  0  0
   11.6964   54.5035   22.4651 C   0  0  0  0  0  0  0  0  0  0  0  0
   12.8317   55.1098   23.0050 C   0  0  0  0  0  0  0  0  0  0  0  0
   12.8800   56.4947   23.1928 C   0  0  0  0  0  0  0  0  0  0  0  0
 23 24  2  0  0  0
 23 22  1  0  0  0
 24 25  1  0  0  0
 22 21  2  0  0  0
 25 20  2  0  0  0
 21 20  1  0  0  0
 20 16  1  0  0  0
 16 17  1  0  0  0
 17 18  2  0  0  0
 17 15  1  0  0  0
 15 14  1  0  0  0
 14  1  1  0  0  0
  1  2  1  0  0  0
  2  3  1  0  0  0
  3  4  1  0  0  0
  4  5  1  0  0  0
  6  5  1  0  0  0
  5  7  1  0  0  0
  5 11  1  0  0  0
 12 11  1  0  0  0
 11 10  1  0  0  0
 11 13  1  0  0  0
 16 19  1  0  0  0
  6  8  1  0  0  0
  7  9  1  0  0  0
M  END
> <minimizedAffinity>
-7.69570

$$$$
5G17_6DK_A_373


 25 25  0  0  0  0  0  0  0  0999 V2000
   11.3252   56.1889   22.7263 C   0  0  0  0  0  0  0  0  0  0  0  0
   12.1686   55.1294   23.3859 C   0  0  0  0  0  0  0  0  0  0  0  0
   12.5589   53.9478   22.4762 C   0  0  0  0  0  0  0  0  0  0  0  0
   13.5603   53.1268   23.2736 C   0  0  0  0  0  0  0  0  0  0  0  0
   13.8799   51.6918   22.8071 C   0  0  0  0  0  0  0  0  0  0  0  0
   12.7189   50.8888   22.8343 O   0  0  0  0  0  0  0  0  0  0  0  0
   14.2207   51.5947   21.4077 O   0  0  0  0  0  0  0  0  0  0  0  0
   12.2573   50.7596   23.6394 H   0  0  0  0  0  0  0  0  0  0  0  0
   14.9750   52.0415   21.0770 H   0  0  0  0  0  0  0  0  0  0  0  0
   15.3118   49.8775   23.2211 F   0  0  0  0  0  0  0  0  0  0  0  0
   14.9482   51.0590   23.6888 C   0  0  0  0  0  0  0  0  0  0  0  0
   15.9974   51.8833   23.7755 F   0  0  0  0  0  0  0  0  0  0  0  0
   14.4858   50.8056   24.9177 F   0  0  0  0  0  0  0  0  0  0  0  0
   11.1969   57.3525   23.7260 C   0  0  0  0  0  0  0  0  0  0  0  0
   10.5155   58.5313   23.0339 C   0  0  0  0  0  0  0  0  0  0  0  0
   12.3853   60.0511   23.1847 N   0  0  0  0  0  0  0  0  0  0  0  0
   11.0685   59.8830   23.4586 C   0  0  0  0  0  0  0  0  0  0  0  0
   10.2985   60.7219   23.9283 O   0  0  0  0  0  0  0  0  0  0  0  0
   12.8966   59.2322   22.9918 H   0  0  0  0  0  0  0  0  0  0  0  0
   13.0939   61.2347   23.1444 C   0  0  0  0  0  0  0  0  0  0  0  0
   12.4814   62.3077   22.4655 C   0  0  0  0  0  0  0  0  0  0  0  0
   13.1085   63.5508   22.3498 C   0  0  0  0  0  0  0  0  0  0  0  0
   14.3667   63.7416   22.9227 C   0  0  0  0  0  0  0  0  0  0  0  0
   14.9881   62.6936   23.6034 C   0  0  0  0  0  0  0  0  0  0  0  0
   14.3614   61.4492   23.7226 C   0  0  0  0  0  0  0  0  0  0  0  0
 23 24  2  0  0  0
 23 22  1  0  0  0
 24 25  1  0  0  0
 22 21  2  0  0  0
 25 20  2  0  0  0
 21 20  1  0  0  0
 20 16  1  0  0  0
 16 17  1  0  0  0
 17 18  2  0  0  0
 17 15  1  0  0  0
 15 14  1  0  0  0
 14  1  1  0  0  0
  1  2  1  0  0  0
  2  3  1  0  0  0
  3  4  1  0  0  0
  4  5  1  0  0  0
  6  5  1  0  0  0
  5  7  1  0  0  0
  5 11  1  0  0  0
 12 11  1  0  0  0
 11 10  1  0  0  0
 11 13  1  0  0  0
 16 19  1  0  0  0
  6  8  1  0  0  0
  7  9  1  0  0  0
M  END
> <minimizedAffinity>
-7.53869

$$$$
