1LRH_NLA_A_5190


 15 16  0  0  0  0  0  0  0  0999 V2000
    9.5753   57.5785   63.4752 C   0  0  0  0  0  0  0  0  0  0  0  0
   10.7644   57.0552   62.9459 C   0  0  0  0  0  0  0  0  0  0  0  0
   10.9255   56.8936   61.5487 C   0  0  0  0  0  0  0  0  0  0  0  0
    9.8835   57.3171   60.6789 C   0  0  0  0  0  0  0  0  0  0  0  0
    8.7389   57.8563   61.1736 C   0  0  0  0  0  0  0  0  0  0  0  0
    8.5316   58.0042   62.5530 C   0  0  0  0  0  0  0  0  0  0  0  0
    7.3036   58.5487   63.1047 C   0  0  0  0  0  0  0  0  0  0  0  0
    7.1388   58.6714   64.4661 C   0  0  0  0  0  0  0  0  0  0  0  0
    8.1671   58.2796   65.3558 C   0  0  0  0  0  0  0  0  0  0  0  0
    9.3689   57.7571   64.9001 C   0  0  0  0  0  0  0  0  0  0  0  0
   11.9287   56.5784   63.8969 C   0  0  0  0  0  0  0  0  0  0  0  0
   11.9854   55.0833   63.9140 C   0  0  0  0  0  0  0  0  0  0  0  0
   11.0962   54.2567   64.4001 O   0  0  0  0  0  0  0  0  0  0  0  0
   13.0548   54.6687   63.2767 O   0  0  0  0  0  0  0  0  0  0  0  0
   13.6709   55.2901   62.9417 H   0  0  0  0  0  0  0  0  0  0  0  0
  1  2  2  0  0  0
  1  6  1  0  0  0
  1 10  1  0  0  0
  2  3  1  0  0  0
  2 11  1  0  0  0
  3  4  2  0  0  0
  4  5  1  0  0  0
  5  6  2  0  0  0
  6  7  1  0  0  0
  7  8  2  0  0  0
  8  9  1  0  0  0
  9 10  2  0  0  0
 11 12  1  0  0  0
 12 13  2  0  0  0
 12 14  1  0  0  0
 14 15  1  0  0  0
M  END
> <minimizedAffinity>
-8.01453

$$$$
1LRH_NLA_A_5190


 15 16  0  0  0  0  0  0  0  0999 V2000
    9.6825   57.0464   63.6404 C   0  0  0  0  0  0  0  0  0  0  0  0
   10.3766   56.2224   64.5388 C   0  0  0  0  0  0  0  0  0  0  0  0
   10.2419   56.4005   65.9368 C   0  0  0  0  0  0  0  0  0  0  0  0
    9.3512   57.3956   66.4245 C   0  0  0  0  0  0  0  0  0  0  0  0
    8.6464   58.1800   65.5679 C   0  0  0  0  0  0  0  0  0  0  0  0
    8.7767   58.0527   64.1771 C   0  0  0  0  0  0  0  0  0  0  0  0
    8.0573   58.9012   63.2439 C   0  0  0  0  0  0  0  0  0  0  0  0
    8.2186   58.7464   61.8854 C   0  0  0  0  0  0  0  0  0  0  0  0
    9.0808   57.7496   61.3700 C   0  0  0  0  0  0  0  0  0  0  0  0
    9.7952   56.8992   62.2015 C   0  0  0  0  0  0  0  0  0  0  0  0
   11.3705   55.1157   64.0143 C   0  0  0  0  0  0  0  0  0  0  0  0
   12.7374   55.7019   63.8514 C   0  0  0  0  0  0  0  0  0  0  0  0
   13.5009   56.2159   64.7804 O   0  0  0  0  0  0  0  0  0  0  0  0
   13.1398   55.5612   62.6104 O   0  0  0  0  0  0  0  0  0  0  0  0
   12.5651   55.1886   61.9710 H   0  0  0  0  0  0  0  0  0  0  0  0
  1  2  2  0  0  0
  1  6  1  0  0  0
  1 10  1  0  0  0
  2  3  1  0  0  0
  2 11  1  0  0  0
  3  4  2  0  0  0
  4  5  1  0  0  0
  5  6  2  0  0  0
  6  7  1  0  0  0
  7  8  2  0  0  0
  8  9  1  0  0  0
  9 10  2  0  0  0
 11 12  1  0  0  0
 12 13  2  0  0  0
 12 14  1  0  0  0
 14 15  1  0  0  0
M  END
> <minimizedAffinity>
-6.53870

$$$$
1LRH_NLA_A_5190


 15 16  0  0  0  0  0  0  0  0999 V2000
    9.4935   57.4872   63.8118 C   0  0  0  0  0  0  0  0  0  0  0  0
    8.2943   58.0839   64.2289 C   0  0  0  0  0  0  0  0  0  0  0  0
    7.4293   58.7014   63.2937 C   0  0  0  0  0  0  0  0  0  0  0  0
    7.7652   58.6658   61.9126 C   0  0  0  0  0  0  0  0  0  0  0  0
    8.9066   58.0631   61.4884 C   0  0  0  0  0  0  0  0  0  0  0  0
    9.8023   57.4674   62.3887 C   0  0  0  0  0  0  0  0  0  0  0  0
   11.0427   56.8456   61.9606 C   0  0  0  0  0  0  0  0  0  0  0  0
   11.8970   56.2770   62.8784 C   0  0  0  0  0  0  0  0  0  0  0  0
   11.5787   56.2769   64.2573 C   0  0  0  0  0  0  0  0  0  0  0  0
   10.4087   56.8470   64.7378 C   0  0  0  0  0  0  0  0  0  0  0  0
    7.9082   58.1342   65.7572 C   0  0  0  0  0  0  0  0  0  0  0  0
    6.4484   57.8481   65.9182 C   0  0  0  0  0  0  0  0  0  0  0  0
    5.8942   56.7427   66.3437 O   0  0  0  0  0  0  0  0  0  0  0  0
    5.7486   58.9235   65.6432 O   0  0  0  0  0  0  0  0  0  0  0  0
    6.1797   59.6982   65.3401 H   0  0  0  0  0  0  0  0  0  0  0  0
  1  2  2  0  0  0
  1  6  1  0  0  0
  1 10  1  0  0  0
  2  3  1  0  0  0
  2 11  1  0  0  0
  3  4  2  0  0  0
  4  5  1  0  0  0
  5  6  2  0  0  0
  6  7  1  0  0  0
  7  8  2  0  0  0
  8  9  1  0  0  0
  9 10  2  0  0  0
 11 12  1  0  0  0
 12 13  2  0  0  0
 12 14  1  0  0  0
 14 15  1  0  0  0
M  END
> <minimizedAffinity>
-6.27010

$$$$
1LRH_NLA_A_5190


 15 16  0  0  0  0  0  0  0  0999 V2000
   10.1916   57.2239   63.6175 C   0  0  0  0  0  0  0  0  0  0  0  0
    9.0104   57.9803   63.6455 C   0  0  0  0  0  0  0  0  0  0  0  0
    8.3961   58.4083   62.4440 C   0  0  0  0  0  0  0  0  0  0  0  0
    8.9636   58.0182   61.2001 C   0  0  0  0  0  0  0  0  0  0  0  0
   10.0888   57.2581   61.1553 C   0  0  0  0  0  0  0  0  0  0  0  0
   10.7416   56.8408   62.3245 C   0  0  0  0  0  0  0  0  0  0  0  0
   11.9624   56.0548   62.2998 C   0  0  0  0  0  0  0  0  0  0  0  0
   12.5746   55.6706   63.4716 C   0  0  0  0  0  0  0  0  0  0  0  0
   12.0208   56.0245   64.7249 C   0  0  0  0  0  0  0  0  0  0  0  0
   10.8541   56.7686   64.8252 C   0  0  0  0  0  0  0  0  0  0  0  0
    8.3696   58.4235   65.0168 C   0  0  0  0  0  0  0  0  0  0  0  0
    6.9179   58.0613   65.0353 C   0  0  0  0  0  0  0  0  0  0  0  0
    6.0885   58.0384   64.0245 O   0  0  0  0  0  0  0  0  0  0  0  0
    6.5698   57.6692   66.2381 O   0  0  0  0  0  0  0  0  0  0  0  0
    7.1910   57.6996   66.9389 H   0  0  0  0  0  0  0  0  0  0  0  0
  1  2  2  0  0  0
  1  6  1  0  0  0
  1 10  1  0  0  0
  2  3  1  0  0  0
  2 11  1  0  0  0
  3  4  2  0  0  0
  4  5  1  0  0  0
  5  6  2  0  0  0
  6  7  1  0  0  0
  7  8  2  0  0  0
  8  9  1  0  0  0
  9 10  2  0  0  0
 11 12  1  0  0  0
 12 13  2  0  0  0
 12 14  1  0  0  0
 14 15  1  0  0  0
M  END
> <minimizedAffinity>
-6.12651

$$$$
1LRH_NLA_A_5190


 15 16  0  0  0  0  0  0  0  0999 V2000
    8.8392   57.7653   63.4903 C   0  0  0  0  0  0  0  0  0  0  0  0
    8.1789   58.0902   64.6847 C   0  0  0  0  0  0  0  0  0  0  0  0
    8.6947   57.6706   65.9345 C   0  0  0  0  0  0  0  0  0  0  0  0
    9.9233   56.9560   65.9708 C   0  0  0  0  0  0  0  0  0  0  0  0
   10.5924   56.6618   64.8255 C   0  0  0  0  0  0  0  0  0  0  0  0
   10.0968   57.0349   63.5674 C   0  0  0  0  0  0  0  0  0  0  0  0
   10.7791   56.7036   62.3291 C   0  0  0  0  0  0  0  0  0  0  0  0
   10.2548   57.0844   61.1144 C   0  0  0  0  0  0  0  0  0  0  0  0
    9.0455   57.8163   61.0478 C   0  0  0  0  0  0  0  0  0  0  0  0
    8.3426   58.1730   62.1895 C   0  0  0  0  0  0  0  0  0  0  0  0
    6.8139   58.8800   64.6617 C   0  0  0  0  0  0  0  0  0  0  0  0
    5.8097   58.1763   65.5192 C   0  0  0  0  0  0  0  0  0  0  0  0
    5.6011   58.3382   66.7999 O   0  0  0  0  0  0  0  0  0  0  0  0
    5.0638   57.3890   64.7805 O   0  0  0  0  0  0  0  0  0  0  0  0
    5.2428   57.2973   63.8653 H   0  0  0  0  0  0  0  0  0  0  0  0
  1  2  2  0  0  0
  1  6  1  0  0  0
  1 10  1  0  0  0
  2  3  1  0  0  0
  2 11  1  0  0  0
  3  4  2  0  0  0
  4  5  1  0  0  0
  5  6  2  0  0  0
  6  7  1  0  0  0
  7  8  2  0  0  0
  8  9  1  0  0  0
  9 10  2  0  0  0
 11 12  1  0  0  0
 12 13  2  0  0  0
 12 14  1  0  0  0
 14 15  1  0  0  0
M  END
> <minimizedAffinity>
-6.08056

$$$$
1LRH_NLA_A_5190


 15 16  0  0  0  0  0  0  0  0999 V2000
   10.0357   57.1969   62.9992 C   0  0  0  0  0  0  0  0  0  0  0  0
   10.5272   56.9493   64.2895 C   0  0  0  0  0  0  0  0  0  0  0  0
    9.8042   57.3679   65.4324 C   0  0  0  0  0  0  0  0  0  0  0  0
    8.5426   58.0003   65.2593 C   0  0  0  0  0  0  0  0  0  0  0  0
    8.0369   58.2180   64.0172 C   0  0  0  0  0  0  0  0  0  0  0  0
    8.7383   57.8441   62.8614 C   0  0  0  0  0  0  0  0  0  0  0  0
    8.2313   58.0954   61.5241 C   0  0  0  0  0  0  0  0  0  0  0  0
    8.9550   57.7170   60.4157 C   0  0  0  0  0  0  0  0  0  0  0  0
   10.2032   57.0654   60.5566 C   0  0  0  0  0  0  0  0  0  0  0  0
   10.7467   56.7875   61.8026 C   0  0  0  0  0  0  0  0  0  0  0  0
   11.9260   56.2514   64.4989 C   0  0  0  0  0  0  0  0  0  0  0  0
   11.8386   54.8145   64.0907 C   0  0  0  0  0  0  0  0  0  0  0  0
   10.8726   53.9704   64.3445 O   0  0  0  0  0  0  0  0  0  0  0  0
   12.8652   54.5004   63.3363 O   0  0  0  0  0  0  0  0  0  0  0  0
   13.5393   55.1312   63.1760 H   0  0  0  0  0  0  0  0  0  0  0  0
  1  2  2  0  0  0
  1  6  1  0  0  0
  1 10  1  0  0  0
  2  3  1  0  0  0
  2 11  1  0  0  0
  3  4  2  0  0  0
  4  5  1  0  0  0
  5  6  2  0  0  0
  6  7  1  0  0  0
  7  8  2  0  0  0
  8  9  1  0  0  0
  9 10  2  0  0  0
 11 12  1  0  0  0
 12 13  2  0  0  0
 12 14  1  0  0  0
 14 15  1  0  0  0
M  END
> <minimizedAffinity>
-6.03403

$$$$
1LRH_NLA_A_5190


 15 16  0  0  0  0  0  0  0  0999 V2000
   10.4954   57.1172   64.0811 C   0  0  0  0  0  0  0  0  0  0  0  0
    9.5047   57.7288   64.8637 C   0  0  0  0  0  0  0  0  0  0  0  0
    9.2096   57.2494   66.1627 C   0  0  0  0  0  0  0  0  0  0  0  0
    9.9670   56.1675   66.6891 C   0  0  0  0  0  0  0  0  0  0  0  0
   10.9522   55.5852   65.9568 C   0  0  0  0  0  0  0  0  0  0  0  0
   11.2525   56.0136   64.6553 C   0  0  0  0  0  0  0  0  0  0  0  0
   12.2796   55.3855   63.8434 C   0  0  0  0  0  0  0  0  0  0  0  0
   12.5387   55.8337   62.5677 C   0  0  0  0  0  0  0  0  0  0  0  0
   11.8168   56.9232   62.0250 C   0  0  0  0  0  0  0  0  0  0  0  0
   10.8260   57.5753   62.7448 C   0  0  0  0  0  0  0  0  0  0  0  0
    8.6537   58.9282   64.2937 C   0  0  0  0  0  0  0  0  0  0  0  0
    7.3539   58.4149   63.7591 C   0  0  0  0  0  0  0  0  0  0  0  0
    6.3404   57.9467   64.4401 O   0  0  0  0  0  0  0  0  0  0  0  0
    7.3126   58.5711   62.4570 O   0  0  0  0  0  0  0  0  0  0  0  0
    8.0584   58.9096   62.0018 H   0  0  0  0  0  0  0  0  0  0  0  0
  1  2  2  0  0  0
  1  6  1  0  0  0
  1 10  1  0  0  0
  2  3  1  0  0  0
  2 11  1  0  0  0
  3  4  2  0  0  0
  4  5  1  0  0  0
  5  6  2  0  0  0
  6  7  1  0  0  0
  7  8  2  0  0  0
  8  9  1  0  0  0
  9 10  2  0  0  0
 11 12  1  0  0  0
 12 13  2  0  0  0
 12 14  1  0  0  0
 14 15  1  0  0  0
M  END
> <minimizedAffinity>
-5.76446

$$$$
1LRH_NLA_A_5190


 15 16  0  0  0  0  0  0  0  0999 V2000
   10.0803   57.3214   63.7142 C   0  0  0  0  0  0  0  0  0  0  0  0
   10.8495   56.9782   62.5923 C   0  0  0  0  0  0  0  0  0  0  0  0
   11.9427   56.0864   62.7094 C   0  0  0  0  0  0  0  0  0  0  0  0
   12.2236   55.4988   63.9733 C   0  0  0  0  0  0  0  0  0  0  0  0
   11.4680   55.7951   65.0628 C   0  0  0  0  0  0  0  0  0  0  0  0
   10.3960   56.6969   64.9914 C   0  0  0  0  0  0  0  0  0  0  0  0
    9.5951   57.0521   66.1495 C   0  0  0  0  0  0  0  0  0  0  0  0
    8.5546   57.9466   66.0368 C   0  0  0  0  0  0  0  0  0  0  0  0
    8.2369   58.5303   64.7874 C   0  0  0  0  0  0  0  0  0  0  0  0
    8.9545   58.2334   63.6377 C   0  0  0  0  0  0  0  0  0  0  0  0
   10.5528   57.6230   61.1839 C   0  0  0  0  0  0  0  0  0  0  0  0
    9.6195   56.7435   60.4132 C   0  0  0  0  0  0  0  0  0  0  0  0
    9.4642   56.6879   59.1159 O   0  0  0  0  0  0  0  0  0  0  0  0
    8.9945   55.9292   61.2305 O   0  0  0  0  0  0  0  0  0  0  0  0
    9.1302   55.9981   62.1551 H   0  0  0  0  0  0  0  0  0  0  0  0
  1  2  2  0  0  0
  1  6  1  0  0  0
  1 10  1  0  0  0
  2  3  1  0  0  0
  2 11  1  0  0  0
  3  4  2  0  0  0
  4  5  1  0  0  0
  5  6  2  0  0  0
  6  7  1  0  0  0
  7  8  2  0  0  0
  8  9  1  0  0  0
  9 10  2  0  0  0
 11 12  1  0  0  0
 12 13  2  0  0  0
 12 14  1  0  0  0
 14 15  1  0  0  0
M  END
> <minimizedAffinity>
-5.68672

$$$$
1LRH_NLA_A_5190


 15 16  0  0  0  0  0  0  0  0999 V2000
    9.8562   57.2549   63.8949 C   0  0  0  0  0  0  0  0  0  0  0  0
    9.5384   57.8374   62.6589 C   0  0  0  0  0  0  0  0  0  0  0  0
    8.4423   58.7251   62.5373 C   0  0  0  0  0  0  0  0  0  0  0  0
    7.6934   59.0623   63.6979 C   0  0  0  0  0  0  0  0  0  0  0  0
    8.0085   58.5325   64.9087 C   0  0  0  0  0  0  0  0  0  0  0  0
    9.0685   57.6268   65.0621 C   0  0  0  0  0  0  0  0  0  0  0  0
    9.4029   57.0244   66.3403 C   0  0  0  0  0  0  0  0  0  0  0  0
   10.4485   56.1350   66.4459 C   0  0  0  0  0  0  0  0  0  0  0  0
   11.2261   55.7975   65.3128 C   0  0  0  0  0  0  0  0  0  0  0  0
   10.9684   56.3383   64.0614 C   0  0  0  0  0  0  0  0  0  0  0  0
   10.3573   57.4720   61.3614 C   0  0  0  0  0  0  0  0  0  0  0  0
    9.5031   56.6627   60.4373 C   0  0  0  0  0  0  0  0  0  0  0  0
    9.4571   56.7268   59.1319 O   0  0  0  0  0  0  0  0  0  0  0  0
    8.8229   55.7728   61.1207 O   0  0  0  0  0  0  0  0  0  0  0  0
    8.8801   55.7564   62.0558 H   0  0  0  0  0  0  0  0  0  0  0  0
  1  2  2  0  0  0
  1  6  1  0  0  0
  1 10  1  0  0  0
  2  3  1  0  0  0
  2 11  1  0  0  0
  3  4  2  0  0  0
  4  5  1  0  0  0
  5  6  2  0  0  0
  6  7  1  0  0  0
  7  8  2  0  0  0
  8  9  1  0  0  0
  9 10  2  0  0  0
 11 12  1  0  0  0
 12 13  2  0  0  0
 12 14  1  0  0  0
 14 15  1  0  0  0
M  END
> <minimizedAffinity>
-5.53533

$$$$
1LRH_NLA_A_5190


 15 16  0  0  0  0  0  0  0  0999 V2000
   10.2786   56.8877   62.9888 C   0  0  0  0  0  0  0  0  0  0  0  0
   10.3999   56.7932   64.3832 C   0  0  0  0  0  0  0  0  0  0  0  0
   11.6299   56.4250   64.9796 C   0  0  0  0  0  0  0  0  0  0  0  0
   12.7616   56.2003   64.1487 C   0  0  0  0  0  0  0  0  0  0  0  0
   12.6693   56.3199   62.7985 C   0  0  0  0  0  0  0  0  0  0  0  0
   11.4603   56.6535   62.1704 C   0  0  0  0  0  0  0  0  0  0  0  0
   11.3315   56.7558   60.7276 C   0  0  0  0  0  0  0  0  0  0  0  0
   10.1241   57.0804   60.1512 C   0  0  0  0  0  0  0  0  0  0  0  0
    8.9858   57.3319   60.9535 C   0  0  0  0  0  0  0  0  0  0  0  0
    9.0361   57.2585   62.3380 C   0  0  0  0  0  0  0  0  0  0  0  0
    9.1539   57.0367   65.3189 C   0  0  0  0  0  0  0  0  0  0  0  0
    8.5950   58.4020   65.0691 C   0  0  0  0  0  0  0  0  0  0  0  0
    9.2522   59.4876   64.7536 O   0  0  0  0  0  0  0  0  0  0  0  0
    7.2846   58.3668   65.1279 O   0  0  0  0  0  0  0  0  0  0  0  0
    6.8471   57.5707   65.3576 H   0  0  0  0  0  0  0  0  0  0  0  0
  1  2  2  0  0  0
  1  6  1  0  0  0
  1 10  1  0  0  0
  2  3  1  0  0  0
  2 11  1  0  0  0
  3  4  2  0  0  0
  4  5  1  0  0  0
  5  6  2  0  0  0
  6  7  1  0  0  0
  7  8  2  0  0  0
  8  9  1  0  0  0
  9 10  2  0  0  0
 11 12  1  0  0  0
 12 13  2  0  0  0
 12 14  1  0  0  0
 14 15  1  0  0  0
M  END
> <minimizedAffinity>
-5.39849

$$$$
