5NXW_RA9_A_302


 26 27  0  0  0  0  0  0  0  0999 V2000
   -4.0968    7.1590   13.7199 N   0  0  0  0  0  0  0  0  0  0  0  0
   -4.3374    7.3627   12.3808 C   0  0  0  0  0  0  0  0  0  0  0  0
   -5.1282    6.8152   11.6215 O   0  0  0  0  0  0  0  0  0  0  0  0
   -3.4405    7.7601   14.1408 H   0  0  0  0  0  0  0  0  0  0  0  0
   -5.8013    4.2551   16.3215 C   0  0  0  0  0  0  0  0  0  0  0  0
   -4.4679    4.1677   15.8932 C   0  0  0  0  0  0  0  0  0  0  0  0
   -6.5337    5.3593   15.8204 C   0  0  0  0  0  0  0  0  0  0  0  0
   -5.9895    6.3125   14.9680 C   0  0  0  0  0  0  0  0  0  0  0  0
   -4.6700    6.2082   14.5422 C   0  0  0  0  0  0  0  0  0  0  0  0
   -3.9060    5.1441   15.0284 C   0  0  0  0  0  0  0  0  0  0  0  0
   -7.8382    2.9152   16.8206 O   0  0  0  0  0  0  0  0  0  0  0  0
   -6.5045    3.1128   17.3358 S   0  0  0  0  0  0  0  0  0  0  0  0
   -6.4044    3.6580   18.6914 O   0  0  0  0  0  0  0  0  0  0  0  0
   -5.6572    1.7538   17.2131 N   0  0  0  0  0  0  0  0  0  0  0  0
   -5.7373    1.3876   16.2644 H   0  0  0  0  0  0  0  0  0  0  0  0
   -6.0191    1.0667   17.8744 H   0  0  0  0  0  0  0  0  0  0  0  0
   -3.5002    8.3617   11.6265 C   0  0  0  0  0  0  0  0  0  0  0  0
   -1.8238    8.1313   12.1537 S   0  0  0  0  0  0  0  0  0  0  0  0
   -1.5417    6.4831   11.6960 C   0  0  0  0  0  0  0  0  0  0  0  0
   -1.3036    5.5236   12.6128 N   0  0  0  0  0  0  0  0  0  0  0  0
   -1.5677    6.0727   10.0163 S   0  0  0  0  0  0  0  0  0  0  0  0
   -1.2348    4.4780   10.6151 C   0  0  0  0  0  0  0  0  0  0  0  0
   -1.1159    4.2893   11.9495 N   0  0  0  0  0  0  0  0  0  0  0  0
   -1.0933    3.4470    9.7493 N   0  0  0  0  0  0  0  0  0  0  0  0
   -0.9045    2.5421   10.0881 H   0  0  0  0  0  0  0  0  0  0  0  0
   -1.1792    3.6021    8.7809 H   0  0  0  0  0  0  0  0  0  0  0  0
 23 20  1  0  0  0
 23 22  2  0  0  0
 20 19  2  0  0  0
 17  2  1  0  0  0
 17 18  1  0  0  0
 22 24  1  0  0  0
 22 21  1  0  0  0
 19 18  1  0  0  0
 19 21  1  0  0  0
  2  1  1  0  0  0
  2  3  2  0  0  0
  1  9  1  0  0  0
  9  8  2  0  0  0
  9 10  1  0  0  0
  8  7  1  0  0  0
 10  6  2  0  0  0
  7  5  2  0  0  0
  6  5  1  0  0  0
  5 12  1  0  0  0
 14 12  1  0  0  0
 11 12  2  0  0  0
 12 13  2  0  0  0
 14 15  1  0  0  0
 14 16  1  0  0  0
  1  4  1  0  0  0
 24 25  1  0  0  0
 24 26  1  0  0  0
M  END
> <minimizedAffinity>
-7.55751

$$$$
5NXW_RA9_A_302


 26 27  0  0  0  0  0  0  0  0999 V2000
   -4.5135    6.2121   12.7527 N   0  0  0  0  0  0  0  0  0  0  0  0
   -3.3076    6.8714   12.6924 C   0  0  0  0  0  0  0  0  0  0  0  0
   -2.3843    6.9177   13.4968 O   0  0  0  0  0  0  0  0  0  0  0  0
   -5.0865    6.2786   11.9548 H   0  0  0  0  0  0  0  0  0  0  0  0
   -5.9644    3.9100   16.0239 C   0  0  0  0  0  0  0  0  0  0  0  0
   -5.0870    3.3668   15.0731 C   0  0  0  0  0  0  0  0  0  0  0  0
   -6.3382    5.2597   15.8109 C   0  0  0  0  0  0  0  0  0  0  0  0
   -5.8738    6.0210   14.7452 C   0  0  0  0  0  0  0  0  0  0  0  0
   -5.0133    5.4675   13.8037 C   0  0  0  0  0  0  0  0  0  0  0  0
   -4.6042    4.1441   13.9870 C   0  0  0  0  0  0  0  0  0  0  0  0
   -7.9399    2.7348   16.9779 O   0  0  0  0  0  0  0  0  0  0  0  0
   -6.5657    3.0180   17.3166 S   0  0  0  0  0  0  0  0  0  0  0  0
   -6.3450    3.8360   18.5112 O   0  0  0  0  0  0  0  0  0  0  0  0
   -5.7259    1.6519   17.4084 N   0  0  0  0  0  0  0  0  0  0  0  0
   -5.8905    1.0947   16.5700 H   0  0  0  0  0  0  0  0  0  0  0  0
   -6.0221    1.1253   18.2302 H   0  0  0  0  0  0  0  0  0  0  0  0
   -3.0087    7.7516   11.5076 C   0  0  0  0  0  0  0  0  0  0  0  0
   -2.0138    6.7964   10.3943 S   0  0  0  0  0  0  0  0  0  0  0  0
   -2.8022    5.2540   10.4640 C   0  0  0  0  0  0  0  0  0  0  0  0
   -4.0840    5.0950   10.0777 N   0  0  0  0  0  0  0  0  0  0  0  0
   -1.9103    3.8923   11.0478 S   0  0  0  0  0  0  0  0  0  0  0  0
   -3.3952    3.0500   10.7348 C   0  0  0  0  0  0  0  0  0  0  0  0
   -4.4500    3.7394   10.2424 N   0  0  0  0  0  0  0  0  0  0  0  0
   -3.4860    1.7233   10.9887 N   0  0  0  0  0  0  0  0  0  0  0  0
   -4.3279    1.2447   10.8115 H   0  0  0  0  0  0  0  0  0  0  0  0
   -2.7101    1.2371   11.3505 H   0  0  0  0  0  0  0  0  0  0  0  0
 23 20  1  0  0  0
 23 22  2  0  0  0
 20 19  2  0  0  0
 17  2  1  0  0  0
 17 18  1  0  0  0
 22 24  1  0  0  0
 22 21  1  0  0  0
 19 18  1  0  0  0
 19 21  1  0  0  0
  2  1  1  0  0  0
  2  3  2  0  0  0
  1  9  1  0  0  0
  9  8  2  0  0  0
  9 10  1  0  0  0
  8  7  1  0  0  0
 10  6  2  0  0  0
  7  5  2  0  0  0
  6  5  1  0  0  0
  5 12  1  0  0  0
 14 12  1  0  0  0
 11 12  2  0  0  0
 12 13  2  0  0  0
 14 15  1  0  0  0
 14 16  1  0  0  0
  1  4  1  0  0  0
 24 25  1  0  0  0
 24 26  1  0  0  0
M  END
> <minimizedAffinity>
-7.28081

$$$$
5NXW_RA9_A_302


 26 27  0  0  0  0  0  0  0  0999 V2000
   -4.5167    6.9870   13.2145 N   0  0  0  0  0  0  0  0  0  0  0  0
   -3.7398    8.1032   13.4221 C   0  0  0  0  0  0  0  0  0  0  0  0
   -3.2170    8.5306   14.4445 O   0  0  0  0  0  0  0  0  0  0  0  0
   -4.7887    6.8125   12.2845 H   0  0  0  0  0  0  0  0  0  0  0  0
   -5.8000    4.2164   16.1781 C   0  0  0  0  0  0  0  0  0  0  0  0
   -4.6539    3.9862   15.4020 C   0  0  0  0  0  0  0  0  0  0  0  0
   -6.4980    5.4169   15.8976 C   0  0  0  0  0  0  0  0  0  0  0  0
   -6.0909    6.3280   14.9305 C   0  0  0  0  0  0  0  0  0  0  0  0
   -4.9594    6.0827   14.1606 C   0  0  0  0  0  0  0  0  0  0  0  0
   -4.2304    4.9188   14.4183 C   0  0  0  0  0  0  0  0  0  0  0  0
   -5.3446    2.0847   17.3789 O   0  0  0  0  0  0  0  0  0  0  0  0
   -6.3385    3.1308   17.3441 S   0  0  0  0  0  0  0  0  0  0  0  0
   -7.6878    2.7335   16.9359 O   0  0  0  0  0  0  0  0  0  0  0  0
   -6.3819    3.8996   18.7537 N   0  0  0  0  0  0  0  0  0  0  0  0
   -5.4357    4.1690   19.0232 H   0  0  0  0  0  0  0  0  0  0  0  0
   -6.7756    3.2836   19.4650 H   0  0  0  0  0  0  0  0  0  0  0  0
   -3.4842    9.0452   12.2752 C   0  0  0  0  0  0  0  0  0  0  0  0
   -3.2769    8.0472   10.8253 S   0  0  0  0  0  0  0  0  0  0  0  0
   -4.8105    8.2525   10.0432 C   0  0  0  0  0  0  0  0  0  0  0  0
   -5.8165    7.3712   10.2132 N   0  0  0  0  0  0  0  0  0  0  0  0
   -5.0422    9.6270    9.0197 S   0  0  0  0  0  0  0  0  0  0  0  0
   -6.6264    8.9475    8.8176 C   0  0  0  0  0  0  0  0  0  0  0  0
   -6.9348    7.7980    9.4610 N   0  0  0  0  0  0  0  0  0  0  0  0
   -7.5301    9.5653    8.0211 N   0  0  0  0  0  0  0  0  0  0  0  0
   -8.4290    9.1806    7.9059 H   0  0  0  0  0  0  0  0  0  0  0  0
   -7.2884   10.3993    7.5571 H   0  0  0  0  0  0  0  0  0  0  0  0
 23 20  1  0  0  0
 23 22  2  0  0  0
 20 19  2  0  0  0
 17  2  1  0  0  0
 17 18  1  0  0  0
 22 24  1  0  0  0
 22 21  1  0  0  0
 19 18  1  0  0  0
 19 21  1  0  0  0
  2  1  1  0  0  0
  2  3  2  0  0  0
  1  9  1  0  0  0
  9  8  2  0  0  0
  9 10  1  0  0  0
  8  7  1  0  0  0
 10  6  2  0  0  0
  7  5  2  0  0  0
  6  5  1  0  0  0
  5 12  1  0  0  0
 14 12  1  0  0  0
 11 12  2  0  0  0
 12 13  2  0  0  0
 14 15  1  0  0  0
 14 16  1  0  0  0
  1  4  1  0  0  0
 24 25  1  0  0  0
 24 26  1  0  0  0
M  END
> <minimizedAffinity>
-7.02381

$$$$
5NXW_RA9_A_302


 26 27  0  0  0  0  0  0  0  0999 V2000
   -4.2494    7.5060   14.0153 N   0  0  0  0  0  0  0  0  0  0  0  0
   -4.5763    7.8966   12.7373 C   0  0  0  0  0  0  0  0  0  0  0  0
   -5.3521    7.4027   11.9275 O   0  0  0  0  0  0  0  0  0  0  0  0
   -3.6297    8.0936   14.5051 H   0  0  0  0  0  0  0  0  0  0  0  0
   -5.5520    4.0748   16.1683 C   0  0  0  0  0  0  0  0  0  0  0  0
   -4.2148    4.2324   15.7734 C   0  0  0  0  0  0  0  0  0  0  0  0
   -6.4289    5.1215   15.7911 C   0  0  0  0  0  0  0  0  0  0  0  0
   -6.0164    6.2454   15.0855 C   0  0  0  0  0  0  0  0  0  0  0  0
   -4.6906    6.3843   14.6905 C   0  0  0  0  0  0  0  0  0  0  0  0
   -3.7880    5.3833   15.0591 C   0  0  0  0  0  0  0  0  0  0  0  0
   -5.6618    2.9156   18.3678 O   0  0  0  0  0  0  0  0  0  0  0  0
   -6.0966    2.7216   17.0052 S   0  0  0  0  0  0  0  0  0  0  0  0
   -5.5428    1.5611   16.3041 O   0  0  0  0  0  0  0  0  0  0  0  0
   -7.7012    2.7079   16.9334 N   0  0  0  0  0  0  0  0  0  0  0  0
   -8.0705    3.5214   17.4255 H   0  0  0  0  0  0  0  0  0  0  0  0
   -8.0539    1.8567   17.3709 H   0  0  0  0  0  0  0  0  0  0  0  0
   -3.8735    9.0808   12.1275 C   0  0  0  0  0  0  0  0  0  0  0  0
   -2.1362    8.7349   12.1860 S   0  0  0  0  0  0  0  0  0  0  0  0
   -1.6210    9.7738   13.4748 C   0  0  0  0  0  0  0  0  0  0  0  0
   -2.0847    9.6268   14.7323 N   0  0  0  0  0  0  0  0  0  0  0  0
   -0.4834   11.0282   13.1246 S   0  0  0  0  0  0  0  0  0  0  0  0
   -0.6534   11.3682   14.8181 C   0  0  0  0  0  0  0  0  0  0  0  0
   -1.4894   10.6060   15.5601 N   0  0  0  0  0  0  0  0  0  0  0  0
    0.0420   12.3870   15.3760 N   0  0  0  0  0  0  0  0  0  0  0  0
   -0.0538   12.5806   16.3365 H   0  0  0  0  0  0  0  0  0  0  0  0
    0.6434   12.9344   14.8211 H   0  0  0  0  0  0  0  0  0  0  0  0
 23 20  1  0  0  0
 23 22  2  0  0  0
 20 19  2  0  0  0
 17  2  1  0  0  0
 17 18  1  0  0  0
 22 24  1  0  0  0
 22 21  1  0  0  0
 19 18  1  0  0  0
 19 21  1  0  0  0
  2  1  1  0  0  0
  2  3  2  0  0  0
  1  9  1  0  0  0
  9  8  2  0  0  0
  9 10  1  0  0  0
  8  7  1  0  0  0
 10  6  2  0  0  0
  7  5  2  0  0  0
  6  5  1  0  0  0
  5 12  1  0  0  0
 14 12  1  0  0  0
 11 12  2  0  0  0
 12 13  2  0  0  0
 14 15  1  0  0  0
 14 16  1  0  0  0
  1  4  1  0  0  0
 24 25  1  0  0  0
 24 26  1  0  0  0
M  END
> <minimizedAffinity>
-6.97649

$$$$
5NXW_RA9_A_302


 26 27  0  0  0  0  0  0  0  0999 V2000
   -4.5631    7.2159   13.5665 N   0  0  0  0  0  0  0  0  0  0  0  0
   -4.4887    7.1496   12.1943 C   0  0  0  0  0  0  0  0  0  0  0  0
   -4.8464    6.2707   11.4190 O   0  0  0  0  0  0  0  0  0  0  0  0
   -4.2548    8.0548   13.9793 H   0  0  0  0  0  0  0  0  0  0  0  0
   -5.9045    4.2383   16.2941 C   0  0  0  0  0  0  0  0  0  0  0  0
   -4.6246    4.1889   15.7212 C   0  0  0  0  0  0  0  0  0  0  0  0
   -6.7127    5.3304   15.8932 C   0  0  0  0  0  0  0  0  0  0  0  0
   -6.2874    6.3074   15.0012 C   0  0  0  0  0  0  0  0  0  0  0  0
   -5.0206    6.2409   14.4319 C   0  0  0  0  0  0  0  0  0  0  0  0
   -4.1836    5.1897   14.8152 C   0  0  0  0  0  0  0  0  0  0  0  0
   -7.8100    2.7685   16.9287 O   0  0  0  0  0  0  0  0  0  0  0  0
   -6.4657    3.0663   17.3617 S   0  0  0  0  0  0  0  0  0  0  0  0
   -6.3254    3.6385   18.7025 O   0  0  0  0  0  0  0  0  0  0  0  0
   -5.5338    1.7674   17.2052 N   0  0  0  0  0  0  0  0  0  0  0  0
   -5.6431    1.3815   16.2674 H   0  0  0  0  0  0  0  0  0  0  0  0
   -5.8076    1.0675   17.8948 H   0  0  0  0  0  0  0  0  0  0  0  0
   -3.8221    8.2688   11.4388 C   0  0  0  0  0  0  0  0  0  0  0  0
   -2.8208    9.1522   12.6043 S   0  0  0  0  0  0  0  0  0  0  0  0
   -1.2311    8.6110   12.1733 C   0  0  0  0  0  0  0  0  0  0  0  0
   -0.2825    9.4678   11.7447 N   0  0  0  0  0  0  0  0  0  0  0  0
   -0.8663    6.9253   12.2995 S   0  0  0  0  0  0  0  0  0  0  0  0
    0.6928    7.4339   11.7311 C   0  0  0  0  0  0  0  0  0  0  0  0
    0.9020    8.7454   11.4735 N   0  0  0  0  0  0  0  0  0  0  0  0
    1.6757    6.5212   11.5473 N   0  0  0  0  0  0  0  0  0  0  0  0
    2.5604    6.8087   11.2249 H   0  0  0  0  0  0  0  0  0  0  0  0
    1.5058    5.5700   11.7359 H   0  0  0  0  0  0  0  0  0  0  0  0
 23 20  1  0  0  0
 23 22  2  0  0  0
 20 19  2  0  0  0
 17  2  1  0  0  0
 17 18  1  0  0  0
 22 24  1  0  0  0
 22 21  1  0  0  0
 19 18  1  0  0  0
 19 21  1  0  0  0
  2  1  1  0  0  0
  2  3  2  0  0  0
  1  9  1  0  0  0
  9  8  2  0  0  0
  9 10  1  0  0  0
  8  7  1  0  0  0
 10  6  2  0  0  0
  7  5  2  0  0  0
  6  5  1  0  0  0
  5 12  1  0  0  0
 14 12  1  0  0  0
 11 12  2  0  0  0
 12 13  2  0  0  0
 14 15  1  0  0  0
 14 16  1  0  0  0
  1  4  1  0  0  0
 24 25  1  0  0  0
 24 26  1  0  0  0
M  END
> <minimizedAffinity>
-6.59520

$$$$
5NXW_RA9_A_302


 26 27  0  0  0  0  0  0  0  0999 V2000
   -4.6728    7.3333   13.4619 N   0  0  0  0  0  0  0  0  0  0  0  0
   -4.5840    7.2669   12.0906 C   0  0  0  0  0  0  0  0  0  0  0  0
   -4.8890    6.3682   11.3154 O   0  0  0  0  0  0  0  0  0  0  0  0
   -4.4120    8.1884   13.8742 H   0  0  0  0  0  0  0  0  0  0  0  0
   -5.8794    4.2982   16.1892 C   0  0  0  0  0  0  0  0  0  0  0  0
   -4.5922    4.3170   15.6308 C   0  0  0  0  0  0  0  0  0  0  0  0
   -6.7419    5.3425   15.7738 C   0  0  0  0  0  0  0  0  0  0  0  0
   -6.3608    6.3375   14.8817 C   0  0  0  0  0  0  0  0  0  0  0  0
   -5.0858    6.3384   14.3270 C   0  0  0  0  0  0  0  0  0  0  0  0
   -4.1967    5.3366   14.7248 C   0  0  0  0  0  0  0  0  0  0  0  0
   -7.7498    2.8088   16.8799 O   0  0  0  0  0  0  0  0  0  0  0  0
   -6.3874    3.1018   17.2562 S   0  0  0  0  0  0  0  0  0  0  0  0
   -6.1861    3.6457   18.6010 O   0  0  0  0  0  0  0  0  0  0  0  0
   -5.4607    1.8097   17.0286 N   0  0  0  0  0  0  0  0  0  0  0  0
   -5.6127    1.4437   16.0887 H   0  0  0  0  0  0  0  0  0  0  0  0
   -5.7003    1.0943   17.7150 H   0  0  0  0  0  0  0  0  0  0  0  0
   -3.9705    8.4171   11.3365 C   0  0  0  0  0  0  0  0  0  0  0  0
   -4.3135    8.1481    9.6185 S   0  0  0  0  0  0  0  0  0  0  0  0
   -5.7495    9.0947    9.4012 C   0  0  0  0  0  0  0  0  0  0  0  0
   -6.0903   10.0740   10.2630 N   0  0  0  0  0  0  0  0  0  0  0  0
   -6.7635    8.7630    8.0402 S   0  0  0  0  0  0  0  0  0  0  0  0
   -7.7137   10.0584    8.6970 C   0  0  0  0  0  0  0  0  0  0  0  0
   -7.2977   10.6686    9.8305 N   0  0  0  0  0  0  0  0  0  0  0  0
   -8.8555   10.4403    8.0777 N   0  0  0  0  0  0  0  0  0  0  0  0
   -9.3951   11.1749    8.4496 H   0  0  0  0  0  0  0  0  0  0  0  0
   -9.1461    9.9832    7.2556 H   0  0  0  0  0  0  0  0  0  0  0  0
 23 20  1  0  0  0
 23 22  2  0  0  0
 20 19  2  0  0  0
 17  2  1  0  0  0
 17 18  1  0  0  0
 22 24  1  0  0  0
 22 21  1  0  0  0
 19 18  1  0  0  0
 19 21  1  0  0  0
  2  1  1  0  0  0
  2  3  2  0  0  0
  1  9  1  0  0  0
  9  8  2  0  0  0
  9 10  1  0  0  0
  8  7  1  0  0  0
 10  6  2  0  0  0
  7  5  2  0  0  0
  6  5  1  0  0  0
  5 12  1  0  0  0
 14 12  1  0  0  0
 11 12  2  0  0  0
 12 13  2  0  0  0
 14 15  1  0  0  0
 14 16  1  0  0  0
  1  4  1  0  0  0
 24 25  1  0  0  0
 24 26  1  0  0  0
M  END
> <minimizedAffinity>
-6.48156

$$$$
5NXW_RA9_A_302


 26 27  0  0  0  0  0  0  0  0999 V2000
   -4.6554    6.8365   12.7496 N   0  0  0  0  0  0  0  0  0  0  0  0
   -4.7261    6.6430   11.3894 C   0  0  0  0  0  0  0  0  0  0  0  0
   -5.1705    5.7031   10.7408 O   0  0  0  0  0  0  0  0  0  0  0  0
   -4.2985    7.7041   13.0481 H   0  0  0  0  0  0  0  0  0  0  0  0
   -5.7136    4.1218   15.8507 C   0  0  0  0  0  0  0  0  0  0  0  0
   -4.7512    3.7954   14.8830 C   0  0  0  0  0  0  0  0  0  0  0  0
   -6.3097    5.3996   15.7141 C   0  0  0  0  0  0  0  0  0  0  0  0
   -5.9750    6.2937   14.7044 C   0  0  0  0  0  0  0  0  0  0  0  0
   -5.0277    5.9537   13.7451 C   0  0  0  0  0  0  0  0  0  0  0  0
   -4.4010    4.7096   13.8542 C   0  0  0  0  0  0  0  0  0  0  0  0
   -5.0444    2.1616   17.2304 O   0  0  0  0  0  0  0  0  0  0  0  0
   -6.1622    3.0617   17.0767 S   0  0  0  0  0  0  0  0  0  0  0  0
   -7.4279    2.4608   16.6501 O   0  0  0  0  0  0  0  0  0  0  0  0
   -6.3715    3.9180   18.4194 N   0  0  0  0  0  0  0  0  0  0  0  0
   -5.4820    4.3291   18.7025 H   0  0  0  0  0  0  0  0  0  0  0  0
   -6.7158    3.3085   19.1612 H   0  0  0  0  0  0  0  0  0  0  0  0
   -4.1330    7.6758   10.4676 C   0  0  0  0  0  0  0  0  0  0  0  0
   -3.4877    6.8047    9.0654 S   0  0  0  0  0  0  0  0  0  0  0  0
   -2.0199    6.1476    9.7132 C   0  0  0  0  0  0  0  0  0  0  0  0
   -1.6923    4.8498    9.5515 N   0  0  0  0  0  0  0  0  0  0  0  0
   -0.9580    7.1944   10.5889 S   0  0  0  0  0  0  0  0  0  0  0  0
    0.0001    5.7548   10.7369 C   0  0  0  0  0  0  0  0  0  0  0  0
   -0.4493    4.6069   10.1795 N   0  0  0  0  0  0  0  0  0  0  0  0
    1.1757    5.7915   11.4071 N   0  0  0  0  0  0  0  0  0  0  0  0
    1.7199    4.9754   11.4916 H   0  0  0  0  0  0  0  0  0  0  0  0
    1.4866    6.6342   11.8101 H   0  0  0  0  0  0  0  0  0  0  0  0
 23 20  1  0  0  0
 23 22  2  0  0  0
 20 19  2  0  0  0
 17  2  1  0  0  0
 17 18  1  0  0  0
 22 24  1  0  0  0
 22 21  1  0  0  0
 19 18  1  0  0  0
 19 21  1  0  0  0
  2  1  1  0  0  0
  2  3  2  0  0  0
  1  9  1  0  0  0
  9  8  2  0  0  0
  9 10  1  0  0  0
  8  7  1  0  0  0
 10  6  2  0  0  0
  7  5  2  0  0  0
  6  5  1  0  0  0
  5 12  1  0  0  0
 14 12  1  0  0  0
 11 12  2  0  0  0
 12 13  2  0  0  0
 14 15  1  0  0  0
 14 16  1  0  0  0
  1  4  1  0  0  0
 24 25  1  0  0  0
 24 26  1  0  0  0
M  END
> <minimizedAffinity>
-6.44316

$$$$
5NXW_RA9_A_302


 26 27  0  0  0  0  0  0  0  0999 V2000
   -4.1913    7.2987   13.6634 N   0  0  0  0  0  0  0  0  0  0  0  0
   -4.4981    7.4457   12.3304 C   0  0  0  0  0  0  0  0  0  0  0  0
   -5.2851    6.8292   11.6218 O   0  0  0  0  0  0  0  0  0  0  0  0
   -3.5554    7.9502   14.0383 H   0  0  0  0  0  0  0  0  0  0  0  0
   -5.7379    4.3278   16.2877 C   0  0  0  0  0  0  0  0  0  0  0  0
   -6.5164    5.4173   15.8686 C   0  0  0  0  0  0  0  0  0  0  0  0
   -4.4117    4.2961   15.7906 C   0  0  0  0  0  0  0  0  0  0  0  0
   -3.8940    5.2616   14.9357 C   0  0  0  0  0  0  0  0  0  0  0  0
   -4.6725    6.3424   14.5367 C   0  0  0  0  0  0  0  0  0  0  0  0
   -5.9933    6.4018   14.9889 C   0  0  0  0  0  0  0  0  0  0  0  0
   -5.3328    2.0948   17.3094 O   0  0  0  0  0  0  0  0  0  0  0  0
   -6.3187    3.1488   17.3370 S   0  0  0  0  0  0  0  0  0  0  0  0
   -7.6572    2.8009   16.8550 O   0  0  0  0  0  0  0  0  0  0  0  0
   -6.4005    3.7913   18.8068 N   0  0  0  0  0  0  0  0  0  0  0  0
   -5.4614    4.0276   19.1273 H   0  0  0  0  0  0  0  0  0  0  0  0
   -6.8197    3.1188   19.4490 H   0  0  0  0  0  0  0  0  0  0  0  0
   -3.7536    8.4677   11.5124 C   0  0  0  0  0  0  0  0  0  0  0  0
   -2.1959    8.7342   12.3149 S   0  0  0  0  0  0  0  0  0  0  0  0
   -1.1606    7.6696   11.4202 C   0  0  0  0  0  0  0  0  0  0  0  0
   -1.6415    6.8543   10.4602 N   0  0  0  0  0  0  0  0  0  0  0  0
    0.5310    7.6620   11.7796 S   0  0  0  0  0  0  0  0  0  0  0  0
    0.5793    6.4641   10.5246 C   0  0  0  0  0  0  0  0  0  0  0  0
   -0.5722    6.1130    9.9073 N   0  0  0  0  0  0  0  0  0  0  0  0
    1.7576    5.8928   10.1807 N   0  0  0  0  0  0  0  0  0  0  0  0
    1.7859    5.2132    9.4690 H   0  0  0  0  0  0  0  0  0  0  0  0
    2.5860    6.1570   10.6425 H   0  0  0  0  0  0  0  0  0  0  0  0
 23 20  1  0  0  0
 23 22  2  0  0  0
 20 19  2  0  0  0
 17  2  1  0  0  0
 17 18  1  0  0  0
 22 24  1  0  0  0
 22 21  1  0  0  0
 19 18  1  0  0  0
 19 21  1  0  0  0
  2  1  1  0  0  0
  2  3  2  0  0  0
  1  9  1  0  0  0
  9  8  2  0  0  0
  9 10  1  0  0  0
  8  7  1  0  0  0
 10  6  2  0  0  0
  7  5  2  0  0  0
  6  5  1  0  0  0
  5 12  1  0  0  0
 14 12  1  0  0  0
 11 12  2  0  0  0
 12 13  2  0  0  0
 14 15  1  0  0  0
 14 16  1  0  0  0
  1  4  1  0  0  0
 24 25  1  0  0  0
 24 26  1  0  0  0
M  END
> <minimizedAffinity>
-6.33689

$$$$
5NXW_RA9_A_302


 26 27  0  0  0  0  0  0  0  0999 V2000
   -2.9990    8.1655   14.1421 N   0  0  0  0  0  0  0  0  0  0  0  0
   -2.5491    7.0236   13.5206 C   0  0  0  0  0  0  0  0  0  0  0  0
   -1.5222    6.8143   12.8856 O   0  0  0  0  0  0  0  0  0  0  0  0
   -3.8424    8.0850   14.6435 H   0  0  0  0  0  0  0  0  0  0  0  0
   -1.0826   11.9645   14.1695 C   0  0  0  0  0  0  0  0  0  0  0  0
   -1.1860   11.1836   15.3308 C   0  0  0  0  0  0  0  0  0  0  0  0
   -1.6670   11.4092   13.0047 C   0  0  0  0  0  0  0  0  0  0  0  0
   -2.2982   10.1713   12.9835 C   0  0  0  0  0  0  0  0  0  0  0  0
   -2.4037    9.4123   14.1436 C   0  0  0  0  0  0  0  0  0  0  0  0
   -1.8234    9.9147   15.3112 C   0  0  0  0  0  0  0  0  0  0  0  0
    0.2452   13.6237   15.4649 O   0  0  0  0  0  0  0  0  0  0  0  0
   -0.3453   13.4759   14.1561 S   0  0  0  0  0  0  0  0  0  0  0  0
   -1.3938   14.4355   13.8029 O   0  0  0  0  0  0  0  0  0  0  0  0
    0.8010   13.4574   13.0311 N   0  0  0  0  0  0  0  0  0  0  0  0
    1.5225   12.7851   13.2919 H   0  0  0  0  0  0  0  0  0  0  0  0
    1.2147   14.3864   12.9519 H   0  0  0  0  0  0  0  0  0  0  0  0
   -3.4207    5.7954   13.5179 C   0  0  0  0  0  0  0  0  0  0  0  0
   -4.7488    6.1038   14.6502 S   0  0  0  0  0  0  0  0  0  0  0  0
   -4.8041    4.6119   15.5315 C   0  0  0  0  0  0  0  0  0  0  0  0
   -3.7010    3.8611   15.7242 N   0  0  0  0  0  0  0  0  0  0  0  0
   -6.3204    4.0836   16.1736 S   0  0  0  0  0  0  0  0  0  0  0  0
   -5.3740    2.7470   16.7482 C   0  0  0  0  0  0  0  0  0  0  0  0
   -4.0496    2.7141   16.4736 N   0  0  0  0  0  0  0  0  0  0  0  0
   -5.9647    1.7552   17.4554 N   0  0  0  0  0  0  0  0  0  0  0  0
   -5.4286    0.9966   17.7817 H   0  0  0  0  0  0  0  0  0  0  0  0
   -6.9304    1.7925   17.6434 H   0  0  0  0  0  0  0  0  0  0  0  0
 23 20  1  0  0  0
 23 22  2  0  0  0
 20 19  2  0  0  0
 17  2  1  0  0  0
 17 18  1  0  0  0
 22 24  1  0  0  0
 22 21  1  0  0  0
 19 18  1  0  0  0
 19 21  1  0  0  0
  2  1  1  0  0  0
  2  3  2  0  0  0
  1  9  1  0  0  0
  9  8  2  0  0  0
  9 10  1  0  0  0
  8  7  1  0  0  0
 10  6  2  0  0  0
  7  5  2  0  0  0
  6  5  1  0  0  0
  5 12  1  0  0  0
 14 12  1  0  0  0
 11 12  2  0  0  0
 12 13  2  0  0  0
 14 15  1  0  0  0
 14 16  1  0  0  0
  1  4  1  0  0  0
 24 25  1  0  0  0
 24 26  1  0  0  0
M  END
> <minimizedAffinity>
-6.21991

$$$$
5NXW_RA9_A_302


 26 27  0  0  0  0  0  0  0  0999 V2000
   -4.3484    6.9656   13.4670 N   0  0  0  0  0  0  0  0  0  0  0  0
   -3.6481    8.1235   13.7149 C   0  0  0  0  0  0  0  0  0  0  0  0
   -3.2463    8.6008   14.7696 O   0  0  0  0  0  0  0  0  0  0  0  0
   -4.5215    6.7555   12.5209 H   0  0  0  0  0  0  0  0  0  0  0  0
   -5.9251    4.1686   16.2592 C   0  0  0  0  0  0  0  0  0  0  0  0
   -6.6270    5.3308   15.9050 C   0  0  0  0  0  0  0  0  0  0  0  0
   -4.6629    4.0027   15.6376 C   0  0  0  0  0  0  0  0  0  0  0  0
   -4.1358    4.9102   14.7267 C   0  0  0  0  0  0  0  0  0  0  0  0
   -4.8367    6.0636   14.3926 C   0  0  0  0  0  0  0  0  0  0  0  0
   -6.0951    6.2565   14.9686 C   0  0  0  0  0  0  0  0  0  0  0  0
   -7.8630    2.7629   16.9392 O   0  0  0  0  0  0  0  0  0  0  0  0
   -6.5174    3.0553   17.3718 S   0  0  0  0  0  0  0  0  0  0  0  0
   -6.3787    3.6838   18.6874 O   0  0  0  0  0  0  0  0  0  0  0  0
   -5.6082    1.7342   17.2820 N   0  0  0  0  0  0  0  0  0  0  0  0
   -5.7161    1.3092   16.3611 H   0  0  0  0  0  0  0  0  0  0  0  0
   -5.9010    1.0706   17.9991 H   0  0  0  0  0  0  0  0  0  0  0  0
   -3.3282    9.0491   12.5708 C   0  0  0  0  0  0  0  0  0  0  0  0
   -1.6029    9.4376   12.6896 S   0  0  0  0  0  0  0  0  0  0  0  0
   -1.6523   11.1518   12.9447 C   0  0  0  0  0  0  0  0  0  0  0  0
   -2.1206   11.9954   12.0031 N   0  0  0  0  0  0  0  0  0  0  0  0
   -1.0813   11.7830   14.4501 S   0  0  0  0  0  0  0  0  0  0  0  0
   -1.5205   13.3044   13.7394 C   0  0  0  0  0  0  0  0  0  0  0  0
   -2.0415   13.3199   12.4909 N   0  0  0  0  0  0  0  0  0  0  0  0
   -1.3349   14.4525   14.4323 N   0  0  0  0  0  0  0  0  0  0  0  0
   -1.5837   15.3159   14.0301 H   0  0  0  0  0  0  0  0  0  0  0  0
   -0.9511   14.4240   15.3385 H   0  0  0  0  0  0  0  0  0  0  0  0
 23 20  1  0  0  0
 23 22  2  0  0  0
 20 19  2  0  0  0
 17  2  1  0  0  0
 17 18  1  0  0  0
 22 24  1  0  0  0
 22 21  1  0  0  0
 19 18  1  0  0  0
 19 21  1  0  0  0
  2  1  1  0  0  0
  2  3  2  0  0  0
  1  9  1  0  0  0
  9  8  2  0  0  0
  9 10  1  0  0  0
  8  7  1  0  0  0
 10  6  2  0  0  0
  7  5  2  0  0  0
  6  5  1  0  0  0
  5 12  1  0  0  0
 14 12  1  0  0  0
 11 12  2  0  0  0
 12 13  2  0  0  0
 14 15  1  0  0  0
 14 16  1  0  0  0
  1  4  1  0  0  0
 24 25  1  0  0  0
 24 26  1  0  0  0
M  END
> <minimizedAffinity>
-6.13635

$$$$
