4POP_2VY_A_201


 19 20  0  0  0  0  0  0  0  0999 V2000
   14.4719   11.3262   41.5818 C   0  0  0  0  0  0  0  0  0  0  0  0
   15.1045    7.5245   44.4625 N   0  0  0  0  0  0  0  0  0  0  0  0
   15.4635    8.8549   44.1508 C   0  0  0  0  0  0  0  0  0  0  0  0
   14.8751    9.4492   43.1108 N   0  0  0  0  0  0  0  0  0  0  0  0
   15.1602   10.7080   42.7813 C   0  0  0  0  0  0  0  0  0  0  0  0
   16.0294   11.4302   43.4596 N   0  0  0  0  0  0  0  0  0  0  0  0
   16.6595   10.9456   44.5370 C   0  0  0  0  0  0  0  0  0  0  0  0
   16.4002    9.6015   44.9096 C   0  0  0  0  0  0  0  0  0  0  0  0
   14.4484    7.0480   43.9042 H   0  0  0  0  0  0  0  0  0  0  0  0
   15.5105    7.0740   45.2380 H   0  0  0  0  0  0  0  0  0  0  0  0
   17.1218    9.0103   46.1146 C   0  0  0  0  0  0  0  0  0  0  0  0
   18.5306    7.0976   47.9719 C   0  0  0  0  0  0  0  0  0  0  0  0
   18.6880    8.0306   44.2564 C   0  0  0  0  0  0  0  0  0  0  0  0
   19.9257    6.8463   44.2618 S   0  0  0  0  0  0  0  0  0  0  0  0
   19.9177    6.4037   45.8652 C   0  0  0  0  0  0  0  0  0  0  0  0
   18.9119    7.1882   46.4829 C   0  0  0  0  0  0  0  0  0  0  0  0
   18.2362    8.1002   45.6051 C   0  0  0  0  0  0  0  0  0  0  0  0
   21.8809    5.8802   47.1557 O   0  0  0  0  0  0  0  0  0  0  0  0
   20.8434    5.3373   46.3999 C   0  0  0  0  0  0  0  0  0  0  0  0
  1  5  1  0  0  0
  5  4  2  0  0  0
  5  6  1  0  0  0
  4  3  1  0  0  0
  6  7  2  0  0  0
  3  2  1  0  0  0
  3  8  2  0  0  0
 13 14  1  0  0  0
 13 17  2  0  0  0
 14 15  1  0  0  0
  7  8  1  0  0  0
  8 11  1  0  0  0
 17 11  1  0  0  0
 17 16  1  0  0  0
 15 16  2  0  0  0
 15 19  1  0  0  0
 16 12  1  0  0  0
 19 18  2  0  0  0
  2  9  1  0  0  0
  2 10  1  0  0  0
M  END
> <minimizedAffinity>
-8.79074

$$$$
4POP_2VY_A_201


 19 20  0  0  0  0  0  0  0  0999 V2000
   17.1710    9.0259   46.2029 C   0  0  0  0  0  0  0  0  0  0  0  0
   20.4617    5.7134   45.0412 N   0  0  0  0  0  0  0  0  0  0  0  0
   19.7275    6.3546   46.0636 C   0  0  0  0  0  0  0  0  0  0  0  0
   18.8610    7.3115   45.7250 N   0  0  0  0  0  0  0  0  0  0  0  0
   18.1279    7.9376   46.6442 C   0  0  0  0  0  0  0  0  0  0  0  0
   18.2153    7.6475   47.9269 N   0  0  0  0  0  0  0  0  0  0  0  0
   19.0313    6.6866   48.3779 C   0  0  0  0  0  0  0  0  0  0  0  0
   19.8455    6.0094   47.4339 C   0  0  0  0  0  0  0  0  0  0  0  0
   20.3444    5.9895   44.1035 H   0  0  0  0  0  0  0  0  0  0  0  0
   21.0908    4.9903   45.2663 H   0  0  0  0  0  0  0  0  0  0  0  0
   20.8056    4.9294   47.9176 C   0  0  0  0  0  0  0  0  0  0  0  0
   22.2742    3.3744   50.0432 C   0  0  0  0  0  0  0  0  0  0  0  0
   22.3133    6.9447   48.6461 C   0  0  0  0  0  0  0  0  0  0  0  0
   23.5318    7.1360   49.8349 S   0  0  0  0  0  0  0  0  0  0  0  0
   23.5572    5.6091   50.4944 C   0  0  0  0  0  0  0  0  0  0  0  0
   22.5830    4.8610   49.7874 C   0  0  0  0  0  0  0  0  0  0  0  0
   21.8806    5.5940   48.7734 C   0  0  0  0  0  0  0  0  0  0  0  0
   24.7543    3.8678   51.6469 O   0  0  0  0  0  0  0  0  0  0  0  0
   24.5101    5.2393   51.6059 C   0  0  0  0  0  0  0  0  0  0  0  0
  1  5  1  0  0  0
  5  4  2  0  0  0
  5  6  1  0  0  0
  4  3  1  0  0  0
  6  7  2  0  0  0
  3  2  1  0  0  0
  3  8  2  0  0  0
 13 14  1  0  0  0
 13 17  2  0  0  0
 14 15  1  0  0  0
  7  8  1  0  0  0
  8 11  1  0  0  0
 17 11  1  0  0  0
 17 16  1  0  0  0
 15 16  2  0  0  0
 15 19  1  0  0  0
 16 12  1  0  0  0
 19 18  2  0  0  0
  2  9  1  0  0  0
  2 10  1  0  0  0
M  END
> <minimizedAffinity>
-7.03989

$$$$
4POP_2VY_A_201


 19 20  0  0  0  0  0  0  0  0999 V2000
   18.7590    7.6954   44.0133 C   0  0  0  0  0  0  0  0  0  0  0  0
   18.6312    6.4701   48.6645 N   0  0  0  0  0  0  0  0  0  0  0  0
   19.2710    6.3279   47.4130 C   0  0  0  0  0  0  0  0  0  0  0  0
   18.7873    7.0010   46.3671 N   0  0  0  0  0  0  0  0  0  0  0  0
   19.3605    6.9203   45.1675 C   0  0  0  0  0  0  0  0  0  0  0  0
   20.4288    6.1796   44.9497 N   0  0  0  0  0  0  0  0  0  0  0  0
   21.0150    5.4829   45.9314 C   0  0  0  0  0  0  0  0  0  0  0  0
   20.4237    5.5247   47.2202 C   0  0  0  0  0  0  0  0  0  0  0  0
   17.8327    7.0400   48.7471 H   0  0  0  0  0  0  0  0  0  0  0  0
   18.9838    5.9994   49.4540 H   0  0  0  0  0  0  0  0  0  0  0  0
   21.0499    4.7209   48.3534 C   0  0  0  0  0  0  0  0  0  0  0  0
   22.8821    3.6004   50.4700 C   0  0  0  0  0  0  0  0  0  0  0  0
   22.2449    7.0046   48.8250 C   0  0  0  0  0  0  0  0  0  0  0  0
   23.4849    7.4852   49.9047 S   0  0  0  0  0  0  0  0  0  0  0  0
   23.8027    6.0413   50.6668 C   0  0  0  0  0  0  0  0  0  0  0  0
   22.9246    5.0914   50.0879 C   0  0  0  0  0  0  0  0  0  0  0  0
   22.0502    5.6170   49.0788 C   0  0  0  0  0  0  0  0  0  0  0  0
   24.7994    4.7022   52.4010 O   0  0  0  0  0  0  0  0  0  0  0  0
   24.8695    5.9211   51.7288 C   0  0  0  0  0  0  0  0  0  0  0  0
  1  5  1  0  0  0
  5  4  2  0  0  0
  5  6  1  0  0  0
  4  3  1  0  0  0
  6  7  2  0  0  0
  3  2  1  0  0  0
  3  8  2  0  0  0
 13 14  1  0  0  0
 13 17  2  0  0  0
 14 15  1  0  0  0
  7  8  1  0  0  0
  8 11  1  0  0  0
 17 11  1  0  0  0
 17 16  1  0  0  0
 15 16  2  0  0  0
 15 19  1  0  0  0
 16 12  1  0  0  0
 19 18  2  0  0  0
  2  9  1  0  0  0
  2 10  1  0  0  0
M  END
> <minimizedAffinity>
-7.01026

$$$$
4POP_2VY_A_201


 19 20  0  0  0  0  0  0  0  0999 V2000
   24.2960    5.3831   50.6623 C   0  0  0  0  0  0  0  0  0  0  0  0
   20.2189    3.6053   48.8272 N   0  0  0  0  0  0  0  0  0  0  0  0
   21.2529    4.5624   48.7242 C   0  0  0  0  0  0  0  0  0  0  0  0
   22.2219    4.5584   49.6418 N   0  0  0  0  0  0  0  0  0  0  0  0
   23.2320    5.4249   49.5849 C   0  0  0  0  0  0  0  0  0  0  0  0
   23.3304    6.3244   48.6265 N   0  0  0  0  0  0  0  0  0  0  0  0
   22.4302    6.4025   47.6385 C   0  0  0  0  0  0  0  0  0  0  0  0
   21.3268    5.5114   47.6731 C   0  0  0  0  0  0  0  0  0  0  0  0
   20.2118    2.9670   49.5767 H   0  0  0  0  0  0  0  0  0  0  0  0
   19.5054    3.5766   48.1495 H   0  0  0  0  0  0  0  0  0  0  0  0
   20.2695    5.5924   46.5788 C   0  0  0  0  0  0  0  0  0  0  0  0
   18.9717    7.3119   44.4688 C   0  0  0  0  0  0  0  0  0  0  0  0
   18.8328    6.9675   48.2849 C   0  0  0  0  0  0  0  0  0  0  0  0
   17.7150    8.2546   48.1166 S   0  0  0  0  0  0  0  0  0  0  0  0
   17.7374    8.4646   46.4666 C   0  0  0  0  0  0  0  0  0  0  0  0
   18.6486    7.5036   45.9620 C   0  0  0  0  0  0  0  0  0  0  0  0
   19.2695    6.6807   46.9602 C   0  0  0  0  0  0  0  0  0  0  0  0
   15.8777    8.9182   45.0074 O   0  0  0  0  0  0  0  0  0  0  0  0
   16.8761    9.5012   45.7857 C   0  0  0  0  0  0  0  0  0  0  0  0
  1  5  1  0  0  0
  5  4  2  0  0  0
  5  6  1  0  0  0
  4  3  1  0  0  0
  6  7  2  0  0  0
  3  2  1  0  0  0
  3  8  2  0  0  0
 13 14  1  0  0  0
 13 17  2  0  0  0
 14 15  1  0  0  0
  7  8  1  0  0  0
  8 11  1  0  0  0
 17 11  1  0  0  0
 17 16  1  0  0  0
 15 16  2  0  0  0
 15 19  1  0  0  0
 16 12  1  0  0  0
 19 18  2  0  0  0
  2  9  1  0  0  0
  2 10  1  0  0  0
M  END
> <minimizedAffinity>
-6.81197

$$$$
4POP_2VY_A_201


 19 20  0  0  0  0  0  0  0  0999 V2000
   24.7767    5.6143   49.6155 C   0  0  0  0  0  0  0  0  0  0  0  0
   20.4456    3.6343   48.9280 N   0  0  0  0  0  0  0  0  0  0  0  0
   21.2407    4.8014   48.8898 C   0  0  0  0  0  0  0  0  0  0  0  0
   22.5268    4.7107   49.2343 N   0  0  0  0  0  0  0  0  0  0  0  0
   23.3288    5.7737   49.1994 C   0  0  0  0  0  0  0  0  0  0  0  0
   22.9008    6.9624   48.8240 N   0  0  0  0  0  0  0  0  0  0  0  0
   21.6368    7.1644   48.4315 C   0  0  0  0  0  0  0  0  0  0  0  0
   20.7439    6.0627   48.4737 C   0  0  0  0  0  0  0  0  0  0  0  0
   20.8373    2.7813   49.2248 H   0  0  0  0  0  0  0  0  0  0  0  0
   19.4997    3.6740   48.6578 H   0  0  0  0  0  0  0  0  0  0  0  0
   19.2913    6.2651   48.0601 C   0  0  0  0  0  0  0  0  0  0  0  0
   17.5571    8.5577   47.1495 C   0  0  0  0  0  0  0  0  0  0  0  0
   20.0478    6.1171   45.5558 C   0  0  0  0  0  0  0  0  0  0  0  0
   19.6315    6.9948   44.1448 S   0  0  0  0  0  0  0  0  0  0  0  0
   18.5321    8.0749   44.7705 C   0  0  0  0  0  0  0  0  0  0  0  0
   18.4436    7.7858   46.1551 C   0  0  0  0  0  0  0  0  0  0  0  0
   19.2670    6.6965   46.5961 C   0  0  0  0  0  0  0  0  0  0  0  0
   16.5398    9.3349   44.2834 O   0  0  0  0  0  0  0  0  0  0  0  0
   17.8644    9.1189   43.9077 C   0  0  0  0  0  0  0  0  0  0  0  0
  1  5  1  0  0  0
  5  4  2  0  0  0
  5  6  1  0  0  0
  4  3  1  0  0  0
  6  7  2  0  0  0
  3  2  1  0  0  0
  3  8  2  0  0  0
 13 14  1  0  0  0
 13 17  2  0  0  0
 14 15  1  0  0  0
  7  8  1  0  0  0
  8 11  1  0  0  0
 17 11  1  0  0  0
 17 16  1  0  0  0
 15 16  2  0  0  0
 15 19  1  0  0  0
 16 12  1  0  0  0
 19 18  2  0  0  0
  2  9  1  0  0  0
  2 10  1  0  0  0
M  END
> <minimizedAffinity>
-6.47475

$$$$
4POP_2VY_A_201


 19 20  0  0  0  0  0  0  0  0999 V2000
   17.0795    9.0098   45.0764 C   0  0  0  0  0  0  0  0  0  0  0  0
   18.9958    6.3563   48.6032 N   0  0  0  0  0  0  0  0  0  0  0  0
   19.0282    6.7272   47.2404 C   0  0  0  0  0  0  0  0  0  0  0  0
   18.1335    7.6125   46.7970 N   0  0  0  0  0  0  0  0  0  0  0  0
   18.1280    8.0135   45.5268 C   0  0  0  0  0  0  0  0  0  0  0  0
   18.9996    7.5637   44.6463 N   0  0  0  0  0  0  0  0  0  0  0  0
   19.9588    6.6934   44.9857 C   0  0  0  0  0  0  0  0  0  0  0  0
   19.9869    6.2246   46.3244 C   0  0  0  0  0  0  0  0  0  0  0  0
   18.3094    6.7333   49.1998 H   0  0  0  0  0  0  0  0  0  0  0  0
   19.6597    5.7208   48.9563 H   0  0  0  0  0  0  0  0  0  0  0  0
   21.0487    5.2123   46.7368 C   0  0  0  0  0  0  0  0  0  0  0  0
   21.5359    3.8071   49.3599 C   0  0  0  0  0  0  0  0  0  0  0  0
   22.5967    7.0953   47.6977 C   0  0  0  0  0  0  0  0  0  0  0  0
   23.4244    7.2967   49.1839 S   0  0  0  0  0  0  0  0  0  0  0  0
   22.9920    5.8940   49.9666 C   0  0  0  0  0  0  0  0  0  0  0  0
   22.1565    5.1856   49.0675 C   0  0  0  0  0  0  0  0  0  0  0  0
   21.9209    5.8475   47.8164 C   0  0  0  0  0  0  0  0  0  0  0  0
   24.2207    4.3786   51.3764 O   0  0  0  0  0  0  0  0  0  0  0  0
   23.4966    5.5693   51.3523 C   0  0  0  0  0  0  0  0  0  0  0  0
  1  5  1  0  0  0
  5  4  2  0  0  0
  5  6  1  0  0  0
  4  3  1  0  0  0
  6  7  2  0  0  0
  3  2  1  0  0  0
  3  8  2  0  0  0
 13 14  1  0  0  0
 13 17  2  0  0  0
 14 15  1  0  0  0
  7  8  1  0  0  0
  8 11  1  0  0  0
 17 11  1  0  0  0
 17 16  1  0  0  0
 15 16  2  0  0  0
 15 19  1  0  0  0
 16 12  1  0  0  0
 19 18  2  0  0  0
  2  9  1  0  0  0
  2 10  1  0  0  0
M  END
> <minimizedAffinity>
-6.46254

$$$$
