3I7E_DJR_A_100


 41 44  0  0  0  0  0  0  0  0999 V2000
    6.9531   -1.8903   15.3880 C   0  0  0  0  0  0  0  0  0  0  0  0
    8.6022   -3.5315   16.2307 C   0  0  0  0  0  0  0  0  0  0  0  0
    9.5606   -2.7432   16.2521 O   0  0  0  0  0  0  0  0  0  0  0  0
    7.3694   -3.2366   15.8338 N   0  0  0  0  0  0  0  0  0  0  0  0
    6.6957   -3.9545   15.8368 H   0  0  0  0  0  0  0  0  0  0  0  0
    8.6380   -4.8603   16.6017 O   0  0  0  0  0  0  0  0  0  0  0  0
    9.6985   -6.9961   17.3088 C   0  0  0  0  0  0  0  0  0  0  0  0
    9.9114   -5.6387   19.2438 O   0  0  0  0  0  0  0  0  0  0  0  0
    9.5315   -6.9573   18.7989 C   0  0  0  0  0  0  0  0  0  0  0  0
    8.1349   -7.2067   19.0572 O   0  0  0  0  0  0  0  0  0  0  0  0
    7.4363   -7.5680   17.8545 C   0  0  0  0  0  0  0  0  0  0  0  0
    8.5052   -7.8008   16.7880 C   0  0  0  0  0  0  0  0  0  0  0  0
   10.5276   -4.9360   18.1505 C   0  0  0  0  0  0  0  0  0  0  0  0
    9.9057   -5.5261   16.8864 C   0  0  0  0  0  0  0  0  0  0  0  0
    5.4687   -1.7008   15.8602 C   0  0  0  0  0  0  0  0  0  0  0  0
    5.3285   -0.4767   16.5960 O   0  0  0  0  0  0  0  0  0  0  0  0
    5.8662   -0.5206   17.4022 H   0  0  0  0  0  0  0  0  0  0  0  0
    4.9336   -2.8722   16.7164 C   0  0  0  0  0  0  0  0  0  0  0  0
    3.6938   -3.4644   16.1538 N   0  0  0  0  0  0  0  0  0  0  0  0
    3.5100   -3.5442   14.4179 S   0  0  0  0  0  0  0  0  0  0  0  0
    4.9230   -4.0306   13.9171 O   0  0  0  0  0  0  0  0  0  0  0  0
    2.3973   -4.6019   14.0661 O   0  0  0  0  0  0  0  0  0  0  0  0
    3.1052   -1.9452   13.8085 C   0  0  0  0  0  0  0  0  0  0  0  0
    3.7374   -1.4355   12.6392 C   0  0  0  0  0  0  0  0  0  0  0  0
    3.3743   -0.1524   12.1605 C   0  0  0  0  0  0  0  0  0  0  0  0
    2.3832    0.6223   12.8424 C   0  0  0  0  0  0  0  0  0  0  0  0
    1.7703    0.0811   14.0082 C   0  0  0  0  0  0  0  0  0  0  0  0
    2.1261   -1.1952   14.4901 C   0  0  0  0  0  0  0  0  0  0  0  0
    2.1046    1.8720   12.2852 O   0  0  0  0  0  0  0  0  0  0  0  0
    0.7705    2.3642   11.9912 C   0  0  0  0  0  0  0  0  0  0  0  0
    2.6083   -3.9872   17.0554 C   0  0  0  0  0  0  0  0  0  0  0  0
    2.7686   -5.4468   17.5738 C   0  0  0  0  0  0  0  0  0  0  0  0
    3.7951   -6.2704   16.7826 C   0  0  0  0  0  0  0  0  0  0  0  0
    3.2172   -5.4518   19.0417 C   0  0  0  0  0  0  0  0  0  0  0  0
    7.1715   -1.7730   13.8457 C   0  0  0  0  0  0  0  0  0  0  0  0
    7.3251   -0.3334   13.3357 C   0  0  0  0  0  0  0  0  0  0  0  0
    7.6370    0.7192   14.2430 C   0  0  0  0  0  0  0  0  0  0  0  0
    7.7869    2.0437   13.7714 C   0  0  0  0  0  0  0  0  0  0  0  0
    7.6235    2.3317   12.3862 C   0  0  0  0  0  0  0  0  0  0  0  0
    7.3144    1.2962   11.4763 C   0  0  0  0  0  0  0  0  0  0  0  0
    7.1659   -0.0382   11.9456 C   0  0  0  0  0  0  0  0  0  0  0  0
  7 12  1  0  0  0
  7 14  1  0  0  0
  7  9  1  0  0  0
  8  9  1  0  0  0
  8 13  1  0  0  0
  9 10  1  0  0  0
 10 11  1  0  0  0
 11 12  1  0  0  0
 13 14  1  0  0  0
 14  6  1  0  0  0
  6  2  1  0  0  0
  2  4  1  0  0  0
  2  3  2  0  0  0
  4  1  1  0  0  0
  1 35  1  0  0  0
  1 15  1  0  0  0
 35 36  1  0  0  0
 36 37  2  0  0  0
 36 41  1  0  0  0
 37 38  1  0  0  0
 38 39  2  0  0  0
 39 40  1  0  0  0
 40 41  2  0  0  0
 15 18  1  0  0  0
 15 16  1  0  0  0
 18 19  1  0  0  0
 19 20  1  0  0  0
 19 31  1  0  0  0
 20 22  2  0  0  0
 20 23  1  0  0  0
 20 21  2  0  0  0
 23 28  2  0  0  0
 23 24  1  0  0  0
 24 25  2  0  0  0
 25 26  1  0  0  0
 26 29  1  0  0  0
 26 27  2  0  0  0
 29 30  1  0  0  0
 27 28  1  0  0  0
 31 32  1  0  0  0
 32 34  1  0  0  0
 32 33  1  0  0  0
  4  5  1  0  0  0
 16 17  1  0  0  0
M  END
> <minimizedAffinity>
-9.69405

$$$$
3I7E_DJR_A_100


 41 44  0  0  0  0  0  0  0  0999 V2000
    5.8895   -0.5926   14.4356 C   0  0  0  0  0  0  0  0  0  0  0  0
    3.6548   -0.1313   13.4782 C   0  0  0  0  0  0  0  0  0  0  0  0
    3.3508   -1.3209   13.2964 O   0  0  0  0  0  0  0  0  0  0  0  0
    4.8051    0.3029   13.9807 N   0  0  0  0  0  0  0  0  0  0  0  0
    4.9430    1.2749   14.0543 H   0  0  0  0  0  0  0  0  0  0  0  0
    2.8645    0.9609   13.1831 O   0  0  0  0  0  0  0  0  0  0  0  0
    2.4754    1.9163   10.9199 C   0  0  0  0  0  0  0  0  0  0  0  0
    0.8299    3.0047   12.2388 O   0  0  0  0  0  0  0  0  0  0  0  0
    1.8406    3.2378   11.2363 C   0  0  0  0  0  0  0  0  0  0  0  0
    2.8921    4.0805   11.7496 O   0  0  0  0  0  0  0  0  0  0  0  0
    4.1771    3.4494   11.6244 C   0  0  0  0  0  0  0  0  0  0  0  0
    3.9675    2.2133   10.7513 C   0  0  0  0  0  0  0  0  0  0  0  0
    0.6389    1.5870   12.3892 C   0  0  0  0  0  0  0  0  0  0  0  0
    1.9801    0.9553   12.0215 C   0  0  0  0  0  0  0  0  0  0  0  0
    5.5531   -0.9876   15.9165 C   0  0  0  0  0  0  0  0  0  0  0  0
    5.2295    0.1797   16.6862 O   0  0  0  0  0  0  0  0  0  0  0  0
    6.0033    0.7628   16.7300 H   0  0  0  0  0  0  0  0  0  0  0  0
    6.6859   -1.7657   16.6257 C   0  0  0  0  0  0  0  0  0  0  0  0
    6.5537   -3.2351   16.4591 N   0  0  0  0  0  0  0  0  0  0  0  0
    7.7004   -4.0750   15.4428 S   0  0  0  0  0  0  0  0  0  0  0  0
    6.7890   -4.8435   14.4117 O   0  0  0  0  0  0  0  0  0  0  0  0
    8.6079   -3.0181   14.7080 O   0  0  0  0  0  0  0  0  0  0  0  0
    8.6508   -5.1731   16.4342 C   0  0  0  0  0  0  0  0  0  0  0  0
    8.4125   -6.5761   16.3914 C   0  0  0  0  0  0  0  0  0  0  0  0
    9.2094   -7.4371   17.1857 C   0  0  0  0  0  0  0  0  0  0  0  0
   10.2424   -6.9045   18.0203 C   0  0  0  0  0  0  0  0  0  0  0  0
   10.4541   -5.4964   18.0377 C   0  0  0  0  0  0  0  0  0  0  0  0
    9.6655   -4.6335   17.2495 C   0  0  0  0  0  0  0  0  0  0  0  0
   10.9642   -7.8426   18.7611 O   0  0  0  0  0  0  0  0  0  0  0  0
   10.4493   -9.1339   19.1807 C   0  0  0  0  0  0  0  0  0  0  0  0
    5.4529   -3.9955   17.1481 C   0  0  0  0  0  0  0  0  0  0  0  0
    4.0490   -3.9625   16.4750 C   0  0  0  0  0  0  0  0  0  0  0  0
    3.5811   -5.3323   15.9623 C   0  0  0  0  0  0  0  0  0  0  0  0
    2.9879   -3.4618   17.4646 C   0  0  0  0  0  0  0  0  0  0  0  0
    7.2616    0.1292   14.2441 C   0  0  0  0  0  0  0  0  0  0  0  0
    7.4396    0.7975   12.8738 C   0  0  0  0  0  0  0  0  0  0  0  0
    7.5583    2.2134   12.7766 C   0  0  0  0  0  0  0  0  0  0  0  0
    7.7310    2.8278   11.5149 C   0  0  0  0  0  0  0  0  0  0  0  0
    7.7841    2.0328   10.3344 C   0  0  0  0  0  0  0  0  0  0  0  0
    7.6679    0.6274   10.4178 C   0  0  0  0  0  0  0  0  0  0  0  0
    7.4974    0.0047   11.6851 C   0  0  0  0  0  0  0  0  0  0  0  0
  7 12  1  0  0  0
  7 14  1  0  0  0
  7  9  1  0  0  0
  8  9  1  0  0  0
  8 13  1  0  0  0
  9 10  1  0  0  0
 10 11  1  0  0  0
 11 12  1  0  0  0
 13 14  1  0  0  0
 14  6  1  0  0  0
  6  2  1  0  0  0
  2  4  1  0  0  0
  2  3  2  0  0  0
  4  1  1  0  0  0
  1 35  1  0  0  0
  1 15  1  0  0  0
 35 36  1  0  0  0
 36 37  2  0  0  0
 36 41  1  0  0  0
 37 38  1  0  0  0
 38 39  2  0  0  0
 39 40  1  0  0  0
 40 41  2  0  0  0
 15 18  1  0  0  0
 15 16  1  0  0  0
 18 19  1  0  0  0
 19 20  1  0  0  0
 19 31  1  0  0  0
 20 22  2  0  0  0
 20 23  1  0  0  0
 20 21  2  0  0  0
 23 28  2  0  0  0
 23 24  1  0  0  0
 24 25  2  0  0  0
 25 26  1  0  0  0
 26 29  1  0  0  0
 26 27  2  0  0  0
 29 30  1  0  0  0
 27 28  1  0  0  0
 31 32  1  0  0  0
 32 34  1  0  0  0
 32 33  1  0  0  0
  4  5  1  0  0  0
 16 17  1  0  0  0
M  END
> <minimizedAffinity>
-9.47836

$$$$
3I7E_DJR_A_100


 41 44  0  0  0  0  0  0  0  0999 V2000
    5.6508   -0.1566   14.1655 C   0  0  0  0  0  0  0  0  0  0  0  0
    3.9348   -0.2292   12.3841 C   0  0  0  0  0  0  0  0  0  0  0  0
    4.0714   -1.4365   12.1307 O   0  0  0  0  0  0  0  0  0  0  0  0
    4.6267    0.4519   13.2906 N   0  0  0  0  0  0  0  0  0  0  0  0
    4.4474    1.4153   13.3849 H   0  0  0  0  0  0  0  0  0  0  0  0
    3.0515    0.6331   11.7671 O   0  0  0  0  0  0  0  0  0  0  0  0
    1.6856    2.7057   11.9247 C   0  0  0  0  0  0  0  0  0  0  0  0
    2.8704    3.0115    9.8913 O   0  0  0  0  0  0  0  0  0  0  0  0
    1.5609    3.1157   10.4873 C   0  0  0  0  0  0  0  0  0  0  0  0
    0.6414    2.1865    9.8787 O   0  0  0  0  0  0  0  0  0  0  0  0
    0.0439    1.3228   10.8595 C   0  0  0  0  0  0  0  0  0  0  0  0
    0.4241    1.8925   12.2251 C   0  0  0  0  0  0  0  0  0  0  0  0
    3.8404    2.7900   10.9300 C   0  0  0  0  0  0  0  0  0  0  0  0
    3.0853    2.0663   12.0432 C   0  0  0  0  0  0  0  0  0  0  0  0
    5.0040   -0.2872   15.5891 C   0  0  0  0  0  0  0  0  0  0  0  0
    5.3026    0.8699   16.3841 O   0  0  0  0  0  0  0  0  0  0  0  0
    6.2605    0.9266   16.5255 H   0  0  0  0  0  0  0  0  0  0  0  0
    5.4397   -1.5570   16.3567 C   0  0  0  0  0  0  0  0  0  0  0  0
    4.6294   -2.7459   15.9904 N   0  0  0  0  0  0  0  0  0  0  0  0
    5.4269   -4.1158   15.2551 S   0  0  0  0  0  0  0  0  0  0  0  0
    4.4281   -5.3079   15.5112 O   0  0  0  0  0  0  0  0  0  0  0  0
    5.5937   -3.8474   13.7122 O   0  0  0  0  0  0  0  0  0  0  0  0
    6.9778   -4.3696   16.0440 C   0  0  0  0  0  0  0  0  0  0  0  0
    7.0424   -4.9506   17.3421 C   0  0  0  0  0  0  0  0  0  0  0  0
    8.3082   -5.1623   17.9425 C   0  0  0  0  0  0  0  0  0  0  0  0
    9.5079   -4.7983   17.2530 C   0  0  0  0  0  0  0  0  0  0  0  0
    9.4063   -4.2206   15.9554 C   0  0  0  0  0  0  0  0  0  0  0  0
    8.1503   -4.0075   15.3514 C   0  0  0  0  0  0  0  0  0  0  0  0
   10.6984   -5.0493   17.9383 O   0  0  0  0  0  0  0  0  0  0  0  0
   11.3281   -6.3533   18.0457 C   0  0  0  0  0  0  0  0  0  0  0  0
    3.1461   -2.7782   16.2423 C   0  0  0  0  0  0  0  0  0  0  0  0
    2.2221   -2.8213   14.9895 C   0  0  0  0  0  0  0  0  0  0  0  0
    1.0839   -3.8461   15.1007 C   0  0  0  0  0  0  0  0  0  0  0  0
    1.5760   -1.4501   14.7482 C   0  0  0  0  0  0  0  0  0  0  0  0
    6.9492    0.7104   14.1112 C   0  0  0  0  0  0  0  0  0  0  0  0
    7.3326    1.1887   12.7040 C   0  0  0  0  0  0  0  0  0  0  0  0
    7.6902    0.2454   11.6987 C   0  0  0  0  0  0  0  0  0  0  0  0
    8.0349    0.6860   10.4001 C   0  0  0  0  0  0  0  0  0  0  0  0
    8.0289    2.0766   10.0925 C   0  0  0  0  0  0  0  0  0  0  0  0
    7.6757    3.0219   11.0809 C   0  0  0  0  0  0  0  0  0  0  0  0
    7.3250    2.5832   12.3876 C   0  0  0  0  0  0  0  0  0  0  0  0
  7 12  1  0  0  0
  7 14  1  0  0  0
  7  9  1  0  0  0
  8  9  1  0  0  0
  8 13  1  0  0  0
  9 10  1  0  0  0
 10 11  1  0  0  0
 11 12  1  0  0  0
 13 14  1  0  0  0
 14  6  1  0  0  0
  6  2  1  0  0  0
  2  4  1  0  0  0
  2  3  2  0  0  0
  4  1  1  0  0  0
  1 35  1  0  0  0
  1 15  1  0  0  0
 35 36  1  0  0  0
 36 37  2  0  0  0
 36 41  1  0  0  0
 37 38  1  0  0  0
 38 39  2  0  0  0
 39 40  1  0  0  0
 40 41  2  0  0  0
 15 18  1  0  0  0
 15 16  1  0  0  0
 18 19  1  0  0  0
 19 20  1  0  0  0
 19 31  1  0  0  0
 20 22  2  0  0  0
 20 23  1  0  0  0
 20 21  2  0  0  0
 23 28  2  0  0  0
 23 24  1  0  0  0
 24 25  2  0  0  0
 25 26  1  0  0  0
 26 29  1  0  0  0
 26 27  2  0  0  0
 29 30  1  0  0  0
 27 28  1  0  0  0
 31 32  1  0  0  0
 32 34  1  0  0  0
 32 33  1  0  0  0
  4  5  1  0  0  0
 16 17  1  0  0  0
M  END
> <minimizedAffinity>
-9.46225

$$$$
3I7E_DJR_A_100


 41 44  0  0  0  0  0  0  0  0999 V2000
    5.7188   -0.2032   14.2670 C   0  0  0  0  0  0  0  0  0  0  0  0
    3.4873    0.2355   13.2917 C   0  0  0  0  0  0  0  0  0  0  0  0
    3.1891   -0.9577   13.1247 O   0  0  0  0  0  0  0  0  0  0  0  0
    4.6331    0.6814   13.7943 N   0  0  0  0  0  0  0  0  0  0  0  0
    4.7667    1.6549   13.8552 H   0  0  0  0  0  0  0  0  0  0  0  0
    2.6941    1.3203   12.9775 O   0  0  0  0  0  0  0  0  0  0  0  0
    2.4731    2.2253   10.6714 C   0  0  0  0  0  0  0  0  0  0  0  0
    0.8206    3.4351   11.8703 O   0  0  0  0  0  0  0  0  0  0  0  0
    1.8926    3.5863   10.9170 C   0  0  0  0  0  0  0  0  0  0  0  0
    2.9586    4.3898   11.4622 O   0  0  0  0  0  0  0  0  0  0  0  0
    4.2137    3.6909   11.4231 C   0  0  0  0  0  0  0  0  0  0  0  0
    3.9854    2.4411   10.5744 C   0  0  0  0  0  0  0  0  0  0  0  0
    0.5484    2.0341   12.0493 C   0  0  0  0  0  0  0  0  0  0  0  0
    1.8720    1.3245   11.7710 C   0  0  0  0  0  0  0  0  0  0  0  0
    5.3295   -0.6541   15.7187 C   0  0  0  0  0  0  0  0  0  0  0  0
    5.3613    0.4646   16.6172 O   0  0  0  0  0  0  0  0  0  0  0  0
    6.2665    0.8085   16.6734 H   0  0  0  0  0  0  0  0  0  0  0  0
    6.2249   -1.7827   16.2810 C   0  0  0  0  0  0  0  0  0  0  0  0
    5.8551   -3.1178   15.7470 N   0  0  0  0  0  0  0  0  0  0  0  0
    4.3438   -3.8375   16.2485 S   0  0  0  0  0  0  0  0  0  0  0  0
    3.8044   -2.8418   17.3448 O   0  0  0  0  0  0  0  0  0  0  0  0
    3.3662   -3.8944   15.0150 O   0  0  0  0  0  0  0  0  0  0  0  0
    4.6591   -5.4381   16.9046 C   0  0  0  0  0  0  0  0  0  0  0  0
    3.8194   -6.5368   16.5660 C   0  0  0  0  0  0  0  0  0  0  0  0
    4.1120   -7.8188   17.0936 C   0  0  0  0  0  0  0  0  0  0  0  0
    5.2385   -8.0086   17.9552 C   0  0  0  0  0  0  0  0  0  0  0  0
    6.0578   -6.8879   18.2720 C   0  0  0  0  0  0  0  0  0  0  0  0
    5.7732   -5.6093   17.7504 C   0  0  0  0  0  0  0  0  0  0  0  0
    5.4317   -9.3116   18.4185 O   0  0  0  0  0  0  0  0  0  0  0  0
    6.6878   -9.8243   18.9363 C   0  0  0  0  0  0  0  0  0  0  0  0
    6.7611   -3.8466   14.7917 C   0  0  0  0  0  0  0  0  0  0  0  0
    8.1037   -4.3840   15.3691 C   0  0  0  0  0  0  0  0  0  0  0  0
    8.4188   -5.8274   14.9500 C   0  0  0  0  0  0  0  0  0  0  0  0
    9.2781   -3.5107   14.9065 C   0  0  0  0  0  0  0  0  0  0  0  0
    7.0798    0.5558   14.1580 C   0  0  0  0  0  0  0  0  0  0  0  0
    7.4059    1.0717   12.7496 C   0  0  0  0  0  0  0  0  0  0  0  0
    7.5974    0.1548   11.6767 C   0  0  0  0  0  0  0  0  0  0  0  0
    7.8892    0.6309   10.3777 C   0  0  0  0  0  0  0  0  0  0  0  0
    7.9959    2.0306   10.1370 C   0  0  0  0  0  0  0  0  0  0  0  0
    7.8077    2.9500   11.1929 C   0  0  0  0  0  0  0  0  0  0  0  0
    7.5108    2.4759   12.5005 C   0  0  0  0  0  0  0  0  0  0  0  0
  7 12  1  0  0  0
  7 14  1  0  0  0
  7  9  1  0  0  0
  8  9  1  0  0  0
  8 13  1  0  0  0
  9 10  1  0  0  0
 10 11  1  0  0  0
 11 12  1  0  0  0
 13 14  1  0  0  0
 14  6  1  0  0  0
  6  2  1  0  0  0
  2  4  1  0  0  0
  2  3  2  0  0  0
  4  1  1  0  0  0
  1 35  1  0  0  0
  1 15  1  0  0  0
 35 36  1  0  0  0
 36 37  2  0  0  0
 36 41  1  0  0  0
 37 38  1  0  0  0
 38 39  2  0  0  0
 39 40  1  0  0  0
 40 41  2  0  0  0
 15 18  1  0  0  0
 15 16  1  0  0  0
 18 19  1  0  0  0
 19 20  1  0  0  0
 19 31  1  0  0  0
 20 22  2  0  0  0
 20 23  1  0  0  0
 20 21  2  0  0  0
 23 28  2  0  0  0
 23 24  1  0  0  0
 24 25  2  0  0  0
 25 26  1  0  0  0
 26 29  1  0  0  0
 26 27  2  0  0  0
 29 30  1  0  0  0
 27 28  1  0  0  0
 31 32  1  0  0  0
 32 34  1  0  0  0
 32 33  1  0  0  0
  4  5  1  0  0  0
 16 17  1  0  0  0
M  END
> <minimizedAffinity>
-9.42977

$$$$
3I7E_DJR_A_100


 41 44  0  0  0  0  0  0  0  0999 V2000
    6.4914    0.4124   12.9884 C   0  0  0  0  0  0  0  0  0  0  0  0
    4.0744    0.4370   12.4582 C   0  0  0  0  0  0  0  0  0  0  0  0
    4.0527   -0.6862   11.9304 O   0  0  0  0  0  0  0  0  0  0  0  0
    5.1505    1.0335   12.9586 N   0  0  0  0  0  0  0  0  0  0  0  0
    5.0494    1.9395   13.3303 H   0  0  0  0  0  0  0  0  0  0  0  0
    2.9929    1.2799   12.6137 O   0  0  0  0  0  0  0  0  0  0  0  0
    2.2635    2.3727   10.5018 C   0  0  0  0  0  0  0  0  0  0  0  0
    0.8479    3.3699   12.1246 O   0  0  0  0  0  0  0  0  0  0  0  0
    1.6925    3.6693   10.9942 C   0  0  0  0  0  0  0  0  0  0  0  0
    2.8153    4.4829   11.3900 O   0  0  0  0  0  0  0  0  0  0  0  0
    4.0620    3.8662   11.0284 C   0  0  0  0  0  0  0  0  0  0  0  0
    3.7131    2.6860   10.1231 C   0  0  0  0  0  0  0  0  0  0  0  0
    0.6748    1.9448   12.2142 C   0  0  0  0  0  0  0  0  0  0  0  0
    1.9394    1.3430   11.6048 C   0  0  0  0  0  0  0  0  0  0  0  0
    6.6675   -0.2057   14.4199 C   0  0  0  0  0  0  0  0  0  0  0  0
    7.6606    0.5187   15.1607 O   0  0  0  0  0  0  0  0  0  0  0  0
    8.5202    0.4315   14.7199 H   0  0  0  0  0  0  0  0  0  0  0  0
    7.0373   -1.7072   14.4084 C   0  0  0  0  0  0  0  0  0  0  0  0
    6.2474   -2.4923   15.3902 N   0  0  0  0  0  0  0  0  0  0  0  0
    4.6046   -2.9338   14.9905 S   0  0  0  0  0  0  0  0  0  0  0  0
    3.7985   -1.5964   15.2044 O   0  0  0  0  0  0  0  0  0  0  0  0
    4.5455   -3.3877   13.4836 O   0  0  0  0  0  0  0  0  0  0  0  0
    4.0717   -4.2097   16.0769 C   0  0  0  0  0  0  0  0  0  0  0  0
    3.4040   -3.8917   17.2934 C   0  0  0  0  0  0  0  0  0  0  0  0
    2.9674   -4.9426   18.1375 C   0  0  0  0  0  0  0  0  0  0  0  0
    3.1931   -6.3075   17.7721 C   0  0  0  0  0  0  0  0  0  0  0  0
    3.8630   -6.5893   16.5476 C   0  0  0  0  0  0  0  0  0  0  0  0
    4.2997   -5.5488   15.7023 C   0  0  0  0  0  0  0  0  0  0  0  0
    2.7234   -7.2608   18.6780 O   0  0  0  0  0  0  0  0  0  0  0  0
    2.0556   -8.4946   18.3034 C   0  0  0  0  0  0  0  0  0  0  0  0
    6.8425   -2.9031   16.7100 C   0  0  0  0  0  0  0  0  0  0  0  0
    7.6498   -4.2345   16.7321 C   0  0  0  0  0  0  0  0  0  0  0  0
    9.1713   -4.0299   16.7695 C   0  0  0  0  0  0  0  0  0  0  0  0
    7.2744   -5.0728   17.9618 C   0  0  0  0  0  0  0  0  0  0  0  0
    7.5594    1.4843   12.6001 C   0  0  0  0  0  0  0  0  0  0  0  0
    7.5193    1.9131   11.1268 C   0  0  0  0  0  0  0  0  0  0  0  0
    7.2566    0.9536   10.1077 C   0  0  0  0  0  0  0  0  0  0  0  0
    7.2112    1.3507    8.7514 C   0  0  0  0  0  0  0  0  0  0  0  0
    7.4311    2.7128    8.3981 C   0  0  0  0  0  0  0  0  0  0  0  0
    7.6923    3.6740    9.3999 C   0  0  0  0  0  0  0  0  0  0  0  0
    7.7357    3.2797   10.7657 C   0  0  0  0  0  0  0  0  0  0  0  0
  7 12  1  0  0  0
  7 14  1  0  0  0
  7  9  1  0  0  0
  8  9  1  0  0  0
  8 13  1  0  0  0
  9 10  1  0  0  0
 10 11  1  0  0  0
 11 12  1  0  0  0
 13 14  1  0  0  0
 14  6  1  0  0  0
  6  2  1  0  0  0
  2  4  1  0  0  0
  2  3  2  0  0  0
  4  1  1  0  0  0
  1 35  1  0  0  0
  1 15  1  0  0  0
 35 36  1  0  0  0
 36 37  2  0  0  0
 36 41  1  0  0  0
 37 38  1  0  0  0
 38 39  2  0  0  0
 39 40  1  0  0  0
 40 41  2  0  0  0
 15 18  1  0  0  0
 15 16  1  0  0  0
 18 19  1  0  0  0
 19 20  1  0  0  0
 19 31  1  0  0  0
 20 22  2  0  0  0
 20 23  1  0  0  0
 20 21  2  0  0  0
 23 28  2  0  0  0
 23 24  1  0  0  0
 24 25  2  0  0  0
 25 26  1  0  0  0
 26 29  1  0  0  0
 26 27  2  0  0  0
 29 30  1  0  0  0
 27 28  1  0  0  0
 31 32  1  0  0  0
 32 34  1  0  0  0
 32 33  1  0  0  0
  4  5  1  0  0  0
 16 17  1  0  0  0
M  END
> <minimizedAffinity>
-9.14270

$$$$
3I7E_DJR_A_100


 41 44  0  0  0  0  0  0  0  0999 V2000
    5.3544   -2.2110   15.4521 C   0  0  0  0  0  0  0  0  0  0  0  0
    7.4270   -3.4626   15.9630 C   0  0  0  0  0  0  0  0  0  0  0  0
    8.0229   -3.1442   14.9218 O   0  0  0  0  0  0  0  0  0  0  0  0
    6.1923   -3.0965   16.2879 N   0  0  0  0  0  0  0  0  0  0  0  0
    5.8142   -3.4337   17.1321 H   0  0  0  0  0  0  0  0  0  0  0  0
    7.9270   -4.2630   16.9699 O   0  0  0  0  0  0  0  0  0  0  0  0
    8.8458   -6.5594   17.2321 C   0  0  0  0  0  0  0  0  0  0  0  0
    9.9972   -5.3388   18.9103 O   0  0  0  0  0  0  0  0  0  0  0  0
    9.2808   -6.5670   18.6675 C   0  0  0  0  0  0  0  0  0  0  0  0
    8.0752   -6.6259   19.4565 O   0  0  0  0  0  0  0  0  0  0  0  0
    6.9174   -6.8267   18.6292 C   0  0  0  0  0  0  0  0  0  0  0  0
    7.4378   -7.1597   17.2320 C   0  0  0  0  0  0  0  0  0  0  0  0
   10.2363   -4.6809   17.6537 C   0  0  0  0  0  0  0  0  0  0  0  0
    9.0899   -5.1160   16.7430 C   0  0  0  0  0  0  0  0  0  0  0  0
    5.6449   -0.7429   15.9237 C   0  0  0  0  0  0  0  0  0  0  0  0
    5.3520   -0.5973   17.3211 O   0  0  0  0  0  0  0  0  0  0  0  0
    4.4054   -0.7480   17.4704 H   0  0  0  0  0  0  0  0  0  0  0  0
    4.8686    0.3317   15.1274 C   0  0  0  0  0  0  0  0  0  0  0  0
    5.2118    0.3239   13.6829 N   0  0  0  0  0  0  0  0  0  0  0  0
    6.8951    0.3645   13.2160 S   0  0  0  0  0  0  0  0  0  0  0  0
    7.6412    0.7482   14.5504 O   0  0  0  0  0  0  0  0  0  0  0  0
    7.3280   -1.0680   12.7251 O   0  0  0  0  0  0  0  0  0  0  0  0
    7.1147    1.5773   11.9618 C   0  0  0  0  0  0  0  0  0  0  0  0
    7.0882    1.2087   10.5869 C   0  0  0  0  0  0  0  0  0  0  0  0
    7.2465    2.2121    9.5991 C   0  0  0  0  0  0  0  0  0  0  0  0
    7.4296    3.5798    9.9775 C   0  0  0  0  0  0  0  0  0  0  0  0
    7.4497    3.9130   11.3618 C   0  0  0  0  0  0  0  0  0  0  0  0
    7.2923    2.9201   12.3503 C   0  0  0  0  0  0  0  0  0  0  0  0
    7.5774    4.4835    8.9233 O   0  0  0  0  0  0  0  0  0  0  0  0
    7.9055    4.1112    7.5586 C   0  0  0  0  0  0  0  0  0  0  0  0
    4.1350    0.2840   12.6324 C   0  0  0  0  0  0  0  0  0  0  0  0
    3.1483    1.4881   12.5924 C   0  0  0  0  0  0  0  0  0  0  0  0
    3.5691    2.5949   11.6144 C   0  0  0  0  0  0  0  0  0  0  0  0
    1.7463    1.0232   12.1753 C   0  0  0  0  0  0  0  0  0  0  0  0
    3.8620   -2.6564   15.5735 C   0  0  0  0  0  0  0  0  0  0  0  0
    3.6464   -3.9274   16.4067 C   0  0  0  0  0  0  0  0  0  0  0  0
    3.8882   -5.2091   15.8349 C   0  0  0  0  0  0  0  0  0  0  0  0
    3.6978   -6.3792   16.6056 C   0  0  0  0  0  0  0  0  0  0  0  0
    3.2602   -6.2810   17.9574 C   0  0  0  0  0  0  0  0  0  0  0  0
    3.0173   -5.0153   18.5359 C   0  0  0  0  0  0  0  0  0  0  0  0
    3.2106   -3.8355   17.7656 C   0  0  0  0  0  0  0  0  0  0  0  0
  7 12  1  0  0  0
  7 14  1  0  0  0
  7  9  1  0  0  0
  8  9  1  0  0  0
  8 13  1  0  0  0
  9 10  1  0  0  0
 10 11  1  0  0  0
 11 12  1  0  0  0
 13 14  1  0  0  0
 14  6  1  0  0  0
  6  2  1  0  0  0
  2  4  1  0  0  0
  2  3  2  0  0  0
  4  1  1  0  0  0
  1 35  1  0  0  0
  1 15  1  0  0  0
 35 36  1  0  0  0
 36 37  2  0  0  0
 36 41  1  0  0  0
 37 38  1  0  0  0
 38 39  2  0  0  0
 39 40  1  0  0  0
 40 41  2  0  0  0
 15 18  1  0  0  0
 15 16  1  0  0  0
 18 19  1  0  0  0
 19 20  1  0  0  0
 19 31  1  0  0  0
 20 22  2  0  0  0
 20 23  1  0  0  0
 20 21  2  0  0  0
 23 28  2  0  0  0
 23 24  1  0  0  0
 24 25  2  0  0  0
 25 26  1  0  0  0
 26 29  1  0  0  0
 26 27  2  0  0  0
 29 30  1  0  0  0
 27 28  1  0  0  0
 31 32  1  0  0  0
 32 34  1  0  0  0
 32 33  1  0  0  0
  4  5  1  0  0  0
 16 17  1  0  0  0
M  END
> <minimizedAffinity>
-9.01892

$$$$
3I7E_DJR_A_100


 41 44  0  0  0  0  0  0  0  0999 V2000
    3.8612    0.9758   13.4057 C   0  0  0  0  0  0  0  0  0  0  0  0
    4.3967    2.6408   11.6552 C   0  0  0  0  0  0  0  0  0  0  0  0
    3.6486    3.5277   12.0958 O   0  0  0  0  0  0  0  0  0  0  0  0
    4.5494    1.4297   12.1789 N   0  0  0  0  0  0  0  0  0  0  0  0
    5.1544    0.7996   11.7249 H   0  0  0  0  0  0  0  0  0  0  0  0
    5.1987    2.7396   10.5364 O   0  0  0  0  0  0  0  0  0  0  0  0
    7.6813    2.6710   10.4021 C   0  0  0  0  0  0  0  0  0  0  0  0
    7.2922    3.1038   12.7028 O   0  0  0  0  0  0  0  0  0  0  0  0
    8.0660    2.2871   11.8000 C   0  0  0  0  0  0  0  0  0  0  0  0
    7.7270    0.8931   11.9458 O   0  0  0  0  0  0  0  0  0  0  0  0
    7.3133    0.3212   10.6940 C   0  0  0  0  0  0  0  0  0  0  0  0
    7.6368    1.3569    9.6185 C   0  0  0  0  0  0  0  0  0  0  0  0
    6.6271    4.1325   11.9488 C   0  0  0  0  0  0  0  0  0  0  0  0
    6.4173    3.5433   10.5553 C   0  0  0  0  0  0  0  0  0  0  0  0
    4.9471    0.2749   14.2956 C   0  0  0  0  0  0  0  0  0  0  0  0
    6.0932    1.1247   14.4512 O   0  0  0  0  0  0  0  0  0  0  0  0
    6.5058    1.2728   13.5859 H   0  0  0  0  0  0  0  0  0  0  0  0
    5.4037   -1.0995   13.7534 C   0  0  0  0  0  0  0  0  0  0  0  0
    5.3986   -2.1514   14.8011 N   0  0  0  0  0  0  0  0  0  0  0  0
    6.6784   -2.1629   15.9908 S   0  0  0  0  0  0  0  0  0  0  0  0
    7.7639   -1.1988   15.3773 O   0  0  0  0  0  0  0  0  0  0  0  0
    6.1242   -1.5892   17.3488 O   0  0  0  0  0  0  0  0  0  0  0  0
    7.2784   -3.8056   16.1738 C   0  0  0  0  0  0  0  0  0  0  0  0
    8.0615   -4.4079   15.1486 C   0  0  0  0  0  0  0  0  0  0  0  0
    8.5488   -5.7252   15.3348 C   0  0  0  0  0  0  0  0  0  0  0  0
    8.2592   -6.4422   16.5388 C   0  0  0  0  0  0  0  0  0  0  0  0
    7.4741   -5.8087   17.5438 C   0  0  0  0  0  0  0  0  0  0  0  0
    6.9863   -4.4979   17.3658 C   0  0  0  0  0  0  0  0  0  0  0  0
    8.7874   -7.7326   16.6152 O   0  0  0  0  0  0  0  0  0  0  0  0
    8.3188   -8.7621   17.5257 C   0  0  0  0  0  0  0  0  0  0  0  0
    4.3150   -3.1949   14.8439 C   0  0  0  0  0  0  0  0  0  0  0  0
    3.0364   -2.8461   15.6614 C   0  0  0  0  0  0  0  0  0  0  0  0
    1.7391   -3.3645   15.0239 C   0  0  0  0  0  0  0  0  0  0  0  0
    3.1186   -3.4437   17.0728 C   0  0  0  0  0  0  0  0  0  0  0  0
    2.6533    0.0687   13.0076 C   0  0  0  0  0  0  0  0  0  0  0  0
    1.6387    0.7403   12.0718 C   0  0  0  0  0  0  0  0  0  0  0  0
    0.6332    1.5985   12.6018 C   0  0  0  0  0  0  0  0  0  0  0  0
   -0.2958    2.2238   11.7385 C   0  0  0  0  0  0  0  0  0  0  0  0
   -0.2317    1.9955   10.3341 C   0  0  0  0  0  0  0  0  0  0  0  0
    0.7613    1.1467    9.7963 C   0  0  0  0  0  0  0  0  0  0  0  0
    1.6999    0.5182   10.6605 C   0  0  0  0  0  0  0  0  0  0  0  0
  7 12  1  0  0  0
  7 14  1  0  0  0
  7  9  1  0  0  0
  8  9  1  0  0  0
  8 13  1  0  0  0
  9 10  1  0  0  0
 10 11  1  0  0  0
 11 12  1  0  0  0
 13 14  1  0  0  0
 14  6  1  0  0  0
  6  2  1  0  0  0
  2  4  1  0  0  0
  2  3  2  0  0  0
  4  1  1  0  0  0
  1 35  1  0  0  0
  1 15  1  0  0  0
 35 36  1  0  0  0
 36 37  2  0  0  0
 36 41  1  0  0  0
 37 38  1  0  0  0
 38 39  2  0  0  0
 39 40  1  0  0  0
 40 41  2  0  0  0
 15 18  1  0  0  0
 15 16  1  0  0  0
 18 19  1  0  0  0
 19 20  1  0  0  0
 19 31  1  0  0  0
 20 22  2  0  0  0
 20 23  1  0  0  0
 20 21  2  0  0  0
 23 28  2  0  0  0
 23 24  1  0  0  0
 24 25  2  0  0  0
 25 26  1  0  0  0
 26 29  1  0  0  0
 26 27  2  0  0  0
 29 30  1  0  0  0
 27 28  1  0  0  0
 31 32  1  0  0  0
 32 34  1  0  0  0
 32 33  1  0  0  0
  4  5  1  0  0  0
 16 17  1  0  0  0
M  END
> <minimizedAffinity>
-8.98476

$$$$
3I7E_DJR_A_100


 41 44  0  0  0  0  0  0  0  0999 V2000
    3.7281   -2.0926   14.4623 C   0  0  0  0  0  0  0  0  0  0  0  0
    3.5115    0.3629   14.2454 C   0  0  0  0  0  0  0  0  0  0  0  0
    4.4120    0.6379   15.0540 O   0  0  0  0  0  0  0  0  0  0  0  0
    3.1141   -0.8621   13.9204 N   0  0  0  0  0  0  0  0  0  0  0  0
    2.3693   -0.9558   13.2834 H   0  0  0  0  0  0  0  0  0  0  0  0
    2.7478    1.2729   13.5431 O   0  0  0  0  0  0  0  0  0  0  0  0
    2.4561    1.6699   11.1052 C   0  0  0  0  0  0  0  0  0  0  0  0
    0.5149    2.6690   12.0355 O   0  0  0  0  0  0  0  0  0  0  0  0
    1.5763    2.8845   11.0827 C   0  0  0  0  0  0  0  0  0  0  0  0
    2.4072    3.9947   11.4782 O   0  0  0  0  0  0  0  0  0  0  0  0
    3.7861    3.6044   11.5858 C   0  0  0  0  0  0  0  0  0  0  0  0
    3.8860    2.2028   10.9860 C   0  0  0  0  0  0  0  0  0  0  0  0
    0.5503    1.2992   12.4728 C   0  0  0  0  0  0  0  0  0  0  0  0
    2.0112    0.8709   12.3485 C   0  0  0  0  0  0  0  0  0  0  0  0
    4.8734   -2.4970   13.4688 C   0  0  0  0  0  0  0  0  0  0  0  0
    4.3385   -3.2347   12.3599 O   0  0  0  0  0  0  0  0  0  0  0  0
    3.9515   -4.0645   12.6801 H   0  0  0  0  0  0  0  0  0  0  0  0
    6.0064   -3.3188   14.1264 C   0  0  0  0  0  0  0  0  0  0  0  0
    7.1024   -2.4603   14.6421 N   0  0  0  0  0  0  0  0  0  0  0  0
    7.4508   -2.4753   16.3543 S   0  0  0  0  0  0  0  0  0  0  0  0
    8.7086   -1.5345   16.4853 O   0  0  0  0  0  0  0  0  0  0  0  0
    6.2209   -1.8768   17.1353 O   0  0  0  0  0  0  0  0  0  0  0  0
    7.8012   -4.1240   16.8553 C   0  0  0  0  0  0  0  0  0  0  0  0
    9.1062   -4.6684   16.6889 C   0  0  0  0  0  0  0  0  0  0  0  0
    9.3631   -5.9927   17.1222 C   0  0  0  0  0  0  0  0  0  0  0  0
    8.3247   -6.7740   17.7213 C   0  0  0  0  0  0  0  0  0  0  0  0
    7.0317   -6.1974   17.8734 C   0  0  0  0  0  0  0  0  0  0  0  0
    6.7688   -4.8801   17.4451 C   0  0  0  0  0  0  0  0  0  0  0  0
    8.6879   -8.0654   18.1092 O   0  0  0  0  0  0  0  0  0  0  0  0
    9.9798   -8.4259   18.6656 C   0  0  0  0  0  0  0  0  0  0  0  0
    7.9031   -1.5875   13.7137 C   0  0  0  0  0  0  0  0  0  0  0  0
    7.2671   -0.2253   13.3079 C   0  0  0  0  0  0  0  0  0  0  0  0
    7.7077    0.9474   14.1961 C   0  0  0  0  0  0  0  0  0  0  0  0
    7.6396    0.1350   11.8631 C   0  0  0  0  0  0  0  0  0  0  0  0
    2.6176   -3.1734   14.6591 C   0  0  0  0  0  0  0  0  0  0  0  0
    2.8404   -4.0980   15.8640 C   0  0  0  0  0  0  0  0  0  0  0  0
    3.2039   -5.4605   15.6646 C   0  0  0  0  0  0  0  0  0  0  0  0
    3.4176   -6.3095   16.7749 C   0  0  0  0  0  0  0  0  0  0  0  0
    3.2672   -5.8060   18.0987 C   0  0  0  0  0  0  0  0  0  0  0  0
    2.9073   -4.4563   18.3094 C   0  0  0  0  0  0  0  0  0  0  0  0
    2.6946   -3.5977   17.1956 C   0  0  0  0  0  0  0  0  0  0  0  0
  7 12  1  0  0  0
  7 14  1  0  0  0
  7  9  1  0  0  0
  8  9  1  0  0  0
  8 13  1  0  0  0
  9 10  1  0  0  0
 10 11  1  0  0  0
 11 12  1  0  0  0
 13 14  1  0  0  0
 14  6  1  0  0  0
  6  2  1  0  0  0
  2  4  1  0  0  0
  2  3  2  0  0  0
  4  1  1  0  0  0
  1 35  1  0  0  0
  1 15  1  0  0  0
 35 36  1  0  0  0
 36 37  2  0  0  0
 36 41  1  0  0  0
 37 38  1  0  0  0
 38 39  2  0  0  0
 39 40  1  0  0  0
 40 41  2  0  0  0
 15 18  1  0  0  0
 15 16  1  0  0  0
 18 19  1  0  0  0
 19 20  1  0  0  0
 19 31  1  0  0  0
 20 22  2  0  0  0
 20 23  1  0  0  0
 20 21  2  0  0  0
 23 28  2  0  0  0
 23 24  1  0  0  0
 24 25  2  0  0  0
 25 26  1  0  0  0
 26 29  1  0  0  0
 26 27  2  0  0  0
 29 30  1  0  0  0
 27 28  1  0  0  0
 31 32  1  0  0  0
 32 34  1  0  0  0
 32 33  1  0  0  0
  4  5  1  0  0  0
 16 17  1  0  0  0
M  END
> <minimizedAffinity>
-8.89203

$$$$
3I7E_DJR_A_100


 41 44  0  0  0  0  0  0  0  0999 V2000
    5.5501   -0.3684   13.9514 C   0  0  0  0  0  0  0  0  0  0  0  0
    3.7654   -0.3150   12.2381 C   0  0  0  0  0  0  0  0  0  0  0  0
    3.5924   -1.5436   12.2022 O   0  0  0  0  0  0  0  0  0  0  0  0
    4.6527    0.3172   12.9978 N   0  0  0  0  0  0  0  0  0  0  0  0
    4.7163    1.2967   12.9214 H   0  0  0  0  0  0  0  0  0  0  0  0
    3.0806    0.6215   11.4908 O   0  0  0  0  0  0  0  0  0  0  0  0
    1.7337    2.6810   11.8526 C   0  0  0  0  0  0  0  0  0  0  0  0
    2.7557    3.0852    9.7493 O   0  0  0  0  0  0  0  0  0  0  0  0
    1.4972    3.1580   10.4504 C   0  0  0  0  0  0  0  0  0  0  0  0
    0.5316    2.2562    9.8726 O   0  0  0  0  0  0  0  0  0  0  0  0
    0.0119    1.3457   10.8554 C   0  0  0  0  0  0  0  0  0  0  0  0
    0.4988    1.8514   12.2124 C   0  0  0  0  0  0  0  0  0  0  0  0
    3.8040    2.8175   10.6971 C   0  0  0  0  0  0  0  0  0  0  0  0
    3.1377    2.0403   11.8307 C   0  0  0  0  0  0  0  0  0  0  0  0
    4.8042   -0.3909   15.3318 C   0  0  0  0  0  0  0  0  0  0  0  0
    4.6391    0.9431   15.8348 O   0  0  0  0  0  0  0  0  0  0  0  0
    5.5102    1.3352   16.0034 H   0  0  0  0  0  0  0  0  0  0  0  0
    5.5067   -1.2550   16.4048 C   0  0  0  0  0  0  0  0  0  0  0  0
    5.7991   -2.6285   15.9230 N   0  0  0  0  0  0  0  0  0  0  0  0
    7.4652   -3.1374   15.7866 S   0  0  0  0  0  0  0  0  0  0  0  0
    7.6473   -3.4017   14.2435 O   0  0  0  0  0  0  0  0  0  0  0  0
    8.4022   -1.9667   16.2681 O   0  0  0  0  0  0  0  0  0  0  0  0
    7.7008   -4.5954   16.7409 C   0  0  0  0  0  0  0  0  0  0  0  0
    6.9269   -4.8252   17.9136 C   0  0  0  0  0  0  0  0  0  0  0  0
    7.1249   -6.0197   18.6494 C   0  0  0  0  0  0  0  0  0  0  0  0
    8.0896   -6.9849   18.2194 C   0  0  0  0  0  0  0  0  0  0  0  0
    8.8453   -6.7233   17.0412 C   0  0  0  0  0  0  0  0  0  0  0  0
    8.6534   -5.5372   16.3035 C   0  0  0  0  0  0  0  0  0  0  0  0
    8.2032   -8.1234   19.0199 O   0  0  0  0  0  0  0  0  0  0  0  0
    9.4431   -8.8388   19.2640 C   0  0  0  0  0  0  0  0  0  0  0  0
    4.6862   -3.5720   15.5541 C   0  0  0  0  0  0  0  0  0  0  0  0
    3.3260   -3.3732   16.2858 C   0  0  0  0  0  0  0  0  0  0  0  0
    2.1058   -3.5231   15.3655 C   0  0  0  0  0  0  0  0  0  0  0  0
    3.1681   -4.3966   17.4187 C   0  0  0  0  0  0  0  0  0  0  0  0
    6.9328    0.3583   13.9640 C   0  0  0  0  0  0  0  0  0  0  0  0
    7.3322    0.9826   12.6198 C   0  0  0  0  0  0  0  0  0  0  0  0
    7.6978    0.1505   11.5233 C   0  0  0  0  0  0  0  0  0  0  0  0
    8.0572    0.7258   10.2827 C   0  0  0  0  0  0  0  0  0  0  0  0
    8.0580    2.1413   10.1250 C   0  0  0  0  0  0  0  0  0  0  0  0
    7.6970    2.9772   11.2051 C   0  0  0  0  0  0  0  0  0  0  0  0
    7.3315    2.4029   12.4539 C   0  0  0  0  0  0  0  0  0  0  0  0
  7 12  1  0  0  0
  7 14  1  0  0  0
  7  9  1  0  0  0
  8  9  1  0  0  0
  8 13  1  0  0  0
  9 10  1  0  0  0
 10 11  1  0  0  0
 11 12  1  0  0  0
 13 14  1  0  0  0
 14  6  1  0  0  0
  6  2  1  0  0  0
  2  4  1  0  0  0
  2  3  2  0  0  0
  4  1  1  0  0  0
  1 35  1  0  0  0
  1 15  1  0  0  0
 35 36  1  0  0  0
 36 37  2  0  0  0
 36 41  1  0  0  0
 37 38  1  0  0  0
 38 39  2  0  0  0
 39 40  1  0  0  0
 40 41  2  0  0  0
 15 18  1  0  0  0
 15 16  1  0  0  0
 18 19  1  0  0  0
 19 20  1  0  0  0
 19 31  1  0  0  0
 20 22  2  0  0  0
 20 23  1  0  0  0
 20 21  2  0  0  0
 23 28  2  0  0  0
 23 24  1  0  0  0
 24 25  2  0  0  0
 25 26  1  0  0  0
 26 29  1  0  0  0
 26 27  2  0  0  0
 29 30  1  0  0  0
 27 28  1  0  0  0
 31 32  1  0  0  0
 32 34  1  0  0  0
 32 33  1  0  0  0
  4  5  1  0  0  0
 16 17  1  0  0  0
M  END
> <minimizedAffinity>
-8.82561

$$$$
3I7E_DJR_A_100


 41 44  0  0  0  0  0  0  0  0999 V2000
    3.4452   -2.4855   15.0597 C   0  0  0  0  0  0  0  0  0  0  0  0
    5.8718   -2.9700   15.0832 C   0  0  0  0  0  0  0  0  0  0  0  0
    5.8634   -3.6902   14.0724 O   0  0  0  0  0  0  0  0  0  0  0  0
    4.8082   -2.3853   15.6228 N   0  0  0  0  0  0  0  0  0  0  0  0
    4.9346   -1.8559   16.4431 H   0  0  0  0  0  0  0  0  0  0  0  0
    6.9799   -2.6513   15.8415 O   0  0  0  0  0  0  0  0  0  0  0  0
    8.7507   -4.0045   16.9459 C   0  0  0  0  0  0  0  0  0  0  0  0
    7.1856   -5.6502   16.2573 O   0  0  0  0  0  0  0  0  0  0  0  0
    8.5940   -5.3393   16.2801 C   0  0  0  0  0  0  0  0  0  0  0  0
    9.1110   -5.1887   14.9424 O   0  0  0  0  0  0  0  0  0  0  0  0
    9.7379   -3.9078   14.7645 C   0  0  0  0  0  0  0  0  0  0  0  0
    9.8439   -3.2825   16.1544 C   0  0  0  0  0  0  0  0  0  0  0  0
    6.4840   -4.7004   17.0786 C   0  0  0  0  0  0  0  0  0  0  0  0
    7.3228   -3.4248   17.0313 C   0  0  0  0  0  0  0  0  0  0  0  0
    3.0947   -1.0703   14.4796 C   0  0  0  0  0  0  0  0  0  0  0  0
    1.7023   -0.7800   14.6715 O   0  0  0  0  0  0  0  0  0  0  0  0
    1.1675   -1.4176   14.1732 H   0  0  0  0  0  0  0  0  0  0  0  0
    3.4459   -0.9069   12.9824 C   0  0  0  0  0  0  0  0  0  0  0  0
    4.1933    0.3467   12.7099 N   0  0  0  0  0  0  0  0  0  0  0  0
    5.9304    0.2720   12.5365 S   0  0  0  0  0  0  0  0  0  0  0  0
    6.4597    0.4943   14.0044 O   0  0  0  0  0  0  0  0  0  0  0  0
    6.3341   -1.1551   12.0065 O   0  0  0  0  0  0  0  0  0  0  0  0
    6.4543    1.5456   11.4432 C   0  0  0  0  0  0  0  0  0  0  0  0
    7.1445    2.6872   11.9405 C   0  0  0  0  0  0  0  0  0  0  0  0
    7.5729    3.6862   11.0317 C   0  0  0  0  0  0  0  0  0  0  0  0
    7.3169    3.5499    9.6306 C   0  0  0  0  0  0  0  0  0  0  0  0
    6.6252    2.3945    9.1676 C   0  0  0  0  0  0  0  0  0  0  0  0
    6.1964    1.3960   10.0659 C   0  0  0  0  0  0  0  0  0  0  0  0
    7.7812    4.5936    8.8274 O   0  0  0  0  0  0  0  0  0  0  0  0
    7.4196    4.7848    7.4342 C   0  0  0  0  0  0  0  0  0  0  0  0
    3.4755    1.6635   12.5857 C   0  0  0  0  0  0  0  0  0  0  0  0
    2.3072    1.7321   11.5584 C   0  0  0  0  0  0  0  0  0  0  0  0
    0.9177    1.7800   12.2104 C   0  0  0  0  0  0  0  0  0  0  0  0
    2.4374    2.9812   10.6759 C   0  0  0  0  0  0  0  0  0  0  0  0
    2.4717   -3.0005   16.1675 C   0  0  0  0  0  0  0  0  0  0  0  0
    2.8451   -4.3700   16.7517 C   0  0  0  0  0  0  0  0  0  0  0  0
    2.8483   -4.5713   18.1616 C   0  0  0  0  0  0  0  0  0  0  0  0
    3.1839   -5.8354   18.6989 C   0  0  0  0  0  0  0  0  0  0  0  0
    3.5234   -6.9130   17.8317 C   0  0  0  0  0  0  0  0  0  0  0  0
    3.5235   -6.7259   16.4315 C   0  0  0  0  0  0  0  0  0  0  0  0
    3.1834   -5.4570   15.8864 C   0  0  0  0  0  0  0  0  0  0  0  0
  7 12  1  0  0  0
  7 14  1  0  0  0
  7  9  1  0  0  0
  8  9  1  0  0  0
  8 13  1  0  0  0
  9 10  1  0  0  0
 10 11  1  0  0  0
 11 12  1  0  0  0
 13 14  1  0  0  0
 14  6  1  0  0  0
  6  2  1  0  0  0
  2  4  1  0  0  0
  2  3  2  0  0  0
  4  1  1  0  0  0
  1 35  1  0  0  0
  1 15  1  0  0  0
 35 36  1  0  0  0
 36 37  2  0  0  0
 36 41  1  0  0  0
 37 38  1  0  0  0
 38 39  2  0  0  0
 39 40  1  0  0  0
 40 41  2  0  0  0
 15 18  1  0  0  0
 15 16  1  0  0  0
 18 19  1  0  0  0
 19 20  1  0  0  0
 19 31  1  0  0  0
 20 22  2  0  0  0
 20 23  1  0  0  0
 20 21  2  0  0  0
 23 28  2  0  0  0
 23 24  1  0  0  0
 24 25  2  0  0  0
 25 26  1  0  0  0
 26 29  1  0  0  0
 26 27  2  0  0  0
 29 30  1  0  0  0
 27 28  1  0  0  0
 31 32  1  0  0  0
 32 34  1  0  0  0
 32 33  1  0  0  0
  4  5  1  0  0  0
 16 17  1  0  0  0
M  END
> <minimizedAffinity>
-8.80719

$$$$
