5N0F_7K2_A_401


 28 29  0  0  0  0  0  0  0  0999 V2000
    1.9074  -31.2211   -3.9551 O   0  0  0  0  0  0  0  0  0  0  0  0
    3.0407  -31.0839   -4.8421 C   0  0  0  0  0  0  0  0  0  0  0  0
    4.3043  -31.3988   -4.0721 C   0  0  0  0  0  0  0  0  0  0  0  0
    4.4725  -30.4854   -2.9641 O   0  0  0  0  0  0  0  0  0  0  0  0
    4.3089  -32.8683   -3.6567 C   0  0  0  0  0  0  0  0  0  0  0  0
    5.5927  -33.2450   -3.1175 O   0  0  0  0  0  0  0  0  0  0  0  0
    4.0168  -33.7630   -4.8750 C   0  0  0  0  0  0  0  0  0  0  0  0
    2.8473  -33.3772   -5.6305 O   0  0  0  0  0  0  0  0  0  0  0  0
    2.8729  -32.0112   -6.0785 C   0  0  0  0  0  0  0  0  0  0  0  0
    1.0914  -31.0211   -4.4398 H   0  0  0  0  0  0  0  0  0  0  0  0
    3.7228  -30.5744   -2.3550 H   0  0  0  0  0  0  0  0  0  0  0  0
    6.2757  -33.1264   -3.7960 H   0  0  0  0  0  0  0  0  0  0  0  0
    3.9761  -35.2458   -4.5119 C   0  0  0  0  0  0  0  0  0  0  0  0
    5.2824  -35.7809   -4.6940 O   0  0  0  0  0  0  0  0  0  0  0  0
    5.5549  -35.6616   -5.6172 H   0  0  0  0  0  0  0  0  0  0  0  0
    4.1372  -31.6716   -7.3103 S   0  0  0  0  0  0  0  0  0  0  0  0
    3.2411  -31.7692   -8.8449 C   0  0  0  0  0  0  0  0  0  0  0  0
    4.0716  -31.4366  -10.0932 C   0  0  0  0  0  0  0  0  0  0  0  0
    5.4652  -32.0604   -9.9260 C   0  0  0  0  0  0  0  0  0  0  0  0
    6.2455  -31.7550  -11.1444 N   0  0  0  0  0  0  0  0  0  0  0  0
    5.7070  -32.2146  -12.4706 C   0  0  0  0  0  0  0  0  0  0  0  0
    4.3084  -31.6261  -12.6186 C   0  0  0  0  0  0  0  0  0  0  0  0
    3.7645  -32.1026  -13.8871 O   0  0  0  0  0  0  0  0  0  0  0  0
    3.4344  -31.9510  -11.3977 C   0  0  0  0  0  0  0  0  0  0  0  0
    2.0998  -31.3552  -11.5882 O   0  0  0  0  0  0  0  0  0  0  0  0
    6.3437  -30.7409  -11.1936 H   0  0  0  0  0  0  0  0  0  0  0  0
    3.7317  -33.0721  -13.8811 H   0  0  0  0  0  0  0  0  0  0  0  0
    2.1838  -30.3919  -11.6658 H   0  0  0  0  0  0  0  0  0  0  0  0
 23 22  1  0  0  0
 21 22  1  0  0  0
 21 20  1  0  0  0
 22 24  1  0  0  0
 20 19  1  0  0  0
 24 25  1  0  0  0
 24 18  1  0  0  0
 19 18  1  0  0  0
 18 17  1  0  0  0
 17 16  1  0  0  0
 16  9  1  0  0  0
  9  8  1  0  0  0
  9  2  1  0  0  0
  8  7  1  0  0  0
  2  1  1  0  0  0
  2  3  1  0  0  0
  7 13  1  0  0  0
  7  5  1  0  0  0
  3  5  1  0  0  0
  3  4  1  0  0  0
  5  6  1  0  0  0
 13 14  1  0  0  0
  1 10  1  0  0  0
  4 11  1  0  0  0
  6 12  1  0  0  0
 20 26  1  0  0  0
 23 27  1  0  0  0
 25 28  1  0  0  0
 14 15  1  0  0  0
M  END
> <minimizedAffinity>
-7.06974

$$$$
5N0F_7K2_A_401


 28 29  0  0  0  0  0  0  0  0999 V2000
    2.4246  -33.1113  -10.4667 O   0  0  0  0  0  0  0  0  0  0  0  0
    3.4298  -32.2388  -11.0308 C   0  0  0  0  0  0  0  0  0  0  0  0
    3.0007  -30.8026  -10.8250 C   0  0  0  0  0  0  0  0  0  0  0  0
    1.7411  -30.5425  -11.4852 O   0  0  0  0  0  0  0  0  0  0  0  0
    2.9874  -30.4711   -9.3343 C   0  0  0  0  0  0  0  0  0  0  0  0
    2.7973  -29.0567   -9.1251 O   0  0  0  0  0  0  0  0  0  0  0  0
    4.3254  -30.8779   -8.6904 C   0  0  0  0  0  0  0  0  0  0  0  0
    4.7387  -32.2315   -8.9802 O   0  0  0  0  0  0  0  0  0  0  0  0
    4.8151  -32.5245  -10.3857 C   0  0  0  0  0  0  0  0  0  0  0  0
    2.6906  -34.0355  -10.5936 H   0  0  0  0  0  0  0  0  0  0  0  0
    1.0545  -31.1151  -11.1089 H   0  0  0  0  0  0  0  0  0  0  0  0
    3.5305  -28.5683   -9.5310 H   0  0  0  0  0  0  0  0  0  0  0  0
    4.3572  -30.5993   -7.1892 C   0  0  0  0  0  0  0  0  0  0  0  0
    3.0198  -30.6410   -6.7040 O   0  0  0  0  0  0  0  0  0  0  0  0
    2.4876  -29.9739   -7.1650 H   0  0  0  0  0  0  0  0  0  0  0  0
    6.1183  -31.6345  -11.2461 S   0  0  0  0  0  0  0  0  0  0  0  0
    5.9320  -32.1767  -12.9310 C   0  0  0  0  0  0  0  0  0  0  0  0
    5.8850  -31.0435  -13.9666 C   0  0  0  0  0  0  0  0  0  0  0  0
    7.1766  -31.0943  -14.7964 C   0  0  0  0  0  0  0  0  0  0  0  0
    7.1075  -30.0154  -15.8053 N   0  0  0  0  0  0  0  0  0  0  0  0
    5.9559  -30.0149  -16.7717 C   0  0  0  0  0  0  0  0  0  0  0  0
    4.6739  -30.0032  -15.9465 C   0  0  0  0  0  0  0  0  0  0  0  0
    3.5517  -30.0435  -16.8799 O   0  0  0  0  0  0  0  0  0  0  0  0
    4.6689  -31.1345  -14.9074 C   0  0  0  0  0  0  0  0  0  0  0  0
    3.4151  -31.0739  -14.1349 O   0  0  0  0  0  0  0  0  0  0  0  0
    7.0772  -29.1304  -15.2992 H   0  0  0  0  0  0  0  0  0  0  0  0
    3.6077  -30.8484  -17.4183 H   0  0  0  0  0  0  0  0  0  0  0  0
    3.3614  -30.2232  -13.6719 H   0  0  0  0  0  0  0  0  0  0  0  0
 23 22  1  0  0  0
 21 22  1  0  0  0
 21 20  1  0  0  0
 22 24  1  0  0  0
 20 19  1  0  0  0
 24 25  1  0  0  0
 24 18  1  0  0  0
 19 18  1  0  0  0
 18 17  1  0  0  0
 17 16  1  0  0  0
 16  9  1  0  0  0
  9  8  1  0  0  0
  9  2  1  0  0  0
  8  7  1  0  0  0
  2  1  1  0  0  0
  2  3  1  0  0  0
  7 13  1  0  0  0
  7  5  1  0  0  0
  3  5  1  0  0  0
  3  4  1  0  0  0
  5  6  1  0  0  0
 13 14  1  0  0  0
  1 10  1  0  0  0
  4 11  1  0  0  0
  6 12  1  0  0  0
 20 26  1  0  0  0
 23 27  1  0  0  0
 25 28  1  0  0  0
 14 15  1  0  0  0
M  END
> <minimizedAffinity>
-7.04516

$$$$
5N0F_7K2_A_401


 28 29  0  0  0  0  0  0  0  0999 V2000
    4.9028  -28.2691   -5.8133 O   0  0  0  0  0  0  0  0  0  0  0  0
    5.7359  -29.4504   -5.8291 C   0  0  0  0  0  0  0  0  0  0  0  0
    5.7960  -30.0241   -4.4304 C   0  0  0  0  0  0  0  0  0  0  0  0
    6.3670  -29.0694   -3.5070 O   0  0  0  0  0  0  0  0  0  0  0  0
    4.4152  -30.5253   -4.0128 C   0  0  0  0  0  0  0  0  0  0  0  0
    4.4913  -31.2710   -2.7805 O   0  0  0  0  0  0  0  0  0  0  0  0
    3.8370  -31.4491   -5.1002 C   0  0  0  0  0  0  0  0  0  0  0  0
    3.8744  -30.8951   -6.4340 O   0  0  0  0  0  0  0  0  0  0  0  0
    5.1869  -30.4836   -6.8527 C   0  0  0  0  0  0  0  0  0  0  0  0
    4.8577  -27.8932   -6.7064 H   0  0  0  0  0  0  0  0  0  0  0  0
    5.8115  -28.2746   -3.4791 H   0  0  0  0  0  0  0  0  0  0  0  0
    5.0624  -32.0451   -2.9057 H   0  0  0  0  0  0  0  0  0  0  0  0
    2.4393  -31.9555   -4.7507 C   0  0  0  0  0  0  0  0  0  0  0  0
    1.7889  -30.9557   -3.9738 O   0  0  0  0  0  0  0  0  0  0  0  0
    2.3031  -30.7863   -3.1690 H   0  0  0  0  0  0  0  0  0  0  0  0
    6.3416  -31.8434   -7.0725 S   0  0  0  0  0  0  0  0  0  0  0  0
    5.7095  -32.6804   -8.5103 C   0  0  0  0  0  0  0  0  0  0  0  0
    5.1313  -31.7523   -9.5887 C   0  0  0  0  0  0  0  0  0  0  0  0
    6.0736  -31.7760  -10.8015 C   0  0  0  0  0  0  0  0  0  0  0  0
    5.4930  -30.8993  -11.8413 N   0  0  0  0  0  0  0  0  0  0  0  0
    4.1103  -31.2078  -12.3443 C   0  0  0  0  0  0  0  0  0  0  0  0
    3.1824  -31.2218  -11.1346 C   0  0  0  0  0  0  0  0  0  0  0  0
    1.8449  -31.5610  -11.6122 O   0  0  0  0  0  0  0  0  0  0  0  0
    3.7131  -32.1542  -10.0352 C   0  0  0  0  0  0  0  0  0  0  0  0
    2.7857  -32.1256   -8.8899 O   0  0  0  0  0  0  0  0  0  0  0  0
    5.4717  -29.9532  -11.4609 H   0  0  0  0  0  0  0  0  0  0  0  0
    1.8657  -32.4309  -12.0409 H   0  0  0  0  0  0  0  0  0  0  0  0
    2.7348  -31.2233   -8.5376 H   0  0  0  0  0  0  0  0  0  0  0  0
 23 22  1  0  0  0
 21 22  1  0  0  0
 21 20  1  0  0  0
 22 24  1  0  0  0
 20 19  1  0  0  0
 24 25  1  0  0  0
 24 18  1  0  0  0
 19 18  1  0  0  0
 18 17  1  0  0  0
 17 16  1  0  0  0
 16  9  1  0  0  0
  9  8  1  0  0  0
  9  2  1  0  0  0
  8  7  1  0  0  0
  2  1  1  0  0  0
  2  3  1  0  0  0
  7 13  1  0  0  0
  7  5  1  0  0  0
  3  5  1  0  0  0
  3  4  1  0  0  0
  5  6  1  0  0  0
 13 14  1  0  0  0
  1 10  1  0  0  0
  4 11  1  0  0  0
  6 12  1  0  0  0
 20 26  1  0  0  0
 23 27  1  0  0  0
 25 28  1  0  0  0
 14 15  1  0  0  0
M  END
> <minimizedAffinity>
-7.03977

$$$$
5N0F_7K2_A_401


 28 29  0  0  0  0  0  0  0  0999 V2000
    5.1071  -33.3188   -5.7779 O   0  0  0  0  0  0  0  0  0  0  0  0
    4.2526  -32.4668   -6.5741 C   0  0  0  0  0  0  0  0  0  0  0  0
    2.9349  -32.2862   -5.8530 C   0  0  0  0  0  0  0  0  0  0  0  0
    2.2728  -33.5576   -5.6654 O   0  0  0  0  0  0  0  0  0  0  0  0
    3.1536  -31.5152   -4.5530 C   0  0  0  0  0  0  0  0  0  0  0  0
    1.8929  -31.1403   -3.9607 O   0  0  0  0  0  0  0  0  0  0  0  0
    3.9571  -30.2312   -4.8287 C   0  0  0  0  0  0  0  0  0  0  0  0
    5.1667  -30.4377   -5.5914 O   0  0  0  0  0  0  0  0  0  0  0  0
    4.9519  -31.1054   -6.8465 C   0  0  0  0  0  0  0  0  0  0  0  0
    5.9555  -33.4410   -6.2321 H   0  0  0  0  0  0  0  0  0  0  0  0
    2.8317  -34.1364   -5.1236 H   0  0  0  0  0  0  0  0  0  0  0  0
    1.4083  -30.5622   -4.5705 H   0  0  0  0  0  0  0  0  0  0  0  0
    4.2352  -29.4342   -3.5560 C   0  0  0  0  0  0  0  0  0  0  0  0
    3.0442  -28.7406   -3.2004 O   0  0  0  0  0  0  0  0  0  0  0  0
    2.7855  -28.1499   -3.9250 H   0  0  0  0  0  0  0  0  0  0  0  0
    4.0212  -30.1344   -8.0388 S   0  0  0  0  0  0  0  0  0  0  0  0
    3.5921  -31.3301   -9.2852 C   0  0  0  0  0  0  0  0  0  0  0  0
    4.3709  -31.1904  -10.6014 C   0  0  0  0  0  0  0  0  0  0  0  0
    5.7209  -31.9054  -10.4416 C   0  0  0  0  0  0  0  0  0  0  0  0
    6.4495  -31.7856  -11.7228 N   0  0  0  0  0  0  0  0  0  0  0  0
    5.8014  -32.3285  -12.9658 C   0  0  0  0  0  0  0  0  0  0  0  0
    4.4449  -31.6462  -13.1026 C   0  0  0  0  0  0  0  0  0  0  0  0
    3.7934  -32.1997  -14.2865 O   0  0  0  0  0  0  0  0  0  0  0  0
    3.6216  -31.7774  -11.8123 C   0  0  0  0  0  0  0  0  0  0  0  0
    2.3269  -31.0972  -11.9954 O   0  0  0  0  0  0  0  0  0  0  0  0
    6.6209  -30.7926  -11.8808 H   0  0  0  0  0  0  0  0  0  0  0  0
    3.6880  -33.1580  -14.1792 H   0  0  0  0  0  0  0  0  0  0  0  0
    2.4787  -30.1563  -12.1757 H   0  0  0  0  0  0  0  0  0  0  0  0
 23 22  1  0  0  0
 21 22  1  0  0  0
 21 20  1  0  0  0
 22 24  1  0  0  0
 20 19  1  0  0  0
 24 25  1  0  0  0
 24 18  1  0  0  0
 19 18  1  0  0  0
 18 17  1  0  0  0
 17 16  1  0  0  0
 16  9  1  0  0  0
  9  8  1  0  0  0
  9  2  1  0  0  0
  8  7  1  0  0  0
  2  1  1  0  0  0
  2  3  1  0  0  0
  7 13  1  0  0  0
  7  5  1  0  0  0
  3  5  1  0  0  0
  3  4  1  0  0  0
  5  6  1  0  0  0
 13 14  1  0  0  0
  1 10  1  0  0  0
  4 11  1  0  0  0
  6 12  1  0  0  0
 20 26  1  0  0  0
 23 27  1  0  0  0
 25 28  1  0  0  0
 14 15  1  0  0  0
M  END
> <minimizedAffinity>
-7.03844

$$$$
5N0F_7K2_A_401


 28 29  0  0  0  0  0  0  0  0999 V2000
    2.1669  -30.9411   -4.2013 O   0  0  0  0  0  0  0  0  0  0  0  0
    3.3857  -31.5155   -4.7253 C   0  0  0  0  0  0  0  0  0  0  0  0
    3.0524  -32.3269   -5.9580 C   0  0  0  0  0  0  0  0  0  0  0  0
    2.1382  -33.3997   -5.6359 O   0  0  0  0  0  0  0  0  0  0  0  0
    2.5459  -31.4067   -7.0665 C   0  0  0  0  0  0  0  0  0  0  0  0
    2.4315  -32.1214   -8.3142 O   0  0  0  0  0  0  0  0  0  0  0  0
    3.5245  -30.2357   -7.2698 C   0  0  0  0  0  0  0  0  0  0  0  0
    3.8808  -29.5394   -6.0551 O   0  0  0  0  0  0  0  0  0  0  0  0
    4.4196  -30.3964   -5.0341 C   0  0  0  0  0  0  0  0  0  0  0  0
    2.3700  -30.4183   -3.4099 H   0  0  0  0  0  0  0  0  0  0  0  0
    1.3112  -33.0274   -5.2920 H   0  0  0  0  0  0  0  0  0  0  0  0
    3.3043  -32.4518   -8.5787 H   0  0  0  0  0  0  0  0  0  0  0  0
    3.0512  -29.2620   -8.3469 C   0  0  0  0  0  0  0  0  0  0  0  0
    1.6295  -29.3120   -8.3933 O   0  0  0  0  0  0  0  0  0  0  0  0
    1.3443  -30.2159   -8.5994 H   0  0  0  0  0  0  0  0  0  0  0  0
    6.0220  -31.1001   -5.4440 S   0  0  0  0  0  0  0  0  0  0  0  0
    6.2172  -32.3900   -4.2334 C   0  0  0  0  0  0  0  0  0  0  0  0
    6.0412  -33.8139   -4.7813 C   0  0  0  0  0  0  0  0  0  0  0  0
    7.4084  -34.3158   -5.2692 C   0  0  0  0  0  0  0  0  0  0  0  0
    7.2302  -35.6956   -5.7701 N   0  0  0  0  0  0  0  0  0  0  0  0
    6.6848  -36.7321   -4.8276 C   0  0  0  0  0  0  0  0  0  0  0  0
    5.3453  -36.2154   -4.3144 C   0  0  0  0  0  0  0  0  0  0  0  0
    4.8299  -37.1999   -3.3671 O   0  0  0  0  0  0  0  0  0  0  0  0
    5.4779  -34.7975   -3.7384 C   0  0  0  0  0  0  0  0  0  0  0  0
    4.1579  -34.3446   -3.2642 O   0  0  0  0  0  0  0  0  0  0  0  0
    6.5949  -35.6478   -6.5667 H   0  0  0  0  0  0  0  0  0  0  0  0
    5.4602  -37.3076   -2.6377 H   0  0  0  0  0  0  0  0  0  0  0  0
    3.5367  -34.3232   -4.0089 H   0  0  0  0  0  0  0  0  0  0  0  0
 23 22  1  0  0  0
 21 22  1  0  0  0
 21 20  1  0  0  0
 22 24  1  0  0  0
 20 19  1  0  0  0
 24 25  1  0  0  0
 24 18  1  0  0  0
 19 18  1  0  0  0
 18 17  1  0  0  0
 17 16  1  0  0  0
 16  9  1  0  0  0
  9  8  1  0  0  0
  9  2  1  0  0  0
  8  7  1  0  0  0
  2  1  1  0  0  0
  2  3  1  0  0  0
  7 13  1  0  0  0
  7  5  1  0  0  0
  3  5  1  0  0  0
  3  4  1  0  0  0
  5  6  1  0  0  0
 13 14  1  0  0  0
  1 10  1  0  0  0
  4 11  1  0  0  0
  6 12  1  0  0  0
 20 26  1  0  0  0
 23 27  1  0  0  0
 25 28  1  0  0  0
 14 15  1  0  0  0
M  END
> <minimizedAffinity>
-6.87519

$$$$
5N0F_7K2_A_401


 28 29  0  0  0  0  0  0  0  0999 V2000
    3.0213  -28.2838   -8.3550 O   0  0  0  0  0  0  0  0  0  0  0  0
    2.6108  -29.6273   -8.0137 C   0  0  0  0  0  0  0  0  0  0  0  0
    1.8466  -30.2153   -9.1795 C   0  0  0  0  0  0  0  0  0  0  0  0
    0.6664  -29.4319   -9.4685 O   0  0  0  0  0  0  0  0  0  0  0  0
    2.7755  -30.3836  -10.3799 C   0  0  0  0  0  0  0  0  0  0  0  0
    2.1311  -31.1408  -11.4250 O   0  0  0  0  0  0  0  0  0  0  0  0
    4.0526  -31.1334   -9.9591 C   0  0  0  0  0  0  0  0  0  0  0  0
    4.7060  -30.5881   -8.7916 O   0  0  0  0  0  0  0  0  0  0  0  0
    3.8487  -30.4909   -7.6415 C   0  0  0  0  0  0  0  0  0  0  0  0
    3.5126  -27.8975   -7.6132 H   0  0  0  0  0  0  0  0  0  0  0  0
    0.9283  -28.5294   -9.7091 H   0  0  0  0  0  0  0  0  0  0  0  0
    1.9106  -32.0256  -11.0942 H   0  0  0  0  0  0  0  0  0  0  0  0
    5.0361  -31.3020  -11.1151 C   0  0  0  0  0  0  0  0  0  0  0  0
    4.9931  -30.1203  -11.9073 O   0  0  0  0  0  0  0  0  0  0  0  0
    4.0920  -29.9872  -12.2407 H   0  0  0  0  0  0  0  0  0  0  0  0
    3.3429  -32.0809   -6.9729 S   0  0  0  0  0  0  0  0  0  0  0  0
    2.4621  -31.6337   -5.4925 C   0  0  0  0  0  0  0  0  0  0  0  0
    3.2841  -31.7455   -4.2001 C   0  0  0  0  0  0  0  0  0  0  0  0
    4.1474  -33.0131   -4.2854 C   0  0  0  0  0  0  0  0  0  0  0  0
    4.9521  -33.0953   -3.0475 N   0  0  0  0  0  0  0  0  0  0  0  0
    5.8698  -31.9518   -2.7156 C   0  0  0  0  0  0  0  0  0  0  0  0
    5.0181  -30.6881   -2.6689 C   0  0  0  0  0  0  0  0  0  0  0  0
    5.9113  -29.5679   -2.3869 O   0  0  0  0  0  0  0  0  0  0  0  0
    4.1907  -30.5251   -3.9529 C   0  0  0  0  0  0  0  0  0  0  0  0
    3.3832  -29.2961   -3.8532 O   0  0  0  0  0  0  0  0  0  0  0  0
    4.2998  -33.1943   -2.2696 H   0  0  0  0  0  0  0  0  0  0  0  0
    6.5822  -29.5057   -3.0846 H   0  0  0  0  0  0  0  0  0  0  0  0
    2.7786  -29.3669   -3.0980 H   0  0  0  0  0  0  0  0  0  0  0  0
 23 22  1  0  0  0
 21 22  1  0  0  0
 21 20  1  0  0  0
 22 24  1  0  0  0
 20 19  1  0  0  0
 24 25  1  0  0  0
 24 18  1  0  0  0
 19 18  1  0  0  0
 18 17  1  0  0  0
 17 16  1  0  0  0
 16  9  1  0  0  0
  9  8  1  0  0  0
  9  2  1  0  0  0
  8  7  1  0  0  0
  2  1  1  0  0  0
  2  3  1  0  0  0
  7 13  1  0  0  0
  7  5  1  0  0  0
  3  5  1  0  0  0
  3  4  1  0  0  0
  5  6  1  0  0  0
 13 14  1  0  0  0
  1 10  1  0  0  0
  4 11  1  0  0  0
  6 12  1  0  0  0
 20 26  1  0  0  0
 23 27  1  0  0  0
 25 28  1  0  0  0
 14 15  1  0  0  0
M  END
> <minimizedAffinity>
-6.79049

$$$$
5N0F_7K2_A_401


 28 29  0  0  0  0  0  0  0  0999 V2000
    2.3419  -30.8962   -4.3223 O   0  0  0  0  0  0  0  0  0  0  0  0
    3.5515  -31.4214   -4.9146 C   0  0  0  0  0  0  0  0  0  0  0  0
    3.1831  -32.2400   -6.1325 C   0  0  0  0  0  0  0  0  0  0  0  0
    2.3289  -33.3481   -5.7683 O   0  0  0  0  0  0  0  0  0  0  0  0
    2.5831  -31.3352   -7.2065 C   0  0  0  0  0  0  0  0  0  0  0  0
    2.4288  -32.0486   -8.4507 O   0  0  0  0  0  0  0  0  0  0  0  0
    3.5043  -30.1270   -7.4550 C   0  0  0  0  0  0  0  0  0  0  0  0
    3.8990  -29.4226   -6.2570 O   0  0  0  0  0  0  0  0  0  0  0  0
    4.5242  -30.2626   -5.2717 C   0  0  0  0  0  0  0  0  0  0  0  0
    2.5674  -30.3692   -3.5398 H   0  0  0  0  0  0  0  0  0  0  0  0
    1.5081  -33.0090   -5.3782 H   0  0  0  0  0  0  0  0  0  0  0  0
    3.2979  -32.3445   -8.7637 H   0  0  0  0  0  0  0  0  0  0  0  0
    2.9371  -29.1676   -8.4991 C   0  0  0  0  0  0  0  0  0  0  0  0
    1.5179  -29.2730   -8.4707 O   0  0  0  0  0  0  0  0  0  0  0  0
    1.2575  -30.1865   -8.6674 H   0  0  0  0  0  0  0  0  0  0  0  0
    6.1276  -30.9029   -5.7713 S   0  0  0  0  0  0  0  0  0  0  0  0
    6.8787  -31.3606   -4.2241 C   0  0  0  0  0  0  0  0  0  0  0  0
    6.2800  -30.6665   -2.9919 C   0  0  0  0  0  0  0  0  0  0  0  0
    5.6683  -31.7421   -2.0818 C   0  0  0  0  0  0  0  0  0  0  0  0
    5.1185  -31.0640   -0.8882 N   0  0  0  0  0  0  0  0  0  0  0  0
    6.0499  -30.2410   -0.0427 C   0  0  0  0  0  0  0  0  0  0  0  0
    6.6855  -29.1980   -0.9552 C   0  0  0  0  0  0  0  0  0  0  0  0
    7.6220  -28.4215   -0.1475 O   0  0  0  0  0  0  0  0  0  0  0  0
    7.3153  -29.8508   -2.1950 C   0  0  0  0  0  0  0  0  0  0  0  0
    7.9075  -28.8015   -3.0439 O   0  0  0  0  0  0  0  0  0  0  0  0
    4.3748  -30.4440   -1.2091 H   0  0  0  0  0  0  0  0  0  0  0  0
    8.2963  -29.0122    0.2230 H   0  0  0  0  0  0  0  0  0  0  0  0
    7.2132  -28.1882   -3.3315 H   0  0  0  0  0  0  0  0  0  0  0  0
 23 22  1  0  0  0
 21 22  1  0  0  0
 21 20  1  0  0  0
 22 24  1  0  0  0
 20 19  1  0  0  0
 24 25  1  0  0  0
 24 18  1  0  0  0
 19 18  1  0  0  0
 18 17  1  0  0  0
 17 16  1  0  0  0
 16  9  1  0  0  0
  9  8  1  0  0  0
  9  2  1  0  0  0
  8  7  1  0  0  0
  2  1  1  0  0  0
  2  3  1  0  0  0
  7 13  1  0  0  0
  7  5  1  0  0  0
  3  5  1  0  0  0
  3  4  1  0  0  0
  5  6  1  0  0  0
 13 14  1  0  0  0
  1 10  1  0  0  0
  4 11  1  0  0  0
  6 12  1  0  0  0
 20 26  1  0  0  0
 23 27  1  0  0  0
 25 28  1  0  0  0
 14 15  1  0  0  0
M  END
> <minimizedAffinity>
-6.75557

$$$$
5N0F_7K2_A_401


 28 29  0  0  0  0  0  0  0  0999 V2000
    4.1797  -33.1919   -3.2880 O   0  0  0  0  0  0  0  0  0  0  0  0
    4.4710  -32.3770   -4.4461 C   0  0  0  0  0  0  0  0  0  0  0  0
    4.1403  -30.9361   -4.1248 C   0  0  0  0  0  0  0  0  0  0  0  0
    2.7393  -30.7903   -3.7988 O   0  0  0  0  0  0  0  0  0  0  0  0
    5.0767  -30.4167   -3.0359 C   0  0  0  0  0  0  0  0  0  0  0  0
    4.9288  -28.9916   -2.8691 O   0  0  0  0  0  0  0  0  0  0  0  0
    6.5403  -30.7082   -3.4142 C   0  0  0  0  0  0  0  0  0  0  0  0
    6.7957  -32.0785   -3.7941 O   0  0  0  0  0  0  0  0  0  0  0  0
    5.9584  -32.5474   -4.8648 C   0  0  0  0  0  0  0  0  0  0  0  0
    4.3886  -34.1186   -3.4839 H   0  0  0  0  0  0  0  0  0  0  0  0
    2.5321  -31.3249   -3.0163 H   0  0  0  0  0  0  0  0  0  0  0  0
    5.1599  -28.5433   -3.6977 H   0  0  0  0  0  0  0  0  0  0  0  0
    7.5227  -30.2390   -2.3432 C   0  0  0  0  0  0  0  0  0  0  0  0
    7.9729  -28.9360   -2.6975 O   0  0  0  0  0  0  0  0  0  0  0  0
    8.4028  -28.9677   -3.5665 H   0  0  0  0  0  0  0  0  0  0  0  0
    6.2756  -31.7467   -6.4424 S   0  0  0  0  0  0  0  0  0  0  0  0
    4.8857  -32.2471   -7.4350 C   0  0  0  0  0  0  0  0  0  0  0  0
    4.2640  -31.1242   -8.2783 C   0  0  0  0  0  0  0  0  0  0  0  0
    4.6125  -31.3784   -9.7525 C   0  0  0  0  0  0  0  0  0  0  0  0
    3.9872  -30.3056  -10.5555 N   0  0  0  0  0  0  0  0  0  0  0  0
    2.4966  -30.1291  -10.4732 C   0  0  0  0  0  0  0  0  0  0  0  0
    2.1475  -29.9150   -9.0046 C   0  0  0  0  0  0  0  0  0  0  0  0
    0.6961  -29.7835   -8.9139 O   0  0  0  0  0  0  0  0  0  0  0  0
    2.7346  -31.0281   -8.1236 C   0  0  0  0  0  0  0  0  0  0  0  0
    2.3749  -30.7702   -6.7177 O   0  0  0  0  0  0  0  0  0  0  0  0
    4.4119  -29.4248  -10.2652 H   0  0  0  0  0  0  0  0  0  0  0  0
    0.2765  -30.5892   -9.2540 H   0  0  0  0  0  0  0  0  0  0  0  0
    2.7493  -29.9199   -6.4389 H   0  0  0  0  0  0  0  0  0  0  0  0
 23 22  1  0  0  0
 21 22  1  0  0  0
 21 20  1  0  0  0
 22 24  1  0  0  0
 20 19  1  0  0  0
 24 25  1  0  0  0
 24 18  1  0  0  0
 19 18  1  0  0  0
 18 17  1  0  0  0
 17 16  1  0  0  0
 16  9  1  0  0  0
  9  8  1  0  0  0
  9  2  1  0  0  0
  8  7  1  0  0  0
  2  1  1  0  0  0
  2  3  1  0  0  0
  7 13  1  0  0  0
  7  5  1  0  0  0
  3  5  1  0  0  0
  3  4  1  0  0  0
  5  6  1  0  0  0
 13 14  1  0  0  0
  1 10  1  0  0  0
  4 11  1  0  0  0
  6 12  1  0  0  0
 20 26  1  0  0  0
 23 27  1  0  0  0
 25 28  1  0  0  0
 14 15  1  0  0  0
M  END
> <minimizedAffinity>
-6.66239

$$$$
5N0F_7K2_A_401


 28 29  0  0  0  0  0  0  0  0999 V2000
    7.0399  -32.6128   -4.4237 O   0  0  0  0  0  0  0  0  0  0  0  0
    5.8453  -31.8070   -4.5404 C   0  0  0  0  0  0  0  0  0  0  0  0
    5.0648  -31.9009   -3.2478 C   0  0  0  0  0  0  0  0  0  0  0  0
    4.6753  -33.2673   -2.9803 O   0  0  0  0  0  0  0  0  0  0  0  0
    5.8590  -31.2600   -2.1117 C   0  0  0  0  0  0  0  0  0  0  0  0
    5.0495  -31.1402   -0.9239 O   0  0  0  0  0  0  0  0  0  0  0  0
    6.3248  -29.8510   -2.5215 C   0  0  0  0  0  0  0  0  0  0  0  0
    6.9929  -29.7933   -3.8012 O   0  0  0  0  0  0  0  0  0  0  0  0
    6.2179  -30.3372   -4.8833 C   0  0  0  0  0  0  0  0  0  0  0  0
    7.5479  -32.5592   -5.2483 H   0  0  0  0  0  0  0  0  0  0  0  0
    5.4687  -33.8179   -2.8896 H   0  0  0  0  0  0  0  0  0  0  0  0
    4.2856  -30.5718   -1.1092 H   0  0  0  0  0  0  0  0  0  0  0  0
    7.1545  -29.1729   -1.4334 C   0  0  0  0  0  0  0  0  0  0  0  0
    6.2588  -28.6212   -0.4746 O   0  0  0  0  0  0  0  0  0  0  0  0
    5.6744  -27.9805   -0.9092 H   0  0  0  0  0  0  0  0  0  0  0  0
    4.7494  -29.3801   -5.2810 S   0  0  0  0  0  0  0  0  0  0  0  0
    3.7982  -30.5001   -6.2852 C   0  0  0  0  0  0  0  0  0  0  0  0
    4.0256  -30.3548   -7.7971 C   0  0  0  0  0  0  0  0  0  0  0  0
    4.9650  -31.4807   -8.2542 C   0  0  0  0  0  0  0  0  0  0  0  0
    5.1552  -31.3449   -9.7144 N   0  0  0  0  0  0  0  0  0  0  0  0
    3.9408  -31.3899  -10.5995 C   0  0  0  0  0  0  0  0  0  0  0  0
    2.9922  -30.2967  -10.1205 C   0  0  0  0  0  0  0  0  0  0  0  0
    1.7930  -30.3623  -10.9510 O   0  0  0  0  0  0  0  0  0  0  0  0
    2.7206  -30.4147   -8.6131 C   0  0  0  0  0  0  0  0  0  0  0  0
    1.8066  -29.3339   -8.2020 O   0  0  0  0  0  0  0  0  0  0  0  0
    5.6140  -30.4485   -9.8769 H   0  0  0  0  0  0  0  0  0  0  0  0
    1.3844  -31.2374  -10.8603 H   0  0  0  0  0  0  0  0  0  0  0  0
    2.2211  -28.4750   -8.3791 H   0  0  0  0  0  0  0  0  0  0  0  0
 23 22  1  0  0  0
 21 22  1  0  0  0
 21 20  1  0  0  0
 22 24  1  0  0  0
 20 19  1  0  0  0
 24 25  1  0  0  0
 24 18  1  0  0  0
 19 18  1  0  0  0
 18 17  1  0  0  0
 17 16  1  0  0  0
 16  9  1  0  0  0
  9  8  1  0  0  0
  9  2  1  0  0  0
  8  7  1  0  0  0
  2  1  1  0  0  0
  2  3  1  0  0  0
  7 13  1  0  0  0
  7  5  1  0  0  0
  3  5  1  0  0  0
  3  4  1  0  0  0
  5  6  1  0  0  0
 13 14  1  0  0  0
  1 10  1  0  0  0
  4 11  1  0  0  0
  6 12  1  0  0  0
 20 26  1  0  0  0
 23 27  1  0  0  0
 25 28  1  0  0  0
 14 15  1  0  0  0
M  END
> <minimizedAffinity>
-6.38105

$$$$
5N0F_7K2_A_401


 28 29  0  0  0  0  0  0  0  0999 V2000
    4.4916  -29.2674   -1.8860 O   0  0  0  0  0  0  0  0  0  0  0  0
    5.0986  -29.2357   -3.1977 C   0  0  0  0  0  0  0  0  0  0  0  0
    6.4131  -29.9830   -3.1454 C   0  0  0  0  0  0  0  0  0  0  0  0
    7.3188  -29.3652   -2.2029 O   0  0  0  0  0  0  0  0  0  0  0  0
    6.1605  -31.4632   -2.8673 C   0  0  0  0  0  0  0  0  0  0  0  0
    7.3714  -32.2298   -3.0306 O   0  0  0  0  0  0  0  0  0  0  0  0
    5.1068  -32.0126   -3.8462 C   0  0  0  0  0  0  0  0  0  0  0  0
    3.8996  -31.2230   -3.9267 O   0  0  0  0  0  0  0  0  0  0  0  0
    4.1324  -29.8423   -4.2537 C   0  0  0  0  0  0  0  0  0  0  0  0
    3.6473  -28.7904   -1.9089 H   0  0  0  0  0  0  0  0  0  0  0  0
    6.9276  -29.3887   -1.3156 H   0  0  0  0  0  0  0  0  0  0  0  0
    7.6844  -32.1490   -3.9451 H   0  0  0  0  0  0  0  0  0  0  0  0
    4.7888  -33.4847   -3.5930 C   0  0  0  0  0  0  0  0  0  0  0  0
    3.3746  -33.6427   -3.6245 O   0  0  0  0  0  0  0  0  0  0  0  0
    2.9715  -33.0828   -2.9426 H   0  0  0  0  0  0  0  0  0  0  0  0
    4.7584  -29.5831   -5.9185 S   0  0  0  0  0  0  0  0  0  0  0  0
    3.6554  -30.5567   -6.9199 C   0  0  0  0  0  0  0  0  0  0  0  0
    3.9801  -30.5506   -8.4210 C   0  0  0  0  0  0  0  0  0  0  0  0
    5.1005  -31.5697   -8.6765 C   0  0  0  0  0  0  0  0  0  0  0  0
    5.3857  -31.5726  -10.1275 N   0  0  0  0  0  0  0  0  0  0  0  0
    4.2639  -31.8959  -11.0746 C   0  0  0  0  0  0  0  0  0  0  0  0
    3.1371  -30.9079  -10.7940 C   0  0  0  0  0  0  0  0  0  0  0  0
    2.0288  -31.2431  -11.6836 O   0  0  0  0  0  0  0  0  0  0  0  0
    2.7654  -30.8942   -9.3035 C   0  0  0  0  0  0  0  0  0  0  0  0
    1.6800  -29.9210   -9.0864 O   0  0  0  0  0  0  0  0  0  0  0  0
    5.7267  -30.6424  -10.3699 H   0  0  0  0  0  0  0  0  0  0  0  0
    1.7401  -32.1531  -11.5118 H   0  0  0  0  0  0  0  0  0  0  0  0
    1.9837  -29.0357   -9.3415 H   0  0  0  0  0  0  0  0  0  0  0  0
 23 22  1  0  0  0
 21 22  1  0  0  0
 21 20  1  0  0  0
 22 24  1  0  0  0
 20 19  1  0  0  0
 24 25  1  0  0  0
 24 18  1  0  0  0
 19 18  1  0  0  0
 18 17  1  0  0  0
 17 16  1  0  0  0
 16  9  1  0  0  0
  9  8  1  0  0  0
  9  2  1  0  0  0
  8  7  1  0  0  0
  2  1  1  0  0  0
  2  3  1  0  0  0
  7 13  1  0  0  0
  7  5  1  0  0  0
  3  5  1  0  0  0
  3  4  1  0  0  0
  5  6  1  0  0  0
 13 14  1  0  0  0
  1 10  1  0  0  0
  4 11  1  0  0  0
  6 12  1  0  0  0
 20 26  1  0  0  0
 23 27  1  0  0  0
 25 28  1  0  0  0
 14 15  1  0  0  0
M  END
> <minimizedAffinity>
-6.09599

$$$$
