2W08_TPO_A_500


 17 16  0  0  0  0  0  0  0  0999 V2000
   18.4561   16.3840   56.7668 C   0  0  0  0  0  0  0  0  0  0  0  0
   19.8322   16.7544   57.3243 C   0  0  0  0  0  0  0  0  0  0  0  0
   16.6607   15.8079   58.3315 N   0  0  0  0  0  0  0  0  0  0  0  0
   17.3385   16.9267   57.6597 C   0  0  0  0  0  0  0  0  0  0  0  0
   17.3337   15.2956   58.9015 H   0  0  0  0  0  0  0  0  0  0  0  0
   16.2621   15.1823   57.6314 H   0  0  0  0  0  0  0  0  0  0  0  0
   16.3299   17.6959   56.8044 C   0  0  0  0  0  0  0  0  0  0  0  0
   16.5514   17.7483   55.5747 O   0  0  0  0  0  0  0  0  0  0  0  0
   15.3739   18.2038   57.3760 O   0  0  0  0  0  0  0  0  0  0  0  0
   15.2829   18.1167   58.3045 H   0  0  0  0  0  0  0  0  0  0  0  0
   18.3194   14.9656   56.6391 O   0  0  0  0  0  0  0  0  0  0  0  0
   17.6452   14.3378   55.3180 P   0  0  0  0  0  0  0  0  0  0  0  0
   16.0531   14.2574   55.5991 O   0  0  0  0  0  0  0  0  0  0  0  0
   18.2069   13.0202   54.9271 O   0  0  0  0  0  0  0  0  0  0  0  0
   17.8106   15.4386   54.1428 O   0  0  0  0  0  0  0  0  0  0  0  0
   18.0891   12.3897   55.6547 H   0  0  0  0  0  0  0  0  0  0  0  0
   17.4330   16.2829   54.4351 H   0  0  0  0  0  0  0  0  0  0  0  0
  3  4  1  0  0  0
  4  1  1  0  0  0
  4  7  1  0  0  0
  1  2  1  0  0  0
  1 11  1  0  0  0
 11 12  1  0  0  0
 12 13  2  0  0  0
 12 14  1  0  0  0
 12 15  1  0  0  0
  7  8  2  0  0  0
  7  9  1  0  0  0
  3  5  1  0  0  0
  3  6  1  0  0  0
 14 16  1  0  0  0
 15 17  1  0  0  0
  9 10  1  0  0  0
M  END
> <minimizedAffinity>
-5.37171

$$$$
2W08_TPO_A_500


 17 16  0  0  0  0  0  0  0  0999 V2000
   18.9087   16.4010   56.6447 C   0  0  0  0  0  0  0  0  0  0  0  0
   20.4235   16.4279   56.8603 C   0  0  0  0  0  0  0  0  0  0  0  0
   18.8825   16.9358   59.0357 N   0  0  0  0  0  0  0  0  0  0  0  0
   18.1826   17.1542   57.7611 C   0  0  0  0  0  0  0  0  0  0  0  0
   19.8403   17.2784   58.9607 H   0  0  0  0  0  0  0  0  0  0  0  0
   18.8939   15.9388   59.2508 H   0  0  0  0  0  0  0  0  0  0  0  0
   16.7458   16.6406   57.8726 C   0  0  0  0  0  0  0  0  0  0  0  0
   15.8708   17.2565   57.2252 O   0  0  0  0  0  0  0  0  0  0  0  0
   16.5477   15.6623   58.5813 O   0  0  0  0  0  0  0  0  0  0  0  0
   17.2624   15.2591   59.0336 H   0  0  0  0  0  0  0  0  0  0  0  0
   18.4236   15.0566   56.5815 O   0  0  0  0  0  0  0  0  0  0  0  0
   17.6245   14.5498   55.2782 P   0  0  0  0  0  0  0  0  0  0  0  0
   18.1314   13.0426   54.9761 O   0  0  0  0  0  0  0  0  0  0  0  0
   17.7817   15.4355   54.0970 O   0  0  0  0  0  0  0  0  0  0  0  0
   16.0735   14.3934   55.7145 O   0  0  0  0  0  0  0  0  0  0  0  0
   18.7216   15.5039   53.8670 H   0  0  0  0  0  0  0  0  0  0  0  0
   16.0122   13.8096   56.4868 H   0  0  0  0  0  0  0  0  0  0  0  0
  3  4  1  0  0  0
  4  1  1  0  0  0
  4  7  1  0  0  0
  1  2  1  0  0  0
  1 11  1  0  0  0
 11 12  1  0  0  0
 12 13  2  0  0  0
 12 14  1  0  0  0
 12 15  1  0  0  0
  7  8  2  0  0  0
  7  9  1  0  0  0
  3  5  1  0  0  0
  3  6  1  0  0  0
 14 16  1  0  0  0
 15 17  1  0  0  0
  9 10  1  0  0  0
M  END
> <minimizedAffinity>
-5.28474

$$$$
2W08_TPO_A_500


 17 16  0  0  0  0  0  0  0  0999 V2000
   18.7953   15.8654   56.5365 C   0  0  0  0  0  0  0  0  0  0  0  0
   20.3132   16.0106   56.6651 C   0  0  0  0  0  0  0  0  0  0  0  0
   17.6870   16.4968   54.4445 N   0  0  0  0  0  0  0  0  0  0  0  0
   18.4053   15.4112   55.1285 C   0  0  0  0  0  0  0  0  0  0  0  0
   18.2898   17.3173   54.3829 H   0  0  0  0  0  0  0  0  0  0  0  0
   16.8453   16.7319   54.9705 H   0  0  0  0  0  0  0  0  0  0  0  0
   17.5020   14.1799   55.2214 C   0  0  0  0  0  0  0  0  0  0  0  0
   18.0357   13.0675   55.0172 O   0  0  0  0  0  0  0  0  0  0  0  0
   16.3222   14.3625   55.4925 O   0  0  0  0  0  0  0  0  0  0  0  0
   16.0025   15.2323   55.6309 H   0  0  0  0  0  0  0  0  0  0  0  0
   18.1347   17.0973   56.8412 O   0  0  0  0  0  0  0  0  0  0  0  0
   16.7696   17.0886   57.6959 P   0  0  0  0  0  0  0  0  0  0  0  0
   15.5514   17.1387   56.6312 O   0  0  0  0  0  0  0  0  0  0  0  0
   16.6803   18.1846   58.6934 O   0  0  0  0  0  0  0  0  0  0  0  0
   16.6637   15.6297   58.3892 O   0  0  0  0  0  0  0  0  0  0  0  0
   16.7475   19.0399   58.2409 H   0  0  0  0  0  0  0  0  0  0  0  0
   16.7260   14.9424   57.7075 H   0  0  0  0  0  0  0  0  0  0  0  0
  3  4  1  0  0  0
  4  1  1  0  0  0
  4  7  1  0  0  0
  1  2  1  0  0  0
  1 11  1  0  0  0
 11 12  1  0  0  0
 12 13  2  0  0  0
 12 14  1  0  0  0
 12 15  1  0  0  0
  7  8  2  0  0  0
  7  9  1  0  0  0
  3  5  1  0  0  0
  3  6  1  0  0  0
 14 16  1  0  0  0
 15 17  1  0  0  0
  9 10  1  0  0  0
M  END
> <minimizedAffinity>
-5.27829

$$$$
2W08_TPO_A_500


 17 16  0  0  0  0  0  0  0  0999 V2000
   18.3130   16.5813   56.7804 C   0  0  0  0  0  0  0  0  0  0  0  0
   19.7235   17.0695   57.1177 C   0  0  0  0  0  0  0  0  0  0  0  0
   16.7095   15.7566   58.4395 N   0  0  0  0  0  0  0  0  0  0  0  0
   17.3209   16.9705   57.8783 C   0  0  0  0  0  0  0  0  0  0  0  0
   17.4373   15.1605   58.8337 H   0  0  0  0  0  0  0  0  0  0  0  0
   16.2184   15.2512   57.7021 H   0  0  0  0  0  0  0  0  0  0  0  0
   16.2301   17.8654   57.2866 C   0  0  0  0  0  0  0  0  0  0  0  0
   15.5949   17.4149   56.3081 O   0  0  0  0  0  0  0  0  0  0  0  0
   16.0480   18.9571   57.8098 O   0  0  0  0  0  0  0  0  0  0  0  0
   16.5702   19.2184   58.5426 H   0  0  0  0  0  0  0  0  0  0  0  0
   18.2913   15.1625   56.5981 O   0  0  0  0  0  0  0  0  0  0  0  0
   17.4436   14.5193   55.3891 P   0  0  0  0  0  0  0  0  0  0  0  0
   17.7143   15.4413   54.0864 O   0  0  0  0  0  0  0  0  0  0  0  0
   15.9942   14.3818   55.6802 O   0  0  0  0  0  0  0  0  0  0  0  0
   18.1295   13.0937   55.0463 O   0  0  0  0  0  0  0  0  0  0  0  0
   15.6204   15.2543   55.8802 H   0  0  0  0  0  0  0  0  0  0  0  0
   19.0729   13.2246   54.8625 H   0  0  0  0  0  0  0  0  0  0  0  0
  3  4  1  0  0  0
  4  1  1  0  0  0
  4  7  1  0  0  0
  1  2  1  0  0  0
  1 11  1  0  0  0
 11 12  1  0  0  0
 12 13  2  0  0  0
 12 14  1  0  0  0
 12 15  1  0  0  0
  7  8  2  0  0  0
  7  9  1  0  0  0
  3  5  1  0  0  0
  3  6  1  0  0  0
 14 16  1  0  0  0
 15 17  1  0  0  0
  9 10  1  0  0  0
M  END
> <minimizedAffinity>
-5.24131

$$$$
2W08_TPO_A_500


 17 16  0  0  0  0  0  0  0  0999 V2000
   17.6406   14.6712   55.3561 C   0  0  0  0  0  0  0  0  0  0  0  0
   17.6140   13.1668   55.6353 C   0  0  0  0  0  0  0  0  0  0  0  0
   19.8477   15.4940   54.6813 N   0  0  0  0  0  0  0  0  0  0  0  0
   18.5603   14.9938   54.1766 C   0  0  0  0  0  0  0  0  0  0  0  0
   20.2828   14.7818   55.2678 H   0  0  0  0  0  0  0  0  0  0  0  0
   19.6922   16.3388   55.2313 H   0  0  0  0  0  0  0  0  0  0  0  0
   17.9067   16.0612   53.2969 C   0  0  0  0  0  0  0  0  0  0  0  0
   17.9175   15.8639   52.0620 O   0  0  0  0  0  0  0  0  0  0  0  0
   17.4142   17.0322   53.8566 O   0  0  0  0  0  0  0  0  0  0  0  0
   17.4496   17.1027   54.7902 H   0  0  0  0  0  0  0  0  0  0  0  0
   18.0703   15.3994   56.5101 O   0  0  0  0  0  0  0  0  0  0  0  0
   17.0148   16.2896   57.3392 P   0  0  0  0  0  0  0  0  0  0  0  0
   17.5424   17.8186   57.2767 O   0  0  0  0  0  0  0  0  0  0  0  0
   16.8098   15.8299   58.7359 O   0  0  0  0  0  0  0  0  0  0  0  0
   15.6352   16.2849   56.4923 O   0  0  0  0  0  0  0  0  0  0  0  0
   17.6563   15.8466   59.2093 H   0  0  0  0  0  0  0  0  0  0  0  0
   15.8097   16.5904   55.5883 H   0  0  0  0  0  0  0  0  0  0  0  0
  3  4  1  0  0  0
  4  1  1  0  0  0
  4  7  1  0  0  0
  1  2  1  0  0  0
  1 11  1  0  0  0
 11 12  1  0  0  0
 12 13  2  0  0  0
 12 14  1  0  0  0
 12 15  1  0  0  0
  7  8  2  0  0  0
  7  9  1  0  0  0
  3  5  1  0  0  0
  3  6  1  0  0  0
 14 16  1  0  0  0
 15 17  1  0  0  0
  9 10  1  0  0  0
M  END
> <minimizedAffinity>
-5.19941

$$$$
2W08_TPO_A_500


 17 16  0  0  0  0  0  0  0  0999 V2000
   16.3763   18.9884   57.3564 C   0  0  0  0  0  0  0  0  0  0  0  0
   16.6313   19.4889   58.7798 C   0  0  0  0  0  0  0  0  0  0  0  0
   14.6193   20.6883   57.5202 N   0  0  0  0  0  0  0  0  0  0  0  0
   15.4914   19.9669   56.5814 C   0  0  0  0  0  0  0  0  0  0  0  0
   15.1919   21.2033   58.1890 H   0  0  0  0  0  0  0  0  0  0  0  0
   14.0310   20.0210   58.0191 H   0  0  0  0  0  0  0  0  0  0  0  0
   14.6334   19.1941   55.5777 C   0  0  0  0  0  0  0  0  0  0  0  0
   15.0493   19.1384   54.3997 O   0  0  0  0  0  0  0  0  0  0  0  0
   13.6029   18.6794   55.9921 O   0  0  0  0  0  0  0  0  0  0  0  0
   13.3637   18.7698   56.8936 H   0  0  0  0  0  0  0  0  0  0  0  0
   15.7621   17.6964   57.3695 O   0  0  0  0  0  0  0  0  0  0  0  0
   16.6688   16.3729   57.2269 P   0  0  0  0  0  0  0  0  0  0  0  0
   18.1509   16.8653   56.8015 O   0  0  0  0  0  0  0  0  0  0  0  0
   16.1224   15.3719   56.2762 O   0  0  0  0  0  0  0  0  0  0  0  0
   16.8389   15.7623   58.7164 O   0  0  0  0  0  0  0  0  0  0  0  0
   16.0353   15.7740   55.3978 H   0  0  0  0  0  0  0  0  0  0  0  0
   17.1970   16.4440   59.3063 H   0  0  0  0  0  0  0  0  0  0  0  0
  3  4  1  0  0  0
  4  1  1  0  0  0
  4  7  1  0  0  0
  1  2  1  0  0  0
  1 11  1  0  0  0
 11 12  1  0  0  0
 12 13  2  0  0  0
 12 14  1  0  0  0
 12 15  1  0  0  0
  7  8  2  0  0  0
  7  9  1  0  0  0
  3  5  1  0  0  0
  3  6  1  0  0  0
 14 16  1  0  0  0
 15 17  1  0  0  0
  9 10  1  0  0  0
M  END
> <minimizedAffinity>
-5.18230

$$$$
2W08_TPO_A_500


 17 16  0  0  0  0  0  0  0  0999 V2000
   18.6233   17.8306   57.8162 C   0  0  0  0  0  0  0  0  0  0  0  0
   18.6143   19.2836   57.3362 C   0  0  0  0  0  0  0  0  0  0  0  0
   20.2371   15.9945   57.6501 N   0  0  0  0  0  0  0  0  0  0  0  0
   20.0458   17.3683   58.1383 C   0  0  0  0  0  0  0  0  0  0  0  0
   20.0908   15.9688   56.6410 H   0  0  0  0  0  0  0  0  0  0  0  0
   19.5676   15.3751   58.1067 H   0  0  0  0  0  0  0  0  0  0  0  0
   20.2650   17.4080   59.6518 C   0  0  0  0  0  0  0  0  0  0  0  0
   21.2685   18.0300   60.0641 O   0  0  0  0  0  0  0  0  0  0  0  0
   19.4454   16.8349   60.3577 O   0  0  0  0  0  0  0  0  0  0  0  0
   18.7192   16.3906   59.9663 H   0  0  0  0  0  0  0  0  0  0  0  0
   18.0496   16.9626   56.8343 O   0  0  0  0  0  0  0  0  0  0  0  0
   16.8781   15.9390   57.2510 P   0  0  0  0  0  0  0  0  0  0  0  0
   17.3935   14.4550   56.8605 O   0  0  0  0  0  0  0  0  0  0  0  0
   15.5636   16.2499   56.6348 O   0  0  0  0  0  0  0  0  0  0  0  0
   16.8053   15.9479   58.8681 O   0  0  0  0  0  0  0  0  0  0  0  0
   15.6477   16.2350   55.6686 H   0  0  0  0  0  0  0  0  0  0  0  0
   17.6803   15.7412   59.2323 H   0  0  0  0  0  0  0  0  0  0  0  0
  3  4  1  0  0  0
  4  1  1  0  0  0
  4  7  1  0  0  0
  1  2  1  0  0  0
  1 11  1  0  0  0
 11 12  1  0  0  0
 12 13  2  0  0  0
 12 14  1  0  0  0
 12 15  1  0  0  0
  7  8  2  0  0  0
  7  9  1  0  0  0
  3  5  1  0  0  0
  3  6  1  0  0  0
 14 16  1  0  0  0
 15 17  1  0  0  0
  9 10  1  0  0  0
M  END
> <minimizedAffinity>
-5.06038

$$$$
2W08_TPO_A_500


 17 16  0  0  0  0  0  0  0  0999 V2000
   16.1139   18.4450   56.5376 C   0  0  0  0  0  0  0  0  0  0  0  0
   16.4387   18.9231   57.9545 C   0  0  0  0  0  0  0  0  0  0  0  0
   13.7383   18.6848   55.9876 N   0  0  0  0  0  0  0  0  0  0  0  0
   15.0531   19.3358   55.8880 C   0  0  0  0  0  0  0  0  0  0  0  0
   13.5051   18.5382   56.9697 H   0  0  0  0  0  0  0  0  0  0  0  0
   13.7668   17.7856   55.5070 H   0  0  0  0  0  0  0  0  0  0  0  0
   15.4039   19.5562   54.4152 C   0  0  0  0  0  0  0  0  0  0  0  0
   14.5776   19.1519   53.5681 O   0  0  0  0  0  0  0  0  0  0  0  0
   16.4635   20.1151   54.1633 O   0  0  0  0  0  0  0  0  0  0  0  0
   17.0271   20.3872   54.8606 H   0  0  0  0  0  0  0  0  0  0  0  0
   15.6589   17.0886   56.5458 O   0  0  0  0  0  0  0  0  0  0  0  0
   16.6888   15.8962   56.8797 P   0  0  0  0  0  0  0  0  0  0  0  0
   16.4221   14.7295   55.7899 O   0  0  0  0  0  0  0  0  0  0  0  0
   16.5876   15.3893   58.2715 O   0  0  0  0  0  0  0  0  0  0  0  0
   18.1712   16.4541   56.5456 O   0  0  0  0  0  0  0  0  0  0  0  0
   15.6879   15.0648   58.4328 H   0  0  0  0  0  0  0  0  0  0  0  0
   18.1972   16.7753   55.6307 H   0  0  0  0  0  0  0  0  0  0  0  0
  3  4  1  0  0  0
  4  1  1  0  0  0
  4  7  1  0  0  0
  1  2  1  0  0  0
  1 11  1  0  0  0
 11 12  1  0  0  0
 12 13  2  0  0  0
 12 14  1  0  0  0
 12 15  1  0  0  0
  7  8  2  0  0  0
  7  9  1  0  0  0
  3  5  1  0  0  0
  3  6  1  0  0  0
 14 16  1  0  0  0
 15 17  1  0  0  0
  9 10  1  0  0  0
M  END
> <minimizedAffinity>
-4.91580

$$$$
2W08_TPO_A_500


 17 16  0  0  0  0  0  0  0  0999 V2000
   16.3682   17.7363   56.9921 C   0  0  0  0  0  0  0  0  0  0  0  0
   17.6879   18.3492   57.4658 C   0  0  0  0  0  0  0  0  0  0  0  0
   16.6858   15.7525   58.3947 N   0  0  0  0  0  0  0  0  0  0  0  0
   16.4323   16.2079   57.0197 C   0  0  0  0  0  0  0  0  0  0  0  0
   15.9325   16.0729   59.0033 H   0  0  0  0  0  0  0  0  0  0  0  0
   17.5730   16.1353   58.7215 H   0  0  0  0  0  0  0  0  0  0  0  0
   17.5616   15.7278   56.1060 C   0  0  0  0  0  0  0  0  0  0  0  0
   18.5454   15.1860   56.6559 O   0  0  0  0  0  0  0  0  0  0  0  0
   17.4273   15.9005   54.9015 O   0  0  0  0  0  0  0  0  0  0  0  0
   16.6556   16.3167   54.5710 H   0  0  0  0  0  0  0  0  0  0  0  0
   16.0433   18.1771   55.6704 O   0  0  0  0  0  0  0  0  0  0  0  0
   14.8737   19.2618   55.4484 P   0  0  0  0  0  0  0  0  0  0  0  0
   14.6350   19.3714   53.8512 O   0  0  0  0  0  0  0  0  0  0  0  0
   15.1596   20.5846   56.0589 O   0  0  0  0  0  0  0  0  0  0  0  0
   13.5140   18.6068   56.0338 O   0  0  0  0  0  0  0  0  0  0  0  0
   15.9790   20.9435   55.6839 H   0  0  0  0  0  0  0  0  0  0  0  0
   13.3619   17.7466   55.6121 H   0  0  0  0  0  0  0  0  0  0  0  0
  3  4  1  0  0  0
  4  1  1  0  0  0
  4  7  1  0  0  0
  1  2  1  0  0  0
  1 11  1  0  0  0
 11 12  1  0  0  0
 12 13  2  0  0  0
 12 14  1  0  0  0
 12 15  1  0  0  0
  7  8  2  0  0  0
  7  9  1  0  0  0
  3  5  1  0  0  0
  3  6  1  0  0  0
 14 16  1  0  0  0
 15 17  1  0  0  0
  9 10  1  0  0  0
M  END
> <minimizedAffinity>
-4.83386

$$$$
2W08_TPO_A_500


 17 16  0  0  0  0  0  0  0  0999 V2000
   18.1065   16.8874   55.2875 C   0  0  0  0  0  0  0  0  0  0  0  0
   17.9333   18.0506   54.3085 C   0  0  0  0  0  0  0  0  0  0  0  0
   17.4780   15.6294   53.2810 N   0  0  0  0  0  0  0  0  0  0  0  0
   18.2310   15.5571   54.5419 C   0  0  0  0  0  0  0  0  0  0  0  0
   17.8545   16.3806   52.7027 H   0  0  0  0  0  0  0  0  0  0  0  0
   16.4954   15.8150   53.4820 H   0  0  0  0  0  0  0  0  0  0  0  0
   17.6671   14.4307   55.4101 C   0  0  0  0  0  0  0  0  0  0  0  0
   18.4864   13.7688   56.0842 O   0  0  0  0  0  0  0  0  0  0  0  0
   16.4558   14.2543   55.3919 O   0  0  0  0  0  0  0  0  0  0  0  0
   15.9113   14.7974   54.8565 H   0  0  0  0  0  0  0  0  0  0  0  0
   17.0098   16.8207   56.2037 O   0  0  0  0  0  0  0  0  0  0  0  0
   17.2814   16.8826   57.7901 P   0  0  0  0  0  0  0  0  0  0  0  0
   16.4926   18.1809   58.3488 O   0  0  0  0  0  0  0  0  0  0  0  0
   18.7214   16.9104   58.1507 O   0  0  0  0  0  0  0  0  0  0  0  0
   16.5188   15.6128   58.4430 O   0  0  0  0  0  0  0  0  0  0  0  0
   19.1422   17.6830   57.7421 H   0  0  0  0  0  0  0  0  0  0  0  0
   15.5838   15.6297   58.1854 H   0  0  0  0  0  0  0  0  0  0  0  0
  3  4  1  0  0  0
  4  1  1  0  0  0
  4  7  1  0  0  0
  1  2  1  0  0  0
  1 11  1  0  0  0
 11 12  1  0  0  0
 12 13  2  0  0  0
 12 14  1  0  0  0
 12 15  1  0  0  0
  7  8  2  0  0  0
  7  9  1  0  0  0
  3  5  1  0  0  0
  3  6  1  0  0  0
 14 16  1  0  0  0
 15 17  1  0  0  0
  9 10  1  0  0  0
M  END
> <minimizedAffinity>
-4.70200

$$$$
