5NE5_KIF_A_501


 21 22  0  0  0  0  0  0  0  0999 V2000
   23.9980   18.5601   47.7315 C   0  0  0  0  0  0  0  0  0  0  0  0
   23.1158   18.1110   46.6854 O   0  0  0  0  0  0  0  0  0  0  0  0
   25.0915   17.4865   47.9752 C   0  0  0  0  0  0  0  0  0  0  0  0
   25.8320   17.7459   49.1946 O   0  0  0  0  0  0  0  0  0  0  0  0
   26.1402   17.4544   46.8384 C   0  0  0  0  0  0  0  0  0  0  0  0
   27.1548   16.5125   47.2211 O   0  0  0  0  0  0  0  0  0  0  0  0
   26.7286   18.8549   46.6582 C   0  0  0  0  0  0  0  0  0  0  0  0
   27.5755   18.9948   45.4407 N   0  0  0  0  0  0  0  0  0  0  0  0
   27.0385   19.8640   44.5902 C   0  0  0  0  0  0  0  0  0  0  0  0
   27.5093   20.1676   43.4651 O   0  0  0  0  0  0  0  0  0  0  0  0
   25.7616   20.4002   45.1594 C   0  0  0  0  0  0  0  0  0  0  0  0
   25.0171   21.2401   44.6593 O   0  0  0  0  0  0  0  0  0  0  0  0
   25.6535   19.8130   46.3914 N   0  0  0  0  0  0  0  0  0  0  0  0
   24.5470   19.9394   47.3723 C   0  0  0  0  0  0  0  0  0  0  0  0
   23.6157   18.0156   45.8596 H   0  0  0  0  0  0  0  0  0  0  0  0
   26.2998   18.5919   49.1150 H   0  0  0  0  0  0  0  0  0  0  0  0
   27.5466   16.7845   48.0657 H   0  0  0  0  0  0  0  0  0  0  0  0
   28.4183   18.5096   45.2869 H   0  0  0  0  0  0  0  0  0  0  0  0
   24.9610   20.7211   48.6173 C   0  0  0  0  0  0  0  0  0  0  0  0
   25.5332   22.0041   48.3222 O   0  0  0  0  0  0  0  0  0  0  0  0
   26.3431   21.8851   47.8019 H   0  0  0  0  0  0  0  0  0  0  0  0
  1  2  1  0  0  0
  1  3  1  0  0  0
  1 14  1  0  0  0
  3  4  1  0  0  0
  3  5  1  0  0  0
  5  6  1  0  0  0
  5  7  1  0  0  0
  7  8  1  0  0  0
  7 13  1  0  0  0
  8  9  1  0  0  0
  9 10  2  0  0  0
  9 11  1  0  0  0
 11 12  2  0  0  0
 11 13  1  0  0  0
 13 14  1  0  0  0
 14 19  1  0  0  0
 19 20  1  0  0  0
  2 15  1  0  0  0
  4 16  1  0  0  0
  6 17  1  0  0  0
  8 18  1  0  0  0
 20 21  1  0  0  0
M  END
> <minimizedAffinity>
-7.73573

$$$$
5NE5_KIF_A_501


 21 22  0  0  0  0  0  0  0  0999 V2000
   23.7364   18.8997   45.5748 C   0  0  0  0  0  0  0  0  0  0  0  0
   23.1130   18.0019   46.5126 O   0  0  0  0  0  0  0  0  0  0  0  0
   24.1531   20.2007   46.3108 C   0  0  0  0  0  0  0  0  0  0  0  0
   24.5235   21.2468   45.3776 O   0  0  0  0  0  0  0  0  0  0  0  0
   25.3853   19.9859   47.2212 C   0  0  0  0  0  0  0  0  0  0  0  0
   25.7467   21.2679   47.7586 O   0  0  0  0  0  0  0  0  0  0  0  0
   26.5263   19.3950   46.3911 C   0  0  0  0  0  0  0  0  0  0  0  0
   27.6815   18.9307   47.2089 N   0  0  0  0  0  0  0  0  0  0  0  0
   27.8418   17.6159   47.0946 C   0  0  0  0  0  0  0  0  0  0  0  0
   28.7147   16.9344   47.6891 O   0  0  0  0  0  0  0  0  0  0  0  0
   26.7968   17.0604   46.1774 C   0  0  0  0  0  0  0  0  0  0  0  0
   26.6602   15.8916   45.8237 O   0  0  0  0  0  0  0  0  0  0  0  0
   26.0844   18.1512   45.7567 N   0  0  0  0  0  0  0  0  0  0  0  0
   24.8895   18.1810   44.8771 C   0  0  0  0  0  0  0  0  0  0  0  0
   23.7536   17.7536   47.1973 H   0  0  0  0  0  0  0  0  0  0  0  0
   25.3001   20.9660   44.8687 H   0  0  0  0  0  0  0  0  0  0  0  0
   25.9378   21.8810   47.0317 H   0  0  0  0  0  0  0  0  0  0  0  0
   28.2491   19.5175   47.7591 H   0  0  0  0  0  0  0  0  0  0  0  0
   25.1893   18.7941   43.5108 C   0  0  0  0  0  0  0  0  0  0  0  0
   24.0546   19.4380   42.9121 O   0  0  0  0  0  0  0  0  0  0  0  0
   23.3539   18.7843   42.7618 H   0  0  0  0  0  0  0  0  0  0  0  0
  1  2  1  0  0  0
  1  3  1  0  0  0
  1 14  1  0  0  0
  3  4  1  0  0  0
  3  5  1  0  0  0
  5  6  1  0  0  0
  5  7  1  0  0  0
  7  8  1  0  0  0
  7 13  1  0  0  0
  8  9  1  0  0  0
  9 10  2  0  0  0
  9 11  1  0  0  0
 11 12  2  0  0  0
 11 13  1  0  0  0
 13 14  1  0  0  0
 14 19  1  0  0  0
 19 20  1  0  0  0
  2 15  1  0  0  0
  4 16  1  0  0  0
  6 17  1  0  0  0
  8 18  1  0  0  0
 20 21  1  0  0  0
M  END
> <minimizedAffinity>
-7.32768

$$$$
5NE5_KIF_A_501


 21 22  0  0  0  0  0  0  0  0999 V2000
   27.0568   18.3009   47.0781 C   0  0  0  0  0  0  0  0  0  0  0  0
   27.4932   19.6726   47.0324 O   0  0  0  0  0  0  0  0  0  0  0  0
   25.8980   18.1661   48.1013 C   0  0  0  0  0  0  0  0  0  0  0  0
   25.6086   16.7771   48.4003 O   0  0  0  0  0  0  0  0  0  0  0  0
   24.5775   18.7715   47.5692 C   0  0  0  0  0  0  0  0  0  0  0  0
   23.5584   18.4924   48.5420 O   0  0  0  0  0  0  0  0  0  0  0  0
   24.2406   18.1343   46.2200 C   0  0  0  0  0  0  0  0  0  0  0  0
   23.1186   18.8054   45.5060 N   0  0  0  0  0  0  0  0  0  0  0  0
   23.5400   19.3428   44.3654 C   0  0  0  0  0  0  0  0  0  0  0  0
   22.8286   19.9981   43.5627 O   0  0  0  0  0  0  0  0  0  0  0  0
   25.0050   19.0826   44.1986 C   0  0  0  0  0  0  0  0  0  0  0  0
   25.7174   19.4096   43.2524 O   0  0  0  0  0  0  0  0  0  0  0  0
   25.3534   18.3303   45.2882 N   0  0  0  0  0  0  0  0  0  0  0  0
   26.7006   17.8365   45.6673 C   0  0  0  0  0  0  0  0  0  0  0  0
   26.7658   20.2332   46.7200 H   0  0  0  0  0  0  0  0  0  0  0  0
   25.3083   16.3287   47.5943 H   0  0  0  0  0  0  0  0  0  0  0  0
   23.4891   17.5336   48.6717 H   0  0  0  0  0  0  0  0  0  0  0  0
   22.1913   18.8456   45.8342 H   0  0  0  0  0  0  0  0  0  0  0  0
   26.8243   16.3208   45.5266 C   0  0  0  0  0  0  0  0  0  0  0  0
   27.8001   15.7431   46.4068 O   0  0  0  0  0  0  0  0  0  0  0  0
   28.6767   16.1017   46.1976 H   0  0  0  0  0  0  0  0  0  0  0  0
  1  2  1  0  0  0
  1  3  1  0  0  0
  1 14  1  0  0  0
  3  4  1  0  0  0
  3  5  1  0  0  0
  5  6  1  0  0  0
  5  7  1  0  0  0
  7  8  1  0  0  0
  7 13  1  0  0  0
  8  9  1  0  0  0
  9 10  2  0  0  0
  9 11  1  0  0  0
 11 12  2  0  0  0
 11 13  1  0  0  0
 13 14  1  0  0  0
 14 19  1  0  0  0
 19 20  1  0  0  0
  2 15  1  0  0  0
  4 16  1  0  0  0
  6 17  1  0  0  0
  8 18  1  0  0  0
 20 21  1  0  0  0
M  END
> <minimizedAffinity>
-7.23741

$$$$
5NE5_KIF_A_501


 21 22  0  0  0  0  0  0  0  0999 V2000
   25.6663   16.9108   47.9784 C   0  0  0  0  0  0  0  0  0  0  0  0
   24.7487   15.8298   47.7258 O   0  0  0  0  0  0  0  0  0  0  0  0
   26.8005   16.8776   46.9200 C   0  0  0  0  0  0  0  0  0  0  0  0
   27.8965   17.7542   47.2843 O   0  0  0  0  0  0  0  0  0  0  0  0
   26.3156   17.3562   45.5311 C   0  0  0  0  0  0  0  0  0  0  0  0
   27.4630   17.3909   44.6679 O   0  0  0  0  0  0  0  0  0  0  0  0
   25.6878   18.7443   45.6691 C   0  0  0  0  0  0  0  0  0  0  0  0
   24.9789   19.2038   44.4423 N   0  0  0  0  0  0  0  0  0  0  0  0
   23.6788   19.3523   44.6768 C   0  0  0  0  0  0  0  0  0  0  0  0
   22.8207   19.7008   43.8269 O   0  0  0  0  0  0  0  0  0  0  0  0
   23.3823   19.0024   46.1021 C   0  0  0  0  0  0  0  0  0  0  0  0
   22.2942   19.0505   46.6708 O   0  0  0  0  0  0  0  0  0  0  0  0
   24.6004   18.7007   46.6493 N   0  0  0  0  0  0  0  0  0  0  0  0
   24.8948   18.2281   48.0250 C   0  0  0  0  0  0  0  0  0  0  0  0
   24.3361   15.9524   46.8566 H   0  0  0  0  0  0  0  0  0  0  0  0
   27.5817   18.6713   47.3114 H   0  0  0  0  0  0  0  0  0  0  0  0
   28.1310   17.9867   45.0417 H   0  0  0  0  0  0  0  0  0  0  0  0
   25.4139   19.3744   43.5757 H   0  0  0  0  0  0  0  0  0  0  0  0
   25.6275   19.2795   48.8558 C   0  0  0  0  0  0  0  0  0  0  0  0
   26.4361   18.7196   49.9014 O   0  0  0  0  0  0  0  0  0  0  0  0
   25.8706   18.2361   50.5237 H   0  0  0  0  0  0  0  0  0  0  0  0
  1  2  1  0  0  0
  1  3  1  0  0  0
  1 14  1  0  0  0
  3  4  1  0  0  0
  3  5  1  0  0  0
  5  6  1  0  0  0
  5  7  1  0  0  0
  7  8  1  0  0  0
  7 13  1  0  0  0
  8  9  1  0  0  0
  9 10  2  0  0  0
  9 11  1  0  0  0
 11 12  2  0  0  0
 11 13  1  0  0  0
 13 14  1  0  0  0
 14 19  1  0  0  0
 19 20  1  0  0  0
  2 15  1  0  0  0
  4 16  1  0  0  0
  6 17  1  0  0  0
  8 18  1  0  0  0
 20 21  1  0  0  0
M  END
> <minimizedAffinity>
-7.12832

$$$$
5NE5_KIF_A_501


 21 22  0  0  0  0  0  0  0  0999 V2000
   25.2572   19.9371   47.7825 C   0  0  0  0  0  0  0  0  0  0  0  0
   24.9132   21.3356   47.7724 O   0  0  0  0  0  0  0  0  0  0  0  0
   23.9575   19.0898   47.7532 C   0  0  0  0  0  0  0  0  0  0  0  0
   24.2229   17.6948   48.0459 O   0  0  0  0  0  0  0  0  0  0  0  0
   23.2788   19.1120   46.3632 C   0  0  0  0  0  0  0  0  0  0  0  0
   22.1598   18.2134   46.4211 O   0  0  0  0  0  0  0  0  0  0  0  0
   24.2886   18.6667   45.3040 C   0  0  0  0  0  0  0  0  0  0  0  0
   23.8175   18.8722   43.9059 N   0  0  0  0  0  0  0  0  0  0  0  0
   24.5871   19.7528   43.2737 C   0  0  0  0  0  0  0  0  0  0  0  0
   24.4203   20.1503   42.0930 O   0  0  0  0  0  0  0  0  0  0  0  0
   25.6645   20.2319   44.1965 C   0  0  0  0  0  0  0  0  0  0  0  0
   26.5666   21.0260   43.9408 O   0  0  0  0  0  0  0  0  0  0  0  0
   25.4719   19.5282   45.3550 N   0  0  0  0  0  0  0  0  0  0  0  0
   26.2186   19.6447   46.6322 C   0  0  0  0  0  0  0  0  0  0  0  0
   24.4485   21.5483   46.9479 H   0  0  0  0  0  0  0  0  0  0  0  0
   24.8000   17.3245   47.3598 H   0  0  0  0  0  0  0  0  0  0  0  0
   22.4702   17.3252   46.6568 H   0  0  0  0  0  0  0  0  0  0  0  0
   23.0419   18.4177   43.5046 H   0  0  0  0  0  0  0  0  0  0  0  0
   27.0779   18.4147   46.9169 C   0  0  0  0  0  0  0  0  0  0  0  0
   27.7618   18.4748   48.1775 O   0  0  0  0  0  0  0  0  0  0  0  0
   28.3704   19.2302   48.1795 H   0  0  0  0  0  0  0  0  0  0  0  0
  1  2  1  0  0  0
  1  3  1  0  0  0
  1 14  1  0  0  0
  3  4  1  0  0  0
  3  5  1  0  0  0
  5  6  1  0  0  0
  5  7  1  0  0  0
  7  8  1  0  0  0
  7 13  1  0  0  0
  8  9  1  0  0  0
  9 10  2  0  0  0
  9 11  1  0  0  0
 11 12  2  0  0  0
 11 13  1  0  0  0
 13 14  1  0  0  0
 14 19  1  0  0  0
 19 20  1  0  0  0
  2 15  1  0  0  0
  4 16  1  0  0  0
  6 17  1  0  0  0
  8 18  1  0  0  0
 20 21  1  0  0  0
M  END
> <minimizedAffinity>
-7.10723

$$$$
5NE5_KIF_A_501


 21 22  0  0  0  0  0  0  0  0999 V2000
   24.7957   20.3433   46.1578 C   0  0  0  0  0  0  0  0  0  0  0  0
   25.5450   20.8236   47.2902 O   0  0  0  0  0  0  0  0  0  0  0  0
   25.6086   20.5976   44.8608 C   0  0  0  0  0  0  0  0  0  0  0  0
   24.7979   20.3992   43.6751 O   0  0  0  0  0  0  0  0  0  0  0  0
   26.8068   19.6286   44.7247 C   0  0  0  0  0  0  0  0  0  0  0  0
   27.4136   19.8781   43.4470 O   0  0  0  0  0  0  0  0  0  0  0  0
   26.3015   18.1881   44.8228 C   0  0  0  0  0  0  0  0  0  0  0  0
   27.3915   17.1794   44.9387 N   0  0  0  0  0  0  0  0  0  0  0  0
   27.3281   16.5490   46.1075 C   0  0  0  0  0  0  0  0  0  0  0  0
   28.1305   15.6661   46.5031 O   0  0  0  0  0  0  0  0  0  0  0  0
   26.1749   17.0790   46.9020 C   0  0  0  0  0  0  0  0  0  0  0  0
   25.8031   16.7100   48.0135 O   0  0  0  0  0  0  0  0  0  0  0  0
   25.5800   18.0012   46.0835 N   0  0  0  0  0  0  0  0  0  0  0  0
   24.4220   18.8796   46.3831 C   0  0  0  0  0  0  0  0  0  0  0  0
   26.3728   20.3236   47.3657 H   0  0  0  0  0  0  0  0  0  0  0  0
   24.5076   19.4747   43.6329 H   0  0  0  0  0  0  0  0  0  0  0  0
   26.7578   19.7415   42.7455 H   0  0  0  0  0  0  0  0  0  0  0  0
   28.0668   17.0034   44.2443 H   0  0  0  0  0  0  0  0  0  0  0  0
   23.1765   18.4892   45.5901 C   0  0  0  0  0  0  0  0  0  0  0  0
   22.0087   18.3194   46.4074 O   0  0  0  0  0  0  0  0  0  0  0  0
   22.1582   17.5985   47.0390 H   0  0  0  0  0  0  0  0  0  0  0  0
  1  2  1  0  0  0
  1  3  1  0  0  0
  1 14  1  0  0  0
  3  4  1  0  0  0
  3  5  1  0  0  0
  5  6  1  0  0  0
  5  7  1  0  0  0
  7  8  1  0  0  0
  7 13  1  0  0  0
  8  9  1  0  0  0
  9 10  2  0  0  0
  9 11  1  0  0  0
 11 12  2  0  0  0
 11 13  1  0  0  0
 13 14  1  0  0  0
 14 19  1  0  0  0
 19 20  1  0  0  0
  2 15  1  0  0  0
  4 16  1  0  0  0
  6 17  1  0  0  0
  8 18  1  0  0  0
 20 21  1  0  0  0
M  END
> <minimizedAffinity>
-7.09481

$$$$
5NE5_KIF_A_501


 21 22  0  0  0  0  0  0  0  0999 V2000
   26.0674   18.8804   47.3449 C   0  0  0  0  0  0  0  0  0  0  0  0
   26.2396   20.2998   47.5176 O   0  0  0  0  0  0  0  0  0  0  0  0
   24.5664   18.5228   47.5094 C   0  0  0  0  0  0  0  0  0  0  0  0
   24.3685   17.0914   47.6286 O   0  0  0  0  0  0  0  0  0  0  0  0
   23.7242   18.9694   46.2910 C   0  0  0  0  0  0  0  0  0  0  0  0
   22.3858   18.4918   46.5001 O   0  0  0  0  0  0  0  0  0  0  0  0
   24.3285   18.3752   45.0176 C   0  0  0  0  0  0  0  0  0  0  0  0
   23.7408   18.9256   43.7644 N   0  0  0  0  0  0  0  0  0  0  0  0
   24.6580   19.5853   43.0637 C   0  0  0  0  0  0  0  0  0  0  0  0
   24.4534   20.1828   41.9770 O   0  0  0  0  0  0  0  0  0  0  0  0
   25.9687   19.5428   43.7863 C   0  0  0  0  0  0  0  0  0  0  0  0
   27.0383   20.0233   43.4193 O   0  0  0  0  0  0  0  0  0  0  0  0
   25.7307   18.7813   44.8988 N   0  0  0  0  0  0  0  0  0  0  0  0
   26.6661   18.4580   46.0047 C   0  0  0  0  0  0  0  0  0  0  0  0
   25.7528   20.7714   46.8237 H   0  0  0  0  0  0  0  0  0  0  0  0
   24.6602   16.6556   46.8126 H   0  0  0  0  0  0  0  0  0  0  0  0
   22.3982   17.5266   46.5957 H   0  0  0  0  0  0  0  0  0  0  0  0
   22.8011   18.8158   43.4921 H   0  0  0  0  0  0  0  0  0  0  0  0
   27.0727   16.9859   46.0098 C   0  0  0  0  0  0  0  0  0  0  0  0
   27.3268   16.4679   47.3242 O   0  0  0  0  0  0  0  0  0  0  0  0
   28.0680   16.9495   47.7238 H   0  0  0  0  0  0  0  0  0  0  0  0
  1  2  1  0  0  0
  1  3  1  0  0  0
  1 14  1  0  0  0
  3  4  1  0  0  0
  3  5  1  0  0  0
  5  6  1  0  0  0
  5  7  1  0  0  0
  7  8  1  0  0  0
  7 13  1  0  0  0
  8  9  1  0  0  0
  9 10  2  0  0  0
  9 11  1  0  0  0
 11 12  2  0  0  0
 11 13  1  0  0  0
 13 14  1  0  0  0
 14 19  1  0  0  0
 19 20  1  0  0  0
  2 15  1  0  0  0
  4 16  1  0  0  0
  6 17  1  0  0  0
  8 18  1  0  0  0
 20 21  1  0  0  0
M  END
> <minimizedAffinity>
-7.05986

$$$$
5NE5_KIF_A_501


 21 22  0  0  0  0  0  0  0  0999 V2000
   24.1241   19.5743   47.5098 C   0  0  0  0  0  0  0  0  0  0  0  0
   24.5848   20.9306   47.6593 O   0  0  0  0  0  0  0  0  0  0  0  0
   23.1321   19.4988   46.3190 C   0  0  0  0  0  0  0  0  0  0  0  0
   22.4225   18.2346   46.2946 O   0  0  0  0  0  0  0  0  0  0  0  0
   23.8511   19.6103   44.9538 C   0  0  0  0  0  0  0  0  0  0  0  0
   22.8595   19.4166   43.9329 O   0  0  0  0  0  0  0  0  0  0  0  0
   24.9422   18.5414   44.8719 C   0  0  0  0  0  0  0  0  0  0  0  0
   25.8506   18.7035   43.7025 N   0  0  0  0  0  0  0  0  0  0  0  0
   27.0934   18.9549   44.1022 C   0  0  0  0  0  0  0  0  0  0  0  0
   28.0734   19.1665   43.3442 O   0  0  0  0  0  0  0  0  0  0  0  0
   27.1429   18.9870   45.5984 C   0  0  0  0  0  0  0  0  0  0  0  0
   28.1300   19.1654   46.3080 O   0  0  0  0  0  0  0  0  0  0  0  0
   25.8673   18.6909   45.9975 N   0  0  0  0  0  0  0  0  0  0  0  0
   25.3277   18.6432   47.3792 C   0  0  0  0  0  0  0  0  0  0  0  0
   25.0695   21.1971   46.8625 H   0  0  0  0  0  0  0  0  0  0  0  0
   23.0552   17.5112   46.1630 H   0  0  0  0  0  0  0  0  0  0  0  0
   22.4401   18.5498   44.0499 H   0  0  0  0  0  0  0  0  0  0  0  0
   25.5691   18.6340   42.7617 H   0  0  0  0  0  0  0  0  0  0  0  0
   24.9888   17.2212   47.8215 C   0  0  0  0  0  0  0  0  0  0  0  0
   26.1441   16.3893   48.0050 O   0  0  0  0  0  0  0  0  0  0  0  0
   26.6154   16.2999   47.1620 H   0  0  0  0  0  0  0  0  0  0  0  0
  1  2  1  0  0  0
  1  3  1  0  0  0
  1 14  1  0  0  0
  3  4  1  0  0  0
  3  5  1  0  0  0
  5  6  1  0  0  0
  5  7  1  0  0  0
  7  8  1  0  0  0
  7 13  1  0  0  0
  8  9  1  0  0  0
  9 10  2  0  0  0
  9 11  1  0  0  0
 11 12  2  0  0  0
 11 13  1  0  0  0
 13 14  1  0  0  0
 14 19  1  0  0  0
 19 20  1  0  0  0
  2 15  1  0  0  0
  4 16  1  0  0  0
  6 17  1  0  0  0
  8 18  1  0  0  0
 20 21  1  0  0  0
M  END
> <minimizedAffinity>
-7.03095

$$$$
5NE5_KIF_A_501


 21 22  0  0  0  0  0  0  0  0999 V2000
   24.9408   20.7789   45.9070 C   0  0  0  0  0  0  0  0  0  0  0  0
   25.9328   21.2054   44.9540 O   0  0  0  0  0  0  0  0  0  0  0  0
   23.9209   19.8461   45.2018 C   0  0  0  0  0  0  0  0  0  0  0  0
   22.7508   19.6140   46.0262 O   0  0  0  0  0  0  0  0  0  0  0  0
   24.5168   18.4497   44.9051 C   0  0  0  0  0  0  0  0  0  0  0  0
   23.4609   17.6428   44.3602 O   0  0  0  0  0  0  0  0  0  0  0  0
   25.0562   17.8474   46.2037 C   0  0  0  0  0  0  0  0  0  0  0  0
   25.8596   16.6098   45.9996 N   0  0  0  0  0  0  0  0  0  0  0  0
   27.1206   16.7989   46.3756 C   0  0  0  0  0  0  0  0  0  0  0  0
   28.0403   15.9459   46.2951 O   0  0  0  0  0  0  0  0  0  0  0  0
   27.2909   18.2000   46.8754 C   0  0  0  0  0  0  0  0  0  0  0  0
   28.3131   18.7118   47.3261 O   0  0  0  0  0  0  0  0  0  0  0  0
   26.0413   18.7538   46.7980 N   0  0  0  0  0  0  0  0  0  0  0  0
   25.6357   20.1466   47.1112 C   0  0  0  0  0  0  0  0  0  0  0  0
   26.4233   20.4336   44.6305 H   0  0  0  0  0  0  0  0  0  0  0  0
   23.0143   19.1569   46.8401 H   0  0  0  0  0  0  0  0  0  0  0  0
   22.7296   17.5952   44.9956 H   0  0  0  0  0  0  0  0  0  0  0  0
   25.5050   15.7665   45.6358 H   0  0  0  0  0  0  0  0  0  0  0  0
   24.7712   20.2312   48.3674 C   0  0  0  0  0  0  0  0  0  0  0  0
   25.4206   19.7247   49.5430 O   0  0  0  0  0  0  0  0  0  0  0  0
   25.6211   18.7835   49.4215 H   0  0  0  0  0  0  0  0  0  0  0  0
  1  2  1  0  0  0
  1  3  1  0  0  0
  1 14  1  0  0  0
  3  4  1  0  0  0
  3  5  1  0  0  0
  5  6  1  0  0  0
  5  7  1  0  0  0
  7  8  1  0  0  0
  7 13  1  0  0  0
  8  9  1  0  0  0
  9 10  2  0  0  0
  9 11  1  0  0  0
 11 12  2  0  0  0
 11 13  1  0  0  0
 13 14  1  0  0  0
 14 19  1  0  0  0
 19 20  1  0  0  0
  2 15  1  0  0  0
  4 16  1  0  0  0
  6 17  1  0  0  0
  8 18  1  0  0  0
 20 21  1  0  0  0
M  END
> <minimizedAffinity>
-6.82077

$$$$
5NE5_KIF_A_501


 21 22  0  0  0  0  0  0  0  0999 V2000
   25.1789   20.5286   44.2706 C   0  0  0  0  0  0  0  0  0  0  0  0
   26.0730   21.5080   44.8323 O   0  0  0  0  0  0  0  0  0  0  0  0
   25.8648   19.8445   43.0585 C   0  0  0  0  0  0  0  0  0  0  0  0
   24.9223   19.0610   42.2838 O   0  0  0  0  0  0  0  0  0  0  0  0
   26.9770   18.8624   43.4963 C   0  0  0  0  0  0  0  0  0  0  0  0
   27.4602   18.2102   42.3114 O   0  0  0  0  0  0  0  0  0  0  0  0
   26.3931   17.8499   44.4832 C   0  0  0  0  0  0  0  0  0  0  0  0
   27.4220   17.0026   45.1484 N   0  0  0  0  0  0  0  0  0  0  0  0
   27.4419   17.2266   46.4586 C   0  0  0  0  0  0  0  0  0  0  0  0
   28.2231   16.6815   47.2787 O   0  0  0  0  0  0  0  0  0  0  0  0
   26.4157   18.2597   46.8072 C   0  0  0  0  0  0  0  0  0  0  0  0
   26.1404   18.6897   47.9248 O   0  0  0  0  0  0  0  0  0  0  0  0
   25.7984   18.5542   45.6213 N   0  0  0  0  0  0  0  0  0  0  0  0
   24.7374   19.5601   45.3661 C   0  0  0  0  0  0  0  0  0  0  0  0
   26.8701   21.0657   45.1636 H   0  0  0  0  0  0  0  0  0  0  0  0
   24.5702   18.3431   42.8331 H   0  0  0  0  0  0  0  0  0  0  0  0
   26.7266   17.7519   41.8725 H   0  0  0  0  0  0  0  0  0  0  0  0
   28.0074   16.3636   44.6813 H   0  0  0  0  0  0  0  0  0  0  0  0
   23.3926   18.9151   45.0375 C   0  0  0  0  0  0  0  0  0  0  0  0
   22.6385   19.6367   44.0521 O   0  0  0  0  0  0  0  0  0  0  0  0
   22.4329   20.5233   44.3876 H   0  0  0  0  0  0  0  0  0  0  0  0
  1  2  1  0  0  0
  1  3  1  0  0  0
  1 14  1  0  0  0
  3  4  1  0  0  0
  3  5  1  0  0  0
  5  6  1  0  0  0
  5  7  1  0  0  0
  7  8  1  0  0  0
  7 13  1  0  0  0
  8  9  1  0  0  0
  9 10  2  0  0  0
  9 11  1  0  0  0
 11 12  2  0  0  0
 11 13  1  0  0  0
 13 14  1  0  0  0
 14 19  1  0  0  0
 19 20  1  0  0  0
  2 15  1  0  0  0
  4 16  1  0  0  0
  6 17  1  0  0  0
  8 18  1  0  0  0
 20 21  1  0  0  0
M  END
> <minimizedAffinity>
-6.68667

$$$$
