4N7M_2GQ_A_401


 17 19  0  0  0  0  0  0  0  0999 V2000
  -23.4580  -30.2921    8.1216 O   0  0  0  0  0  0  0  0  0  0  0  0
  -24.2420  -29.6858    7.3833 C   0  0  0  0  0  0  0  0  0  0  0  0
  -23.8879  -29.1423    6.0556 C   0  0  0  0  0  0  0  0  0  0  0  0
  -22.5758  -29.2474    5.5744 C   0  0  0  0  0  0  0  0  0  0  0  0
  -22.2497  -28.7949    4.3035 C   0  0  0  0  0  0  0  0  0  0  0  0
  -25.5574  -29.5202    7.7554 N   0  0  0  0  0  0  0  0  0  0  0  0
  -26.4677  -28.9092    6.9468 C   0  0  0  0  0  0  0  0  0  0  0  0
  -26.2083  -28.4091    5.7265 C   0  0  0  0  0  0  0  0  0  0  0  0
  -24.8704  -28.5323    5.2340 C   0  0  0  0  0  0  0  0  0  0  0  0
  -24.5138  -28.0829    3.9510 C   0  0  0  0  0  0  0  0  0  0  0  0
  -23.2153  -28.2182    3.4966 C   0  0  0  0  0  0  0  0  0  0  0  0
  -25.8494  -29.8542    8.6343 H   0  0  0  0  0  0  0  0  0  0  0  0
  -27.6598  -28.8001    7.4112 N   0  0  0  0  0  0  0  0  0  0  0  0
  -28.8292  -28.4254    6.6313 C   0  0  0  0  0  0  0  0  0  0  0  0
  -29.9095  -28.2913    7.6635 C   0  0  0  0  0  0  0  0  0  0  0  0
  -29.1701  -28.0335    8.8492 C   0  0  0  0  0  0  0  0  0  0  0  0
  -28.0032  -28.9339    8.7871 C   0  0  0  0  0  0  0  0  0  0  0  0
 16 17  1  0  0  0
 16 15  1  0  0  0
 17 13  1  0  0  0
 15 14  1  0  0  0
 13 14  1  0  0  0
 13  7  1  0  0  0
  6  7  1  0  0  0
  6  2  1  0  0  0
  7  8  2  0  0  0
  1  2  2  0  0  0
  2  3  1  0  0  0
  8  9  1  0  0  0
  3  9  2  0  0  0
  3  4  1  0  0  0
  9 10  1  0  0  0
  4  5  2  0  0  0
 10 11  2  0  0  0
  5 11  1  0  0  0
  6 12  1  0  0  0
M  END
> <minimizedAffinity>
-8.03211

$$$$
4N7M_2GQ_A_401


 17 19  0  0  0  0  0  0  0  0999 V2000
  -28.0105  -28.4414    9.4109 O   0  0  0  0  0  0  0  0  0  0  0  0
  -27.5915  -28.6344    8.2643 C   0  0  0  0  0  0  0  0  0  0  0  0
  -28.4339  -28.6016    7.0507 C   0  0  0  0  0  0  0  0  0  0  0  0
  -29.8161  -28.3940    7.1535 C   0  0  0  0  0  0  0  0  0  0  0  0
  -30.6043  -28.3003    6.0150 C   0  0  0  0  0  0  0  0  0  0  0  0
  -26.2497  -28.8515    8.0439 N   0  0  0  0  0  0  0  0  0  0  0  0
  -25.7378  -29.0112    6.7917 C   0  0  0  0  0  0  0  0  0  0  0  0
  -26.4504  -28.9772    5.6525 C   0  0  0  0  0  0  0  0  0  0  0  0
  -27.8589  -28.7502    5.7623 C   0  0  0  0  0  0  0  0  0  0  0  0
  -28.6796  -28.6507    4.6257 C   0  0  0  0  0  0  0  0  0  0  0  0
  -30.0370  -28.4259    4.7586 C   0  0  0  0  0  0  0  0  0  0  0  0
  -25.6407  -28.8928    8.8163 H   0  0  0  0  0  0  0  0  0  0  0  0
  -24.4737  -29.2234    6.7156 N   0  0  0  0  0  0  0  0  0  0  0  0
  -23.6709  -29.0651    5.5128 C   0  0  0  0  0  0  0  0  0  0  0  0
  -22.3239  -29.5847    5.9207 C   0  0  0  0  0  0  0  0  0  0  0  0
  -22.6440  -30.4512    7.0005 C   0  0  0  0  0  0  0  0  0  0  0  0
  -23.6793  -29.7436    7.7773 C   0  0  0  0  0  0  0  0  0  0  0  0
 16 17  1  0  0  0
 16 15  1  0  0  0
 17 13  1  0  0  0
 15 14  1  0  0  0
 13 14  1  0  0  0
 13  7  1  0  0  0
  6  7  1  0  0  0
  6  2  1  0  0  0
  7  8  2  0  0  0
  1  2  2  0  0  0
  2  3  1  0  0  0
  8  9  1  0  0  0
  3  9  2  0  0  0
  3  4  1  0  0  0
  9 10  1  0  0  0
  4  5  2  0  0  0
 10 11  2  0  0  0
  5 11  1  0  0  0
  6 12  1  0  0  0
M  END
> <minimizedAffinity>
-7.93351

$$$$
4N7M_2GQ_A_401


 17 19  0  0  0  0  0  0  0  0999 V2000
  -29.2825  -28.1315    9.6807 O   0  0  0  0  0  0  0  0  0  0  0  0
  -29.0964  -28.2424    8.4639 C   0  0  0  0  0  0  0  0  0  0  0  0
  -27.7791  -28.4830    7.8391 C   0  0  0  0  0  0  0  0  0  0  0  0
  -26.6222  -28.5462    8.6276 C   0  0  0  0  0  0  0  0  0  0  0  0
  -25.3906  -28.8330    8.0557 C   0  0  0  0  0  0  0  0  0  0  0  0
  -30.1613  -28.1936    7.5924 N   0  0  0  0  0  0  0  0  0  0  0  0
  -30.0076  -28.3687    6.2502 C   0  0  0  0  0  0  0  0  0  0  0  0
  -28.8398  -28.6041    5.6277 C   0  0  0  0  0  0  0  0  0  0  0  0
  -27.6639  -28.6823    6.4393 C   0  0  0  0  0  0  0  0  0  0  0  0
  -26.4049  -28.9717    5.8856 C   0  0  0  0  0  0  0  0  0  0  0  0
  -25.2849  -29.0467    6.6921 C   0  0  0  0  0  0  0  0  0  0  0  0
  -31.0629  -28.0268    7.9508 H   0  0  0  0  0  0  0  0  0  0  0  0
  -31.0733  -28.2851    5.5389 N   0  0  0  0  0  0  0  0  0  0  0  0
  -31.5552  -29.3152    4.6317 C   0  0  0  0  0  0  0  0  0  0  0  0
  -32.7187  -28.6612    3.9466 C   0  0  0  0  0  0  0  0  0  0  0  0
  -32.4176  -27.2793    4.0836 C   0  0  0  0  0  0  0  0  0  0  0  0
  -31.8965  -27.1257    5.4552 C   0  0  0  0  0  0  0  0  0  0  0  0
 16 17  1  0  0  0
 16 15  1  0  0  0
 17 13  1  0  0  0
 15 14  1  0  0  0
 13 14  1  0  0  0
 13  7  1  0  0  0
  6  7  1  0  0  0
  6  2  1  0  0  0
  7  8  2  0  0  0
  1  2  2  0  0  0
  2  3  1  0  0  0
  8  9  1  0  0  0
  3  9  2  0  0  0
  3  4  1  0  0  0
  9 10  1  0  0  0
  4  5  2  0  0  0
 10 11  2  0  0  0
  5 11  1  0  0  0
  6 12  1  0  0  0
M  END
> <minimizedAffinity>
-7.90476

$$$$
4N7M_2GQ_A_401


 17 19  0  0  0  0  0  0  0  0999 V2000
  -24.6817  -28.2389    4.3571 O   0  0  0  0  0  0  0  0  0  0  0  0
  -25.8239  -28.4596    4.7745 C   0  0  0  0  0  0  0  0  0  0  0  0
  -26.1569  -28.7448    6.1856 C   0  0  0  0  0  0  0  0  0  0  0  0
  -25.1424  -28.8346    7.1484 C   0  0  0  0  0  0  0  0  0  0  0  0
  -25.4519  -29.0407    8.4855 C   0  0  0  0  0  0  0  0  0  0  0  0
  -26.8991  -28.4006    3.9162 N   0  0  0  0  0  0  0  0  0  0  0  0
  -28.1794  -28.5802    4.3455 C   0  0  0  0  0  0  0  0  0  0  0  0
  -28.5439  -28.8277    5.6153 C   0  0  0  0  0  0  0  0  0  0  0  0
  -27.5053  -28.9038    6.5967 C   0  0  0  0  0  0  0  0  0  0  0  0
  -27.7913  -29.1111    7.9570 C   0  0  0  0  0  0  0  0  0  0  0  0
  -26.7700  -29.1757    8.8862 C   0  0  0  0  0  0  0  0  0  0  0  0
  -26.7373  -28.2230    2.9615 H   0  0  0  0  0  0  0  0  0  0  0  0
  -29.0954  -28.5178    3.4479 N   0  0  0  0  0  0  0  0  0  0  0  0
  -28.8570  -28.4004    2.0176 C   0  0  0  0  0  0  0  0  0  0  0  0
  -30.2317  -28.2072    1.4488 C   0  0  0  0  0  0  0  0  0  0  0  0
  -30.9501  -27.6804    2.5558 C   0  0  0  0  0  0  0  0  0  0  0  0
  -30.4912  -28.4542    3.7250 C   0  0  0  0  0  0  0  0  0  0  0  0
 16 17  1  0  0  0
 16 15  1  0  0  0
 17 13  1  0  0  0
 15 14  1  0  0  0
 13 14  1  0  0  0
 13  7  1  0  0  0
  6  7  1  0  0  0
  6  2  1  0  0  0
  7  8  2  0  0  0
  1  2  2  0  0  0
  2  3  1  0  0  0
  8  9  1  0  0  0
  3  9  2  0  0  0
  3  4  1  0  0  0
  9 10  1  0  0  0
  4  5  2  0  0  0
 10 11  2  0  0  0
  5 11  1  0  0  0
  6 12  1  0  0  0
M  END
> <minimizedAffinity>
-7.82172

$$$$
4N7M_2GQ_A_401


 17 19  0  0  0  0  0  0  0  0999 V2000
  -28.8743  -28.8538    4.7047 O   0  0  0  0  0  0  0  0  0  0  0  0
  -27.6700  -28.6891    4.9288 C   0  0  0  0  0  0  0  0  0  0  0  0
  -27.0407  -28.8319    6.2581 C   0  0  0  0  0  0  0  0  0  0  0  0
  -27.8228  -29.1210    7.3845 C   0  0  0  0  0  0  0  0  0  0  0  0
  -27.2320  -29.3175    8.6249 C   0  0  0  0  0  0  0  0  0  0  0  0
  -26.8062  -28.3986    3.8966 N   0  0  0  0  0  0  0  0  0  0  0  0
  -25.4643  -28.2662    4.0904 C   0  0  0  0  0  0  0  0  0  0  0  0
  -24.8346  -28.3985    5.2705 C   0  0  0  0  0  0  0  0  0  0  0  0
  -25.6361  -28.7083    6.4146 C   0  0  0  0  0  0  0  0  0  0  0  0
  -25.0632  -28.9125    7.6816 C   0  0  0  0  0  0  0  0  0  0  0  0
  -25.8591  -29.2157    8.7703 C   0  0  0  0  0  0  0  0  0  0  0  0
  -27.1701  -28.2828    2.9892 H   0  0  0  0  0  0  0  0  0  0  0  0
  -24.7643  -27.9787    3.0531 N   0  0  0  0  0  0  0  0  0  0  0  0
  -23.3121  -27.8993    3.0209 C   0  0  0  0  0  0  0  0  0  0  0  0
  -23.0208  -27.3824    1.6429 C   0  0  0  0  0  0  0  0  0  0  0  0
  -24.2303  -26.7189    1.3026 C   0  0  0  0  0  0  0  0  0  0  0  0
  -25.3101  -27.5954    1.7944 C   0  0  0  0  0  0  0  0  0  0  0  0
 16 17  1  0  0  0
 16 15  1  0  0  0
 17 13  1  0  0  0
 15 14  1  0  0  0
 13 14  1  0  0  0
 13  7  1  0  0  0
  6  7  1  0  0  0
  6  2  1  0  0  0
  7  8  2  0  0  0
  1  2  2  0  0  0
  2  3  1  0  0  0
  8  9  1  0  0  0
  3  9  2  0  0  0
  3  4  1  0  0  0
  9 10  1  0  0  0
  4  5  2  0  0  0
 10 11  2  0  0  0
  5 11  1  0  0  0
  6 12  1  0  0  0
M  END
> <minimizedAffinity>
-7.79560

$$$$
4N7M_2GQ_A_401


 17 19  0  0  0  0  0  0  0  0999 V2000
  -30.4518  -28.3914    8.5973 O   0  0  0  0  0  0  0  0  0  0  0  0
  -29.8198  -28.4739    7.5384 C   0  0  0  0  0  0  0  0  0  0  0  0
  -28.3494  -28.5908    7.4504 C   0  0  0  0  0  0  0  0  0  0  0  0
  -27.5656  -28.5586    8.6117 C   0  0  0  0  0  0  0  0  0  0  0  0
  -26.1901  -28.7297    8.5423 C   0  0  0  0  0  0  0  0  0  0  0  0
  -30.4866  -28.5116    6.3342 N   0  0  0  0  0  0  0  0  0  0  0  0
  -29.8326  -28.6598    5.1484 C   0  0  0  0  0  0  0  0  0  0  0  0
  -28.5018  -28.7848    5.0072 C   0  0  0  0  0  0  0  0  0  0  0  0
  -27.7077  -28.7661    6.1973 C   0  0  0  0  0  0  0  0  0  0  0  0
  -26.3134  -28.9374    6.1550 C   0  0  0  0  0  0  0  0  0  0  0  0
  -25.5693  -28.9204    7.3198 C   0  0  0  0  0  0  0  0  0  0  0  0
  -31.4676  -28.4287    6.3301 H   0  0  0  0  0  0  0  0  0  0  0  0
  -30.5624  -28.6644    4.0919 N   0  0  0  0  0  0  0  0  0  0  0  0
  -31.9568  -29.0760    4.0414 C   0  0  0  0  0  0  0  0  0  0  0  0
  -32.2775  -29.0450    2.5762 C   0  0  0  0  0  0  0  0  0  0  0  0
  -30.9971  -29.1966    1.9790 C   0  0  0  0  0  0  0  0  0  0  0  0
  -30.0874  -28.3595    2.7840 C   0  0  0  0  0  0  0  0  0  0  0  0
 16 17  1  0  0  0
 16 15  1  0  0  0
 17 13  1  0  0  0
 15 14  1  0  0  0
 13 14  1  0  0  0
 13  7  1  0  0  0
  6  7  1  0  0  0
  6  2  1  0  0  0
  7  8  2  0  0  0
  1  2  2  0  0  0
  2  3  1  0  0  0
  8  9  1  0  0  0
  3  9  2  0  0  0
  3  4  1  0  0  0
  9 10  1  0  0  0
  4  5  2  0  0  0
 10 11  2  0  0  0
  5 11  1  0  0  0
  6 12  1  0  0  0
M  END
> <minimizedAffinity>
-7.65164

$$$$
4N7M_2GQ_A_401


 17 19  0  0  0  0  0  0  0  0999 V2000
  -24.4741  -29.6500    9.0434 O   0  0  0  0  0  0  0  0  0  0  0  0
  -24.9852  -29.3391    7.9619 C   0  0  0  0  0  0  0  0  0  0  0  0
  -26.4311  -29.1148    7.7552 C   0  0  0  0  0  0  0  0  0  0  0  0
  -27.3349  -29.3044    8.8094 C   0  0  0  0  0  0  0  0  0  0  0  0
  -28.6860  -29.0363    8.6401 C   0  0  0  0  0  0  0  0  0  0  0  0
  -24.1928  -29.1290    6.8555 N   0  0  0  0  0  0  0  0  0  0  0  0
  -24.7091  -28.7294    5.6599 C   0  0  0  0  0  0  0  0  0  0  0  0
  -26.0103  -28.4966    5.4162 C   0  0  0  0  0  0  0  0  0  0  0  0
  -26.9269  -28.6774    6.5000 C   0  0  0  0  0  0  0  0  0  0  0  0
  -28.2996  -28.4127    6.3555 C   0  0  0  0  0  0  0  0  0  0  0  0
  -29.1637  -28.5906    7.4196 C   0  0  0  0  0  0  0  0  0  0  0  0
  -23.2217  -29.2721    6.9310 H   0  0  0  0  0  0  0  0  0  0  0  0
  -23.8714  -28.5823    4.6980 N   0  0  0  0  0  0  0  0  0  0  0  0
  -22.4838  -29.0184    4.7245 C   0  0  0  0  0  0  0  0  0  0  0  0
  -21.9211  -28.4720    3.4456 C   0  0  0  0  0  0  0  0  0  0  0  0
  -22.7948  -27.3869    3.1655 C   0  0  0  0  0  0  0  0  0  0  0  0
  -24.1471  -27.8784    3.4908 C   0  0  0  0  0  0  0  0  0  0  0  0
 16 17  1  0  0  0
 16 15  1  0  0  0
 17 13  1  0  0  0
 15 14  1  0  0  0
 13 14  1  0  0  0
 13  7  1  0  0  0
  6  7  1  0  0  0
  6  2  1  0  0  0
  7  8  2  0  0  0
  1  2  2  0  0  0
  2  3  1  0  0  0
  8  9  1  0  0  0
  3  9  2  0  0  0
  3  4  1  0  0  0
  9 10  1  0  0  0
  4  5  2  0  0  0
 10 11  2  0  0  0
  5 11  1  0  0  0
  6 12  1  0  0  0
M  END
> <minimizedAffinity>
-7.62786

$$$$
4N7M_2GQ_A_401


 17 19  0  0  0  0  0  0  0  0999 V2000
  -25.5503  -28.2323    3.7541 O   0  0  0  0  0  0  0  0  0  0  0  0
  -26.5337  -28.4773    4.4616 C   0  0  0  0  0  0  0  0  0  0  0  0
  -26.4764  -28.7101    5.9197 C   0  0  0  0  0  0  0  0  0  0  0  0
  -25.2444  -28.7166    6.5879 C   0  0  0  0  0  0  0  0  0  0  0  0
  -25.1875  -28.8729    7.9657 C   0  0  0  0  0  0  0  0  0  0  0  0
  -27.7956  -28.4991    3.9110 N   0  0  0  0  0  0  0  0  0  0  0  0
  -28.9112  -28.7079    4.6645 C   0  0  0  0  0  0  0  0  0  0  0  0
  -28.9227  -28.9107    5.9931 C   0  0  0  0  0  0  0  0  0  0  0  0
  -27.6634  -28.9017    6.6726 C   0  0  0  0  0  0  0  0  0  0  0  0
  -27.5777  -29.0573    8.0667 C   0  0  0  0  0  0  0  0  0  0  0  0
  -26.3491  -29.0399    8.6999 C   0  0  0  0  0  0  0  0  0  0  0  0
  -27.8949  -28.3594    2.9416 H   0  0  0  0  0  0  0  0  0  0  0  0
  -30.0299  -28.7219    4.0345 N   0  0  0  0  0  0  0  0  0  0  0  0
  -31.3423  -28.7126    4.6620 C   0  0  0  0  0  0  0  0  0  0  0  0
  -32.2829  -28.8977    3.5080 C   0  0  0  0  0  0  0  0  0  0  0  0
  -31.4598  -29.5356    2.5412 C   0  0  0  0  0  0  0  0  0  0  0  0
  -30.1567  -28.8489    2.6214 C   0  0  0  0  0  0  0  0  0  0  0  0
 16 17  1  0  0  0
 16 15  1  0  0  0
 17 13  1  0  0  0
 15 14  1  0  0  0
 13 14  1  0  0  0
 13  7  1  0  0  0
  6  7  1  0  0  0
  6  2  1  0  0  0
  7  8  2  0  0  0
  1  2  2  0  0  0
  2  3  1  0  0  0
  8  9  1  0  0  0
  3  9  2  0  0  0
  3  4  1  0  0  0
  9 10  1  0  0  0
  4  5  2  0  0  0
 10 11  2  0  0  0
  5 11  1  0  0  0
  6 12  1  0  0  0
M  END
> <minimizedAffinity>
-7.58988

$$$$
4N7M_2GQ_A_401


 17 19  0  0  0  0  0  0  0  0999 V2000
  -26.7425  -28.9476    8.0907 O   0  0  0  0  0  0  0  0  0  0  0  0
  -26.5641  -28.8163    6.8748 C   0  0  0  0  0  0  0  0  0  0  0  0
  -27.6477  -28.7814    5.8708 C   0  0  0  0  0  0  0  0  0  0  0  0
  -28.9819  -28.9565    6.2624 C   0  0  0  0  0  0  0  0  0  0  0  0
  -30.0098  -28.8635    5.3346 C   0  0  0  0  0  0  0  0  0  0  0  0
  -25.2930  -28.6393    6.3757 N   0  0  0  0  0  0  0  0  0  0  0  0
  -25.0575  -28.4336    5.0498 C   0  0  0  0  0  0  0  0  0  0  0  0
  -26.0011  -28.3779    4.0943 C   0  0  0  0  0  0  0  0  0  0  0  0
  -27.3629  -28.5425    4.5017 C   0  0  0  0  0  0  0  0  0  0  0  0
  -28.4225  -28.4527    3.5827 C   0  0  0  0  0  0  0  0  0  0  0  0
  -29.7299  -28.6106    4.0027 C   0  0  0  0  0  0  0  0  0  0  0  0
  -24.5298  -28.6622    6.9971 H   0  0  0  0  0  0  0  0  0  0  0  0
  -23.8285  -28.2980    4.7037 N   0  0  0  0  0  0  0  0  0  0  0  0
  -23.3373  -27.3423    3.7230 C   0  0  0  0  0  0  0  0  0  0  0  0
  -21.8883  -27.7031    3.5786 C   0  0  0  0  0  0  0  0  0  0  0  0
  -21.8690  -29.0634    3.9889 C   0  0  0  0  0  0  0  0  0  0  0  0
  -22.7675  -29.1334    5.1568 C   0  0  0  0  0  0  0  0  0  0  0  0
 16 17  1  0  0  0
 16 15  1  0  0  0
 17 13  1  0  0  0
 15 14  1  0  0  0
 13 14  1  0  0  0
 13  7  1  0  0  0
  6  7  1  0  0  0
  6  2  1  0  0  0
  7  8  2  0  0  0
  1  2  2  0  0  0
  2  3  1  0  0  0
  8  9  1  0  0  0
  3  9  2  0  0  0
  3  4  1  0  0  0
  9 10  1  0  0  0
  4  5  2  0  0  0
 10 11  2  0  0  0
  5 11  1  0  0  0
  6 12  1  0  0  0
M  END
> <minimizedAffinity>
-7.56475

$$$$
4N7M_2GQ_A_401


 17 19  0  0  0  0  0  0  0  0999 V2000
  -26.9835  -28.0163    1.9175 O   0  0  0  0  0  0  0  0  0  0  0  0
  -26.1281  -28.0257    2.8096 C   0  0  0  0  0  0  0  0  0  0  0  0
  -26.4034  -28.3385    4.2273 C   0  0  0  0  0  0  0  0  0  0  0  0
  -27.7130  -28.5980    4.6539 C   0  0  0  0  0  0  0  0  0  0  0  0
  -27.9711  -28.9530    5.9705 C   0  0  0  0  0  0  0  0  0  0  0  0
  -24.8073  -27.7818    2.5062 N   0  0  0  0  0  0  0  0  0  0  0  0
  -23.8251  -27.8391    3.4483 C   0  0  0  0  0  0  0  0  0  0  0  0
  -24.0123  -28.1316    4.7468 C   0  0  0  0  0  0  0  0  0  0  0  0
  -25.3493  -28.4102    5.1740 C   0  0  0  0  0  0  0  0  0  0  0  0
  -25.6380  -28.7723    6.5009 C   0  0  0  0  0  0  0  0  0  0  0  0
  -26.9376  -29.0414    6.8872 C   0  0  0  0  0  0  0  0  0  0  0  0
  -24.5650  -27.5587    1.5784 H   0  0  0  0  0  0  0  0  0  0  0  0
  -22.6342  -27.5764    3.0467 N   0  0  0  0  0  0  0  0  0  0  0  0
  -22.2697  -26.4622    2.1853 C   0  0  0  0  0  0  0  0  0  0  0  0
  -20.8175  -26.7040    1.8965 C   0  0  0  0  0  0  0  0  0  0  0  0
  -20.6932  -28.1044    2.1030 C   0  0  0  0  0  0  0  0  0  0  0  0
  -21.4984  -28.3966    3.3041 C   0  0  0  0  0  0  0  0  0  0  0  0
 16 17  1  0  0  0
 16 15  1  0  0  0
 17 13  1  0  0  0
 15 14  1  0  0  0
 13 14  1  0  0  0
 13  7  1  0  0  0
  6  7  1  0  0  0
  6  2  1  0  0  0
  7  8  2  0  0  0
  1  2  2  0  0  0
  2  3  1  0  0  0
  8  9  1  0  0  0
  3  9  2  0  0  0
  3  4  1  0  0  0
  9 10  1  0  0  0
  4  5  2  0  0  0
 10 11  2  0  0  0
  5 11  1  0  0  0
  6 12  1  0  0  0
M  END
> <minimizedAffinity>
-7.47438

$$$$
