5E1S_5JA_A_1301


 40 45  0  0  0  0  0  0  0  0999 V2000
    5.5902   21.2926   17.9126 N   0  0  0  0  0  0  0  0  0  0  0  0
    5.6316   20.1332   15.4861 C   0  0  0  0  0  0  0  0  0  0  0  0
    6.6368   21.5104   17.1114 C   0  0  0  0  0  0  0  0  0  0  0  0
    6.6875   20.9281   15.8414 C   0  0  0  0  0  0  0  0  0  0  0  0
    8.5452   22.4882   15.0915 C   0  0  0  0  0  0  0  0  0  0  0  0
    8.6282   22.8996   16.5189 C   0  0  0  0  0  0  0  0  0  0  0  0
    8.9177   20.0672   15.1165 C   0  0  0  0  0  0  0  0  0  0  0  0
    4.6200   20.5000   17.4568 C   0  0  0  0  0  0  0  0  0  0  0  0
    4.5911   19.8987   16.2714 N   0  0  0  0  0  0  0  0  0  0  0  0
    7.8574   21.1436   14.9317 C   0  0  0  0  0  0  0  0  0  0  0  0
    8.1609   23.0441   18.6415 C   0  0  0  0  0  0  0  0  0  0  0  0
    7.7300   22.3970   17.4962 C   0  0  0  0  0  0  0  0  0  0  0  0
    9.4892   23.6708   16.9956 N   0  0  0  0  0  0  0  0  0  0  0  0
    9.2291   23.7709   18.2827 N   0  0  0  0  0  0  0  0  0  0  0  0
   10.0842   24.6099   19.1052 C   0  0  0  0  0  0  0  0  0  0  0  0
    7.9887   21.9005   20.8436 C   0  0  0  0  0  0  0  0  0  0  0  0
    7.5145   21.8409   22.1389 C   0  0  0  0  0  0  0  0  0  0  0  0
    6.7186   22.8348   22.6267 C   0  0  0  0  0  0  0  0  0  0  0  0
    6.8493   23.9661   20.5345 C   0  0  0  0  0  0  0  0  0  0  0  0
    7.6507   22.9614   20.0209 C   0  0  0  0  0  0  0  0  0  0  0  0
    6.3847   23.8926   21.8275 C   0  0  0  0  0  0  0  0  0  0  0  0
    3.5389   20.2545   18.2786 N   0  0  0  0  0  0  0  0  0  0  0  0
    2.7789   19.7843   17.8658 H   0  0  0  0  0  0  0  0  0  0  0  0
    4.2425   21.3225   20.4261 C   0  0  0  0  0  0  0  0  0  0  0  0
    2.5295   20.6557   21.5548 N   0  0  0  0  0  0  0  0  0  0  0  0
    3.6643   21.3547   21.6435 C   0  0  0  0  0  0  0  0  0  0  0  0
    3.3963   20.5872   19.6019 C   0  0  0  0  0  0  0  0  0  0  0  0
    2.3211   20.1819   20.3052 N   0  0  0  0  0  0  0  0  0  0  0  0
    1.5921   20.5008   22.6586 C   0  0  0  0  0  0  0  0  0  0  0  0
    0.6886   19.4053   22.4535 C   0  0  0  0  0  0  0  0  0  0  0  0
    0.9719   18.3163   23.3804 N   0  0  0  0  0  0  0  0  0  0  0  0
   -0.2708   17.6805   23.8430 C   0  0  0  0  0  0  0  0  0  0  0  0
    0.0230   16.6002   24.8723 C   0  0  0  0  0  0  0  0  0  0  0  0
    0.7941   17.1516   25.9905 N   0  0  0  0  0  0  0  0  0  0  0  0
    2.0368   17.7294   25.4965 C   0  0  0  0  0  0  0  0  0  0  0  0
    1.7407   18.8305   24.5086 C   0  0  0  0  0  0  0  0  0  0  0  0
    1.0450   16.1583   27.0402 C   0  0  0  0  0  0  0  0  0  0  0  0
    1.0433   14.7307   26.5430 C   0  0  0  0  0  0  0  0  0  0  0  0
    0.1001   13.9857   27.2776 O   0  0  0  0  0  0  0  0  0  0  0  0
   -0.6729   13.1334   26.4747 C   0  0  0  0  0  0  0  0  0  0  0  0
 10  7  1  0  0  0
 10  5  1  0  0  0
 10  4  1  0  0  0
  5  6  1  0  0  0
  2  4  2  0  0  0
  2  9  1  0  0  0
  4  3  1  0  0  0
  9  8  2  0  0  0
  6 13  2  0  0  0
  6 12  1  0  0  0
  3 12  1  0  0  0
  3  1  2  0  0  0
 13 14  1  0  0  0
  8  1  1  0  0  0
  8 22  1  0  0  0
 12 11  2  0  0  0
 22 27  1  0  0  0
 14 11  1  0  0  0
 14 15  1  0  0  0
 11 20  1  0  0  0
 27 28  2  0  0  0
 27 24  1  0  0  0
 28 25  1  0  0  0
 20 19  2  0  0  0
 20 16  1  0  0  0
 24 26  2  0  0  0
 19 21  1  0  0  0
 16 17  2  0  0  0
 25 26  1  0  0  0
 25 29  1  0  0  0
 21 18  2  0  0  0
 17 18  1  0  0  0
 29 30  1  0  0  0
 30 31  1  0  0  0
 31 36  1  0  0  0
 31 32  1  0  0  0
 36 35  1  0  0  0
 35 34  1  0  0  0
 32 33  1  0  0  0
 33 34  1  0  0  0
 34 37  1  0  0  0
 37 38  1  0  0  0
 38 39  1  0  0  0
 39 40  1  0  0  0
 22 23  1  0  0  0
M  END
> <minimizedAffinity>
-10.29239

$$$$
5E1S_5JA_A_1301


 40 45  0  0  0  0  0  0  0  0999 V2000
    5.5774   21.2820   17.9221 N   0  0  0  0  0  0  0  0  0  0  0  0
    5.6144   20.1543   15.4806 C   0  0  0  0  0  0  0  0  0  0  0  0
    6.6176   21.5185   17.1181 C   0  0  0  0  0  0  0  0  0  0  0  0
    6.6659   20.9530   15.8404 C   0  0  0  0  0  0  0  0  0  0  0  0
    8.5070   22.5374   15.1006 C   0  0  0  0  0  0  0  0  0  0  0  0
    8.5946   22.9311   16.5327 C   0  0  0  0  0  0  0  0  0  0  0  0
    8.8987   20.1193   15.0921 C   0  0  0  0  0  0  0  0  0  0  0  0
    4.6109   20.4876   17.4615 C   0  0  0  0  0  0  0  0  0  0  0  0
    4.5801   19.9014   16.2686 N   0  0  0  0  0  0  0  0  0  0  0  0
    7.8289   21.1896   14.9271 C   0  0  0  0  0  0  0  0  0  0  0  0
    8.1381   23.0444   18.6594 C   0  0  0  0  0  0  0  0  0  0  0  0
    7.7060   22.4088   17.5083 C   0  0  0  0  0  0  0  0  0  0  0  0
    9.4522   23.7029   17.0145 N   0  0  0  0  0  0  0  0  0  0  0  0
    9.1985   23.7843   18.3042 N   0  0  0  0  0  0  0  0  0  0  0  0
   10.0516   24.6194   19.1328 C   0  0  0  0  0  0  0  0  0  0  0  0
    7.9549   21.8513   20.8342 C   0  0  0  0  0  0  0  0  0  0  0  0
    7.4890   21.7711   22.1315 C   0  0  0  0  0  0  0  0  0  0  0  0
    6.7208   22.7712   22.6498 C   0  0  0  0  0  0  0  0  0  0  0  0
    6.8631   23.9504   20.5849 C   0  0  0  0  0  0  0  0  0  0  0  0
    7.6364   22.9399   20.0405 C   0  0  0  0  0  0  0  0  0  0  0  0
    6.4065   23.8561   21.8794 C   0  0  0  0  0  0  0  0  0  0  0  0
    3.5365   20.2229   18.2860 N   0  0  0  0  0  0  0  0  0  0  0  0
    2.7907   19.7251   17.8794 H   0  0  0  0  0  0  0  0  0  0  0  0
    4.2222   21.3148   20.4273 C   0  0  0  0  0  0  0  0  0  0  0  0
    2.4998   20.6606   21.5490 N   0  0  0  0  0  0  0  0  0  0  0  0
    3.6339   21.3605   21.6394 C   0  0  0  0  0  0  0  0  0  0  0  0
    3.3829   20.5703   19.6042 C   0  0  0  0  0  0  0  0  0  0  0  0
    2.3018   20.1728   20.3030 N   0  0  0  0  0  0  0  0  0  0  0  0
    1.5533   20.5180   22.6466 C   0  0  0  0  0  0  0  0  0  0  0  0
    0.9047   19.2382   22.6410 C   0  0  0  0  0  0  0  0  0  0  0  0
    1.0772   18.5616   23.9208 N   0  0  0  0  0  0  0  0  0  0  0  0
    0.1588   19.1048   24.9327 C   0  0  0  0  0  0  0  0  0  0  0  0
    0.3977   18.4551   26.2868 C   0  0  0  0  0  0  0  0  0  0  0  0
    1.7981   18.6109   26.6918 N   0  0  0  0  0  0  0  0  0  0  0  0
    2.6717   18.0196   25.6871 C   0  0  0  0  0  0  0  0  0  0  0  0
    2.4634   18.6963   24.3550 C   0  0  0  0  0  0  0  0  0  0  0  0
    2.0599   18.0550   28.0236 C   0  0  0  0  0  0  0  0  0  0  0  0
    2.1118   19.0946   29.1200 C   0  0  0  0  0  0  0  0  0  0  0  0
    3.3817   19.0628   29.7287 O   0  0  0  0  0  0  0  0  0  0  0  0
    3.5770   17.9307   30.5340 C   0  0  0  0  0  0  0  0  0  0  0  0
 10  7  1  0  0  0
 10  5  1  0  0  0
 10  4  1  0  0  0
  5  6  1  0  0  0
  2  4  2  0  0  0
  2  9  1  0  0  0
  4  3  1  0  0  0
  9  8  2  0  0  0
  6 13  2  0  0  0
  6 12  1  0  0  0
  3 12  1  0  0  0
  3  1  2  0  0  0
 13 14  1  0  0  0
  8  1  1  0  0  0
  8 22  1  0  0  0
 12 11  2  0  0  0
 22 27  1  0  0  0
 14 11  1  0  0  0
 14 15  1  0  0  0
 11 20  1  0  0  0
 27 28  2  0  0  0
 27 24  1  0  0  0
 28 25  1  0  0  0
 20 19  2  0  0  0
 20 16  1  0  0  0
 24 26  2  0  0  0
 19 21  1  0  0  0
 16 17  2  0  0  0
 25 26  1  0  0  0
 25 29  1  0  0  0
 21 18  2  0  0  0
 17 18  1  0  0  0
 29 30  1  0  0  0
 30 31  1  0  0  0
 31 36  1  0  0  0
 31 32  1  0  0  0
 36 35  1  0  0  0
 35 34  1  0  0  0
 32 33  1  0  0  0
 33 34  1  0  0  0
 34 37  1  0  0  0
 37 38  1  0  0  0
 38 39  1  0  0  0
 39 40  1  0  0  0
 22 23  1  0  0  0
M  END
> <minimizedAffinity>
-9.43280

$$$$
5E1S_5JA_A_1301


 40 45  0  0  0  0  0  0  0  0999 V2000
    5.6774   21.2707   17.7860 N   0  0  0  0  0  0  0  0  0  0  0  0
    5.7752   20.1038   15.3647 C   0  0  0  0  0  0  0  0  0  0  0  0
    6.7344   21.4996   17.0019 C   0  0  0  0  0  0  0  0  0  0  0  0
    6.8143   20.9138   15.7349 C   0  0  0  0  0  0  0  0  0  0  0  0
    8.6640   22.4956   15.0111 C   0  0  0  0  0  0  0  0  0  0  0  0
    8.7173   22.9129   16.4382 C   0  0  0  0  0  0  0  0  0  0  0  0
    9.0676   20.0798   15.0510 C   0  0  0  0  0  0  0  0  0  0  0  0
    4.7255   20.4639   17.3167 C   0  0  0  0  0  0  0  0  0  0  0  0
    4.7246   19.8583   16.1332 N   0  0  0  0  0  0  0  0  0  0  0  0
    7.9966   21.1415   14.8444 C   0  0  0  0  0  0  0  0  0  0  0  0
    8.2122   23.0583   18.5520 C   0  0  0  0  0  0  0  0  0  0  0  0
    7.8093   22.4018   17.4019 C   0  0  0  0  0  0  0  0  0  0  0  0
    9.5599   23.6969   16.9266 N   0  0  0  0  0  0  0  0  0  0  0  0
    9.2767   23.7979   18.2087 N   0  0  0  0  0  0  0  0  0  0  0  0
   10.1067   24.6508   19.0426 C   0  0  0  0  0  0  0  0  0  0  0  0
    8.0686   21.9558   20.7770 C   0  0  0  0  0  0  0  0  0  0  0  0
    7.5724   21.8945   22.0640 C   0  0  0  0  0  0  0  0  0  0  0  0
    6.7038   22.8450   22.5124 C   0  0  0  0  0  0  0  0  0  0  0  0
    6.8044   23.9351   20.3968 C   0  0  0  0  0  0  0  0  0  0  0  0
    7.6798   22.9736   19.9229 C   0  0  0  0  0  0  0  0  0  0  0  0
    6.3188   23.8606   21.6820 C   0  0  0  0  0  0  0  0  0  0  0  0
    3.6340   20.2070   18.1210 N   0  0  0  0  0  0  0  0  0  0  0  0
    2.8764   19.7493   17.6899 H   0  0  0  0  0  0  0  0  0  0  0  0
    4.4015   21.0278   20.3536 C   0  0  0  0  0  0  0  0  0  0  0  0
    2.5205   20.6862   21.3527 N   0  0  0  0  0  0  0  0  0  0  0  0
    3.7655   21.1333   21.5376 C   0  0  0  0  0  0  0  0  0  0  0  0
    3.4779   20.5130   19.4492 C   0  0  0  0  0  0  0  0  0  0  0  0
    2.3002   20.3116   20.0718 N   0  0  0  0  0  0  0  0  0  0  0  0
    1.5029   20.6867   22.3945 C   0  0  0  0  0  0  0  0  0  0  0  0
    2.0037   20.1864   23.6425 C   0  0  0  0  0  0  0  0  0  0  0  0
    1.5633   21.0223   24.7528 N   0  0  0  0  0  0  0  0  0  0  0  0
    0.1592   20.7491   25.0942 C   0  0  0  0  0  0  0  0  0  0  0  0
   -0.3220   21.6795   26.1967 C   0  0  0  0  0  0  0  0  0  0  0  0
   -0.1246   23.0798   25.8103 N   0  0  0  0  0  0  0  0  0  0  0  0
    1.2838   23.3202   25.5260 C   0  0  0  0  0  0  0  0  0  0  0  0
    1.7464   22.4265   24.4021 C   0  0  0  0  0  0  0  0  0  0  0  0
   -0.6351   24.0151   26.8182 C   0  0  0  0  0  0  0  0  0  0  0  0
   -2.1341   24.2055   26.7712 C   0  0  0  0  0  0  0  0  0  0  0  0
   -2.4568   25.0822   25.7170 O   0  0  0  0  0  0  0  0  0  0  0  0
   -1.9331   26.3717   25.8946 C   0  0  0  0  0  0  0  0  0  0  0  0
 10  7  1  0  0  0
 10  5  1  0  0  0
 10  4  1  0  0  0
  5  6  1  0  0  0
  2  4  2  0  0  0
  2  9  1  0  0  0
  4  3  1  0  0  0
  9  8  2  0  0  0
  6 13  2  0  0  0
  6 12  1  0  0  0
  3 12  1  0  0  0
  3  1  2  0  0  0
 13 14  1  0  0  0
  8  1  1  0  0  0
  8 22  1  0  0  0
 12 11  2  0  0  0
 22 27  1  0  0  0
 14 11  1  0  0  0
 14 15  1  0  0  0
 11 20  1  0  0  0
 27 28  2  0  0  0
 27 24  1  0  0  0
 28 25  1  0  0  0
 20 19  2  0  0  0
 20 16  1  0  0  0
 24 26  2  0  0  0
 19 21  1  0  0  0
 16 17  2  0  0  0
 25 26  1  0  0  0
 25 29  1  0  0  0
 21 18  2  0  0  0
 17 18  1  0  0  0
 29 30  1  0  0  0
 30 31  1  0  0  0
 31 36  1  0  0  0
 31 32  1  0  0  0
 36 35  1  0  0  0
 35 34  1  0  0  0
 32 33  1  0  0  0
 33 34  1  0  0  0
 34 37  1  0  0  0
 37 38  1  0  0  0
 38 39  1  0  0  0
 39 40  1  0  0  0
 22 23  1  0  0  0
M  END
> <minimizedAffinity>
-9.05942

$$$$
5E1S_5JA_A_1301


 40 45  0  0  0  0  0  0  0  0999 V2000
    5.7580   21.9150   19.4091 N   0  0  0  0  0  0  0  0  0  0  0  0
    5.0346   20.8538   17.0460 C   0  0  0  0  0  0  0  0  0  0  0  0
    6.6221   21.9579   18.3912 C   0  0  0  0  0  0  0  0  0  0  0  0
    6.2760   21.4210   17.1476 C   0  0  0  0  0  0  0  0  0  0  0  0
    8.1855   22.6250   15.9852 C   0  0  0  0  0  0  0  0  0  0  0  0
    8.6614   22.9635   17.3536 C   0  0  0  0  0  0  0  0  0  0  0  0
    8.0803   20.1780   15.9477 C   0  0  0  0  0  0  0  0  0  0  0  0
    4.5766   21.3374   19.1904 C   0  0  0  0  0  0  0  0  0  0  0  0
    4.1695   20.7939   18.0473 N   0  0  0  0  0  0  0  0  0  0  0  0
    7.2333   21.4419   15.9963 C   0  0  0  0  0  0  0  0  0  0  0  0
    8.7146   23.1203   19.5255 C   0  0  0  0  0  0  0  0  0  0  0  0
    7.9234   22.6069   18.5123 C   0  0  0  0  0  0  0  0  0  0  0  0
    9.7390   23.5402   17.6175 N   0  0  0  0  0  0  0  0  0  0  0  0
    9.7958   23.6431   18.9291 N   0  0  0  0  0  0  0  0  0  0  0  0
   10.9577   24.2754   19.5307 C   0  0  0  0  0  0  0  0  0  0  0  0
    8.9119   21.9923   21.7335 C   0  0  0  0  0  0  0  0  0  0  0  0
    8.7337   21.9795   23.1026 C   0  0  0  0  0  0  0  0  0  0  0  0
    8.1798   23.0533   23.7344 C   0  0  0  0  0  0  0  0  0  0  0  0
    7.9654   24.1732   21.6430 C   0  0  0  0  0  0  0  0  0  0  0  0
    8.5177   23.0882   20.9850 C   0  0  0  0  0  0  0  0  0  0  0  0
    7.7946   24.1456   23.0080 C   0  0  0  0  0  0  0  0  0  0  0  0
    3.6789   21.2732   20.2363 N   0  0  0  0  0  0  0  0  0  0  0  0
    2.7481   21.5137   20.0238 H   0  0  0  0  0  0  0  0  0  0  0  0
    5.1379   20.8455   22.2203 C   0  0  0  0  0  0  0  0  0  0  0  0
    3.5321   20.2348   23.5248 N   0  0  0  0  0  0  0  0  0  0  0  0
    4.8532   20.4244   23.4689 C   0  0  0  0  0  0  0  0  0  0  0  0
    3.9277   20.9145   21.5369 C   0  0  0  0  0  0  0  0  0  0  0  0
    2.9246   20.5445   22.3566 N   0  0  0  0  0  0  0  0  0  0  0  0
    2.8290   19.8247   24.7324 C   0  0  0  0  0  0  0  0  0  0  0  0
    3.2999   18.5653   25.2333 C   0  0  0  0  0  0  0  0  0  0  0  0
    2.2307   17.8417   25.9104 N   0  0  0  0  0  0  0  0  0  0  0  0
    2.6668   16.4894   26.2897 C   0  0  0  0  0  0  0  0  0  0  0  0
    1.5249   15.7083   26.9211 C   0  0  0  0  0  0  0  0  0  0  0  0
    0.3693   15.6683   26.0200 N   0  0  0  0  0  0  0  0  0  0  0  0
   -0.0600   17.0246   25.7063 C   0  0  0  0  0  0  0  0  0  0  0  0
    1.0613   17.7829   25.0401 C   0  0  0  0  0  0  0  0  0  0  0  0
   -0.7346   14.8687   26.5618 C   0  0  0  0  0  0  0  0  0  0  0  0
   -0.5576   13.3788   26.3771 C   0  0  0  0  0  0  0  0  0  0  0  0
   -1.8244   12.7651   26.3231 O   0  0  0  0  0  0  0  0  0  0  0  0
   -2.8060   13.5810   25.7405 C   0  0  0  0  0  0  0  0  0  0  0  0
 10  7  1  0  0  0
 10  5  1  0  0  0
 10  4  1  0  0  0
  5  6  1  0  0  0
  2  4  2  0  0  0
  2  9  1  0  0  0
  4  3  1  0  0  0
  9  8  2  0  0  0
  6 13  2  0  0  0
  6 12  1  0  0  0
  3 12  1  0  0  0
  3  1  2  0  0  0
 13 14  1  0  0  0
  8  1  1  0  0  0
  8 22  1  0  0  0
 12 11  2  0  0  0
 22 27  1  0  0  0
 14 11  1  0  0  0
 14 15  1  0  0  0
 11 20  1  0  0  0
 27 28  2  0  0  0
 27 24  1  0  0  0
 28 25  1  0  0  0
 20 19  2  0  0  0
 20 16  1  0  0  0
 24 26  2  0  0  0
 19 21  1  0  0  0
 16 17  2  0  0  0
 25 26  1  0  0  0
 25 29  1  0  0  0
 21 18  2  0  0  0
 17 18  1  0  0  0
 29 30  1  0  0  0
 30 31  1  0  0  0
 31 36  1  0  0  0
 31 32  1  0  0  0
 36 35  1  0  0  0
 35 34  1  0  0  0
 32 33  1  0  0  0
 33 34  1  0  0  0
 34 37  1  0  0  0
 37 38  1  0  0  0
 38 39  1  0  0  0
 39 40  1  0  0  0
 22 23  1  0  0  0
M  END
> <minimizedAffinity>
-8.71576

$$$$
5E1S_5JA_A_1301


 40 45  0  0  0  0  0  0  0  0999 V2000
    5.6370   21.2780   17.8697 N   0  0  0  0  0  0  0  0  0  0  0  0
    5.6887   20.1370   15.4347 C   0  0  0  0  0  0  0  0  0  0  0  0
    6.6823   21.5099   17.0708 C   0  0  0  0  0  0  0  0  0  0  0  0
    6.7382   20.9374   15.7965 C   0  0  0  0  0  0  0  0  0  0  0  0
    8.5843   22.5172   15.0593 C   0  0  0  0  0  0  0  0  0  0  0  0
    8.6633   22.9187   16.4898 C   0  0  0  0  0  0  0  0  0  0  0  0
    8.9754   20.0990   15.0666 C   0  0  0  0  0  0  0  0  0  0  0  0
    4.6731   20.4814   17.4075 C   0  0  0  0  0  0  0  0  0  0  0  0
    4.6495   19.8887   16.2176 N   0  0  0  0  0  0  0  0  0  0  0  0
    7.9069   21.1686   14.8891 C   0  0  0  0  0  0  0  0  0  0  0  0
    8.1937   23.0438   18.6131 C   0  0  0  0  0  0  0  0  0  0  0  0
    7.7685   22.4020   17.4628 C   0  0  0  0  0  0  0  0  0  0  0  0
    9.5180   23.6929   16.9727 N   0  0  0  0  0  0  0  0  0  0  0  0
    9.2565   23.7814   18.2603 N   0  0  0  0  0  0  0  0  0  0  0  0
   10.1047   24.6208   19.0896 C   0  0  0  0  0  0  0  0  0  0  0  0
    8.0187   21.8761   20.8023 C   0  0  0  0  0  0  0  0  0  0  0  0
    7.5444   21.8032   22.0969 C   0  0  0  0  0  0  0  0  0  0  0  0
    6.7511   22.7936   22.5958 C   0  0  0  0  0  0  0  0  0  0  0  0
    6.8846   23.9480   20.5164 C   0  0  0  0  0  0  0  0  0  0  0  0
    7.6834   22.9470   19.9915 C   0  0  0  0  0  0  0  0  0  0  0  0
    6.4199   23.8612   21.8086 C   0  0  0  0  0  0  0  0  0  0  0  0
    3.5935   20.2216   18.2267 N   0  0  0  0  0  0  0  0  0  0  0  0
    2.8459   19.7305   17.8155 H   0  0  0  0  0  0  0  0  0  0  0  0
    4.2826   21.2937   20.3769 C   0  0  0  0  0  0  0  0  0  0  0  0
    2.5438   20.6605   21.4854 N   0  0  0  0  0  0  0  0  0  0  0  0
    3.6876   21.3429   21.5857 C   0  0  0  0  0  0  0  0  0  0  0  0
    3.4372   20.5655   19.5456 C   0  0  0  0  0  0  0  0  0  0  0  0
    2.3460   20.1812   20.2361 N   0  0  0  0  0  0  0  0  0  0  0  0
    1.5886   20.5272   22.5767 C   0  0  0  0  0  0  0  0  0  0  0  0
    0.5663   19.5626   22.2884 C   0  0  0  0  0  0  0  0  0  0  0  0
   -0.2404   19.2896   23.4715 N   0  0  0  0  0  0  0  0  0  0  0  0
   -1.6027   18.8803   23.0982 C   0  0  0  0  0  0  0  0  0  0  0  0
   -2.4657   18.6764   24.3336 C   0  0  0  0  0  0  0  0  0  0  0  0
   -2.4749   19.8873   25.1599 N   0  0  0  0  0  0  0  0  0  0  0  0
   -1.1133   20.2320   25.5467 C   0  0  0  0  0  0  0  0  0  0  0  0
   -0.2712   20.4766   24.3192 C   0  0  0  0  0  0  0  0  0  0  0  0
   -3.3482   19.7582   26.3312 C   0  0  0  0  0  0  0  0  0  0  0  0
   -4.4705   18.7617   26.1494 C   0  0  0  0  0  0  0  0  0  0  0  0
   -4.9229   18.3379   27.4143 O   0  0  0  0  0  0  0  0  0  0  0  0
   -6.2501   18.7098   27.6764 C   0  0  0  0  0  0  0  0  0  0  0  0
 10  7  1  0  0  0
 10  5  1  0  0  0
 10  4  1  0  0  0
  5  6  1  0  0  0
  2  4  2  0  0  0
  2  9  1  0  0  0
  4  3  1  0  0  0
  9  8  2  0  0  0
  6 13  2  0  0  0
  6 12  1  0  0  0
  3 12  1  0  0  0
  3  1  2  0  0  0
 13 14  1  0  0  0
  8  1  1  0  0  0
  8 22  1  0  0  0
 12 11  2  0  0  0
 22 27  1  0  0  0
 14 11  1  0  0  0
 14 15  1  0  0  0
 11 20  1  0  0  0
 27 28  2  0  0  0
 27 24  1  0  0  0
 28 25  1  0  0  0
 20 19  2  0  0  0
 20 16  1  0  0  0
 24 26  2  0  0  0
 19 21  1  0  0  0
 16 17  2  0  0  0
 25 26  1  0  0  0
 25 29  1  0  0  0
 21 18  2  0  0  0
 17 18  1  0  0  0
 29 30  1  0  0  0
 30 31  1  0  0  0
 31 36  1  0  0  0
 31 32  1  0  0  0
 36 35  1  0  0  0
 35 34  1  0  0  0
 32 33  1  0  0  0
 33 34  1  0  0  0
 34 37  1  0  0  0
 37 38  1  0  0  0
 38 39  1  0  0  0
 39 40  1  0  0  0
 22 23  1  0  0  0
M  END
> <minimizedAffinity>
-8.54124

$$$$
5E1S_5JA_A_1301


 40 45  0  0  0  0  0  0  0  0999 V2000
    5.5702   21.5445   18.4940 N   0  0  0  0  0  0  0  0  0  0  0  0
    5.0983   20.2860   16.1644 C   0  0  0  0  0  0  0  0  0  0  0  0
    6.4647   21.6557   17.5081 C   0  0  0  0  0  0  0  0  0  0  0  0
    6.2478   21.0194   16.2823 C   0  0  0  0  0  0  0  0  0  0  0  0
    8.0298   22.4139   15.1304 C   0  0  0  0  0  0  0  0  0  0  0  0
    8.3961   22.8771   16.4960 C   0  0  0  0  0  0  0  0  0  0  0  0
    8.2520   19.9760   15.2169 C   0  0  0  0  0  0  0  0  0  0  0  0
    4.4866   20.8033   18.2620 C   0  0  0  0  0  0  0  0  0  0  0  0
    4.2057   20.1571   17.1345 N   0  0  0  0  0  0  0  0  0  0  0  0
    7.2434   21.1151   15.1678 C   0  0  0  0  0  0  0  0  0  0  0  0
    8.3326   23.1411   18.6572 C   0  0  0  0  0  0  0  0  0  0  0  0
    7.6618   22.4790   17.6435 C   0  0  0  0  0  0  0  0  0  0  0  0
    9.3750   23.6054   16.7693 N   0  0  0  0  0  0  0  0  0  0  0  0
    9.3601   23.7763   18.0750 N   0  0  0  0  0  0  0  0  0  0  0  0
   10.4003   24.5868   18.6855 C   0  0  0  0  0  0  0  0  0  0  0  0
    8.4773   22.0950   20.9092 C   0  0  0  0  0  0  0  0  0  0  0  0
    8.2443   22.1220   22.2698 C   0  0  0  0  0  0  0  0  0  0  0  0
    7.6303   23.1967   22.8416 C   0  0  0  0  0  0  0  0  0  0  0  0
    7.4641   24.2381   20.7056 C   0  0  0  0  0  0  0  0  0  0  0  0
    8.0780   23.1512   20.1080 C   0  0  0  0  0  0  0  0  0  0  0  0
    7.2391   24.2502   22.0629 C   0  0  0  0  0  0  0  0  0  0  0  0
    3.5603   20.6679   19.2758 N   0  0  0  0  0  0  0  0  0  0  0  0
    2.6941   20.2749   19.0215 H   0  0  0  0  0  0  0  0  0  0  0  0
    4.4112   22.0691   21.1625 C   0  0  0  0  0  0  0  0  0  0  0  0
    3.4931   20.8918   22.7195 N   0  0  0  0  0  0  0  0  0  0  0  0
    4.2520   21.9684   22.4974 C   0  0  0  0  0  0  0  0  0  0  0  0
    3.7015   21.0152   20.5954 C   0  0  0  0  0  0  0  0  0  0  0  0
    3.1187   20.2880   21.5684 N   0  0  0  0  0  0  0  0  0  0  0  0
    3.0555   20.4759   24.0448 C   0  0  0  0  0  0  0  0  0  0  0  0
    3.9572   19.5338   24.6432 C   0  0  0  0  0  0  0  0  0  0  0  0
    4.2085   19.8684   26.0397 N   0  0  0  0  0  0  0  0  0  0  0  0
    2.9695   19.8025   26.8290 C   0  0  0  0  0  0  0  0  0  0  0  0
    3.2184   20.2319   28.2665 C   0  0  0  0  0  0  0  0  0  0  0  0
    3.8121   21.5717   28.3073 N   0  0  0  0  0  0  0  0  0  0  0  0
    5.0590   21.5829   27.5541 C   0  0  0  0  0  0  0  0  0  0  0  0
    4.8014   21.1990   26.1180 C   0  0  0  0  0  0  0  0  0  0  0  0
    4.0100   22.0539   29.6784 C   0  0  0  0  0  0  0  0  0  0  0  0
    5.0474   21.2761   30.4557 C   0  0  0  0  0  0  0  0  0  0  0  0
    4.4529   20.7426   31.6159 O   0  0  0  0  0  0  0  0  0  0  0  0
    3.2685   21.4011   31.9791 C   0  0  0  0  0  0  0  0  0  0  0  0
 10  7  1  0  0  0
 10  5  1  0  0  0
 10  4  1  0  0  0
  5  6  1  0  0  0
  2  4  2  0  0  0
  2  9  1  0  0  0
  4  3  1  0  0  0
  9  8  2  0  0  0
  6 13  2  0  0  0
  6 12  1  0  0  0
  3 12  1  0  0  0
  3  1  2  0  0  0
 13 14  1  0  0  0
  8  1  1  0  0  0
  8 22  1  0  0  0
 12 11  2  0  0  0
 22 27  1  0  0  0
 14 11  1  0  0  0
 14 15  1  0  0  0
 11 20  1  0  0  0
 27 28  2  0  0  0
 27 24  1  0  0  0
 28 25  1  0  0  0
 20 19  2  0  0  0
 20 16  1  0  0  0
 24 26  2  0  0  0
 19 21  1  0  0  0
 16 17  2  0  0  0
 25 26  1  0  0  0
 25 29  1  0  0  0
 21 18  2  0  0  0
 17 18  1  0  0  0
 29 30  1  0  0  0
 30 31  1  0  0  0
 31 36  1  0  0  0
 31 32  1  0  0  0
 36 35  1  0  0  0
 35 34  1  0  0  0
 32 33  1  0  0  0
 33 34  1  0  0  0
 34 37  1  0  0  0
 37 38  1  0  0  0
 38 39  1  0  0  0
 39 40  1  0  0  0
 22 23  1  0  0  0
M  END
> <minimizedAffinity>
-8.03742

$$$$
5E1S_5JA_A_1301


 40 45  0  0  0  0  0  0  0  0999 V2000
    5.6643   21.6968   18.8173 N   0  0  0  0  0  0  0  0  0  0  0  0
    5.0246   20.4595   16.5165 C   0  0  0  0  0  0  0  0  0  0  0  0
    6.4960   21.7993   17.7769 C   0  0  0  0  0  0  0  0  0  0  0  0
    6.1911   21.1736   16.5644 C   0  0  0  0  0  0  0  0  0  0  0  0
    7.9188   22.5460   15.3078 C   0  0  0  0  0  0  0  0  0  0  0  0
    8.3788   22.9954   16.6495 C   0  0  0  0  0  0  0  0  0  0  0  0
    8.1061   20.1043   15.3686 C   0  0  0  0  0  0  0  0  0  0  0  0
    4.5561   20.9745   18.6513 C   0  0  0  0  0  0  0  0  0  0  0  0
    4.1936   20.3394   17.5410 N   0  0  0  0  0  0  0  0  0  0  0  0
    7.1153   21.2598   15.3892 C   0  0  0  0  0  0  0  0  0  0  0  0
    8.4573   23.2480   18.8115 C   0  0  0  0  0  0  0  0  0  0  0  0
    7.7126   22.6026   17.8396 C   0  0  0  0  0  0  0  0  0  0  0  0
    9.3849   23.7063   16.8633 N   0  0  0  0  0  0  0  0  0  0  0  0
    9.4559   23.8699   18.1680 N   0  0  0  0  0  0  0  0  0  0  0  0
   10.5460   24.6602   18.7148 C   0  0  0  0  0  0  0  0  0  0  0  0
    7.4797   24.1823   20.8991 C   0  0  0  0  0  0  0  0  0  0  0  0
    7.3263   24.1694   22.2712 C   0  0  0  0  0  0  0  0  0  0  0  0
    7.9667   23.2321   23.0264 C   0  0  0  0  0  0  0  0  0  0  0  0
    8.9313   22.3039   21.0560 C   0  0  0  0  0  0  0  0  0  0  0  0
    8.2957   23.2538   20.2757 C   0  0  0  0  0  0  0  0  0  0  0  0
    8.7683   22.3039   22.4223 C   0  0  0  0  0  0  0  0  0  0  0  0
    3.6941   20.8482   19.7214 N   0  0  0  0  0  0  0  0  0  0  0  0
    2.7522   20.6664   19.4998 H   0  0  0  0  0  0  0  0  0  0  0  0
    5.2152   20.7984   21.7042 C   0  0  0  0  0  0  0  0  0  0  0  0
    3.6695   21.1961   23.1553 N   0  0  0  0  0  0  0  0  0  0  0  0
    4.9792   20.9712   23.0202 C   0  0  0  0  0  0  0  0  0  0  0  0
    3.9922   20.9454   21.0569 C   0  0  0  0  0  0  0  0  0  0  0  0
    3.0301   21.2058   21.9634 N   0  0  0  0  0  0  0  0  0  0  0  0
    3.0301   21.4811   24.4324 C   0  0  0  0  0  0  0  0  0  0  0  0
    3.9845   21.6702   25.4869 C   0  0  0  0  0  0  0  0  0  0  0  0
    4.2139   23.0886   25.7332 N   0  0  0  0  0  0  0  0  0  0  0  0
    5.6455   23.3664   25.9225 C   0  0  0  0  0  0  0  0  0  0  0  0
    5.8739   24.8313   26.2610 C   0  0  0  0  0  0  0  0  0  0  0  0
    5.0907   25.2147   27.4395 N   0  0  0  0  0  0  0  0  0  0  0  0
    3.6761   24.9680   27.1945 C   0  0  0  0  0  0  0  0  0  0  0  0
    3.4473   23.5057   26.9022 C   0  0  0  0  0  0  0  0  0  0  0  0
    5.3304   26.6047   27.8419 C   0  0  0  0  0  0  0  0  0  0  0  0
    5.6754   27.5228   26.6915 C   0  0  0  0  0  0  0  0  0  0  0  0
    4.7610   28.5939   26.6635 O   0  0  0  0  0  0  0  0  0  0  0  0
    3.7696   28.4447   25.6819 C   0  0  0  0  0  0  0  0  0  0  0  0
 10  7  1  0  0  0
 10  5  1  0  0  0
 10  4  1  0  0  0
  5  6  1  0  0  0
  2  4  2  0  0  0
  2  9  1  0  0  0
  4  3  1  0  0  0
  9  8  2  0  0  0
  6 13  2  0  0  0
  6 12  1  0  0  0
  3 12  1  0  0  0
  3  1  2  0  0  0
 13 14  1  0  0  0
  8  1  1  0  0  0
  8 22  1  0  0  0
 12 11  2  0  0  0
 22 27  1  0  0  0
 14 11  1  0  0  0
 14 15  1  0  0  0
 11 20  1  0  0  0
 27 28  2  0  0  0
 27 24  1  0  0  0
 28 25  1  0  0  0
 20 19  2  0  0  0
 20 16  1  0  0  0
 24 26  2  0  0  0
 19 21  1  0  0  0
 16 17  2  0  0  0
 25 26  1  0  0  0
 25 29  1  0  0  0
 21 18  2  0  0  0
 17 18  1  0  0  0
 29 30  1  0  0  0
 30 31  1  0  0  0
 31 36  1  0  0  0
 31 32  1  0  0  0
 36 35  1  0  0  0
 35 34  1  0  0  0
 32 33  1  0  0  0
 33 34  1  0  0  0
 34 37  1  0  0  0
 37 38  1  0  0  0
 38 39  1  0  0  0
 39 40  1  0  0  0
 22 23  1  0  0  0
M  END
> <minimizedAffinity>
-7.99300

$$$$
5E1S_5JA_A_1301


 40 45  0  0  0  0  0  0  0  0999 V2000
    8.7883   21.3447   18.1918 N   0  0  0  0  0  0  0  0  0  0  0  0
    9.7317   20.5981   15.7863 C   0  0  0  0  0  0  0  0  0  0  0  0
    7.9213   20.9720   17.2462 C   0  0  0  0  0  0  0  0  0  0  0  0
    8.3782   20.5724   15.9867 C   0  0  0  0  0  0  0  0  0  0  0  0
    6.1427   19.5210   15.3998 C   0  0  0  0  0  0  0  0  0  0  0  0
    5.6315   20.1816   16.6310 C   0  0  0  0  0  0  0  0  0  0  0  0
    7.0302   21.3494   14.0323 C   0  0  0  0  0  0  0  0  0  0  0  0
   10.0844   21.3281   17.8803 C   0  0  0  0  0  0  0  0  0  0  0  0
   10.6045   20.9739   16.7091 N   0  0  0  0  0  0  0  0  0  0  0  0
    7.4253   20.1665   14.9051 C   0  0  0  0  0  0  0  0  0  0  0  0
    5.6070   21.3232   18.4859 C   0  0  0  0  0  0  0  0  0  0  0  0
    6.4853   20.9117   17.4984 C   0  0  0  0  0  0  0  0  0  0  0  0
    4.4355   20.1954   16.9954 N   0  0  0  0  0  0  0  0  0  0  0  0
    4.3946   20.8856   18.1162 N   0  0  0  0  0  0  0  0  0  0  0  0
    3.1128   21.0744   18.7742 C   0  0  0  0  0  0  0  0  0  0  0  0
    5.6964   21.5887   20.9574 C   0  0  0  0  0  0  0  0  0  0  0  0
    5.9442   22.3515   22.0813 C   0  0  0  0  0  0  0  0  0  0  0  0
    6.3616   23.6435   21.9575 C   0  0  0  0  0  0  0  0  0  0  0  0
    6.2877   23.4402   19.5853 C   0  0  0  0  0  0  0  0  0  0  0  0
    5.8549   22.1301   19.6931 C   0  0  0  0  0  0  0  0  0  0  0  0
    6.5308   24.1876   20.7147 C   0  0  0  0  0  0  0  0  0  0  0  0
   10.9910   21.7236   18.8424 N   0  0  0  0  0  0  0  0  0  0  0  0
   11.9421   21.6317   18.6052 H   0  0  0  0  0  0  0  0  0  0  0  0
   10.1796   23.4576   20.4493 C   0  0  0  0  0  0  0  0  0  0  0  0
   10.6537   22.3269   22.2241 N   0  0  0  0  0  0  0  0  0  0  0  0
   10.1393   23.4831   21.7966 C   0  0  0  0  0  0  0  0  0  0  0  0
   10.7260   22.2296   20.0897 C   0  0  0  0  0  0  0  0  0  0  0  0
   11.0103   21.5197   21.1990 N   0  0  0  0  0  0  0  0  0  0  0  0
   10.7371   21.9547   23.6296 C   0  0  0  0  0  0  0  0  0  0  0  0
    9.5453   22.2945   24.3526 C   0  0  0  0  0  0  0  0  0  0  0  0
    9.7023   22.0167   25.7751 N   0  0  0  0  0  0  0  0  0  0  0  0
   10.3705   20.7244   25.9896 C   0  0  0  0  0  0  0  0  0  0  0  0
   10.4587   20.3987   27.4724 C   0  0  0  0  0  0  0  0  0  0  0  0
    9.1268   20.4242   28.0845 N   0  0  0  0  0  0  0  0  0  0  0  0
    8.5189   21.7338   27.8907 C   0  0  0  0  0  0  0  0  0  0  0  0
    8.3928   22.0347   26.4178 C   0  0  0  0  0  0  0  0  0  0  0  0
    9.1562   20.0516   29.5028 C   0  0  0  0  0  0  0  0  0  0  0  0
    7.8409   20.2634   30.2173 C   0  0  0  0  0  0  0  0  0  0  0  0
    7.4288   19.0483   30.7986 O   0  0  0  0  0  0  0  0  0  0  0  0
    8.3789   18.0247   30.6645 C   0  0  0  0  0  0  0  0  0  0  0  0
 10  7  1  0  0  0
 10  5  1  0  0  0
 10  4  1  0  0  0
  5  6  1  0  0  0
  2  4  2  0  0  0
  2  9  1  0  0  0
  4  3  1  0  0  0
  9  8  2  0  0  0
  6 13  2  0  0  0
  6 12  1  0  0  0
  3 12  1  0  0  0
  3  1  2  0  0  0
 13 14  1  0  0  0
  8  1  1  0  0  0
  8 22  1  0  0  0
 12 11  2  0  0  0
 22 27  1  0  0  0
 14 11  1  0  0  0
 14 15  1  0  0  0
 11 20  1  0  0  0
 27 28  2  0  0  0
 27 24  1  0  0  0
 28 25  1  0  0  0
 20 19  2  0  0  0
 20 16  1  0  0  0
 24 26  2  0  0  0
 19 21  1  0  0  0
 16 17  2  0  0  0
 25 26  1  0  0  0
 25 29  1  0  0  0
 21 18  2  0  0  0
 17 18  1  0  0  0
 29 30  1  0  0  0
 30 31  1  0  0  0
 31 36  1  0  0  0
 31 32  1  0  0  0
 36 35  1  0  0  0
 35 34  1  0  0  0
 32 33  1  0  0  0
 33 34  1  0  0  0
 34 37  1  0  0  0
 37 38  1  0  0  0
 38 39  1  0  0  0
 39 40  1  0  0  0
 22 23  1  0  0  0
M  END
> <minimizedAffinity>
-7.77234

$$$$
5E1S_5JA_A_1301


 40 45  0  0  0  0  0  0  0  0999 V2000
    5.4078   21.6804   23.4155 N   0  0  0  0  0  0  0  0  0  0  0  0
    7.5603   22.6710   22.1431 C   0  0  0  0  0  0  0  0  0  0  0  0
    5.3834   21.7732   22.0831 C   0  0  0  0  0  0  0  0  0  0  0  0
    6.4875   22.2779   21.3897 C   0  0  0  0  0  0  0  0  0  0  0  0
    5.6396   21.3665   19.1767 C   0  0  0  0  0  0  0  0  0  0  0  0
    4.3758   21.0741   19.9053 C   0  0  0  0  0  0  0  0  0  0  0  0
    5.9790   23.7763   19.4566 C   0  0  0  0  0  0  0  0  0  0  0  0
    6.5096   22.0940   24.0418 C   0  0  0  0  0  0  0  0  0  0  0  0
    7.5976   22.5951   23.4650 N   0  0  0  0  0  0  0  0  0  0  0  0
    6.4779   22.4075   19.8979 C   0  0  0  0  0  0  0  0  0  0  0  0
    2.9462   20.8904   21.5384 C   0  0  0  0  0  0  0  0  0  0  0  0
    4.2443   21.3069   21.2992 C   0  0  0  0  0  0  0  0  0  0  0  0
    3.3253   20.6464   19.3790 N   0  0  0  0  0  0  0  0  0  0  0  0
    2.4421   20.5308   20.3490 N   0  0  0  0  0  0  0  0  0  0  0  0
    1.1079   20.0540   20.0259 C   0  0  0  0  0  0  0  0  0  0  0  0
    1.9445   19.6852   23.4699 C   0  0  0  0  0  0  0  0  0  0  0  0
    1.2334   19.6818   24.6535 C   0  0  0  0  0  0  0  0  0  0  0  0
    0.7644   20.8498   25.1776 C   0  0  0  0  0  0  0  0  0  0  0  0
    1.7021   22.0487   23.3452 C   0  0  0  0  0  0  0  0  0  0  0  0
    2.1774   20.8712   22.7948 C   0  0  0  0  0  0  0  0  0  0  0  0
    0.9953   22.0291   24.5255 C   0  0  0  0  0  0  0  0  0  0  0  0
    6.5441   22.0172   25.4191 N   0  0  0  0  0  0  0  0  0  0  0  0
    7.4383   22.0243   25.8311 H   0  0  0  0  0  0  0  0  0  0  0  0
    4.3994   22.7915   26.4429 C   0  0  0  0  0  0  0  0  0  0  0  0
    4.2512   21.1678   27.8552 N   0  0  0  0  0  0  0  0  0  0  0  0
    3.6406   22.2777   27.4316 C   0  0  0  0  0  0  0  0  0  0  0  0
    5.4820   21.9320   26.2832 C   0  0  0  0  0  0  0  0  0  0  0  0
    5.3815   20.9120   27.1577 N   0  0  0  0  0  0  0  0  0  0  0  0
    3.7098   20.2969   28.8894 C   0  0  0  0  0  0  0  0  0  0  0  0
    2.2756   20.2601   28.8719 C   0  0  0  0  0  0  0  0  0  0  0  0
    1.7938   19.0777   28.1682 N   0  0  0  0  0  0  0  0  0  0  0  0
    0.3402   18.9239   28.3291 C   0  0  0  0  0  0  0  0  0  0  0  0
   -0.1471   17.6460   27.6642 C   0  0  0  0  0  0  0  0  0  0  0  0
    0.5784   16.4849   28.1883 N   0  0  0  0  0  0  0  0  0  0  0  0
    2.0083   16.6549   27.9678 C   0  0  0  0  0  0  0  0  0  0  0  0
    2.4966   17.9001   28.6656 C   0  0  0  0  0  0  0  0  0  0  0  0
    0.0953   15.2213   27.6213 C   0  0  0  0  0  0  0  0  0  0  0  0
    0.9593   14.6837   26.5033 C   0  0  0  0  0  0  0  0  0  0  0  0
    0.1357   14.2850   25.4324 O   0  0  0  0  0  0  0  0  0  0  0  0
   -0.4738   15.3649   24.7761 C   0  0  0  0  0  0  0  0  0  0  0  0
 10  7  1  0  0  0
 10  5  1  0  0  0
 10  4  1  0  0  0
  5  6  1  0  0  0
  2  4  2  0  0  0
  2  9  1  0  0  0
  4  3  1  0  0  0
  9  8  2  0  0  0
  6 13  2  0  0  0
  6 12  1  0  0  0
  3 12  1  0  0  0
  3  1  2  0  0  0
 13 14  1  0  0  0
  8  1  1  0  0  0
  8 22  1  0  0  0
 12 11  2  0  0  0
 22 27  1  0  0  0
 14 11  1  0  0  0
 14 15  1  0  0  0
 11 20  1  0  0  0
 27 28  2  0  0  0
 27 24  1  0  0  0
 28 25  1  0  0  0
 20 19  2  0  0  0
 20 16  1  0  0  0
 24 26  2  0  0  0
 19 21  1  0  0  0
 16 17  2  0  0  0
 25 26  1  0  0  0
 25 29  1  0  0  0
 21 18  2  0  0  0
 17 18  1  0  0  0
 29 30  1  0  0  0
 30 31  1  0  0  0
 31 36  1  0  0  0
 31 32  1  0  0  0
 36 35  1  0  0  0
 35 34  1  0  0  0
 32 33  1  0  0  0
 33 34  1  0  0  0
 34 37  1  0  0  0
 37 38  1  0  0  0
 38 39  1  0  0  0
 39 40  1  0  0  0
 22 23  1  0  0  0
M  END
> <minimizedAffinity>
-7.55589

$$$$
5E1S_5JA_A_1301


 40 45  0  0  0  0  0  0  0  0999 V2000
    2.9762   19.9702   24.3549 N   0  0  0  0  0  0  0  0  0  0  0  0
    1.8646   18.5713   26.3651 C   0  0  0  0  0  0  0  0  0  0  0  0
    1.7724   19.4214   24.1702 C   0  0  0  0  0  0  0  0  0  0  0  0
    1.1631   18.6929   25.1963 C   0  0  0  0  0  0  0  0  0  0  0  0
   -1.1031   18.7915   24.0554 C   0  0  0  0  0  0  0  0  0  0  0  0
   -0.3676   19.3352   22.8819 C   0  0  0  0  0  0  0  0  0  0  0  0
   -0.0526   16.6241   24.5018 C   0  0  0  0  0  0  0  0  0  0  0  0
    3.5629   19.7848   25.5375 C   0  0  0  0  0  0  0  0  0  0  0  0
    3.0629   19.1004   26.5618 N   0  0  0  0  0  0  0  0  0  0  0  0
   -0.1782   18.0542   25.0080 C   0  0  0  0  0  0  0  0  0  0  0  0
    1.2674   20.0928   21.6582 C   0  0  0  0  0  0  0  0  0  0  0  0
    1.0256   19.6019   22.9296 C   0  0  0  0  0  0  0  0  0  0  0  0
   -0.8726   19.5677   21.7620 N   0  0  0  0  0  0  0  0  0  0  0  0
    0.1005   20.0243   21.0012 N   0  0  0  0  0  0  0  0  0  0  0  0
   -0.1968   20.3771   19.6232 C   0  0  0  0  0  0  0  0  0  0  0  0
    2.8795   20.1757   19.7659 C   0  0  0  0  0  0  0  0  0  0  0  0
    4.0556   20.6276   19.2011 C   0  0  0  0  0  0  0  0  0  0  0  0
    4.8753   21.4662   19.8967 C   0  0  0  0  0  0  0  0  0  0  0  0
    3.3646   21.4154   21.7378 C   0  0  0  0  0  0  0  0  0  0  0  0
    2.5258   20.5567   21.0490 C   0  0  0  0  0  0  0  0  0  0  0  0
    4.5331   21.8573   21.1613 C   0  0  0  0  0  0  0  0  0  0  0  0
    4.8128   20.3341   25.7383 N   0  0  0  0  0  0  0  0  0  0  0  0
    5.4806   19.7479   26.1622 H   0  0  0  0  0  0  0  0  0  0  0  0
    4.9862   22.8063   26.0629 C   0  0  0  0  0  0  0  0  0  0  0  0
    6.1953   23.1565   24.3112 N   0  0  0  0  0  0  0  0  0  0  0  0
    5.6104   23.7633   25.3475 C   0  0  0  0  0  0  0  0  0  0  0  0
    5.2364   21.5990   25.4181 C   0  0  0  0  0  0  0  0  0  0  0  0
    6.0017   21.8179   24.3311 N   0  0  0  0  0  0  0  0  0  0  0  0
    7.0142   23.8531   23.3289 C   0  0  0  0  0  0  0  0  0  0  0  0
    8.2945   23.2306   23.1501 C   0  0  0  0  0  0  0  0  0  0  0  0
    8.6417   23.1509   21.7365 N   0  0  0  0  0  0  0  0  0  0  0  0
    7.6769   23.8954   20.9134 C   0  0  0  0  0  0  0  0  0  0  0  0
    7.9937   23.7423   19.4340 C   0  0  0  0  0  0  0  0  0  0  0  0
    8.0380   22.3250   19.0618 N   0  0  0  0  0  0  0  0  0  0  0  0
    9.0369   21.6339   19.8660 C   0  0  0  0  0  0  0  0  0  0  0  0
    8.6954   21.7507   21.3308 C   0  0  0  0  0  0  0  0  0  0  0  0
    8.2768   22.1308   17.6277 C   0  0  0  0  0  0  0  0  0  0  0  0
    7.0152   22.1151   16.7950 C   0  0  0  0  0  0  0  0  0  0  0  0
    7.3460   22.3627   15.4483 O   0  0  0  0  0  0  0  0  0  0  0  0
    7.2930   21.2111   14.6487 C   0  0  0  0  0  0  0  0  0  0  0  0
 10  7  1  0  0  0
 10  5  1  0  0  0
 10  4  1  0  0  0
  5  6  1  0  0  0
  2  4  2  0  0  0
  2  9  1  0  0  0
  4  3  1  0  0  0
  9  8  2  0  0  0
  6 13  2  0  0  0
  6 12  1  0  0  0
  3 12  1  0  0  0
  3  1  2  0  0  0
 13 14  1  0  0  0
  8  1  1  0  0  0
  8 22  1  0  0  0
 12 11  2  0  0  0
 22 27  1  0  0  0
 14 11  1  0  0  0
 14 15  1  0  0  0
 11 20  1  0  0  0
 27 28  2  0  0  0
 27 24  1  0  0  0
 28 25  1  0  0  0
 20 19  2  0  0  0
 20 16  1  0  0  0
 24 26  2  0  0  0
 19 21  1  0  0  0
 16 17  2  0  0  0
 25 26  1  0  0  0
 25 29  1  0  0  0
 21 18  2  0  0  0
 17 18  1  0  0  0
 29 30  1  0  0  0
 30 31  1  0  0  0
 31 36  1  0  0  0
 31 32  1  0  0  0
 36 35  1  0  0  0
 35 34  1  0  0  0
 32 33  1  0  0  0
 33 34  1  0  0  0
 34 37  1  0  0  0
 37 38  1  0  0  0
 38 39  1  0  0  0
 39 40  1  0  0  0
 22 23  1  0  0  0
M  END
> <minimizedAffinity>
-7.53918

$$$$
