3D52_GHR_A_1048


 29 30  0  0  0  0  0  0  0  0999 V2000
   29.9365   65.0148   10.0450 C   0  0  0  0  0  0  0  0  0  0  0  0
   29.0974   65.6692    9.1516 N   0  0  0  0  0  0  0  0  0  0  0  0
   29.4490   65.9104    7.7333 C   0  0  0  0  0  0  0  0  0  0  0  0
   30.9142   65.5658    7.3739 C   0  0  0  0  0  0  0  0  0  0  0  0
   31.3576   66.5544    6.4763 O   0  0  0  0  0  0  0  0  0  0  0  0
   31.8208   65.4749    8.5849 C   0  0  0  0  0  0  0  0  0  0  0  0
   33.0924   65.0389    8.1683 O   0  0  0  0  0  0  0  0  0  0  0  0
   31.2373   64.4288    9.5053 C   0  0  0  0  0  0  0  0  0  0  0  0
   32.1385   64.1032   10.5360 O   0  0  0  0  0  0  0  0  0  0  0  0
   29.6337   64.8952   11.3384 N   0  0  0  0  0  0  0  0  0  0  0  0
   28.2251   65.9885    9.4779 H   0  0  0  0  0  0  0  0  0  0  0  0
   31.3122   67.4236    6.9045 H   0  0  0  0  0  0  0  0  0  0  0  0
   33.0108   64.1794    7.7263 H   0  0  0  0  0  0  0  0  0  0  0  0
   32.3495   64.9014   11.0451 H   0  0  0  0  0  0  0  0  0  0  0  0
   28.4643   65.2301    6.7888 C   0  0  0  0  0  0  0  0  0  0  0  0
   27.4834   64.5822    7.5626 O   0  0  0  0  0  0  0  0  0  0  0  0
   27.9070   63.9274    8.1393 H   0  0  0  0  0  0  0  0  0  0  0  0
   28.5042   65.3340   11.9823 O   0  0  0  0  0  0  0  0  0  0  0  0
   27.3049   64.1761   13.6004 N   0  0  0  0  0  0  0  0  0  0  0  0
   28.2453   65.0915   13.3078 C   0  0  0  0  0  0  0  0  0  0  0  0
   28.7555   65.7453   14.2114 O   0  0  0  0  0  0  0  0  0  0  0  0
   27.0860   64.0202   14.5475 H   0  0  0  0  0  0  0  0  0  0  0  0
   24.4498   61.0231    9.5643 Cl  0  0  0  0  0  0  0  0  0  0  0  0
   25.3037   61.9589   10.7546 C   0  0  0  0  0  0  0  0  0  0  0  0
   24.6894   63.0251   11.3836 C   0  0  0  0  0  0  0  0  0  0  0  0
   25.3468   63.7754   12.3348 C   0  0  0  0  0  0  0  0  0  0  0  0
   26.6132   61.6461   11.0999 C   0  0  0  0  0  0  0  0  0  0  0  0
   27.2846   62.4022   12.0607 C   0  0  0  0  0  0  0  0  0  0  0  0
   26.6537   63.4691   12.6796 C   0  0  0  0  0  0  0  0  0  0  0  0
  1 10  2  0  0  0
  2  1  1  0  0  0
  3  2  1  0  0  0
 15  3  1  0  0  0
 15 16  1  0  0  0
  4  3  1  0  0  0
  4  6  1  0  0  0
  5  4  1  0  0  0
  6  8  1  0  0  0
  7  6  1  0  0  0
  8  1  1  0  0  0
  8  9  1  0  0  0
 10 18  1  0  0  0
 24 23  1  0  0  0
 25 24  2  0  0  0
 26 25  1  0  0  0
 27 24  1  0  0  0
 28 27  2  0  0  0
 29 26  2  0  0  0
 29 28  1  0  0  0
 19 29  1  0  0  0
 20 19  1  0  0  0
 20 18  1  0  0  0
 21 20  2  0  0  0
  2 11  1  0  0  0
 16 17  1  0  0  0
  5 12  1  0  0  0
  7 13  1  0  0  0
  9 14  1  0  0  0
 19 22  1  0  0  0
M  END
> <minimizedAffinity>
-9.59183

$$$$
3D52_GHR_A_1048


 29 30  0  0  0  0  0  0  0  0999 V2000
   29.9336   65.2565   10.0857 C   0  0  0  0  0  0  0  0  0  0  0  0
   29.0908   65.8290    9.1412 N   0  0  0  0  0  0  0  0  0  0  0  0
   29.4229   65.9146    7.7004 C   0  0  0  0  0  0  0  0  0  0  0  0
   30.8762   65.5079    7.3576 C   0  0  0  0  0  0  0  0  0  0  0  0
   31.3210   66.3892    6.3551 O   0  0  0  0  0  0  0  0  0  0  0  0
   31.8009   65.5276    8.5581 C   0  0  0  0  0  0  0  0  0  0  0  0
   33.0583   65.0276    8.1708 O   0  0  0  0  0  0  0  0  0  0  0  0
   31.2156   64.5940    9.5913 C   0  0  0  0  0  0  0  0  0  0  0  0
   32.1281   64.3615   10.6371 O   0  0  0  0  0  0  0  0  0  0  0  0
   29.6503   65.2780   11.3888 N   0  0  0  0  0  0  0  0  0  0  0  0
   28.2293   66.1963    9.4449 H   0  0  0  0  0  0  0  0  0  0  0  0
   31.2969   67.2991    6.6905 H   0  0  0  0  0  0  0  0  0  0  0  0
   32.9552   64.1282    7.8224 H   0  0  0  0  0  0  0  0  0  0  0  0
   32.3606   65.2045   11.0568 H   0  0  0  0  0  0  0  0  0  0  0  0
   28.4118   65.1572    6.8468 C   0  0  0  0  0  0  0  0  0  0  0  0
   27.4062   64.6538    7.6929 O   0  0  0  0  0  0  0  0  0  0  0  0
   27.8036   64.0629    8.3514 H   0  0  0  0  0  0  0  0  0  0  0  0
   28.5388   65.8019   11.9997 O   0  0  0  0  0  0  0  0  0  0  0  0
   26.9499   64.9037   13.4370 N   0  0  0  0  0  0  0  0  0  0  0  0
   27.3710   65.1034   12.1758 C   0  0  0  0  0  0  0  0  0  0  0  0
   26.7701   64.5751   11.2462 O   0  0  0  0  0  0  0  0  0  0  0  0
   26.1323   64.3732   13.5761 H   0  0  0  0  0  0  0  0  0  0  0  0
   29.7570   67.0113   18.1339 Cl  0  0  0  0  0  0  0  0  0  0  0  0
   28.9237   66.3778   16.7460 C   0  0  0  0  0  0  0  0  0  0  0  0
   27.8720   67.0730   16.1799 C   0  0  0  0  0  0  0  0  0  0  0  0
   27.2027   66.5912   15.0754 C   0  0  0  0  0  0  0  0  0  0  0  0
   29.3057   65.1683   16.1778 C   0  0  0  0  0  0  0  0  0  0  0  0
   28.6316   64.6745   15.0609 C   0  0  0  0  0  0  0  0  0  0  0  0
   27.5780   65.3840   14.5078 C   0  0  0  0  0  0  0  0  0  0  0  0
  1 10  2  0  0  0
  2  1  1  0  0  0
  3  2  1  0  0  0
 15  3  1  0  0  0
 15 16  1  0  0  0
  4  3  1  0  0  0
  4  6  1  0  0  0
  5  4  1  0  0  0
  6  8  1  0  0  0
  7  6  1  0  0  0
  8  1  1  0  0  0
  8  9  1  0  0  0
 10 18  1  0  0  0
 24 23  1  0  0  0
 25 24  2  0  0  0
 26 25  1  0  0  0
 27 24  1  0  0  0
 28 27  2  0  0  0
 29 26  2  0  0  0
 29 28  1  0  0  0
 19 29  1  0  0  0
 20 19  1  0  0  0
 20 18  1  0  0  0
 21 20  2  0  0  0
  2 11  1  0  0  0
 16 17  1  0  0  0
  5 12  1  0  0  0
  7 13  1  0  0  0
  9 14  1  0  0  0
 19 22  1  0  0  0
M  END
> <minimizedAffinity>
-8.63915

$$$$
3D52_GHR_A_1048


 29 30  0  0  0  0  0  0  0  0999 V2000
   30.1232   64.7951   10.0414 C   0  0  0  0  0  0  0  0  0  0  0  0
   29.2222   65.4355    9.1997 N   0  0  0  0  0  0  0  0  0  0  0  0
   29.5321   65.7907    7.7957 C   0  0  0  0  0  0  0  0  0  0  0  0
   31.0139   65.5847    7.3999 C   0  0  0  0  0  0  0  0  0  0  0  0
   31.3655   66.6585    6.5615 O   0  0  0  0  0  0  0  0  0  0  0  0
   31.9434   65.4906    8.5933 C   0  0  0  0  0  0  0  0  0  0  0  0
   33.2385   65.1822    8.1367 O   0  0  0  0  0  0  0  0  0  0  0  0
   31.4571   64.3473    9.4523 C   0  0  0  0  0  0  0  0  0  0  0  0
   32.3966   64.0303   10.4510 O   0  0  0  0  0  0  0  0  0  0  0  0
   29.8506   64.5726   11.3279 N   0  0  0  0  0  0  0  0  0  0  0  0
   28.3329   65.6648    9.5545 H   0  0  0  0  0  0  0  0  0  0  0  0
   31.2594   67.4934    7.0438 H   0  0  0  0  0  0  0  0  0  0  0  0
   33.2169   64.3478    7.6425 H   0  0  0  0  0  0  0  0  0  0  0  0
   32.5529   64.8096   11.0069 H   0  0  0  0  0  0  0  0  0  0  0  0
   28.5887   65.0948    6.8209 C   0  0  0  0  0  0  0  0  0  0  0  0
   27.4517   64.6686    7.5322 O   0  0  0  0  0  0  0  0  0  0  0  0
   27.7209   64.0587    8.2367 H   0  0  0  0  0  0  0  0  0  0  0  0
   28.7005   64.8809   12.0099 O   0  0  0  0  0  0  0  0  0  0  0  0
   26.8047   64.3188   13.2295 N   0  0  0  0  0  0  0  0  0  0  0  0
   28.0501   63.9992   12.8359 C   0  0  0  0  0  0  0  0  0  0  0  0
   28.5958   63.0048   13.3024 O   0  0  0  0  0  0  0  0  0  0  0  0
   26.3425   63.7107   13.8507 H   0  0  0  0  0  0  0  0  0  0  0  0
   23.9385   69.1112   11.4402 Cl  0  0  0  0  0  0  0  0  0  0  0  0
   24.7924   67.6896   11.9617 C   0  0  0  0  0  0  0  0  0  0  0  0
   25.5183   67.6976   13.1377 C   0  0  0  0  0  0  0  0  0  0  0  0
   26.1967   66.5791   13.5721 C   0  0  0  0  0  0  0  0  0  0  0  0
   24.7525   66.5205   11.2112 C   0  0  0  0  0  0  0  0  0  0  0  0
   25.4380   65.3856   11.6445 C   0  0  0  0  0  0  0  0  0  0  0  0
   26.1626   65.4124   12.8251 C   0  0  0  0  0  0  0  0  0  0  0  0
  1 10  2  0  0  0
  2  1  1  0  0  0
  3  2  1  0  0  0
 15  3  1  0  0  0
 15 16  1  0  0  0
  4  3  1  0  0  0
  4  6  1  0  0  0
  5  4  1  0  0  0
  6  8  1  0  0  0
  7  6  1  0  0  0
  8  1  1  0  0  0
  8  9  1  0  0  0
 10 18  1  0  0  0
 24 23  1  0  0  0
 25 24  2  0  0  0
 26 25  1  0  0  0
 27 24  1  0  0  0
 28 27  2  0  0  0
 29 26  2  0  0  0
 29 28  1  0  0  0
 19 29  1  0  0  0
 20 19  1  0  0  0
 20 18  1  0  0  0
 21 20  2  0  0  0
  2 11  1  0  0  0
 16 17  1  0  0  0
  5 12  1  0  0  0
  7 13  1  0  0  0
  9 14  1  0  0  0
 19 22  1  0  0  0
M  END
> <minimizedAffinity>
-8.55260

$$$$
3D52_GHR_A_1048


 29 30  0  0  0  0  0  0  0  0999 V2000
   26.1370   63.1005   11.8909 C   0  0  0  0  0  0  0  0  0  0  0  0
   27.0197   64.1151   12.2402 N   0  0  0  0  0  0  0  0  0  0  0  0
   27.2418   64.5546   13.6370 C   0  0  0  0  0  0  0  0  0  0  0  0
   26.2567   63.9414   14.6609 C   0  0  0  0  0  0  0  0  0  0  0  0
   25.9451   64.9554   15.5852 O   0  0  0  0  0  0  0  0  0  0  0  0
   25.0047   63.3762   14.0206 C   0  0  0  0  0  0  0  0  0  0  0  0
   24.2371   62.7366   15.0118 O   0  0  0  0  0  0  0  0  0  0  0  0
   25.4440   62.3378   13.0154 C   0  0  0  0  0  0  0  0  0  0  0  0
   24.3468   61.5898   12.5493 O   0  0  0  0  0  0  0  0  0  0  0  0
   25.8875   62.7903   10.6180 N   0  0  0  0  0  0  0  0  0  0  0  0
   27.5228   64.5645   11.5231 H   0  0  0  0  0  0  0  0  0  0  0  0
   25.5284   65.6986   15.1216 H   0  0  0  0  0  0  0  0  0  0  0  0
   24.7645   62.0369   15.4279 H   0  0  0  0  0  0  0  0  0  0  0  0
   23.7005   62.1853   12.1387 H   0  0  0  0  0  0  0  0  0  0  0  0
   28.6918   64.3537   14.0633 C   0  0  0  0  0  0  0  0  0  0  0  0
   29.0764   63.0434   13.7231 O   0  0  0  0  0  0  0  0  0  0  0  0
   28.4991   62.4091   14.1762 H   0  0  0  0  0  0  0  0  0  0  0  0
   26.4378   63.3495    9.4921 O   0  0  0  0  0  0  0  0  0  0  0  0
   26.4974   65.1583    8.0354 N   0  0  0  0  0  0  0  0  0  0  0  0
   25.7689   64.2291    8.6787 C   0  0  0  0  0  0  0  0  0  0  0  0
   24.5450   64.2623    8.6058 O   0  0  0  0  0  0  0  0  0  0  0  0
   26.0238   65.8167    7.4774 H   0  0  0  0  0  0  0  0  0  0  0  0
   32.3410   65.5366    8.3406 Cl  0  0  0  0  0  0  0  0  0  0  0  0
   30.6094   65.4168    8.2440 C   0  0  0  0  0  0  0  0  0  0  0  0
   29.8422   65.3813    9.3928 C   0  0  0  0  0  0  0  0  0  0  0  0
   28.4677   65.2933    9.3377 C   0  0  0  0  0  0  0  0  0  0  0  0
   29.9678   65.3637    7.0122 C   0  0  0  0  0  0  0  0  0  0  0  0
   28.5772   65.2731    6.9495 C   0  0  0  0  0  0  0  0  0  0  0  0
   27.8240   65.2365    8.1117 C   0  0  0  0  0  0  0  0  0  0  0  0
  1 10  2  0  0  0
  2  1  1  0  0  0
  3  2  1  0  0  0
 15  3  1  0  0  0
 15 16  1  0  0  0
  4  3  1  0  0  0
  4  6  1  0  0  0
  5  4  1  0  0  0
  6  8  1  0  0  0
  7  6  1  0  0  0
  8  1  1  0  0  0
  8  9  1  0  0  0
 10 18  1  0  0  0
 24 23  1  0  0  0
 25 24  2  0  0  0
 26 25  1  0  0  0
 27 24  1  0  0  0
 28 27  2  0  0  0
 29 26  2  0  0  0
 29 28  1  0  0  0
 19 29  1  0  0  0
 20 19  1  0  0  0
 20 18  1  0  0  0
 21 20  2  0  0  0
  2 11  1  0  0  0
 16 17  1  0  0  0
  5 12  1  0  0  0
  7 13  1  0  0  0
  9 14  1  0  0  0
 19 22  1  0  0  0
M  END
> <minimizedAffinity>
-8.19549

$$$$
3D52_GHR_A_1048


 29 30  0  0  0  0  0  0  0  0999 V2000
   27.5396   64.4712    9.2992 C   0  0  0  0  0  0  0  0  0  0  0  0
   27.8539   63.9474   10.5472 N   0  0  0  0  0  0  0  0  0  0  0  0
   29.1330   64.2165   11.2435 C   0  0  0  0  0  0  0  0  0  0  0  0
   30.1837   64.9553   10.3803 C   0  0  0  0  0  0  0  0  0  0  0  0
   31.4357   64.3940   10.6923 O   0  0  0  0  0  0  0  0  0  0  0  0
   29.8991   64.8747    8.8940 C   0  0  0  0  0  0  0  0  0  0  0  0
   30.8331   65.6742    8.2090 O   0  0  0  0  0  0  0  0  0  0  0  0
   28.5220   65.4530    8.6685 C   0  0  0  0  0  0  0  0  0  0  0  0
   28.2722   65.6433    7.2966 O   0  0  0  0  0  0  0  0  0  0  0  0
   26.4209   64.1360    8.6552 N   0  0  0  0  0  0  0  0  0  0  0  0
   27.1929   63.3681   10.9909 H   0  0  0  0  0  0  0  0  0  0  0  0
   31.4287   63.4482   10.4768 H   0  0  0  0  0  0  0  0  0  0  0  0
   30.7724   66.5881    8.5285 H   0  0  0  0  0  0  0  0  0  0  0  0
   28.3470   64.7943    6.8336 H   0  0  0  0  0  0  0  0  0  0  0  0
   28.9072   64.9200   12.5772 C   0  0  0  0  0  0  0  0  0  0  0  0
   29.5615   66.1653   12.5379 O   0  0  0  0  0  0  0  0  0  0  0  0
   30.5093   66.0279   12.3836 H   0  0  0  0  0  0  0  0  0  0  0  0
   25.4229   63.2969    9.0829 O   0  0  0  0  0  0  0  0  0  0  0  0
   23.5601   63.7958   10.3785 N   0  0  0  0  0  0  0  0  0  0  0  0
   24.1030   63.6648    9.1553 C   0  0  0  0  0  0  0  0  0  0  0  0
   23.3906   63.7703    8.1625 O   0  0  0  0  0  0  0  0  0  0  0  0
   22.6046   64.0244   10.4415 H   0  0  0  0  0  0  0  0  0  0  0  0
   26.5479   63.1126   15.3774 Cl  0  0  0  0  0  0  0  0  0  0  0  0
   25.6695   63.3207   13.8919 C   0  0  0  0  0  0  0  0  0  0  0  0
   25.1507   62.2282   13.2232 C   0  0  0  0  0  0  0  0  0  0  0  0
   24.4455   62.3724   12.0477 C   0  0  0  0  0  0  0  0  0  0  0  0
   25.4666   64.5873   13.3569 C   0  0  0  0  0  0  0  0  0  0  0  0
   24.7551   64.7400   12.1669 C   0  0  0  0  0  0  0  0  0  0  0  0
   24.2439   63.6331   11.5089 C   0  0  0  0  0  0  0  0  0  0  0  0
  1 10  2  0  0  0
  2  1  1  0  0  0
  3  2  1  0  0  0
 15  3  1  0  0  0
 15 16  1  0  0  0
  4  3  1  0  0  0
  4  6  1  0  0  0
  5  4  1  0  0  0
  6  8  1  0  0  0
  7  6  1  0  0  0
  8  1  1  0  0  0
  8  9  1  0  0  0
 10 18  1  0  0  0
 24 23  1  0  0  0
 25 24  2  0  0  0
 26 25  1  0  0  0
 27 24  1  0  0  0
 28 27  2  0  0  0
 29 26  2  0  0  0
 29 28  1  0  0  0
 19 29  1  0  0  0
 20 19  1  0  0  0
 20 18  1  0  0  0
 21 20  2  0  0  0
  2 11  1  0  0  0
 16 17  1  0  0  0
  5 12  1  0  0  0
  7 13  1  0  0  0
  9 14  1  0  0  0
 19 22  1  0  0  0
M  END
> <minimizedAffinity>
-7.92330

$$$$
3D52_GHR_A_1048


 29 30  0  0  0  0  0  0  0  0999 V2000
   28.4751   65.2283   10.3322 C   0  0  0  0  0  0  0  0  0  0  0  0
   28.5395   65.9342    9.1372 N   0  0  0  0  0  0  0  0  0  0  0  0
   29.6574   65.8035    8.1746 C   0  0  0  0  0  0  0  0  0  0  0  0
   30.8563   64.9783    8.7006 C   0  0  0  0  0  0  0  0  0  0  0  0
   32.0233   65.6133    8.2376 O   0  0  0  0  0  0  0  0  0  0  0  0
   30.8680   64.8369   10.2095 C   0  0  0  0  0  0  0  0  0  0  0  0
   31.9174   63.9739   10.5764 O   0  0  0  0  0  0  0  0  0  0  0  0
   29.5612   64.1940   10.6105 C   0  0  0  0  0  0  0  0  0  0  0  0
   29.5845   63.8021   11.9619 O   0  0  0  0  0  0  0  0  0  0  0  0
   27.5042   65.4363   11.2225 N   0  0  0  0  0  0  0  0  0  0  0  0
   27.8049   66.5524    8.9193 H   0  0  0  0  0  0  0  0  0  0  0  0
   32.0593   66.5178    8.5861 H   0  0  0  0  0  0  0  0  0  0  0  0
   31.7948   63.1139   10.1447 H   0  0  0  0  0  0  0  0  0  0  0  0
   29.7490   64.5777   12.5207 H   0  0  0  0  0  0  0  0  0  0  0  0
   29.1746   65.2925    6.8217 C   0  0  0  0  0  0  0  0  0  0  0  0
   27.8714   65.7773    6.6042 O   0  0  0  0  0  0  0  0  0  0  0  0
   27.2875   65.4641    7.3126 H   0  0  0  0  0  0  0  0  0  0  0  0
   26.4423   66.2998   11.1234 O   0  0  0  0  0  0  0  0  0  0  0  0
   24.5040   65.5742   12.1788 N   0  0  0  0  0  0  0  0  0  0  0  0
   25.5071   66.4672   12.1134 C   0  0  0  0  0  0  0  0  0  0  0  0
   25.4974   67.4438   12.8554 O   0  0  0  0  0  0  0  0  0  0  0  0
   23.8080   65.7054   12.8627 H   0  0  0  0  0  0  0  0  0  0  0  0
   24.0238   60.9194    8.6453 Cl  0  0  0  0  0  0  0  0  0  0  0  0
   24.1752   62.2964    9.6955 C   0  0  0  0  0  0  0  0  0  0  0  0
   23.9121   63.5697    9.2273 C   0  0  0  0  0  0  0  0  0  0  0  0
   24.0197   64.6737   10.0455 C   0  0  0  0  0  0  0  0  0  0  0  0
   24.5539   62.1398   11.0236 C   0  0  0  0  0  0  0  0  0  0  0  0
   24.6661   63.2531   11.8565 C   0  0  0  0  0  0  0  0  0  0  0  0
   24.4005   64.5226   11.3694 C   0  0  0  0  0  0  0  0  0  0  0  0
  1 10  2  0  0  0
  2  1  1  0  0  0
  3  2  1  0  0  0
 15  3  1  0  0  0
 15 16  1  0  0  0
  4  3  1  0  0  0
  4  6  1  0  0  0
  5  4  1  0  0  0
  6  8  1  0  0  0
  7  6  1  0  0  0
  8  1  1  0  0  0
  8  9  1  0  0  0
 10 18  1  0  0  0
 24 23  1  0  0  0
 25 24  2  0  0  0
 26 25  1  0  0  0
 27 24  1  0  0  0
 28 27  2  0  0  0
 29 26  2  0  0  0
 29 28  1  0  0  0
 19 29  1  0  0  0
 20 19  1  0  0  0
 20 18  1  0  0  0
 21 20  2  0  0  0
  2 11  1  0  0  0
 16 17  1  0  0  0
  5 12  1  0  0  0
  7 13  1  0  0  0
  9 14  1  0  0  0
 19 22  1  0  0  0
M  END
> <minimizedAffinity>
-7.81884

$$$$
3D52_GHR_A_1048


 29 30  0  0  0  0  0  0  0  0999 V2000
   26.8090   63.2789   15.3566 C   0  0  0  0  0  0  0  0  0  0  0  0
   27.8142   64.2375   15.3909 N   0  0  0  0  0  0  0  0  0  0  0  0
   28.5655   64.6714   14.1906 C   0  0  0  0  0  0  0  0  0  0  0  0
   28.2915   63.8209   12.9271 C   0  0  0  0  0  0  0  0  0  0  0  0
   29.5200   63.6800   12.2558 O   0  0  0  0  0  0  0  0  0  0  0  0
   27.6756   62.4715   13.2374 C   0  0  0  0  0  0  0  0  0  0  0  0
   27.3529   61.8306   12.0266 O   0  0  0  0  0  0  0  0  0  0  0  0
   26.3948   62.7264   13.9965 C   0  0  0  0  0  0  0  0  0  0  0  0
   25.6338   61.5483   14.1137 O   0  0  0  0  0  0  0  0  0  0  0  0
   26.2151   62.8401   16.4672 N   0  0  0  0  0  0  0  0  0  0  0  0
   28.0384   64.6490   16.2568 H   0  0  0  0  0  0  0  0  0  0  0  0
   30.1544   63.2281   12.8339 H   0  0  0  0  0  0  0  0  0  0  0  0
   26.7413   62.3868   11.5193 H   0  0  0  0  0  0  0  0  0  0  0  0
   26.1543   60.8716   14.5742 H   0  0  0  0  0  0  0  0  0  0  0  0
   28.3745   66.1593   13.9181 C   0  0  0  0  0  0  0  0  0  0  0  0
   29.5221   66.6405   13.2609 O   0  0  0  0  0  0  0  0  0  0  0  0
   30.3003   66.4961   13.8217 H   0  0  0  0  0  0  0  0  0  0  0  0
   26.4421   63.2439   17.7588 O   0  0  0  0  0  0  0  0  0  0  0  0
   26.1625   65.1338   19.0807 N   0  0  0  0  0  0  0  0  0  0  0  0
   25.6061   64.0864   18.4473 C   0  0  0  0  0  0  0  0  0  0  0  0
   24.4092   63.8592   18.5895 O   0  0  0  0  0  0  0  0  0  0  0  0
   25.5764   65.7243   19.6070 H   0  0  0  0  0  0  0  0  0  0  0  0
   31.8796   66.4217   18.8815 Cl  0  0  0  0  0  0  0  0  0  0  0  0
   30.1847   66.0389   18.9307 C   0  0  0  0  0  0  0  0  0  0  0  0
   29.7075   65.0711   19.7941 C   0  0  0  0  0  0  0  0  0  0  0  0
   28.3666   64.7575   19.8533 C   0  0  0  0  0  0  0  0  0  0  0  0
   29.2810   66.7043   18.1107 C   0  0  0  0  0  0  0  0  0  0  0  0
   27.9229   66.3907   18.1646 C   0  0  0  0  0  0  0  0  0  0  0  0
   27.4626   65.4161   19.0350 C   0  0  0  0  0  0  0  0  0  0  0  0
  1 10  2  0  0  0
  2  1  1  0  0  0
  3  2  1  0  0  0
 15  3  1  0  0  0
 15 16  1  0  0  0
  4  3  1  0  0  0
  4  6  1  0  0  0
  5  4  1  0  0  0
  6  8  1  0  0  0
  7  6  1  0  0  0
  8  1  1  0  0  0
  8  9  1  0  0  0
 10 18  1  0  0  0
 24 23  1  0  0  0
 25 24  2  0  0  0
 26 25  1  0  0  0
 27 24  1  0  0  0
 28 27  2  0  0  0
 29 26  2  0  0  0
 29 28  1  0  0  0
 19 29  1  0  0  0
 20 19  1  0  0  0
 20 18  1  0  0  0
 21 20  2  0  0  0
  2 11  1  0  0  0
 16 17  1  0  0  0
  5 12  1  0  0  0
  7 13  1  0  0  0
  9 14  1  0  0  0
 19 22  1  0  0  0
M  END
> <minimizedAffinity>
-7.79679

$$$$
3D52_GHR_A_1048


 29 30  0  0  0  0  0  0  0  0999 V2000
   28.0425   64.8146    8.6039 C   0  0  0  0  0  0  0  0  0  0  0  0
   28.6507   64.2753    9.7307 N   0  0  0  0  0  0  0  0  0  0  0  0
   30.0609   64.5391   10.0986 C   0  0  0  0  0  0  0  0  0  0  0  0
   30.8703   65.2923    9.0158 C   0  0  0  0  0  0  0  0  0  0  0  0
   32.1603   64.7307    9.0062 O   0  0  0  0  0  0  0  0  0  0  0  0
   30.2326   65.2305    7.6424 C   0  0  0  0  0  0  0  0  0  0  0  0
   30.9721   66.0418    6.7617 O   0  0  0  0  0  0  0  0  0  0  0  0
   28.8421   65.8076    7.7665 C   0  0  0  0  0  0  0  0  0  0  0  0
   28.2662   66.0152    6.4993 O   0  0  0  0  0  0  0  0  0  0  0  0
   26.8006   64.4846    8.2469 N   0  0  0  0  0  0  0  0  0  0  0  0
   28.1174   63.6883   10.3140 H   0  0  0  0  0  0  0  0  0  0  0  0
   32.1009   63.7879    8.7862 H   0  0  0  0  0  0  0  0  0  0  0  0
   30.9912   66.9511    7.0987 H   0  0  0  0  0  0  0  0  0  0  0  0
   28.2258   65.1726    6.0205 H   0  0  0  0  0  0  0  0  0  0  0  0
   30.1665   65.2242   11.4565 C   0  0  0  0  0  0  0  0  0  0  0  0
   29.2585   64.6064   12.3366 O   0  0  0  0  0  0  0  0  0  0  0  0
   28.3587   64.6901   11.9840 H   0  0  0  0  0  0  0  0  0  0  0  0
   25.9363   63.6369    8.8931 O   0  0  0  0  0  0  0  0  0  0  0  0
   23.6551   63.9675    9.1836 N   0  0  0  0  0  0  0  0  0  0  0  0
   24.6500   63.4040    8.4760 C   0  0  0  0  0  0  0  0  0  0  0  0
   24.3808   62.6287    7.5646 O   0  0  0  0  0  0  0  0  0  0  0  0
   22.7274   63.7777    8.9144 H   0  0  0  0  0  0  0  0  0  0  0  0
   24.5086   67.5218   13.7685 Cl  0  0  0  0  0  0  0  0  0  0  0  0
   24.2634   66.4720   12.4048 C   0  0  0  0  0  0  0  0  0  0  0  0
   24.0962   65.1122   12.5858 C   0  0  0  0  0  0  0  0  0  0  0  0
   23.8939   64.2638   11.5184 C   0  0  0  0  0  0  0  0  0  0  0  0
   24.2227   66.9822   11.1126 C   0  0  0  0  0  0  0  0  0  0  0  0
   24.0198   66.1289   10.0280 C   0  0  0  0  0  0  0  0  0  0  0  0
   23.8561   64.7678   10.2280 C   0  0  0  0  0  0  0  0  0  0  0  0
  1 10  2  0  0  0
  2  1  1  0  0  0
  3  2  1  0  0  0
 15  3  1  0  0  0
 15 16  1  0  0  0
  4  3  1  0  0  0
  4  6  1  0  0  0
  5  4  1  0  0  0
  6  8  1  0  0  0
  7  6  1  0  0  0
  8  1  1  0  0  0
  8  9  1  0  0  0
 10 18  1  0  0  0
 24 23  1  0  0  0
 25 24  2  0  0  0
 26 25  1  0  0  0
 27 24  1  0  0  0
 28 27  2  0  0  0
 29 26  2  0  0  0
 29 28  1  0  0  0
 19 29  1  0  0  0
 20 19  1  0  0  0
 20 18  1  0  0  0
 21 20  2  0  0  0
  2 11  1  0  0  0
 16 17  1  0  0  0
  5 12  1  0  0  0
  7 13  1  0  0  0
  9 14  1  0  0  0
 19 22  1  0  0  0
M  END
> <minimizedAffinity>
-7.71041

$$$$
3D52_GHR_A_1048


 29 30  0  0  0  0  0  0  0  0999 V2000
   26.6717   62.9102   13.7539 C   0  0  0  0  0  0  0  0  0  0  0  0
   27.9216   63.5082   13.6517 N   0  0  0  0  0  0  0  0  0  0  0  0
   28.5843   63.7917   12.3578 C   0  0  0  0  0  0  0  0  0  0  0  0
   27.8709   63.1767   11.1299 C   0  0  0  0  0  0  0  0  0  0  0  0
   28.8776   62.7238   10.2575 O   0  0  0  0  0  0  0  0  0  0  0  0
   26.9134   62.0595   11.4929 C   0  0  0  0  0  0  0  0  0  0  0  0
   26.2285   61.6536   10.3323 O   0  0  0  0  0  0  0  0  0  0  0  0
   25.9067   62.6288   12.4646 C   0  0  0  0  0  0  0  0  0  0  0  0
   24.8388   61.7350   12.6675 O   0  0  0  0  0  0  0  0  0  0  0  0
   26.1416   62.5816   14.9327 N   0  0  0  0  0  0  0  0  0  0  0  0
   28.3905   63.7561   14.4812 H   0  0  0  0  0  0  0  0  0  0  0  0
   29.4153   62.0519   10.7052 H   0  0  0  0  0  0  0  0  0  0  0  0
   25.7557   62.4115    9.9541 H   0  0  0  0  0  0  0  0  0  0  0  0
   25.1811   60.8948   13.0107 H   0  0  0  0  0  0  0  0  0  0  0  0
   28.8350   65.2841   12.1722 C   0  0  0  0  0  0  0  0  0  0  0  0
   29.9351   65.4448   11.3094 O   0  0  0  0  0  0  0  0  0  0  0  0
   30.7146   65.0159   11.6960 H   0  0  0  0  0  0  0  0  0  0  0  0
   26.6740   62.7850   16.1810 O   0  0  0  0  0  0  0  0  0  0  0  0
   26.4113   64.6577   17.5306 N   0  0  0  0  0  0  0  0  0  0  0  0
   26.0042   63.4206   17.1959 C   0  0  0  0  0  0  0  0  0  0  0  0
   25.1369   62.8675   17.8637 O   0  0  0  0  0  0  0  0  0  0  0  0
   25.9610   65.1086   18.2811 H   0  0  0  0  0  0  0  0  0  0  0  0
   30.7006   67.5529   14.7734 Cl  0  0  0  0  0  0  0  0  0  0  0  0
   29.4248   66.6925   15.5821 C   0  0  0  0  0  0  0  0  0  0  0  0
   29.7171   65.7271   16.5267 C   0  0  0  0  0  0  0  0  0  0  0  0
   28.7202   65.0384   17.1839 C   0  0  0  0  0  0  0  0  0  0  0  0
   28.0918   66.9665   15.2996 C   0  0  0  0  0  0  0  0  0  0  0  0
   27.0782   66.2722   15.9601 C   0  0  0  0  0  0  0  0  0  0  0  0
   27.3898   65.3059   16.9028 C   0  0  0  0  0  0  0  0  0  0  0  0
  1 10  2  0  0  0
  2  1  1  0  0  0
  3  2  1  0  0  0
 15  3  1  0  0  0
 15 16  1  0  0  0
  4  3  1  0  0  0
  4  6  1  0  0  0
  5  4  1  0  0  0
  6  8  1  0  0  0
  7  6  1  0  0  0
  8  1  1  0  0  0
  8  9  1  0  0  0
 10 18  1  0  0  0
 24 23  1  0  0  0
 25 24  2  0  0  0
 26 25  1  0  0  0
 27 24  1  0  0  0
 28 27  2  0  0  0
 29 26  2  0  0  0
 29 28  1  0  0  0
 19 29  1  0  0  0
 20 19  1  0  0  0
 20 18  1  0  0  0
 21 20  2  0  0  0
  2 11  1  0  0  0
 16 17  1  0  0  0
  5 12  1  0  0  0
  7 13  1  0  0  0
  9 14  1  0  0  0
 19 22  1  0  0  0
M  END
> <minimizedAffinity>
-7.67366

$$$$
3D52_GHR_A_1048


 29 30  0  0  0  0  0  0  0  0999 V2000
   28.5465   64.5291   11.2906 C   0  0  0  0  0  0  0  0  0  0  0  0
   29.8064   63.9927   11.0554 N   0  0  0  0  0  0  0  0  0  0  0  0
   30.5445   64.1771    9.7846 C   0  0  0  0  0  0  0  0  0  0  0  0
   29.7143   64.8358    8.6569 C   0  0  0  0  0  0  0  0  0  0  0  0
   30.0706   64.1912    7.4581 O   0  0  0  0  0  0  0  0  0  0  0  0
   28.2195   64.7657    8.8966 C   0  0  0  0  0  0  0  0  0  0  0  0
   27.5632   65.4942    7.8870 O   0  0  0  0  0  0  0  0  0  0  0  0
   27.9453   65.4365   10.2220 C   0  0  0  0  0  0  0  0  0  0  0  0
   26.5650   65.6349   10.4120 O   0  0  0  0  0  0  0  0  0  0  0  0
   27.8664   64.2681   12.4078 N   0  0  0  0  0  0  0  0  0  0  0  0
   30.2299   63.4635   11.7694 H   0  0  0  0  0  0  0  0  0  0  0  0
   29.8589   63.2468    7.5234 H   0  0  0  0  0  0  0  0  0  0  0  0
   27.8768   66.4121    7.8948 H   0  0  0  0  0  0  0  0  0  0  0  0
   26.1082   64.7797   10.3809 H   0  0  0  0  0  0  0  0  0  0  0  0
   31.8669   64.9030   10.0055 C   0  0  0  0  0  0  0  0  0  0  0  0
   32.6577   64.7444    8.8522 O   0  0  0  0  0  0  0  0  0  0  0  0
   32.8121   63.8000    8.6934 H   0  0  0  0  0  0  0  0  0  0  0  0
   28.2636   63.5029   13.4754 O   0  0  0  0  0  0  0  0  0  0  0  0
   27.2725   63.7319   15.5641 N   0  0  0  0  0  0  0  0  0  0  0  0
   27.3994   63.0244   14.4277 C   0  0  0  0  0  0  0  0  0  0  0  0
   26.8340   61.9411   14.3230 O   0  0  0  0  0  0  0  0  0  0  0  0
   26.6824   63.3789   16.2686 H   0  0  0  0  0  0  0  0  0  0  0  0
   30.0793   68.7885   16.5317 Cl  0  0  0  0  0  0  0  0  0  0  0  0
   29.2494   67.2865   16.2540 C   0  0  0  0  0  0  0  0  0  0  0  0
   27.9652   67.2770   15.7434 C   0  0  0  0  0  0  0  0  0  0  0  0
   27.2925   66.0968   15.5097 C   0  0  0  0  0  0  0  0  0  0  0  0
   29.8650   66.0718   16.5317 C   0  0  0  0  0  0  0  0  0  0  0  0
   29.1892   64.8739   16.2989 C   0  0  0  0  0  0  0  0  0  0  0  0
   27.9013   64.8835   15.7885 C   0  0  0  0  0  0  0  0  0  0  0  0
  1 10  2  0  0  0
  2  1  1  0  0  0
  3  2  1  0  0  0
 15  3  1  0  0  0
 15 16  1  0  0  0
  4  3  1  0  0  0
  4  6  1  0  0  0
  5  4  1  0  0  0
  6  8  1  0  0  0
  7  6  1  0  0  0
  8  1  1  0  0  0
  8  9  1  0  0  0
 10 18  1  0  0  0
 24 23  1  0  0  0
 25 24  2  0  0  0
 26 25  1  0  0  0
 27 24  1  0  0  0
 28 27  2  0  0  0
 29 26  2  0  0  0
 29 28  1  0  0  0
 19 29  1  0  0  0
 20 19  1  0  0  0
 20 18  1  0  0  0
 21 20  2  0  0  0
  2 11  1  0  0  0
 16 17  1  0  0  0
  5 12  1  0  0  0
  7 13  1  0  0  0
  9 14  1  0  0  0
 19 22  1  0  0  0
M  END
> <minimizedAffinity>
-7.50289

$$$$
