4EFK_0OC_A_401


 11 11  0  0  0  0  0  0  0  0999 V2000
   14.4643    9.5123    6.2508 S   0  0  0  0  0  0  0  0  0  0  0  0
   14.4545   10.8648    5.4731 O   0  0  0  0  0  0  0  0  0  0  0  0
   13.6567    8.3432    5.7056 O   0  0  0  0  0  0  0  0  0  0  0  0
   13.9113    9.8936    7.9296 C   0  0  0  0  0  0  0  0  0  0  0  0
   12.9620    9.1605    8.5902 C   0  0  0  0  0  0  0  0  0  0  0  0
   12.6538    9.5533    9.8875 C   0  0  0  0  0  0  0  0  0  0  0  0
   13.6842   11.0170   10.0458 S   0  0  0  0  0  0  0  0  0  0  0  0
   14.4303   11.0075    8.4949 C   0  0  0  0  0  0  0  0  0  0  0  0
   17.1208    8.9346    5.6541 C   0  0  0  0  0  0  0  0  0  0  0  0
   16.1338    9.0232    6.7434 N   0  0  0  0  0  0  0  0  0  0  0  0
   16.2264    8.1987    7.9447 C   0  0  0  0  0  0  0  0  0  0  0  0
  9 10  1  0  0  0
 11 10  1  0  0  0
 10  1  1  0  0  0
  2  1  2  0  0  0
  1  3  2  0  0  0
  1  4  1  0  0  0
  4  8  2  0  0  0
  4  5  1  0  0  0
  8  7  1  0  0  0
  5  6  2  0  0  0
  6  7  1  0  0  0
M  END
> <minimizedAffinity>
-4.35497

$$$$
4EFK_0OC_A_401


 11 11  0  0  0  0  0  0  0  0999 V2000
   13.4408    9.8458    8.9825 S   0  0  0  0  0  0  0  0  0  0  0  0
   13.0732   11.2815    8.4951 O   0  0  0  0  0  0  0  0  0  0  0  0
   12.4031    9.0409    9.7519 O   0  0  0  0  0  0  0  0  0  0  0  0
   14.9316   10.0231    9.9903 C   0  0  0  0  0  0  0  0  0  0  0  0
   15.9779    9.1413    9.9418 C   0  0  0  0  0  0  0  0  0  0  0  0
   17.0719    9.4175   10.7537 C   0  0  0  0  0  0  0  0  0  0  0  0
   16.4876   10.8843   11.6118 S   0  0  0  0  0  0  0  0  0  0  0  0
   14.9409   11.0466   10.8747 C   0  0  0  0  0  0  0  0  0  0  0  0
   14.7076    9.6307    6.5136 C   0  0  0  0  0  0  0  0  0  0  0  0
   14.2426    8.8722    7.6871 N   0  0  0  0  0  0  0  0  0  0  0  0
   13.8312    7.4743    7.5955 C   0  0  0  0  0  0  0  0  0  0  0  0
  9 10  1  0  0  0
 11 10  1  0  0  0
 10  1  1  0  0  0
  2  1  2  0  0  0
  1  3  2  0  0  0
  1  4  1  0  0  0
  4  8  2  0  0  0
  4  5  1  0  0  0
  8  7  1  0  0  0
  5  6  2  0  0  0
  6  7  1  0  0  0
M  END
> <minimizedAffinity>
-4.32490

$$$$
4EFK_0OC_A_401


 11 11  0  0  0  0  0  0  0  0999 V2000
   13.7073   10.6675    8.6654 S   0  0  0  0  0  0  0  0  0  0  0  0
   14.3761   10.9257    7.2797 O   0  0  0  0  0  0  0  0  0  0  0  0
   12.7189   11.6898    9.2082 O   0  0  0  0  0  0  0  0  0  0  0  0
   15.0608   10.4553    9.8454 C   0  0  0  0  0  0  0  0  0  0  0  0
   15.2194   11.2440   10.9534 C   0  0  0  0  0  0  0  0  0  0  0  0
   16.2914   10.9490   11.7877 C   0  0  0  0  0  0  0  0  0  0  0  0
   17.0651    9.6088   10.8742 S   0  0  0  0  0  0  0  0  0  0  0  0
   15.9799    9.5102    9.5421 C   0  0  0  0  0  0  0  0  0  0  0  0
   13.2199    8.1367    7.6148 C   0  0  0  0  0  0  0  0  0  0  0  0
   13.0971    8.9727    8.8208 N   0  0  0  0  0  0  0  0  0  0  0  0
   12.0389    8.7656    9.8052 C   0  0  0  0  0  0  0  0  0  0  0  0
  9 10  1  0  0  0
 11 10  1  0  0  0
 10  1  1  0  0  0
  2  1  2  0  0  0
  1  3  2  0  0  0
  1  4  1  0  0  0
  4  8  2  0  0  0
  4  5  1  0  0  0
  8  7  1  0  0  0
  5  6  2  0  0  0
  6  7  1  0  0  0
M  END
> <minimizedAffinity>
-4.27102

$$$$
4EFK_0OC_A_401


 11 11  0  0  0  0  0  0  0  0999 V2000
   14.7452    8.2654    7.8527 S   0  0  0  0  0  0  0  0  0  0  0  0
   16.1892    8.0866    8.4156 O   0  0  0  0  0  0  0  0  0  0  0  0
   13.8271    7.0536    7.7814 O   0  0  0  0  0  0  0  0  0  0  0  0
   14.9339    8.9741    6.1999 C   0  0  0  0  0  0  0  0  0  0  0  0
   13.8722    9.3129    5.4044 C   0  0  0  0  0  0  0  0  0  0  0  0
   14.1667    9.8734    4.1668 C   0  0  0  0  0  0  0  0  0  0  0  0
   15.9618    9.7920    4.1833 S   0  0  0  0  0  0  0  0  0  0  0  0
   16.1994    9.0889    5.7362 C   0  0  0  0  0  0  0  0  0  0  0  0
   14.7501   10.9209    8.6863 C   0  0  0  0  0  0  0  0  0  0  0  0
   13.9177    9.7137    8.5504 N   0  0  0  0  0  0  0  0  0  0  0  0
   12.7988    9.4366    9.4464 C   0  0  0  0  0  0  0  0  0  0  0  0
  9 10  1  0  0  0
 11 10  1  0  0  0
 10  1  1  0  0  0
  2  1  2  0  0  0
  1  3  2  0  0  0
  1  4  1  0  0  0
  4  8  2  0  0  0
  4  5  1  0  0  0
  8  7  1  0  0  0
  5  6  2  0  0  0
  6  7  1  0  0  0
M  END
> <minimizedAffinity>
-4.21136

$$$$
4EFK_0OC_A_401


 11 11  0  0  0  0  0  0  0  0999 V2000
   13.3795   10.2002    9.3505 S   0  0  0  0  0  0  0  0  0  0  0  0
   12.5098    8.9980    9.8327 O   0  0  0  0  0  0  0  0  0  0  0  0
   12.8600   11.6155    9.5589 O   0  0  0  0  0  0  0  0  0  0  0  0
   13.6847    9.9256    7.5895 C   0  0  0  0  0  0  0  0  0  0  0  0
   13.1521    8.8747    6.8918 C   0  0  0  0  0  0  0  0  0  0  0  0
   13.4506    8.8035    5.5360 C   0  0  0  0  0  0  0  0  0  0  0  0
   14.5612   10.2060    5.3657 S   0  0  0  0  0  0  0  0  0  0  0  0
   14.5453   10.7788    6.9885 C   0  0  0  0  0  0  0  0  0  0  0  0
   15.7036    8.6940    9.6267 C   0  0  0  0  0  0  0  0  0  0  0  0
   15.1116   10.0256    9.8385 N   0  0  0  0  0  0  0  0  0  0  0  0
   15.5657   10.9176   10.9015 C   0  0  0  0  0  0  0  0  0  0  0  0
  9 10  1  0  0  0
 11 10  1  0  0  0
 10  1  1  0  0  0
  2  1  2  0  0  0
  1  3  2  0  0  0
  1  4  1  0  0  0
  4  8  2  0  0  0
  4  5  1  0  0  0
  8  7  1  0  0  0
  5  6  2  0  0  0
  6  7  1  0  0  0
M  END
> <minimizedAffinity>
-4.10460

$$$$
4EFK_0OC_A_401


 11 11  0  0  0  0  0  0  0  0999 V2000
   14.9180    8.2055    7.7251 S   0  0  0  0  0  0  0  0  0  0  0  0
   13.7865    7.1328    7.7825 O   0  0  0  0  0  0  0  0  0  0  0  0
   16.3232    7.8180    8.1629 O   0  0  0  0  0  0  0  0  0  0  0  0
   14.3408    9.5990    8.7224 C   0  0  0  0  0  0  0  0  0  0  0  0
   13.1629   10.2546    8.4829 C   0  0  0  0  0  0  0  0  0  0  0  0
   12.8328   11.2919    9.3474 C   0  0  0  0  0  0  0  0  0  0  0  0
   14.2886   11.3233   10.4005 S   0  0  0  0  0  0  0  0  0  0  0  0
   15.1776   10.0301    9.6939 C   0  0  0  0  0  0  0  0  0  0  0  0
   13.6595    9.0543    5.3922 C   0  0  0  0  0  0  0  0  0  0  0  0
   14.9121    9.1174    6.1639 N   0  0  0  0  0  0  0  0  0  0  0  0
   16.2124    9.2873    5.5219 C   0  0  0  0  0  0  0  0  0  0  0  0
  9 10  1  0  0  0
 11 10  1  0  0  0
 10  1  1  0  0  0
  2  1  2  0  0  0
  1  3  2  0  0  0
  1  4  1  0  0  0
  4  8  2  0  0  0
  4  5  1  0  0  0
  8  7  1  0  0  0
  5  6  2  0  0  0
  6  7  1  0  0  0
M  END
> <minimizedAffinity>
-4.08042

$$$$
4EFK_0OC_A_401


 11 11  0  0  0  0  0  0  0  0999 V2000
   15.1595    9.1888    4.2350 S   0  0  0  0  0  0  0  0  0  0  0  0
   13.7800    8.5602    3.8664 O   0  0  0  0  0  0  0  0  0  0  0  0
   16.4310    8.4210    3.9036 O   0  0  0  0  0  0  0  0  0  0  0  0
   15.1029    9.5189    6.0120 C   0  0  0  0  0  0  0  0  0  0  0  0
   14.1640   10.3277    6.5942 C   0  0  0  0  0  0  0  0  0  0  0  0
   14.2253   10.4699    7.9756 C   0  0  0  0  0  0  0  0  0  0  0  0
   15.6939    9.5024    8.3449 S   0  0  0  0  0  0  0  0  0  0  0  0
   16.0979    8.9823    6.7548 C   0  0  0  0  0  0  0  0  0  0  0  0
   14.0139   11.5313    3.2619 C   0  0  0  0  0  0  0  0  0  0  0  0
   15.2636   10.9291    3.7559 N   0  0  0  0  0  0  0  0  0  0  0  0
   16.5763   11.3889    3.3118 C   0  0  0  0  0  0  0  0  0  0  0  0
  9 10  1  0  0  0
 11 10  1  0  0  0
 10  1  1  0  0  0
  2  1  2  0  0  0
  1  3  2  0  0  0
  1  4  1  0  0  0
  4  8  2  0  0  0
  4  5  1  0  0  0
  8  7  1  0  0  0
  5  6  2  0  0  0
  6  7  1  0  0  0
M  END
> <minimizedAffinity>
-4.03694

$$$$
4EFK_0OC_A_401


 11 11  0  0  0  0  0  0  0  0999 V2000
   15.1410    9.7480    8.2904 S   0  0  0  0  0  0  0  0  0  0  0  0
   14.8681   11.2430    8.6436 O   0  0  0  0  0  0  0  0  0  0  0  0
   16.3280    9.0443    8.9325 O   0  0  0  0  0  0  0  0  0  0  0  0
   15.3027    9.6778    6.4908 C   0  0  0  0  0  0  0  0  0  0  0  0
   16.3698    9.1002    5.8565 C   0  0  0  0  0  0  0  0  0  0  0  0
   16.3484    9.0952    4.4666 C   0  0  0  0  0  0  0  0  0  0  0  0
   14.8333   10.0095    4.1538 S   0  0  0  0  0  0  0  0  0  0  0  0
   14.3394   10.3031    5.7761 C   0  0  0  0  0  0  0  0  0  0  0  0
   12.6786    9.1000    9.4143 C   0  0  0  0  0  0  0  0  0  0  0  0
   13.6353    8.7490    8.3513 N   0  0  0  0  0  0  0  0  0  0  0  0
   13.7519    7.3908    7.8284 C   0  0  0  0  0  0  0  0  0  0  0  0
  9 10  1  0  0  0
 11 10  1  0  0  0
 10  1  1  0  0  0
  2  1  2  0  0  0
  1  3  2  0  0  0
  1  4  1  0  0  0
  4  8  2  0  0  0
  4  5  1  0  0  0
  8  7  1  0  0  0
  5  6  2  0  0  0
  6  7  1  0  0  0
M  END
> <minimizedAffinity>
-3.90409

$$$$
4EFK_0OC_A_401


 11 11  0  0  0  0  0  0  0  0999 V2000
   14.1130    8.8575    7.5886 S   0  0  0  0  0  0  0  0  0  0  0  0
   14.1349    7.2987    7.6492 O   0  0  0  0  0  0  0  0  0  0  0  0
   12.7724    9.5772    7.6220 O   0  0  0  0  0  0  0  0  0  0  0  0
   15.0030    9.3147    6.0825 C   0  0  0  0  0  0  0  0  0  0  0  0
   16.3007    8.9517    5.8396 C   0  0  0  0  0  0  0  0  0  0  0  0
   16.8496    9.3512    4.6266 C   0  0  0  0  0  0  0  0  0  0  0  0
   15.4905   10.3098    3.9460 S   0  0  0  0  0  0  0  0  0  0  0  0
   14.3439   10.1164    5.2149 C   0  0  0  0  0  0  0  0  0  0  0  0
   16.0697    8.6540    9.5575 C   0  0  0  0  0  0  0  0  0  0  0  0
   15.3186    9.5988    8.7138 N   0  0  0  0  0  0  0  0  0  0  0  0
   15.0324   10.9648    9.1422 C   0  0  0  0  0  0  0  0  0  0  0  0
  9 10  1  0  0  0
 11 10  1  0  0  0
 10  1  1  0  0  0
  2  1  2  0  0  0
  1  3  2  0  0  0
  1  4  1  0  0  0
  4  8  2  0  0  0
  4  5  1  0  0  0
  8  7  1  0  0  0
  5  6  2  0  0  0
  6  7  1  0  0  0
M  END
> <minimizedAffinity>
-3.89921

$$$$
4EFK_0OC_A_401


 11 11  0  0  0  0  0  0  0  0999 V2000
   14.8408    8.6596    7.8282 S   0  0  0  0  0  0  0  0  0  0  0  0
   14.2274    7.2342    7.9897 O   0  0  0  0  0  0  0  0  0  0  0  0
   15.0066    9.2360    6.4294 O   0  0  0  0  0  0  0  0  0  0  0  0
   16.4494    8.6111    8.6526 C   0  0  0  0  0  0  0  0  0  0  0  0
   16.6087    8.8159    9.9970 C   0  0  0  0  0  0  0  0  0  0  0  0
   17.9017    8.7226   10.4990 C   0  0  0  0  0  0  0  0  0  0  0  0
   18.8267    8.4378    8.9849 S   0  0  0  0  0  0  0  0  0  0  0  0
   17.5281    8.4356    7.8555 C   0  0  0  0  0  0  0  0  0  0  0  0
   12.8128    9.4631    9.5569 C   0  0  0  0  0  0  0  0  0  0  0  0
   14.1112    9.8483    8.9788 N   0  0  0  0  0  0  0  0  0  0  0  0
   14.4872   11.2442    8.7742 C   0  0  0  0  0  0  0  0  0  0  0  0
  9 10  1  0  0  0
 11 10  1  0  0  0
 10  1  1  0  0  0
  2  1  2  0  0  0
  1  3  2  0  0  0
  1  4  1  0  0  0
  4  8  2  0  0  0
  4  5  1  0  0  0
  8  7  1  0  0  0
  5  6  2  0  0  0
  6  7  1  0  0  0
M  END
> <minimizedAffinity>
-3.85020

$$$$
