3L59_BDJ_A_1


 19 20  0  0  0  0  0  0  0  0999 V2000
   21.5239   10.4322   24.6731 C   0  0  0  0  0  0  0  0  0  0  0  0
   21.4421   11.0624   25.8617 N   0  0  0  0  0  0  0  0  0  0  0  0
   18.7233   12.1852   23.9184 O   0  0  0  0  0  0  0  0  0  0  0  0
   19.7298   11.6568   24.3980 C   0  0  0  0  0  0  0  0  0  0  0  0
   20.5407   10.7598   23.8131 N   0  0  0  0  0  0  0  0  0  0  0  0
   20.2696   11.9162   25.7990 C   0  0  0  0  0  0  0  0  0  0  0  0
   22.4783    9.5634   24.3618 N   0  0  0  0  0  0  0  0  0  0  0  0
   19.1811   11.4375   26.7676 C   0  0  0  0  0  0  0  0  0  0  0  0
   20.6485   13.4153   25.9054 C   0  0  0  0  0  0  0  0  0  0  0  0
   22.0573   10.9630   26.6238 H   0  0  0  0  0  0  0  0  0  0  0  0
   23.1811    9.3486   25.0168 H   0  0  0  0  0  0  0  0  0  0  0  0
   20.3878   10.2344   22.4580 C   0  0  0  0  0  0  0  0  0  0  0  0
   21.1703   11.0859   21.4800 C   0  0  0  0  0  0  0  0  0  0  0  0
   21.6366   10.5206   20.2554 C   0  0  0  0  0  0  0  0  0  0  0  0
   22.3713   11.3200   19.3293 C   0  0  0  0  0  0  0  0  0  0  0  0
   22.6379   12.6846   19.6247 C   0  0  0  0  0  0  0  0  0  0  0  0
   22.1754   13.2525   20.8417 C   0  0  0  0  0  0  0  0  0  0  0  0
   21.4409   12.4572   21.7707 C   0  0  0  0  0  0  0  0  0  0  0  0
   22.5081   14.9109   21.1866 Cl  0  0  0  0  0  0  0  0  0  0  0  0
  1  2  1  0  0  0
  1  5  1  0  0  0
  1  7  2  0  0  0
  2  6  1  0  0  0
  3  4  2  0  0  0
  4  5  1  0  0  0
  4  6  1  0  0  0
  5 12  1  0  0  0
  6  8  1  0  0  0
  6  9  1  0  0  0
 12 13  1  0  0  0
 13 14  2  0  0  0
 13 18  1  0  0  0
 14 15  1  0  0  0
 15 16  2  0  0  0
 16 17  1  0  0  0
 17 18  2  0  0  0
 17 19  1  0  0  0
  2 10  1  0  0  0
  7 11  1  0  0  0
M  END
> <minimizedAffinity>
-7.13060

$$$$
3L59_BDJ_A_1


 19 20  0  0  0  0  0  0  0  0999 V2000
   22.1569   10.8661   24.4185 C   0  0  0  0  0  0  0  0  0  0  0  0
   22.5217   11.6619   25.4433 N   0  0  0  0  0  0  0  0  0  0  0  0
   20.7733   13.6866   23.1472 O   0  0  0  0  0  0  0  0  0  0  0  0
   21.3414   12.7973   23.7865 C   0  0  0  0  0  0  0  0  0  0  0  0
   21.4702   11.5030   23.4509 N   0  0  0  0  0  0  0  0  0  0  0  0
   22.0266   12.9910   25.1335 C   0  0  0  0  0  0  0  0  0  0  0  0
   22.4384    9.5704   24.3530 N   0  0  0  0  0  0  0  0  0  0  0  0
   20.9247   13.4156   26.1119 C   0  0  0  0  0  0  0  0  0  0  0  0
   23.1855   14.0036   24.9496 C   0  0  0  0  0  0  0  0  0  0  0  0
   23.0257   11.3941   26.2456 H   0  0  0  0  0  0  0  0  0  0  0  0
   22.9429    9.1388   25.0800 H   0  0  0  0  0  0  0  0  0  0  0  0
   20.9589   10.8886   22.2275 C   0  0  0  0  0  0  0  0  0  0  0  0
   21.9580   11.0629   21.1027 C   0  0  0  0  0  0  0  0  0  0  0  0
   22.9176   10.0408   20.8354 C   0  0  0  0  0  0  0  0  0  0  0  0
   23.8587   10.1992   19.7744 C   0  0  0  0  0  0  0  0  0  0  0  0
   23.8398   11.3766   18.9784 C   0  0  0  0  0  0  0  0  0  0  0  0
   22.8864   12.3966   19.2395 C   0  0  0  0  0  0  0  0  0  0  0  0
   21.9439   12.2430   20.2994 C   0  0  0  0  0  0  0  0  0  0  0  0
   22.8769   13.8213   18.2648 Cl  0  0  0  0  0  0  0  0  0  0  0  0
  1  2  1  0  0  0
  1  5  1  0  0  0
  1  7  2  0  0  0
  2  6  1  0  0  0
  3  4  2  0  0  0
  4  5  1  0  0  0
  4  6  1  0  0  0
  5 12  1  0  0  0
  6  8  1  0  0  0
  6  9  1  0  0  0
 12 13  1  0  0  0
 13 14  2  0  0  0
 13 18  1  0  0  0
 14 15  1  0  0  0
 15 16  2  0  0  0
 16 17  1  0  0  0
 17 18  2  0  0  0
 17 19  1  0  0  0
  2 10  1  0  0  0
  7 11  1  0  0  0
M  END
> <minimizedAffinity>
-7.09084

$$$$
3L59_BDJ_A_1


 19 20  0  0  0  0  0  0  0  0999 V2000
   23.9253   14.1912   18.0975 C   0  0  0  0  0  0  0  0  0  0  0  0
   25.1357   13.9783   17.5440 N   0  0  0  0  0  0  0  0  0  0  0  0
   25.4450   13.2740   20.9846 O   0  0  0  0  0  0  0  0  0  0  0  0
   25.1010   13.5726   19.8379 C   0  0  0  0  0  0  0  0  0  0  0  0
   23.8832   13.9590   19.4233 N   0  0  0  0  0  0  0  0  0  0  0  0
   26.0149   13.5549   18.6189 C   0  0  0  0  0  0  0  0  0  0  0  0
   22.8602   14.5914   17.4133 N   0  0  0  0  0  0  0  0  0  0  0  0
   26.4511   12.0957   18.4378 C   0  0  0  0  0  0  0  0  0  0  0  0
   27.1605   14.5720   18.8537 C   0  0  0  0  0  0  0  0  0  0  0  0
   25.3765   14.0885   16.5958 H   0  0  0  0  0  0  0  0  0  0  0  0
   22.9292   14.7512   16.4443 H   0  0  0  0  0  0  0  0  0  0  0  0
   22.7064   14.1145   20.2757 C   0  0  0  0  0  0  0  0  0  0  0  0
   22.1223   12.7568   20.6065 C   0  0  0  0  0  0  0  0  0  0  0  0
   22.1374   11.7161   19.6299 C   0  0  0  0  0  0  0  0  0  0  0  0
   21.5913   10.4341   19.9383 C   0  0  0  0  0  0  0  0  0  0  0  0
   21.0330   10.1905   21.2225 C   0  0  0  0  0  0  0  0  0  0  0  0
   21.0162   11.2224   22.1983 C   0  0  0  0  0  0  0  0  0  0  0  0
   21.5605   12.5056   21.8946 C   0  0  0  0  0  0  0  0  0  0  0  0
   20.3336   10.9113   23.7531 Cl  0  0  0  0  0  0  0  0  0  0  0  0
  1  2  1  0  0  0
  1  5  1  0  0  0
  1  7  2  0  0  0
  2  6  1  0  0  0
  3  4  2  0  0  0
  4  5  1  0  0  0
  4  6  1  0  0  0
  5 12  1  0  0  0
  6  8  1  0  0  0
  6  9  1  0  0  0
 12 13  1  0  0  0
 13 14  2  0  0  0
 13 18  1  0  0  0
 14 15  1  0  0  0
 15 16  2  0  0  0
 16 17  1  0  0  0
 17 18  2  0  0  0
 17 19  1  0  0  0
  2 10  1  0  0  0
  7 11  1  0  0  0
M  END
> <minimizedAffinity>
-6.91900

$$$$
3L59_BDJ_A_1


 19 20  0  0  0  0  0  0  0  0999 V2000
   25.1732   13.1791   18.4057 C   0  0  0  0  0  0  0  0  0  0  0  0
   26.4903   13.0059   18.6339 N   0  0  0  0  0  0  0  0  0  0  0  0
   24.7778   10.8425   20.8285 O   0  0  0  0  0  0  0  0  0  0  0  0
   25.1492   11.6645   19.9867 C   0  0  0  0  0  0  0  0  0  0  0  0
   24.3803   12.4099   19.1758 N   0  0  0  0  0  0  0  0  0  0  0  0
   26.6022   12.0056   19.6801 C   0  0  0  0  0  0  0  0  0  0  0  0
   24.6843   14.0247   17.5065 N   0  0  0  0  0  0  0  0  0  0  0  0
   27.2372   10.7146   19.1489 C   0  0  0  0  0  0  0  0  0  0  0  0
   27.2466   12.5903   20.9626 C   0  0  0  0  0  0  0  0  0  0  0  0
   27.2317   13.4676   18.1797 H   0  0  0  0  0  0  0  0  0  0  0  0
   25.2954   14.5711   16.9613 H   0  0  0  0  0  0  0  0  0  0  0  0
   22.9193   12.3973   19.1439 C   0  0  0  0  0  0  0  0  0  0  0  0
   22.3675   13.0571   20.3905 C   0  0  0  0  0  0  0  0  0  0  0  0
   21.6661   12.2786   21.3594 C   0  0  0  0  0  0  0  0  0  0  0  0
   21.1474   12.8953   22.5372 C   0  0  0  0  0  0  0  0  0  0  0  0
   21.3315   14.2888   22.7489 C   0  0  0  0  0  0  0  0  0  0  0  0
   22.0294   15.0681   21.7882 C   0  0  0  0  0  0  0  0  0  0  0  0
   22.5494   14.4561   20.6091 C   0  0  0  0  0  0  0  0  0  0  0  0
   22.2439   16.7595   22.0590 Cl  0  0  0  0  0  0  0  0  0  0  0  0
  1  2  1  0  0  0
  1  5  1  0  0  0
  1  7  2  0  0  0
  2  6  1  0  0  0
  3  4  2  0  0  0
  4  5  1  0  0  0
  4  6  1  0  0  0
  5 12  1  0  0  0
  6  8  1  0  0  0
  6  9  1  0  0  0
 12 13  1  0  0  0
 13 14  2  0  0  0
 13 18  1  0  0  0
 14 15  1  0  0  0
 15 16  2  0  0  0
 16 17  1  0  0  0
 17 18  2  0  0  0
 17 19  1  0  0  0
  2 10  1  0  0  0
  7 11  1  0  0  0
M  END
> <minimizedAffinity>
-6.61800

$$$$
3L59_BDJ_A_1


 19 20  0  0  0  0  0  0  0  0999 V2000
   24.3961   10.2642   20.7080 C   0  0  0  0  0  0  0  0  0  0  0  0
   25.6478   10.7499   20.5907 N   0  0  0  0  0  0  0  0  0  0  0  0
   23.5627   12.8092   18.6308 O   0  0  0  0  0  0  0  0  0  0  0  0
   24.0826   11.9655   19.3658 C   0  0  0  0  0  0  0  0  0  0  0  0
   23.4750   10.9551   20.0096 N   0  0  0  0  0  0  0  0  0  0  0  0
   25.5654   11.9014   19.7102 C   0  0  0  0  0  0  0  0  0  0  0  0
   24.0810    9.2037   21.4420 N   0  0  0  0  0  0  0  0  0  0  0  0
   25.8819   13.1998   20.4625 C   0  0  0  0  0  0  0  0  0  0  0  0
   26.3609   11.6760   18.3994 C   0  0  0  0  0  0  0  0  0  0  0  0
   26.4597   10.3935   21.0185 H   0  0  0  0  0  0  0  0  0  0  0  0
   24.7819    8.7234   21.9393 H   0  0  0  0  0  0  0  0  0  0  0  0
   22.0474   10.6482   19.9511 C   0  0  0  0  0  0  0  0  0  0  0  0
   21.3631   11.1193   21.2174 C   0  0  0  0  0  0  0  0  0  0  0  0
   20.5436   10.2197   21.9631 C   0  0  0  0  0  0  0  0  0  0  0  0
   19.8996   10.6583   23.1587 C   0  0  0  0  0  0  0  0  0  0  0  0
   20.0762   11.9941   23.6113 C   0  0  0  0  0  0  0  0  0  0  0  0
   20.8914   12.8933   22.8734 C   0  0  0  0  0  0  0  0  0  0  0  0
   21.5368   12.4596   21.6774 C   0  0  0  0  0  0  0  0  0  0  0  0
   21.0951   14.5127   23.4354 Cl  0  0  0  0  0  0  0  0  0  0  0  0
  1  2  1  0  0  0
  1  5  1  0  0  0
  1  7  2  0  0  0
  2  6  1  0  0  0
  3  4  2  0  0  0
  4  5  1  0  0  0
  4  6  1  0  0  0
  5 12  1  0  0  0
  6  8  1  0  0  0
  6  9  1  0  0  0
 12 13  1  0  0  0
 13 14  2  0  0  0
 13 18  1  0  0  0
 14 15  1  0  0  0
 15 16  2  0  0  0
 16 17  1  0  0  0
 17 18  2  0  0  0
 17 19  1  0  0  0
  2 10  1  0  0  0
  7 11  1  0  0  0
M  END
> <minimizedAffinity>
-6.59300

$$$$
3L59_BDJ_A_1


 19 20  0  0  0  0  0  0  0  0999 V2000
   24.1915   10.4559   20.9170 C   0  0  0  0  0  0  0  0  0  0  0  0
   25.5389   10.4452   20.8847 N   0  0  0  0  0  0  0  0  0  0  0  0
   24.4961   13.3323   19.1509 O   0  0  0  0  0  0  0  0  0  0  0  0
   24.6179   12.2823   19.7872 C   0  0  0  0  0  0  0  0  0  0  0  0
   23.6391   11.5122   20.2905 N   0  0  0  0  0  0  0  0  0  0  0  0
   25.9459   11.6295   20.1503 C   0  0  0  0  0  0  0  0  0  0  0  0
   23.4594    9.5201   21.5094 N   0  0  0  0  0  0  0  0  0  0  0  0
   26.6724   12.6262   21.0619 C   0  0  0  0  0  0  0  0  0  0  0  0
   26.6834   11.2622   18.8376 C   0  0  0  0  0  0  0  0  0  0  0  0
   26.1315    9.7665   21.2816 H   0  0  0  0  0  0  0  0  0  0  0  0
   23.8988    8.7618   21.9579 H   0  0  0  0  0  0  0  0  0  0  0  0
   22.2063   11.7722   20.1667 C   0  0  0  0  0  0  0  0  0  0  0  0
   21.7215   12.5806   21.3522 C   0  0  0  0  0  0  0  0  0  0  0  0
   21.0048   11.9407   22.4075 C   0  0  0  0  0  0  0  0  0  0  0  0
   20.5490   12.6978   23.5281 C   0  0  0  0  0  0  0  0  0  0  0  0
   20.8115   14.0931   23.5963 C   0  0  0  0  0  0  0  0  0  0  0  0
   21.5250   14.7347   22.5492 C   0  0  0  0  0  0  0  0  0  0  0  0
   21.9822   13.9822   21.4268 C   0  0  0  0  0  0  0  0  0  0  0  0
   21.8349   16.4302   22.6461 Cl  0  0  0  0  0  0  0  0  0  0  0  0
  1  2  1  0  0  0
  1  5  1  0  0  0
  1  7  2  0  0  0
  2  6  1  0  0  0
  3  4  2  0  0  0
  4  5  1  0  0  0
  4  6  1  0  0  0
  5 12  1  0  0  0
  6  8  1  0  0  0
  6  9  1  0  0  0
 12 13  1  0  0  0
 13 14  2  0  0  0
 13 18  1  0  0  0
 14 15  1  0  0  0
 15 16  2  0  0  0
 16 17  1  0  0  0
 17 18  2  0  0  0
 17 19  1  0  0  0
  2 10  1  0  0  0
  7 11  1  0  0  0
M  END
> <minimizedAffinity>
-6.47505

$$$$
3L59_BDJ_A_1


 19 20  0  0  0  0  0  0  0  0999 V2000
   25.0767   12.7847   18.3957 C   0  0  0  0  0  0  0  0  0  0  0  0
   26.4033   12.6934   18.6155 N   0  0  0  0  0  0  0  0  0  0  0  0
   24.8268   10.6191   20.9906 O   0  0  0  0  0  0  0  0  0  0  0  0
   25.1469   11.3930   20.0846 C   0  0  0  0  0  0  0  0  0  0  0  0
   24.3322   12.0375   19.2329 N   0  0  0  0  0  0  0  0  0  0  0  0
   26.5774   11.7807   19.7310 C   0  0  0  0  0  0  0  0  0  0  0  0
   24.5356   13.5360   17.4441 N   0  0  0  0  0  0  0  0  0  0  0  0
   27.2694   10.4861   19.2870 C   0  0  0  0  0  0  0  0  0  0  0  0
   27.2071   12.4902   20.9565 C   0  0  0  0  0  0  0  0  0  0  0  0
   27.1154   13.1555   18.1169 H   0  0  0  0  0  0  0  0  0  0  0  0
   25.1122   14.0692   16.8505 H   0  0  0  0  0  0  0  0  0  0  0  0
   22.8734   11.9514   19.2248 C   0  0  0  0  0  0  0  0  0  0  0  0
   22.3085   12.6006   20.4711 C   0  0  0  0  0  0  0  0  0  0  0  0
   22.5639   13.9795   20.7361 C   0  0  0  0  0  0  0  0  0  0  0  0
   22.0308   14.5964   21.9074 C   0  0  0  0  0  0  0  0  0  0  0  0
   21.2403   13.8372   22.8124 C   0  0  0  0  0  0  0  0  0  0  0  0
   20.9823   12.4648   22.5531 C   0  0  0  0  0  0  0  0  0  0  0  0
   21.5134   11.8436   21.3837 C   0  0  0  0  0  0  0  0  0  0  0  0
   20.0214   11.5558   23.6623 Cl  0  0  0  0  0  0  0  0  0  0  0  0
  1  2  1  0  0  0
  1  5  1  0  0  0
  1  7  2  0  0  0
  2  6  1  0  0  0
  3  4  2  0  0  0
  4  5  1  0  0  0
  4  6  1  0  0  0
  5 12  1  0  0  0
  6  8  1  0  0  0
  6  9  1  0  0  0
 12 13  1  0  0  0
 13 14  2  0  0  0
 13 18  1  0  0  0
 14 15  1  0  0  0
 15 16  2  0  0  0
 16 17  1  0  0  0
 17 18  2  0  0  0
 17 19  1  0  0  0
  2 10  1  0  0  0
  7 11  1  0  0  0
M  END
> <minimizedAffinity>
-6.45916

$$$$
3L59_BDJ_A_1


 19 20  0  0  0  0  0  0  0  0999 V2000
   22.7147   10.3321   23.2264 C   0  0  0  0  0  0  0  0  0  0  0  0
   23.0961    9.8515   22.0263 N   0  0  0  0  0  0  0  0  0  0  0  0
   22.1757   13.2192   21.5352 O   0  0  0  0  0  0  0  0  0  0  0  0
   22.4365   12.0844   21.9435 C   0  0  0  0  0  0  0  0  0  0  0  0
   22.3324   11.6231   23.2007 N   0  0  0  0  0  0  0  0  0  0  0  0
   22.9543   10.9420   21.0784 C   0  0  0  0  0  0  0  0  0  0  0  0
   22.7115    9.6135   24.3427 N   0  0  0  0  0  0  0  0  0  0  0  0
   24.3190   11.3978   20.5475 C   0  0  0  0  0  0  0  0  0  0  0  0
   21.8877   10.6256   19.9994 C   0  0  0  0  0  0  0  0  0  0  0  0
   23.4097    8.9391   21.8306 H   0  0  0  0  0  0  0  0  0  0  0  0
   22.9979    8.6718   24.3228 H   0  0  0  0  0  0  0  0  0  0  0  0
   21.8672   12.3941   24.3517 C   0  0  0  0  0  0  0  0  0  0  0  0
   20.3613   12.5468   24.2996 C   0  0  0  0  0  0  0  0  0  0  0  0
   19.7754   13.8482   24.2969 C   0  0  0  0  0  0  0  0  0  0  0  0
   18.3571   13.9969   24.2444 C   0  0  0  0  0  0  0  0  0  0  0  0
   17.5240   12.8465   24.1915 C   0  0  0  0  0  0  0  0  0  0  0  0
   18.1019   11.5490   24.1930 C   0  0  0  0  0  0  0  0  0  0  0  0
   19.5192   11.3953   24.2459 C   0  0  0  0  0  0  0  0  0  0  0  0
   17.0767   10.1616   24.1295 Cl  0  0  0  0  0  0  0  0  0  0  0  0
  1  2  1  0  0  0
  1  5  1  0  0  0
  1  7  2  0  0  0
  2  6  1  0  0  0
  3  4  2  0  0  0
  4  5  1  0  0  0
  4  6  1  0  0  0
  5 12  1  0  0  0
  6  8  1  0  0  0
  6  9  1  0  0  0
 12 13  1  0  0  0
 13 14  2  0  0  0
 13 18  1  0  0  0
 14 15  1  0  0  0
 15 16  2  0  0  0
 16 17  1  0  0  0
 17 18  2  0  0  0
 17 19  1  0  0  0
  2 10  1  0  0  0
  7 11  1  0  0  0
M  END
> <minimizedAffinity>
-6.44131

$$$$
3L59_BDJ_A_1


 19 20  0  0  0  0  0  0  0  0999 V2000
   22.6457   10.3396   23.2866 C   0  0  0  0  0  0  0  0  0  0  0  0
   23.0241    9.8648   22.0833 N   0  0  0  0  0  0  0  0  0  0  0  0
   22.1997   13.2625   21.6302 O   0  0  0  0  0  0  0  0  0  0  0  0
   22.4261   12.1158   22.0252 C   0  0  0  0  0  0  0  0  0  0  0  0
   22.2989   11.6408   23.2753 N   0  0  0  0  0  0  0  0  0  0  0  0
   22.9199   10.9712   21.1490 C   0  0  0  0  0  0  0  0  0  0  0  0
   22.6137    9.6066   24.3931 N   0  0  0  0  0  0  0  0  0  0  0  0
   24.3009   11.3966   20.6353 C   0  0  0  0  0  0  0  0  0  0  0  0
   21.8542   10.6983   20.0573 C   0  0  0  0  0  0  0  0  0  0  0  0
   23.3144    8.9468   21.8779 H   0  0  0  0  0  0  0  0  0  0  0  0
   22.8746    8.6578   24.3628 H   0  0  0  0  0  0  0  0  0  0  0  0
   21.8452   12.4089   24.4328 C   0  0  0  0  0  0  0  0  0  0  0  0
   20.3609   12.6883   24.3206 C   0  0  0  0  0  0  0  0  0  0  0  0
   19.4286   11.6076   24.3260 C   0  0  0  0  0  0  0  0  0  0  0  0
   18.0289   11.8663   24.2239 C   0  0  0  0  0  0  0  0  0  0  0  0
   17.5599   13.2040   24.1194 C   0  0  0  0  0  0  0  0  0  0  0  0
   18.4832   14.2832   24.1143 C   0  0  0  0  0  0  0  0  0  0  0  0
   19.8835   14.0296   24.2156 C   0  0  0  0  0  0  0  0  0  0  0  0
   17.8982   15.9022   23.9855 Cl  0  0  0  0  0  0  0  0  0  0  0  0
  1  2  1  0  0  0
  1  5  1  0  0  0
  1  7  2  0  0  0
  2  6  1  0  0  0
  3  4  2  0  0  0
  4  5  1  0  0  0
  4  6  1  0  0  0
  5 12  1  0  0  0
  6  8  1  0  0  0
  6  9  1  0  0  0
 12 13  1  0  0  0
 13 14  2  0  0  0
 13 18  1  0  0  0
 14 15  1  0  0  0
 15 16  2  0  0  0
 16 17  1  0  0  0
 17 18  2  0  0  0
 17 19  1  0  0  0
  2 10  1  0  0  0
  7 11  1  0  0  0
M  END
> <minimizedAffinity>
-6.33080

$$$$
3L59_BDJ_A_1


 19 20  0  0  0  0  0  0  0  0999 V2000
   22.8791   10.3060   23.1398 C   0  0  0  0  0  0  0  0  0  0  0  0
   23.0271    9.6628   21.9646 N   0  0  0  0  0  0  0  0  0  0  0  0
   23.2870   13.1122   21.2837 O   0  0  0  0  0  0  0  0  0  0  0  0
   23.1626   11.9793   21.7564 C   0  0  0  0  0  0  0  0  0  0  0  0
   22.9574   11.6468   23.0416 N   0  0  0  0  0  0  0  0  0  0  0  0
   23.2271   10.6857   20.9539 C   0  0  0  0  0  0  0  0  0  0  0  0
   22.6759    9.6903   24.2983 N   0  0  0  0  0  0  0  0  0  0  0  0
   24.6435   10.6201   20.3695 C   0  0  0  0  0  0  0  0  0  0  0  0
   22.0749   10.6972   19.9174 C   0  0  0  0  0  0  0  0  0  0  0  0
   23.0042    8.6893   21.8198 H   0  0  0  0  0  0  0  0  0  0  0  0
   22.6244    8.7077   24.3312 H   0  0  0  0  0  0  0  0  0  0  0  0
   22.8275   12.5886   24.1514 C   0  0  0  0  0  0  0  0  0  0  0  0
   21.4878   13.2916   24.0811 C   0  0  0  0  0  0  0  0  0  0  0  0
   21.4289   14.6888   23.7964 C   0  0  0  0  0  0  0  0  0  0  0  0
   20.1686   15.3547   23.7258 C   0  0  0  0  0  0  0  0  0  0  0  0
   18.9672   14.6249   23.9365 C   0  0  0  0  0  0  0  0  0  0  0  0
   19.0201   13.2340   24.2194 C   0  0  0  0  0  0  0  0  0  0  0  0
   20.2776   12.5641   24.2915 C   0  0  0  0  0  0  0  0  0  0  0  0
   17.5524   12.3617   24.4742 Cl  0  0  0  0  0  0  0  0  0  0  0  0
  1  2  1  0  0  0
  1  5  1  0  0  0
  1  7  2  0  0  0
  2  6  1  0  0  0
  3  4  2  0  0  0
  4  5  1  0  0  0
  4  6  1  0  0  0
  5 12  1  0  0  0
  6  8  1  0  0  0
  6  9  1  0  0  0
 12 13  1  0  0  0
 13 14  2  0  0  0
 13 18  1  0  0  0
 14 15  1  0  0  0
 15 16  2  0  0  0
 16 17  1  0  0  0
 17 18  2  0  0  0
 17 19  1  0  0  0
  2 10  1  0  0  0
  7 11  1  0  0  0
M  END
> <minimizedAffinity>
-6.31712

$$$$
