4DMW_UDP_A_602


 31 32  0  0  0  0  0  0  0  0999 V2000
   10.3191   27.3886   19.5712 C   0  0  0  0  0  0  0  0  0  0  0  0
   10.5809   25.9072   19.7247 C   0  0  0  0  0  0  0  0  0  0  0  0
   11.5932   25.7726   20.7105 O   0  0  0  0  0  0  0  0  0  0  0  0
   11.0285   25.4877   18.3314 C   0  0  0  0  0  0  0  0  0  0  0  0
   11.7958   26.7352   17.8869 C   0  0  0  0  0  0  0  0  0  0  0  0
   11.0411   27.8162   18.4326 O   0  0  0  0  0  0  0  0  0  0  0  0
   11.8269   24.3164   18.3315 O   0  0  0  0  0  0  0  0  0  0  0  0
   12.3630   26.3062   20.4584 H   0  0  0  0  0  0  0  0  0  0  0  0
   12.6003   24.4523   18.9010 H   0  0  0  0  0  0  0  0  0  0  0  0
    8.8704   27.5399   19.4003 N   0  0  0  0  0  0  0  0  0  0  0  0
    8.1788   28.2436   20.3627 C   0  0  0  0  0  0  0  0  0  0  0  0
    6.8105   28.4062   20.2513 N   0  0  0  0  0  0  0  0  0  0  0  0
    6.1256   27.8609   19.1769 C   0  0  0  0  0  0  0  0  0  0  0  0
    6.8362   27.1448   18.2116 C   0  0  0  0  0  0  0  0  0  0  0  0
    8.2338   27.2035   18.2301 C   0  0  0  0  0  0  0  0  0  0  0  0
    8.7907   28.7236   21.3130 O   0  0  0  0  0  0  0  0  0  0  0  0
    4.9021   28.0066   19.0880 O   0  0  0  0  0  0  0  0  0  0  0  0
    6.3199   28.9121   20.9389 H   0  0  0  0  0  0  0  0  0  0  0  0
   11.9153   26.8747   16.3676 C   0  0  0  0  0  0  0  0  0  0  0  0
   11.6817   28.2201   15.9991 O   0  0  0  0  0  0  0  0  0  0  0  0
   12.9092   29.2086   15.6425 P   0  0  0  0  0  0  0  0  0  0  0  0
   13.6126   28.7424   14.4060 O   0  0  0  0  0  0  0  0  0  0  0  0
   13.8541   29.1984   16.7925 O   0  0  0  0  0  0  0  0  0  0  0  0
   14.2684   28.3242   16.8628 H   0  0  0  0  0  0  0  0  0  0  0  0
   12.1796   30.6421   15.4658 O   0  0  0  0  0  0  0  0  0  0  0  0
   11.3483   31.5126   16.5555 P   0  0  0  0  0  0  0  0  0  0  0  0
    9.9509   31.7112   16.0874 O   0  0  0  0  0  0  0  0  0  0  0  0
   11.9253   32.8601   16.7560 O   0  0  0  0  0  0  0  0  0  0  0  0
   11.3138   30.8229   17.8717 O   0  0  0  0  0  0  0  0  0  0  0  0
   11.9568   33.3280   15.9069 H   0  0  0  0  0  0  0  0  0  0  0  0
   10.9379   29.9354   17.7619 H   0  0  0  0  0  0  0  0  0  0  0  0
 10 11  1  0  0  0
 10 15  1  0  0  0
 10  1  1  0  0  0
 11 12  1  0  0  0
 11 16  2  0  0  0
 12 13  1  0  0  0
 13 14  1  0  0  0
 13 17  2  0  0  0
 14 15  2  0  0  0
  1  2  1  0  0  0
  1  6  1  0  0  0
  2  3  1  0  0  0
  2  4  1  0  0  0
  4  5  1  0  0  0
  4  7  1  0  0  0
  5  6  1  0  0  0
  5 19  1  0  0  0
 19 20  1  0  0  0
 20 21  1  0  0  0
 21 22  2  0  0  0
 21 23  1  0  0  0
 21 25  1  0  0  0
 25 26  1  0  0  0
 26 27  2  0  0  0
 26 28  1  0  0  0
 26 29  1  0  0  0
 12 18  1  0  0  0
  3  8  1  0  0  0
  7  9  1  0  0  0
 23 24  1  0  0  0
 28 30  1  0  0  0
 29 31  1  0  0  0
M  END
> <minimizedAffinity>
-9.26285

$$$$
4DMW_UDP_A_602


 31 32  0  0  0  0  0  0  0  0999 V2000
    7.3215   28.4148   18.7790 C   0  0  0  0  0  0  0  0  0  0  0  0
    7.6900   27.9271   20.1621 C   0  0  0  0  0  0  0  0  0  0  0  0
    7.7113   29.0695   21.0043 O   0  0  0  0  0  0  0  0  0  0  0  0
    9.0608   27.2983   19.9545 C   0  0  0  0  0  0  0  0  0  0  0  0
    9.6446   28.2250   18.8854 C   0  0  0  0  0  0  0  0  0  0  0  0
    8.5287   28.5351   18.0520 O   0  0  0  0  0  0  0  0  0  0  0  0
    9.8399   27.2568   21.1379 O   0  0  0  0  0  0  0  0  0  0  0  0
    8.3052   29.7377   20.6278 H   0  0  0  0  0  0  0  0  0  0  0  0
    9.9376   28.1545   21.4924 H   0  0  0  0  0  0  0  0  0  0  0  0
    6.4256   27.4046   18.2063 N   0  0  0  0  0  0  0  0  0  0  0  0
    5.1568   27.2963   18.7338 C   0  0  0  0  0  0  0  0  0  0  0  0
    4.2780   26.3535   18.2342 N   0  0  0  0  0  0  0  0  0  0  0  0
    4.6664   25.5099   17.2053 C   0  0  0  0  0  0  0  0  0  0  0  0
    5.9563   25.6250   16.6834 C   0  0  0  0  0  0  0  0  0  0  0  0
    6.7273   26.7347   17.0453 C   0  0  0  0  0  0  0  0  0  0  0  0
    4.8186   28.0457   19.6460 O   0  0  0  0  0  0  0  0  0  0  0  0
    3.8764   24.6667   16.7684 O   0  0  0  0  0  0  0  0  0  0  0  0
    3.3714   26.2808   18.6111 H   0  0  0  0  0  0  0  0  0  0  0  0
   10.7682   27.5867   18.0656 C   0  0  0  0  0  0  0  0  0  0  0  0
   10.8133   28.1843   16.7845 O   0  0  0  0  0  0  0  0  0  0  0  0
   12.2233   28.5824   16.1029 P   0  0  0  0  0  0  0  0  0  0  0  0
   12.5412   27.6480   14.9773 O   0  0  0  0  0  0  0  0  0  0  0  0
   13.2793   28.4887   17.1476 O   0  0  0  0  0  0  0  0  0  0  0  0
   13.3964   27.5614   17.4068 H   0  0  0  0  0  0  0  0  0  0  0  0
   11.9749   30.1074   15.6223 O   0  0  0  0  0  0  0  0  0  0  0  0
   11.5310   31.4007   16.4978 P   0  0  0  0  0  0  0  0  0  0  0  0
   10.1515   31.8151   16.1278 O   0  0  0  0  0  0  0  0  0  0  0  0
   12.4054   32.5694   16.2564 O   0  0  0  0  0  0  0  0  0  0  0  0
   11.5595   31.0932   17.9517 O   0  0  0  0  0  0  0  0  0  0  0  0
   12.4007   32.7870   15.3111 H   0  0  0  0  0  0  0  0  0  0  0  0
   10.9911   30.3281   18.1316 H   0  0  0  0  0  0  0  0  0  0  0  0
 10 11  1  0  0  0
 10 15  1  0  0  0
 10  1  1  0  0  0
 11 12  1  0  0  0
 11 16  2  0  0  0
 12 13  1  0  0  0
 13 14  1  0  0  0
 13 17  2  0  0  0
 14 15  2  0  0  0
  1  2  1  0  0  0
  1  6  1  0  0  0
  2  3  1  0  0  0
  2  4  1  0  0  0
  4  5  1  0  0  0
  4  7  1  0  0  0
  5  6  1  0  0  0
  5 19  1  0  0  0
 19 20  1  0  0  0
 20 21  1  0  0  0
 21 22  2  0  0  0
 21 23  1  0  0  0
 21 25  1  0  0  0
 25 26  1  0  0  0
 26 27  2  0  0  0
 26 28  1  0  0  0
 26 29  1  0  0  0
 12 18  1  0  0  0
  3  8  1  0  0  0
  7  9  1  0  0  0
 23 24  1  0  0  0
 28 30  1  0  0  0
 29 31  1  0  0  0
M  END
> <minimizedAffinity>
-8.91611

$$$$
4DMW_UDP_A_602


 31 32  0  0  0  0  0  0  0  0999 V2000
   12.9658   31.0830   15.7821 C   0  0  0  0  0  0  0  0  0  0  0  0
   11.8611   32.1121   15.6967 C   0  0  0  0  0  0  0  0  0  0  0  0
   11.9829   32.9363   16.8459 O   0  0  0  0  0  0  0  0  0  0  0  0
   10.5969   31.2642   15.6871 C   0  0  0  0  0  0  0  0  0  0  0  0
   11.0107   30.1184   16.6136 C   0  0  0  0  0  0  0  0  0  0  0  0
   12.3857   29.9016   16.3001 O   0  0  0  0  0  0  0  0  0  0  0  0
    9.4531   31.9638   16.1471 O   0  0  0  0  0  0  0  0  0  0  0  0
   11.9744   32.3833   17.6428 H   0  0  0  0  0  0  0  0  0  0  0  0
    9.6185   32.3015   17.0412 H   0  0  0  0  0  0  0  0  0  0  0  0
   13.4725   30.9019   14.4178 N   0  0  0  0  0  0  0  0  0  0  0  0
   14.5571   31.6581   14.0284 C   0  0  0  0  0  0  0  0  0  0  0  0
   15.0663   31.5302   12.7495 N   0  0  0  0  0  0  0  0  0  0  0  0
   14.4891   30.6467   11.8511 C   0  0  0  0  0  0  0  0  0  0  0  0
   13.3870   29.8907   12.2552 C   0  0  0  0  0  0  0  0  0  0  0  0
   13.0519   29.8706   13.6132 C   0  0  0  0  0  0  0  0  0  0  0  0
   15.0637   32.4400   14.8283 O   0  0  0  0  0  0  0  0  0  0  0  0
   14.9473   30.5426   10.7086 O   0  0  0  0  0  0  0  0  0  0  0  0
   15.8430   32.0695   12.4756 H   0  0  0  0  0  0  0  0  0  0  0  0
   10.2019   28.8360   16.4045 C   0  0  0  0  0  0  0  0  0  0  0  0
    8.9083   29.0016   16.9516 O   0  0  0  0  0  0  0  0  0  0  0  0
    8.0494   27.7280   17.4530 P   0  0  0  0  0  0  0  0  0  0  0  0
    8.2663   26.5605   16.5415 O   0  0  0  0  0  0  0  0  0  0  0  0
    6.6116   28.1131   17.4433 O   0  0  0  0  0  0  0  0  0  0  0  0
    6.3195   28.2489   16.5283 H   0  0  0  0  0  0  0  0  0  0  0  0
    8.6050   27.4849   18.9531 O   0  0  0  0  0  0  0  0  0  0  0  0
    8.5585   28.4756   20.2387 P   0  0  0  0  0  0  0  0  0  0  0  0
    9.2545   27.8446   21.3915 O   0  0  0  0  0  0  0  0  0  0  0  0
    7.1750   28.7585   20.6801 O   0  0  0  0  0  0  0  0  0  0  0  0
    9.2219   29.7707   19.9356 O   0  0  0  0  0  0  0  0  0  0  0  0
    6.7235   27.9243   20.8833 H   0  0  0  0  0  0  0  0  0  0  0  0
   10.1324   29.6071   19.6437 H   0  0  0  0  0  0  0  0  0  0  0  0
 10 11  1  0  0  0
 10 15  1  0  0  0
 10  1  1  0  0  0
 11 12  1  0  0  0
 11 16  2  0  0  0
 12 13  1  0  0  0
 13 14  1  0  0  0
 13 17  2  0  0  0
 14 15  2  0  0  0
  1  2  1  0  0  0
  1  6  1  0  0  0
  2  3  1  0  0  0
  2  4  1  0  0  0
  4  5  1  0  0  0
  4  7  1  0  0  0
  5  6  1  0  0  0
  5 19  1  0  0  0
 19 20  1  0  0  0
 20 21  1  0  0  0
 21 22  2  0  0  0
 21 23  1  0  0  0
 21 25  1  0  0  0
 25 26  1  0  0  0
 26 27  2  0  0  0
 26 28  1  0  0  0
 26 29  1  0  0  0
 12 18  1  0  0  0
  3  8  1  0  0  0
  7  9  1  0  0  0
 23 24  1  0  0  0
 28 30  1  0  0  0
 29 31  1  0  0  0
M  END
> <minimizedAffinity>
-8.47570

$$$$
4DMW_UDP_A_602


 31 32  0  0  0  0  0  0  0  0999 V2000
    9.9207   28.7068   18.8606 C   0  0  0  0  0  0  0  0  0  0  0  0
   10.5435   27.6990   17.9209 C   0  0  0  0  0  0  0  0  0  0  0  0
   11.7713   27.2981   18.5095 O   0  0  0  0  0  0  0  0  0  0  0  0
   10.7162   28.4882   16.6306 C   0  0  0  0  0  0  0  0  0  0  0  0
   11.0438   29.8773   17.1834 C   0  0  0  0  0  0  0  0  0  0  0  0
   10.2213   29.9887   18.3439 O   0  0  0  0  0  0  0  0  0  0  0  0
   11.7356   27.9702   15.7927 O   0  0  0  0  0  0  0  0  0  0  0  0
   12.3119   28.0817   18.6954 H   0  0  0  0  0  0  0  0  0  0  0  0
   12.5736   27.9456   16.2805 H   0  0  0  0  0  0  0  0  0  0  0  0
    8.4797   28.4340   18.8681 N   0  0  0  0  0  0  0  0  0  0  0  0
    7.8127   28.5300   20.0704 C   0  0  0  0  0  0  0  0  0  0  0  0
    6.4556   28.2738   20.1311 N   0  0  0  0  0  0  0  0  0  0  0  0
    5.7588   27.9153   18.9879 C   0  0  0  0  0  0  0  0  0  0  0  0
    6.4466   27.8152   17.7770 C   0  0  0  0  0  0  0  0  0  0  0  0
    7.7541   28.3080   17.7082 C   0  0  0  0  0  0  0  0  0  0  0  0
    8.4354   28.8470   21.0802 O   0  0  0  0  0  0  0  0  0  0  0  0
    4.5472   27.6830   19.0522 O   0  0  0  0  0  0  0  0  0  0  0  0
    5.9815   28.3464   20.9909 H   0  0  0  0  0  0  0  0  0  0  0  0
   10.7487   31.0146   16.2028 C   0  0  0  0  0  0  0  0  0  0  0  0
   11.8895   31.8423   16.0857 O   0  0  0  0  0  0  0  0  0  0  0  0
   13.1241   31.4247   15.1306 P   0  0  0  0  0  0  0  0  0  0  0  0
   13.6002   32.6072   14.3457 O   0  0  0  0  0  0  0  0  0  0  0  0
   12.6460   30.3643   14.2019 O   0  0  0  0  0  0  0  0  0  0  0  0
   11.9925   30.7398   13.5914 H   0  0  0  0  0  0  0  0  0  0  0  0
   14.2209   30.8658   16.1809 O   0  0  0  0  0  0  0  0  0  0  0  0
   14.8395   29.3712   16.3218 P   0  0  0  0  0  0  0  0  0  0  0  0
   14.5950   28.6007   15.0737 O   0  0  0  0  0  0  0  0  0  0  0  0
   14.2145   28.6062   17.4233 O   0  0  0  0  0  0  0  0  0  0  0  0
   16.3045   29.4236   16.5672 O   0  0  0  0  0  0  0  0  0  0  0  0
   13.2560   28.5603   17.2817 H   0  0  0  0  0  0  0  0  0  0  0  0
   16.7341   29.9221   15.8546 H   0  0  0  0  0  0  0  0  0  0  0  0
 10 11  1  0  0  0
 10 15  1  0  0  0
 10  1  1  0  0  0
 11 12  1  0  0  0
 11 16  2  0  0  0
 12 13  1  0  0  0
 13 14  1  0  0  0
 13 17  2  0  0  0
 14 15  2  0  0  0
  1  2  1  0  0  0
  1  6  1  0  0  0
  2  3  1  0  0  0
  2  4  1  0  0  0
  4  5  1  0  0  0
  4  7  1  0  0  0
  5  6  1  0  0  0
  5 19  1  0  0  0
 19 20  1  0  0  0
 20 21  1  0  0  0
 21 22  2  0  0  0
 21 23  1  0  0  0
 21 25  1  0  0  0
 25 26  1  0  0  0
 26 27  2  0  0  0
 26 28  1  0  0  0
 26 29  1  0  0  0
 12 18  1  0  0  0
  3  8  1  0  0  0
  7  9  1  0  0  0
 23 24  1  0  0  0
 28 30  1  0  0  0
 29 31  1  0  0  0
M  END
> <minimizedAffinity>
-8.45956

$$$$
4DMW_UDP_A_602


 31 32  0  0  0  0  0  0  0  0999 V2000
   11.2982   25.9762   18.0801 C   0  0  0  0  0  0  0  0  0  0  0  0
   10.4942   25.3750   16.9492 C   0  0  0  0  0  0  0  0  0  0  0  0
   10.8518   24.0031   16.8799 O   0  0  0  0  0  0  0  0  0  0  0  0
   10.9411   26.1823   15.7384 C   0  0  0  0  0  0  0  0  0  0  0  0
   12.4133   26.4243   16.0801 C   0  0  0  0  0  0  0  0  0  0  0  0
   12.4106   26.6230   17.4930 O   0  0  0  0  0  0  0  0  0  0  0  0
   10.7624   25.4935   14.5124 O   0  0  0  0  0  0  0  0  0  0  0  0
   11.8146   23.9239   16.7926 H   0  0  0  0  0  0  0  0  0  0  0  0
   11.2404   24.6500   14.5428 H   0  0  0  0  0  0  0  0  0  0  0  0
   10.4083   26.9161   18.7697 N   0  0  0  0  0  0  0  0  0  0  0  0
   10.3859   26.8882   20.1476 C   0  0  0  0  0  0  0  0  0  0  0  0
    9.5572   27.7484   20.8436 N   0  0  0  0  0  0  0  0  0  0  0  0
    8.7422   28.6392   20.1631 C   0  0  0  0  0  0  0  0  0  0  0  0
    8.7690   28.6537   18.7672 C   0  0  0  0  0  0  0  0  0  0  0  0
    9.7814   27.9459   18.1107 C   0  0  0  0  0  0  0  0  0  0  0  0
   11.1094   26.0961   20.7451 O   0  0  0  0  0  0  0  0  0  0  0  0
    8.0008   29.4007   20.7929 O   0  0  0  0  0  0  0  0  0  0  0  0
    9.5459   27.7281   21.8278 H   0  0  0  0  0  0  0  0  0  0  0  0
   13.0189   27.6354   15.3670 C   0  0  0  0  0  0  0  0  0  0  0  0
   13.0474   28.7372   16.2534 O   0  0  0  0  0  0  0  0  0  0  0  0
   14.2573   29.8073   16.2096 P   0  0  0  0  0  0  0  0  0  0  0  0
   15.1767   29.5093   15.0664 O   0  0  0  0  0  0  0  0  0  0  0  0
   15.0032   29.7077   17.4938 O   0  0  0  0  0  0  0  0  0  0  0  0
   15.4504   28.8483   17.5421 H   0  0  0  0  0  0  0  0  0  0  0  0
   13.4844   31.2212   16.0619 O   0  0  0  0  0  0  0  0  0  0  0  0
   11.9495   31.5966   16.4355 P   0  0  0  0  0  0  0  0  0  0  0  0
   11.0337   31.1077   15.3707 O   0  0  0  0  0  0  0  0  0  0  0  0
   11.7382   33.0571   16.5407 O   0  0  0  0  0  0  0  0  0  0  0  0
   11.5499   30.9765   17.7258 O   0  0  0  0  0  0  0  0  0  0  0  0
   11.9936   33.4817   15.7068 H   0  0  0  0  0  0  0  0  0  0  0  0
   11.6812   30.0166   17.6776 H   0  0  0  0  0  0  0  0  0  0  0  0
 10 11  1  0  0  0
 10 15  1  0  0  0
 10  1  1  0  0  0
 11 12  1  0  0  0
 11 16  2  0  0  0
 12 13  1  0  0  0
 13 14  1  0  0  0
 13 17  2  0  0  0
 14 15  2  0  0  0
  1  2  1  0  0  0
  1  6  1  0  0  0
  2  3  1  0  0  0
  2  4  1  0  0  0
  4  5  1  0  0  0
  4  7  1  0  0  0
  5  6  1  0  0  0
  5 19  1  0  0  0
 19 20  1  0  0  0
 20 21  1  0  0  0
 21 22  2  0  0  0
 21 23  1  0  0  0
 21 25  1  0  0  0
 25 26  1  0  0  0
 26 27  2  0  0  0
 26 28  1  0  0  0
 26 29  1  0  0  0
 12 18  1  0  0  0
  3  8  1  0  0  0
  7  9  1  0  0  0
 23 24  1  0  0  0
 28 30  1  0  0  0
 29 31  1  0  0  0
M  END
> <minimizedAffinity>
-8.17886

$$$$
4DMW_UDP_A_602


 31 32  0  0  0  0  0  0  0  0999 V2000
   12.6732   30.4174   16.5609 C   0  0  0  0  0  0  0  0  0  0  0  0
   11.9396   31.6043   15.9780 C   0  0  0  0  0  0  0  0  0  0  0  0
   12.0847   32.6684   16.9060 O   0  0  0  0  0  0  0  0  0  0  0  0
   10.5092   31.0993   15.8499 C   0  0  0  0  0  0  0  0  0  0  0  0
   10.4097   30.1980   17.0829 C   0  0  0  0  0  0  0  0  0  0  0  0
   11.6994   29.5944   17.1731 O   0  0  0  0  0  0  0  0  0  0  0  0
    9.5484   32.1415   15.8459 O   0  0  0  0  0  0  0  0  0  0  0  0
   11.7785   32.3794   17.7799 H   0  0  0  0  0  0  0  0  0  0  0  0
    9.6418   32.6704   16.6536 H   0  0  0  0  0  0  0  0  0  0  0  0
   13.3411   29.7489   15.4393 N   0  0  0  0  0  0  0  0  0  0  0  0
   14.6262   30.1394   15.1301 C   0  0  0  0  0  0  0  0  0  0  0  0
   15.2951   29.5455   14.0761 N   0  0  0  0  0  0  0  0  0  0  0  0
   14.6787   28.5594   13.3221 C   0  0  0  0  0  0  0  0  0  0  0  0
   13.3743   28.1768   13.6409 C   0  0  0  0  0  0  0  0  0  0  0  0
   12.8226   28.6230   14.8465 C   0  0  0  0  0  0  0  0  0  0  0  0
   15.1669   31.0143   15.8010 O   0  0  0  0  0  0  0  0  0  0  0  0
   15.2818   28.0378   12.3785 O   0  0  0  0  0  0  0  0  0  0  0  0
   16.2142   29.8246   13.8599 H   0  0  0  0  0  0  0  0  0  0  0  0
    9.3206   29.1281   16.9761 C   0  0  0  0  0  0  0  0  0  0  0  0
    8.5074   29.1679   18.1327 O   0  0  0  0  0  0  0  0  0  0  0  0
    8.7463   28.1347   19.3519 P   0  0  0  0  0  0  0  0  0  0  0  0
    7.4380   27.6078   19.8535 O   0  0  0  0  0  0  0  0  0  0  0  0
    9.4446   28.8678   20.4429 O   0  0  0  0  0  0  0  0  0  0  0  0
    8.8496   29.5376   20.8148 H   0  0  0  0  0  0  0  0  0  0  0  0
    9.6843   26.9979   18.6840 O   0  0  0  0  0  0  0  0  0  0  0  0
   11.0469   26.3248   19.2553 P   0  0  0  0  0  0  0  0  0  0  0  0
   11.1276   24.9021   18.8300 O   0  0  0  0  0  0  0  0  0  0  0  0
   11.0990   26.3302   20.7339 O   0  0  0  0  0  0  0  0  0  0  0  0
   12.2465   27.0402   18.7469 O   0  0  0  0  0  0  0  0  0  0  0  0
   10.3230   25.8671   21.0865 H   0  0  0  0  0  0  0  0  0  0  0  0
   12.2315   27.0479   17.7771 H   0  0  0  0  0  0  0  0  0  0  0  0
 10 11  1  0  0  0
 10 15  1  0  0  0
 10  1  1  0  0  0
 11 12  1  0  0  0
 11 16  2  0  0  0
 12 13  1  0  0  0
 13 14  1  0  0  0
 13 17  2  0  0  0
 14 15  2  0  0  0
  1  2  1  0  0  0
  1  6  1  0  0  0
  2  3  1  0  0  0
  2  4  1  0  0  0
  4  5  1  0  0  0
  4  7  1  0  0  0
  5  6  1  0  0  0
  5 19  1  0  0  0
 19 20  1  0  0  0
 20 21  1  0  0  0
 21 22  2  0  0  0
 21 23  1  0  0  0
 21 25  1  0  0  0
 25 26  1  0  0  0
 26 27  2  0  0  0
 26 28  1  0  0  0
 26 29  1  0  0  0
 12 18  1  0  0  0
  3  8  1  0  0  0
  7  9  1  0  0  0
 23 24  1  0  0  0
 28 30  1  0  0  0
 29 31  1  0  0  0
M  END
> <minimizedAffinity>
-8.13207

$$$$
4DMW_UDP_A_602


 31 32  0  0  0  0  0  0  0  0999 V2000
   13.2031   29.8675   16.3964 C   0  0  0  0  0  0  0  0  0  0  0  0
   11.7468   30.2705   16.3366 C   0  0  0  0  0  0  0  0  0  0  0  0
   11.4809   31.0123   17.5171 O   0  0  0  0  0  0  0  0  0  0  0  0
   11.0191   28.9345   16.2803 C   0  0  0  0  0  0  0  0  0  0  0  0
   11.9230   28.0758   17.1682 C   0  0  0  0  0  0  0  0  0  0  0  0
   13.2398   28.5327   16.8630 O   0  0  0  0  0  0  0  0  0  0  0  0
    9.6845   29.0065   16.7527 O   0  0  0  0  0  0  0  0  0  0  0  0
   11.7350   30.4879   18.2926 H   0  0  0  0  0  0  0  0  0  0  0  0
    9.6809   29.3476   17.6607 H   0  0  0  0  0  0  0  0  0  0  0  0
   13.7266   29.9945   15.0323 N   0  0  0  0  0  0  0  0  0  0  0  0
   14.4749   31.1122   14.7316 C   0  0  0  0  0  0  0  0  0  0  0  0
   14.9832   31.2822   13.4572 N   0  0  0  0  0  0  0  0  0  0  0  0
   14.7410   30.3351   12.4747 C   0  0  0  0  0  0  0  0  0  0  0  0
   13.9762   29.2103   12.7897 C   0  0  0  0  0  0  0  0  0  0  0  0
   13.6837   28.9559   14.1338 C   0  0  0  0  0  0  0  0  0  0  0  0
   14.6854   31.9484   15.6058 O   0  0  0  0  0  0  0  0  0  0  0  0
   15.1945   30.4977   11.3371 O   0  0  0  0  0  0  0  0  0  0  0  0
   15.5200   32.0801   13.2466 H   0  0  0  0  0  0  0  0  0  0  0  0
   11.7988   26.5739   16.9017 C   0  0  0  0  0  0  0  0  0  0  0  0
   10.5627   26.1075   17.4065 O   0  0  0  0  0  0  0  0  0  0  0  0
   10.2616   26.1048   18.9940 P   0  0  0  0  0  0  0  0  0  0  0  0
   11.4823   26.5147   19.7575 O   0  0  0  0  0  0  0  0  0  0  0  0
    9.8659   24.7235   19.3825 O   0  0  0  0  0  0  0  0  0  0  0  0
   10.6270   24.1299   19.2860 H   0  0  0  0  0  0  0  0  0  0  0  0
    9.0353   27.1514   19.1314 O   0  0  0  0  0  0  0  0  0  0  0  0
    8.8464   28.3808   20.1751 P   0  0  0  0  0  0  0  0  0  0  0  0
    9.5071   29.6031   19.6449 O   0  0  0  0  0  0  0  0  0  0  0  0
    9.4630   28.1007   21.4905 O   0  0  0  0  0  0  0  0  0  0  0  0
    7.4061   28.6769   20.3922 O   0  0  0  0  0  0  0  0  0  0  0  0
   10.4054   27.9046   21.3707 H   0  0  0  0  0  0  0  0  0  0  0  0
    6.9824   28.8638   19.5399 H   0  0  0  0  0  0  0  0  0  0  0  0
 10 11  1  0  0  0
 10 15  1  0  0  0
 10  1  1  0  0  0
 11 12  1  0  0  0
 11 16  2  0  0  0
 12 13  1  0  0  0
 13 14  1  0  0  0
 13 17  2  0  0  0
 14 15  2  0  0  0
  1  2  1  0  0  0
  1  6  1  0  0  0
  2  3  1  0  0  0
  2  4  1  0  0  0
  4  5  1  0  0  0
  4  7  1  0  0  0
  5  6  1  0  0  0
  5 19  1  0  0  0
 19 20  1  0  0  0
 20 21  1  0  0  0
 21 22  2  0  0  0
 21 23  1  0  0  0
 21 25  1  0  0  0
 25 26  1  0  0  0
 26 27  2  0  0  0
 26 28  1  0  0  0
 26 29  1  0  0  0
 12 18  1  0  0  0
  3  8  1  0  0  0
  7  9  1  0  0  0
 23 24  1  0  0  0
 28 30  1  0  0  0
 29 31  1  0  0  0
M  END
> <minimizedAffinity>
-7.51316

$$$$
4DMW_UDP_A_602


 31 32  0  0  0  0  0  0  0  0999 V2000
   13.6237   30.9033   14.4101 C   0  0  0  0  0  0  0  0  0  0  0  0
   12.9443   31.7877   15.4314 C   0  0  0  0  0  0  0  0  0  0  0  0
   13.9759   32.4492   16.1475 O   0  0  0  0  0  0  0  0  0  0  0  0
   12.1546   30.7981   16.2767 C   0  0  0  0  0  0  0  0  0  0  0  0
   13.0986   29.5934   16.2681 C   0  0  0  0  0  0  0  0  0  0  0  0
   13.6497   29.5971   14.9521 O   0  0  0  0  0  0  0  0  0  0  0  0
   11.8779   31.2766   17.5820 O   0  0  0  0  0  0  0  0  0  0  0  0
   14.5902   31.7921   16.5105 H   0  0  0  0  0  0  0  0  0  0  0  0
   12.7099   31.5020   18.0268 H   0  0  0  0  0  0  0  0  0  0  0  0
   12.8165   30.9825   13.1881 N   0  0  0  0  0  0  0  0  0  0  0  0
   13.1111   31.9820   12.2859 C   0  0  0  0  0  0  0  0  0  0  0  0
   12.3733   32.1039   11.1231 N   0  0  0  0  0  0  0  0  0  0  0  0
   11.3325   31.2275   10.8591 C   0  0  0  0  0  0  0  0  0  0  0  0
   11.0397   30.2230   11.7836 C   0  0  0  0  0  0  0  0  0  0  0  0
   11.9475   29.9837   12.8206 C   0  0  0  0  0  0  0  0  0  0  0  0
   14.0335   32.7562   12.5256 O   0  0  0  0  0  0  0  0  0  0  0  0
   10.6750   31.3470    9.8201 O   0  0  0  0  0  0  0  0  0  0  0  0
   12.5883   32.8170   10.4793 H   0  0  0  0  0  0  0  0  0  0  0  0
   12.3995   28.2626   16.5555 C   0  0  0  0  0  0  0  0  0  0  0  0
   11.0854   28.5114   17.0153 O   0  0  0  0  0  0  0  0  0  0  0  0
   10.2449   27.3673   17.7869 P   0  0  0  0  0  0  0  0  0  0  0  0
   10.8872   26.0288   17.5952 O   0  0  0  0  0  0  0  0  0  0  0  0
    8.8685   27.3501   17.2207 O   0  0  0  0  0  0  0  0  0  0  0  0
    8.9006   27.0398   16.3022 H   0  0  0  0  0  0  0  0  0  0  0  0
   10.2657   27.8769   19.3226 O   0  0  0  0  0  0  0  0  0  0  0  0
    9.0314   28.3551   20.2628 P   0  0  0  0  0  0  0  0  0  0  0  0
    9.3441   28.0795   21.6904 O   0  0  0  0  0  0  0  0  0  0  0  0
    7.7779   27.6321   19.9548 O   0  0  0  0  0  0  0  0  0  0  0  0
    8.7771   29.8110   20.1059 O   0  0  0  0  0  0  0  0  0  0  0  0
    7.9228   26.6779   20.0516 H   0  0  0  0  0  0  0  0  0  0  0  0
    9.5886   30.3042   20.3038 H   0  0  0  0  0  0  0  0  0  0  0  0
 10 11  1  0  0  0
 10 15  1  0  0  0
 10  1  1  0  0  0
 11 12  1  0  0  0
 11 16  2  0  0  0
 12 13  1  0  0  0
 13 14  1  0  0  0
 13 17  2  0  0  0
 14 15  2  0  0  0
  1  2  1  0  0  0
  1  6  1  0  0  0
  2  3  1  0  0  0
  2  4  1  0  0  0
  4  5  1  0  0  0
  4  7  1  0  0  0
  5  6  1  0  0  0
  5 19  1  0  0  0
 19 20  1  0  0  0
 20 21  1  0  0  0
 21 22  2  0  0  0
 21 23  1  0  0  0
 21 25  1  0  0  0
 25 26  1  0  0  0
 26 27  2  0  0  0
 26 28  1  0  0  0
 26 29  1  0  0  0
 12 18  1  0  0  0
  3  8  1  0  0  0
  7  9  1  0  0  0
 23 24  1  0  0  0
 28 30  1  0  0  0
 29 31  1  0  0  0
M  END
> <minimizedAffinity>
-7.33582

$$$$
4DMW_UDP_A_602


 31 32  0  0  0  0  0  0  0  0999 V2000
    8.5210   27.0912   17.5989 C   0  0  0  0  0  0  0  0  0  0  0  0
    8.2389   27.7368   18.9370 C   0  0  0  0  0  0  0  0  0  0  0  0
    6.9737   28.3704   18.8246 O   0  0  0  0  0  0  0  0  0  0  0  0
    9.3957   28.7125   19.1022 C   0  0  0  0  0  0  0  0  0  0  0  0
    9.6104   29.1538   17.6525 C   0  0  0  0  0  0  0  0  0  0  0  0
    9.3777   27.9682   16.8936 O   0  0  0  0  0  0  0  0  0  0  0  0
    9.0951   29.7911   19.9715 O   0  0  0  0  0  0  0  0  0  0  0  0
    6.9808   28.9743   18.0656 H   0  0  0  0  0  0  0  0  0  0  0  0
    8.3106   30.2596   19.6462 H   0  0  0  0  0  0  0  0  0  0  0  0
    9.1582   25.8016   17.8850 N   0  0  0  0  0  0  0  0  0  0  0  0
    8.9100   24.7557   17.0223 C   0  0  0  0  0  0  0  0  0  0  0  0
    9.4803   23.5178   17.2537 N   0  0  0  0  0  0  0  0  0  0  0  0
   10.2996   23.3189   18.3538 C   0  0  0  0  0  0  0  0  0  0  0  0
   10.5385   24.3843   19.2239 C   0  0  0  0  0  0  0  0  0  0  0  0
   10.1439   25.6681   18.8328 C   0  0  0  0  0  0  0  0  0  0  0  0
    8.1825   24.9375   16.0499 O   0  0  0  0  0  0  0  0  0  0  0  0
   10.8008   22.2080   18.5559 O   0  0  0  0  0  0  0  0  0  0  0  0
    9.3035   22.7736   16.6339 H   0  0  0  0  0  0  0  0  0  0  0  0
   11.0126   29.7023   17.3782 C   0  0  0  0  0  0  0  0  0  0  0  0
   11.0838   30.1645   16.0434 O   0  0  0  0  0  0  0  0  0  0  0  0
   11.1254   31.7457   15.7132 P   0  0  0  0  0  0  0  0  0  0  0  0
   11.5972   32.5161   16.9069 O   0  0  0  0  0  0  0  0  0  0  0  0
    9.7467   32.1741   15.3511 O   0  0  0  0  0  0  0  0  0  0  0  0
    9.1733   32.1114   16.1310 H   0  0  0  0  0  0  0  0  0  0  0  0
   12.1388   31.8257   14.4542 O   0  0  0  0  0  0  0  0  0  0  0  0
   12.7106   30.6284   13.5184 P   0  0  0  0  0  0  0  0  0  0  0  0
   11.6147   30.0695   12.6829 O   0  0  0  0  0  0  0  0  0  0  0  0
   13.2545   29.5053   14.3132 O   0  0  0  0  0  0  0  0  0  0  0  0
   13.7861   31.1238   12.6200 O   0  0  0  0  0  0  0  0  0  0  0  0
   12.5667   29.1668   14.9075 H   0  0  0  0  0  0  0  0  0  0  0  0
   13.4491   31.8622   12.0889 H   0  0  0  0  0  0  0  0  0  0  0  0
 10 11  1  0  0  0
 10 15  1  0  0  0
 10  1  1  0  0  0
 11 12  1  0  0  0
 11 16  2  0  0  0
 12 13  1  0  0  0
 13 14  1  0  0  0
 13 17  2  0  0  0
 14 15  2  0  0  0
  1  2  1  0  0  0
  1  6  1  0  0  0
  2  3  1  0  0  0
  2  4  1  0  0  0
  4  5  1  0  0  0
  4  7  1  0  0  0
  5  6  1  0  0  0
  5 19  1  0  0  0
 19 20  1  0  0  0
 20 21  1  0  0  0
 21 22  2  0  0  0
 21 23  1  0  0  0
 21 25  1  0  0  0
 25 26  1  0  0  0
 26 27  2  0  0  0
 26 28  1  0  0  0
 26 29  1  0  0  0
 12 18  1  0  0  0
  3  8  1  0  0  0
  7  9  1  0  0  0
 23 24  1  0  0  0
 28 30  1  0  0  0
 29 31  1  0  0  0
M  END
> <minimizedAffinity>
-7.17478

$$$$
4DMW_UDP_A_602


 31 32  0  0  0  0  0  0  0  0999 V2000
   12.7802   30.5253   16.5046 C   0  0  0  0  0  0  0  0  0  0  0  0
   11.9674   31.6768   15.9566 C   0  0  0  0  0  0  0  0  0  0  0  0
   12.0475   32.7229   16.9127 O   0  0  0  0  0  0  0  0  0  0  0  0
   10.5725   31.0827   15.8198 C   0  0  0  0  0  0  0  0  0  0  0  0
   10.5386   30.1441   17.0283 C   0  0  0  0  0  0  0  0  0  0  0  0
   11.8655   29.6241   17.0976 O   0  0  0  0  0  0  0  0  0  0  0  0
    9.5456   32.0595   15.8474 O   0  0  0  0  0  0  0  0  0  0  0  0
   11.7654   32.3911   17.7794 H   0  0  0  0  0  0  0  0  0  0  0  0
    9.6084   32.5716   16.6688 H   0  0  0  0  0  0  0  0  0  0  0  0
   13.4844   29.9323   15.3629 N   0  0  0  0  0  0  0  0  0  0  0  0
   14.7391   30.4152   15.0593 C   0  0  0  0  0  0  0  0  0  0  0  0
   15.4398   29.8950   13.9871 N   0  0  0  0  0  0  0  0  0  0  0  0
   14.8858   28.8903   13.2096 C   0  0  0  0  0  0  0  0  0  0  0  0
   13.6115   28.4137   13.5233 C   0  0  0  0  0  0  0  0  0  0  0  0
   13.0383   28.7904   14.7425 C   0  0  0  0  0  0  0  0  0  0  0  0
   15.2245   31.3062   15.7510 O   0  0  0  0  0  0  0  0  0  0  0  0
   15.5168   28.4349   12.2502 O   0  0  0  0  0  0  0  0  0  0  0  0
   16.3371   30.2400   13.7748 H   0  0  0  0  0  0  0  0  0  0  0  0
    9.5213   29.0084   16.8963 C   0  0  0  0  0  0  0  0  0  0  0  0
    9.1091   28.5944   18.1844 O   0  0  0  0  0  0  0  0  0  0  0  0
    9.0891   27.0296   18.5870 P   0  0  0  0  0  0  0  0  0  0  0  0
    9.5570   26.8474   19.9973 O   0  0  0  0  0  0  0  0  0  0  0  0
    9.9995   26.3063   17.6578 O   0  0  0  0  0  0  0  0  0  0  0  0
   10.9151   26.5805   17.8235 H   0  0  0  0  0  0  0  0  0  0  0  0
    7.5398   26.6188   18.3650 O   0  0  0  0  0  0  0  0  0  0  0  0
    6.2042   27.5298   18.5148 P   0  0  0  0  0  0  0  0  0  0  0  0
    4.9993   26.6597   18.5660 O   0  0  0  0  0  0  0  0  0  0  0  0
    6.0182   28.4468   17.3688 O   0  0  0  0  0  0  0  0  0  0  0  0
    6.2535   28.3446   19.7569 O   0  0  0  0  0  0  0  0  0  0  0  0
    5.9834   27.9336   16.5464 H   0  0  0  0  0  0  0  0  0  0  0  0
    6.3752   27.7609   20.5219 H   0  0  0  0  0  0  0  0  0  0  0  0
 10 11  1  0  0  0
 10 15  1  0  0  0
 10  1  1  0  0  0
 11 12  1  0  0  0
 11 16  2  0  0  0
 12 13  1  0  0  0
 13 14  1  0  0  0
 13 17  2  0  0  0
 14 15  2  0  0  0
  1  2  1  0  0  0
  1  6  1  0  0  0
  2  3  1  0  0  0
  2  4  1  0  0  0
  4  5  1  0  0  0
  4  7  1  0  0  0
  5  6  1  0  0  0
  5 19  1  0  0  0
 19 20  1  0  0  0
 20 21  1  0  0  0
 21 22  2  0  0  0
 21 23  1  0  0  0
 21 25  1  0  0  0
 25 26  1  0  0  0
 26 27  2  0  0  0
 26 28  1  0  0  0
 26 29  1  0  0  0
 12 18  1  0  0  0
  3  8  1  0  0  0
  7  9  1  0  0  0
 23 24  1  0  0  0
 28 30  1  0  0  0
 29 31  1  0  0  0
M  END
> <minimizedAffinity>
-7.16851

$$$$
