1PB8_DSN_A_901


 11 10  0  0  0  0  0  0  0  0999 V2000
   21.2074   41.8912   40.5731 N   0  0  0  0  0  0  0  0  0  0  0  0
   21.3705   40.4947   40.1028 C   0  0  0  0  0  0  0  0  0  0  0  0
   21.4902   42.5343   39.8336 H   0  0  0  0  0  0  0  0  0  0  0  0
   21.7898   42.0428   41.3966 H   0  0  0  0  0  0  0  0  0  0  0  0
   22.8130   40.2588   39.5948 C   0  0  0  0  0  0  0  0  0  0  0  0
   23.2814   39.1228   39.7262 O   0  0  0  0  0  0  0  0  0  0  0  0
   23.3817   41.2554   39.0778 O   0  0  0  0  0  0  0  0  0  0  0  0
   22.9336   42.0767   39.0277 H   0  0  0  0  0  0  0  0  0  0  0  0
   20.9579   39.5099   41.1806 C   0  0  0  0  0  0  0  0  0  0  0  0
   21.5540   39.7917   42.4146 O   0  0  0  0  0  0  0  0  0  0  0  0
   22.5182   39.7295   42.3296 H   0  0  0  0  0  0  0  0  0  0  0  0
  1  2  1  0  0  0
  2  5  1  0  0  0
  2  9  1  0  0  0
  5  6  2  0  0  0
  5  7  1  0  0  0
  9 10  1  0  0  0
  1  3  1  0  0  0
  1  4  1  0  0  0
  7  8  1  0  0  0
 10 11  1  0  0  0
M  END
> <minimizedAffinity>
-5.26511

$$$$
1PB8_DSN_A_901


 11 10  0  0  0  0  0  0  0  0999 V2000
   23.0968   39.8132   39.7251 N   0  0  0  0  0  0  0  0  0  0  0  0
   21.6791   39.6217   40.1144 C   0  0  0  0  0  0  0  0  0  0  0  0
   23.5947   38.9268   39.8072 H   0  0  0  0  0  0  0  0  0  0  0  0
   23.5280   40.5035   40.3400 H   0  0  0  0  0  0  0  0  0  0  0  0
   21.5846   38.9861   41.5221 C   0  0  0  0  0  0  0  0  0  0  0  0
   21.5804   37.7520   41.5875 O   0  0  0  0  0  0  0  0  0  0  0  0
   21.5304   39.7940   42.4855 O   0  0  0  0  0  0  0  0  0  0  0  0
   21.5399   40.7169   42.3242 H   0  0  0  0  0  0  0  0  0  0  0  0
   20.9078   40.9236   40.0037 C   0  0  0  0  0  0  0  0  0  0  0  0
   21.6327   42.0144   40.4957 O   0  0  0  0  0  0  0  0  0  0  0  0
   21.8228   41.8782   41.4371 H   0  0  0  0  0  0  0  0  0  0  0  0
  1  2  1  0  0  0
  2  5  1  0  0  0
  2  9  1  0  0  0
  5  6  2  0  0  0
  5  7  1  0  0  0
  9 10  1  0  0  0
  1  3  1  0  0  0
  1  4  1  0  0  0
  7  8  1  0  0  0
 10 11  1  0  0  0
M  END
> <minimizedAffinity>
-5.02001

$$$$
1PB8_DSN_A_901


 11 10  0  0  0  0  0  0  0  0999 V2000
   21.5968   38.6048   41.4729 N   0  0  0  0  0  0  0  0  0  0  0  0
   21.6446   39.9574   40.8677 C   0  0  0  0  0  0  0  0  0  0  0  0
   22.5165   38.3652   41.8431 H   0  0  0  0  0  0  0  0  0  0  0  0
   21.3282   37.9238   40.7626 H   0  0  0  0  0  0  0  0  0  0  0  0
   22.7767   40.0410   39.8160 C   0  0  0  0  0  0  0  0  0  0  0  0
   23.2152   38.9754   39.3695 O   0  0  0  0  0  0  0  0  0  0  0  0
   23.1456   41.2018   39.4992 O   0  0  0  0  0  0  0  0  0  0  0  0
   22.7443   41.9470   39.9012 H   0  0  0  0  0  0  0  0  0  0  0  0
   20.2899   40.3463   40.3060 C   0  0  0  0  0  0  0  0  0  0  0  0
   20.2430   41.6879   39.9121 O   0  0  0  0  0  0  0  0  0  0  0  0
   20.4033   42.2566   40.6814 H   0  0  0  0  0  0  0  0  0  0  0  0
  1  2  1  0  0  0
  2  5  1  0  0  0
  2  9  1  0  0  0
  5  6  2  0  0  0
  5  7  1  0  0  0
  9 10  1  0  0  0
  1  3  1  0  0  0
  1  4  1  0  0  0
  7  8  1  0  0  0
 10 11  1  0  0  0
M  END
> <minimizedAffinity>
-4.31376

$$$$
1PB8_DSN_A_901


 11 10  0  0  0  0  0  0  0  0999 V2000
   20.7014   41.2673   40.0959 N   0  0  0  0  0  0  0  0  0  0  0  0
   21.7655   40.4683   40.7496 C   0  0  0  0  0  0  0  0  0  0  0  0
   19.9786   41.4943   40.7790 H   0  0  0  0  0  0  0  0  0  0  0  0
   20.2912   40.7281   39.3334 H   0  0  0  0  0  0  0  0  0  0  0  0
   21.1602   39.2267   41.4470 C   0  0  0  0  0  0  0  0  0  0  0  0
   21.7715   38.1586   41.3334 O   0  0  0  0  0  0  0  0  0  0  0  0
   20.0922   39.4220   42.0834 O   0  0  0  0  0  0  0  0  0  0  0  0
   19.7097   40.2770   42.1056 H   0  0  0  0  0  0  0  0  0  0  0  0
   22.8591   40.1125   39.7599 C   0  0  0  0  0  0  0  0  0  0  0  0
   23.3657   41.2375   39.1002 O   0  0  0  0  0  0  0  0  0  0  0  0
   22.6554   41.6633   38.5951 H   0  0  0  0  0  0  0  0  0  0  0  0
  1  2  1  0  0  0
  2  5  1  0  0  0
  2  9  1  0  0  0
  5  6  2  0  0  0
  5  7  1  0  0  0
  9 10  1  0  0  0
  1  3  1  0  0  0
  1  4  1  0  0  0
  7  8  1  0  0  0
 10 11  1  0  0  0
M  END
> <minimizedAffinity>
-4.22282

$$$$
1PB8_DSN_A_901


 11 10  0  0  0  0  0  0  0  0999 V2000
   21.4844   39.7349   42.1367 N   0  0  0  0  0  0  0  0  0  0  0  0
   21.0927   39.7699   40.7072 C   0  0  0  0  0  0  0  0  0  0  0  0
   20.9200   40.4040   42.6603 H   0  0  0  0  0  0  0  0  0  0  0  0
   22.4707   39.9794   42.2250 H   0  0  0  0  0  0  0  0  0  0  0  0
   21.1753   41.2141   40.1577 C   0  0  0  0  0  0  0  0  0  0  0  0
   22.3019   41.6980   40.0029 O   0  0  0  0  0  0  0  0  0  0  0  0
   20.0739   41.7682   39.9052 O   0  0  0  0  0  0  0  0  0  0  0  0
   19.2720   41.3090   40.0605 H   0  0  0  0  0  0  0  0  0  0  0  0
   21.9144   38.7844   39.8975 C   0  0  0  0  0  0  0  0  0  0  0  0
   23.2343   39.2130   39.7192 O   0  0  0  0  0  0  0  0  0  0  0  0
   23.2388   40.0517   39.2319 H   0  0  0  0  0  0  0  0  0  0  0  0
  1  2  1  0  0  0
  2  5  1  0  0  0
  2  9  1  0  0  0
  5  6  2  0  0  0
  5  7  1  0  0  0
  9 10  1  0  0  0
  1  3  1  0  0  0
  1  4  1  0  0  0
  7  8  1  0  0  0
 10 11  1  0  0  0
M  END
> <minimizedAffinity>
-4.12262

$$$$
1PB8_DSN_A_901


 11 10  0  0  0  0  0  0  0  0999 V2000
   22.8511   38.8103   39.2283 N   0  0  0  0  0  0  0  0  0  0  0  0
   22.4231   39.7222   40.3162 C   0  0  0  0  0  0  0  0  0  0  0  0
   23.7463   39.1243   38.8538 H   0  0  0  0  0  0  0  0  0  0  0  0
   22.1516   38.8148   38.4860 H   0  0  0  0  0  0  0  0  0  0  0  0
   22.4073   41.1878   39.8201 C   0  0  0  0  0  0  0  0  0  0  0  0
   23.1416   41.4717   38.8676 O   0  0  0  0  0  0  0  0  0  0  0  0
   21.6302   41.9653   40.4329 O   0  0  0  0  0  0  0  0  0  0  0  0
   21.1141   41.6453   41.1465 H   0  0  0  0  0  0  0  0  0  0  0  0
   21.0920   39.2832   40.8969 C   0  0  0  0  0  0  0  0  0  0  0  0
   21.0294   39.4682   42.2823 O   0  0  0  0  0  0  0  0  0  0  0  0
   21.7150   38.9326   42.7113 H   0  0  0  0  0  0  0  0  0  0  0  0
  1  2  1  0  0  0
  2  5  1  0  0  0
  2  9  1  0  0  0
  5  6  2  0  0  0
  5  7  1  0  0  0
  9 10  1  0  0  0
  1  3  1  0  0  0
  1  4  1  0  0  0
  7  8  1  0  0  0
 10 11  1  0  0  0
M  END
> <minimizedAffinity>
-4.00417

$$$$
1PB8_DSN_A_901


 11 10  0  0  0  0  0  0  0  0999 V2000
   27.2159   40.2902   46.0566 N   0  0  0  0  0  0  0  0  0  0  0  0
   26.5629   39.0411   46.5164 C   0  0  0  0  0  0  0  0  0  0  0  0
   26.7232   41.0944   46.4452 H   0  0  0  0  0  0  0  0  0  0  0  0
   27.1875   40.3337   45.0380 H   0  0  0  0  0  0  0  0  0  0  0  0
   25.0525   39.0637   46.1806 C   0  0  0  0  0  0  0  0  0  0  0  0
   24.4231   40.0874   46.4692 O   0  0  0  0  0  0  0  0  0  0  0  0
   24.5986   38.0284   45.6275 O   0  0  0  0  0  0  0  0  0  0  0  0
   25.1662   37.3037   45.4524 H   0  0  0  0  0  0  0  0  0  0  0  0
   27.2721   37.8227   45.9557 C   0  0  0  0  0  0  0  0  0  0  0  0
   27.3664   37.8577   44.5603 O   0  0  0  0  0  0  0  0  0  0  0  0
   26.4757   37.8676   44.1761 H   0  0  0  0  0  0  0  0  0  0  0  0
  1  2  1  0  0  0
  2  5  1  0  0  0
  2  9  1  0  0  0
  5  6  2  0  0  0
  5  7  1  0  0  0
  9 10  1  0  0  0
  1  3  1  0  0  0
  1  4  1  0  0  0
  7  8  1  0  0  0
 10 11  1  0  0  0
M  END
> <minimizedAffinity>
-3.99499

$$$$
1PB8_DSN_A_901


 11 10  0  0  0  0  0  0  0  0999 V2000
   27.0465   40.6340   46.3602 N   0  0  0  0  0  0  0  0  0  0  0  0
   25.9358   39.8629   45.7520 C   0  0  0  0  0  0  0  0  0  0  0  0
   27.9289   40.3547   45.9314 H   0  0  0  0  0  0  0  0  0  0  0  0
   27.0813   40.4472   47.3623 H   0  0  0  0  0  0  0  0  0  0  0  0
   26.2161   38.3439   45.8445 C   0  0  0  0  0  0  0  0  0  0  0  0
   27.3924   37.9777   45.7468 O   0  0  0  0  0  0  0  0  0  0  0  0
   25.2090   37.6107   46.0235 O   0  0  0  0  0  0  0  0  0  0  0  0
   24.3558   37.9933   46.0837 H   0  0  0  0  0  0  0  0  0  0  0  0
   24.6056   40.2542   46.3681 C   0  0  0  0  0  0  0  0  0  0  0  0
   23.5276   39.9932   45.5154 O   0  0  0  0  0  0  0  0  0  0  0  0
   23.6256   40.5125   44.7020 H   0  0  0  0  0  0  0  0  0  0  0  0
  1  2  1  0  0  0
  2  5  1  0  0  0
  2  9  1  0  0  0
  5  6  2  0  0  0
  5  7  1  0  0  0
  9 10  1  0  0  0
  1  3  1  0  0  0
  1  4  1  0  0  0
  7  8  1  0  0  0
 10 11  1  0  0  0
M  END
> <minimizedAffinity>
-2.83987

$$$$
1PB8_DSN_A_901


 11 10  0  0  0  0  0  0  0  0999 V2000
   21.8971   41.9411   40.4395 N   0  0  0  0  0  0  0  0  0  0  0  0
   21.3145   40.7097   39.8543 C   0  0  0  0  0  0  0  0  0  0  0  0
   22.8806   42.0094   40.1778 H   0  0  0  0  0  0  0  0  0  0  0  0
   21.8173   41.9053   41.4557 H   0  0  0  0  0  0  0  0  0  0  0  0
   22.1499   39.4708   40.2561 C   0  0  0  0  0  0  0  0  0  0  0  0
   23.2375   39.3130   39.6908 O   0  0  0  0  0  0  0  0  0  0  0  0
   21.6442   38.7324   41.1410 O   0  0  0  0  0  0  0  0  0  0  0  0
   20.8078   38.9445   41.5063 H   0  0  0  0  0  0  0  0  0  0  0  0
   19.8492   40.5766   40.2246 C   0  0  0  0  0  0  0  0  0  0  0  0
   19.1039   41.7026   39.8586 O   0  0  0  0  0  0  0  0  0  0  0  0
   19.4437   42.4814   40.3266 H   0  0  0  0  0  0  0  0  0  0  0  0
  1  2  1  0  0  0
  2  5  1  0  0  0
  2  9  1  0  0  0
  5  6  2  0  0  0
  5  7  1  0  0  0
  9 10  1  0  0  0
  1  3  1  0  0  0
  1  4  1  0  0  0
  7  8  1  0  0  0
 10 11  1  0  0  0
M  END
> <minimizedAffinity>
-2.71455

$$$$
1PB8_DSN_A_901


 11 10  0  0  0  0  0  0  0  0999 V2000
   24.5553   40.7836   46.4977 N   0  0  0  0  0  0  0  0  0  0  0  0
   25.2959   39.6480   45.8977 C   0  0  0  0  0  0  0  0  0  0  0  0
   24.9574   41.6623   46.1712 H   0  0  0  0  0  0  0  0  0  0  0  0
   24.6240   40.7352   47.5142 H   0  0  0  0  0  0  0  0  0  0  0  0
   26.8115   39.7789   46.1811 C   0  0  0  0  0  0  0  0  0  0  0  0
   27.4511   38.7332   46.3380 O   0  0  0  0  0  0  0  0  0  0  0  0
   27.2629   40.9531   46.2164 O   0  0  0  0  0  0  0  0  0  0  0  0
   26.6874   41.6805   46.0837 H   0  0  0  0  0  0  0  0  0  0  0  0
   24.7226   38.3227   46.3633 C   0  0  0  0  0  0  0  0  0  0  0  0
   23.5542   37.9778   45.6752 O   0  0  0  0  0  0  0  0  0  0  0  0
   22.8744   38.6510   45.8347 H   0  0  0  0  0  0  0  0  0  0  0  0
  1  2  1  0  0  0
  2  5  1  0  0  0
  2  9  1  0  0  0
  5  6  2  0  0  0
  5  7  1  0  0  0
  9 10  1  0  0  0
  1  3  1  0  0  0
  1  4  1  0  0  0
  7  8  1  0  0  0
 10 11  1  0  0  0
M  END
> <minimizedAffinity>
-2.70124

$$$$
