3DJP_UA3_A_125


 26 27  0  0  0  0  0  0  0  0999 V2000
   30.9817   40.6889   10.1037 C   0  0  0  0  0  0  0  0  0  0  0  0
   30.0642   40.7443    9.0093 O   0  0  0  0  0  0  0  0  0  0  0  0
   31.6925   39.3407   10.0363 C   0  0  0  0  0  0  0  0  0  0  0  0
   31.0521   38.5361    8.9287 C   0  0  0  0  0  0  0  0  0  0  0  0
   32.0526   38.0156    8.0783 O   0  0  0  0  0  0  0  0  0  0  0  0
   29.9824   39.4710    8.3519 C   0  0  0  0  0  0  0  0  0  0  0  0
   32.5988   38.7420    7.7393 H   0  0  0  0  0  0  0  0  0  0  0  0
   29.8118   39.6785    6.9050 N   0  0  0  0  0  0  0  0  0  0  0  0
   29.4742   38.5878    6.0696 C   0  0  0  0  0  0  0  0  0  0  0  0
   29.4103   37.4396    6.5475 O   0  0  0  0  0  0  0  0  0  0  0  0
   29.2504   38.7998    4.7652 N   0  0  0  0  0  0  0  0  0  0  0  0
   29.3435   40.0218    4.2181 C   0  0  0  0  0  0  0  0  0  0  0  0
   29.1453   40.1635    2.9887 O   0  0  0  0  0  0  0  0  0  0  0  0
   29.6536   41.1234    5.0160 C   0  0  0  0  0  0  0  0  0  0  0  0
   29.8677   40.9142    6.3784 C   0  0  0  0  0  0  0  0  0  0  0  0
   29.0106   38.0365    4.1915 H   0  0  0  0  0  0  0  0  0  0  0  0
   32.6129   41.9538    8.7903 O   0  0  0  0  0  0  0  0  0  0  0  0
   31.9092   41.9011   10.0387 C   0  0  0  0  0  0  0  0  0  0  0  0
   33.1922   42.7316    8.7783 H   0  0  0  0  0  0  0  0  0  0  0  0
   31.3492   38.5388   11.1444 O   0  0  0  0  0  0  0  0  0  0  0  0
   31.4928   36.5079   12.8449 O   0  0  0  0  0  0  0  0  0  0  0  0
   32.4495   37.5634   11.7830 P   0  0  0  0  0  0  0  0  0  0  0  0
   33.5135   38.3918   12.6434 O   0  0  0  0  0  0  0  0  0  0  0  0
   33.3156   36.6643   10.5218 O   0  0  0  0  0  0  0  0  0  0  0  0
   31.0411   37.0459   13.5138 H   0  0  0  0  0  0  0  0  0  0  0  0
   32.6806   36.1570    9.9923 H   0  0  0  0  0  0  0  0  0  0  0  0
  8  9  1  0  0  0
  8 15  1  0  0  0
  8  6  1  0  0  0
  9 10  2  0  0  0
  9 11  1  0  0  0
 11 12  1  0  0  0
 12 13  2  0  0  0
 12 14  1  0  0  0
 14 15  2  0  0  0
 17 18  1  0  0  0
 18  1  1  0  0  0
  1  2  1  0  0  0
  1  3  1  0  0  0
  2  6  1  0  0  0
  3 20  1  0  0  0
  3  4  1  0  0  0
 20 22  1  0  0  0
  4  5  1  0  0  0
  4  6  1  0  0  0
 21 22  1  0  0  0
 22 23  2  0  0  0
 22 24  1  0  0  0
 11 16  1  0  0  0
 17 19  1  0  0  0
  5  7  1  0  0  0
 21 25  1  0  0  0
 24 26  1  0  0  0
M  END
> <minimizedAffinity>
-7.17139

$$$$
3DJP_UA3_A_125


 26 27  0  0  0  0  0  0  0  0999 V2000
   29.4593   41.7806    4.4574 C   0  0  0  0  0  0  0  0  0  0  0  0
   30.2265   41.6810    5.6591 O   0  0  0  0  0  0  0  0  0  0  0  0
   28.9727   40.3775    4.1083 C   0  0  0  0  0  0  0  0  0  0  0  0
   29.6056   39.4131    5.0848 C   0  0  0  0  0  0  0  0  0  0  0  0
   28.6130   38.5726    5.6354 O   0  0  0  0  0  0  0  0  0  0  0  0
   30.4383   40.3061    6.0123 C   0  0  0  0  0  0  0  0  0  0  0  0
   27.9219   39.1149    6.0467 H   0  0  0  0  0  0  0  0  0  0  0  0
   30.4089   40.1682    7.4772 N   0  0  0  0  0  0  0  0  0  0  0  0
   30.8785   38.9799    8.0848 C   0  0  0  0  0  0  0  0  0  0  0  0
   31.2319   38.0201    7.3742 O   0  0  0  0  0  0  0  0  0  0  0  0
   30.9148   38.8917    9.4216 N   0  0  0  0  0  0  0  0  0  0  0  0
   30.5102   39.8989   10.2110 C   0  0  0  0  0  0  0  0  0  0  0  0
   30.5443   39.7584   11.4560 O   0  0  0  0  0  0  0  0  0  0  0  0
   30.0611   41.0929    9.6463 C   0  0  0  0  0  0  0  0  0  0  0  0
   30.0398   41.2002    8.2556 C   0  0  0  0  0  0  0  0  0  0  0  0
   31.2480   38.0636    9.8369 H   0  0  0  0  0  0  0  0  0  0  0  0
   27.6110   43.0261    3.4483 O   0  0  0  0  0  0  0  0  0  0  0  0
   28.3467   42.8079    4.6597 C   0  0  0  0  0  0  0  0  0  0  0  0
   26.9135   43.6811    3.6072 H   0  0  0  0  0  0  0  0  0  0  0  0
   29.5638   39.9274    2.9096 O   0  0  0  0  0  0  0  0  0  0  0  0
   29.1317   38.7743    0.5600 O   0  0  0  0  0  0  0  0  0  0  0  0
   28.8521   40.2497    1.5098 P   0  0  0  0  0  0  0  0  0  0  0  0
   29.5425   41.5036    0.7957 O   0  0  0  0  0  0  0  0  0  0  0  0
   27.1279   40.6034    1.7359 O   0  0  0  0  0  0  0  0  0  0  0  0
   30.0857   38.6264    0.4657 H   0  0  0  0  0  0  0  0  0  0  0  0
   26.6972   39.8497    2.1687 H   0  0  0  0  0  0  0  0  0  0  0  0
  8  9  1  0  0  0
  8 15  1  0  0  0
  8  6  1  0  0  0
  9 10  2  0  0  0
  9 11  1  0  0  0
 11 12  1  0  0  0
 12 13  2  0  0  0
 12 14  1  0  0  0
 14 15  2  0  0  0
 17 18  1  0  0  0
 18  1  1  0  0  0
  1  2  1  0  0  0
  1  3  1  0  0  0
  2  6  1  0  0  0
  3 20  1  0  0  0
  3  4  1  0  0  0
 20 22  1  0  0  0
  4  5  1  0  0  0
  4  6  1  0  0  0
 21 22  1  0  0  0
 22 23  2  0  0  0
 22 24  1  0  0  0
 11 16  1  0  0  0
 17 19  1  0  0  0
  5  7  1  0  0  0
 21 25  1  0  0  0
 24 26  1  0  0  0
M  END
> <minimizedAffinity>
-6.65183

$$$$
3DJP_UA3_A_125


 26 27  0  0  0  0  0  0  0  0999 V2000
   29.0831   39.3203    5.3685 C   0  0  0  0  0  0  0  0  0  0  0  0
   29.3186   40.2849    6.3964 O   0  0  0  0  0  0  0  0  0  0  0  0
   29.4937   39.9551    4.0434 C   0  0  0  0  0  0  0  0  0  0  0  0
   29.8539   41.3977    4.3147 C   0  0  0  0  0  0  0  0  0  0  0  0
   31.1077   41.6926    3.7349 O   0  0  0  0  0  0  0  0  0  0  0  0
   29.6658   41.5563    5.8281 C   0  0  0  0  0  0  0  0  0  0  0  0
   31.7742   41.0750    4.0744 H   0  0  0  0  0  0  0  0  0  0  0  0
   30.6649   42.2170    6.6832 N   0  0  0  0  0  0  0  0  0  0  0  0
   30.6149   43.6177    6.8757 C   0  0  0  0  0  0  0  0  0  0  0  0
   29.7805   44.2984    6.2501 O   0  0  0  0  0  0  0  0  0  0  0  0
   31.4844   44.2005    7.7128 N   0  0  0  0  0  0  0  0  0  0  0  0
   32.4141   43.4950    8.3753 C   0  0  0  0  0  0  0  0  0  0  0  0
   33.2179   44.0905    9.1305 O   0  0  0  0  0  0  0  0  0  0  0  0
   32.4787   42.1094    8.2258 C   0  0  0  0  0  0  0  0  0  0  0  0
   31.5639   41.4928    7.3721 C   0  0  0  0  0  0  0  0  0  0  0  0
   31.4397   45.1750    7.8455 H   0  0  0  0  0  0  0  0  0  0  0  0
   30.9049   38.2795    6.6269 O   0  0  0  0  0  0  0  0  0  0  0  0
   29.8272   38.0315    5.7141 C   0  0  0  0  0  0  0  0  0  0  0  0
   31.3574   37.4453    6.8272 H   0  0  0  0  0  0  0  0  0  0  0  0
   28.3717   40.1410    3.2095 O   0  0  0  0  0  0  0  0  0  0  0  0
   26.9420   40.6401    1.0314 O   0  0  0  0  0  0  0  0  0  0  0  0
   28.5835   40.3178    1.6303 P   0  0  0  0  0  0  0  0  0  0  0  0
   29.1533   38.9726    0.9786 O   0  0  0  0  0  0  0  0  0  0  0  0
   29.7133   41.6409    1.2811 O   0  0  0  0  0  0  0  0  0  0  0  0
   26.3661   39.8899    1.2468 H   0  0  0  0  0  0  0  0  0  0  0  0
   29.3787   42.4634    1.6715 H   0  0  0  0  0  0  0  0  0  0  0  0
  8  9  1  0  0  0
  8 15  1  0  0  0
  8  6  1  0  0  0
  9 10  2  0  0  0
  9 11  1  0  0  0
 11 12  1  0  0  0
 12 13  2  0  0  0
 12 14  1  0  0  0
 14 15  2  0  0  0
 17 18  1  0  0  0
 18  1  1  0  0  0
  1  2  1  0  0  0
  1  3  1  0  0  0
  2  6  1  0  0  0
  3 20  1  0  0  0
  3  4  1  0  0  0
 20 22  1  0  0  0
  4  5  1  0  0  0
  4  6  1  0  0  0
 21 22  1  0  0  0
 22 23  2  0  0  0
 22 24  1  0  0  0
 11 16  1  0  0  0
 17 19  1  0  0  0
  5  7  1  0  0  0
 21 25  1  0  0  0
 24 26  1  0  0  0
M  END
> <minimizedAffinity>
-6.55253

$$$$
3DJP_UA3_A_125


 26 27  0  0  0  0  0  0  0  0999 V2000
   30.8676   41.1745    8.0527 C   0  0  0  0  0  0  0  0  0  0  0  0
   31.6903   40.5820    9.0599 O   0  0  0  0  0  0  0  0  0  0  0  0
   30.2055   40.0395    7.2775 C   0  0  0  0  0  0  0  0  0  0  0  0
   30.7839   38.7373    7.7815 C   0  0  0  0  0  0  0  0  0  0  0  0
   29.7382   37.8400    8.0918 O   0  0  0  0  0  0  0  0  0  0  0  0
   31.7669   39.1601    8.8798 C   0  0  0  0  0  0  0  0  0  0  0  0
   29.1390   38.2516    8.7341 H   0  0  0  0  0  0  0  0  0  0  0  0
   31.8112   38.5028   10.1957 N   0  0  0  0  0  0  0  0  0  0  0  0
   32.6169   37.3555   10.3859 C   0  0  0  0  0  0  0  0  0  0  0  0
   33.2159   36.8531    9.4164 O   0  0  0  0  0  0  0  0  0  0  0  0
   32.7070   36.8067   11.6053 N   0  0  0  0  0  0  0  0  0  0  0  0
   32.0471   37.3089   12.6606 C   0  0  0  0  0  0  0  0  0  0  0  0
   32.1481   36.7458   13.7758 O   0  0  0  0  0  0  0  0  0  0  0  0
   31.2604   38.4517   12.5142 C   0  0  0  0  0  0  0  0  0  0  0  0
   31.1779   39.0409   11.2524 C   0  0  0  0  0  0  0  0  0  0  0  0
   33.2740   36.0117   11.7307 H   0  0  0  0  0  0  0  0  0  0  0  0
   28.5481   41.9226    8.2675 O   0  0  0  0  0  0  0  0  0  0  0  0
   29.8923   42.1470    8.7137 C   0  0  0  0  0  0  0  0  0  0  0  0
   27.9534   42.5530    8.7030 H   0  0  0  0  0  0  0  0  0  0  0  0
   30.6681   40.0076    5.9456 O   0  0  0  0  0  0  0  0  0  0  0  0
   31.0179   41.3900    3.7087 O   0  0  0  0  0  0  0  0  0  0  0  0
   29.7929   40.6925    4.7902 P   0  0  0  0  0  0  0  0  0  0  0  0
   28.8646   41.8492    5.3896 O   0  0  0  0  0  0  0  0  0  0  0  0
   28.7603   39.4993    3.9783 O   0  0  0  0  0  0  0  0  0  0  0  0
   31.5535   42.0332    4.1989 H   0  0  0  0  0  0  0  0  0  0  0  0
   29.3121   38.7916    3.6100 H   0  0  0  0  0  0  0  0  0  0  0  0
  8  9  1  0  0  0
  8 15  1  0  0  0
  8  6  1  0  0  0
  9 10  2  0  0  0
  9 11  1  0  0  0
 11 12  1  0  0  0
 12 13  2  0  0  0
 12 14  1  0  0  0
 14 15  2  0  0  0
 17 18  1  0  0  0
 18  1  1  0  0  0
  1  2  1  0  0  0
  1  3  1  0  0  0
  2  6  1  0  0  0
  3 20  1  0  0  0
  3  4  1  0  0  0
 20 22  1  0  0  0
  4  5  1  0  0  0
  4  6  1  0  0  0
 21 22  1  0  0  0
 22 23  2  0  0  0
 22 24  1  0  0  0
 11 16  1  0  0  0
 17 19  1  0  0  0
  5  7  1  0  0  0
 21 25  1  0  0  0
 24 26  1  0  0  0
M  END
> <minimizedAffinity>
-6.42428

$$$$
3DJP_UA3_A_125


 26 27  0  0  0  0  0  0  0  0999 V2000
   30.0566   39.6239    5.4270 C   0  0  0  0  0  0  0  0  0  0  0  0
   29.8925   39.7785    4.0157 O   0  0  0  0  0  0  0  0  0  0  0  0
   29.9812   41.0141    6.0508 C   0  0  0  0  0  0  0  0  0  0  0  0
   29.9048   42.0211    4.9264 C   0  0  0  0  0  0  0  0  0  0  0  0
   28.8372   42.9159    5.1600 O   0  0  0  0  0  0  0  0  0  0  0  0
   29.9093   41.1671    3.6529 C   0  0  0  0  0  0  0  0  0  0  0  0
   28.0129   42.4154    5.2647 H   0  0  0  0  0  0  0  0  0  0  0  0
   28.9660   41.3941    2.5464 N   0  0  0  0  0  0  0  0  0  0  0  0
   29.3444   42.2042    1.4500 C   0  0  0  0  0  0  0  0  0  0  0  0
   30.4407   42.7948    1.4670 O   0  0  0  0  0  0  0  0  0  0  0  0
   28.5062   42.3466    0.4139 N   0  0  0  0  0  0  0  0  0  0  0  0
   27.3059   41.7470    0.3840 C   0  0  0  0  0  0  0  0  0  0  0  0
   26.5500   41.9293   -0.5991 O   0  0  0  0  0  0  0  0  0  0  0  0
   26.9087   40.9241    1.4382 C   0  0  0  0  0  0  0  0  0  0  0  0
   27.7842   40.7543    2.5109 C   0  0  0  0  0  0  0  0  0  0  0  0
   28.7791   42.9076   -0.3477 H   0  0  0  0  0  0  0  0  0  0  0  0
   29.2563   38.2898    7.3151 O   0  0  0  0  0  0  0  0  0  0  0  0
   29.0124   38.6365    5.9453 C   0  0  0  0  0  0  0  0  0  0  0  0
   28.5793   37.6635    7.6156 H   0  0  0  0  0  0  0  0  0  0  0  0
   31.2221   41.3772    6.6138 O   0  0  0  0  0  0  0  0  0  0  0  0
   31.7618   39.4862    8.3943 O   0  0  0  0  0  0  0  0  0  0  0  0
   31.4465   41.2233    8.1937 P   0  0  0  0  0  0  0  0  0  0  0  0
   30.1287   41.6405    8.9989 O   0  0  0  0  0  0  0  0  0  0  0  0
   32.7952   42.2339    8.7492 O   0  0  0  0  0  0  0  0  0  0  0  0
   30.9975   38.9801    8.0771 H   0  0  0  0  0  0  0  0  0  0  0  0
   33.6014   41.9904    8.2679 H   0  0  0  0  0  0  0  0  0  0  0  0
  8  9  1  0  0  0
  8 15  1  0  0  0
  8  6  1  0  0  0
  9 10  2  0  0  0
  9 11  1  0  0  0
 11 12  1  0  0  0
 12 13  2  0  0  0
 12 14  1  0  0  0
 14 15  2  0  0  0
 17 18  1  0  0  0
 18  1  1  0  0  0
  1  2  1  0  0  0
  1  3  1  0  0  0
  2  6  1  0  0  0
  3 20  1  0  0  0
  3  4  1  0  0  0
 20 22  1  0  0  0
  4  5  1  0  0  0
  4  6  1  0  0  0
 21 22  1  0  0  0
 22 23  2  0  0  0
 22 24  1  0  0  0
 11 16  1  0  0  0
 17 19  1  0  0  0
  5  7  1  0  0  0
 21 25  1  0  0  0
 24 26  1  0  0  0
M  END
> <minimizedAffinity>
-6.41903

$$$$
3DJP_UA3_A_125


 26 27  0  0  0  0  0  0  0  0999 V2000
   29.6285   39.0175    7.4236 C   0  0  0  0  0  0  0  0  0  0  0  0
   29.8034   38.5392    8.7590 O   0  0  0  0  0  0  0  0  0  0  0  0
   30.5879   40.1874    7.2279 C   0  0  0  0  0  0  0  0  0  0  0  0
   31.2441   40.4739    8.5590 C   0  0  0  0  0  0  0  0  0  0  0  0
   32.6443   40.5543    8.3922 O   0  0  0  0  0  0  0  0  0  0  0  0
   30.6557   39.4205    9.5052 C   0  0  0  0  0  0  0  0  0  0  0  0
   32.9695   39.7344    7.9886 H   0  0  0  0  0  0  0  0  0  0  0  0
   31.4902   38.6304   10.4245 N   0  0  0  0  0  0  0  0  0  0  0  0
   32.4061   37.6828    9.9100 C   0  0  0  0  0  0  0  0  0  0  0  0
   32.4394   37.4566    8.6858 O   0  0  0  0  0  0  0  0  0  0  0  0
   33.2125   37.0200   10.7507 N   0  0  0  0  0  0  0  0  0  0  0  0
   33.1754   37.2214   12.0771 C   0  0  0  0  0  0  0  0  0  0  0  0
   33.9360   36.5605   12.8225 O   0  0  0  0  0  0  0  0  0  0  0  0
   32.2995   38.1634   12.6172 C   0  0  0  0  0  0  0  0  0  0  0  0
   31.4714   38.8723   11.7467 C   0  0  0  0  0  0  0  0  0  0  0  0
   33.8509   36.3662   10.3845 H   0  0  0  0  0  0  0  0  0  0  0  0
   29.3159   38.1755    5.1479 O   0  0  0  0  0  0  0  0  0  0  0  0
   29.8305   37.8590    6.4484 C   0  0  0  0  0  0  0  0  0  0  0  0
   29.4580   37.4234    4.5521 H   0  0  0  0  0  0  0  0  0  0  0  0
   29.8770   41.3918    7.0471 O   0  0  0  0  0  0  0  0  0  0  0  0
   31.6210   43.3439    6.6170 O   0  0  0  0  0  0  0  0  0  0  0  0
   30.3129   42.3966    5.8764 P   0  0  0  0  0  0  0  0  0  0  0  0
   29.0998   43.3567    5.4696 O   0  0  0  0  0  0  0  0  0  0  0  0
   30.8413   41.5073    4.4346 O   0  0  0  0  0  0  0  0  0  0  0  0
   31.2815   43.8089    7.3977 H   0  0  0  0  0  0  0  0  0  0  0  0
   31.5777   40.9207    4.6683 H   0  0  0  0  0  0  0  0  0  0  0  0
  8  9  1  0  0  0
  8 15  1  0  0  0
  8  6  1  0  0  0
  9 10  2  0  0  0
  9 11  1  0  0  0
 11 12  1  0  0  0
 12 13  2  0  0  0
 12 14  1  0  0  0
 14 15  2  0  0  0
 17 18  1  0  0  0
 18  1  1  0  0  0
  1  2  1  0  0  0
  1  3  1  0  0  0
  2  6  1  0  0  0
  3 20  1  0  0  0
  3  4  1  0  0  0
 20 22  1  0  0  0
  4  5  1  0  0  0
  4  6  1  0  0  0
 21 22  1  0  0  0
 22 23  2  0  0  0
 22 24  1  0  0  0
 11 16  1  0  0  0
 17 19  1  0  0  0
  5  7  1  0  0  0
 21 25  1  0  0  0
 24 26  1  0  0  0
M  END
> <minimizedAffinity>
-6.16570

$$$$
3DJP_UA3_A_125


 26 27  0  0  0  0  0  0  0  0999 V2000
   30.8563   42.7372    8.3005 C   0  0  0  0  0  0  0  0  0  0  0  0
   30.5514   43.0476    6.9392 O   0  0  0  0  0  0  0  0  0  0  0  0
   29.9035   41.6302    8.7412 C   0  0  0  0  0  0  0  0  0  0  0  0
   28.9204   41.3930    7.6181 C   0  0  0  0  0  0  0  0  0  0  0  0
   28.8493   40.0119    7.3310 O   0  0  0  0  0  0  0  0  0  0  0  0
   29.3569   42.3708    6.5206 C   0  0  0  0  0  0  0  0  0  0  0  0
   29.7362   39.6789    7.1225 H   0  0  0  0  0  0  0  0  0  0  0  0
   29.4923   41.9676    5.1118 N   0  0  0  0  0  0  0  0  0  0  0  0
   30.3432   40.8925    4.7629 C   0  0  0  0  0  0  0  0  0  0  0  0
   31.0431   40.3489    5.6380 O   0  0  0  0  0  0  0  0  0  0  0  0
   30.4048   40.4863    3.4872 N   0  0  0  0  0  0  0  0  0  0  0  0
   29.6854   41.0748    2.5191 C   0  0  0  0  0  0  0  0  0  0  0  0
   29.7948   40.6709    1.3376 O   0  0  0  0  0  0  0  0  0  0  0  0
   28.8201   42.1239    2.8303 C   0  0  0  0  0  0  0  0  0  0  0  0
   28.7349   42.5390    4.1594 C   0  0  0  0  0  0  0  0  0  0  0  0
   30.9952   39.7339    3.2534 H   0  0  0  0  0  0  0  0  0  0  0  0
   32.7549   41.5368    7.3311 O   0  0  0  0  0  0  0  0  0  0  0  0
   32.3382   42.3827    8.4114 C   0  0  0  0  0  0  0  0  0  0  0  0
   33.6974   41.3292    7.4282 H   0  0  0  0  0  0  0  0  0  0  0  0
   29.0213   42.0973    9.7373 O   0  0  0  0  0  0  0  0  0  0  0  0
   27.1077   40.3945   10.4268 O   0  0  0  0  0  0  0  0  0  0  0  0
   28.6319   41.1360   10.9597 P   0  0  0  0  0  0  0  0  0  0  0  0
   28.3948   41.9825   12.2962 O   0  0  0  0  0  0  0  0  0  0  0  0
   29.9071   39.9400   11.2637 O   0  0  0  0  0  0  0  0  0  0  0  0
   26.4465   41.0878   10.2749 H   0  0  0  0  0  0  0  0  0  0  0  0
   30.0606   39.4195   10.4597 H   0  0  0  0  0  0  0  0  0  0  0  0
  8  9  1  0  0  0
  8 15  1  0  0  0
  8  6  1  0  0  0
  9 10  2  0  0  0
  9 11  1  0  0  0
 11 12  1  0  0  0
 12 13  2  0  0  0
 12 14  1  0  0  0
 14 15  2  0  0  0
 17 18  1  0  0  0
 18  1  1  0  0  0
  1  2  1  0  0  0
  1  3  1  0  0  0
  2  6  1  0  0  0
  3 20  1  0  0  0
  3  4  1  0  0  0
 20 22  1  0  0  0
  4  5  1  0  0  0
  4  6  1  0  0  0
 21 22  1  0  0  0
 22 23  2  0  0  0
 22 24  1  0  0  0
 11 16  1  0  0  0
 17 19  1  0  0  0
  5  7  1  0  0  0
 21 25  1  0  0  0
 24 26  1  0  0  0
M  END
> <minimizedAffinity>
-6.04805

$$$$
3DJP_UA3_A_125


 26 27  0  0  0  0  0  0  0  0999 V2000
   29.5286   39.1697    7.3197 C   0  0  0  0  0  0  0  0  0  0  0  0
   29.7984   38.6200    8.6110 O   0  0  0  0  0  0  0  0  0  0  0  0
   30.3641   40.4385    7.1795 C   0  0  0  0  0  0  0  0  0  0  0  0
   31.0395   40.6955    8.5069 C   0  0  0  0  0  0  0  0  0  0  0  0
   32.4184   40.9238    8.3034 O   0  0  0  0  0  0  0  0  0  0  0  0
   30.5902   39.5270    9.3923 C   0  0  0  0  0  0  0  0  0  0  0  0
   32.8049   40.1693    7.8319 H   0  0  0  0  0  0  0  0  0  0  0  0
   31.5302   38.7610   10.2261 N   0  0  0  0  0  0  0  0  0  0  0  0
   31.6766   39.0757   11.5976 C   0  0  0  0  0  0  0  0  0  0  0  0
   31.0762   40.0573   12.0742 O   0  0  0  0  0  0  0  0  0  0  0  0
   32.4808   38.3267   12.3648 N   0  0  0  0  0  0  0  0  0  0  0  0
   33.1640   37.2829   11.8700 C   0  0  0  0  0  0  0  0  0  0  0  0
   33.9196   36.6269   12.6248 O   0  0  0  0  0  0  0  0  0  0  0  0
   33.0273   36.9309   10.5269 C   0  0  0  0  0  0  0  0  0  0  0  0
   32.1761   37.6930    9.7267 C   0  0  0  0  0  0  0  0  0  0  0  0
   32.5732   38.5488   13.3194 H   0  0  0  0  0  0  0  0  0  0  0  0
   28.9838   38.3030    5.0976 O   0  0  0  0  0  0  0  0  0  0  0  0
   29.8035   38.1065    6.2577 C   0  0  0  0  0  0  0  0  0  0  0  0
   29.1800   37.6149    4.4427 H   0  0  0  0  0  0  0  0  0  0  0  0
   29.5352   41.5772    7.1079 O   0  0  0  0  0  0  0  0  0  0  0  0
   30.8216   41.7674    4.7957 O   0  0  0  0  0  0  0  0  0  0  0  0
   29.7356   42.6244    5.9107 P   0  0  0  0  0  0  0  0  0  0  0  0
   30.4327   43.9644    6.4374 O   0  0  0  0  0  0  0  0  0  0  0  0
   28.1819   43.0478    5.1651 O   0  0  0  0  0  0  0  0  0  0  0  0
   31.6531   41.5597    5.2500 H   0  0  0  0  0  0  0  0  0  0  0  0
   27.7486   42.2427    4.8412 H   0  0  0  0  0  0  0  0  0  0  0  0
  8  9  1  0  0  0
  8 15  1  0  0  0
  8  6  1  0  0  0
  9 10  2  0  0  0
  9 11  1  0  0  0
 11 12  1  0  0  0
 12 13  2  0  0  0
 12 14  1  0  0  0
 14 15  2  0  0  0
 17 18  1  0  0  0
 18  1  1  0  0  0
  1  2  1  0  0  0
  1  3  1  0  0  0
  2  6  1  0  0  0
  3 20  1  0  0  0
  3  4  1  0  0  0
 20 22  1  0  0  0
  4  5  1  0  0  0
  4  6  1  0  0  0
 21 22  1  0  0  0
 22 23  2  0  0  0
 22 24  1  0  0  0
 11 16  1  0  0  0
 17 19  1  0  0  0
  5  7  1  0  0  0
 21 25  1  0  0  0
 24 26  1  0  0  0
M  END
> <minimizedAffinity>
-5.95059

$$$$
3DJP_UA3_A_125


 26 27  0  0  0  0  0  0  0  0999 V2000
   29.1590   38.9966    5.7337 C   0  0  0  0  0  0  0  0  0  0  0  0
   29.0629   39.8112    6.9040 O   0  0  0  0  0  0  0  0  0  0  0  0
   29.5866   39.9005    4.5815 C   0  0  0  0  0  0  0  0  0  0  0  0
   29.6044   41.3227    5.0927 C   0  0  0  0  0  0  0  0  0  0  0  0
   30.8306   41.9358    4.7528 O   0  0  0  0  0  0  0  0  0  0  0  0
   29.2053   41.1993    6.5681 C   0  0  0  0  0  0  0  0  0  0  0  0
   31.5645   41.4076    5.1040 H   0  0  0  0  0  0  0  0  0  0  0  0
   29.9344   41.8898    7.6439 N   0  0  0  0  0  0  0  0  0  0  0  0
   29.4589   43.1268    8.1391 C   0  0  0  0  0  0  0  0  0  0  0  0
   28.4756   43.6708    7.6022 O   0  0  0  0  0  0  0  0  0  0  0  0
   30.0885   43.7124    9.1672 N   0  0  0  0  0  0  0  0  0  0  0  0
   31.1691   43.1637    9.7437 C   0  0  0  0  0  0  0  0  0  0  0  0
   31.7345   43.7622   10.6887 O   0  0  0  0  0  0  0  0  0  0  0  0
   31.6529   41.9345    9.2950 C   0  0  0  0  0  0  0  0  0  0  0  0
   30.9906   41.3086    8.2388 C   0  0  0  0  0  0  0  0  0  0  0  0
   29.7482   44.5704    9.5096 H   0  0  0  0  0  0  0  0  0  0  0  0
   31.1604   38.2180    6.9056 O   0  0  0  0  0  0  0  0  0  0  0  0
   30.1065   37.8313    6.0135 C   0  0  0  0  0  0  0  0  0  0  0  0
   31.7443   37.4599    7.0642 H   0  0  0  0  0  0  0  0  0  0  0  0
   28.5601   40.0042    3.6201 O   0  0  0  0  0  0  0  0  0  0  0  0
   28.6881   39.3062    1.0640 O   0  0  0  0  0  0  0  0  0  0  0  0
   28.8788   40.6639    2.1942 P   0  0  0  0  0  0  0  0  0  0  0  0
   30.3798   41.2149    2.1449 O   0  0  0  0  0  0  0  0  0  0  0  0
   27.7698   42.0054    1.8483 O   0  0  0  0  0  0  0  0  0  0  0  0
   29.3142   38.6024    1.2955 H   0  0  0  0  0  0  0  0  0  0  0  0
   26.8551   41.6839    1.8752 H   0  0  0  0  0  0  0  0  0  0  0  0
  8  9  1  0  0  0
  8 15  1  0  0  0
  8  6  1  0  0  0
  9 10  2  0  0  0
  9 11  1  0  0  0
 11 12  1  0  0  0
 12 13  2  0  0  0
 12 14  1  0  0  0
 14 15  2  0  0  0
 17 18  1  0  0  0
 18  1  1  0  0  0
  1  2  1  0  0  0
  1  3  1  0  0  0
  2  6  1  0  0  0
  3 20  1  0  0  0
  3  4  1  0  0  0
 20 22  1  0  0  0
  4  5  1  0  0  0
  4  6  1  0  0  0
 21 22  1  0  0  0
 22 23  2  0  0  0
 22 24  1  0  0  0
 11 16  1  0  0  0
 17 19  1  0  0  0
  5  7  1  0  0  0
 21 25  1  0  0  0
 24 26  1  0  0  0
M  END
> <minimizedAffinity>
-5.94141

$$$$
3DJP_UA3_A_125


 26 27  0  0  0  0  0  0  0  0999 V2000
   29.1755   42.5364    6.2239 C   0  0  0  0  0  0  0  0  0  0  0  0
   28.3888   42.5947    5.0322 O   0  0  0  0  0  0  0  0  0  0  0  0
   30.2533   41.4783    6.0087 C   0  0  0  0  0  0  0  0  0  0  0  0
   29.9835   40.8080    4.6811 C   0  0  0  0  0  0  0  0  0  0  0  0
   31.1676   40.7813    3.9117 O   0  0  0  0  0  0  0  0  0  0  0  0
   28.7457   41.5311    4.1371 C   0  0  0  0  0  0  0  0  0  0  0  0
   31.5062   41.6843    3.8078 H   0  0  0  0  0  0  0  0  0  0  0  0
   28.6580   42.0112    2.7487 N   0  0  0  0  0  0  0  0  0  0  0  0
   28.3301   41.1100    1.7086 C   0  0  0  0  0  0  0  0  0  0  0  0
   28.2045   39.8964    1.9587 O   0  0  0  0  0  0  0  0  0  0  0  0
   28.1821   41.5701    0.4585 N   0  0  0  0  0  0  0  0  0  0  0  0
   28.3428   42.8677    0.1557 C   0  0  0  0  0  0  0  0  0  0  0  0
   28.2141   43.2439   -1.0329 O   0  0  0  0  0  0  0  0  0  0  0  0
   28.6456   43.7878    1.1597 C   0  0  0  0  0  0  0  0  0  0  0  0
   28.7810   43.3199    2.4669 C   0  0  0  0  0  0  0  0  0  0  0  0
   27.9485   40.9376   -0.2588 H   0  0  0  0  0  0  0  0  0  0  0  0
   31.1271   43.9150    6.7493 O   0  0  0  0  0  0  0  0  0  0  0  0
   29.7089   43.9330    6.5383 C   0  0  0  0  0  0  0  0  0  0  0  0
   31.4361   44.8131    6.9463 H   0  0  0  0  0  0  0  0  0  0  0  0
   30.0578   40.3825    6.8745 O   0  0  0  0  0  0  0  0  0  0  0  0
   31.5378   38.4308    7.8933 O   0  0  0  0  0  0  0  0  0  0  0  0
   31.0842   40.1384    8.0816 P   0  0  0  0  0  0  0  0  0  0  0  0
   30.3667   40.3652    9.4932 O   0  0  0  0  0  0  0  0  0  0  0  0
   32.4755   41.2342    7.9691 O   0  0  0  0  0  0  0  0  0  0  0  0
   30.7450   37.8761    7.9625 H   0  0  0  0  0  0  0  0  0  0  0  0
   32.9197   41.1062    7.1164 H   0  0  0  0  0  0  0  0  0  0  0  0
  8  9  1  0  0  0
  8 15  1  0  0  0
  8  6  1  0  0  0
  9 10  2  0  0  0
  9 11  1  0  0  0
 11 12  1  0  0  0
 12 13  2  0  0  0
 12 14  1  0  0  0
 14 15  2  0  0  0
 17 18  1  0  0  0
 18  1  1  0  0  0
  1  2  1  0  0  0
  1  3  1  0  0  0
  2  6  1  0  0  0
  3 20  1  0  0  0
  3  4  1  0  0  0
 20 22  1  0  0  0
  4  5  1  0  0  0
  4  6  1  0  0  0
 21 22  1  0  0  0
 22 23  2  0  0  0
 22 24  1  0  0  0
 11 16  1  0  0  0
 17 19  1  0  0  0
  5  7  1  0  0  0
 21 25  1  0  0  0
 24 26  1  0  0  0
M  END
> <minimizedAffinity>
-5.93836

$$$$
