5L2S_6ZV_A_900


 38 42  0  0  0  0  0  0  0  0999 V2000
   24.8012   34.5708   -9.5452 C   0  0  0  0  0  0  0  0  0  0  0  0
   25.0179   34.8842   -7.2695 C   0  0  0  0  0  0  0  0  0  0  0  0
   25.5886   33.5670   -7.1648 C   0  0  0  0  0  0  0  0  0  0  0  0
   25.7309   32.8598   -8.3667 C   0  0  0  0  0  0  0  0  0  0  0  0
   25.3494   33.3456   -9.5565 N   0  0  0  0  0  0  0  0  0  0  0  0
   24.6215   35.3602   -8.4678 N   0  0  0  0  0  0  0  0  0  0  0  0
   25.9055   32.9449   -6.0047 F   0  0  0  0  0  0  0  0  0  0  0  0
   23.8700   36.8444   -6.2147 C   0  0  0  0  0  0  0  0  0  0  0  0
   25.5452   35.6965   -4.9439 C   0  0  0  0  0  0  0  0  0  0  0  0
   24.8176   35.8218   -6.1303 C   0  0  0  0  0  0  0  0  0  0  0  0
   24.3854   37.5732   -3.9263 C   0  0  0  0  0  0  0  0  0  0  0  0
   23.6855   37.6930   -5.1283 C   0  0  0  0  0  0  0  0  0  0  0  0
   25.3117   36.5342   -3.8816 C   0  0  0  0  0  0  0  0  0  0  0  0
   23.0864   39.2534   -3.6678 C   0  0  0  0  0  0  0  0  0  0  0  0
   22.3711   40.4151   -3.0859 C   0  0  0  0  0  0  0  0  0  0  0  0
   23.9937   38.5563   -3.0350 N   0  0  0  0  0  0  0  0  0  0  0  0
   22.8305   38.8022   -4.9506 N   0  0  0  0  0  0  0  0  0  0  0  0
   25.9893   36.3347   -2.7303 F   0  0  0  0  0  0  0  0  0  0  0  0
   21.1456   38.6587   -6.7621 C   0  0  0  0  0  0  0  0  0  0  0  0
   23.0784   40.2795   -6.9299 C   0  0  0  0  0  0  0  0  0  0  0  0
   22.1117   39.5556   -6.0120 C   0  0  0  0  0  0  0  0  0  0  0  0
   24.4301   35.0226  -10.7829 N   0  0  0  0  0  0  0  0  0  0  0  0
   25.1409   34.9524  -11.4604 H   0  0  0  0  0  0  0  0  0  0  0  0
   20.9372   36.1716  -11.1256 C   0  0  0  0  0  0  0  0  0  0  0  0
   22.0279   35.5375  -10.5632 C   0  0  0  0  0  0  0  0  0  0  0  0
   22.2778   36.7810  -12.9709 C   0  0  0  0  0  0  0  0  0  0  0  0
   21.0425   36.8199  -12.3463 C   0  0  0  0  0  0  0  0  0  0  0  0
   23.2417   35.5626  -11.2696 C   0  0  0  0  0  0  0  0  0  0  0  0
   23.3604   36.1695  -12.4654 N   0  0  0  0  0  0  0  0  0  0  0  0
   19.8618   37.5451  -12.9561 C   0  0  0  0  0  0  0  0  0  0  0  0
   18.7840   41.3827  -11.4475 N   0  0  0  0  0  0  0  0  0  0  0  0
   20.3684   39.5095  -11.6461 C   0  0  0  0  0  0  0  0  0  0  0  0
   18.3062   39.4095  -12.8514 C   0  0  0  0  0  0  0  0  0  0  0  0
   19.8033   40.5872  -10.7444 C   0  0  0  0  0  0  0  0  0  0  0  0
   17.7269   40.5000  -11.9633 C   0  0  0  0  0  0  0  0  0  0  0  0
   19.3052   38.6159  -12.1161 N   0  0  0  0  0  0  0  0  0  0  0  0
   19.3676   42.2413  -12.5076 C   0  0  0  0  0  0  0  0  0  0  0  0
   20.0823   43.4484  -11.9746 C   0  0  0  0  0  0  0  0  0  0  0  0
 34 31  1  0  0  0
 34 32  1  0  0  0
 31 35  1  0  0  0
 31 37  1  0  0  0
 32 36  1  0  0  0
 35 33  1  0  0  0
 36 33  1  0  0  0
 36 30  1  0  0  0
 37 38  1  0  0  0
 26 29  2  0  0  0
 26 27  1  0  0  0
 29 28  1  0  0  0
 30 27  1  0  0  0
 27 24  2  0  0  0
 28 22  1  0  0  0
 28 25  2  0  0  0
 22  1  1  0  0  0
 24 25  1  0  0  0
  5  1  2  0  0  0
  5  4  1  0  0  0
  1  6  1  0  0  0
  4  3  2  0  0  0
  6  2  2  0  0  0
  2  3  1  0  0  0
  2 10  1  0  0  0
  3  7  1  0  0  0
 20 21  1  0  0  0
 19 21  1  0  0  0
  8 10  2  0  0  0
  8 12  1  0  0  0
 10  9  1  0  0  0
 21 17  1  0  0  0
 12 17  1  0  0  0
 12 11  2  0  0  0
  9 13  2  0  0  0
 17 14  1  0  0  0
 13 11  1  0  0  0
 13 18  1  0  0  0
 11 16  1  0  0  0
 14 16  2  0  0  0
 14 15  1  0  0  0
 22 23  1  0  0  0
M  END
> <minimizedAffinity>
-10.89886

$$$$
5L2S_6ZV_A_900


 38 42  0  0  0  0  0  0  0  0999 V2000
   24.9355   34.4366   -9.4792 C   0  0  0  0  0  0  0  0  0  0  0  0
   25.0891   34.7940   -7.2048 C   0  0  0  0  0  0  0  0  0  0  0  0
   25.6331   33.4699   -7.0558 C   0  0  0  0  0  0  0  0  0  0  0  0
   25.7991   32.7352   -8.2381 C   0  0  0  0  0  0  0  0  0  0  0  0
   25.4622   33.2024   -9.4487 N   0  0  0  0  0  0  0  0  0  0  0  0
   24.7373   35.2514   -8.4241 N   0  0  0  0  0  0  0  0  0  0  0  0
   25.9040   32.8671   -5.8741 F   0  0  0  0  0  0  0  0  0  0  0  0
   23.9078   36.7635   -6.2057 C   0  0  0  0  0  0  0  0  0  0  0  0
   25.5975   35.6768   -4.9008 C   0  0  0  0  0  0  0  0  0  0  0  0
   24.8711   35.7587   -6.0917 C   0  0  0  0  0  0  0  0  0  0  0  0
   24.4057   37.5617   -3.9366 C   0  0  0  0  0  0  0  0  0  0  0  0
   23.7072   37.6381   -5.1430 C   0  0  0  0  0  0  0  0  0  0  0  0
   25.3480   36.5389   -3.8619 C   0  0  0  0  0  0  0  0  0  0  0  0
   23.0797   39.2275   -3.7263 C   0  0  0  0  0  0  0  0  0  0  0  0
   22.3448   40.3930   -3.1775 C   0  0  0  0  0  0  0  0  0  0  0  0
   23.9963   38.5621   -3.0730 N   0  0  0  0  0  0  0  0  0  0  0  0
   22.8344   38.7380   -4.9970 N   0  0  0  0  0  0  0  0  0  0  0  0
   26.0257   36.3812   -2.7042 F   0  0  0  0  0  0  0  0  0  0  0  0
   21.1484   38.5221   -6.8004 C   0  0  0  0  0  0  0  0  0  0  0  0
   23.0648   40.1560   -7.0213 C   0  0  0  0  0  0  0  0  0  0  0  0
   22.1066   39.4512   -6.0800 C   0  0  0  0  0  0  0  0  0  0  0  0
   24.6098   34.8685  -10.7366 N   0  0  0  0  0  0  0  0  0  0  0  0
   25.2976   34.6738  -11.4135 H   0  0  0  0  0  0  0  0  0  0  0  0
   22.3060   36.8030  -12.8785 C   0  0  0  0  0  0  0  0  0  0  0  0
   23.4976   36.2521  -12.4491 C   0  0  0  0  0  0  0  0  0  0  0  0
   21.2404   35.9205  -10.9655 C   0  0  0  0  0  0  0  0  0  0  0  0
   21.1412   36.6395  -12.1448 C   0  0  0  0  0  0  0  0  0  0  0  0
   23.4939   35.5303  -11.2441 C   0  0  0  0  0  0  0  0  0  0  0  0
   22.3782   35.3763  -10.5065 N   0  0  0  0  0  0  0  0  0  0  0  0
   19.8238   37.2118  -12.6229 C   0  0  0  0  0  0  0  0  0  0  0  0
   18.5431   41.2329  -12.0272 N   0  0  0  0  0  0  0  0  0  0  0  0
   18.5648   39.1463  -13.3326 C   0  0  0  0  0  0  0  0  0  0  0  0
   19.7611   39.2261  -11.2644 C   0  0  0  0  0  0  0  0  0  0  0  0
   18.5257   40.6595  -13.3826 C   0  0  0  0  0  0  0  0  0  0  0  0
   19.7202   40.7463  -11.2920 C   0  0  0  0  0  0  0  0  0  0  0  0
   19.7659   38.6809  -12.6323 N   0  0  0  0  0  0  0  0  0  0  0  0
   17.2783   40.9864  -11.2917 C   0  0  0  0  0  0  0  0  0  0  0  0
   17.2566   41.5914   -9.9185 C   0  0  0  0  0  0  0  0  0  0  0  0
 34 31  1  0  0  0
 34 32  1  0  0  0
 31 35  1  0  0  0
 31 37  1  0  0  0
 32 36  1  0  0  0
 35 33  1  0  0  0
 36 33  1  0  0  0
 36 30  1  0  0  0
 37 38  1  0  0  0
 26 29  2  0  0  0
 26 27  1  0  0  0
 29 28  1  0  0  0
 30 27  1  0  0  0
 27 24  2  0  0  0
 28 22  1  0  0  0
 28 25  2  0  0  0
 22  1  1  0  0  0
 24 25  1  0  0  0
  5  1  2  0  0  0
  5  4  1  0  0  0
  1  6  1  0  0  0
  4  3  2  0  0  0
  6  2  2  0  0  0
  2  3  1  0  0  0
  2 10  1  0  0  0
  3  7  1  0  0  0
 20 21  1  0  0  0
 19 21  1  0  0  0
  8 10  2  0  0  0
  8 12  1  0  0  0
 10  9  1  0  0  0
 21 17  1  0  0  0
 12 17  1  0  0  0
 12 11  2  0  0  0
  9 13  2  0  0  0
 17 14  1  0  0  0
 13 11  1  0  0  0
 13 18  1  0  0  0
 11 16  1  0  0  0
 14 16  2  0  0  0
 14 15  1  0  0  0
 22 23  1  0  0  0
M  END
> <minimizedAffinity>
-10.88097

$$$$
5L2S_6ZV_A_900


 38 42  0  0  0  0  0  0  0  0999 V2000
   24.6453   34.5517   -9.6062 C   0  0  0  0  0  0  0  0  0  0  0  0
   24.9753   34.8804   -7.3462 C   0  0  0  0  0  0  0  0  0  0  0  0
   25.6152   33.5931   -7.2750 C   0  0  0  0  0  0  0  0  0  0  0  0
   25.7237   32.8912   -8.4835 C   0  0  0  0  0  0  0  0  0  0  0  0
   25.2517   33.3551   -9.6494 N   0  0  0  0  0  0  0  0  0  0  0  0
   24.4884   35.3337   -8.5197 N   0  0  0  0  0  0  0  0  0  0  0  0
   26.0279   32.9900   -6.1352 F   0  0  0  0  0  0  0  0  0  0  0  0
   23.8528   36.8392   -6.2621 C   0  0  0  0  0  0  0  0  0  0  0  0
   25.5338   35.6690   -5.0197 C   0  0  0  0  0  0  0  0  0  0  0  0
   24.7940   35.8095   -6.1969 C   0  0  0  0  0  0  0  0  0  0  0  0
   24.3983   37.5447   -3.9733 C   0  0  0  0  0  0  0  0  0  0  0  0
   23.6861   37.6797   -5.1665 C   0  0  0  0  0  0  0  0  0  0  0  0
   25.3178   36.4990   -3.9478 C   0  0  0  0  0  0  0  0  0  0  0  0
   23.1139   39.2315   -3.6861 C   0  0  0  0  0  0  0  0  0  0  0  0
   22.4132   40.3930   -3.0865 C   0  0  0  0  0  0  0  0  0  0  0  0
   24.0233   38.5228   -3.0694 N   0  0  0  0  0  0  0  0  0  0  0  0
   22.8408   38.7931   -4.9698 N   0  0  0  0  0  0  0  0  0  0  0  0
   26.0066   36.2849   -2.8058 F   0  0  0  0  0  0  0  0  0  0  0  0
   21.0585   38.7060   -6.6894 C   0  0  0  0  0  0  0  0  0  0  0  0
   23.0762   40.1964   -7.0038 C   0  0  0  0  0  0  0  0  0  0  0  0
   22.1157   39.5606   -6.0168 C   0  0  0  0  0  0  0  0  0  0  0  0
   24.1826   34.9820  -10.8204 N   0  0  0  0  0  0  0  0  0  0  0  0
   24.7519   34.7168  -11.5786 H   0  0  0  0  0  0  0  0  0  0  0  0
   20.8482   36.5673  -10.8989 C   0  0  0  0  0  0  0  0  0  0  0  0
   21.8608   35.7345  -10.4642 C   0  0  0  0  0  0  0  0  0  0  0  0
   22.2348   37.2831  -12.6706 C   0  0  0  0  0  0  0  0  0  0  0  0
   21.0186   37.3725  -12.0144 C   0  0  0  0  0  0  0  0  0  0  0  0
   23.0625   35.7226  -11.1914 C   0  0  0  0  0  0  0  0  0  0  0  0
   23.2416   36.4818  -12.2886 N   0  0  0  0  0  0  0  0  0  0  0  0
   19.9271   38.3122  -12.4802 C   0  0  0  0  0  0  0  0  0  0  0  0
   19.7915   37.4446  -16.6507 N   0  0  0  0  0  0  0  0  0  0  0  0
   19.9885   39.0358  -14.7832 C   0  0  0  0  0  0  0  0  0  0  0  0
   19.8124   36.7018  -14.2969 C   0  0  0  0  0  0  0  0  0  0  0  0
   19.4540   38.7976  -16.1801 C   0  0  0  0  0  0  0  0  0  0  0  0
   19.2862   36.4426  -15.7002 C   0  0  0  0  0  0  0  0  0  0  0  0
   19.4410   38.0527  -13.8433 N   0  0  0  0  0  0  0  0  0  0  0  0
   21.2417   37.2839  -16.9202 C   0  0  0  0  0  0  0  0  0  0  0  0
   21.5367   36.4511  -18.1332 C   0  0  0  0  0  0  0  0  0  0  0  0
 34 31  1  0  0  0
 34 32  1  0  0  0
 31 35  1  0  0  0
 31 37  1  0  0  0
 32 36  1  0  0  0
 35 33  1  0  0  0
 36 33  1  0  0  0
 36 30  1  0  0  0
 37 38  1  0  0  0
 26 29  2  0  0  0
 26 27  1  0  0  0
 29 28  1  0  0  0
 30 27  1  0  0  0
 27 24  2  0  0  0
 28 22  1  0  0  0
 28 25  2  0  0  0
 22  1  1  0  0  0
 24 25  1  0  0  0
  5  1  2  0  0  0
  5  4  1  0  0  0
  1  6  1  0  0  0
  4  3  2  0  0  0
  6  2  2  0  0  0
  2  3  1  0  0  0
  2 10  1  0  0  0
  3  7  1  0  0  0
 20 21  1  0  0  0
 19 21  1  0  0  0
  8 10  2  0  0  0
  8 12  1  0  0  0
 10  9  1  0  0  0
 21 17  1  0  0  0
 12 17  1  0  0  0
 12 11  2  0  0  0
  9 13  2  0  0  0
 17 14  1  0  0  0
 13 11  1  0  0  0
 13 18  1  0  0  0
 11 16  1  0  0  0
 14 16  2  0  0  0
 14 15  1  0  0  0
 22 23  1  0  0  0
M  END
> <minimizedAffinity>
-10.19035

$$$$
5L2S_6ZV_A_900


 38 42  0  0  0  0  0  0  0  0999 V2000
   23.8243   34.3495   -9.4343 C   0  0  0  0  0  0  0  0  0  0  0  0
   24.6654   34.9624   -7.3749 C   0  0  0  0  0  0  0  0  0  0  0  0
   25.6818   33.9529   -7.5143 C   0  0  0  0  0  0  0  0  0  0  0  0
   25.6602   33.2173   -8.7073 C   0  0  0  0  0  0  0  0  0  0  0  0
   24.7481   33.4051   -9.6717 N   0  0  0  0  0  0  0  0  0  0  0  0
   23.7411   35.1348   -8.3421 N   0  0  0  0  0  0  0  0  0  0  0  0
   26.5784   33.6125   -6.5585 F   0  0  0  0  0  0  0  0  0  0  0  0
   23.6194   36.9425   -6.2535 C   0  0  0  0  0  0  0  0  0  0  0  0
   25.2843   35.7102   -5.0502 C   0  0  0  0  0  0  0  0  0  0  0  0
   24.5304   35.8847   -6.2137 C   0  0  0  0  0  0  0  0  0  0  0  0
   24.2223   37.6080   -3.9672 C   0  0  0  0  0  0  0  0  0  0  0  0
   23.4954   37.7763   -5.1472 C   0  0  0  0  0  0  0  0  0  0  0  0
   25.1103   36.5352   -3.9668 C   0  0  0  0  0  0  0  0  0  0  0  0
   22.9936   39.3292   -3.6426 C   0  0  0  0  0  0  0  0  0  0  0  0
   22.3375   40.5048   -3.0204 C   0  0  0  0  0  0  0  0  0  0  0  0
   23.8911   38.5875   -3.0478 N   0  0  0  0  0  0  0  0  0  0  0  0
   22.6870   38.9123   -4.9259 N   0  0  0  0  0  0  0  0  0  0  0  0
   25.8107   36.2891   -2.8384 F   0  0  0  0  0  0  0  0  0  0  0  0
   20.8735   38.8968   -6.6147 C   0  0  0  0  0  0  0  0  0  0  0  0
   22.9314   40.3259   -6.9517 C   0  0  0  0  0  0  0  0  0  0  0  0
   21.9685   39.7116   -5.9534 C   0  0  0  0  0  0  0  0  0  0  0  0
   22.9177   34.5042  -10.4480 N   0  0  0  0  0  0  0  0  0  0  0  0
   22.4192   33.6830  -10.6633 H   0  0  0  0  0  0  0  0  0  0  0  0
   22.8392   37.1191  -13.0546 C   0  0  0  0  0  0  0  0  0  0  0  0
   23.3369   36.0688  -12.3082 C   0  0  0  0  0  0  0  0  0  0  0  0
   20.9257   37.1585  -11.6722 C   0  0  0  0  0  0  0  0  0  0  0  0
   21.6091   37.6842  -12.7559 C   0  0  0  0  0  0  0  0  0  0  0  0
   22.5635   35.5984  -11.2341 C   0  0  0  0  0  0  0  0  0  0  0  0
   21.3756   36.1458  -10.9150 N   0  0  0  0  0  0  0  0  0  0  0  0
   21.0401   38.8141  -13.5872 C   0  0  0  0  0  0  0  0  0  0  0  0
   22.9088   42.1631  -15.4464 N   0  0  0  0  0  0  0  0  0  0  0  0
   22.3653   39.7637  -15.3686 C   0  0  0  0  0  0  0  0  0  0  0  0
   21.4860   41.2017  -13.6732 C   0  0  0  0  0  0  0  0  0  0  0  0
   23.4019   40.8062  -15.7325 C   0  0  0  0  0  0  0  0  0  0  0  0
   22.5121   42.2650  -14.0339 C   0  0  0  0  0  0  0  0  0  0  0  0
   22.0140   39.8548  -13.9480 N   0  0  0  0  0  0  0  0  0  0  0  0
   21.8218   42.5767  -16.3677 C   0  0  0  0  0  0  0  0  0  0  0  0
   22.2562   42.6744  -17.8007 C   0  0  0  0  0  0  0  0  0  0  0  0
 34 31  1  0  0  0
 34 32  1  0  0  0
 31 35  1  0  0  0
 31 37  1  0  0  0
 32 36  1  0  0  0
 35 33  1  0  0  0
 36 33  1  0  0  0
 36 30  1  0  0  0
 37 38  1  0  0  0
 26 29  2  0  0  0
 26 27  1  0  0  0
 29 28  1  0  0  0
 30 27  1  0  0  0
 27 24  2  0  0  0
 28 22  1  0  0  0
 28 25  2  0  0  0
 22  1  1  0  0  0
 24 25  1  0  0  0
  5  1  2  0  0  0
  5  4  1  0  0  0
  1  6  1  0  0  0
  4  3  2  0  0  0
  6  2  2  0  0  0
  2  3  1  0  0  0
  2 10  1  0  0  0
  3  7  1  0  0  0
 20 21  1  0  0  0
 19 21  1  0  0  0
  8 10  2  0  0  0
  8 12  1  0  0  0
 10  9  1  0  0  0
 21 17  1  0  0  0
 12 17  1  0  0  0
 12 11  2  0  0  0
  9 13  2  0  0  0
 17 14  1  0  0  0
 13 11  1  0  0  0
 13 18  1  0  0  0
 11 16  1  0  0  0
 14 16  2  0  0  0
 14 15  1  0  0  0
 22 23  1  0  0  0
M  END
> <minimizedAffinity>
-9.36842

$$$$
5L2S_6ZV_A_900


 38 42  0  0  0  0  0  0  0  0999 V2000
   20.6344   38.1344  -10.9248 C   0  0  0  0  0  0  0  0  0  0  0  0
   21.9452   36.3211  -10.3608 C   0  0  0  0  0  0  0  0  0  0  0  0
   21.4263   35.6183  -11.5047 C   0  0  0  0  0  0  0  0  0  0  0  0
   20.5154   36.3257  -12.3015 C   0  0  0  0  0  0  0  0  0  0  0  0
   20.1159   37.5762  -12.0299 N   0  0  0  0  0  0  0  0  0  0  0  0
   21.5264   37.5733  -10.0846 N   0  0  0  0  0  0  0  0  0  0  0  0
   21.6818   34.3231  -11.8053 F   0  0  0  0  0  0  0  0  0  0  0  0
   22.9109   36.1304   -8.0578 C   0  0  0  0  0  0  0  0  0  0  0  0
   23.9470   34.8886   -9.8250 C   0  0  0  0  0  0  0  0  0  0  0  0
   22.9527   35.7777   -9.4085 C   0  0  0  0  0  0  0  0  0  0  0  0
   24.8373   34.6854   -7.5737 C   0  0  0  0  0  0  0  0  0  0  0  0
   23.8492   35.5915   -7.1840 C   0  0  0  0  0  0  0  0  0  0  0  0
   24.8357   34.3531   -8.9261 C   0  0  0  0  0  0  0  0  0  0  0  0
   25.1350   34.9912   -5.4772 C   0  0  0  0  0  0  0  0  0  0  0  0
   25.6631   34.9064   -4.0938 C   0  0  0  0  0  0  0  0  0  0  0  0
   25.6237   34.3283   -6.4928 N   0  0  0  0  0  0  0  0  0  0  0  0
   24.0510   35.7879   -5.8007 N   0  0  0  0  0  0  0  0  0  0  0  0
   25.7372   33.4454   -9.3596 F   0  0  0  0  0  0  0  0  0  0  0  0
   22.0174   36.6647   -4.6884 C   0  0  0  0  0  0  0  0  0  0  0  0
   23.7872   38.2446   -5.5619 C   0  0  0  0  0  0  0  0  0  0  0  0
   23.4932   36.8823   -4.9628 C   0  0  0  0  0  0  0  0  0  0  0  0
   20.1974   39.4104  -10.6919 N   0  0  0  0  0  0  0  0  0  0  0  0
   20.1709   39.9742  -11.4986 H   0  0  0  0  0  0  0  0  0  0  0  0
   20.1191   41.3711   -7.5634 C   0  0  0  0  0  0  0  0  0  0  0  0
   20.6626   40.6929   -8.6369 C   0  0  0  0  0  0  0  0  0  0  0  0
   17.9615   40.7791   -8.3171 C   0  0  0  0  0  0  0  0  0  0  0  0
   18.7460   41.4370   -7.3848 C   0  0  0  0  0  0  0  0  0  0  0  0
   19.7828   40.0662   -9.5348 C   0  0  0  0  0  0  0  0  0  0  0  0
   18.4472   40.1014   -9.3689 N   0  0  0  0  0  0  0  0  0  0  0  0
   18.1391   42.2046   -6.2298 C   0  0  0  0  0  0  0  0  0  0  0  0
   20.4203   40.6950   -2.9614 N   0  0  0  0  0  0  0  0  0  0  0  0
   19.0704   40.3527   -4.9910 C   0  0  0  0  0  0  0  0  0  0  0  0
   19.5357   42.5866   -4.2776 C   0  0  0  0  0  0  0  0  0  0  0  0
   19.4299   39.8260   -3.6172 C   0  0  0  0  0  0  0  0  0  0  0  0
   19.9126   42.0737   -2.8962 C   0  0  0  0  0  0  0  0  0  0  0  0
   18.5278   41.7118   -4.9001 N   0  0  0  0  0  0  0  0  0  0  0  0
   21.7557   40.6167   -3.6033 C   0  0  0  0  0  0  0  0  0  0  0  0
   22.8541   40.2334   -2.6554 C   0  0  0  0  0  0  0  0  0  0  0  0
 34 31  1  0  0  0
 34 32  1  0  0  0
 31 35  1  0  0  0
 31 37  1  0  0  0
 32 36  1  0  0  0
 35 33  1  0  0  0
 36 33  1  0  0  0
 36 30  1  0  0  0
 37 38  1  0  0  0
 26 29  2  0  0  0
 26 27  1  0  0  0
 29 28  1  0  0  0
 30 27  1  0  0  0
 27 24  2  0  0  0
 28 22  1  0  0  0
 28 25  2  0  0  0
 22  1  1  0  0  0
 24 25  1  0  0  0
  5  1  2  0  0  0
  5  4  1  0  0  0
  1  6  1  0  0  0
  4  3  2  0  0  0
  6  2  2  0  0  0
  2  3  1  0  0  0
  2 10  1  0  0  0
  3  7  1  0  0  0
 20 21  1  0  0  0
 19 21  1  0  0  0
  8 10  2  0  0  0
  8 12  1  0  0  0
 10  9  1  0  0  0
 21 17  1  0  0  0
 12 17  1  0  0  0
 12 11  2  0  0  0
  9 13  2  0  0  0
 17 14  1  0  0  0
 13 11  1  0  0  0
 13 18  1  0  0  0
 11 16  1  0  0  0
 14 16  2  0  0  0
 14 15  1  0  0  0
 22 23  1  0  0  0
M  END
> <minimizedAffinity>
-9.27665

$$$$
5L2S_6ZV_A_900


 38 42  0  0  0  0  0  0  0  0999 V2000
   24.0700   35.9674   -7.3863 C   0  0  0  0  0  0  0  0  0  0  0  0
   23.8777   37.4591   -5.6364 C   0  0  0  0  0  0  0  0  0  0  0  0
   25.0700   36.8987   -5.0568 C   0  0  0  0  0  0  0  0  0  0  0  0
   25.6839   35.8698   -5.7843 C   0  0  0  0  0  0  0  0  0  0  0  0
   25.2029   35.3996   -6.9439 N   0  0  0  0  0  0  0  0  0  0  0  0
   23.3904   36.9701   -6.7953 N   0  0  0  0  0  0  0  0  0  0  0  0
   25.5754   37.2268   -3.8443 F   0  0  0  0  0  0  0  0  0  0  0  0
   22.0369   39.1518   -5.7734 C   0  0  0  0  0  0  0  0  0  0  0  0
   23.3701   39.0894   -3.7841 C   0  0  0  0  0  0  0  0  0  0  0  0
   23.0936   38.5848   -5.0575 C   0  0  0  0  0  0  0  0  0  0  0  0
   21.5496   40.6922   -3.9231 C   0  0  0  0  0  0  0  0  0  0  0  0
   21.3050   40.1871   -5.2014 C   0  0  0  0  0  0  0  0  0  0  0  0
   22.6044   40.0909   -3.2408 C   0  0  0  0  0  0  0  0  0  0  0  0
   19.9098   41.8348   -4.6864 C   0  0  0  0  0  0  0  0  0  0  0  0
   18.8021   42.8127   -4.8143 C   0  0  0  0  0  0  0  0  0  0  0  0
   20.6678   41.7165   -3.6276 N   0  0  0  0  0  0  0  0  0  0  0  0
   20.2223   40.9444   -5.6985 N   0  0  0  0  0  0  0  0  0  0  0  0
   22.8638   40.5018   -1.9806 F   0  0  0  0  0  0  0  0  0  0  0  0
   19.3703   39.6819   -7.6533 C   0  0  0  0  0  0  0  0  0  0  0  0
   20.8084   41.7357   -7.9771 C   0  0  0  0  0  0  0  0  0  0  0  0
   19.7736   41.0405   -7.1128 C   0  0  0  0  0  0  0  0  0  0  0  0
   23.6206   35.4547   -8.5732 N   0  0  0  0  0  0  0  0  0  0  0  0
   24.0917   34.6379   -8.8563 H   0  0  0  0  0  0  0  0  0  0  0  0
   20.6944   37.1164  -10.0944 C   0  0  0  0  0  0  0  0  0  0  0  0
   21.5767   36.7290   -9.1047 C   0  0  0  0  0  0  0  0  0  0  0  0
   21.9059   35.8133  -11.6462 C   0  0  0  0  0  0  0  0  0  0  0  0
   20.8473   36.6708  -11.3981 C   0  0  0  0  0  0  0  0  0  0  0  0
   22.6258   35.8644   -9.4582 C   0  0  0  0  0  0  0  0  0  0  0  0
   22.7807   35.4044  -10.7139 N   0  0  0  0  0  0  0  0  0  0  0  0
   19.9050   37.1149  -12.4966 C   0  0  0  0  0  0  0  0  0  0  0  0
   22.6059   39.5777  -14.6885 N   0  0  0  0  0  0  0  0  0  0  0  0
   21.3375   39.0532  -12.6453 C   0  0  0  0  0  0  0  0  0  0  0  0
   21.2052   37.5537  -14.5025 C   0  0  0  0  0  0  0  0  0  0  0  0
   21.8668   40.1465  -13.5499 C   0  0  0  0  0  0  0  0  0  0  0  0
   21.7477   38.6361  -15.4232 C   0  0  0  0  0  0  0  0  0  0  0  0
   20.4519   38.1498  -13.3864 N   0  0  0  0  0  0  0  0  0  0  0  0
   23.8930   38.9641  -14.2786 C   0  0  0  0  0  0  0  0  0  0  0  0
   24.7689   38.5807  -15.4353 C   0  0  0  0  0  0  0  0  0  0  0  0
 34 31  1  0  0  0
 34 32  1  0  0  0
 31 35  1  0  0  0
 31 37  1  0  0  0
 32 36  1  0  0  0
 35 33  1  0  0  0
 36 33  1  0  0  0
 36 30  1  0  0  0
 37 38  1  0  0  0
 26 29  2  0  0  0
 26 27  1  0  0  0
 29 28  1  0  0  0
 30 27  1  0  0  0
 27 24  2  0  0  0
 28 22  1  0  0  0
 28 25  2  0  0  0
 22  1  1  0  0  0
 24 25  1  0  0  0
  5  1  2  0  0  0
  5  4  1  0  0  0
  1  6  1  0  0  0
  4  3  2  0  0  0
  6  2  2  0  0  0
  2  3  1  0  0  0
  2 10  1  0  0  0
  3  7  1  0  0  0
 20 21  1  0  0  0
 19 21  1  0  0  0
  8 10  2  0  0  0
  8 12  1  0  0  0
 10  9  1  0  0  0
 21 17  1  0  0  0
 12 17  1  0  0  0
 12 11  2  0  0  0
  9 13  2  0  0  0
 17 14  1  0  0  0
 13 11  1  0  0  0
 13 18  1  0  0  0
 11 16  1  0  0  0
 14 16  2  0  0  0
 14 15  1  0  0  0
 22 23  1  0  0  0
M  END
> <minimizedAffinity>
-9.02286

$$$$
5L2S_6ZV_A_900


 38 42  0  0  0  0  0  0  0  0999 V2000
   24.5798   35.8272   -7.1399 C   0  0  0  0  0  0  0  0  0  0  0  0
   24.2028   37.3720   -5.4678 C   0  0  0  0  0  0  0  0  0  0  0  0
   25.3403   36.8485   -4.7582 C   0  0  0  0  0  0  0  0  0  0  0  0
   26.0333   35.8056   -5.3885 C   0  0  0  0  0  0  0  0  0  0  0  0
   25.6715   35.2909   -6.5722 N   0  0  0  0  0  0  0  0  0  0  0  0
   23.8349   36.8384   -6.6509 N   0  0  0  0  0  0  0  0  0  0  0  0
   25.7231   37.2232   -3.5147 F   0  0  0  0  0  0  0  0  0  0  0  0
   22.3813   39.0486   -5.8468 C   0  0  0  0  0  0  0  0  0  0  0  0
   23.4835   39.0374   -3.7199 C   0  0  0  0  0  0  0  0  0  0  0  0
   23.3537   38.5042   -5.0050 C   0  0  0  0  0  0  0  0  0  0  0  0
   21.6828   40.6242   -4.0967 C   0  0  0  0  0  0  0  0  0  0  0  0
   21.5853   40.0906   -5.3830 C   0  0  0  0  0  0  0  0  0  0  0  0
   22.6571   40.0448   -3.2877 C   0  0  0  0  0  0  0  0  0  0  0  0
   20.1337   41.7391   -5.0635 C   0  0  0  0  0  0  0  0  0  0  0  0
   19.0428   42.7064   -5.3358 C   0  0  0  0  0  0  0  0  0  0  0  0
   20.7687   41.6484   -3.9241 N   0  0  0  0  0  0  0  0  0  0  0  0
   20.5617   40.8298   -6.0145 N   0  0  0  0  0  0  0  0  0  0  0  0
   22.7717   40.4840   -2.0155 F   0  0  0  0  0  0  0  0  0  0  0  0
   20.5446   42.2792   -8.0245 C   0  0  0  0  0  0  0  0  0  0  0  0
   18.8747   40.3966   -7.7832 C   0  0  0  0  0  0  0  0  0  0  0  0
   20.2740   40.8929   -7.4720 C   0  0  0  0  0  0  0  0  0  0  0  0
   24.2526   35.2696   -8.3463 N   0  0  0  0  0  0  0  0  0  0  0  0
   24.7342   34.4331   -8.5405 H   0  0  0  0  0  0  0  0  0  0  0  0
   22.6306   35.8275  -11.6168 C   0  0  0  0  0  0  0  0  0  0  0  0
   23.6184   35.4648  -10.7220 C   0  0  0  0  0  0  0  0  0  0  0  0
   21.2813   36.5158   -9.8059 C   0  0  0  0  0  0  0  0  0  0  0  0
   21.4282   36.3559  -11.1736 C   0  0  0  0  0  0  0  0  0  0  0  0
   23.3702   35.6560   -9.3527 C   0  0  0  0  0  0  0  0  0  0  0  0
   22.2174   36.1857   -8.9024 N   0  0  0  0  0  0  0  0  0  0  0  0
   20.3269   36.7267  -12.1438 C   0  0  0  0  0  0  0  0  0  0  0  0
   18.8827   40.7067  -12.6322 N   0  0  0  0  0  0  0  0  0  0  0  0
   19.2153   38.4146  -13.4654 C   0  0  0  0  0  0  0  0  0  0  0  0
   19.9442   38.9557  -11.2538 C   0  0  0  0  0  0  0  0  0  0  0  0
   19.1628   39.8858  -13.8213 C   0  0  0  0  0  0  0  0  0  0  0  0
   19.8849   40.4379  -11.5900 C   0  0  0  0  0  0  0  0  0  0  0  0
   20.2480   38.1613  -12.4559 N   0  0  0  0  0  0  0  0  0  0  0  0
   17.4950   40.5319  -12.1373 C   0  0  0  0  0  0  0  0  0  0  0  0
   17.0882   41.5579  -11.1205 C   0  0  0  0  0  0  0  0  0  0  0  0
 34 31  1  0  0  0
 34 32  1  0  0  0
 31 35  1  0  0  0
 31 37  1  0  0  0
 32 36  1  0  0  0
 35 33  1  0  0  0
 36 33  1  0  0  0
 36 30  1  0  0  0
 37 38  1  0  0  0
 26 29  2  0  0  0
 26 27  1  0  0  0
 29 28  1  0  0  0
 30 27  1  0  0  0
 27 24  2  0  0  0
 28 22  1  0  0  0
 28 25  2  0  0  0
 22  1  1  0  0  0
 24 25  1  0  0  0
  5  1  2  0  0  0
  5  4  1  0  0  0
  1  6  1  0  0  0
  4  3  2  0  0  0
  6  2  2  0  0  0
  2  3  1  0  0  0
  2 10  1  0  0  0
  3  7  1  0  0  0
 20 21  1  0  0  0
 19 21  1  0  0  0
  8 10  2  0  0  0
  8 12  1  0  0  0
 10  9  1  0  0  0
 21 17  1  0  0  0
 12 17  1  0  0  0
 12 11  2  0  0  0
  9 13  2  0  0  0
 17 14  1  0  0  0
 13 11  1  0  0  0
 13 18  1  0  0  0
 11 16  1  0  0  0
 14 16  2  0  0  0
 14 15  1  0  0  0
 22 23  1  0  0  0
M  END
> <minimizedAffinity>
-8.92653

$$$$
5L2S_6ZV_A_900


 38 42  0  0  0  0  0  0  0  0999 V2000
   19.9650   38.1781  -11.1018 C   0  0  0  0  0  0  0  0  0  0  0  0
   21.4831   36.6773  -10.2258 C   0  0  0  0  0  0  0  0  0  0  0  0
   21.3080   35.8530  -11.3926 C   0  0  0  0  0  0  0  0  0  0  0  0
   20.4266   36.3427  -12.3664 C   0  0  0  0  0  0  0  0  0  0  0  0
   19.7562   37.4966  -12.2392 N   0  0  0  0  0  0  0  0  0  0  0  0
   20.7930   37.8293  -10.0972 N   0  0  0  0  0  0  0  0  0  0  0  0
   21.8525   34.6259  -11.5687 F   0  0  0  0  0  0  0  0  0  0  0  0
   22.2314   37.0001   -7.8575 C   0  0  0  0  0  0  0  0  0  0  0  0
   23.4339   35.4400   -9.2209 C   0  0  0  0  0  0  0  0  0  0  0  0
   22.4005   36.3719   -9.0934 C   0  0  0  0  0  0  0  0  0  0  0  0
   24.1120   35.7378   -6.9070 C   0  0  0  0  0  0  0  0  0  0  0  0
   23.0872   36.6807   -6.8087 C   0  0  0  0  0  0  0  0  0  0  0  0
   24.2380   35.1282   -8.1528 C   0  0  0  0  0  0  0  0  0  0  0  0
   24.2118   36.4856   -4.9049 C   0  0  0  0  0  0  0  0  0  0  0  0
   24.6093   36.7072   -3.4934 C   0  0  0  0  0  0  0  0  0  0  0  0
   24.7963   35.6360   -5.7088 N   0  0  0  0  0  0  0  0  0  0  0  0
   23.1583   37.1691   -5.4861 N   0  0  0  0  0  0  0  0  0  0  0  0
   25.1807   34.1723   -8.3012 F   0  0  0  0  0  0  0  0  0  0  0  0
   21.0173   38.2297   -4.8286 C   0  0  0  0  0  0  0  0  0  0  0  0
   22.9084   39.6232   -5.7628 C   0  0  0  0  0  0  0  0  0  0  0  0
   22.5191   38.4012   -4.9528 C   0  0  0  0  0  0  0  0  0  0  0  0
   19.2600   39.3485  -11.0203 N   0  0  0  0  0  0  0  0  0  0  0  0
   18.6743   39.5136  -11.7942 H   0  0  0  0  0  0  0  0  0  0  0  0
   18.8982   41.1947   -7.8425 C   0  0  0  0  0  0  0  0  0  0  0  0
   18.8370   40.1289   -8.7189 C   0  0  0  0  0  0  0  0  0  0  0  0
   19.6614   42.5659   -9.6063 C   0  0  0  0  0  0  0  0  0  0  0  0
   19.3240   42.4431   -8.2689 C   0  0  0  0  0  0  0  0  0  0  0  0
   19.2106   40.3514  -10.0546 C   0  0  0  0  0  0  0  0  0  0  0  0
   19.6082   41.5603  -10.4937 N   0  0  0  0  0  0  0  0  0  0  0  0
   19.4252   43.6096   -7.3094 C   0  0  0  0  0  0  0  0  0  0  0  0
   18.5117   43.8906   -3.1559 N   0  0  0  0  0  0  0  0  0  0  0  0
   19.9119   43.0699   -5.0065 C   0  0  0  0  0  0  0  0  0  0  0  0
   18.0673   44.5069   -5.5044 C   0  0  0  0  0  0  0  0  0  0  0  0
   19.3218   42.7636   -3.6456 C   0  0  0  0  0  0  0  0  0  0  0  0
   17.4667   44.2204   -4.1367 C   0  0  0  0  0  0  0  0  0  0  0  0
   18.8526   43.3552   -5.9792 N   0  0  0  0  0  0  0  0  0  0  0  0
   19.3389   45.0689   -2.7969 C   0  0  0  0  0  0  0  0  0  0  0  0
   19.3340   45.3790   -1.3286 C   0  0  0  0  0  0  0  0  0  0  0  0
 34 31  1  0  0  0
 34 32  1  0  0  0
 31 35  1  0  0  0
 31 37  1  0  0  0
 32 36  1  0  0  0
 35 33  1  0  0  0
 36 33  1  0  0  0
 36 30  1  0  0  0
 37 38  1  0  0  0
 26 29  2  0  0  0
 26 27  1  0  0  0
 29 28  1  0  0  0
 30 27  1  0  0  0
 27 24  2  0  0  0
 28 22  1  0  0  0
 28 25  2  0  0  0
 22  1  1  0  0  0
 24 25  1  0  0  0
  5  1  2  0  0  0
  5  4  1  0  0  0
  1  6  1  0  0  0
  4  3  2  0  0  0
  6  2  2  0  0  0
  2  3  1  0  0  0
  2 10  1  0  0  0
  3  7  1  0  0  0
 20 21  1  0  0  0
 19 21  1  0  0  0
  8 10  2  0  0  0
  8 12  1  0  0  0
 10  9  1  0  0  0
 21 17  1  0  0  0
 12 17  1  0  0  0
 12 11  2  0  0  0
  9 13  2  0  0  0
 17 14  1  0  0  0
 13 11  1  0  0  0
 13 18  1  0  0  0
 11 16  1  0  0  0
 14 16  2  0  0  0
 14 15  1  0  0  0
 22 23  1  0  0  0
M  END
> <minimizedAffinity>
-8.89566

$$$$
5L2S_6ZV_A_900


 38 42  0  0  0  0  0  0  0  0999 V2000
   23.0344   37.0892   -5.3233 C   0  0  0  0  0  0  0  0  0  0  0  0
   22.2471   39.0542   -4.4049 C   0  0  0  0  0  0  0  0  0  0  0  0
   23.4044   39.0924   -3.5500 C   0  0  0  0  0  0  0  0  0  0  0  0
   24.3268   38.0498   -3.7147 C   0  0  0  0  0  0  0  0  0  0  0  0
   24.1601   37.0511   -4.5933 N   0  0  0  0  0  0  0  0  0  0  0  0
   22.0779   38.0375   -5.2753 N   0  0  0  0  0  0  0  0  0  0  0  0
   23.6132   39.9930   -2.5609 F   0  0  0  0  0  0  0  0  0  0  0  0
   20.4535   40.3269   -5.6031 C   0  0  0  0  0  0  0  0  0  0  0  0
   20.8218   40.8033   -3.2845 C   0  0  0  0  0  0  0  0  0  0  0  0
   21.1679   40.0798   -4.4288 C   0  0  0  0  0  0  0  0  0  0  0  0
   19.0577   41.9923   -4.4578 C   0  0  0  0  0  0  0  0  0  0  0  0
   19.4346   41.2737   -5.5938 C   0  0  0  0  0  0  0  0  0  0  0  0
   19.7885   41.7068   -3.3072 C   0  0  0  0  0  0  0  0  0  0  0  0
   17.7724   42.6804   -6.0237 C   0  0  0  0  0  0  0  0  0  0  0  0
   16.7169   43.4003   -6.7769 C   0  0  0  0  0  0  0  0  0  0  0  0
   18.0217   42.8606   -4.7529 N   0  0  0  0  0  0  0  0  0  0  0  0
   18.5828   41.7318   -6.6220 N   0  0  0  0  0  0  0  0  0  0  0  0
   19.4433   42.3342   -2.1619 F   0  0  0  0  0  0  0  0  0  0  0  0
   18.7109   40.0686   -8.4547 C   0  0  0  0  0  0  0  0  0  0  0  0
   20.0200   42.2274   -8.5843 C   0  0  0  0  0  0  0  0  0  0  0  0
   18.7640   41.5387   -8.0852 C   0  0  0  0  0  0  0  0  0  0  0  0
   22.9113   36.0501   -6.2057 N   0  0  0  0  0  0  0  0  0  0  0  0
   22.8144   35.1713   -5.7727 H   0  0  0  0  0  0  0  0  0  0  0  0
   23.6978   35.2816   -9.7311 C   0  0  0  0  0  0  0  0  0  0  0  0
   23.8656   35.3226   -8.3607 C   0  0  0  0  0  0  0  0  0  0  0  0
   21.7057   36.5269   -9.4968 C   0  0  0  0  0  0  0  0  0  0  0  0
   22.6008   35.8794  -10.3318 C   0  0  0  0  0  0  0  0  0  0  0  0
   22.8967   35.9949   -7.5976 C   0  0  0  0  0  0  0  0  0  0  0  0
   21.8345   36.5988   -8.1627 N   0  0  0  0  0  0  0  0  0  0  0  0
   22.3908   35.8128  -11.8295 C   0  0  0  0  0  0  0  0  0  0  0  0
   20.4232   38.4371  -14.5511 N   0  0  0  0  0  0  0  0  0  0  0  0
   22.4512   37.6422  -13.4047 C   0  0  0  0  0  0  0  0  0  0  0  0
   20.3816   36.5147  -13.0032 C   0  0  0  0  0  0  0  0  0  0  0  0
   21.7058   38.8413  -13.9528 C   0  0  0  0  0  0  0  0  0  0  0  0
   19.6174   37.7050  -13.5623 C   0  0  0  0  0  0  0  0  0  0  0  0
   21.6482   36.9507  -12.3914 N   0  0  0  0  0  0  0  0  0  0  0  0
   20.6015   37.6719  -15.8097 C   0  0  0  0  0  0  0  0  0  0  0  0
   19.3372   37.5234  -16.6043 C   0  0  0  0  0  0  0  0  0  0  0  0
 34 31  1  0  0  0
 34 32  1  0  0  0
 31 35  1  0  0  0
 31 37  1  0  0  0
 32 36  1  0  0  0
 35 33  1  0  0  0
 36 33  1  0  0  0
 36 30  1  0  0  0
 37 38  1  0  0  0
 26 29  2  0  0  0
 26 27  1  0  0  0
 29 28  1  0  0  0
 30 27  1  0  0  0
 27 24  2  0  0  0
 28 22  1  0  0  0
 28 25  2  0  0  0
 22  1  1  0  0  0
 24 25  1  0  0  0
  5  1  2  0  0  0
  5  4  1  0  0  0
  1  6  1  0  0  0
  4  3  2  0  0  0
  6  2  2  0  0  0
  2  3  1  0  0  0
  2 10  1  0  0  0
  3  7  1  0  0  0
 20 21  1  0  0  0
 19 21  1  0  0  0
  8 10  2  0  0  0
  8 12  1  0  0  0
 10  9  1  0  0  0
 21 17  1  0  0  0
 12 17  1  0  0  0
 12 11  2  0  0  0
  9 13  2  0  0  0
 17 14  1  0  0  0
 13 11  1  0  0  0
 13 18  1  0  0  0
 11 16  1  0  0  0
 14 16  2  0  0  0
 14 15  1  0  0  0
 22 23  1  0  0  0
M  END
> <minimizedAffinity>
-8.89072

$$$$
5L2S_6ZV_A_900


 38 42  0  0  0  0  0  0  0  0999 V2000
   20.1900   39.9068   -6.6950 C   0  0  0  0  0  0  0  0  0  0  0  0
   21.8977   39.0671   -5.3900 C   0  0  0  0  0  0  0  0  0  0  0  0
   21.7702   40.2111   -4.5260 C   0  0  0  0  0  0  0  0  0  0  0  0
   20.7681   41.1308   -4.8652 C   0  0  0  0  0  0  0  0  0  0  0  0
   19.9727   40.9918   -5.9353 N   0  0  0  0  0  0  0  0  0  0  0  0
   21.1048   38.9420   -6.4742 N   0  0  0  0  0  0  0  0  0  0  0  0
   22.5898   40.4985   -3.4873 F   0  0  0  0  0  0  0  0  0  0  0  0
   23.2465   37.1489   -6.2697 C   0  0  0  0  0  0  0  0  0  0  0  0
   23.4260   37.6841   -3.9416 C   0  0  0  0  0  0  0  0  0  0  0  0
   22.8620   37.9499   -5.1922 C   0  0  0  0  0  0  0  0  0  0  0  0
   24.7584   35.8563   -4.8286 C   0  0  0  0  0  0  0  0  0  0  0  0
   24.1663   36.1261   -6.0638 C   0  0  0  0  0  0  0  0  0  0  0  0
   24.3550   36.6856   -3.7850 C   0  0  0  0  0  0  0  0  0  0  0  0
   25.5673   34.4085   -6.1802 C   0  0  0  0  0  0  0  0  0  0  0  0
   26.3513   33.2872   -6.7528 C   0  0  0  0  0  0  0  0  0  0  0  0
   25.6256   34.7829   -4.9288 N   0  0  0  0  0  0  0  0  0  0  0  0
   24.7046   35.1684   -6.9502 N   0  0  0  0  0  0  0  0  0  0  0  0
   24.9253   36.5073   -2.5736 F   0  0  0  0  0  0  0  0  0  0  0  0
   25.2853   34.8335   -9.3359 C   0  0  0  0  0  0  0  0  0  0  0  0
   22.9863   35.6516   -8.6752 C   0  0  0  0  0  0  0  0  0  0  0  0
   24.1837   34.8020   -8.2938 C   0  0  0  0  0  0  0  0  0  0  0  0
   19.3526   39.8093   -7.7733 N   0  0  0  0  0  0  0  0  0  0  0  0
   18.4022   39.9370   -7.5505 H   0  0  0  0  0  0  0  0  0  0  0  0
   19.9167   40.2041  -11.4015 C   0  0  0  0  0  0  0  0  0  0  0  0
   19.6039   40.5689  -10.1065 C   0  0  0  0  0  0  0  0  0  0  0  0
   20.1551   37.9674  -10.6846 C   0  0  0  0  0  0  0  0  0  0  0  0
   20.2104   38.8870  -11.7185 C   0  0  0  0  0  0  0  0  0  0  0  0
   19.5843   39.5643   -9.1250 C   0  0  0  0  0  0  0  0  0  0  0  0
   19.8472   38.2762   -9.4152 N   0  0  0  0  0  0  0  0  0  0  0  0
   20.5857   38.4822  -13.1281 C   0  0  0  0  0  0  0  0  0  0  0  0
   24.3391   37.5004  -14.8923 N   0  0  0  0  0  0  0  0  0  0  0  0
   22.3486   36.8943  -13.5774 C   0  0  0  0  0  0  0  0  0  0  0  0
   22.4960   39.0948  -14.5001 C   0  0  0  0  0  0  0  0  0  0  0  0
   23.8403   36.7049  -13.7590 C   0  0  0  0  0  0  0  0  0  0  0  0
   23.9931   38.9170  -14.7014 C   0  0  0  0  0  0  0  0  0  0  0  0
   22.0289   38.3065  -13.3472 N   0  0  0  0  0  0  0  0  0  0  0  0
   23.8720   36.9782  -16.2001 C   0  0  0  0  0  0  0  0  0  0  0  0
   24.3639   35.5929  -16.5019 C   0  0  0  0  0  0  0  0  0  0  0  0
 34 31  1  0  0  0
 34 32  1  0  0  0
 31 35  1  0  0  0
 31 37  1  0  0  0
 32 36  1  0  0  0
 35 33  1  0  0  0
 36 33  1  0  0  0
 36 30  1  0  0  0
 37 38  1  0  0  0
 26 29  2  0  0  0
 26 27  1  0  0  0
 29 28  1  0  0  0
 30 27  1  0  0  0
 27 24  2  0  0  0
 28 22  1  0  0  0
 28 25  2  0  0  0
 22  1  1  0  0  0
 24 25  1  0  0  0
  5  1  2  0  0  0
  5  4  1  0  0  0
  1  6  1  0  0  0
  4  3  2  0  0  0
  6  2  2  0  0  0
  2  3  1  0  0  0
  2 10  1  0  0  0
  3  7  1  0  0  0
 20 21  1  0  0  0
 19 21  1  0  0  0
  8 10  2  0  0  0
  8 12  1  0  0  0
 10  9  1  0  0  0
 21 17  1  0  0  0
 12 17  1  0  0  0
 12 11  2  0  0  0
  9 13  2  0  0  0
 17 14  1  0  0  0
 13 11  1  0  0  0
 13 18  1  0  0  0
 11 16  1  0  0  0
 14 16  2  0  0  0
 14 15  1  0  0  0
 22 23  1  0  0  0
M  END
> <minimizedAffinity>
-8.86258

$$$$
