1Q8T_Y27_A_930


 21 22  0  0  0  0  0  0  0  0999 V2000
    7.7842    9.7746    2.2318 C   0  0  0  0  0  0  0  0  0  0  0  0
    6.5297    9.4237    1.4263 C   0  0  0  0  0  0  0  0  0  0  0  0
    5.2759    9.8516    2.1953 C   0  0  0  0  0  0  0  0  0  0  0  0
    5.2021    8.9737    3.4505 C   0  0  0  0  0  0  0  0  0  0  0  0
    6.4199    9.2748    4.3640 C   0  0  0  0  0  0  0  0  0  0  0  0
    7.7857    9.0908    3.6136 C   0  0  0  0  0  0  0  0  0  0  0  0
    3.7985    9.1350    4.1100 C   0  0  0  0  0  0  0  0  0  0  0  0
    3.8790   10.0631    5.3361 C   0  0  0  0  0  0  0  0  0  0  0  0
    2.7886    9.6865    3.1375 N   0  0  0  0  0  0  0  0  0  0  0  0
    3.0793   10.6167    2.8365 H   0  0  0  0  0  0  0  0  0  0  0  0
    1.8769    9.7454    3.5910 H   0  0  0  0  0  0  0  0  0  0  0  0
    8.9710    8.8811    0.3249 O   0  0  0  0  0  0  0  0  0  0  0  0
    9.0112    9.4641    1.4117 C   0  0  0  0  0  0  0  0  0  0  0  0
   10.2207    9.9331    1.9964 N   0  0  0  0  0  0  0  0  0  0  0  0
   10.1882   10.1553    2.9549 H   0  0  0  0  0  0  0  0  0  0  0  0
   11.4894   10.1179    1.3349 C   0  0  0  0  0  0  0  0  0  0  0  0
   12.5663    9.3928    1.8715 C   0  0  0  0  0  0  0  0  0  0  0  0
   13.8031    9.5788    1.2489 C   0  0  0  0  0  0  0  0  0  0  0  0
   13.9571   10.3936    0.1841 N   0  0  0  0  0  0  0  0  0  0  0  0
   12.9373   11.0929   -0.3383 C   0  0  0  0  0  0  0  0  0  0  0  0
   11.6710   10.9834    0.2177 C   0  0  0  0  0  0  0  0  0  0  0  0
 12 13  2  0  0  0
 13  1  1  0  0  0
 13 14  1  0  0  0
  1  2  1  0  0  0
  1  6  1  0  0  0
  2  3  1  0  0  0
  3  4  1  0  0  0
  4  5  1  0  0  0
  4  7  1  0  0  0
  5  6  1  0  0  0
  7  8  1  0  0  0
  7  9  1  0  0  0
 14 16  1  0  0  0
 16 17  2  0  0  0
 16 21  1  0  0  0
 17 18  1  0  0  0
 18 19  2  0  0  0
 19 20  1  0  0  0
 20 21  2  0  0  0
  9 10  1  0  0  0
  9 11  1  0  0  0
 14 15  1  0  0  0
M  END
> <minimizedAffinity>
-8.62503

$$$$
1Q8T_Y27_A_930


 21 22  0  0  0  0  0  0  0  0999 V2000
    8.4137    8.9480    4.1703 C   0  0  0  0  0  0  0  0  0  0  0  0
    7.7419    9.9331    5.1316 C   0  0  0  0  0  0  0  0  0  0  0  0
    6.2518    9.6037    5.2637 C   0  0  0  0  0  0  0  0  0  0  0  0
    5.6118    9.8803    3.8978 C   0  0  0  0  0  0  0  0  0  0  0  0
    6.2008    8.9052    2.8441 C   0  0  0  0  0  0  0  0  0  0  0  0
    7.7663    8.9833    2.7715 C   0  0  0  0  0  0  0  0  0  0  0  0
    4.0596    9.8694    4.0447 C   0  0  0  0  0  0  0  0  0  0  0  0
    3.4179    8.9929    2.9533 C   0  0  0  0  0  0  0  0  0  0  0  0
    3.6340    9.3642    5.3987 N   0  0  0  0  0  0  0  0  0  0  0  0
    3.9459    8.4000    5.5153 H   0  0  0  0  0  0  0  0  0  0  0  0
    2.6174    9.4039    5.4722 H   0  0  0  0  0  0  0  0  0  0  0  0
   10.4370   10.1392    4.7450 O   0  0  0  0  0  0  0  0  0  0  0  0
    9.8997    9.2035    4.1461 C   0  0  0  0  0  0  0  0  0  0  0  0
   10.6302    8.2453    3.3892 N   0  0  0  0  0  0  0  0  0  0  0  0
   10.1119    7.6974    2.7563 H   0  0  0  0  0  0  0  0  0  0  0  0
   12.0489    7.9905    3.4499 C   0  0  0  0  0  0  0  0  0  0  0  0
   12.7751    8.3148    2.2920 C   0  0  0  0  0  0  0  0  0  0  0  0
   14.1472    8.0551    2.3345 C   0  0  0  0  0  0  0  0  0  0  0  0
   14.7479    7.5379    3.4267 N   0  0  0  0  0  0  0  0  0  0  0  0
   14.0663    7.2226    4.5394 C   0  0  0  0  0  0  0  0  0  0  0  0
   12.6961    7.4338    4.5908 C   0  0  0  0  0  0  0  0  0  0  0  0
 12 13  2  0  0  0
 13  1  1  0  0  0
 13 14  1  0  0  0
  1  2  1  0  0  0
  1  6  1  0  0  0
  2  3  1  0  0  0
  3  4  1  0  0  0
  4  5  1  0  0  0
  4  7  1  0  0  0
  5  6  1  0  0  0
  7  8  1  0  0  0
  7  9  1  0  0  0
 14 16  1  0  0  0
 16 17  2  0  0  0
 16 21  1  0  0  0
 17 18  1  0  0  0
 18 19  2  0  0  0
 19 20  1  0  0  0
 20 21  2  0  0  0
  9 10  1  0  0  0
  9 11  1  0  0  0
 14 15  1  0  0  0
M  END
> <minimizedAffinity>
-8.26225

$$$$
1Q8T_Y27_A_930


 21 22  0  0  0  0  0  0  0  0999 V2000
    8.3818    9.2558    3.9272 C   0  0  0  0  0  0  0  0  0  0  0  0
    7.6783   10.2132    4.8937 C   0  0  0  0  0  0  0  0  0  0  0  0
    6.2311    9.7635    5.1171 C   0  0  0  0  0  0  0  0  0  0  0  0
    5.4995    9.9373    3.7806 C   0  0  0  0  0  0  0  0  0  0  0  0
    6.1150    8.9796    2.7261 C   0  0  0  0  0  0  0  0  0  0  0  0
    7.6620    9.1875    2.5655 C   0  0  0  0  0  0  0  0  0  0  0  0
    3.9638    9.8000    4.0126 C   0  0  0  0  0  0  0  0  0  0  0  0
    3.3374    8.8686    2.9584 C   0  0  0  0  0  0  0  0  0  0  0  0
    3.6557    9.2682    5.3880 N   0  0  0  0  0  0  0  0  0  0  0  0
    4.0516    8.3335    5.4877 H   0  0  0  0  0  0  0  0  0  0  0  0
    2.6449    9.2249    5.5173 H   0  0  0  0  0  0  0  0  0  0  0  0
   10.5643    9.8340    4.7909 O   0  0  0  0  0  0  0  0  0  0  0  0
    9.8369    9.6354    3.8140 C   0  0  0  0  0  0  0  0  0  0  0  0
   10.3019    9.7153    2.4715 N   0  0  0  0  0  0  0  0  0  0  0  0
    9.6134    9.7881    1.7715 H   0  0  0  0  0  0  0  0  0  0  0  0
   11.6741    9.7010    2.0263 C   0  0  0  0  0  0  0  0  0  0  0  0
   12.0982   10.8424    1.3259 C   0  0  0  0  0  0  0  0  0  0  0  0
   13.4205   10.8306    0.8750 C   0  0  0  0  0  0  0  0  0  0  0  0
   14.2511    9.7930    1.1094 N   0  0  0  0  0  0  0  0  0  0  0  0
   13.8591    8.6960    1.7764 C   0  0  0  0  0  0  0  0  0  0  0  0
   12.5600    8.6086    2.2552 C   0  0  0  0  0  0  0  0  0  0  0  0
 12 13  2  0  0  0
 13  1  1  0  0  0
 13 14  1  0  0  0
  1  2  1  0  0  0
  1  6  1  0  0  0
  2  3  1  0  0  0
  3  4  1  0  0  0
  4  5  1  0  0  0
  4  7  1  0  0  0
  5  6  1  0  0  0
  7  8  1  0  0  0
  7  9  1  0  0  0
 14 16  1  0  0  0
 16 17  2  0  0  0
 16 21  1  0  0  0
 17 18  1  0  0  0
 18 19  2  0  0  0
 19 20  1  0  0  0
 20 21  2  0  0  0
  9 10  1  0  0  0
  9 11  1  0  0  0
 14 15  1  0  0  0
M  END
> <minimizedAffinity>
-8.24334

$$$$
1Q8T_Y27_A_930


 21 22  0  0  0  0  0  0  0  0999 V2000
    9.5831    8.9925    3.6162 C   0  0  0  0  0  0  0  0  0  0  0  0
    9.4596    8.9721    2.0897 C   0  0  0  0  0  0  0  0  0  0  0  0
   10.8460    9.0937    1.4496 C   0  0  0  0  0  0  0  0  0  0  0  0
   11.3716   10.4939    1.7884 C   0  0  0  0  0  0  0  0  0  0  0  0
   11.5678   10.6149    3.3230 C   0  0  0  0  0  0  0  0  0  0  0  0
   10.2554   10.2861    4.1178 C   0  0  0  0  0  0  0  0  0  0  0  0
   12.6264   10.7983    0.9143 C   0  0  0  0  0  0  0  0  0  0  0  0
   12.8229   12.3176    0.7585 C   0  0  0  0  0  0  0  0  0  0  0  0
   13.8742   10.1962    1.5060 N   0  0  0  0  0  0  0  0  0  0  0  0
   14.0489   10.6083    2.4225 H   0  0  0  0  0  0  0  0  0  0  0  0
   14.6666   10.3844    0.8920 H   0  0  0  0  0  0  0  0  0  0  0  0
    8.0740    8.3287    5.3840 O   0  0  0  0  0  0  0  0  0  0  0  0
    8.2293    8.7463    4.2332 C   0  0  0  0  0  0  0  0  0  0  0  0
    7.1436    9.0689    3.3718 N   0  0  0  0  0  0  0  0  0  0  0  0
    7.3526    9.1518    2.4133 H   0  0  0  0  0  0  0  0  0  0  0  0
    5.7694    9.2874    3.7526 C   0  0  0  0  0  0  0  0  0  0  0  0
    4.8081    8.9322    2.7918 C   0  0  0  0  0  0  0  0  0  0  0  0
    3.4750    9.1567    3.1442 C   0  0  0  0  0  0  0  0  0  0  0  0
    3.1243    9.6696    4.3422 N   0  0  0  0  0  0  0  0  0  0  0  0
    4.0320   10.0142    5.2692 C   0  0  0  0  0  0  0  0  0  0  0  0
    5.3833    9.8392    5.0084 C   0  0  0  0  0  0  0  0  0  0  0  0
 12 13  2  0  0  0
 13  1  1  0  0  0
 13 14  1  0  0  0
  1  2  1  0  0  0
  1  6  1  0  0  0
  2  3  1  0  0  0
  3  4  1  0  0  0
  4  5  1  0  0  0
  4  7  1  0  0  0
  5  6  1  0  0  0
  7  8  1  0  0  0
  7  9  1  0  0  0
 14 16  1  0  0  0
 16 17  2  0  0  0
 16 21  1  0  0  0
 17 18  1  0  0  0
 18 19  2  0  0  0
 19 20  1  0  0  0
 20 21  2  0  0  0
  9 10  1  0  0  0
  9 11  1  0  0  0
 14 15  1  0  0  0
M  END
> <minimizedAffinity>
-8.11013

$$$$
1Q8T_Y27_A_930


 21 22  0  0  0  0  0  0  0  0999 V2000
    8.6236   10.2411    3.7377 C   0  0  0  0  0  0  0  0  0  0  0  0
    7.8845    9.6737    2.5221 C   0  0  0  0  0  0  0  0  0  0  0  0
    6.3826    9.9484    2.6461 C   0  0  0  0  0  0  0  0  0  0  0  0
    5.8768    9.1279    3.8388 C   0  0  0  0  0  0  0  0  0  0  0  0
    6.5423    9.6456    5.1416 C   0  0  0  0  0  0  0  0  0  0  0  0
    8.1090    9.6292    5.0559 C   0  0  0  0  0  0  0  0  0  0  0  0
    4.3178    9.1122    3.8290 C   0  0  0  0  0  0  0  0  0  0  0  0
    3.7596    9.9931    4.9620 C   0  0  0  0  0  0  0  0  0  0  0  0
    3.7663    9.5922    2.5118 N   0  0  0  0  0  0  0  0  0  0  0  0
    4.0504   10.5595    2.3565 H   0  0  0  0  0  0  0  0  0  0  0  0
    2.7480    9.5354    2.5285 H   0  0  0  0  0  0  0  0  0  0  0  0
   10.9301   10.9616    3.8012 O   0  0  0  0  0  0  0  0  0  0  0  0
   10.1100   10.0761    3.5441 C   0  0  0  0  0  0  0  0  0  0  0  0
   10.4824    8.7898    3.0629 N   0  0  0  0  0  0  0  0  0  0  0  0
    9.7674    8.2486    2.6565 H   0  0  0  0  0  0  0  0  0  0  0  0
   11.7955    8.1938    3.1068 C   0  0  0  0  0  0  0  0  0  0  0  0
   12.1754    7.6495    4.3448 C   0  0  0  0  0  0  0  0  0  0  0  0
   13.4524    7.0859    4.4024 C   0  0  0  0  0  0  0  0  0  0  0  0
   14.2714    7.0493    3.3303 N   0  0  0  0  0  0  0  0  0  0  0  0
   13.9219    7.5661    2.1418 C   0  0  0  0  0  0  0  0  0  0  0  0
   12.6767    8.1579    1.9875 C   0  0  0  0  0  0  0  0  0  0  0  0
 12 13  2  0  0  0
 13  1  1  0  0  0
 13 14  1  0  0  0
  1  2  1  0  0  0
  1  6  1  0  0  0
  2  3  1  0  0  0
  3  4  1  0  0  0
  4  5  1  0  0  0
  4  7  1  0  0  0
  5  6  1  0  0  0
  7  8  1  0  0  0
  7  9  1  0  0  0
 14 16  1  0  0  0
 16 17  2  0  0  0
 16 21  1  0  0  0
 17 18  1  0  0  0
 18 19  2  0  0  0
 19 20  1  0  0  0
 20 21  2  0  0  0
  9 10  1  0  0  0
  9 11  1  0  0  0
 14 15  1  0  0  0
M  END
> <minimizedAffinity>
-7.89442

$$$$
1Q8T_Y27_A_930


 21 22  0  0  0  0  0  0  0  0999 V2000
    9.6604    9.2595    3.2099 C   0  0  0  0  0  0  0  0  0  0  0  0
    9.9589    7.9748    2.4312 C   0  0  0  0  0  0  0  0  0  0  0  0
   11.3637    7.4686    2.7731 C   0  0  0  0  0  0  0  0  0  0  0  0
   12.3550    8.5043    2.2286 C   0  0  0  0  0  0  0  0  0  0  0  0
   12.1617    9.8489    2.9788 C   0  0  0  0  0  0  0  0  0  0  0  0
   10.6836   10.3690    2.8954 C   0  0  0  0  0  0  0  0  0  0  0  0
   13.7944    7.9060    2.2609 C   0  0  0  0  0  0  0  0  0  0  0  0
   13.9300    6.8809    3.4020 C   0  0  0  0  0  0  0  0  0  0  0  0
   14.1492    7.2429    0.9555 N   0  0  0  0  0  0  0  0  0  0  0  0
   13.5123    6.4644    0.7856 H   0  0  0  0  0  0  0  0  0  0  0  0
   15.1070    6.8950    1.0001 H   0  0  0  0  0  0  0  0  0  0  0  0
    7.8332   10.1186    1.8809 O   0  0  0  0  0  0  0  0  0  0  0  0
    8.2328    9.6773    2.9618 C   0  0  0  0  0  0  0  0  0  0  0  0
    7.3804    9.4876    4.0852 N   0  0  0  0  0  0  0  0  0  0  0  0
    7.8220    9.3728    4.9576 H   0  0  0  0  0  0  0  0  0  0  0  0
    5.9383    9.4454    4.0827 C   0  0  0  0  0  0  0  0  0  0  0  0
    5.3122    9.9807    5.2206 C   0  0  0  0  0  0  0  0  0  0  0  0
    3.9162    9.9283    5.2357 C   0  0  0  0  0  0  0  0  0  0  0  0
    3.2048    9.4095    4.2128 N   0  0  0  0  0  0  0  0  0  0  0  0
    3.7898    8.8940    3.1201 C   0  0  0  0  0  0  0  0  0  0  0  0
    5.1732    8.8903    3.0164 C   0  0  0  0  0  0  0  0  0  0  0  0
 12 13  2  0  0  0
 13  1  1  0  0  0
 13 14  1  0  0  0
  1  2  1  0  0  0
  1  6  1  0  0  0
  2  3  1  0  0  0
  3  4  1  0  0  0
  4  5  1  0  0  0
  4  7  1  0  0  0
  5  6  1  0  0  0
  7  8  1  0  0  0
  7  9  1  0  0  0
 14 16  1  0  0  0
 16 17  2  0  0  0
 16 21  1  0  0  0
 17 18  1  0  0  0
 18 19  2  0  0  0
 19 20  1  0  0  0
 20 21  2  0  0  0
  9 10  1  0  0  0
  9 11  1  0  0  0
 14 15  1  0  0  0
M  END
> <minimizedAffinity>
-7.84870

$$$$
1Q8T_Y27_A_930


 21 22  0  0  0  0  0  0  0  0999 V2000
   10.1674    8.0634    2.3704 C   0  0  0  0  0  0  0  0  0  0  0  0
    9.8774    8.2007    3.8680 C   0  0  0  0  0  0  0  0  0  0  0  0
    8.3695    8.1069    4.1211 C   0  0  0  0  0  0  0  0  0  0  0  0
    7.7320    9.3438    3.4765 C   0  0  0  0  0  0  0  0  0  0  0  0
    7.9387    9.2900    1.9395 C   0  0  0  0  0  0  0  0  0  0  0  0
    9.4520    9.1534    1.5476 C   0  0  0  0  0  0  0  0  0  0  0  0
    6.2561    9.4745    3.9621 C   0  0  0  0  0  0  0  0  0  0  0  0
    6.1886   10.2556    5.2875 C   0  0  0  0  0  0  0  0  0  0  0  0
    5.3938   10.1641    2.9371 N   0  0  0  0  0  0  0  0  0  0  0  0
    5.7375   11.1125    2.7862 H   0  0  0  0  0  0  0  0  0  0  0  0
    4.4310   10.2006    3.2719 H   0  0  0  0  0  0  0  0  0  0  0  0
   12.2456    8.7916    1.3736 O   0  0  0  0  0  0  0  0  0  0  0  0
   11.6586    8.0312    2.1481 C   0  0  0  0  0  0  0  0  0  0  0  0
   12.3314    7.0582    2.9389 N   0  0  0  0  0  0  0  0  0  0  0  0
   11.7739    6.3460    3.3278 H   0  0  0  0  0  0  0  0  0  0  0  0
   13.7430    7.0035    3.2317 C   0  0  0  0  0  0  0  0  0  0  0  0
   14.0995    7.2817    4.5617 C   0  0  0  0  0  0  0  0  0  0  0  0
   15.4658    7.2488    4.8514 C   0  0  0  0  0  0  0  0  0  0  0  0
   16.3924    6.9522    3.9160 N   0  0  0  0  0  0  0  0  0  0  0  0
   16.0662    6.6852    2.6415 C   0  0  0  0  0  0  0  0  0  0  0  0
   14.7345    6.7038    2.2531 C   0  0  0  0  0  0  0  0  0  0  0  0
 12 13  2  0  0  0
 13  1  1  0  0  0
 13 14  1  0  0  0
  1  2  1  0  0  0
  1  6  1  0  0  0
  2  3  1  0  0  0
  3  4  1  0  0  0
  4  5  1  0  0  0
  4  7  1  0  0  0
  5  6  1  0  0  0
  7  8  1  0  0  0
  7  9  1  0  0  0
 14 16  1  0  0  0
 16 17  2  0  0  0
 16 21  1  0  0  0
 17 18  1  0  0  0
 18 19  2  0  0  0
 19 20  1  0  0  0
 20 21  2  0  0  0
  9 10  1  0  0  0
  9 11  1  0  0  0
 14 15  1  0  0  0
M  END
> <minimizedAffinity>
-7.55017

$$$$
1Q8T_Y27_A_930


 21 22  0  0  0  0  0  0  0  0999 V2000
    8.5577    9.0186    3.7816 C   0  0  0  0  0  0  0  0  0  0  0  0
    7.8668    9.7854    4.9131 C   0  0  0  0  0  0  0  0  0  0  0  0
    6.4477    9.2475    5.1212 C   0  0  0  0  0  0  0  0  0  0  0  0
    5.6500    9.5957    3.8586 C   0  0  0  0  0  0  0  0  0  0  0  0
    6.2490    8.8386    2.6436 C   0  0  0  0  0  0  0  0  0  0  0  0
    7.7790    9.1322    2.4558 C   0  0  0  0  0  0  0  0  0  0  0  0
    4.1322    9.3612    4.1275 C   0  0  0  0  0  0  0  0  0  0  0  0
    3.6963   10.0661    5.4253 C   0  0  0  0  0  0  0  0  0  0  0  0
    3.2833    9.8573    2.9860 N   0  0  0  0  0  0  0  0  0  0  0  0
    3.4099   10.8639    2.8806 H   0  0  0  0  0  0  0  0  0  0  0  0
    2.3022    9.6564    3.1796 H   0  0  0  0  0  0  0  0  0  0  0  0
   10.4054   10.5366    4.1353 O   0  0  0  0  0  0  0  0  0  0  0  0
    9.9922    9.4706    3.6709 C   0  0  0  0  0  0  0  0  0  0  0  0
   10.8337    8.5368    3.0041 N   0  0  0  0  0  0  0  0  0  0  0  0
   10.3842    7.8505    2.4599 H   0  0  0  0  0  0  0  0  0  0  0  0
   12.2751    8.4881    3.0400 C   0  0  0  0  0  0  0  0  0  0  0  0
   12.9261    8.8601    1.8520 C   0  0  0  0  0  0  0  0  0  0  0  0
   14.3217    8.7991    1.8711 C   0  0  0  0  0  0  0  0  0  0  0  0
   15.0102    8.4211    2.9685 N   0  0  0  0  0  0  0  0  0  0  0  0
   14.4014    8.0623    4.1099 C   0  0  0  0  0  0  0  0  0  0  0  0
   13.0163    8.0797    4.1864 C   0  0  0  0  0  0  0  0  0  0  0  0
 12 13  2  0  0  0
 13  1  1  0  0  0
 13 14  1  0  0  0
  1  2  1  0  0  0
  1  6  1  0  0  0
  2  3  1  0  0  0
  3  4  1  0  0  0
  4  5  1  0  0  0
  4  7  1  0  0  0
  5  6  1  0  0  0
  7  8  1  0  0  0
  7  9  1  0  0  0
 14 16  1  0  0  0
 16 17  2  0  0  0
 16 21  1  0  0  0
 17 18  1  0  0  0
 18 19  2  0  0  0
 19 20  1  0  0  0
 20 21  2  0  0  0
  9 10  1  0  0  0
  9 11  1  0  0  0
 14 15  1  0  0  0
M  END
> <minimizedAffinity>
-7.43854

$$$$
1Q8T_Y27_A_930


 21 22  0  0  0  0  0  0  0  0999 V2000
    9.5305    9.6499    2.7301 C   0  0  0  0  0  0  0  0  0  0  0  0
    9.8286    9.1854    4.1588 C   0  0  0  0  0  0  0  0  0  0  0  0
   11.3423    9.1299    4.3872 C   0  0  0  0  0  0  0  0  0  0  0  0
   11.8883    8.0172    3.4841 C   0  0  0  0  0  0  0  0  0  0  0  0
   11.6673    8.4031    1.9974 C   0  0  0  0  0  0  0  0  0  0  0  0
   10.1619    8.7128    1.6812 C   0  0  0  0  0  0  0  0  0  0  0  0
   13.3580    7.6960    3.8941 C   0  0  0  0  0  0  0  0  0  0  0  0
   14.1580    7.1797    2.6839 C   0  0  0  0  0  0  0  0  0  0  0  0
   14.0514    8.9050    4.4661 N   0  0  0  0  0  0  0  0  0  0  0  0
   14.0985    9.6370    3.7573 H   0  0  0  0  0  0  0  0  0  0  0  0
   14.9958    8.6503    4.7551 H   0  0  0  0  0  0  0  0  0  0  0  0
    7.4886    9.8743    1.4559 O   0  0  0  0  0  0  0  0  0  0  0  0
    8.0421    9.8210    2.5575 C   0  0  0  0  0  0  0  0  0  0  0  0
    7.3299    9.8866    3.7876 N   0  0  0  0  0  0  0  0  0  0  0  0
    7.8607   10.0852    4.5927 H   0  0  0  0  0  0  0  0  0  0  0  0
    5.9135    9.6933    3.9814 C   0  0  0  0  0  0  0  0  0  0  0  0
    5.2275    9.1033    2.9068 C   0  0  0  0  0  0  0  0  0  0  0  0
    3.8520    8.9282    3.0778 C   0  0  0  0  0  0  0  0  0  0  0  0
    3.2167    9.2882    4.2128 N   0  0  0  0  0  0  0  0  0  0  0  0
    3.8593    9.8536    5.2469 C   0  0  0  0  0  0  0  0  0  0  0  0
    5.2260   10.0789    5.1685 C   0  0  0  0  0  0  0  0  0  0  0  0
 12 13  2  0  0  0
 13  1  1  0  0  0
 13 14  1  0  0  0
  1  2  1  0  0  0
  1  6  1  0  0  0
  2  3  1  0  0  0
  3  4  1  0  0  0
  4  5  1  0  0  0
  4  7  1  0  0  0
  5  6  1  0  0  0
  7  8  1  0  0  0
  7  9  1  0  0  0
 14 16  1  0  0  0
 16 17  2  0  0  0
 16 21  1  0  0  0
 17 18  1  0  0  0
 18 19  2  0  0  0
 19 20  1  0  0  0
 20 21  2  0  0  0
  9 10  1  0  0  0
  9 11  1  0  0  0
 14 15  1  0  0  0
M  END
> <minimizedAffinity>
-7.37474

$$$$
1Q8T_Y27_A_930


 21 22  0  0  0  0  0  0  0  0999 V2000
    9.7865   10.1867    3.9137 C   0  0  0  0  0  0  0  0  0  0  0  0
    9.0204    9.3240    2.9064 C   0  0  0  0  0  0  0  0  0  0  0  0
    7.5893    9.8471    2.7493 C   0  0  0  0  0  0  0  0  0  0  0  0
    6.8815    9.6176    4.0902 C   0  0  0  0  0  0  0  0  0  0  0  0
    7.5618   10.4785    5.1876 C   0  0  0  0  0  0  0  0  0  0  0  0
    9.1016   10.1965    5.2950 C   0  0  0  0  0  0  0  0  0  0  0  0
    5.3483    9.8334    3.9068 C   0  0  0  0  0  0  0  0  0  0  0  0
    4.7955    8.8969    2.8166 C   0  0  0  0  0  0  0  0  0  0  0  0
    4.5970    9.5956    5.1908 N   0  0  0  0  0  0  0  0  0  0  0  0
    4.7232    8.6269    5.4841 H   0  0  0  0  0  0  0  0  0  0  0  0
    3.6046    9.7795    5.0431 H   0  0  0  0  0  0  0  0  0  0  0  0
   11.8523    9.5895    5.0179 O   0  0  0  0  0  0  0  0  0  0  0  0
   11.2261    9.7404    3.9653 C   0  0  0  0  0  0  0  0  0  0  0  0
   11.7882    9.4810    2.6841 N   0  0  0  0  0  0  0  0  0  0  0  0
   11.3117    9.8595    1.9102 H   0  0  0  0  0  0  0  0  0  0  0  0
   12.9816    8.7226    2.3977 C   0  0  0  0  0  0  0  0  0  0  0  0
   13.8721    9.3118    1.4849 C   0  0  0  0  0  0  0  0  0  0  0  0
   15.0225    8.5768    1.1874 C   0  0  0  0  0  0  0  0  0  0  0  0
   15.2763    7.3780    1.7527 N   0  0  0  0  0  0  0  0  0  0  0  0
   14.4341    6.8029    2.6256 C   0  0  0  0  0  0  0  0  0  0  0  0
   13.2585    7.4504    2.9768 C   0  0  0  0  0  0  0  0  0  0  0  0
 12 13  2  0  0  0
 13  1  1  0  0  0
 13 14  1  0  0  0
  1  2  1  0  0  0
  1  6  1  0  0  0
  2  3  1  0  0  0
  3  4  1  0  0  0
  4  5  1  0  0  0
  4  7  1  0  0  0
  5  6  1  0  0  0
  7  8  1  0  0  0
  7  9  1  0  0  0
 14 16  1  0  0  0
 16 17  2  0  0  0
 16 21  1  0  0  0
 17 18  1  0  0  0
 18 19  2  0  0  0
 19 20  1  0  0  0
 20 21  2  0  0  0
  9 10  1  0  0  0
  9 11  1  0  0  0
 14 15  1  0  0  0
M  END
> <minimizedAffinity>
-7.27900

$$$$
