2V59_LZK_A_1446


 26 28  0  0  0  0  0  0  0  0999 V2000
    1.6059  -27.6205   24.5162 N   0  0  0  0  0  0  0  0  0  0  0  0
    1.9582  -26.3209   24.6592 C   0  0  0  0  0  0  0  0  0  0  0  0
    3.0033  -25.8484   23.9457 N   0  0  0  0  0  0  0  0  0  0  0  0
    1.2775  -25.5066   25.5098 N   0  0  0  0  0  0  0  0  0  0  0  0
    1.6268  -24.2169   25.6623 C   0  0  0  0  0  0  0  0  0  0  0  0
    2.7029  -23.7129   24.9339 C   0  0  0  0  0  0  0  0  0  0  0  0
    3.3908  -24.5620   24.0675 C   0  0  0  0  0  0  0  0  0  0  0  0
    4.4417  -24.1072   23.3472 N   0  0  0  0  0  0  0  0  0  0  0  0
    4.8518  -22.8218   23.4417 C   0  0  0  0  0  0  0  0  0  0  0  0
    5.9104  -22.4266   22.6909 N   0  0  0  0  0  0  0  0  0  0  0  0
    3.1086  -22.3880   25.0574 C   0  0  0  0  0  0  0  0  0  0  0  0
    4.1973  -21.9392   24.3032 C   0  0  0  0  0  0  0  0  0  0  0  0
    2.1057  -28.2008   23.8976 H   0  0  0  0  0  0  0  0  0  0  0  0
    0.8499  -27.9851   25.0308 H   0  0  0  0  0  0  0  0  0  0  0  0
    6.3552  -23.0679   22.0908 H   0  0  0  0  0  0  0  0  0  0  0  0
    6.2339  -21.4983   22.7461 H   0  0  0  0  0  0  0  0  0  0  0  0
    4.6352  -20.5172   24.4095 C   0  0  0  0  0  0  0  0  0  0  0  0
    3.8771  -19.4975   23.8342 C   0  0  0  0  0  0  0  0  0  0  0  0
    5.8107  -20.2202   25.0988 C   0  0  0  0  0  0  0  0  0  0  0  0
    6.2291  -18.8890   25.2029 C   0  0  0  0  0  0  0  0  0  0  0  0
    5.4736  -17.8672   24.6259 C   0  0  0  0  0  0  0  0  0  0  0  0
    4.2980  -18.1680   23.9403 C   0  0  0  0  0  0  0  0  0  0  0  0
    2.7267  -19.8184   23.1535 O   0  0  0  0  0  0  0  0  0  0  0  0
    1.6366  -18.9095   23.0386 C   0  0  0  0  0  0  0  0  0  0  0  0
    6.5394  -21.2472   25.6600 O   0  0  0  0  0  0  0  0  0  0  0  0
    7.9555  -21.3789   25.5139 C   0  0  0  0  0  0  0  0  0  0  0  0
  1  2  1  0  0  0
  2  3  1  0  0  0
  2  4  2  0  0  0
  3  7  2  0  0  0
  4  5  1  0  0  0
  5  6  2  0  0  0
  6  7  1  0  0  0
  6 11  1  0  0  0
  7  8  1  0  0  0
  8  9  2  0  0  0
  9 10  1  0  0  0
  9 12  1  0  0  0
 11 12  2  0  0  0
 12 17  1  0  0  0
 17 18  1  0  0  0
 17 19  2  0  0  0
 18 23  1  0  0  0
 18 22  2  0  0  0
 23 24  1  0  0  0
 19 25  1  0  0  0
 19 20  1  0  0  0
 25 26  1  0  0  0
 20 21  2  0  0  0
 21 22  1  0  0  0
  1 13  1  0  0  0
  1 14  1  0  0  0
 10 15  1  0  0  0
 10 16  1  0  0  0
M  END
> <minimizedAffinity>
-8.44454

$$$$
2V59_LZK_A_1446


 26 28  0  0  0  0  0  0  0  0999 V2000
    1.6137  -27.6240   24.5289 N   0  0  0  0  0  0  0  0  0  0  0  0
    1.9626  -26.3227   24.6648 C   0  0  0  0  0  0  0  0  0  0  0  0
    3.0120  -25.8536   23.9554 N   0  0  0  0  0  0  0  0  0  0  0  0
    1.2741  -25.5034   25.5043 N   0  0  0  0  0  0  0  0  0  0  0  0
    1.6199  -24.2119   25.6497 C   0  0  0  0  0  0  0  0  0  0  0  0
    2.7004  -23.7113   24.9254 C   0  0  0  0  0  0  0  0  0  0  0  0
    3.3963  -24.5655   24.0705 C   0  0  0  0  0  0  0  0  0  0  0  0
    4.4515  -24.1141   23.3546 N   0  0  0  0  0  0  0  0  0  0  0  0
    4.8586  -22.8273   23.4424 C   0  0  0  0  0  0  0  0  0  0  0  0
    5.9220  -22.4356   22.6964 N   0  0  0  0  0  0  0  0  0  0  0  0
    3.1028  -22.3848   25.0420 C   0  0  0  0  0  0  0  0  0  0  0  0
    4.1961  -21.9395   24.2925 C   0  0  0  0  0  0  0  0  0  0  0  0
    2.1191  -28.2079   23.9183 H   0  0  0  0  0  0  0  0  0  0  0  0
    0.8547  -27.9861   25.0407 H   0  0  0  0  0  0  0  0  0  0  0  0
    6.3723  -23.0806   22.1044 H   0  0  0  0  0  0  0  0  0  0  0  0
    6.2433  -21.5064   22.7471 H   0  0  0  0  0  0  0  0  0  0  0  0
    4.6306  -20.5160   24.3914 C   0  0  0  0  0  0  0  0  0  0  0  0
    5.7993  -20.1776   25.0735 C   0  0  0  0  0  0  0  0  0  0  0  0
    3.8552  -19.5275   23.7857 C   0  0  0  0  0  0  0  0  0  0  0  0
    4.2553  -18.1895   23.8739 C   0  0  0  0  0  0  0  0  0  0  0  0
    5.4229  -17.8482   24.5581 C   0  0  0  0  0  0  0  0  0  0  0  0
    6.1964  -18.8394   25.1596 C   0  0  0  0  0  0  0  0  0  0  0  0
    6.5410  -21.1705   25.6682 O   0  0  0  0  0  0  0  0  0  0  0  0
    7.9512  -21.2679   25.4967 C   0  0  0  0  0  0  0  0  0  0  0  0
    2.7062  -19.8900   23.1156 O   0  0  0  0  0  0  0  0  0  0  0  0
    2.0196  -19.0264   22.2063 C   0  0  0  0  0  0  0  0  0  0  0  0
  1  2  1  0  0  0
  2  3  1  0  0  0
  2  4  2  0  0  0
  3  7  2  0  0  0
  4  5  1  0  0  0
  5  6  2  0  0  0
  6  7  1  0  0  0
  6 11  1  0  0  0
  7  8  1  0  0  0
  8  9  2  0  0  0
  9 10  1  0  0  0
  9 12  1  0  0  0
 11 12  2  0  0  0
 12 17  1  0  0  0
 17 18  1  0  0  0
 17 19  2  0  0  0
 18 23  1  0  0  0
 18 22  2  0  0  0
 23 24  1  0  0  0
 19 25  1  0  0  0
 19 20  1  0  0  0
 25 26  1  0  0  0
 20 21  2  0  0  0
 21 22  1  0  0  0
  1 13  1  0  0  0
  1 14  1  0  0  0
 10 15  1  0  0  0
 10 16  1  0  0  0
M  END
> <minimizedAffinity>
-8.40794

$$$$
2V59_LZK_A_1446


 26 28  0  0  0  0  0  0  0  0999 V2000
    8.6166  -17.3562   24.9726 N   0  0  0  0  0  0  0  0  0  0  0  0
    7.8543  -18.4730   25.0440 C   0  0  0  0  0  0  0  0  0  0  0  0
    6.6805  -18.5025   24.3762 N   0  0  0  0  0  0  0  0  0  0  0  0
    8.2584  -19.5435   25.7792 N   0  0  0  0  0  0  0  0  0  0  0  0
    7.5026  -20.6529   25.8606 C   0  0  0  0  0  0  0  0  0  0  0  0
    6.2884  -20.7005   25.1780 C   0  0  0  0  0  0  0  0  0  0  0  0
    5.8885  -19.5933   24.4302 C   0  0  0  0  0  0  0  0  0  0  0  0
    4.7149  -19.6038   23.7575 N   0  0  0  0  0  0  0  0  0  0  0  0
    3.9008  -20.6834   23.7860 C   0  0  0  0  0  0  0  0  0  0  0  0
    2.7386  -20.6325   23.0879 N   0  0  0  0  0  0  0  0  0  0  0  0
    5.4664  -21.8214   25.2321 C   0  0  0  0  0  0  0  0  0  0  0  0
    4.2578  -21.8105   24.5289 C   0  0  0  0  0  0  0  0  0  0  0  0
    8.3142  -16.5871   24.4374 H   0  0  0  0  0  0  0  0  0  0  0  0
    9.4733  -17.3132   25.4558 H   0  0  0  0  0  0  0  0  0  0  0  0
    2.5094  -19.8262   22.5716 H   0  0  0  0  0  0  0  0  0  0  0  0
    2.1245  -21.4020   23.0976 H   0  0  0  0  0  0  0  0  0  0  0  0
    3.3721  -23.0104   24.5610 C   0  0  0  0  0  0  0  0  0  0  0  0
    3.5566  -24.0517   23.6517 C   0  0  0  0  0  0  0  0  0  0  0  0
    2.3603  -23.0799   25.5185 C   0  0  0  0  0  0  0  0  0  0  0  0
    1.5246  -24.2016   25.5554 C   0  0  0  0  0  0  0  0  0  0  0  0
    1.7056  -25.2438   24.6449 C   0  0  0  0  0  0  0  0  0  0  0  0
    2.7197  -25.1716   23.6915 C   0  0  0  0  0  0  0  0  0  0  0  0
    4.5563  -23.9545   22.7132 O   0  0  0  0  0  0  0  0  0  0  0  0
    5.9265  -24.1574   23.0429 C   0  0  0  0  0  0  0  0  0  0  0  0
    2.2018  -22.0376   26.4069 O   0  0  0  0  0  0  0  0  0  0  0  0
    1.1413  -21.0828   26.3189 C   0  0  0  0  0  0  0  0  0  0  0  0
  1  2  1  0  0  0
  2  3  1  0  0  0
  2  4  2  0  0  0
  3  7  2  0  0  0
  4  5  1  0  0  0
  5  6  2  0  0  0
  6  7  1  0  0  0
  6 11  1  0  0  0
  7  8  1  0  0  0
  8  9  2  0  0  0
  9 10  1  0  0  0
  9 12  1  0  0  0
 11 12  2  0  0  0
 12 17  1  0  0  0
 17 18  1  0  0  0
 17 19  2  0  0  0
 18 23  1  0  0  0
 18 22  2  0  0  0
 23 24  1  0  0  0
 19 25  1  0  0  0
 19 20  1  0  0  0
 25 26  1  0  0  0
 20 21  2  0  0  0
 21 22  1  0  0  0
  1 13  1  0  0  0
  1 14  1  0  0  0
 10 15  1  0  0  0
 10 16  1  0  0  0
M  END
> <minimizedAffinity>
-6.53851

$$$$
2V59_LZK_A_1446


 26 28  0  0  0  0  0  0  0  0999 V2000
    1.8220  -14.4318   23.0613 N   0  0  0  0  0  0  0  0  0  0  0  0
    2.1693  -15.7406   23.0749 C   0  0  0  0  0  0  0  0  0  0  0  0
    3.2343  -16.1227   23.8127 N   0  0  0  0  0  0  0  0  0  0  0  0
    1.4639  -16.6536   22.3547 N   0  0  0  0  0  0  0  0  0  0  0  0
    1.8080  -17.9537   22.3578 C   0  0  0  0  0  0  0  0  0  0  0  0
    2.9044  -18.3654   23.1135 C   0  0  0  0  0  0  0  0  0  0  0  0
    3.6175  -17.4158   23.8447 C   0  0  0  0  0  0  0  0  0  0  0  0
    4.6884  -17.7797   24.5867 N   0  0  0  0  0  0  0  0  0  0  0  0
    5.0950  -19.0683   24.6450 C   0  0  0  0  0  0  0  0  0  0  0  0
    6.1746  -19.3693   25.4095 N   0  0  0  0  0  0  0  0  0  0  0  0
    3.3057  -19.6969   23.1481 C   0  0  0  0  0  0  0  0  0  0  0  0
    4.4154  -20.0507   23.9219 C   0  0  0  0  0  0  0  0  0  0  0  0
    2.3398  -13.7796   23.5864 H   0  0  0  0  0  0  0  0  0  0  0  0
    1.0517  -14.1325   22.5262 H   0  0  0  0  0  0  0  0  0  0  0  0
    6.6368  -18.6586   25.9101 H   0  0  0  0  0  0  0  0  0  0  0  0
    6.4958  -20.2983   25.4638 H   0  0  0  0  0  0  0  0  0  0  0  0
    4.8493  -21.4765   23.9851 C   0  0  0  0  0  0  0  0  0  0  0  0
    6.1082  -21.8552   23.5193 C   0  0  0  0  0  0  0  0  0  0  0  0
    3.9807  -22.4255   24.5236 C   0  0  0  0  0  0  0  0  0  0  0  0
    4.3795  -23.7654   24.5863 C   0  0  0  0  0  0  0  0  0  0  0  0
    5.6377  -24.1472   24.1184 C   0  0  0  0  0  0  0  0  0  0  0  0
    6.5038  -23.1951   23.5836 C   0  0  0  0  0  0  0  0  0  0  0  0
    6.9419  -20.9011   22.9861 O   0  0  0  0  0  0  0  0  0  0  0  0
    8.3503  -20.9247   23.1940 C   0  0  0  0  0  0  0  0  0  0  0  0
    2.7432  -22.0233   24.9791 O   0  0  0  0  0  0  0  0  0  0  0  0
    2.0535  -22.6652   26.0546 C   0  0  0  0  0  0  0  0  0  0  0  0
  1  2  1  0  0  0
  2  3  1  0  0  0
  2  4  2  0  0  0
  3  7  2  0  0  0
  4  5  1  0  0  0
  5  6  2  0  0  0
  6  7  1  0  0  0
  6 11  1  0  0  0
  7  8  1  0  0  0
  8  9  2  0  0  0
  9 10  1  0  0  0
  9 12  1  0  0  0
 11 12  2  0  0  0
 12 17  1  0  0  0
 17 18  1  0  0  0
 17 19  2  0  0  0
 18 23  1  0  0  0
 18 22  2  0  0  0
 23 24  1  0  0  0
 19 25  1  0  0  0
 19 20  1  0  0  0
 25 26  1  0  0  0
 20 21  2  0  0  0
 21 22  1  0  0  0
  1 13  1  0  0  0
  1 14  1  0  0  0
 10 15  1  0  0  0
 10 16  1  0  0  0
M  END
> <minimizedAffinity>
-6.20890

$$$$
2V59_LZK_A_1446


 26 28  0  0  0  0  0  0  0  0999 V2000
    1.8342  -14.3687   23.0611 N   0  0  0  0  0  0  0  0  0  0  0  0
    2.1707  -15.6802   23.0811 C   0  0  0  0  0  0  0  0  0  0  0  0
    3.2378  -16.0664   23.8137 N   0  0  0  0  0  0  0  0  0  0  0  0
    1.4525  -16.5920   22.3721 N   0  0  0  0  0  0  0  0  0  0  0  0
    1.7857  -17.8949   22.3814 C   0  0  0  0  0  0  0  0  0  0  0  0
    2.8841  -18.3108   23.1319 C   0  0  0  0  0  0  0  0  0  0  0  0
    3.6104  -17.3624   23.8515 C   0  0  0  0  0  0  0  0  0  0  0  0
    4.6837  -17.7303   24.5882 N   0  0  0  0  0  0  0  0  0  0  0  0
    5.0799  -19.0219   24.6522 C   0  0  0  0  0  0  0  0  0  0  0  0
    6.1625  -19.3268   25.4109 N   0  0  0  0  0  0  0  0  0  0  0  0
    3.2746  -19.6453   23.1726 C   0  0  0  0  0  0  0  0  0  0  0  0
    4.3869  -20.0033   23.9407 C   0  0  0  0  0  0  0  0  0  0  0  0
    2.3612  -13.7174   23.5781 H   0  0  0  0  0  0  0  0  0  0  0  0
    1.0626  -14.0665   22.5297 H   0  0  0  0  0  0  0  0  0  0  0  0
    6.6343  -18.6167   25.9033 H   0  0  0  0  0  0  0  0  0  0  0  0
    6.4764  -20.2581   25.4691 H   0  0  0  0  0  0  0  0  0  0  0  0
    4.8093  -21.4322   24.0103 C   0  0  0  0  0  0  0  0  0  0  0  0
    3.9478  -22.4014   24.5238 C   0  0  0  0  0  0  0  0  0  0  0  0
    6.0763  -21.7872   23.5478 C   0  0  0  0  0  0  0  0  0  0  0  0
    6.4809  -23.1253   23.6099 C   0  0  0  0  0  0  0  0  0  0  0  0
    5.6216  -24.0966   24.1257 C   0  0  0  0  0  0  0  0  0  0  0  0
    4.3552  -23.7380   24.5842 C   0  0  0  0  0  0  0  0  0  0  0  0
    2.7075  -22.0235   24.9802 O   0  0  0  0  0  0  0  0  0  0  0  0
    2.0454  -22.7152   26.0340 C   0  0  0  0  0  0  0  0  0  0  0  0
    6.9067  -20.8093   23.0428 O   0  0  0  0  0  0  0  0  0  0  0  0
    8.3319  -20.8565   23.1460 C   0  0  0  0  0  0  0  0  0  0  0  0
  1  2  1  0  0  0
  2  3  1  0  0  0
  2  4  2  0  0  0
  3  7  2  0  0  0
  4  5  1  0  0  0
  5  6  2  0  0  0
  6  7  1  0  0  0
  6 11  1  0  0  0
  7  8  1  0  0  0
  8  9  2  0  0  0
  9 10  1  0  0  0
  9 12  1  0  0  0
 11 12  2  0  0  0
 12 17  1  0  0  0
 17 18  1  0  0  0
 17 19  2  0  0  0
 18 23  1  0  0  0
 18 22  2  0  0  0
 23 24  1  0  0  0
 19 25  1  0  0  0
 19 20  1  0  0  0
 25 26  1  0  0  0
 20 21  2  0  0  0
 21 22  1  0  0  0
  1 13  1  0  0  0
  1 14  1  0  0  0
 10 15  1  0  0  0
 10 16  1  0  0  0
M  END
> <minimizedAffinity>
-6.19413

$$$$
2V59_LZK_A_1446


 26 28  0  0  0  0  0  0  0  0999 V2000
    2.0252  -24.5535   23.8559 N   0  0  0  0  0  0  0  0  0  0  0  0
    2.9568  -23.5749   23.7659 C   0  0  0  0  0  0  0  0  0  0  0  0
    4.0968  -23.6950   24.4804 N   0  0  0  0  0  0  0  0  0  0  0  0
    2.7474  -22.4875   22.9761 N   0  0  0  0  0  0  0  0  0  0  0  0
    3.6651  -21.5084   22.8880 C   0  0  0  0  0  0  0  0  0  0  0  0
    4.8471  -21.6161   23.6187 C   0  0  0  0  0  0  0  0  0  0  0  0
    5.0448  -22.7369   24.4247 C   0  0  0  0  0  0  0  0  0  0  0  0
    6.1788  -22.8727   25.1497 N   0  0  0  0  0  0  0  0  0  0  0  0
    7.1512  -21.9334   25.1116 C   0  0  0  0  0  0  0  0  0  0  0  0
    8.2660  -22.1295   25.8595 N   0  0  0  0  0  0  0  0  0  0  0  0
    5.8269  -20.6301   23.5673 C   0  0  0  0  0  0  0  0  0  0  0  0
    6.9913  -20.7911   24.3246 C   0  0  0  0  0  0  0  0  0  0  0  0
    2.1873  -25.3361   24.4307 H   0  0  0  0  0  0  0  0  0  0  0  0
    1.1857  -24.4823   23.3465 H   0  0  0  0  0  0  0  0  0  0  0  0
    8.3551  -22.9434   26.4062 H   0  0  0  0  0  0  0  0  0  0  0  0
    8.9859  -21.4580   25.8556 H   0  0  0  0  0  0  0  0  0  0  0  0
    8.0605  -19.7525   24.2680 C   0  0  0  0  0  0  0  0  0  0  0  0
    7.9474  -18.5779   25.0117 C   0  0  0  0  0  0  0  0  0  0  0  0
    9.1795  -19.9754   23.4659 C   0  0  0  0  0  0  0  0  0  0  0  0
   10.1870  -19.0061   23.4066 C   0  0  0  0  0  0  0  0  0  0  0  0
   10.0749  -17.8289   24.1478 C   0  0  0  0  0  0  0  0  0  0  0  0
    8.9563  -17.6114   24.9504 C   0  0  0  0  0  0  0  0  0  0  0  0
    6.8305  -18.3797   25.7881 O   0  0  0  0  0  0  0  0  0  0  0  0
    5.6205  -17.8532   25.2535 C   0  0  0  0  0  0  0  0  0  0  0  0
    9.2670  -21.1462   22.7433 O   0  0  0  0  0  0  0  0  0  0  0  0
   10.4033  -22.0130   22.7835 C   0  0  0  0  0  0  0  0  0  0  0  0
  1  2  1  0  0  0
  2  3  1  0  0  0
  2  4  2  0  0  0
  3  7  2  0  0  0
  4  5  1  0  0  0
  5  6  2  0  0  0
  6  7  1  0  0  0
  6 11  1  0  0  0
  7  8  1  0  0  0
  8  9  2  0  0  0
  9 10  1  0  0  0
  9 12  1  0  0  0
 11 12  2  0  0  0
 12 17  1  0  0  0
 17 18  1  0  0  0
 17 19  2  0  0  0
 18 23  1  0  0  0
 18 22  2  0  0  0
 23 24  1  0  0  0
 19 25  1  0  0  0
 19 20  1  0  0  0
 25 26  1  0  0  0
 20 21  2  0  0  0
 21 22  1  0  0  0
  1 13  1  0  0  0
  1 14  1  0  0  0
 10 15  1  0  0  0
 10 16  1  0  0  0
M  END
> <minimizedAffinity>
-5.97977

$$$$
2V59_LZK_A_1446


 26 28  0  0  0  0  0  0  0  0999 V2000
    1.9771  -24.5699   23.9666 N   0  0  0  0  0  0  0  0  0  0  0  0
    2.9144  -23.5994   23.8522 C   0  0  0  0  0  0  0  0  0  0  0  0
    4.0683  -23.7255   24.5429 N   0  0  0  0  0  0  0  0  0  0  0  0
    2.6970  -22.5140   23.0619 N   0  0  0  0  0  0  0  0  0  0  0  0
    3.6204  -21.5428   22.9496 C   0  0  0  0  0  0  0  0  0  0  0  0
    4.8168  -21.6568   23.6556 C   0  0  0  0  0  0  0  0  0  0  0  0
    5.0226  -22.7754   24.4626 C   0  0  0  0  0  0  0  0  0  0  0  0
    6.1706  -22.9170   25.1639 N   0  0  0  0  0  0  0  0  0  0  0  0
    7.1495  -21.9859   25.1007 C   0  0  0  0  0  0  0  0  0  0  0  0
    8.2783  -22.1876   25.8258 N   0  0  0  0  0  0  0  0  0  0  0  0
    5.8032  -20.6790   23.5787 C   0  0  0  0  0  0  0  0  0  0  0  0
    6.9821  -20.8459   24.3119 C   0  0  0  0  0  0  0  0  0  0  0  0
    2.1451  -25.3512   24.5416 H   0  0  0  0  0  0  0  0  0  0  0  0
    1.1276  -24.4943   23.4748 H   0  0  0  0  0  0  0  0  0  0  0  0
    8.3725  -22.9997   26.3744 H   0  0  0  0  0  0  0  0  0  0  0  0
    9.0033  -21.5220   25.8034 H   0  0  0  0  0  0  0  0  0  0  0  0
    8.0582  -19.8163   24.2277 C   0  0  0  0  0  0  0  0  0  0  0  0
    9.1850  -20.0325   23.4347 C   0  0  0  0  0  0  0  0  0  0  0  0
    7.9185  -18.6302   24.9479 C   0  0  0  0  0  0  0  0  0  0  0  0
    8.9234  -17.6591   24.8749 C   0  0  0  0  0  0  0  0  0  0  0  0
   10.0531  -17.8742   24.0842 C   0  0  0  0  0  0  0  0  0  0  0  0
   10.1874  -19.0598   23.3638 C   0  0  0  0  0  0  0  0  0  0  0  0
    9.3016  -21.2137   22.7412 O   0  0  0  0  0  0  0  0  0  0  0  0
   10.4899  -21.9973   22.7749 C   0  0  0  0  0  0  0  0  0  0  0  0
    6.7932  -18.4413   25.7217 O   0  0  0  0  0  0  0  0  0  0  0  0
    5.5824  -17.8671   25.2233 C   0  0  0  0  0  0  0  0  0  0  0  0
  1  2  1  0  0  0
  2  3  1  0  0  0
  2  4  2  0  0  0
  3  7  2  0  0  0
  4  5  1  0  0  0
  5  6  2  0  0  0
  6  7  1  0  0  0
  6 11  1  0  0  0
  7  8  1  0  0  0
  8  9  2  0  0  0
  9 10  1  0  0  0
  9 12  1  0  0  0
 11 12  2  0  0  0
 12 17  1  0  0  0
 17 18  1  0  0  0
 17 19  2  0  0  0
 18 23  1  0  0  0
 18 22  2  0  0  0
 23 24  1  0  0  0
 19 25  1  0  0  0
 19 20  1  0  0  0
 25 26  1  0  0  0
 20 21  2  0  0  0
 21 22  1  0  0  0
  1 13  1  0  0  0
  1 14  1  0  0  0
 10 15  1  0  0  0
 10 16  1  0  0  0
M  END
> <minimizedAffinity>
-5.96433

$$$$
2V59_LZK_A_1446


 26 28  0  0  0  0  0  0  0  0999 V2000
   12.1315  -20.9073   23.4551 N   0  0  0  0  0  0  0  0  0  0  0  0
   10.7804  -20.9937   23.4271 C   0  0  0  0  0  0  0  0  0  0  0  0
   10.0572  -20.1019   24.1385 N   0  0  0  0  0  0  0  0  0  0  0  0
   10.1617  -21.9638   22.7018 N   0  0  0  0  0  0  0  0  0  0  0  0
    8.8206  -22.0600   22.6756 C   0  0  0  0  0  0  0  0  0  0  0  0
    8.0588  -21.1481   23.4041 C   0  0  0  0  0  0  0  0  0  0  0  0
    8.7095  -20.1608   24.1437 C   0  0  0  0  0  0  0  0  0  0  0  0
    8.0017  -19.2612   24.8645 N   0  0  0  0  0  0  0  0  0  0  0  0
    6.6496  -19.2890   24.8862 C   0  0  0  0  0  0  0  0  0  0  0  0
    5.9979  -18.3574   25.6264 N   0  0  0  0  0  0  0  0  0  0  0  0
    6.6690  -21.2056   23.4153 C   0  0  0  0  0  0  0  0  0  0  0  0
    5.9574  -20.2656   24.1671 C   0  0  0  0  0  0  0  0  0  0  0  0
   12.5687  -20.2010   23.9835 H   0  0  0  0  0  0  0  0  0  0  0  0
   12.6765  -21.5506   22.9470 H   0  0  0  0  0  0  0  0  0  0  0  0
    6.5086  -17.6791   26.1246 H   0  0  0  0  0  0  0  0  0  0  0  0
    5.0141  -18.3596   25.6653 H   0  0  0  0  0  0  0  0  0  0  0  0
    4.4662  -20.3010   24.1766 C   0  0  0  0  0  0  0  0  0  0  0  0
    3.7285  -19.1921   23.7626 C   0  0  0  0  0  0  0  0  0  0  0  0
    3.8190  -21.4621   24.5989 C   0  0  0  0  0  0  0  0  0  0  0  0
    2.4204  -21.5038   24.6114 C   0  0  0  0  0  0  0  0  0  0  0  0
    1.6800  -20.3946   24.2000 C   0  0  0  0  0  0  0  0  0  0  0  0
    2.3307  -19.2372   23.7761 C   0  0  0  0  0  0  0  0  0  0  0  0
    4.3912  -18.0576   23.3585 O   0  0  0  0  0  0  0  0  0  0  0  0
    3.7779  -16.7728   23.3846 C   0  0  0  0  0  0  0  0  0  0  0  0
    4.5727  -22.5444   25.0004 O   0  0  0  0  0  0  0  0  0  0  0  0
    4.3944  -23.8642   24.4801 C   0  0  0  0  0  0  0  0  0  0  0  0
  1  2  1  0  0  0
  2  3  1  0  0  0
  2  4  2  0  0  0
  3  7  2  0  0  0
  4  5  1  0  0  0
  5  6  2  0  0  0
  6  7  1  0  0  0
  6 11  1  0  0  0
  7  8  1  0  0  0
  8  9  2  0  0  0
  9 10  1  0  0  0
  9 12  1  0  0  0
 11 12  2  0  0  0
 12 17  1  0  0  0
 17 18  1  0  0  0
 17 19  2  0  0  0
 18 23  1  0  0  0
 18 22  2  0  0  0
 23 24  1  0  0  0
 19 25  1  0  0  0
 19 20  1  0  0  0
 25 26  1  0  0  0
 20 21  2  0  0  0
 21 22  1  0  0  0
  1 13  1  0  0  0
  1 14  1  0  0  0
 10 15  1  0  0  0
 10 16  1  0  0  0
M  END
> <minimizedAffinity>
-5.91476

$$$$
2V59_LZK_A_1446


 26 28  0  0  0  0  0  0  0  0999 V2000
    2.9271  -25.1315   24.1974 N   0  0  0  0  0  0  0  0  0  0  0  0
    2.6515  -23.8059   24.2155 C   0  0  0  0  0  0  0  0  0  0  0  0
    2.5740  -23.1420   23.0417 N   0  0  0  0  0  0  0  0  0  0  0  0
    2.4622  -23.1521   25.3931 N   0  0  0  0  0  0  0  0  0  0  0  0
    2.1957  -21.8342   25.4186 C   0  0  0  0  0  0  0  0  0  0  0  0
    2.1123  -21.1336   24.2166 C   0  0  0  0  0  0  0  0  0  0  0  0
    2.3108  -21.8191   23.0184 C   0  0  0  0  0  0  0  0  0  0  0  0
    2.2400  -21.1702   21.8336 N   0  0  0  0  0  0  0  0  0  0  0  0
    1.9721  -19.8458   21.7753 C   0  0  0  0  0  0  0  0  0  0  0  0
    1.9118  -19.2538   20.5560 N   0  0  0  0  0  0  0  0  0  0  0  0
    1.8438  -19.7690   24.1867 C   0  0  0  0  0  0  0  0  0  0  0  0
    1.7751  -19.1185   22.9508 C   0  0  0  0  0  0  0  0  0  0  0  0
    3.0622  -25.5945   23.3391 H   0  0  0  0  0  0  0  0  0  0  0  0
    2.9923  -25.6323   25.0425 H   0  0  0  0  0  0  0  0  0  0  0  0
    2.0543  -19.7884   19.7417 H   0  0  0  0  0  0  0  0  0  0  0  0
    1.7255  -18.2896   20.4856 H   0  0  0  0  0  0  0  0  0  0  0  0
    1.4705  -17.6591   22.8986 C   0  0  0  0  0  0  0  0  0  0  0  0
    0.1527  -17.2136   22.7976 C   0  0  0  0  0  0  0  0  0  0  0  0
    2.5223  -16.7451   22.9594 C   0  0  0  0  0  0  0  0  0  0  0  0
    2.2456  -15.3743   22.9106 C   0  0  0  0  0  0  0  0  0  0  0  0
    0.9279  -14.9261   22.8070 C   0  0  0  0  0  0  0  0  0  0  0  0
   -0.1204  -15.8428   22.7493 C   0  0  0  0  0  0  0  0  0  0  0  0
   -0.8647  -18.1356   22.7315 O   0  0  0  0  0  0  0  0  0  0  0  0
   -1.6647  -18.2979   21.5649 C   0  0  0  0  0  0  0  0  0  0  0  0
    3.8151  -17.2129   23.0617 O   0  0  0  0  0  0  0  0  0  0  0  0
    4.4848  -17.4090   24.3096 C   0  0  0  0  0  0  0  0  0  0  0  0
  1  2  1  0  0  0
  2  3  1  0  0  0
  2  4  2  0  0  0
  3  7  2  0  0  0
  4  5  1  0  0  0
  5  6  2  0  0  0
  6  7  1  0  0  0
  6 11  1  0  0  0
  7  8  1  0  0  0
  8  9  2  0  0  0
  9 10  1  0  0  0
  9 12  1  0  0  0
 11 12  2  0  0  0
 12 17  1  0  0  0
 17 18  1  0  0  0
 17 19  2  0  0  0
 18 23  1  0  0  0
 18 22  2  0  0  0
 23 24  1  0  0  0
 19 25  1  0  0  0
 19 20  1  0  0  0
 25 26  1  0  0  0
 20 21  2  0  0  0
 21 22  1  0  0  0
  1 13  1  0  0  0
  1 14  1  0  0  0
 10 15  1  0  0  0
 10 16  1  0  0  0
M  END
> <minimizedAffinity>
-5.78395

$$$$
2V59_LZK_A_1446


 26 28  0  0  0  0  0  0  0  0999 V2000
    6.7951  -19.3970   25.6596 N   0  0  0  0  0  0  0  0  0  0  0  0
    5.6954  -19.1087   24.9239 C   0  0  0  0  0  0  0  0  0  0  0  0
    5.4920  -17.8322   24.5319 N   0  0  0  0  0  0  0  0  0  0  0  0
    4.8079  -20.0840   24.5904 N   0  0  0  0  0  0  0  0  0  0  0  0
    3.7099  -19.8032   23.8665 C   0  0  0  0  0  0  0  0  0  0  0  0
    3.4843  -18.4912   23.4538 C   0  0  0  0  0  0  0  0  0  0  0  0
    4.4036  -17.5033   23.8059 C   0  0  0  0  0  0  0  0  0  0  0  0
    4.2147  -16.2192   23.4248 N   0  0  0  0  0  0  0  0  0  0  0  0
    3.1374  -15.8574   22.6915 C   0  0  0  0  0  0  0  0  0  0  0  0
    3.0066  -14.5539   22.3385 N   0  0  0  0  0  0  0  0  0  0  0  0
    2.3625  -18.1457   22.7073 C   0  0  0  0  0  0  0  0  0  0  0  0
    2.1873  -16.8124   22.3240 C   0  0  0  0  0  0  0  0  0  0  0  0
    7.4308  -18.6832   25.8952 H   0  0  0  0  0  0  0  0  0  0  0  0
    6.9589  -20.3205   25.9589 H   0  0  0  0  0  0  0  0  0  0  0  0
    3.6903  -13.8995   22.6098 H   0  0  0  0  0  0  0  0  0  0  0  0
    2.2282  -14.2625   21.8110 H   0  0  0  0  0  0  0  0  0  0  0  0
    0.9996  -16.4268   21.5082 C   0  0  0  0  0  0  0  0  0  0  0  0
    0.9232  -16.7744   20.1596 C   0  0  0  0  0  0  0  0  0  0  0  0
   -0.0381  -15.7193   22.1148 C   0  0  0  0  0  0  0  0  0  0  0  0
   -1.1558  -15.3532   21.3568 C   0  0  0  0  0  0  0  0  0  0  0  0
   -1.2333  -15.6976   20.0065 C   0  0  0  0  0  0  0  0  0  0  0  0
   -0.1954  -16.4072   19.4048 C   0  0  0  0  0  0  0  0  0  0  0  0
    1.9633  -17.4650   19.5843 O   0  0  0  0  0  0  0  0  0  0  0  0
    1.7675  -18.7010   18.9051 C   0  0  0  0  0  0  0  0  0  0  0  0
    0.0621  -15.3909   23.4501 O   0  0  0  0  0  0  0  0  0  0  0  0
   -0.2664  -14.1002   23.9700 C   0  0  0  0  0  0  0  0  0  0  0  0
  1  2  1  0  0  0
  2  3  1  0  0  0
  2  4  2  0  0  0
  3  7  2  0  0  0
  4  5  1  0  0  0
  5  6  2  0  0  0
  6  7  1  0  0  0
  6 11  1  0  0  0
  7  8  1  0  0  0
  8  9  2  0  0  0
  9 10  1  0  0  0
  9 12  1  0  0  0
 11 12  2  0  0  0
 12 17  1  0  0  0
 17 18  1  0  0  0
 17 19  2  0  0  0
 18 23  1  0  0  0
 18 22  2  0  0  0
 23 24  1  0  0  0
 19 25  1  0  0  0
 19 20  1  0  0  0
 25 26  1  0  0  0
 20 21  2  0  0  0
 21 22  1  0  0  0
  1 13  1  0  0  0
  1 14  1  0  0  0
 10 15  1  0  0  0
 10 16  1  0  0  0
M  END
> <minimizedAffinity>
-5.73861

$$$$
