6RNT_2AM_A_105


 29 31  0  0  0  0  0  0  0  0999 V2000
   22.9014   13.4138   -2.6183 C   0  0  0  0  0  0  0  0  0  0  0  0
   22.8715   12.0055   -2.1741 O   0  0  0  0  0  0  0  0  0  0  0  0
   21.9448   14.2898   -1.7266 C   0  0  0  0  0  0  0  0  0  0  0  0
   20.7822   14.7209   -2.4657 O   0  0  0  0  0  0  0  0  0  0  0  0
   21.5433   13.1574   -0.7402 C   0  0  0  0  0  0  0  0  0  0  0  0
   21.6107   11.8411   -1.4847 C   0  0  0  0  0  0  0  0  0  0  0  0
   20.3491   13.9504   -2.8652 H   0  0  0  0  0  0  0  0  0  0  0  0
   21.7200   10.6007   -0.6940 N   0  0  0  0  0  0  0  0  0  0  0  0
   22.4845   10.3364    0.4306 C   0  0  0  0  0  0  0  0  0  0  0  0
   22.5182    9.0557    0.7574 N   0  0  0  0  0  0  0  0  0  0  0  0
   21.6933    8.4534   -0.1754 C   0  0  0  0  0  0  0  0  0  0  0  0
   21.3404    7.0725   -0.2236 C   0  0  0  0  0  0  0  0  0  0  0  0
   21.5983    6.2273    0.6715 N   0  0  0  0  0  0  0  0  0  0  0  0
   20.6442    6.7672   -1.3840 N   0  0  0  0  0  0  0  0  0  0  0  0
   20.3155    7.7379   -2.3167 C   0  0  0  0  0  0  0  0  0  0  0  0
   20.5730    9.0767   -2.2574 N   0  0  0  0  0  0  0  0  0  0  0  0
   21.4168    9.3352   -1.2074 C   0  0  0  0  0  0  0  0  0  0  0  0
   22.0965    6.4988    1.4760 H   0  0  0  0  0  0  0  0  0  0  0  0
   21.3020    5.2943    0.5675 H   0  0  0  0  0  0  0  0  0  0  0  0
   24.3073   13.9707   -2.6231 C   0  0  0  0  0  0  0  0  0  0  0  0
   24.9621   13.5889   -1.3876 O   0  0  0  0  0  0  0  0  0  0  0  0
   24.9859   12.6216   -1.3198 H   0  0  0  0  0  0  0  0  0  0  0  0
   20.2347   13.3844   -0.2613 O   0  0  0  0  0  0  0  0  0  0  0  0
   19.7898   13.9550    1.2258 P   0  0  0  0  0  0  0  0  0  0  0  0
   19.6477   12.7373    1.9944 O   0  0  0  0  0  0  0  0  0  0  0  0
   18.6760   14.8055    0.8889 O   0  0  0  0  0  0  0  0  0  0  0  0
   20.9684   14.8667    1.4775 O   0  0  0  0  0  0  0  0  0  0  0  0
   18.3202   15.2075    1.6968 H   0  0  0  0  0  0  0  0  0  0  0  0
   20.8650   15.2982    2.3401 H   0  0  0  0  0  0  0  0  0  0  0  0
 24 25  2  0  0  0
 24 26  1  0  0  0
 24 27  1  0  0  0
 24 23  1  0  0  0
 20 21  1  0  0  0
 20  1  1  0  0  0
  1  2  1  0  0  0
  1  3  1  0  0  0
  2  6  1  0  0  0
  3  4  1  0  0  0
  3  5  1  0  0  0
  5 23  1  0  0  0
  5  6  1  0  0  0
  6  8  1  0  0  0
  8  9  1  0  0  0
  8 17  1  0  0  0
  9 10  2  0  0  0
 10 11  1  0  0  0
 11 12  1  0  0  0
 11 17  2  0  0  0
 12 13  1  0  0  0
 12 14  2  0  0  0
 14 15  1  0  0  0
 15 16  2  0  0  0
 16 17  1  0  0  0
 26 28  1  0  0  0
 27 29  1  0  0  0
 21 22  1  0  0  0
  4  7  1  0  0  0
 13 18  1  0  0  0
 13 19  1  0  0  0
M  END
> <minimizedAffinity>
-6.99447

$$$$
6RNT_2AM_A_105


 29 31  0  0  0  0  0  0  0  0999 V2000
   17.3083   17.2374   -1.0881 C   0  0  0  0  0  0  0  0  0  0  0  0
   18.6548   17.8377   -0.9990 O   0  0  0  0  0  0  0  0  0  0  0  0
   17.3216   15.7737   -0.5090 C   0  0  0  0  0  0  0  0  0  0  0  0
   17.1599   14.7912   -1.5541 O   0  0  0  0  0  0  0  0  0  0  0  0
   18.8020   15.7893   -0.0348 C   0  0  0  0  0  0  0  0  0  0  0  0
   19.5751   16.7233   -0.9411 C   0  0  0  0  0  0  0  0  0  0  0  0
   17.8210   14.9446   -2.2472 H   0  0  0  0  0  0  0  0  0  0  0  0
   20.8590   17.2605   -0.4524 N   0  0  0  0  0  0  0  0  0  0  0  0
   21.1713   18.5372   -0.0149 C   0  0  0  0  0  0  0  0  0  0  0  0
   22.4685   18.7394    0.1420 N   0  0  0  0  0  0  0  0  0  0  0  0
   23.0345   17.5149   -0.1641 C   0  0  0  0  0  0  0  0  0  0  0  0
   24.4192   17.1824   -0.0883 C   0  0  0  0  0  0  0  0  0  0  0  0
   25.3111   17.9066    0.4236 N   0  0  0  0  0  0  0  0  0  0  0  0
   24.6710   15.9318   -0.6334 N   0  0  0  0  0  0  0  0  0  0  0  0
   23.6535   15.1299   -1.1254 C   0  0  0  0  0  0  0  0  0  0  0  0
   22.3142   15.3914   -1.1389 N   0  0  0  0  0  0  0  0  0  0  0  0
   22.0980   16.6954   -0.7728 C   0  0  0  0  0  0  0  0  0  0  0  0
   25.0764   18.7870    0.7965 H   0  0  0  0  0  0  0  0  0  0  0  0
   26.2439   17.5930    0.4514 H   0  0  0  0  0  0  0  0  0  0  0  0
   16.2675   18.0896   -0.3972 C   0  0  0  0  0  0  0  0  0  0  0  0
   16.6289   18.2220    1.0002 O   0  0  0  0  0  0  0  0  0  0  0  0
   17.5021   18.6385    1.0703 H   0  0  0  0  0  0  0  0  0  0  0  0
   19.3376   14.4848   -0.1020 O   0  0  0  0  0  0  0  0  0  0  0  0
   20.0708   13.6319    1.1106 P   0  0  0  0  0  0  0  0  0  0  0  0
   18.9409   13.1292    1.8618 O   0  0  0  0  0  0  0  0  0  0  0  0
   20.9917   14.6081    1.6362 O   0  0  0  0  0  0  0  0  0  0  0  0
   20.8846   12.6859    0.2583 O   0  0  0  0  0  0  0  0  0  0  0  0
   21.4921   14.2184    2.3700 H   0  0  0  0  0  0  0  0  0  0  0  0
   21.3950   12.0923    0.8311 H   0  0  0  0  0  0  0  0  0  0  0  0
 24 25  2  0  0  0
 24 26  1  0  0  0
 24 27  1  0  0  0
 24 23  1  0  0  0
 20 21  1  0  0  0
 20  1  1  0  0  0
  1  2  1  0  0  0
  1  3  1  0  0  0
  2  6  1  0  0  0
  3  4  1  0  0  0
  3  5  1  0  0  0
  5 23  1  0  0  0
  5  6  1  0  0  0
  6  8  1  0  0  0
  8  9  1  0  0  0
  8 17  1  0  0  0
  9 10  2  0  0  0
 10 11  1  0  0  0
 11 12  1  0  0  0
 11 17  2  0  0  0
 12 13  1  0  0  0
 12 14  2  0  0  0
 14 15  1  0  0  0
 15 16  2  0  0  0
 16 17  1  0  0  0
 26 28  1  0  0  0
 27 29  1  0  0  0
 21 22  1  0  0  0
  4  7  1  0  0  0
 13 18  1  0  0  0
 13 19  1  0  0  0
M  END
> <minimizedAffinity>
-6.93628

$$$$
6RNT_2AM_A_105


 29 31  0  0  0  0  0  0  0  0999 V2000
   22.6977   17.0857    0.3256 C   0  0  0  0  0  0  0  0  0  0  0  0
   21.6999   17.3553   -0.7296 O   0  0  0  0  0  0  0  0  0  0  0  0
   22.7498   15.5463    0.6499 C   0  0  0  0  0  0  0  0  0  0  0  0
   22.1976   15.2626    1.9531 O   0  0  0  0  0  0  0  0  0  0  0  0
   21.7428   15.1043   -0.4488 C   0  0  0  0  0  0  0  0  0  0  0  0
   20.7749   16.2442   -0.6839 C   0  0  0  0  0  0  0  0  0  0  0  0
   21.3095   15.6471    2.0187 H   0  0  0  0  0  0  0  0  0  0  0  0
   20.0240   16.2671   -1.9533 N   0  0  0  0  0  0  0  0  0  0  0  0
   20.4423   16.6458   -3.2185 C   0  0  0  0  0  0  0  0  0  0  0  0
   19.4543   16.7580   -4.0900 N   0  0  0  0  0  0  0  0  0  0  0  0
   18.3329   16.3876   -3.3698 C   0  0  0  0  0  0  0  0  0  0  0  0
   17.0035   16.2788   -3.8742 C   0  0  0  0  0  0  0  0  0  0  0  0
   16.6815   16.3472   -5.0882 N   0  0  0  0  0  0  0  0  0  0  0  0
   16.0900   16.0599   -2.8534 N   0  0  0  0  0  0  0  0  0  0  0  0
   16.4878   15.9194   -1.5335 C   0  0  0  0  0  0  0  0  0  0  0  0
   17.7581   15.9419   -1.0354 N   0  0  0  0  0  0  0  0  0  0  0  0
   18.6285   16.3418   -2.0171 C   0  0  0  0  0  0  0  0  0  0  0  0
   17.3717   16.5045   -5.7724 H   0  0  0  0  0  0  0  0  0  0  0  0
   15.7394   16.2434   -5.3542 H   0  0  0  0  0  0  0  0  0  0  0  0
   24.0650   17.6128   -0.0476 C   0  0  0  0  0  0  0  0  0  0  0  0
   24.6349   18.2824    1.1047 O   0  0  0  0  0  0  0  0  0  0  0  0
   24.7082   17.6542    1.8402 H   0  0  0  0  0  0  0  0  0  0  0  0
   21.0489   13.9508   -0.0229 O   0  0  0  0  0  0  0  0  0  0  0  0
   21.5001   12.3720   -0.2204 P   0  0  0  0  0  0  0  0  0  0  0  0
   20.7604   11.9846   -1.4022 O   0  0  0  0  0  0  0  0  0  0  0  0
   21.2323   11.8280    1.0871 O   0  0  0  0  0  0  0  0  0  0  0  0
   22.9951   12.5755   -0.3054 O   0  0  0  0  0  0  0  0  0  0  0  0
   21.4619   10.8857    1.0984 H   0  0  0  0  0  0  0  0  0  0  0  0
   23.4318   11.7179   -0.4263 H   0  0  0  0  0  0  0  0  0  0  0  0
 24 25  2  0  0  0
 24 26  1  0  0  0
 24 27  1  0  0  0
 24 23  1  0  0  0
 20 21  1  0  0  0
 20  1  1  0  0  0
  1  2  1  0  0  0
  1  3  1  0  0  0
  2  6  1  0  0  0
  3  4  1  0  0  0
  3  5  1  0  0  0
  5 23  1  0  0  0
  5  6  1  0  0  0
  6  8  1  0  0  0
  8  9  1  0  0  0
  8 17  1  0  0  0
  9 10  2  0  0  0
 10 11  1  0  0  0
 11 12  1  0  0  0
 11 17  2  0  0  0
 12 13  1  0  0  0
 12 14  2  0  0  0
 14 15  1  0  0  0
 15 16  2  0  0  0
 16 17  1  0  0  0
 26 28  1  0  0  0
 27 29  1  0  0  0
 21 22  1  0  0  0
  4  7  1  0  0  0
 13 18  1  0  0  0
 13 19  1  0  0  0
M  END
> <minimizedAffinity>
-6.40174

$$$$
6RNT_2AM_A_105


 29 31  0  0  0  0  0  0  0  0999 V2000
   24.2261    9.5416    0.8591 C   0  0  0  0  0  0  0  0  0  0  0  0
   23.5316   10.7994    0.5170 O   0  0  0  0  0  0  0  0  0  0  0  0
   23.5670    8.3287    0.1028 C   0  0  0  0  0  0  0  0  0  0  0  0
   22.8521    7.4653    1.0124 O   0  0  0  0  0  0  0  0  0  0  0  0
   22.5522    9.1700   -0.7211 C   0  0  0  0  0  0  0  0  0  0  0  0
   22.2096   10.4079    0.0798 C   0  0  0  0  0  0  0  0  0  0  0  0
   22.2241    7.9916    1.5315 H   0  0  0  0  0  0  0  0  0  0  0  0
   21.6421   11.5647   -0.6382 N   0  0  0  0  0  0  0  0  0  0  0  0
   21.9202   12.0355   -1.9110 C   0  0  0  0  0  0  0  0  0  0  0  0
   21.3977   13.2242   -2.1605 N   0  0  0  0  0  0  0  0  0  0  0  0
   20.6999   13.5289   -1.0057 C   0  0  0  0  0  0  0  0  0  0  0  0
   19.8992   14.6880   -0.7842 C   0  0  0  0  0  0  0  0  0  0  0  0
   19.5785   15.5261   -1.6655 N   0  0  0  0  0  0  0  0  0  0  0  0
   19.4858   14.7738    0.5373 N   0  0  0  0  0  0  0  0  0  0  0  0
   19.7991   13.7950    1.4668 C   0  0  0  0  0  0  0  0  0  0  0  0
   20.4965   12.6399    1.2629 N   0  0  0  0  0  0  0  0  0  0  0  0
   21.0547   12.6564    0.0101 C   0  0  0  0  0  0  0  0  0  0  0  0
   19.9006   15.4165   -2.5894 H   0  0  0  0  0  0  0  0  0  0  0  0
   19.0054   16.2916   -1.4315 H   0  0  0  0  0  0  0  0  0  0  0  0
   25.7088    9.6240    0.5733 C   0  0  0  0  0  0  0  0  0  0  0  0
   26.3284   10.4694    1.5746 O   0  0  0  0  0  0  0  0  0  0  0  0
   26.1781   10.0911    2.4550 H   0  0  0  0  0  0  0  0  0  0  0  0
   21.3899    8.4072   -0.9675 O   0  0  0  0  0  0  0  0  0  0  0  0
   20.7674    7.9626   -2.4338 P   0  0  0  0  0  0  0  0  0  0  0  0
   21.9500    7.8982   -3.2650 O   0  0  0  0  0  0  0  0  0  0  0  0
   19.7301    8.9460   -2.6188 O   0  0  0  0  0  0  0  0  0  0  0  0
   20.0806    6.6858   -2.0075 O   0  0  0  0  0  0  0  0  0  0  0  0
   19.2812    8.7874   -3.4639 H   0  0  0  0  0  0  0  0  0  0  0  0
   19.6478    6.2798   -2.7748 H   0  0  0  0  0  0  0  0  0  0  0  0
 24 25  2  0  0  0
 24 26  1  0  0  0
 24 27  1  0  0  0
 24 23  1  0  0  0
 20 21  1  0  0  0
 20  1  1  0  0  0
  1  2  1  0  0  0
  1  3  1  0  0  0
  2  6  1  0  0  0
  3  4  1  0  0  0
  3  5  1  0  0  0
  5 23  1  0  0  0
  5  6  1  0  0  0
  6  8  1  0  0  0
  8  9  1  0  0  0
  8 17  1  0  0  0
  9 10  2  0  0  0
 10 11  1  0  0  0
 11 12  1  0  0  0
 11 17  2  0  0  0
 12 13  1  0  0  0
 12 14  2  0  0  0
 14 15  1  0  0  0
 15 16  2  0  0  0
 16 17  1  0  0  0
 26 28  1  0  0  0
 27 29  1  0  0  0
 21 22  1  0  0  0
  4  7  1  0  0  0
 13 18  1  0  0  0
 13 19  1  0  0  0
M  END
> <minimizedAffinity>
-6.19456

$$$$
6RNT_2AM_A_105


 29 31  0  0  0  0  0  0  0  0999 V2000
   17.7977   16.5765   -2.0444 C   0  0  0  0  0  0  0  0  0  0  0  0
   18.1196   15.3074   -1.3610 O   0  0  0  0  0  0  0  0  0  0  0  0
   18.9702   17.6105   -1.8606 C   0  0  0  0  0  0  0  0  0  0  0  0
   18.5866   18.6935   -0.9866 O   0  0  0  0  0  0  0  0  0  0  0  0
   19.9312   16.6493   -1.1062 C   0  0  0  0  0  0  0  0  0  0  0  0
   19.0900   15.6479   -0.3439 C   0  0  0  0  0  0  0  0  0  0  0  0
   18.2487   18.3316   -0.1524 H   0  0  0  0  0  0  0  0  0  0  0  0
   19.7244   14.3839    0.0750 N   0  0  0  0  0  0  0  0  0  0  0  0
   19.7430   13.7770    1.3201 C   0  0  0  0  0  0  0  0  0  0  0  0
   20.5902   12.7652    1.4021 N   0  0  0  0  0  0  0  0  0  0  0  0
   21.1220   12.6737    0.1284 C   0  0  0  0  0  0  0  0  0  0  0  0
   22.0497   11.6927   -0.3307 C   0  0  0  0  0  0  0  0  0  0  0  0
   22.3975   10.6684    0.3110 N   0  0  0  0  0  0  0  0  0  0  0  0
   22.5156   11.9914   -1.6028 N   0  0  0  0  0  0  0  0  0  0  0  0
   22.0575   13.0915   -2.3100 C   0  0  0  0  0  0  0  0  0  0  0  0
   21.1149   14.0003   -1.9254 N   0  0  0  0  0  0  0  0  0  0  0  0
   20.8012   13.8046   -0.6046 C   0  0  0  0  0  0  0  0  0  0  0  0
   22.0353   10.5053    1.2118 H   0  0  0  0  0  0  0  0  0  0  0  0
   23.0319   10.0298   -0.0876 H   0  0  0  0  0  0  0  0  0  0  0  0
   17.4824   16.3613   -3.5076 C   0  0  0  0  0  0  0  0  0  0  0  0
   16.6073   15.2123   -3.6299 O   0  0  0  0  0  0  0  0  0  0  0  0
   15.7904   15.3736   -3.1322 H   0  0  0  0  0  0  0  0  0  0  0  0
   20.7423   17.3874   -0.2170 O   0  0  0  0  0  0  0  0  0  0  0  0
   22.3885   17.3298   -0.0695 P   0  0  0  0  0  0  0  0  0  0  0  0
   22.7244   18.7135    0.1879 O   0  0  0  0  0  0  0  0  0  0  0  0
   22.7643   16.6424   -1.2792 O   0  0  0  0  0  0  0  0  0  0  0  0
   22.4778   16.3167    1.0482 O   0  0  0  0  0  0  0  0  0  0  0  0
   23.7290   16.5453   -1.3096 H   0  0  0  0  0  0  0  0  0  0  0  0
   23.4092   16.1595    1.2686 H   0  0  0  0  0  0  0  0  0  0  0  0
 24 25  2  0  0  0
 24 26  1  0  0  0
 24 27  1  0  0  0
 24 23  1  0  0  0
 20 21  1  0  0  0
 20  1  1  0  0  0
  1  2  1  0  0  0
  1  3  1  0  0  0
  2  6  1  0  0  0
  3  4  1  0  0  0
  3  5  1  0  0  0
  5 23  1  0  0  0
  5  6  1  0  0  0
  6  8  1  0  0  0
  8  9  1  0  0  0
  8 17  1  0  0  0
  9 10  2  0  0  0
 10 11  1  0  0  0
 11 12  1  0  0  0
 11 17  2  0  0  0
 12 13  1  0  0  0
 12 14  2  0  0  0
 14 15  1  0  0  0
 15 16  2  0  0  0
 16 17  1  0  0  0
 26 28  1  0  0  0
 27 29  1  0  0  0
 21 22  1  0  0  0
  4  7  1  0  0  0
 13 18  1  0  0  0
 13 19  1  0  0  0
M  END
> <minimizedAffinity>
-6.09013

$$$$
6RNT_2AM_A_105


 29 31  0  0  0  0  0  0  0  0999 V2000
   21.0220   13.4486    0.8738 C   0  0  0  0  0  0  0  0  0  0  0  0
   21.1232   11.9878    1.0676 O   0  0  0  0  0  0  0  0  0  0  0  0
   21.8327   13.8896   -0.4013 C   0  0  0  0  0  0  0  0  0  0  0  0
   23.0153   14.6357   -0.0427 O   0  0  0  0  0  0  0  0  0  0  0  0
   22.2380   12.4580   -0.8517 C   0  0  0  0  0  0  0  0  0  0  0  0
   22.3326   11.5870    0.3828 C   0  0  0  0  0  0  0  0  0  0  0  0
   23.5373   14.1265    0.5969 H   0  0  0  0  0  0  0  0  0  0  0  0
   22.2545   10.1244    0.2085 N   0  0  0  0  0  0  0  0  0  0  0  0
   23.0141    9.1248    0.7941 C   0  0  0  0  0  0  0  0  0  0  0  0
   22.8311    7.9341    0.2491 N   0  0  0  0  0  0  0  0  0  0  0  0
   21.8644    8.1558   -0.7152 C   0  0  0  0  0  0  0  0  0  0  0  0
   21.2646    7.1688   -1.5517 C   0  0  0  0  0  0  0  0  0  0  0  0
   21.4095    5.9259   -1.4240 N   0  0  0  0  0  0  0  0  0  0  0  0
   20.4668    7.7480   -2.5277 N   0  0  0  0  0  0  0  0  0  0  0  0
   20.2732    9.1185   -2.5958 C   0  0  0  0  0  0  0  0  0  0  0  0
   20.7723   10.0766   -1.7621 N   0  0  0  0  0  0  0  0  0  0  0  0
   21.7009    9.5157   -0.9229 C   0  0  0  0  0  0  0  0  0  0  0  0
   21.9887    5.5684   -0.7128 H   0  0  0  0  0  0  0  0  0  0  0  0
   20.9437    5.3107   -2.0354 H   0  0  0  0  0  0  0  0  0  0  0  0
   19.5826   13.9050    0.7919 C   0  0  0  0  0  0  0  0  0  0  0  0
   18.8153   13.2049    1.8028 O   0  0  0  0  0  0  0  0  0  0  0  0
   19.1793   13.4029    2.6798 H   0  0  0  0  0  0  0  0  0  0  0  0
   23.4820   12.5023   -1.5179 O   0  0  0  0  0  0  0  0  0  0  0  0
   23.8043   12.0727   -3.0821 P   0  0  0  0  0  0  0  0  0  0  0  0
   24.6149   13.1781   -3.5456 O   0  0  0  0  0  0  0  0  0  0  0  0
   22.4817   11.8028   -3.5872 O   0  0  0  0  0  0  0  0  0  0  0  0
   24.4475   10.7310   -2.8177 O   0  0  0  0  0  0  0  0  0  0  0  0
   22.5393   11.5349   -4.5177 H   0  0  0  0  0  0  0  0  0  0  0  0
   24.7070   10.3253   -3.6597 H   0  0  0  0  0  0  0  0  0  0  0  0
 24 25  2  0  0  0
 24 26  1  0  0  0
 24 27  1  0  0  0
 24 23  1  0  0  0
 20 21  1  0  0  0
 20  1  1  0  0  0
  1  2  1  0  0  0
  1  3  1  0  0  0
  2  6  1  0  0  0
  3  4  1  0  0  0
  3  5  1  0  0  0
  5 23  1  0  0  0
  5  6  1  0  0  0
  6  8  1  0  0  0
  8  9  1  0  0  0
  8 17  1  0  0  0
  9 10  2  0  0  0
 10 11  1  0  0  0
 11 12  1  0  0  0
 11 17  2  0  0  0
 12 13  1  0  0  0
 12 14  2  0  0  0
 14 15  1  0  0  0
 15 16  2  0  0  0
 16 17  1  0  0  0
 26 28  1  0  0  0
 27 29  1  0  0  0
 21 22  1  0  0  0
  4  7  1  0  0  0
 13 18  1  0  0  0
 13 19  1  0  0  0
M  END
> <minimizedAffinity>
-5.98797

$$$$
6RNT_2AM_A_105


 29 31  0  0  0  0  0  0  0  0999 V2000
   21.9535   17.7287   -0.4651 C   0  0  0  0  0  0  0  0  0  0  0  0
   22.2597   16.2993   -0.2539 O   0  0  0  0  0  0  0  0  0  0  0  0
   20.4299   17.9170   -0.8129 C   0  0  0  0  0  0  0  0  0  0  0  0
   20.2474   18.3043   -2.1915 O   0  0  0  0  0  0  0  0  0  0  0  0
   20.0266   16.4264   -0.6340 C   0  0  0  0  0  0  0  0  0  0  0  0
   21.2314   15.5715   -0.9645 C   0  0  0  0  0  0  0  0  0  0  0  0
   20.7060   17.6734   -2.7681 H   0  0  0  0  0  0  0  0  0  0  0  0
   21.2628   14.1882   -0.4535 N   0  0  0  0  0  0  0  0  0  0  0  0
   20.5285   13.6089    0.5684 C   0  0  0  0  0  0  0  0  0  0  0  0
   20.9625   12.4094    0.9165 N   0  0  0  0  0  0  0  0  0  0  0  0
   22.0089   12.1692    0.0442 C   0  0  0  0  0  0  0  0  0  0  0  0
   22.7816   10.9735   -0.0384 C   0  0  0  0  0  0  0  0  0  0  0  0
   22.5199    9.8992    0.5611 N   0  0  0  0  0  0  0  0  0  0  0  0
   23.8637   11.1269   -0.8927 N   0  0  0  0  0  0  0  0  0  0  0  0
   24.0824   12.3029   -1.5923 C   0  0  0  0  0  0  0  0  0  0  0  0
   23.3166   13.4324   -1.5906 N   0  0  0  0  0  0  0  0  0  0  0  0
   22.3629   13.3383   -0.6093 C   0  0  0  0  0  0  0  0  0  0  0  0
   21.7379    9.8457    1.1568 H   0  0  0  0  0  0  0  0  0  0  0  0
   23.0972    9.1117    0.4347 H   0  0  0  0  0  0  0  0  0  0  0  0
   22.3503   18.5694    0.7277 C   0  0  0  0  0  0  0  0  0  0  0  0
   23.3194   17.8319    1.5138 O   0  0  0  0  0  0  0  0  0  0  0  0
   24.0975   17.6373    0.9682 H   0  0  0  0  0  0  0  0  0  0  0  0
   18.9529   16.1164   -1.4968 O   0  0  0  0  0  0  0  0  0  0  0  0
   17.3834   15.8016   -1.0810 P   0  0  0  0  0  0  0  0  0  0  0  0
   16.7042   17.0080   -1.5020 O   0  0  0  0  0  0  0  0  0  0  0  0
   17.5208   15.4196    0.3019 O   0  0  0  0  0  0  0  0  0  0  0  0
   17.1961   14.5237   -1.8654 O   0  0  0  0  0  0  0  0  0  0  0  0
   16.6477   15.2060    0.6666 H   0  0  0  0  0  0  0  0  0  0  0  0
   16.2954   14.1901   -1.7296 H   0  0  0  0  0  0  0  0  0  0  0  0
 24 25  2  0  0  0
 24 26  1  0  0  0
 24 27  1  0  0  0
 24 23  1  0  0  0
 20 21  1  0  0  0
 20  1  1  0  0  0
  1  2  1  0  0  0
  1  3  1  0  0  0
  2  6  1  0  0  0
  3  4  1  0  0  0
  3  5  1  0  0  0
  5 23  1  0  0  0
  5  6  1  0  0  0
  6  8  1  0  0  0
  8  9  1  0  0  0
  8 17  1  0  0  0
  9 10  2  0  0  0
 10 11  1  0  0  0
 11 12  1  0  0  0
 11 17  2  0  0  0
 12 13  1  0  0  0
 12 14  2  0  0  0
 14 15  1  0  0  0
 15 16  2  0  0  0
 16 17  1  0  0  0
 26 28  1  0  0  0
 27 29  1  0  0  0
 21 22  1  0  0  0
  4  7  1  0  0  0
 13 18  1  0  0  0
 13 19  1  0  0  0
M  END
> <minimizedAffinity>
-5.93136

$$$$
6RNT_2AM_A_105


 29 31  0  0  0  0  0  0  0  0999 V2000
   21.7255   12.2533   -1.1435 C   0  0  0  0  0  0  0  0  0  0  0  0
   20.3606   12.8175   -1.1470 O   0  0  0  0  0  0  0  0  0  0  0  0
   22.7847   13.3833   -0.8628 C   0  0  0  0  0  0  0  0  0  0  0  0
   23.5685   13.6759   -2.0391 O   0  0  0  0  0  0  0  0  0  0  0  0
   21.7585   14.5263   -0.6244 C   0  0  0  0  0  0  0  0  0  0  0  0
   20.5214   14.2243   -1.4426 C   0  0  0  0  0  0  0  0  0  0  0  0
   22.9762   13.8698   -2.7824 H   0  0  0  0  0  0  0  0  0  0  0  0
   19.2581   14.8834   -1.0611 N   0  0  0  0  0  0  0  0  0  0  0  0
   18.5488   14.8096    0.1265 C   0  0  0  0  0  0  0  0  0  0  0  0
   17.3429   15.3473    0.0560 N   0  0  0  0  0  0  0  0  0  0  0  0
   17.2754   15.8422   -1.2340 C   0  0  0  0  0  0  0  0  0  0  0  0
   16.1929   16.5778   -1.8003 C   0  0  0  0  0  0  0  0  0  0  0  0
   15.2073   17.0251   -1.1594 N   0  0  0  0  0  0  0  0  0  0  0  0
   16.3673   16.7685   -3.1632 N   0  0  0  0  0  0  0  0  0  0  0  0
   17.5003   16.3228   -3.8250 C   0  0  0  0  0  0  0  0  0  0  0  0
   18.5839   15.6861   -3.2934 N   0  0  0  0  0  0  0  0  0  0  0  0
   18.3198   15.3399   -1.9928 C   0  0  0  0  0  0  0  0  0  0  0  0
   15.1335   16.8601   -0.1917 H   0  0  0  0  0  0  0  0  0  0  0  0
   14.5098   17.5403   -1.6256 H   0  0  0  0  0  0  0  0  0  0  0  0
   21.8607   11.1184   -0.1533 C   0  0  0  0  0  0  0  0  0  0  0  0
   22.5394   11.6119    1.0286 O   0  0  0  0  0  0  0  0  0  0  0  0
   22.0248   12.3360    1.4183 H   0  0  0  0  0  0  0  0  0  0  0  0
   22.3194   15.7603   -1.0194 O   0  0  0  0  0  0  0  0  0  0  0  0
   22.3773   17.1661   -0.1501 P   0  0  0  0  0  0  0  0  0  0  0  0
   21.0579   17.7188   -0.3677 O   0  0  0  0  0  0  0  0  0  0  0  0
   23.5784   17.7753   -0.6635 O   0  0  0  0  0  0  0  0  0  0  0  0
   22.7319   16.5815    1.1975 O   0  0  0  0  0  0  0  0  0  0  0  0
   23.7239   18.6262   -0.2210 H   0  0  0  0  0  0  0  0  0  0  0  0
   22.8081   17.2954    1.8498 H   0  0  0  0  0  0  0  0  0  0  0  0
 24 25  2  0  0  0
 24 26  1  0  0  0
 24 27  1  0  0  0
 24 23  1  0  0  0
 20 21  1  0  0  0
 20  1  1  0  0  0
  1  2  1  0  0  0
  1  3  1  0  0  0
  2  6  1  0  0  0
  3  4  1  0  0  0
  3  5  1  0  0  0
  5 23  1  0  0  0
  5  6  1  0  0  0
  6  8  1  0  0  0
  8  9  1  0  0  0
  8 17  1  0  0  0
  9 10  2  0  0  0
 10 11  1  0  0  0
 11 12  1  0  0  0
 11 17  2  0  0  0
 12 13  1  0  0  0
 12 14  2  0  0  0
 14 15  1  0  0  0
 15 16  2  0  0  0
 16 17  1  0  0  0
 26 28  1  0  0  0
 27 29  1  0  0  0
 21 22  1  0  0  0
  4  7  1  0  0  0
 13 18  1  0  0  0
 13 19  1  0  0  0
M  END
> <minimizedAffinity>
-5.85821

$$$$
6RNT_2AM_A_105


 29 31  0  0  0  0  0  0  0  0999 V2000
   20.9972   13.5071    0.9444 C   0  0  0  0  0  0  0  0  0  0  0  0
   21.0236   12.0459    0.7306 O   0  0  0  0  0  0  0  0  0  0  0  0
   21.6373   14.2524   -0.2855 C   0  0  0  0  0  0  0  0  0  0  0  0
   22.9095   14.8414    0.0581 O   0  0  0  0  0  0  0  0  0  0  0  0
   21.8693   12.9841   -1.1540 C   0  0  0  0  0  0  0  0  0  0  0  0
   22.0859   11.8108   -0.2225 C   0  0  0  0  0  0  0  0  0  0  0  0
   23.4842   14.1646    0.4488 H   0  0  0  0  0  0  0  0  0  0  0  0
   21.8802   10.4518   -0.7577 N   0  0  0  0  0  0  0  0  0  0  0  0
   21.0268   10.0183   -1.7590 C   0  0  0  0  0  0  0  0  0  0  0  0
   20.9295    8.7019   -1.8372 N   0  0  0  0  0  0  0  0  0  0  0  0
   21.8024    8.2465   -0.8655 C   0  0  0  0  0  0  0  0  0  0  0  0
   22.1152    6.8841   -0.5833 C   0  0  0  0  0  0  0  0  0  0  0  0
   21.7659    5.9004   -1.2849 N   0  0  0  0  0  0  0  0  0  0  0  0
   22.8857    6.7680    0.5644 N   0  0  0  0  0  0  0  0  0  0  0  0
   23.3123    7.8788    1.2746 C   0  0  0  0  0  0  0  0  0  0  0  0
   23.0924    9.1936    0.9830 N   0  0  0  0  0  0  0  0  0  0  0  0
   22.1815    9.2907   -0.0378 C   0  0  0  0  0  0  0  0  0  0  0  0
   21.2181    6.0404   -2.0908 H   0  0  0  0  0  0  0  0  0  0  0  0
   22.0403    4.9905   -1.0281 H   0  0  0  0  0  0  0  0  0  0  0  0
   19.5974   14.0085    1.2198 C   0  0  0  0  0  0  0  0  0  0  0  0
   18.8841   13.0003    1.9787 O   0  0  0  0  0  0  0  0  0  0  0  0
   19.3498   12.8340    2.8131 H   0  0  0  0  0  0  0  0  0  0  0  0
   22.9998   13.1716   -1.9787 O   0  0  0  0  0  0  0  0  0  0  0  0
   23.0322   13.3319   -3.6245 P   0  0  0  0  0  0  0  0  0  0  0  0
   22.1117   14.4260   -3.8467 O   0  0  0  0  0  0  0  0  0  0  0  0
   22.7654   11.9819   -4.0528 O   0  0  0  0  0  0  0  0  0  0  0  0
   24.5167   13.5546   -3.7984 O   0  0  0  0  0  0  0  0  0  0  0  0
   22.7586   11.9456   -5.0221 H   0  0  0  0  0  0  0  0  0  0  0  0
   24.7179   13.6717   -4.7401 H   0  0  0  0  0  0  0  0  0  0  0  0
 24 25  2  0  0  0
 24 26  1  0  0  0
 24 27  1  0  0  0
 24 23  1  0  0  0
 20 21  1  0  0  0
 20  1  1  0  0  0
  1  2  1  0  0  0
  1  3  1  0  0  0
  2  6  1  0  0  0
  3  4  1  0  0  0
  3  5  1  0  0  0
  5 23  1  0  0  0
  5  6  1  0  0  0
  6  8  1  0  0  0
  8  9  1  0  0  0
  8 17  1  0  0  0
  9 10  2  0  0  0
 10 11  1  0  0  0
 11 12  1  0  0  0
 11 17  2  0  0  0
 12 13  1  0  0  0
 12 14  2  0  0  0
 14 15  1  0  0  0
 15 16  2  0  0  0
 16 17  1  0  0  0
 26 28  1  0  0  0
 27 29  1  0  0  0
 21 22  1  0  0  0
  4  7  1  0  0  0
 13 18  1  0  0  0
 13 19  1  0  0  0
M  END
> <minimizedAffinity>
-5.81639

$$$$
6RNT_2AM_A_105


 29 31  0  0  0  0  0  0  0  0999 V2000
   22.8840   15.6138   -2.9237 C   0  0  0  0  0  0  0  0  0  0  0  0
   21.5550   16.0369   -2.4377 O   0  0  0  0  0  0  0  0  0  0  0  0
   23.3279   14.2807   -2.2141 C   0  0  0  0  0  0  0  0  0  0  0  0
   24.4155   14.5100   -1.2931 O   0  0  0  0  0  0  0  0  0  0  0  0
   22.0104   14.0617   -1.4186 C   0  0  0  0  0  0  0  0  0  0  0  0
   21.4000   15.4185   -1.1393 C   0  0  0  0  0  0  0  0  0  0  0  0
   24.1738   15.2199   -0.6778 H   0  0  0  0  0  0  0  0  0  0  0  0
   19.9633   15.4795   -0.8110 N   0  0  0  0  0  0  0  0  0  0  0  0
   18.9980   14.4891   -0.8900 C   0  0  0  0  0  0  0  0  0  0  0  0
   17.7648   14.9396   -0.7329 N   0  0  0  0  0  0  0  0  0  0  0  0
   17.9336   16.2911   -0.4911 C   0  0  0  0  0  0  0  0  0  0  0  0
   16.9031   17.2303   -0.1917 C   0  0  0  0  0  0  0  0  0  0  0  0
   15.7054   16.9369    0.0564 N   0  0  0  0  0  0  0  0  0  0  0  0
   17.3886   18.5297   -0.1812 N   0  0  0  0  0  0  0  0  0  0  0  0
   18.7294   18.8114   -0.3894 C   0  0  0  0  0  0  0  0  0  0  0  0
   19.7472   17.9272   -0.6005 N   0  0  0  0  0  0  0  0  0  0  0  0
   19.2309   16.6713   -0.7936 C   0  0  0  0  0  0  0  0  0  0  0  0
   15.4143   15.9967    0.0349 H   0  0  0  0  0  0  0  0  0  0  0  0
   15.0591   17.6475    0.2720 H   0  0  0  0  0  0  0  0  0  0  0  0
   22.9103   15.4675   -4.4286 C   0  0  0  0  0  0  0  0  0  0  0  0
   21.8101   16.2274   -4.9883 O   0  0  0  0  0  0  0  0  0  0  0  0
   21.9034   17.1608   -4.7415 H   0  0  0  0  0  0  0  0  0  0  0  0
   22.2905   13.3907   -0.2084 O   0  0  0  0  0  0  0  0  0  0  0  0
   21.7442   11.9050    0.2709 P   0  0  0  0  0  0  0  0  0  0  0  0
   20.7995   12.2445    1.3131 O   0  0  0  0  0  0  0  0  0  0  0  0
   22.9806   11.2102    0.5275 O   0  0  0  0  0  0  0  0  0  0  0  0
   21.2402   11.4103   -1.0651 O   0  0  0  0  0  0  0  0  0  0  0  0
   22.7883   10.3063    0.8222 H   0  0  0  0  0  0  0  0  0  0  0  0
   20.8726   10.5186   -0.9619 H   0  0  0  0  0  0  0  0  0  0  0  0
 24 25  2  0  0  0
 24 26  1  0  0  0
 24 27  1  0  0  0
 24 23  1  0  0  0
 20 21  1  0  0  0
 20  1  1  0  0  0
  1  2  1  0  0  0
  1  3  1  0  0  0
  2  6  1  0  0  0
  3  4  1  0  0  0
  3  5  1  0  0  0
  5 23  1  0  0  0
  5  6  1  0  0  0
  6  8  1  0  0  0
  8  9  1  0  0  0
  8 17  1  0  0  0
  9 10  2  0  0  0
 10 11  1  0  0  0
 11 12  1  0  0  0
 11 17  2  0  0  0
 12 13  1  0  0  0
 12 14  2  0  0  0
 14 15  1  0  0  0
 15 16  2  0  0  0
 16 17  1  0  0  0
 26 28  1  0  0  0
 27 29  1  0  0  0
 21 22  1  0  0  0
  4  7  1  0  0  0
 13 18  1  0  0  0
 13 19  1  0  0  0
M  END
> <minimizedAffinity>
-5.72846

$$$$
