5EYR_5T0_A_301


 25 27  0  0  0  0  0  0  0  0999 V2000
    9.0385   26.1835    2.2705 C   0  0  0  0  0  0  0  0  0  0  0  0
    8.2497   27.5809    4.7460 C   0  0  0  0  0  0  0  0  0  0  0  0
    7.7244   25.8009    2.9506 C   0  0  0  0  0  0  0  0  0  0  0  0
    7.2879   26.7856    3.9582 N   0  0  0  0  0  0  0  0  0  0  0  0
    9.3814   28.0876    3.8507 C   0  0  0  0  0  0  0  0  0  0  0  0
   10.0718   26.9392    3.0962 C   0  0  0  0  0  0  0  0  0  0  0  0
    3.8926   25.7915    5.1675 C   0  0  0  0  0  0  0  0  0  0  0  0
    5.2687   25.7730    4.9206 C   0  0  0  0  0  0  0  0  0  0  0  0
    3.1330   26.8938    4.7627 C   0  0  0  0  0  0  0  0  0  0  0  0
    5.1295   27.9306    3.8601 C   0  0  0  0  0  0  0  0  0  0  0  0
    3.7520   27.9640    4.1033 C   0  0  0  0  0  0  0  0  0  0  0  0
    5.9067   26.8321    4.2679 C   0  0  0  0  0  0  0  0  0  0  0  0
    1.6507   26.9331    5.0596 C   0  0  0  0  0  0  0  0  0  0  0  0
    1.2754   28.2114    5.6281 N   0  0  0  0  0  0  0  0  0  0  0  0
   -0.0711   28.4186    6.1372 C   0  0  0  0  0  0  0  0  0  0  0  0
    1.4255   28.9113    4.9015 H   0  0  0  0  0  0  0  0  0  0  0  0
   11.0071   27.4533    2.0048 C   0  0  0  0  0  0  0  0  0  0  0  0
   12.4203   27.8404    2.4328 C   0  0  0  0  0  0  0  0  0  0  0  0
   16.2768   29.8679    2.4892 C   0  0  0  0  0  0  0  0  0  0  0  0
   16.4576   29.9871    0.9844 C   0  0  0  0  0  0  0  0  0  0  0  0
   15.3748   29.1381    0.3505 C   0  0  0  0  0  0  0  0  0  0  0  0
   13.3576   28.0353    1.2513 C   0  0  0  0  0  0  0  0  0  0  0  0
   13.0616   27.6044    0.1253 O   0  0  0  0  0  0  0  0  0  0  0  0
   14.4956   28.7300    1.4542 N   0  0  0  0  0  0  0  0  0  0  0  0
   14.9569   29.1734    2.7729 C   0  0  0  0  0  0  0  0  0  0  0  0
 23 22  2  0  0  0
 21 20  1  0  0  0
 21 24  1  0  0  0
 20 19  1  0  0  0
 22 24  1  0  0  0
 22 18  1  0  0  0
 24 25  1  0  0  0
 17 18  1  0  0  0
 17  6  1  0  0  0
  1  3  1  0  0  0
  1  6  1  0  0  0
 19 25  1  0  0  0
  3  4  1  0  0  0
  6  5  1  0  0  0
  5  2  1  0  0  0
  4 12  1  0  0  0
  4  2  1  0  0  0
 12  8  2  0  0  0
 12 10  1  0  0  0
  8  7  1  0  0  0
 10 11  2  0  0  0
  7  9  2  0  0  0
 11  9  1  0  0  0
  9 13  1  0  0  0
 13 14  1  0  0  0
 14 15  1  0  0  0
 14 16  1  0  0  0
M  END
> <minimizedAffinity>
-11.13497

$$$$
5EYR_5T0_A_301


 25 27  0  0  0  0  0  0  0  0999 V2000
    8.7854   26.2667    2.1980 C   0  0  0  0  0  0  0  0  0  0  0  0
    8.0450   27.6909    4.6733 C   0  0  0  0  0  0  0  0  0  0  0  0
    7.5093   25.8592    2.9338 C   0  0  0  0  0  0  0  0  0  0  0  0
    7.0799   26.8510    3.9375 N   0  0  0  0  0  0  0  0  0  0  0  0
    9.1272   28.2125    3.7269 C   0  0  0  0  0  0  0  0  0  0  0  0
    9.8245   27.0699    2.9699 C   0  0  0  0  0  0  0  0  0  0  0  0
    3.7272   25.7319    5.1562 C   0  0  0  0  0  0  0  0  0  0  0  0
    5.0940   25.7418    4.8618 C   0  0  0  0  0  0  0  0  0  0  0  0
    2.9551   26.8672    4.8901 C   0  0  0  0  0  0  0  0  0  0  0  0
    4.9204   27.9945    4.0284 C   0  0  0  0  0  0  0  0  0  0  0  0
    3.5520   27.9997    4.3206 C   0  0  0  0  0  0  0  0  0  0  0  0
    5.7102   26.8627    4.2972 C   0  0  0  0  0  0  0  0  0  0  0  0
    1.4839   26.8727    5.2399 C   0  0  0  0  0  0  0  0  0  0  0  0
    1.0437   28.2090    5.5842 N   0  0  0  0  0  0  0  0  0  0  0  0
   -0.1914   28.4038    6.3270 C   0  0  0  0  0  0  0  0  0  0  0  0
    0.9425   28.7198    4.7071 H   0  0  0  0  0  0  0  0  0  0  0  0
   10.7032   27.5890    1.8347 C   0  0  0  0  0  0  0  0  0  0  0  0
   12.1867   27.2340    1.8925 C   0  0  0  0  0  0  0  0  0  0  0  0
   15.8630   29.0554    0.4248 C   0  0  0  0  0  0  0  0  0  0  0  0
   16.2920   29.7089    1.7288 C   0  0  0  0  0  0  0  0  0  0  0  0
   15.1204   29.5837    2.6809 C   0  0  0  0  0  0  0  0  0  0  0  0
   13.0158   28.2948    2.5993 C   0  0  0  0  0  0  0  0  0  0  0  0
   12.6770   28.7329    3.7103 O   0  0  0  0  0  0  0  0  0  0  0  0
   14.1529   28.7096    2.0044 N   0  0  0  0  0  0  0  0  0  0  0  0
   14.5568   28.3156    0.6515 C   0  0  0  0  0  0  0  0  0  0  0  0
 23 22  2  0  0  0
 21 20  1  0  0  0
 21 24  1  0  0  0
 20 19  1  0  0  0
 22 24  1  0  0  0
 22 18  1  0  0  0
 24 25  1  0  0  0
 17 18  1  0  0  0
 17  6  1  0  0  0
  1  3  1  0  0  0
  1  6  1  0  0  0
 19 25  1  0  0  0
  3  4  1  0  0  0
  6  5  1  0  0  0
  5  2  1  0  0  0
  4 12  1  0  0  0
  4  2  1  0  0  0
 12  8  2  0  0  0
 12 10  1  0  0  0
  8  7  1  0  0  0
 10 11  2  0  0  0
  7  9  2  0  0  0
 11  9  1  0  0  0
  9 13  1  0  0  0
 13 14  1  0  0  0
 14 15  1  0  0  0
 14 16  1  0  0  0
M  END
> <minimizedAffinity>
-10.66432

$$$$
5EYR_5T0_A_301


 25 27  0  0  0  0  0  0  0  0999 V2000
    6.0963   26.1908    5.3434 C   0  0  0  0  0  0  0  0  0  0  0  0
    6.9196   25.7910    2.5388 C   0  0  0  0  0  0  0  0  0  0  0  0
    7.5867   26.1344    5.0096 C   0  0  0  0  0  0  0  0  0  0  0  0
    7.8609   26.2752    3.5673 N   0  0  0  0  0  0  0  0  0  0  0  0
    5.4824   26.1469    2.9224 C   0  0  0  0  0  0  0  0  0  0  0  0
    5.1180   25.6248    4.3221 C   0  0  0  0  0  0  0  0  0  0  0  0
   10.9926   26.8421    1.6053 C   0  0  0  0  0  0  0  0  0  0  0  0
    9.7019   26.4297    1.9500 C   0  0  0  0  0  0  0  0  0  0  0  0
   11.7422   27.5967    2.5133 C   0  0  0  0  0  0  0  0  0  0  0  0
    9.9093   27.5011    4.0967 C   0  0  0  0  0  0  0  0  0  0  0  0
   11.2012   27.9232    3.7639 C   0  0  0  0  0  0  0  0  0  0  0  0
    9.1417   26.7480    3.1908 C   0  0  0  0  0  0  0  0  0  0  0  0
   13.1248   28.0747    2.1301 C   0  0  0  0  0  0  0  0  0  0  0  0
   13.6956   28.8896    3.1828 N   0  0  0  0  0  0  0  0  0  0  0  0
   15.0754   29.3403    3.0924 C   0  0  0  0  0  0  0  0  0  0  0  0
   13.6187   28.3509    4.0455 H   0  0  0  0  0  0  0  0  0  0  0  0
    3.7971   26.2042    4.8221 C   0  0  0  0  0  0  0  0  0  0  0  0
    3.3772   27.5569    4.2529 C   0  0  0  0  0  0  0  0  0  0  0  0
    0.0292   27.6275    1.4650 C   0  0  0  0  0  0  0  0  0  0  0  0
   -0.9539   28.3673    2.3580 C   0  0  0  0  0  0  0  0  0  0  0  0
   -0.3291   28.4209    3.7371 C   0  0  0  0  0  0  0  0  0  0  0  0
    1.9343   27.9079    4.5802 C   0  0  0  0  0  0  0  0  0  0  0  0
    1.6004   28.2192    5.7346 O   0  0  0  0  0  0  0  0  0  0  0  0
    1.0403   27.9162    3.5705 N   0  0  0  0  0  0  0  0  0  0  0  0
    1.3408   27.4587    2.2107 C   0  0  0  0  0  0  0  0  0  0  0  0
 23 22  2  0  0  0
 21 20  1  0  0  0
 21 24  1  0  0  0
 20 19  1  0  0  0
 22 24  1  0  0  0
 22 18  1  0  0  0
 24 25  1  0  0  0
 17 18  1  0  0  0
 17  6  1  0  0  0
  1  3  1  0  0  0
  1  6  1  0  0  0
 19 25  1  0  0  0
  3  4  1  0  0  0
  6  5  1  0  0  0
  5  2  1  0  0  0
  4 12  1  0  0  0
  4  2  1  0  0  0
 12  8  2  0  0  0
 12 10  1  0  0  0
  8  7  1  0  0  0
 10 11  2  0  0  0
  7  9  2  0  0  0
 11  9  1  0  0  0
  9 13  1  0  0  0
 13 14  1  0  0  0
 14 15  1  0  0  0
 14 16  1  0  0  0
M  END
> <minimizedAffinity>
-10.34085

$$$$
5EYR_5T0_A_301


 25 27  0  0  0  0  0  0  0  0999 V2000
    9.3389   28.0765    4.6026 C   0  0  0  0  0  0  0  0  0  0  0  0
   10.5871   26.6614    2.3349 C   0  0  0  0  0  0  0  0  0  0  0  0
   10.8577   28.1306    4.4410 C   0  0  0  0  0  0  0  0  0  0  0  0
   11.3128   27.6861    3.1104 N   0  0  0  0  0  0  0  0  0  0  0  0
    9.0790   26.9036    2.4125 C   0  0  0  0  0  0  0  0  0  0  0  0
    8.5853   26.9759    3.8670 C   0  0  0  0  0  0  0  0  0  0  0  0
   14.3277   28.2490    0.9721 C   0  0  0  0  0  0  0  0  0  0  0  0
   13.0586   27.8375    1.3905 C   0  0  0  0  0  0  0  0  0  0  0  0
   15.1281   29.0048    1.8347 C   0  0  0  0  0  0  0  0  0  0  0  0
   13.3884   28.9121    3.5202 C   0  0  0  0  0  0  0  0  0  0  0  0
   14.6594   29.3333    3.1136 C   0  0  0  0  0  0  0  0  0  0  0  0
   12.5702   28.1580    2.6608 C   0  0  0  0  0  0  0  0  0  0  0  0
   16.4867   29.4816    1.3726 C   0  0  0  0  0  0  0  0  0  0  0  0
   16.4997   29.6800   -0.0622 N   0  0  0  0  0  0  0  0  0  0  0  0
   16.0968   30.9579   -0.6278 C   0  0  0  0  0  0  0  0  0  0  0  0
   15.8812   28.9741   -0.4618 H   0  0  0  0  0  0  0  0  0  0  0  0
    7.1493   27.4858    3.9585 C   0  0  0  0  0  0  0  0  0  0  0  0
    6.0559   26.5710    3.4128 C   0  0  0  0  0  0  0  0  0  0  0  0
    1.8400   27.6545    3.6109 C   0  0  0  0  0  0  0  0  0  0  0  0
    1.5882   27.2014    5.0401 C   0  0  0  0  0  0  0  0  0  0  0  0
    2.8163   26.4257    5.4703 C   0  0  0  0  0  0  0  0  0  0  0  0
    5.0613   26.1449    4.4812 C   0  0  0  0  0  0  0  0  0  0  0  0
    5.4120   25.4187    5.4250 O   0  0  0  0  0  0  0  0  0  0  0  0
    3.8011   26.6177    4.3974 N   0  0  0  0  0  0  0  0  0  0  0  0
    3.2928   27.3888    3.2591 C   0  0  0  0  0  0  0  0  0  0  0  0
 23 22  2  0  0  0
 21 20  1  0  0  0
 21 24  1  0  0  0
 20 19  1  0  0  0
 22 24  1  0  0  0
 22 18  1  0  0  0
 24 25  1  0  0  0
 17 18  1  0  0  0
 17  6  1  0  0  0
  1  3  1  0  0  0
  1  6  1  0  0  0
 19 25  1  0  0  0
  3  4  1  0  0  0
  6  5  1  0  0  0
  5  2  1  0  0  0
  4 12  1  0  0  0
  4  2  1  0  0  0
 12  8  2  0  0  0
 12 10  1  0  0  0
  8  7  1  0  0  0
 10 11  2  0  0  0
  7  9  2  0  0  0
 11  9  1  0  0  0
  9 13  1  0  0  0
 13 14  1  0  0  0
 14 15  1  0  0  0
 14 16  1  0  0  0
M  END
> <minimizedAffinity>
-10.29422

$$$$
5EYR_5T0_A_301


 25 27  0  0  0  0  0  0  0  0999 V2000
    7.1115   27.7160    4.8201 C   0  0  0  0  0  0  0  0  0  0  0  0
    8.3177   25.8727    2.8580 C   0  0  0  0  0  0  0  0  0  0  0  0
    8.6339   27.6541    4.7003 C   0  0  0  0  0  0  0  0  0  0  0  0
    9.0891   26.9684    3.4764 N   0  0  0  0  0  0  0  0  0  0  0  0
    6.8264   26.2116    2.8464 C   0  0  0  0  0  0  0  0  0  0  0  0
    6.3067   26.5539    4.2526 C   0  0  0  0  0  0  0  0  0  0  0  0
   12.5687   28.3244    3.2968 C   0  0  0  0  0  0  0  0  0  0  0  0
   11.3153   27.9543    3.7937 C   0  0  0  0  0  0  0  0  0  0  0  0
   12.9071   28.0141    1.9758 C   0  0  0  0  0  0  0  0  0  0  0  0
   10.7339   26.9857    1.6670 C   0  0  0  0  0  0  0  0  0  0  0  0
   11.9859   27.3472    1.1573 C   0  0  0  0  0  0  0  0  0  0  0  0
   10.3830   27.2848    2.9953 C   0  0  0  0  0  0  0  0  0  0  0  0
   14.2750   28.3811    1.4458 C   0  0  0  0  0  0  0  0  0  0  0  0
   15.2955   28.1294    2.4424 N   0  0  0  0  0  0  0  0  0  0  0  0
   16.6320   28.6784    2.2759 C   0  0  0  0  0  0  0  0  0  0  0  0
   15.4000   27.1168    2.5063 H   0  0  0  0  0  0  0  0  0  0  0  0
    4.9038   27.1545    4.2129 C   0  0  0  0  0  0  0  0  0  0  0  0
    3.7378   26.1773    4.0877 C   0  0  0  0  0  0  0  0  0  0  0  0
    0.0537   28.0191    2.6660 C   0  0  0  0  0  0  0  0  0  0  0  0
   -0.4905   28.4405    4.0216 C   0  0  0  0  0  0  0  0  0  0  0  0
    0.3859   27.7775    5.0642 C   0  0  0  0  0  0  0  0  0  0  0  0
    2.5418   26.5805    4.9359 C   0  0  0  0  0  0  0  0  0  0  0  0
    2.5425   26.4017    6.1644 O   0  0  0  0  0  0  0  0  0  0  0  0
    1.5024   27.1798    4.3200 N   0  0  0  0  0  0  0  0  0  0  0  0
    1.3893   27.3256    2.8658 C   0  0  0  0  0  0  0  0  0  0  0  0
 23 22  2  0  0  0
 21 20  1  0  0  0
 21 24  1  0  0  0
 20 19  1  0  0  0
 22 24  1  0  0  0
 22 18  1  0  0  0
 24 25  1  0  0  0
 17 18  1  0  0  0
 17  6  1  0  0  0
  1  3  1  0  0  0
  1  6  1  0  0  0
 19 25  1  0  0  0
  3  4  1  0  0  0
  6  5  1  0  0  0
  5  2  1  0  0  0
  4 12  1  0  0  0
  4  2  1  0  0  0
 12  8  2  0  0  0
 12 10  1  0  0  0
  8  7  1  0  0  0
 10 11  2  0  0  0
  7  9  2  0  0  0
 11  9  1  0  0  0
  9 13  1  0  0  0
 13 14  1  0  0  0
 14 15  1  0  0  0
 14 16  1  0  0  0
M  END
> <minimizedAffinity>
-9.98171

$$$$
5EYR_5T0_A_301


 25 27  0  0  0  0  0  0  0  0999 V2000
    8.2411   26.5854    3.0967 C   0  0  0  0  0  0  0  0  0  0  0  0
    9.8210   28.5998    4.5628 C   0  0  0  0  0  0  0  0  0  0  0  0
    9.4890   27.1716    2.4372 C   0  0  0  0  0  0  0  0  0  0  0  0
   10.3599   27.8902    3.3862 N   0  0  0  0  0  0  0  0  0  0  0  0
    8.7425   27.7570    5.2452 C   0  0  0  0  0  0  0  0  0  0  0  0
    7.6303   27.3485    4.2650 C   0  0  0  0  0  0  0  0  0  0  0  0
   13.9160   29.0446    3.3787 C   0  0  0  0  0  0  0  0  0  0  0  0
   12.5813   28.8686    3.7561 C   0  0  0  0  0  0  0  0  0  0  0  0
   14.4179   28.3522    2.2721 C   0  0  0  0  0  0  0  0  0  0  0  0
   12.2445   27.3344    1.9307 C   0  0  0  0  0  0  0  0  0  0  0  0
   13.5791   27.4985    1.5435 C   0  0  0  0  0  0  0  0  0  0  0  0
   11.7285   28.0186    3.0455 C   0  0  0  0  0  0  0  0  0  0  0  0
   15.8702   28.5127    1.8823 C   0  0  0  0  0  0  0  0  0  0  0  0
   15.9926   28.7997    0.4678 N   0  0  0  0  0  0  0  0  0  0  0  0
   16.3179   30.1445    0.0196 C   0  0  0  0  0  0  0  0  0  0  0  0
   15.0991   28.5559    0.0404 H   0  0  0  0  0  0  0  0  0  0  0  0
    6.7042   26.2909    4.8600 C   0  0  0  0  0  0  0  0  0  0  0  0
    5.4090   26.0037    4.1048 C   0  0  0  0  0  0  0  0  0  0  0  0
    1.5100   26.2465    6.0349 C   0  0  0  0  0  0  0  0  0  0  0  0
    1.0224   27.5043    5.3338 C   0  0  0  0  0  0  0  0  0  0  0  0
    2.2151   28.0786    4.5973 C   0  0  0  0  0  0  0  0  0  0  0  0
    4.4639   27.1948    4.0885 C   0  0  0  0  0  0  0  0  0  0  0  0
    4.7620   28.2366    3.4829 O   0  0  0  0  0  0  0  0  0  0  0  0
    3.2745   27.0674    4.7113 N   0  0  0  0  0  0  0  0  0  0  0  0
    2.9025   25.9109    5.5315 C   0  0  0  0  0  0  0  0  0  0  0  0
 23 22  2  0  0  0
 21 20  1  0  0  0
 21 24  1  0  0  0
 20 19  1  0  0  0
 22 24  1  0  0  0
 22 18  1  0  0  0
 24 25  1  0  0  0
 17 18  1  0  0  0
 17  6  1  0  0  0
  1  3  1  0  0  0
  1  6  1  0  0  0
 19 25  1  0  0  0
  3  4  1  0  0  0
  6  5  1  0  0  0
  5  2  1  0  0  0
  4 12  1  0  0  0
  4  2  1  0  0  0
 12  8  2  0  0  0
 12 10  1  0  0  0
  8  7  1  0  0  0
 10 11  2  0  0  0
  7  9  2  0  0  0
 11  9  1  0  0  0
  9 13  1  0  0  0
 13 14  1  0  0  0
 14 15  1  0  0  0
 14 16  1  0  0  0
M  END
> <minimizedAffinity>
-9.89098

$$$$
5EYR_5T0_A_301


 25 27  0  0  0  0  0  0  0  0999 V2000
    8.3427   27.7980    5.0448 C   0  0  0  0  0  0  0  0  0  0  0  0
    9.5333   26.3529    2.7650 C   0  0  0  0  0  0  0  0  0  0  0  0
    9.8588   27.8341    4.8549 C   0  0  0  0  0  0  0  0  0  0  0  0
   10.2844   27.3751    3.5194 N   0  0  0  0  0  0  0  0  0  0  0  0
    8.0296   26.6124    2.8685 C   0  0  0  0  0  0  0  0  0  0  0  0
    7.5636   26.7006    4.3313 C   0  0  0  0  0  0  0  0  0  0  0  0
   13.2921   27.8429    1.3483 C   0  0  0  0  0  0  0  0  0  0  0  0
   12.0260   27.4469    1.7902 C   0  0  0  0  0  0  0  0  0  0  0  0
   14.0900   28.6462    2.1691 C   0  0  0  0  0  0  0  0  0  0  0  0
   12.3542   28.6314    3.8611 C   0  0  0  0  0  0  0  0  0  0  0  0
   13.6221   29.0378    3.4305 C   0  0  0  0  0  0  0  0  0  0  0  0
   11.5383   27.8297    3.0434 C   0  0  0  0  0  0  0  0  0  0  0  0
   15.4452   29.1058    1.6801 C   0  0  0  0  0  0  0  0  0  0  0  0
   15.4318   29.3054    0.2455 N   0  0  0  0  0  0  0  0  0  0  0  0
   16.1608   30.4167   -0.3454 C   0  0  0  0  0  0  0  0  0  0  0  0
   14.4551   29.4175   -0.0263 H   0  0  0  0  0  0  0  0  0  0  0  0
    6.1353   27.2270    4.4453 C   0  0  0  0  0  0  0  0  0  0  0  0
    5.0156   26.2850    4.0104 C   0  0  0  0  0  0  0  0  0  0  0  0
    1.1987   26.3170    6.1120 C   0  0  0  0  0  0  0  0  0  0  0  0
    0.3651   26.9243    4.9950 C   0  0  0  0  0  0  0  0  0  0  0  0
    1.3399   27.3953    3.9354 C   0  0  0  0  0  0  0  0  0  0  0  0
    3.7567   27.0266    3.5889 C   0  0  0  0  0  0  0  0  0  0  0  0
    3.7362   27.7093    2.5523 O   0  0  0  0  0  0  0  0  0  0  0  0
    2.6524   26.8817    4.3494 N   0  0  0  0  0  0  0  0  0  0  0  0
    2.6341   26.1809    5.6367 C   0  0  0  0  0  0  0  0  0  0  0  0
 23 22  2  0  0  0
 21 20  1  0  0  0
 21 24  1  0  0  0
 20 19  1  0  0  0
 22 24  1  0  0  0
 22 18  1  0  0  0
 24 25  1  0  0  0
 17 18  1  0  0  0
 17  6  1  0  0  0
  1  3  1  0  0  0
  1  6  1  0  0  0
 19 25  1  0  0  0
  3  4  1  0  0  0
  6  5  1  0  0  0
  5  2  1  0  0  0
  4 12  1  0  0  0
  4  2  1  0  0  0
 12  8  2  0  0  0
 12 10  1  0  0  0
  8  7  1  0  0  0
 10 11  2  0  0  0
  7  9  2  0  0  0
 11  9  1  0  0  0
  9 13  1  0  0  0
 13 14  1  0  0  0
 14 15  1  0  0  0
 14 16  1  0  0  0
M  END
> <minimizedAffinity>
-9.82679

$$$$
5EYR_5T0_A_301


 25 27  0  0  0  0  0  0  0  0999 V2000
    9.0413   28.2500    3.3258 C   0  0  0  0  0  0  0  0  0  0  0  0
    7.4244   25.9461    2.4422 C   0  0  0  0  0  0  0  0  0  0  0  0
    7.5181   28.3358    3.4161 C   0  0  0  0  0  0  0  0  0  0  0  0
    6.8567   27.0252    3.2737 N   0  0  0  0  0  0  0  0  0  0  0  0
    8.9349   25.8448    2.6595 C   0  0  0  0  0  0  0  0  0  0  0  0
    9.6399   27.1887    2.4115 C   0  0  0  0  0  0  0  0  0  0  0  0
    3.4358   27.8429    4.5416 C   0  0  0  0  0  0  0  0  0  0  0  0
    4.6865   27.9681    3.9291 C   0  0  0  0  0  0  0  0  0  0  0  0
    3.0440   26.6069    5.0657 C   0  0  0  0  0  0  0  0  0  0  0  0
    5.1598   25.6488    4.3718 C   0  0  0  0  0  0  0  0  0  0  0  0
    3.9099   25.5082    4.9848 C   0  0  0  0  0  0  0  0  0  0  0  0
    5.5638   26.8837    3.8342 C   0  0  0  0  0  0  0  0  0  0  0  0
    1.6780   26.4588    5.6971 C   0  0  0  0  0  0  0  0  0  0  0  0
    0.8020   27.5352    5.2823 N   0  0  0  0  0  0  0  0  0  0  0  0
   -0.1822   27.3149    4.2344 C   0  0  0  0  0  0  0  0  0  0  0  0
    1.4022   28.2968    4.9658 H   0  0  0  0  0  0  0  0  0  0  0  0
   11.0903   27.1695    2.8871 C   0  0  0  0  0  0  0  0  0  0  0  0
   12.1329   27.7697    1.9475 C   0  0  0  0  0  0  0  0  0  0  0  0
   15.7962   30.0900    2.3749 C   0  0  0  0  0  0  0  0  0  0  0  0
   16.7762   28.9354    2.2412 C   0  0  0  0  0  0  0  0  0  0  0  0
   15.9558   27.6633    2.2994 C   0  0  0  0  0  0  0  0  0  0  0  0
   13.5291   27.2195    2.1934 C   0  0  0  0  0  0  0  0  0  0  0  0
   13.7245   25.9974    2.2904 O   0  0  0  0  0  0  0  0  0  0  0  0
   14.5525   28.0955    2.2558 N   0  0  0  0  0  0  0  0  0  0  0  0
   14.3818   29.5514    2.2559 C   0  0  0  0  0  0  0  0  0  0  0  0
 23 22  2  0  0  0
 21 20  1  0  0  0
 21 24  1  0  0  0
 20 19  1  0  0  0
 22 24  1  0  0  0
 22 18  1  0  0  0
 24 25  1  0  0  0
 17 18  1  0  0  0
 17  6  1  0  0  0
  1  3  1  0  0  0
  1  6  1  0  0  0
 19 25  1  0  0  0
  3  4  1  0  0  0
  6  5  1  0  0  0
  5  2  1  0  0  0
  4 12  1  0  0  0
  4  2  1  0  0  0
 12  8  2  0  0  0
 12 10  1  0  0  0
  8  7  1  0  0  0
 10 11  2  0  0  0
  7  9  2  0  0  0
 11  9  1  0  0  0
  9 13  1  0  0  0
 13 14  1  0  0  0
 14 15  1  0  0  0
 14 16  1  0  0  0
M  END
> <minimizedAffinity>
-9.00945

$$$$
