5ZC5_09I_U_301


 36 39  0  0  0  0  0  0  0  0999 V2000
    0.5761  -32.8474  -26.2384 C   0  0  0  0  0  0  0  0  0  0  0  0
    0.1363  -31.7940  -25.4249 C   0  0  0  0  0  0  0  0  0  0  0  0
   -0.5683  -32.1587  -24.3061 N   0  0  0  0  0  0  0  0  0  0  0  0
   -0.8603  -33.4428  -24.0008 C   0  0  0  0  0  0  0  0  0  0  0  0
   -1.5639  -33.7327  -22.8797 N   0  0  0  0  0  0  0  0  0  0  0  0
   -0.4354  -34.4518  -24.8532 C   0  0  0  0  0  0  0  0  0  0  0  0
    0.2769  -34.1272  -25.9474 N   0  0  0  0  0  0  0  0  0  0  0  0
   -1.7754  -34.6687  -22.6595 H   0  0  0  0  0  0  0  0  0  0  0  0
   -1.8637  -33.0074  -22.2853 H   0  0  0  0  0  0  0  0  0  0  0  0
    3.6813  -32.5597  -30.2914 C   0  0  0  0  0  0  0  0  0  0  0  0
    1.2770  -32.7299  -27.5307 C   0  0  0  0  0  0  0  0  0  0  0  0
    2.0024  -32.5058  -32.0445 C   0  0  0  0  0  0  0  0  0  0  0  0
    2.6710  -32.6320  -29.3306 C   0  0  0  0  0  0  0  0  0  0  0  0
    1.3674  -32.6401  -29.7516 C   0  0  0  0  0  0  0  0  0  0  0  0
    3.3398  -32.5034  -31.6486 C   0  0  0  0  0  0  0  0  0  0  0  0
    2.6233  -32.7047  -27.8876 C   0  0  0  0  0  0  0  0  0  0  0  0
    0.9886  -32.5729  -31.0876 C   0  0  0  0  0  0  0  0  0  0  0  0
    4.9683  -32.5474  -29.9048 F   0  0  0  0  0  0  0  0  0  0  0  0
    0.5698  -32.7109  -28.7109 O   0  0  0  0  0  0  0  0  0  0  0  0
    1.9939  -28.7732  -27.5395 C   0  0  0  0  0  0  0  0  0  0  0  0
    1.3943  -29.7239  -24.7865 C   0  0  0  0  0  0  0  0  0  0  0  0
   -0.2187  -29.5382  -26.6434 C   0  0  0  0  0  0  0  0  0  0  0  0
    0.7059  -29.5368  -27.8501 C   0  0  0  0  0  0  0  0  0  0  0  0
    0.3921  -30.4028  -25.6175 N   0  0  0  0  0  0  0  0  0  0  0  0
    3.0245  -29.6746  -26.8528 C   0  0  0  0  0  0  0  0  0  0  0  0
    2.7923  -29.9777  -25.3652 C   0  0  0  0  0  0  0  0  0  0  0  0
   -0.6651  -35.9006  -24.6080 C   0  0  0  0  0  0  0  0  0  0  0  0
   -0.5251  -36.3616  -23.4883 O   0  0  0  0  0  0  0  0  0  0  0  0
   -0.9235  -36.6361  -25.7071 N   0  0  0  0  0  0  0  0  0  0  0  0
   -0.7397  -36.2108  -26.5758 H   0  0  0  0  0  0  0  0  0  0  0  0
   -1.3995  -37.8729  -25.7401 C   0  0  0  0  0  0  0  0  0  0  0  0
   -2.0370  -38.3344  -24.6629 N   0  0  0  0  0  0  0  0  0  0  0  0
   -1.2560  -38.6327  -26.8223 N   0  0  0  0  0  0  0  0  0  0  0  0
   -2.1371  -37.7627  -23.8676 H   0  0  0  0  0  0  0  0  0  0  0  0
   -1.6151  -39.5494  -26.8313 H   0  0  0  0  0  0  0  0  0  0  0  0
   -0.7907  -38.2785  -27.6142 H   0  0  0  0  0  0  0  0  0  0  0  0
 18 10  1  0  0  0
 15 10  2  0  0  0
 15 12  1  0  0  0
 10 13  1  0  0  0
 12 17  2  0  0  0
 13 14  2  0  0  0
 13 16  1  0  0  0
 17 14  1  0  0  0
 14 19  1  0  0  0
 16 11  2  0  0  0
 19 11  1  0  0  0
 23 22  1  0  0  0
 23 20  1  0  0  0
 11  1  1  0  0  0
 22 24  1  0  0  0
 20 25  1  0  0  0
  1  7  2  0  0  0
  1  2  1  0  0  0
 32 31  2  0  0  0
 24  2  1  0  0  0
 24 21  1  0  0  0
  7  6  1  0  0  0
 25 26  1  0  0  0
  2  3  2  0  0  0
 29 31  1  0  0  0
 29 27  1  0  0  0
 31 33  1  0  0  0
 21 26  1  0  0  0
  6 27  1  0  0  0
  6  4  2  0  0  0
  3  4  1  0  0  0
 27 28  2  0  0  0
  4  5  1  0  0  0
  5  8  1  0  0  0
  5  9  1  0  0  0
 29 30  1  0  0  0
 32 34  1  0  0  0
 33 35  1  0  0  0
 33 36  1  0  0  0
M  END
> <minimizedAffinity>
-9.51207

$$$$
5ZC5_09I_U_301


 36 39  0  0  0  0  0  0  0  0999 V2000
   -0.7463  -32.6622  -27.2013 C   0  0  0  0  0  0  0  0  0  0  0  0
    0.0040  -31.7099  -26.4978 C   0  0  0  0  0  0  0  0  0  0  0  0
    0.3518  -32.0530  -25.2161 N   0  0  0  0  0  0  0  0  0  0  0  0
   -0.0191  -33.2154  -24.6343 C   0  0  0  0  0  0  0  0  0  0  0  0
    0.3570  -33.4898  -23.3617 N   0  0  0  0  0  0  0  0  0  0  0  0
   -0.7918  -34.1140  -25.3557 C   0  0  0  0  0  0  0  0  0  0  0  0
   -1.1305  -33.8155  -26.6231 N   0  0  0  0  0  0  0  0  0  0  0  0
    0.0857  -34.3370  -22.9401 H   0  0  0  0  0  0  0  0  0  0  0  0
    0.9015  -32.8418  -22.8588 H   0  0  0  0  0  0  0  0  0  0  0  0
   -2.1702  -32.6959  -32.1128 C   0  0  0  0  0  0  0  0  0  0  0  0
   -1.3147  -32.5127  -28.5539 C   0  0  0  0  0  0  0  0  0  0  0  0
   -4.1598  -31.3159  -31.9339 C   0  0  0  0  0  0  0  0  0  0  0  0
   -1.9561  -32.5596  -30.7400 C   0  0  0  0  0  0  0  0  0  0  0  0
   -2.8432  -31.8126  -30.0108 C   0  0  0  0  0  0  0  0  0  0  0  0
   -3.2790  -32.0763  -32.7030 C   0  0  0  0  0  0  0  0  0  0  0  0
   -0.9656  -33.0315  -29.7987 C   0  0  0  0  0  0  0  0  0  0  0  0
   -3.9473  -31.1724  -30.5619 C   0  0  0  0  0  0  0  0  0  0  0  0
   -1.3133  -33.4211  -32.8517 F   0  0  0  0  0  0  0  0  0  0  0  0
   -2.4760  -31.8013  -28.7500 O   0  0  0  0  0  0  0  0  0  0  0  0
    2.3265  -28.3311  -26.0109 C   0  0  0  0  0  0  0  0  0  0  0  0
   -0.3615  -29.2610  -26.8782 C   0  0  0  0  0  0  0  0  0  0  0  0
    1.8030  -30.2045  -27.5920 C   0  0  0  0  0  0  0  0  0  0  0  0
    2.7226  -29.7325  -26.4772 C   0  0  0  0  0  0  0  0  0  0  0  0
    0.4787  -30.4593  -26.9965 N   0  0  0  0  0  0  0  0  0  0  0  0
    1.2144  -28.3872  -24.9592 C   0  0  0  0  0  0  0  0  0  0  0  0
   -0.2060  -28.6665  -25.4724 C   0  0  0  0  0  0  0  0  0  0  0  0
   -1.2321  -35.4367  -24.8377 C   0  0  0  0  0  0  0  0  0  0  0  0
   -1.7074  -35.5287  -23.7190 O   0  0  0  0  0  0  0  0  0  0  0  0
   -0.9682  -36.4859  -25.6411 N   0  0  0  0  0  0  0  0  0  0  0  0
   -0.3414  -36.3265  -26.3834 H   0  0  0  0  0  0  0  0  0  0  0  0
   -1.4649  -37.7105  -25.5355 C   0  0  0  0  0  0  0  0  0  0  0  0
   -1.7232  -38.3872  -26.6559 N   0  0  0  0  0  0  0  0  0  0  0  0
   -1.6908  -38.2570  -24.3442 N   0  0  0  0  0  0  0  0  0  0  0  0
   -1.5519  -37.9723  -27.5321 H   0  0  0  0  0  0  0  0  0  0  0  0
   -2.0601  -39.1675  -24.2823 H   0  0  0  0  0  0  0  0  0  0  0  0
   -1.4888  -37.7509  -23.5242 H   0  0  0  0  0  0  0  0  0  0  0  0
 18 10  1  0  0  0
 15 10  2  0  0  0
 15 12  1  0  0  0
 10 13  1  0  0  0
 12 17  2  0  0  0
 13 14  2  0  0  0
 13 16  1  0  0  0
 17 14  1  0  0  0
 14 19  1  0  0  0
 16 11  2  0  0  0
 19 11  1  0  0  0
 23 22  1  0  0  0
 23 20  1  0  0  0
 11  1  1  0  0  0
 22 24  1  0  0  0
 20 25  1  0  0  0
  1  7  2  0  0  0
  1  2  1  0  0  0
 32 31  2  0  0  0
 24  2  1  0  0  0
 24 21  1  0  0  0
  7  6  1  0  0  0
 25 26  1  0  0  0
  2  3  2  0  0  0
 29 31  1  0  0  0
 29 27  1  0  0  0
 31 33  1  0  0  0
 21 26  1  0  0  0
  6 27  1  0  0  0
  6  4  2  0  0  0
  3  4  1  0  0  0
 27 28  2  0  0  0
  4  5  1  0  0  0
  5  8  1  0  0  0
  5  9  1  0  0  0
 29 30  1  0  0  0
 32 34  1  0  0  0
 33 35  1  0  0  0
 33 36  1  0  0  0
M  END
> <minimizedAffinity>
-9.33534

$$$$
5ZC5_09I_U_301


 36 39  0  0  0  0  0  0  0  0999 V2000
   -0.7794  -32.5891  -27.1017 C   0  0  0  0  0  0  0  0  0  0  0  0
   -0.0448  -31.6267  -26.3952 C   0  0  0  0  0  0  0  0  0  0  0  0
    0.2922  -31.9602  -25.1082 N   0  0  0  0  0  0  0  0  0  0  0  0
   -0.0748  -33.1229  -24.5243 C   0  0  0  0  0  0  0  0  0  0  0  0
    0.2901  -33.3875  -23.2465 N   0  0  0  0  0  0  0  0  0  0  0  0
   -0.8320  -34.0318  -25.2493 C   0  0  0  0  0  0  0  0  0  0  0  0
   -1.1598  -33.7426  -26.5217 N   0  0  0  0  0  0  0  0  0  0  0  0
    0.0216  -34.2350  -22.8234 H   0  0  0  0  0  0  0  0  0  0  0  0
    0.8236  -32.7324  -22.7412 H   0  0  0  0  0  0  0  0  0  0  0  0
   -2.0778  -32.5650  -32.0480 C   0  0  0  0  0  0  0  0  0  0  0  0
   -1.3347  -32.4513  -28.4611 C   0  0  0  0  0  0  0  0  0  0  0  0
   -4.2524  -31.5019  -31.8577 C   0  0  0  0  0  0  0  0  0  0  0  0
   -1.9154  -32.4732  -30.6644 C   0  0  0  0  0  0  0  0  0  0  0  0
   -2.9183  -31.9042  -29.9246 C   0  0  0  0  0  0  0  0  0  0  0  0
   -3.2529  -32.0829  -32.6382 C   0  0  0  0  0  0  0  0  0  0  0  0
   -0.8865  -32.8456  -29.7197 C   0  0  0  0  0  0  0  0  0  0  0  0
   -4.0926  -31.4033  -30.4747 C   0  0  0  0  0  0  0  0  0  0  0  0
   -1.1079  -33.1164  -32.7972 F   0  0  0  0  0  0  0  0  0  0  0  0
   -2.5837  -31.9075  -28.6547 O   0  0  0  0  0  0  0  0  0  0  0  0
    0.4005  -28.9882  -29.5397 C   0  0  0  0  0  0  0  0  0  0  0  0
    1.8412  -30.2140  -27.2453 C   0  0  0  0  0  0  0  0  0  0  0  0
   -0.3984  -29.1830  -27.1717 C   0  0  0  0  0  0  0  0  0  0  0  0
   -0.8067  -29.2383  -28.6350 C   0  0  0  0  0  0  0  0  0  0  0  0
    0.4243  -30.3746  -26.8953 N   0  0  0  0  0  0  0  0  0  0  0  0
    1.1839  -30.2797  -29.7935 C   0  0  0  0  0  0  0  0  0  0  0  0
    2.0850  -30.7746  -28.6525 C   0  0  0  0  0  0  0  0  0  0  0  0
   -1.2664  -35.3557  -24.7292 C   0  0  0  0  0  0  0  0  0  0  0  0
   -1.6961  -35.4559  -23.5929 O   0  0  0  0  0  0  0  0  0  0  0  0
   -1.0484  -36.3978  -25.5551 N   0  0  0  0  0  0  0  0  0  0  0  0
   -0.4510  -36.2365  -26.3208 H   0  0  0  0  0  0  0  0  0  0  0  0
   -1.5551  -37.6179  -25.4436 C   0  0  0  0  0  0  0  0  0  0  0  0
   -2.0503  -38.1996  -26.5372 N   0  0  0  0  0  0  0  0  0  0  0  0
   -1.5608  -38.2521  -24.2746 N   0  0  0  0  0  0  0  0  0  0  0  0
   -2.0406  -37.7202  -27.3971 H   0  0  0  0  0  0  0  0  0  0  0  0
   -1.9407  -39.1579  -24.2078 H   0  0  0  0  0  0  0  0  0  0  0  0
   -1.1852  -37.8158  -23.4759 H   0  0  0  0  0  0  0  0  0  0  0  0
 18 10  1  0  0  0
 15 10  2  0  0  0
 15 12  1  0  0  0
 10 13  1  0  0  0
 12 17  2  0  0  0
 13 14  2  0  0  0
 13 16  1  0  0  0
 17 14  1  0  0  0
 14 19  1  0  0  0
 16 11  2  0  0  0
 19 11  1  0  0  0
 23 22  1  0  0  0
 23 20  1  0  0  0
 11  1  1  0  0  0
 22 24  1  0  0  0
 20 25  1  0  0  0
  1  7  2  0  0  0
  1  2  1  0  0  0
 32 31  2  0  0  0
 24  2  1  0  0  0
 24 21  1  0  0  0
  7  6  1  0  0  0
 25 26  1  0  0  0
  2  3  2  0  0  0
 29 31  1  0  0  0
 29 27  1  0  0  0
 31 33  1  0  0  0
 21 26  1  0  0  0
  6 27  1  0  0  0
  6  4  2  0  0  0
  3  4  1  0  0  0
 27 28  2  0  0  0
  4  5  1  0  0  0
  5  8  1  0  0  0
  5  9  1  0  0  0
 29 30  1  0  0  0
 32 34  1  0  0  0
 33 35  1  0  0  0
 33 36  1  0  0  0
M  END
> <minimizedAffinity>
-9.31990

$$$$
5ZC5_09I_U_301


 36 39  0  0  0  0  0  0  0  0999 V2000
    0.8700  -32.4798  -26.7343 C   0  0  0  0  0  0  0  0  0  0  0  0
    0.5541  -31.2748  -26.0915 C   0  0  0  0  0  0  0  0  0  0  0  0
   -0.1354  -31.3914  -24.9115 N   0  0  0  0  0  0  0  0  0  0  0  0
   -0.5246  -32.5787  -24.3955 C   0  0  0  0  0  0  0  0  0  0  0  0
   -1.2066  -32.6214  -23.2255 N   0  0  0  0  0  0  0  0  0  0  0  0
   -0.2213  -33.7447  -25.0836 C   0  0  0  0  0  0  0  0  0  0  0  0
    0.4734  -33.6643  -26.2330 N   0  0  0  0  0  0  0  0  0  0  0  0
   -1.4890  -33.4873  -22.8516 H   0  0  0  0  0  0  0  0  0  0  0  0
   -1.4197  -31.7866  -22.7491 H   0  0  0  0  0  0  0  0  0  0  0  0
    2.4073  -32.9430  -31.5896 C   0  0  0  0  0  0  0  0  0  0  0  0
    1.5278  -32.6334  -28.0454 C   0  0  0  0  0  0  0  0  0  0  0  0
    4.8073  -32.8662  -31.2299 C   0  0  0  0  0  0  0  0  0  0  0  0
    2.2003  -32.8103  -30.2153 C   0  0  0  0  0  0  0  0  0  0  0  0
    3.2937  -32.7092  -29.3961 C   0  0  0  0  0  0  0  0  0  0  0  0
    3.7147  -32.9636  -32.0915 C   0  0  0  0  0  0  0  0  0  0  0  0
    1.0459  -32.7475  -29.3475 C   0  0  0  0  0  0  0  0  0  0  0  0
    4.6057  -32.7384  -29.8548 C   0  0  0  0  0  0  0  0  0  0  0  0
    1.3519  -33.0467  -32.4151 F   0  0  0  0  0  0  0  0  0  0  0  0
    2.8992  -32.5934  -28.1489 O   0  0  0  0  0  0  0  0  0  0  0  0
    2.0375  -27.5288  -25.1888 C   0  0  0  0  0  0  0  0  0  0  0  0
   -0.1149  -28.9344  -26.6835 C   0  0  0  0  0  0  0  0  0  0  0  0
    2.2914  -29.4729  -26.7508 C   0  0  0  0  0  0  0  0  0  0  0  0
    2.7812  -28.8372  -25.4597 C   0  0  0  0  0  0  0  0  0  0  0  0
    0.9209  -29.9611  -26.5128 N   0  0  0  0  0  0  0  0  0  0  0  0
    0.7109  -27.7812  -24.4659 C   0  0  0  0  0  0  0  0  0  0  0  0
   -0.4485  -28.3156  -25.3198 C   0  0  0  0  0  0  0  0  0  0  0  0
   -0.5650  -35.1091  -24.6017 C   0  0  0  0  0  0  0  0  0  0  0  0
   -0.5106  -35.3700  -23.4123 O   0  0  0  0  0  0  0  0  0  0  0  0
   -0.8236  -36.0121  -25.5679 N   0  0  0  0  0  0  0  0  0  0  0  0
   -0.5696  -35.7615  -26.4855 H   0  0  0  0  0  0  0  0  0  0  0  0
   -1.3846  -37.2030  -25.4111 C   0  0  0  0  0  0  0  0  0  0  0  0
   -1.0823  -37.9058  -24.3182 N   0  0  0  0  0  0  0  0  0  0  0  0
   -2.2358  -37.6826  -26.3135 N   0  0  0  0  0  0  0  0  0  0  0  0
   -0.4508  -37.5404  -23.6571 H   0  0  0  0  0  0  0  0  0  0  0  0
   -2.6443  -38.5688  -26.1828 H   0  0  0  0  0  0  0  0  0  0  0  0
   -2.4575  -37.1514  -27.1122 H   0  0  0  0  0  0  0  0  0  0  0  0
 18 10  1  0  0  0
 15 10  2  0  0  0
 15 12  1  0  0  0
 10 13  1  0  0  0
 12 17  2  0  0  0
 13 14  2  0  0  0
 13 16  1  0  0  0
 17 14  1  0  0  0
 14 19  1  0  0  0
 16 11  2  0  0  0
 19 11  1  0  0  0
 23 22  1  0  0  0
 23 20  1  0  0  0
 11  1  1  0  0  0
 22 24  1  0  0  0
 20 25  1  0  0  0
  1  7  2  0  0  0
  1  2  1  0  0  0
 32 31  2  0  0  0
 24  2  1  0  0  0
 24 21  1  0  0  0
  7  6  1  0  0  0
 25 26  1  0  0  0
  2  3  2  0  0  0
 29 31  1  0  0  0
 29 27  1  0  0  0
 31 33  1  0  0  0
 21 26  1  0  0  0
  6 27  1  0  0  0
  6  4  2  0  0  0
  3  4  1  0  0  0
 27 28  2  0  0  0
  4  5  1  0  0  0
  5  8  1  0  0  0
  5  9  1  0  0  0
 29 30  1  0  0  0
 32 34  1  0  0  0
 33 35  1  0  0  0
 33 36  1  0  0  0
M  END
> <minimizedAffinity>
-8.73242

$$$$
5ZC5_09I_U_301


 36 39  0  0  0  0  0  0  0  0999 V2000
   -0.7036  -31.3693  -27.2590 C   0  0  0  0  0  0  0  0  0  0  0  0
    0.2376  -30.4538  -26.7682 C   0  0  0  0  0  0  0  0  0  0  0  0
    0.8310  -30.7890  -25.5780 N   0  0  0  0  0  0  0  0  0  0  0  0
    0.5232  -31.9092  -24.8867 C   0  0  0  0  0  0  0  0  0  0  0  0
    1.1465  -32.1780  -23.7140 N   0  0  0  0  0  0  0  0  0  0  0  0
   -0.4404  -32.7700  -25.3923 C   0  0  0  0  0  0  0  0  0  0  0  0
   -1.0247  -32.4795  -26.5689 N   0  0  0  0  0  0  0  0  0  0  0  0
    0.9206  -32.9945  -23.2123 H   0  0  0  0  0  0  0  0  0  0  0  0
    1.8252  -31.5569  -23.3636 H   0  0  0  0  0  0  0  0  0  0  0  0
   -3.3278  -30.0696  -31.4514 C   0  0  0  0  0  0  0  0  0  0  0  0
   -1.5394  -31.2138  -28.4642 C   0  0  0  0  0  0  0  0  0  0  0  0
   -4.1647  -32.2651  -32.0633 C   0  0  0  0  0  0  0  0  0  0  0  0
   -2.6806  -30.6275  -30.3474 C   0  0  0  0  0  0  0  0  0  0  0  0
   -2.7927  -31.9764  -30.1364 C   0  0  0  0  0  0  0  0  0  0  0  0
   -4.0636  -30.8960  -32.3101 C   0  0  0  0  0  0  0  0  0  0  0  0
   -1.8550  -30.1242  -29.2728 C   0  0  0  0  0  0  0  0  0  0  0  0
   -3.5236  -32.8269  -30.9581 C   0  0  0  0  0  0  0  0  0  0  0  0
   -3.2361  -28.7483  -31.6796 F   0  0  0  0  0  0  0  0  0  0  0  0
   -2.1215  -32.3099  -29.0581 O   0  0  0  0  0  0  0  0  0  0  0  0
    2.8915  -27.2988  -26.9922 C   0  0  0  0  0  0  0  0  0  0  0  0
   -0.0008  -27.9816  -27.0953 C   0  0  0  0  0  0  0  0  0  0  0  0
    1.8054  -29.1162  -28.3343 C   0  0  0  0  0  0  0  0  0  0  0  0
    3.0256  -28.7299  -27.5140 C   0  0  0  0  0  0  0  0  0  0  0  0
    0.6699  -29.2508  -27.4038 N   0  0  0  0  0  0  0  0  0  0  0  0
    2.0982  -27.2550  -25.6826 C   0  0  0  0  0  0  0  0  0  0  0  0
    0.5738  -27.4047  -25.7950 C   0  0  0  0  0  0  0  0  0  0  0  0
   -0.8395  -34.0468  -24.7425 C   0  0  0  0  0  0  0  0  0  0  0  0
   -1.2241  -34.0509  -23.5858 O   0  0  0  0  0  0  0  0  0  0  0  0
   -0.6418  -35.1553  -25.4828 N   0  0  0  0  0  0  0  0  0  0  0  0
   -0.0762  -35.0567  -26.2825 H   0  0  0  0  0  0  0  0  0  0  0  0
   -1.1300  -36.3649  -25.2459 C   0  0  0  0  0  0  0  0  0  0  0  0
   -1.8328  -36.9633  -26.2091 N   0  0  0  0  0  0  0  0  0  0  0  0
   -0.9169  -36.9730  -24.0823 N   0  0  0  0  0  0  0  0  0  0  0  0
   -1.9840  -36.5033  -27.0663 H   0  0  0  0  0  0  0  0  0  0  0  0
   -1.2861  -37.8713  -23.9215 H   0  0  0  0  0  0  0  0  0  0  0  0
   -0.3899  -36.5247  -23.3819 H   0  0  0  0  0  0  0  0  0  0  0  0
 18 10  1  0  0  0
 15 10  2  0  0  0
 15 12  1  0  0  0
 10 13  1  0  0  0
 12 17  2  0  0  0
 13 14  2  0  0  0
 13 16  1  0  0  0
 17 14  1  0  0  0
 14 19  1  0  0  0
 16 11  2  0  0  0
 19 11  1  0  0  0
 23 22  1  0  0  0
 23 20  1  0  0  0
 11  1  1  0  0  0
 22 24  1  0  0  0
 20 25  1  0  0  0
  1  7  2  0  0  0
  1  2  1  0  0  0
 32 31  2  0  0  0
 24  2  1  0  0  0
 24 21  1  0  0  0
  7  6  1  0  0  0
 25 26  1  0  0  0
  2  3  2  0  0  0
 29 31  1  0  0  0
 29 27  1  0  0  0
 31 33  1  0  0  0
 21 26  1  0  0  0
  6 27  1  0  0  0
  6  4  2  0  0  0
  3  4  1  0  0  0
 27 28  2  0  0  0
  4  5  1  0  0  0
  5  8  1  0  0  0
  5  9  1  0  0  0
 29 30  1  0  0  0
 32 34  1  0  0  0
 33 35  1  0  0  0
 33 36  1  0  0  0
M  END
> <minimizedAffinity>
-8.32553

$$$$
5ZC5_09I_U_301


 36 39  0  0  0  0  0  0  0  0999 V2000
    0.3013  -31.5363  -27.8297 C   0  0  0  0  0  0  0  0  0  0  0  0
    1.5335  -31.0345  -28.2711 C   0  0  0  0  0  0  0  0  0  0  0  0
    1.4785  -30.1671  -29.3322 N   0  0  0  0  0  0  0  0  0  0  0  0
    0.3259  -29.8260  -29.9507 C   0  0  0  0  0  0  0  0  0  0  0  0
    0.3440  -28.9648  -30.9967 N   0  0  0  0  0  0  0  0  0  0  0  0
   -0.8673  -30.3743  -29.5030 C   0  0  0  0  0  0  0  0  0  0  0  0
   -0.8483  -31.2114  -28.4499 N   0  0  0  0  0  0  0  0  0  0  0  0
   -0.4966  -28.7178  -31.4456 H   0  0  0  0  0  0  0  0  0  0  0  0
    1.1979  -28.5861  -31.3078 H   0  0  0  0  0  0  0  0  0  0  0  0
   -0.2513  -34.4201  -23.6428 C   0  0  0  0  0  0  0  0  0  0  0  0
    0.0865  -32.5394  -26.7701 C   0  0  0  0  0  0  0  0  0  0  0  0
   -1.2013  -36.4008  -24.6768 C   0  0  0  0  0  0  0  0  0  0  0  0
   -0.1827  -33.8039  -24.8937 C   0  0  0  0  0  0  0  0  0  0  0  0
   -0.6228  -34.4981  -25.9896 C   0  0  0  0  0  0  0  0  0  0  0  0
   -0.7684  -35.7177  -23.5403 C   0  0  0  0  0  0  0  0  0  0  0  0
    0.2675  -32.5226  -25.3890 C   0  0  0  0  0  0  0  0  0  0  0  0
   -1.1302  -35.7910  -25.9302 C   0  0  0  0  0  0  0  0  0  0  0  0
    0.1764  -33.7619  -22.5519 F   0  0  0  0  0  0  0  0  0  0  0  0
   -0.4781  -33.7589  -27.0653 O   0  0  0  0  0  0  0  0  0  0  0  0
    5.6201  -30.4452  -28.2706 C   0  0  0  0  0  0  0  0  0  0  0  0
    3.5221  -32.5382  -28.0262 C   0  0  0  0  0  0  0  0  0  0  0  0
    3.5767  -30.3874  -26.8198 C   0  0  0  0  0  0  0  0  0  0  0  0
    4.5043  -29.5675  -27.7022 C   0  0  0  0  0  0  0  0  0  0  0  0
    2.8152  -31.2938  -27.6983 N   0  0  0  0  0  0  0  0  0  0  0  0
    5.1703  -31.1609  -29.5479 C   0  0  0  0  0  0  0  0  0  0  0  0
    4.2459  -32.3743  -29.3689 C   0  0  0  0  0  0  0  0  0  0  0  0
   -2.2000  -30.0506  -30.0784 C   0  0  0  0  0  0  0  0  0  0  0  0
   -2.4172  -28.9407  -30.5330 O   0  0  0  0  0  0  0  0  0  0  0  0
   -3.1297  -31.0183  -29.9561 N   0  0  0  0  0  0  0  0  0  0  0  0
   -2.9229  -31.7528  -29.3340 H   0  0  0  0  0  0  0  0  0  0  0  0
   -4.2941  -31.0839  -30.5866 C   0  0  0  0  0  0  0  0  0  0  0  0
   -5.2389  -30.1990  -30.2642 N   0  0  0  0  0  0  0  0  0  0  0  0
   -4.5135  -32.0008  -31.5247 N   0  0  0  0  0  0  0  0  0  0  0  0
   -5.0650  -29.5249  -29.5681 H   0  0  0  0  0  0  0  0  0  0  0  0
   -5.3835  -32.0368  -31.9840 H   0  0  0  0  0  0  0  0  0  0  0  0
   -3.8058  -32.6436  -31.7599 H   0  0  0  0  0  0  0  0  0  0  0  0
 18 10  1  0  0  0
 15 10  2  0  0  0
 15 12  1  0  0  0
 10 13  1  0  0  0
 12 17  2  0  0  0
 13 14  2  0  0  0
 13 16  1  0  0  0
 17 14  1  0  0  0
 14 19  1  0  0  0
 16 11  2  0  0  0
 19 11  1  0  0  0
 23 22  1  0  0  0
 23 20  1  0  0  0
 11  1  1  0  0  0
 22 24  1  0  0  0
 20 25  1  0  0  0
  1  7  2  0  0  0
  1  2  1  0  0  0
 32 31  2  0  0  0
 24  2  1  0  0  0
 24 21  1  0  0  0
  7  6  1  0  0  0
 25 26  1  0  0  0
  2  3  2  0  0  0
 29 31  1  0  0  0
 29 27  1  0  0  0
 31 33  1  0  0  0
 21 26  1  0  0  0
  6 27  1  0  0  0
  6  4  2  0  0  0
  3  4  1  0  0  0
 27 28  2  0  0  0
  4  5  1  0  0  0
  5  8  1  0  0  0
  5  9  1  0  0  0
 29 30  1  0  0  0
 32 34  1  0  0  0
 33 35  1  0  0  0
 33 36  1  0  0  0
M  END
> <minimizedAffinity>
-8.30447

$$$$
5ZC5_09I_U_301


 36 39  0  0  0  0  0  0  0  0999 V2000
    0.0748  -31.8142  -28.2377 C   0  0  0  0  0  0  0  0  0  0  0  0
    1.3151  -31.2153  -28.4984 C   0  0  0  0  0  0  0  0  0  0  0  0
    1.3482  -30.3516  -29.5633 N   0  0  0  0  0  0  0  0  0  0  0  0
    0.2754  -30.1005  -30.3466 C   0  0  0  0  0  0  0  0  0  0  0  0
    0.3788  -29.2373  -31.3859 N   0  0  0  0  0  0  0  0  0  0  0  0
   -0.9238  -30.7427  -30.0736 C   0  0  0  0  0  0  0  0  0  0  0  0
   -0.9935  -31.5791  -29.0220 N   0  0  0  0  0  0  0  0  0  0  0  0
   -0.4038  -29.0559  -31.9549 H   0  0  0  0  0  0  0  0  0  0  0  0
    1.2366  -28.7914  -31.5720 H   0  0  0  0  0  0  0  0  0  0  0  0
   -1.1157  -35.8311  -25.3052 C   0  0  0  0  0  0  0  0  0  0  0  0
   -0.2134  -32.8346  -27.2125 C   0  0  0  0  0  0  0  0  0  0  0  0
   -0.3648  -34.9657  -23.1645 C   0  0  0  0  0  0  0  0  0  0  0  0
   -0.7207  -34.6419  -25.9208 C   0  0  0  0  0  0  0  0  0  0  0  0
   -0.1632  -33.6586  -25.1468 C   0  0  0  0  0  0  0  0  0  0  0  0
   -0.9286  -35.9892  -23.9262 C   0  0  0  0  0  0  0  0  0  0  0  0
   -0.7446  -34.1211  -27.2691 C   0  0  0  0  0  0  0  0  0  0  0  0
    0.0271  -33.7731  -23.7745 C   0  0  0  0  0  0  0  0  0  0  0  0
   -1.6678  -36.8106  -26.0413 F   0  0  0  0  0  0  0  0  0  0  0  0
    0.1397  -32.6258  -25.8991 O   0  0  0  0  0  0  0  0  0  0  0  0
    5.3281  -30.3992  -27.9719 C   0  0  0  0  0  0  0  0  0  0  0  0
    3.3209  -32.5919  -27.9004 C   0  0  0  0  0  0  0  0  0  0  0  0
    3.1020  -30.3855  -26.8196 C   0  0  0  0  0  0  0  0  0  0  0  0
    4.1026  -29.5588  -27.6111 C   0  0  0  0  0  0  0  0  0  0  0  0
    2.5154  -31.3745  -27.7421 N   0  0  0  0  0  0  0  0  0  0  0  0
    5.0962  -31.2000  -29.2569 C   0  0  0  0  0  0  0  0  0  0  0  0
    4.2161  -32.4530  -29.1386 C   0  0  0  0  0  0  0  0  0  0  0  0
   -2.1791  -30.5233  -30.8404 C   0  0  0  0  0  0  0  0  0  0  0  0
   -2.1479  -30.4451  -32.0564 O   0  0  0  0  0  0  0  0  0  0  0  0
   -3.2818  -30.3211  -30.0928 N   0  0  0  0  0  0  0  0  0  0  0  0
   -3.1386  -30.1329  -29.1371 H   0  0  0  0  0  0  0  0  0  0  0  0
   -4.5397  -30.3492  -30.5107 C   0  0  0  0  0  0  0  0  0  0  0  0
   -4.9670  -29.3605  -31.2978 N   0  0  0  0  0  0  0  0  0  0  0  0
   -5.3537  -31.3423  -30.1644 N   0  0  0  0  0  0  0  0  0  0  0  0
   -4.3552  -28.6306  -31.5475 H   0  0  0  0  0  0  0  0  0  0  0  0
   -6.2853  -31.3490  -30.4828 H   0  0  0  0  0  0  0  0  0  0  0  0
   -5.0248  -32.0707  -29.5895 H   0  0  0  0  0  0  0  0  0  0  0  0
 18 10  1  0  0  0
 15 10  2  0  0  0
 15 12  1  0  0  0
 10 13  1  0  0  0
 12 17  2  0  0  0
 13 14  2  0  0  0
 13 16  1  0  0  0
 17 14  1  0  0  0
 14 19  1  0  0  0
 16 11  2  0  0  0
 19 11  1  0  0  0
 23 22  1  0  0  0
 23 20  1  0  0  0
 11  1  1  0  0  0
 22 24  1  0  0  0
 20 25  1  0  0  0
  1  7  2  0  0  0
  1  2  1  0  0  0
 32 31  2  0  0  0
 24  2  1  0  0  0
 24 21  1  0  0  0
  7  6  1  0  0  0
 25 26  1  0  0  0
  2  3  2  0  0  0
 29 31  1  0  0  0
 29 27  1  0  0  0
 31 33  1  0  0  0
 21 26  1  0  0  0
  6 27  1  0  0  0
  6  4  2  0  0  0
  3  4  1  0  0  0
 27 28  2  0  0  0
  4  5  1  0  0  0
  5  8  1  0  0  0
  5  9  1  0  0  0
 29 30  1  0  0  0
 32 34  1  0  0  0
 33 35  1  0  0  0
 33 36  1  0  0  0
M  END
> <minimizedAffinity>
-8.20126

$$$$
5ZC5_09I_U_301


 36 39  0  0  0  0  0  0  0  0999 V2000
    0.1560  -32.0666  -27.9480 C   0  0  0  0  0  0  0  0  0  0  0  0
    1.3411  -31.3257  -28.0547 C   0  0  0  0  0  0  0  0  0  0  0  0
    2.1415  -31.3174  -26.9409 N   0  0  0  0  0  0  0  0  0  0  0  0
    1.8165  -31.9492  -25.7909 C   0  0  0  0  0  0  0  0  0  0  0  0
    2.6530  -31.8974  -24.7262 N   0  0  0  0  0  0  0  0  0  0  0  0
    0.6164  -32.6417  -25.7180 C   0  0  0  0  0  0  0  0  0  0  0  0
   -0.1800  -32.6865  -26.8014 N   0  0  0  0  0  0  0  0  0  0  0  0
    2.4142  -32.3584  -23.8897 H   0  0  0  0  0  0  0  0  0  0  0  0
    3.4996  -31.3989  -24.7891 H   0  0  0  0  0  0  0  0  0  0  0  0
   -4.0080  -32.0532  -30.9167 C   0  0  0  0  0  0  0  0  0  0  0  0
   -0.9114  -32.1730  -28.9603 C   0  0  0  0  0  0  0  0  0  0  0  0
   -3.0070  -32.8829  -32.9672 C   0  0  0  0  0  0  0  0  0  0  0  0
   -2.7672  -32.1343  -30.2819 C   0  0  0  0  0  0  0  0  0  0  0  0
   -1.6920  -32.5825  -31.0027 C   0  0  0  0  0  0  0  0  0  0  0  0
   -4.1197  -32.4232  -32.2629 C   0  0  0  0  0  0  0  0  0  0  0  0
   -2.2668  -31.8514  -28.9555 C   0  0  0  0  0  0  0  0  0  0  0  0
   -1.7654  -32.9706  -32.3357 C   0  0  0  0  0  0  0  0  0  0  0  0
   -5.0796  -31.6193  -30.2313 F   0  0  0  0  0  0  0  0  0  0  0  0
   -0.6232  -32.5890  -30.2397 O   0  0  0  0  0  0  0  0  0  0  0  0
    4.3968  -29.3914  -30.0469 C   0  0  0  0  0  0  0  0  0  0  0  0
    1.5039  -29.2083  -29.3836 C   0  0  0  0  0  0  0  0  0  0  0  0
    2.6682  -31.1927  -30.2730 C   0  0  0  0  0  0  0  0  0  0  0  0
    4.1119  -30.8873  -29.9072 C   0  0  0  0  0  0  0  0  0  0  0  0
    1.8135  -30.6331  -29.2102 N   0  0  0  0  0  0  0  0  0  0  0  0
    3.9995  -28.6276  -28.7800 C   0  0  0  0  0  0  0  0  0  0  0  0
    2.4998  -28.3684  -28.5734 C   0  0  0  0  0  0  0  0  0  0  0  0
    0.1656  -33.4027  -24.5224 C   0  0  0  0  0  0  0  0  0  0  0  0
    0.2498  -32.9054  -23.4127 O   0  0  0  0  0  0  0  0  0  0  0  0
   -0.2234  -34.6707  -24.7606 N   0  0  0  0  0  0  0  0  0  0  0  0
    0.0107  -35.0461  -25.6401 H   0  0  0  0  0  0  0  0  0  0  0  0
   -0.8886  -35.4650  -23.9335 C   0  0  0  0  0  0  0  0  0  0  0  0
   -1.8265  -34.9240  -23.1543 N   0  0  0  0  0  0  0  0  0  0  0  0
   -0.6367  -36.7702  -23.8877 N   0  0  0  0  0  0  0  0  0  0  0  0
   -2.0041  -33.9566  -23.1970 H   0  0  0  0  0  0  0  0  0  0  0  0
   -1.1393  -37.3470  -23.2681 H   0  0  0  0  0  0  0  0  0  0  0  0
    0.0523  -37.1594  -24.4734 H   0  0  0  0  0  0  0  0  0  0  0  0
 18 10  1  0  0  0
 15 10  2  0  0  0
 15 12  1  0  0  0
 10 13  1  0  0  0
 12 17  2  0  0  0
 13 14  2  0  0  0
 13 16  1  0  0  0
 17 14  1  0  0  0
 14 19  1  0  0  0
 16 11  2  0  0  0
 19 11  1  0  0  0
 23 22  1  0  0  0
 23 20  1  0  0  0
 11  1  1  0  0  0
 22 24  1  0  0  0
 20 25  1  0  0  0
  1  7  2  0  0  0
  1  2  1  0  0  0
 32 31  2  0  0  0
 24  2  1  0  0  0
 24 21  1  0  0  0
  7  6  1  0  0  0
 25 26  1  0  0  0
  2  3  2  0  0  0
 29 31  1  0  0  0
 29 27  1  0  0  0
 31 33  1  0  0  0
 21 26  1  0  0  0
  6 27  1  0  0  0
  6  4  2  0  0  0
  3  4  1  0  0  0
 27 28  2  0  0  0
  4  5  1  0  0  0
  5  8  1  0  0  0
  5  9  1  0  0  0
 29 30  1  0  0  0
 32 34  1  0  0  0
 33 35  1  0  0  0
 33 36  1  0  0  0
M  END
> <minimizedAffinity>
-8.19940

$$$$
5ZC5_09I_U_301


 36 39  0  0  0  0  0  0  0  0999 V2000
   -0.6999  -31.5963  -27.3236 C   0  0  0  0  0  0  0  0  0  0  0  0
    0.2250  -30.5645  -27.1120 C   0  0  0  0  0  0  0  0  0  0  0  0
    0.8978  -30.6026  -25.9174 N   0  0  0  0  0  0  0  0  0  0  0  0
    0.6792  -31.5460  -24.9742 C   0  0  0  0  0  0  0  0  0  0  0  0
    1.3778  -31.5225  -23.8134 N   0  0  0  0  0  0  0  0  0  0  0  0
   -0.2714  -32.5285  -25.2110 C   0  0  0  0  0  0  0  0  0  0  0  0
   -0.9323  -32.5306  -26.3829 N   0  0  0  0  0  0  0  0  0  0  0  0
    1.2168  -32.2106  -23.1280 H   0  0  0  0  0  0  0  0  0  0  0  0
    2.0464  -30.8172  -23.6555 H   0  0  0  0  0  0  0  0  0  0  0  0
   -4.3169  -31.5758  -30.9388 C   0  0  0  0  0  0  0  0  0  0  0  0
   -1.6072  -31.7440  -28.4770 C   0  0  0  0  0  0  0  0  0  0  0  0
   -3.1675  -32.8928  -32.6238 C   0  0  0  0  0  0  0  0  0  0  0  0
   -3.2142  -31.7028  -30.0920 C   0  0  0  0  0  0  0  0  0  0  0  0
   -2.1296  -32.4142  -30.5329 C   0  0  0  0  0  0  0  0  0  0  0  0
   -4.2844  -32.1683  -32.2074 C   0  0  0  0  0  0  0  0  0  0  0  0
   -2.8786  -31.2503  -28.7607 C   0  0  0  0  0  0  0  0  0  0  0  0
   -2.0647  -33.0269  -31.7791 C   0  0  0  0  0  0  0  0  0  0  0  0
   -5.3948  -30.8854  -30.5295 F   0  0  0  0  0  0  0  0  0  0  0  0
   -1.2019  -32.4222  -29.6035 O   0  0  0  0  0  0  0  0  0  0  0  0
   -0.0755  -28.8881  -30.8732 C   0  0  0  0  0  0  0  0  0  0  0  0
    1.8619  -29.5580  -28.7192 C   0  0  0  0  0  0  0  0  0  0  0  0
   -0.2934  -28.3950  -28.4251 C   0  0  0  0  0  0  0  0  0  0  0  0
   -1.0358  -28.8077  -29.6859 C   0  0  0  0  0  0  0  0  0  0  0  0
    0.5672  -29.5240  -28.0275 N   0  0  0  0  0  0  0  0  0  0  0  0
    0.6214  -30.2507  -30.9352 C   0  0  0  0  0  0  0  0  0  0  0  0
    1.7646  -30.4861  -29.9370 C   0  0  0  0  0  0  0  0  0  0  0  0
   -0.5763  -33.6366  -24.2672 C   0  0  0  0  0  0  0  0  0  0  0  0
   -0.8912  -33.3907  -23.1156 O   0  0  0  0  0  0  0  0  0  0  0  0
   -0.3756  -34.8775  -24.7528 N   0  0  0  0  0  0  0  0  0  0  0  0
    0.1370  -34.9458  -25.5906 H   0  0  0  0  0  0  0  0  0  0  0  0
   -0.7967  -36.0158  -24.2195 C   0  0  0  0  0  0  0  0  0  0  0  0
   -1.6928  -36.7374  -24.8947 N   0  0  0  0  0  0  0  0  0  0  0  0
   -0.3312  -36.4353  -23.0463 N   0  0  0  0  0  0  0  0  0  0  0  0
   -2.0302  -36.4167  -25.7622 H   0  0  0  0  0  0  0  0  0  0  0  0
   -0.6538  -37.2829  -22.6633 H   0  0  0  0  0  0  0  0  0  0  0  0
    0.3359  -35.8981  -22.5609 H   0  0  0  0  0  0  0  0  0  0  0  0
 18 10  1  0  0  0
 15 10  2  0  0  0
 15 12  1  0  0  0
 10 13  1  0  0  0
 12 17  2  0  0  0
 13 14  2  0  0  0
 13 16  1  0  0  0
 17 14  1  0  0  0
 14 19  1  0  0  0
 16 11  2  0  0  0
 19 11  1  0  0  0
 23 22  1  0  0  0
 23 20  1  0  0  0
 11  1  1  0  0  0
 22 24  1  0  0  0
 20 25  1  0  0  0
  1  7  2  0  0  0
  1  2  1  0  0  0
 32 31  2  0  0  0
 24  2  1  0  0  0
 24 21  1  0  0  0
  7  6  1  0  0  0
 25 26  1  0  0  0
  2  3  2  0  0  0
 29 31  1  0  0  0
 29 27  1  0  0  0
 31 33  1  0  0  0
 21 26  1  0  0  0
  6 27  1  0  0  0
  6  4  2  0  0  0
  3  4  1  0  0  0
 27 28  2  0  0  0
  4  5  1  0  0  0
  5  8  1  0  0  0
  5  9  1  0  0  0
 29 30  1  0  0  0
 32 34  1  0  0  0
 33 35  1  0  0  0
 33 36  1  0  0  0
M  END
> <minimizedAffinity>
-8.17766

$$$$
5ZC5_09I_U_301


 36 39  0  0  0  0  0  0  0  0999 V2000
    1.2729  -30.6288  -25.7027 C   0  0  0  0  0  0  0  0  0  0  0  0
    2.1550  -30.3140  -26.7456 C   0  0  0  0  0  0  0  0  0  0  0  0
    2.4247  -28.9800  -26.9163 N   0  0  0  0  0  0  0  0  0  0  0  0
    1.8647  -28.0088  -26.1609 C   0  0  0  0  0  0  0  0  0  0  0  0
    2.1734  -26.7088  -26.3858 N   0  0  0  0  0  0  0  0  0  0  0  0
    0.9693  -28.3635  -25.1622 C   0  0  0  0  0  0  0  0  0  0  0  0
    0.7012  -29.6657  -24.9560 N   0  0  0  0  0  0  0  0  0  0  0  0
    1.7643  -26.0032  -25.8344 H   0  0  0  0  0  0  0  0  0  0  0  0
    2.8068  -26.4698  -27.1006 H   0  0  0  0  0  0  0  0  0  0  0  0
   -0.2958  -35.0899  -23.7561 C   0  0  0  0  0  0  0  0  0  0  0  0
    0.7555  -31.9665  -25.3593 C   0  0  0  0  0  0  0  0  0  0  0  0
   -1.4343  -35.9705  -25.7115 C   0  0  0  0  0  0  0  0  0  0  0  0
    0.0362  -33.9383  -24.4720 C   0  0  0  0  0  0  0  0  0  0  0  0
   -0.3743  -33.8372  -25.7751 C   0  0  0  0  0  0  0  0  0  0  0  0
   -1.0378  -36.1005  -24.3805 C   0  0  0  0  0  0  0  0  0  0  0  0
    0.7599  -32.7197  -24.1873 C   0  0  0  0  0  0  0  0  0  0  0  0
   -1.1006  -34.8233  -26.4330 C   0  0  0  0  0  0  0  0  0  0  0  0
    0.0970  -35.2153  -22.4770 F   0  0  0  0  0  0  0  0  0  0  0  0
    0.0311  -32.6930  -26.2761 O   0  0  0  0  0  0  0  0  0  0  0  0
    4.9421  -31.0468  -29.7024 C   0  0  0  0  0  0  0  0  0  0  0  0
    2.1769  -31.7050  -28.8289 C   0  0  0  0  0  0  0  0  0  0  0  0
    4.1981  -31.7549  -27.4158 C   0  0  0  0  0  0  0  0  0  0  0  0
    5.1384  -30.8525  -28.1984 C   0  0  0  0  0  0  0  0  0  0  0  0
    2.8303  -31.2369  -27.6001 N   0  0  0  0  0  0  0  0  0  0  0  0
    3.7977  -30.1774  -30.2321 C   0  0  0  0  0  0  0  0  0  0  0  0
    2.3705  -30.6625  -29.9377 C   0  0  0  0  0  0  0  0  0  0  0  0
    0.3161  -27.3911  -24.2459 C   0  0  0  0  0  0  0  0  0  0  0  0
    0.9380  -26.4285  -23.8306 O   0  0  0  0  0  0  0  0  0  0  0  0
   -0.9305  -27.7189  -23.8532 N   0  0  0  0  0  0  0  0  0  0  0  0
   -1.2199  -28.6432  -24.0295 H   0  0  0  0  0  0  0  0  0  0  0  0
   -1.8078  -26.9257  -23.2540 C   0  0  0  0  0  0  0  0  0  0  0  0
   -2.1257  -27.1797  -21.9835 N   0  0  0  0  0  0  0  0  0  0  0  0
   -2.3504  -25.8960  -23.8976 N   0  0  0  0  0  0  0  0  0  0  0  0
   -1.7176  -27.9448  -21.5175 H   0  0  0  0  0  0  0  0  0  0  0  0
   -3.0004  -25.3161  -23.4389 H   0  0  0  0  0  0  0  0  0  0  0  0
   -2.1020  -25.7137  -24.8326 H   0  0  0  0  0  0  0  0  0  0  0  0
 18 10  1  0  0  0
 15 10  2  0  0  0
 15 12  1  0  0  0
 10 13  1  0  0  0
 12 17  2  0  0  0
 13 14  2  0  0  0
 13 16  1  0  0  0
 17 14  1  0  0  0
 14 19  1  0  0  0
 16 11  2  0  0  0
 19 11  1  0  0  0
 23 22  1  0  0  0
 23 20  1  0  0  0
 11  1  1  0  0  0
 22 24  1  0  0  0
 20 25  1  0  0  0
  1  7  2  0  0  0
  1  2  1  0  0  0
 32 31  2  0  0  0
 24  2  1  0  0  0
 24 21  1  0  0  0
  7  6  1  0  0  0
 25 26  1  0  0  0
  2  3  2  0  0  0
 29 31  1  0  0  0
 29 27  1  0  0  0
 31 33  1  0  0  0
 21 26  1  0  0  0
  6 27  1  0  0  0
  6  4  2  0  0  0
  3  4  1  0  0  0
 27 28  2  0  0  0
  4  5  1  0  0  0
  5  8  1  0  0  0
  5  9  1  0  0  0
 29 30  1  0  0  0
 32 34  1  0  0  0
 33 35  1  0  0  0
 33 36  1  0  0  0
M  END
> <minimizedAffinity>
-8.17700

$$$$
