1UPF_URF_D_999


 11 11  0  0  0  0  0  0  0  0999 V2000
   -7.5637   95.5195   93.1288 N   0  0  0  0  0  0  0  0  0  0  0  0
   -7.8401   95.8092   94.4651 C   0  0  0  0  0  0  0  0  0  0  0  0
   -9.0164   95.2623   94.9355 N   0  0  0  0  0  0  0  0  0  0  0  0
   -9.9237   94.5050   94.2412 C   0  0  0  0  0  0  0  0  0  0  0  0
   -9.5664   94.2218   92.8714 C   0  0  0  0  0  0  0  0  0  0  0  0
   -8.4534   94.7629   92.3561 C   0  0  0  0  0  0  0  0  0  0  0  0
   -7.0854   96.4499   95.1893 O   0  0  0  0  0  0  0  0  0  0  0  0
  -10.9003   94.0673   94.8477 O   0  0  0  0  0  0  0  0  0  0  0  0
  -10.4150   93.6114   92.0868 F   0  0  0  0  0  0  0  0  0  0  0  0
   -6.7307   95.8519   92.7228 H   0  0  0  0  0  0  0  0  0  0  0  0
   -9.2289   95.4364   95.8809 H   0  0  0  0  0  0  0  0  0  0  0  0
  1  2  1  0  0  0
  1  6  1  0  0  0
  2  3  1  0  0  0
  2  7  2  0  0  0
  3  4  1  0  0  0
  4  5  1  0  0  0
  4  8  2  0  0  0
  5  6  2  0  0  0
  5  9  1  0  0  0
  1 10  1  0  0  0
  3 11  1  0  0  0
M  END
> <minimizedAffinity>
-4.21169

$$$$
1UPF_URF_D_999


 11 11  0  0  0  0  0  0  0  0999 V2000
   -7.5569   90.6256   91.3167 N   0  0  0  0  0  0  0  0  0  0  0  0
   -7.9615   91.3326   90.1842 C   0  0  0  0  0  0  0  0  0  0  0  0
   -9.1153   90.8556   89.5964 N   0  0  0  0  0  0  0  0  0  0  0  0
   -9.8696   89.7794   89.9858 C   0  0  0  0  0  0  0  0  0  0  0  0
   -9.4103   89.1068   91.1777 C   0  0  0  0  0  0  0  0  0  0  0  0
   -8.2727   89.5077   91.7628 C   0  0  0  0  0  0  0  0  0  0  0  0
   -7.3816   92.3285   89.7645 O   0  0  0  0  0  0  0  0  0  0  0  0
  -10.8972   89.5320   89.3564 O   0  0  0  0  0  0  0  0  0  0  0  0
   -9.9853   87.9994   91.5667 F   0  0  0  0  0  0  0  0  0  0  0  0
   -6.7561   90.9169   91.8097 H   0  0  0  0  0  0  0  0  0  0  0  0
   -9.4341   91.3458   88.8044 H   0  0  0  0  0  0  0  0  0  0  0  0
  1  2  1  0  0  0
  1  6  1  0  0  0
  2  3  1  0  0  0
  2  7  2  0  0  0
  3  4  1  0  0  0
  4  5  1  0  0  0
  4  8  2  0  0  0
  5  6  2  0  0  0
  5  9  1  0  0  0
  1 10  1  0  0  0
  3 11  1  0  0  0
M  END
> <minimizedAffinity>
-4.18082

$$$$
1UPF_URF_D_999


 11 11  0  0  0  0  0  0  0  0999 V2000
   -9.4802   92.6866   91.1628 N   0  0  0  0  0  0  0  0  0  0  0  0
   -8.5032   91.8599   90.6075 C   0  0  0  0  0  0  0  0  0  0  0  0
   -8.9973   90.7304   89.9876 N   0  0  0  0  0  0  0  0  0  0  0  0
  -10.3065   90.3382   89.8829 C   0  0  0  0  0  0  0  0  0  0  0  0
  -11.2681   91.2492   90.4568 C   0  0  0  0  0  0  0  0  0  0  0  0
  -10.8359   92.3404   91.1044 C   0  0  0  0  0  0  0  0  0  0  0  0
   -7.3062   92.1270   90.6146 O   0  0  0  0  0  0  0  0  0  0  0  0
  -10.5571   89.3132   89.2506 O   0  0  0  0  0  0  0  0  0  0  0  0
  -12.5302   90.9151   90.5180 F   0  0  0  0  0  0  0  0  0  0  0  0
   -9.2125   93.5259   91.6023 H   0  0  0  0  0  0  0  0  0  0  0  0
   -8.3313   90.1366   89.5717 H   0  0  0  0  0  0  0  0  0  0  0  0
  1  2  1  0  0  0
  1  6  1  0  0  0
  2  3  1  0  0  0
  2  7  2  0  0  0
  3  4  1  0  0  0
  4  5  1  0  0  0
  4  8  2  0  0  0
  5  6  2  0  0  0
  5  9  1  0  0  0
  1 10  1  0  0  0
  3 11  1  0  0  0
M  END
> <minimizedAffinity>
-4.16861

$$$$
1UPF_URF_D_999


 11 11  0  0  0  0  0  0  0  0999 V2000
  -11.7879   90.8444   90.3393 N   0  0  0  0  0  0  0  0  0  0  0  0
  -10.6209   90.2084   89.9153 C   0  0  0  0  0  0  0  0  0  0  0  0
   -9.4601   90.8981   90.2000 N   0  0  0  0  0  0  0  0  0  0  0  0
   -9.3403   92.1156   90.8181 C   0  0  0  0  0  0  0  0  0  0  0  0
  -10.5828   92.7082   91.2531 C   0  0  0  0  0  0  0  0  0  0  0  0
  -11.7402   92.0961   90.9653 C   0  0  0  0  0  0  0  0  0  0  0  0
  -10.6071   89.1045   89.3809 O   0  0  0  0  0  0  0  0  0  0  0  0
   -8.2095   92.5538   91.0242 O   0  0  0  0  0  0  0  0  0  0  0  0
  -10.5933   93.9193   91.7443 F   0  0  0  0  0  0  0  0  0  0  0  0
  -12.6580   90.4066   90.1964 H   0  0  0  0  0  0  0  0  0  0  0  0
   -8.6193   90.4648   89.9270 H   0  0  0  0  0  0  0  0  0  0  0  0
  1  2  1  0  0  0
  1  6  1  0  0  0
  2  3  1  0  0  0
  2  7  2  0  0  0
  3  4  1  0  0  0
  4  5  1  0  0  0
  4  8  2  0  0  0
  5  6  2  0  0  0
  5  9  1  0  0  0
  1 10  1  0  0  0
  3 11  1  0  0  0
M  END
> <minimizedAffinity>
-4.08730

$$$$
1UPF_URF_D_999


 11 11  0  0  0  0  0  0  0  0999 V2000
  -10.4031   91.8338   92.2537 N   0  0  0  0  0  0  0  0  0  0  0  0
  -11.4121   90.8807   92.1133 C   0  0  0  0  0  0  0  0  0  0  0  0
  -11.2829   90.0732   91.0019 N   0  0  0  0  0  0  0  0  0  0  0  0
  -10.3076   90.1231   90.0400 C   0  0  0  0  0  0  0  0  0  0  0  0
   -9.2813   91.1149   90.2573 C   0  0  0  0  0  0  0  0  0  0  0  0
   -9.3831   91.9497   91.3012 C   0  0  0  0  0  0  0  0  0  0  0  0
  -12.3154   90.7257   92.9284 O   0  0  0  0  0  0  0  0  0  0  0  0
  -10.3362   89.2855   89.1396 O   0  0  0  0  0  0  0  0  0  0  0  0
   -8.3728   91.3275   89.3420 F   0  0  0  0  0  0  0  0  0  0  0  0
  -10.4082   92.4339   93.0341 H   0  0  0  0  0  0  0  0  0  0  0  0
  -11.9721   89.3798   90.8861 H   0  0  0  0  0  0  0  0  0  0  0  0
  1  2  1  0  0  0
  1  6  1  0  0  0
  2  3  1  0  0  0
  2  7  2  0  0  0
  3  4  1  0  0  0
  4  5  1  0  0  0
  4  8  2  0  0  0
  5  6  2  0  0  0
  5  9  1  0  0  0
  1 10  1  0  0  0
  3 11  1  0  0  0
M  END
> <minimizedAffinity>
-4.04423

$$$$
1UPF_URF_D_999


 11 11  0  0  0  0  0  0  0  0999 V2000
   -8.6524   89.8274   90.9147 N   0  0  0  0  0  0  0  0  0  0  0  0
   -9.5999   88.8293   90.6865 C   0  0  0  0  0  0  0  0  0  0  0  0
  -10.8737   89.2985   90.4387 N   0  0  0  0  0  0  0  0  0  0  0  0
  -11.2955   90.6024   90.4154 C   0  0  0  0  0  0  0  0  0  0  0  0
  -10.2619   91.5860   90.6351 C   0  0  0  0  0  0  0  0  0  0  0  0
   -9.0163   91.1797   90.9190 C   0  0  0  0  0  0  0  0  0  0  0  0
   -9.3292   87.6335   90.6528 O   0  0  0  0  0  0  0  0  0  0  0  0
  -12.4710   90.8279   90.1317 O   0  0  0  0  0  0  0  0  0  0  0  0
  -10.5753   92.8494   90.7524 F   0  0  0  0  0  0  0  0  0  0  0  0
   -7.7138   89.5774   91.0752 H   0  0  0  0  0  0  0  0  0  0  0  0
  -11.5602   88.6165   90.2573 H   0  0  0  0  0  0  0  0  0  0  0  0
  1  2  1  0  0  0
  1  6  1  0  0  0
  2  3  1  0  0  0
  2  7  2  0  0  0
  3  4  1  0  0  0
  4  5  1  0  0  0
  4  8  2  0  0  0
  5  6  2  0  0  0
  5  9  1  0  0  0
  1 10  1  0  0  0
  3 11  1  0  0  0
M  END
> <minimizedAffinity>
-3.99216

$$$$
1UPF_URF_D_999


 11 11  0  0  0  0  0  0  0  0999 V2000
   -9.6099   93.1934   91.6181 N   0  0  0  0  0  0  0  0  0  0  0  0
   -9.7221   94.5787   91.7388 C   0  0  0  0  0  0  0  0  0  0  0  0
  -10.9590   95.0828   91.3921 N   0  0  0  0  0  0  0  0  0  0  0  0
  -12.0481   94.3872   90.9352 C   0  0  0  0  0  0  0  0  0  0  0  0
  -11.8737   92.9563   90.8564 C   0  0  0  0  0  0  0  0  0  0  0  0
  -10.6786   92.4220   91.1448 C   0  0  0  0  0  0  0  0  0  0  0  0
   -8.8238   95.2962   92.1661 O   0  0  0  0  0  0  0  0  0  0  0  0
  -13.0859   95.0105   90.7170 O   0  0  0  0  0  0  0  0  0  0  0  0
  -12.8057   92.2122   90.3216 F   0  0  0  0  0  0  0  0  0  0  0  0
   -8.7669   92.7515   91.8694 H   0  0  0  0  0  0  0  0  0  0  0  0
  -11.0724   96.0565   91.4835 H   0  0  0  0  0  0  0  0  0  0  0  0
  1  2  1  0  0  0
  1  6  1  0  0  0
  2  3  1  0  0  0
  2  7  2  0  0  0
  3  4  1  0  0  0
  4  5  1  0  0  0
  4  8  2  0  0  0
  5  6  2  0  0  0
  5  9  1  0  0  0
  1 10  1  0  0  0
  3 11  1  0  0  0
M  END
> <minimizedAffinity>
-3.94905

$$$$
1UPF_URF_D_999


 11 11  0  0  0  0  0  0  0  0999 V2000
   -8.8261   89.2533   92.8353 N   0  0  0  0  0  0  0  0  0  0  0  0
   -9.9359   88.4386   92.6099 C   0  0  0  0  0  0  0  0  0  0  0  0
  -10.5095   88.5886   91.3639 N   0  0  0  0  0  0  0  0  0  0  0  0
  -10.1264   89.4440   90.3637 C   0  0  0  0  0  0  0  0  0  0  0  0
   -8.9577   90.2410   90.6517 C   0  0  0  0  0  0  0  0  0  0  0  0
   -8.3879   90.1602   91.8625 C   0  0  0  0  0  0  0  0  0  0  0  0
  -10.3474   87.6152   93.4205 O   0  0  0  0  0  0  0  0  0  0  0  0
  -10.7396   89.4037   89.2981 O   0  0  0  0  0  0  0  0  0  0  0  0
   -8.5792   91.1726   89.8168 F   0  0  0  0  0  0  0  0  0  0  0  0
   -8.3437   89.1896   93.6912 H   0  0  0  0  0  0  0  0  0  0  0  0
  -11.2850   88.0137   91.1705 H   0  0  0  0  0  0  0  0  0  0  0  0
  1  2  1  0  0  0
  1  6  1  0  0  0
  2  3  1  0  0  0
  2  7  2  0  0  0
  3  4  1  0  0  0
  4  5  1  0  0  0
  4  8  2  0  0  0
  5  6  2  0  0  0
  5  9  1  0  0  0
  1 10  1  0  0  0
  3 11  1  0  0  0
M  END
> <minimizedAffinity>
-3.93455

$$$$
1UPF_URF_D_999


 11 11  0  0  0  0  0  0  0  0999 V2000
  -12.2965   93.0219   90.7447 N   0  0  0  0  0  0  0  0  0  0  0  0
  -12.3757   94.4146   90.7425 C   0  0  0  0  0  0  0  0  0  0  0  0
  -11.2337   95.0512   91.1839 N   0  0  0  0  0  0  0  0  0  0  0  0
  -10.0734   94.4741   91.6304 C   0  0  0  0  0  0  0  0  0  0  0  0
  -10.0480   93.0314   91.5844 C   0  0  0  0  0  0  0  0  0  0  0  0
  -11.1464   92.3657   91.2005 C   0  0  0  0  0  0  0  0  0  0  0  0
  -13.3512   95.0369   90.3357 O   0  0  0  0  0  0  0  0  0  0  0  0
   -9.1409   95.2123   91.9447 O   0  0  0  0  0  0  0  0  0  0  0  0
   -9.0389   92.3782   92.0976 F   0  0  0  0  0  0  0  0  0  0  0  0
  -13.0606   92.4923   90.4209 H   0  0  0  0  0  0  0  0  0  0  0  0
  -11.2549   96.0355   91.1774 H   0  0  0  0  0  0  0  0  0  0  0  0
  1  2  1  0  0  0
  1  6  1  0  0  0
  2  3  1  0  0  0
  2  7  2  0  0  0
  3  4  1  0  0  0
  4  5  1  0  0  0
  4  8  2  0  0  0
  5  6  2  0  0  0
  5  9  1  0  0  0
  1 10  1  0  0  0
  3 11  1  0  0  0
M  END
> <minimizedAffinity>
-3.93113

$$$$
1UPF_URF_D_999


 11 11  0  0  0  0  0  0  0  0999 V2000
   -9.1721   90.4920   90.4000 N   0  0  0  0  0  0  0  0  0  0  0  0
  -10.4455   90.1030   89.9838 C   0  0  0  0  0  0  0  0  0  0  0  0
  -11.4390   91.0219   90.2536 N   0  0  0  0  0  0  0  0  0  0  0  0
  -11.3113   92.2304   90.8875 C   0  0  0  0  0  0  0  0  0  0  0  0
   -9.9650   92.5835   91.2708 C   0  0  0  0  0  0  0  0  0  0  0  0
   -8.9712   91.7074   91.0659 C   0  0  0  0  0  0  0  0  0  0  0  0
  -10.6713   89.0594   89.3802 O   0  0  0  0  0  0  0  0  0  0  0  0
  -12.3124   92.9365   90.9993 O   0  0  0  0  0  0  0  0  0  0  0  0
   -9.7483   93.6557   91.9861 F   0  0  0  0  0  0  0  0  0  0  0  0
   -8.4032   89.9033   90.2229 H   0  0  0  0  0  0  0  0  0  0  0  0
  -12.3459   90.7812   89.9557 H   0  0  0  0  0  0  0  0  0  0  0  0
  1  2  1  0  0  0
  1  6  1  0  0  0
  2  3  1  0  0  0
  2  7  2  0  0  0
  3  4  1  0  0  0
  4  5  1  0  0  0
  4  8  2  0  0  0
  5  6  2  0  0  0
  5  9  1  0  0  0
  1 10  1  0  0  0
  3 11  1  0  0  0
M  END
> <minimizedAffinity>
-3.92691

$$$$
