4Q4Q_SAQ_A_406


 24 27  0  0  0  0  0  0  0  0999 V2000
  -16.9242   17.8314  -23.9078 N   0  0  0  0  0  0  0  0  0  0  0  0
  -15.4416   17.4270  -22.1087 N   0  0  0  0  0  0  0  0  0  0  0  0
  -16.4930   17.6780  -21.2290 C   0  0  0  0  0  0  0  0  0  0  0  0
  -17.7832   18.0035  -21.6836 C   0  0  0  0  0  0  0  0  0  0  0  0
  -18.0204   18.0981  -23.1285 C   0  0  0  0  0  0  0  0  0  0  0  0
  -18.7960   18.2576  -20.7644 C   0  0  0  0  0  0  0  0  0  0  0  0
  -18.5258   18.2263  -19.4103 C   0  0  0  0  0  0  0  0  0  0  0  0
  -16.2283   17.6322  -19.8533 C   0  0  0  0  0  0  0  0  0  0  0  0
  -19.2745   18.5153  -18.2859 N   0  0  0  0  0  0  0  0  0  0  0  0
  -18.4416   18.4053  -17.2264 C   0  0  0  0  0  0  0  0  0  0  0  0
  -15.6916   17.5079  -23.4132 C   0  0  0  0  0  0  0  0  0  0  0  0
  -17.2466   17.9253  -18.9417 C   0  0  0  0  0  0  0  0  0  0  0  0
  -17.2149   18.0445  -17.5504 N   0  0  0  0  0  0  0  0  0  0  0  0
  -19.0947   18.4218  -23.6274 O   0  0  0  0  0  0  0  0  0  0  0  0
  -17.0317   17.8756  -24.8854 H   0  0  0  0  0  0  0  0  0  0  0  0
  -20.2291   18.7548  -18.2609 H   0  0  0  0  0  0  0  0  0  0  0  0
  -18.8864   18.6616  -15.9918 N   0  0  0  0  0  0  0  0  0  0  0  0
  -19.6350   18.1325  -15.6328 H   0  0  0  0  0  0  0  0  0  0  0  0
  -18.2976   19.6943  -15.1702 C   0  0  0  0  0  0  0  0  0  0  0  0
  -17.6191   19.0565  -14.0054 C   0  0  0  0  0  0  0  0  0  0  0  0
  -18.0885   19.4128  -12.4023 S   0  0  0  0  0  0  0  0  0  0  0  0
  -16.8944   18.3853  -11.7563 C   0  0  0  0  0  0  0  0  0  0  0  0
  -16.1613   17.7875  -12.7143 C   0  0  0  0  0  0  0  0  0  0  0  0
  -16.5700   18.1668  -14.0258 C   0  0  0  0  0  0  0  0  0  0  0  0
  1  5  1  0  0  0
  1 11  1  0  0  0
  2  3  1  0  0  0
  2 11  2  0  0  0
  3  4  2  0  0  0
  3  8  1  0  0  0
  4  5  1  0  0  0
  4  6  1  0  0  0
  5 14  2  0  0  0
  6  7  2  0  0  0
  7  9  1  0  0  0
  7 12  1  0  0  0
  8 12  2  0  0  0
  9 10  1  0  0  0
 10 13  2  0  0  0
 10 17  1  0  0  0
 12 13  1  0  0  0
 17 19  1  0  0  0
 19 20  1  0  0  0
 24 20  2  0  0  0
 21 20  1  0  0  0
 21 22  1  0  0  0
 22 23  2  0  0  0
 23 24  1  0  0  0
  1 15  1  0  0  0
  9 16  1  0  0  0
 17 18  1  0  0  0
M  END
> <minimizedAffinity>
-8.72679

$$$$
4Q4Q_SAQ_A_406


 24 27  0  0  0  0  0  0  0  0999 V2000
  -14.9240   17.5293  -23.9977 N   0  0  0  0  0  0  0  0  0  0  0  0
  -16.4013   17.7617  -22.1643 N   0  0  0  0  0  0  0  0  0  0  0  0
  -15.3656   17.3628  -21.3214 C   0  0  0  0  0  0  0  0  0  0  0  0
  -14.0858   17.0476  -21.8113 C   0  0  0  0  0  0  0  0  0  0  0  0
  -13.8435   17.1255  -23.2564 C   0  0  0  0  0  0  0  0  0  0  0  0
  -13.0890   16.6421  -20.9298 C   0  0  0  0  0  0  0  0  0  0  0  0
  -13.3662   16.5141  -19.5828 C   0  0  0  0  0  0  0  0  0  0  0  0
  -15.6369   17.2462  -19.9512 C   0  0  0  0  0  0  0  0  0  0  0  0
  -12.6359   16.0584  -18.5024 N   0  0  0  0  0  0  0  0  0  0  0  0
  -13.4705   16.0667  -17.4387 C   0  0  0  0  0  0  0  0  0  0  0  0
  -16.1466   17.8351  -23.4683 C   0  0  0  0  0  0  0  0  0  0  0  0
  -14.6360   16.8028  -19.0820 C   0  0  0  0  0  0  0  0  0  0  0  0
  -14.6807   16.5117  -17.7166 N   0  0  0  0  0  0  0  0  0  0  0  0
  -12.7790   16.8260  -23.7904 O   0  0  0  0  0  0  0  0  0  0  0  0
  -14.8122   17.6036  -24.9730 H   0  0  0  0  0  0  0  0  0  0  0  0
  -11.6912   15.7814  -18.5063 H   0  0  0  0  0  0  0  0  0  0  0  0
  -13.0433   15.6413  -16.2452 N   0  0  0  0  0  0  0  0  0  0  0  0
  -13.0584   14.6771  -16.0468 H   0  0  0  0  0  0  0  0  0  0  0  0
  -12.5602   16.5587  -15.2388 C   0  0  0  0  0  0  0  0  0  0  0  0
  -13.7141   17.0261  -14.4177 C   0  0  0  0  0  0  0  0  0  0  0  0
  -13.8437   18.6539  -13.9169 S   0  0  0  0  0  0  0  0  0  0  0  0
  -15.2925   18.3470  -13.0768 C   0  0  0  0  0  0  0  0  0  0  0  0
  -15.6736   17.0589  -13.1679 C   0  0  0  0  0  0  0  0  0  0  0  0
  -14.7674   16.2790  -13.9435 C   0  0  0  0  0  0  0  0  0  0  0  0
  1  5  1  0  0  0
  1 11  1  0  0  0
  2  3  1  0  0  0
  2 11  2  0  0  0
  3  4  2  0  0  0
  3  8  1  0  0  0
  4  5  1  0  0  0
  4  6  1  0  0  0
  5 14  2  0  0  0
  6  7  2  0  0  0
  7  9  1  0  0  0
  7 12  1  0  0  0
  8 12  2  0  0  0
  9 10  1  0  0  0
 10 13  2  0  0  0
 10 17  1  0  0  0
 12 13  1  0  0  0
 17 19  1  0  0  0
 19 20  1  0  0  0
 24 20  2  0  0  0
 21 20  1  0  0  0
 21 22  1  0  0  0
 22 23  2  0  0  0
 23 24  1  0  0  0
  1 15  1  0  0  0
  9 16  1  0  0  0
 17 18  1  0  0  0
M  END
> <minimizedAffinity>
-8.40170

$$$$
4Q4Q_SAQ_A_406


 24 27  0  0  0  0  0  0  0  0999 V2000
  -17.1201   18.0634  -23.7911 N   0  0  0  0  0  0  0  0  0  0  0  0
  -18.4786   18.2626  -21.8642 N   0  0  0  0  0  0  0  0  0  0  0  0
  -17.3788   17.8950  -21.0911 C   0  0  0  0  0  0  0  0  0  0  0  0
  -16.1262   17.6127  -21.6642 C   0  0  0  0  0  0  0  0  0  0  0  0
  -15.9822   17.6918  -23.1223 C   0  0  0  0  0  0  0  0  0  0  0  0
  -15.0624   17.2376  -20.8499 C   0  0  0  0  0  0  0  0  0  0  0  0
  -15.2462   17.1072  -19.4873 C   0  0  0  0  0  0  0  0  0  0  0  0
  -17.5555   17.7762  -19.7057 C   0  0  0  0  0  0  0  0  0  0  0  0
  -14.4338   16.6755  -18.4568 N   0  0  0  0  0  0  0  0  0  0  0  0
  -15.1960   16.6652  -17.3401 C   0  0  0  0  0  0  0  0  0  0  0  0
  -18.3128   18.3379  -23.1824 C   0  0  0  0  0  0  0  0  0  0  0  0
  -16.4874   17.3633  -18.9040 C   0  0  0  0  0  0  0  0  0  0  0  0
  -16.4337   17.0762  -17.5380 N   0  0  0  0  0  0  0  0  0  0  0  0
  -14.9477   17.4192  -23.7251 O   0  0  0  0  0  0  0  0  0  0  0  0
  -17.0752   18.1370  -24.7718 H   0  0  0  0  0  0  0  0  0  0  0  0
  -13.4842   16.4242  -18.5228 H   0  0  0  0  0  0  0  0  0  0  0  0
  -14.6793   16.2559  -16.1767 N   0  0  0  0  0  0  0  0  0  0  0  0
  -15.2255   15.6931  -15.5816 H   0  0  0  0  0  0  0  0  0  0  0  0
  -13.3408   16.6175  -15.7697 C   0  0  0  0  0  0  0  0  0  0  0  0
  -13.3544   18.0167  -15.2540 C   0  0  0  0  0  0  0  0  0  0  0  0
  -14.1009   18.4063  -13.7680 S   0  0  0  0  0  0  0  0  0  0  0  0
  -13.7251   20.0581  -13.9389 C   0  0  0  0  0  0  0  0  0  0  0  0
  -13.0562   20.3152  -15.0788 C   0  0  0  0  0  0  0  0  0  0  0  0
  -12.8330   19.1399  -15.8532 C   0  0  0  0  0  0  0  0  0  0  0  0
  1  5  1  0  0  0
  1 11  1  0  0  0
  2  3  1  0  0  0
  2 11  2  0  0  0
  3  4  2  0  0  0
  3  8  1  0  0  0
  4  5  1  0  0  0
  4  6  1  0  0  0
  5 14  2  0  0  0
  6  7  2  0  0  0
  7  9  1  0  0  0
  7 12  1  0  0  0
  8 12  2  0  0  0
  9 10  1  0  0  0
 10 13  2  0  0  0
 10 17  1  0  0  0
 12 13  1  0  0  0
 17 19  1  0  0  0
 19 20  1  0  0  0
 24 20  2  0  0  0
 21 20  1  0  0  0
 21 22  1  0  0  0
 22 23  2  0  0  0
 23 24  1  0  0  0
  1 15  1  0  0  0
  9 16  1  0  0  0
 17 18  1  0  0  0
M  END
> <minimizedAffinity>
-8.12374

$$$$
4Q4Q_SAQ_A_406


 24 27  0  0  0  0  0  0  0  0999 V2000
  -17.5977   18.3298  -22.3874 N   0  0  0  0  0  0  0  0  0  0  0  0
  -15.3318   17.7245  -22.6995 N   0  0  0  0  0  0  0  0  0  0  0  0
  -15.3022   17.2824  -21.3781 C   0  0  0  0  0  0  0  0  0  0  0  0
  -16.4314   17.3532  -20.5433 C   0  0  0  0  0  0  0  0  0  0  0  0
  -17.6712   17.9271  -21.0788 C   0  0  0  0  0  0  0  0  0  0  0  0
  -16.3468   16.9101  -19.2273 C   0  0  0  0  0  0  0  0  0  0  0  0
  -15.1476   16.4367  -18.7320 C   0  0  0  0  0  0  0  0  0  0  0  0
  -14.0918   16.7863  -20.8747 C   0  0  0  0  0  0  0  0  0  0  0  0
  -14.7342   16.0237  -17.4803 N   0  0  0  0  0  0  0  0  0  0  0  0
  -13.4101   15.7666  -17.5742 C   0  0  0  0  0  0  0  0  0  0  0  0
  -16.4744   18.2279  -23.1596 C   0  0  0  0  0  0  0  0  0  0  0  0
  -14.0117   16.3784  -19.5401 C   0  0  0  0  0  0  0  0  0  0  0  0
  -12.9181   15.9494  -18.7844 N   0  0  0  0  0  0  0  0  0  0  0  0
  -18.6969   18.0788  -20.4208 O   0  0  0  0  0  0  0  0  0  0  0  0
  -18.4051   18.7169  -22.7967 H   0  0  0  0  0  0  0  0  0  0  0  0
  -15.2949   15.9341  -16.6760 H   0  0  0  0  0  0  0  0  0  0  0  0
  -12.7230   15.3740  -16.4964 N   0  0  0  0  0  0  0  0  0  0  0  0
  -12.5431   14.4149  -16.3662 H   0  0  0  0  0  0  0  0  0  0  0  0
  -12.2375   16.3197  -15.5177 C   0  0  0  0  0  0  0  0  0  0  0  0
  -13.3974   16.8605  -14.7520 C   0  0  0  0  0  0  0  0  0  0  0  0
  -13.7117   18.5381  -14.6869 S   0  0  0  0  0  0  0  0  0  0  0  0
  -15.0615   18.3108  -13.6743 C   0  0  0  0  0  0  0  0  0  0  0  0
  -15.2754   17.0121  -13.3908 C   0  0  0  0  0  0  0  0  0  0  0  0
  -14.3175   16.1573  -14.0095 C   0  0  0  0  0  0  0  0  0  0  0  0
  1  5  1  0  0  0
  1 11  1  0  0  0
  2  3  1  0  0  0
  2 11  2  0  0  0
  3  4  2  0  0  0
  3  8  1  0  0  0
  4  5  1  0  0  0
  4  6  1  0  0  0
  5 14  2  0  0  0
  6  7  2  0  0  0
  7  9  1  0  0  0
  7 12  1  0  0  0
  8 12  2  0  0  0
  9 10  1  0  0  0
 10 13  2  0  0  0
 10 17  1  0  0  0
 12 13  1  0  0  0
 17 19  1  0  0  0
 19 20  1  0  0  0
 24 20  2  0  0  0
 21 20  1  0  0  0
 21 22  1  0  0  0
 22 23  2  0  0  0
 23 24  1  0  0  0
  1 15  1  0  0  0
  9 16  1  0  0  0
 17 18  1  0  0  0
M  END
> <minimizedAffinity>
-7.90812

$$$$
4Q4Q_SAQ_A_406


 24 27  0  0  0  0  0  0  0  0999 V2000
  -18.6832   18.2357  -22.6405 N   0  0  0  0  0  0  0  0  0  0  0  0
  -16.3838   17.6791  -22.6114 N   0  0  0  0  0  0  0  0  0  0  0  0
  -16.4485   17.6239  -21.2204 C   0  0  0  0  0  0  0  0  0  0  0  0
  -17.6428   17.8688  -20.5198 C   0  0  0  0  0  0  0  0  0  0  0  0
  -18.8507   18.2097  -21.2799 C   0  0  0  0  0  0  0  0  0  0  0  0
  -17.6523   17.8138  -19.1298 C   0  0  0  0  0  0  0  0  0  0  0  0
  -16.4842   17.5560  -18.4392 C   0  0  0  0  0  0  0  0  0  0  0  0
  -15.2693   17.3472  -20.5149 C   0  0  0  0  0  0  0  0  0  0  0  0
  -16.1618   17.5282  -17.0963 N   0  0  0  0  0  0  0  0  0  0  0  0
  -14.8279   17.3201  -17.0217 C   0  0  0  0  0  0  0  0  0  0  0  0
  -17.4990   17.9782  -23.2729 C   0  0  0  0  0  0  0  0  0  0  0  0
  -15.2858   17.3310  -19.1172 C   0  0  0  0  0  0  0  0  0  0  0  0
  -14.2452   17.1831  -18.1972 N   0  0  0  0  0  0  0  0  0  0  0  0
  -19.9298   18.4880  -20.7641 O   0  0  0  0  0  0  0  0  0  0  0  0
  -19.4654   18.4537  -23.1973 H   0  0  0  0  0  0  0  0  0  0  0  0
  -16.7827   17.6384  -16.3402 H   0  0  0  0  0  0  0  0  0  0  0  0
  -14.2193   17.2768  -15.8320 N   0  0  0  0  0  0  0  0  0  0  0  0
  -14.6814   16.8538  -15.0726 H   0  0  0  0  0  0  0  0  0  0  0  0
  -12.9014   17.8344  -15.6309 C   0  0  0  0  0  0  0  0  0  0  0  0
  -13.0332   19.1460  -14.9338 C   0  0  0  0  0  0  0  0  0  0  0  0
  -13.6398   19.2456  -13.3402 S   0  0  0  0  0  0  0  0  0  0  0  0
  -13.5034   20.9427  -13.3259 C   0  0  0  0  0  0  0  0  0  0  0  0
  -13.0148   21.4263  -14.4836 C   0  0  0  0  0  0  0  0  0  0  0  0
  -12.7366   20.3954  -15.4274 C   0  0  0  0  0  0  0  0  0  0  0  0
  1  5  1  0  0  0
  1 11  1  0  0  0
  2  3  1  0  0  0
  2 11  2  0  0  0
  3  4  2  0  0  0
  3  8  1  0  0  0
  4  5  1  0  0  0
  4  6  1  0  0  0
  5 14  2  0  0  0
  6  7  2  0  0  0
  7  9  1  0  0  0
  7 12  1  0  0  0
  8 12  2  0  0  0
  9 10  1  0  0  0
 10 13  2  0  0  0
 10 17  1  0  0  0
 12 13  1  0  0  0
 17 19  1  0  0  0
 19 20  1  0  0  0
 24 20  2  0  0  0
 21 20  1  0  0  0
 21 22  1  0  0  0
 22 23  2  0  0  0
 23 24  1  0  0  0
  1 15  1  0  0  0
  9 16  1  0  0  0
 17 18  1  0  0  0
M  END
> <minimizedAffinity>
-7.65280

$$$$
4Q4Q_SAQ_A_406


 24 27  0  0  0  0  0  0  0  0999 V2000
  -17.6837   17.9366  -23.7616 N   0  0  0  0  0  0  0  0  0  0  0  0
  -18.9996   18.3341  -21.8359 N   0  0  0  0  0  0  0  0  0  0  0  0
  -17.8805   18.0542  -21.0538 C   0  0  0  0  0  0  0  0  0  0  0  0
  -16.6395   17.7171  -21.6224 C   0  0  0  0  0  0  0  0  0  0  0  0
  -16.5289   17.6418  -23.0836 C   0  0  0  0  0  0  0  0  0  0  0  0
  -15.5555   17.4340  -20.7978 C   0  0  0  0  0  0  0  0  0  0  0  0
  -15.7078   17.4480  -19.4251 C   0  0  0  0  0  0  0  0  0  0  0  0
  -18.0252   18.0822  -19.6599 C   0  0  0  0  0  0  0  0  0  0  0  0
  -14.8699   17.1306  -18.3737 N   0  0  0  0  0  0  0  0  0  0  0  0
  -15.6067   17.2359  -17.2449 C   0  0  0  0  0  0  0  0  0  0  0  0
  -18.8640   18.2701  -23.1581 C   0  0  0  0  0  0  0  0  0  0  0  0
  -16.9370   17.7601  -18.8437 C   0  0  0  0  0  0  0  0  0  0  0  0
  -16.8509   17.6195  -17.4567 N   0  0  0  0  0  0  0  0  0  0  0  0
  -15.5067   17.3105  -23.6779 O   0  0  0  0  0  0  0  0  0  0  0  0
  -17.6613   17.9062  -24.7454 H   0  0  0  0  0  0  0  0  0  0  0  0
  -13.9206   16.8769  -18.4346 H   0  0  0  0  0  0  0  0  0  0  0  0
  -15.0615   16.9539  -16.0570 N   0  0  0  0  0  0  0  0  0  0  0  0
  -15.5886   16.4499  -15.3956 H   0  0  0  0  0  0  0  0  0  0  0  0
  -13.7196   17.3690  -15.7180 C   0  0  0  0  0  0  0  0  0  0  0  0
  -13.7853   18.3382  -14.5866 C   0  0  0  0  0  0  0  0  0  0  0  0
  -12.3818   19.1207  -14.0074 S   0  0  0  0  0  0  0  0  0  0  0  0
  -13.2603   19.9448  -12.8040 C   0  0  0  0  0  0  0  0  0  0  0  0
  -14.5725   19.6449  -12.8328 C   0  0  0  0  0  0  0  0  0  0  0  0
  -14.8932   18.7134  -13.8626 C   0  0  0  0  0  0  0  0  0  0  0  0
  1  5  1  0  0  0
  1 11  1  0  0  0
  2  3  1  0  0  0
  2 11  2  0  0  0
  3  4  2  0  0  0
  3  8  1  0  0  0
  4  5  1  0  0  0
  4  6  1  0  0  0
  5 14  2  0  0  0
  6  7  2  0  0  0
  7  9  1  0  0  0
  7 12  1  0  0  0
  8 12  2  0  0  0
  9 10  1  0  0  0
 10 13  2  0  0  0
 10 17  1  0  0  0
 12 13  1  0  0  0
 17 19  1  0  0  0
 19 20  1  0  0  0
 24 20  2  0  0  0
 21 20  1  0  0  0
 21 22  1  0  0  0
 22 23  2  0  0  0
 23 24  1  0  0  0
  1 15  1  0  0  0
  9 16  1  0  0  0
 17 18  1  0  0  0
M  END
> <minimizedAffinity>
-7.60619

$$$$
4Q4Q_SAQ_A_406


 24 27  0  0  0  0  0  0  0  0999 V2000
  -15.2565   17.8168  -23.8594 N   0  0  0  0  0  0  0  0  0  0  0  0
  -13.3864   16.8937  -22.7418 N   0  0  0  0  0  0  0  0  0  0  0  0
  -14.1249   16.9127  -21.5600 C   0  0  0  0  0  0  0  0  0  0  0  0
  -15.4501   17.3807  -21.5169 C   0  0  0  0  0  0  0  0  0  0  0  0
  -16.0637   17.8798  -22.7528 C   0  0  0  0  0  0  0  0  0  0  0  0
  -16.1405   17.3908  -20.3093 C   0  0  0  0  0  0  0  0  0  0  0  0
  -15.5138   16.9770  -19.1501 C   0  0  0  0  0  0  0  0  0  0  0  0
  -13.4989   16.4790  -20.3832 C   0  0  0  0  0  0  0  0  0  0  0  0
  -15.8918   16.9574  -17.8216 N   0  0  0  0  0  0  0  0  0  0  0  0
  -14.8159   16.5377  -17.1183 C   0  0  0  0  0  0  0  0  0  0  0  0
  -13.9751   17.3409  -23.8483 C   0  0  0  0  0  0  0  0  0  0  0  0
  -14.1927   16.5288  -19.1707 C   0  0  0  0  0  0  0  0  0  0  0  0
  -13.7685   16.2544  -17.8684 N   0  0  0  0  0  0  0  0  0  0  0  0
  -17.1949   18.3537  -22.8141 O   0  0  0  0  0  0  0  0  0  0  0  0
  -15.6230   18.1343  -24.7162 H   0  0  0  0  0  0  0  0  0  0  0  0
  -16.7733   17.2016  -17.4576 H   0  0  0  0  0  0  0  0  0  0  0  0
  -14.8763   16.4493  -15.7855 N   0  0  0  0  0  0  0  0  0  0  0  0
  -15.1790   15.6074  -15.3745 H   0  0  0  0  0  0  0  0  0  0  0  0
  -14.5092   17.5562  -14.9322 C   0  0  0  0  0  0  0  0  0  0  0  0
  -15.7178   18.0136  -14.1879 C   0  0  0  0  0  0  0  0  0  0  0  0
  -16.8064   19.1384  -14.8712 S   0  0  0  0  0  0  0  0  0  0  0  0
  -17.7837   19.1365  -13.4770 C   0  0  0  0  0  0  0  0  0  0  0  0
  -17.3104   18.3142  -12.5217 C   0  0  0  0  0  0  0  0  0  0  0  0
  -16.1113   17.6546  -12.9195 C   0  0  0  0  0  0  0  0  0  0  0  0
  1  5  1  0  0  0
  1 11  1  0  0  0
  2  3  1  0  0  0
  2 11  2  0  0  0
  3  4  2  0  0  0
  3  8  1  0  0  0
  4  5  1  0  0  0
  4  6  1  0  0  0
  5 14  2  0  0  0
  6  7  2  0  0  0
  7  9  1  0  0  0
  7 12  1  0  0  0
  8 12  2  0  0  0
  9 10  1  0  0  0
 10 13  2  0  0  0
 10 17  1  0  0  0
 12 13  1  0  0  0
 17 19  1  0  0  0
 19 20  1  0  0  0
 24 20  2  0  0  0
 21 20  1  0  0  0
 21 22  1  0  0  0
 22 23  2  0  0  0
 23 24  1  0  0  0
  1 15  1  0  0  0
  9 16  1  0  0  0
 17 18  1  0  0  0
M  END
> <minimizedAffinity>
-7.59814

$$$$
4Q4Q_SAQ_A_406


 24 27  0  0  0  0  0  0  0  0999 V2000
  -14.7359   16.9682  -20.4928 N   0  0  0  0  0  0  0  0  0  0  0  0
  -13.9475   17.0881  -18.2652 N   0  0  0  0  0  0  0  0  0  0  0  0
  -15.2236   17.4849  -17.8698 C   0  0  0  0  0  0  0  0  0  0  0  0
  -16.2795   17.6214  -18.7883 C   0  0  0  0  0  0  0  0  0  0  0  0
  -16.0204   17.3539  -20.2075 C   0  0  0  0  0  0  0  0  0  0  0  0
  -17.5323   18.0328  -18.3449 C   0  0  0  0  0  0  0  0  0  0  0  0
  -17.7282   18.3416  -17.0130 C   0  0  0  0  0  0  0  0  0  0  0  0
  -15.4323   17.7846  -16.5165 C   0  0  0  0  0  0  0  0  0  0  0  0
  -18.7991   18.8504  -16.3041 N   0  0  0  0  0  0  0  0  0  0  0  0
  -18.3691   19.0430  -15.0368 C   0  0  0  0  0  0  0  0  0  0  0  0
  -13.7475   16.8403  -19.5572 C   0  0  0  0  0  0  0  0  0  0  0  0
  -16.6867   18.2317  -16.0913 C   0  0  0  0  0  0  0  0  0  0  0  0
  -17.1154   18.6824  -14.8407 N   0  0  0  0  0  0  0  0  0  0  0  0
  -16.8581   17.4896  -21.0951 O   0  0  0  0  0  0  0  0  0  0  0  0
  -14.5113   16.7710  -21.4308 H   0  0  0  0  0  0  0  0  0  0  0  0
  -19.7004   19.0366  -16.6538 H   0  0  0  0  0  0  0  0  0  0  0  0
  -19.1910   19.5631  -14.1193 N   0  0  0  0  0  0  0  0  0  0  0  0
  -19.8196   20.2721  -14.3862 H   0  0  0  0  0  0  0  0  0  0  0  0
  -19.1812   19.1123  -12.7464 C   0  0  0  0  0  0  0  0  0  0  0  0
  -20.5841   19.0681  -12.2427 C   0  0  0  0  0  0  0  0  0  0  0  0
  -21.4848   20.4993  -12.0021 S   0  0  0  0  0  0  0  0  0  0  0  0
  -22.8345   19.6306  -11.4343 C   0  0  0  0  0  0  0  0  0  0  0  0
  -22.6203   18.3014  -11.4247 C   0  0  0  0  0  0  0  0  0  0  0  0
  -21.3181   17.9588  -11.8916 C   0  0  0  0  0  0  0  0  0  0  0  0
  1  5  1  0  0  0
  1 11  1  0  0  0
  2  3  1  0  0  0
  2 11  2  0  0  0
  3  4  2  0  0  0
  3  8  1  0  0  0
  4  5  1  0  0  0
  4  6  1  0  0  0
  5 14  2  0  0  0
  6  7  2  0  0  0
  7  9  1  0  0  0
  7 12  1  0  0  0
  8 12  2  0  0  0
  9 10  1  0  0  0
 10 13  2  0  0  0
 10 17  1  0  0  0
 12 13  1  0  0  0
 17 19  1  0  0  0
 19 20  1  0  0  0
 24 20  2  0  0  0
 21 20  1  0  0  0
 21 22  1  0  0  0
 22 23  2  0  0  0
 23 24  1  0  0  0
  1 15  1  0  0  0
  9 16  1  0  0  0
 17 18  1  0  0  0
M  END
> <minimizedAffinity>
-7.01761

$$$$
4Q4Q_SAQ_A_406


 24 27  0  0  0  0  0  0  0  0999 V2000
  -12.5453   15.2537  -18.2863 N   0  0  0  0  0  0  0  0  0  0  0  0
  -14.4698   15.9661  -19.4639 N   0  0  0  0  0  0  0  0  0  0  0  0
  -14.8712   16.6586  -18.3230 C   0  0  0  0  0  0  0  0  0  0  0  0
  -14.1038   16.6618  -17.1448 C   0  0  0  0  0  0  0  0  0  0  0  0
  -12.8519   15.8970  -17.1149 C   0  0  0  0  0  0  0  0  0  0  0  0
  -14.5545   17.3587  -16.0284 C   0  0  0  0  0  0  0  0  0  0  0  0
  -15.7696   18.0143  -16.0656 C   0  0  0  0  0  0  0  0  0  0  0  0
  -16.0962   17.3389  -18.3602 C   0  0  0  0  0  0  0  0  0  0  0  0
  -16.5101   18.6955  -15.1191 N   0  0  0  0  0  0  0  0  0  0  0  0
  -17.6778   19.0347  -15.7106 C   0  0  0  0  0  0  0  0  0  0  0  0
  -13.3234   15.2926  -19.4094 C   0  0  0  0  0  0  0  0  0  0  0  0
  -16.5539   18.0046  -17.2194 C   0  0  0  0  0  0  0  0  0  0  0  0
  -17.7629   18.6591  -16.9722 N   0  0  0  0  0  0  0  0  0  0  0  0
  -12.1341   15.7950  -16.1238 O   0  0  0  0  0  0  0  0  0  0  0  0
  -11.7119   14.7307  -18.3206 H   0  0  0  0  0  0  0  0  0  0  0  0
  -16.2402   18.8952  -14.1937 H   0  0  0  0  0  0  0  0  0  0  0  0
  -18.6191   19.6839  -15.0176 N   0  0  0  0  0  0  0  0  0  0  0  0
  -19.5414   19.7004  -15.3616 H   0  0  0  0  0  0  0  0  0  0  0  0
  -18.3190   20.3620  -13.7774 C   0  0  0  0  0  0  0  0  0  0  0  0
  -19.0356   19.6741  -12.6652 C   0  0  0  0  0  0  0  0  0  0  0  0
  -18.1849   18.8015  -11.4684 S   0  0  0  0  0  0  0  0  0  0  0  0
  -19.6259   18.3500  -10.6821 C   0  0  0  0  0  0  0  0  0  0  0  0
  -20.7191   18.8397  -11.2968 C   0  0  0  0  0  0  0  0  0  0  0  0
  -20.3929   19.6109  -12.4500 C   0  0  0  0  0  0  0  0  0  0  0  0
  1  5  1  0  0  0
  1 11  1  0  0  0
  2  3  1  0  0  0
  2 11  2  0  0  0
  3  4  2  0  0  0
  3  8  1  0  0  0
  4  5  1  0  0  0
  4  6  1  0  0  0
  5 14  2  0  0  0
  6  7  2  0  0  0
  7  9  1  0  0  0
  7 12  1  0  0  0
  8 12  2  0  0  0
  9 10  1  0  0  0
 10 13  2  0  0  0
 10 17  1  0  0  0
 12 13  1  0  0  0
 17 19  1  0  0  0
 19 20  1  0  0  0
 24 20  2  0  0  0
 21 20  1  0  0  0
 21 22  1  0  0  0
 22 23  2  0  0  0
 23 24  1  0  0  0
  1 15  1  0  0  0
  9 16  1  0  0  0
 17 18  1  0  0  0
M  END
> <minimizedAffinity>
-6.95420

$$$$
4Q4Q_SAQ_A_406


 24 27  0  0  0  0  0  0  0  0999 V2000
  -16.9712   17.5401  -21.2827 N   0  0  0  0  0  0  0  0  0  0  0  0
  -18.8944   18.3373  -20.1584 N   0  0  0  0  0  0  0  0  0  0  0  0
  -18.1733   18.2985  -18.9664 C   0  0  0  0  0  0  0  0  0  0  0  0
  -16.8305   17.8837  -18.9212 C   0  0  0  0  0  0  0  0  0  0  0  0
  -16.1785   17.4632  -20.1666 C   0  0  0  0  0  0  0  0  0  0  0  0
  -16.1581   17.8507  -17.7038 C   0  0  0  0  0  0  0  0  0  0  0  0
  -16.8185   18.1889  -16.5388 C   0  0  0  0  0  0  0  0  0  0  0  0
  -18.8339   18.6557  -17.7829 C   0  0  0  0  0  0  0  0  0  0  0  0
  -16.4612   18.1674  -15.2046 N   0  0  0  0  0  0  0  0  0  0  0  0
  -17.5638   18.5123  -14.5021 C   0  0  0  0  0  0  0  0  0  0  0  0
  -18.2714   17.9621  -21.2727 C   0  0  0  0  0  0  0  0  0  0  0  0
  -18.1566   18.5829  -16.5623 C   0  0  0  0  0  0  0  0  0  0  0  0
  -18.6110   18.7841  -15.2569 N   0  0  0  0  0  0  0  0  0  0  0  0
  -15.0277   17.0391  -20.2290 O   0  0  0  0  0  0  0  0  0  0  0  0
  -16.5792   17.2745  -22.1458 H   0  0  0  0  0  0  0  0  0  0  0  0
  -15.5757   17.9443  -14.8367 H   0  0  0  0  0  0  0  0  0  0  0  0
  -17.5267   18.5465  -13.1659 N   0  0  0  0  0  0  0  0  0  0  0  0
  -17.2942   17.7272  -12.6720 H   0  0  0  0  0  0  0  0  0  0  0  0
  -17.8189   19.7537  -12.4275 C   0  0  0  0  0  0  0  0  0  0  0  0
  -19.2453   19.7212  -11.9939 C   0  0  0  0  0  0  0  0  0  0  0  0
  -19.8595   18.4272  -11.0635 S   0  0  0  0  0  0  0  0  0  0  0  0
  -21.4230   19.1010  -11.0411 C   0  0  0  0  0  0  0  0  0  0  0  0
  -21.4871   20.2668  -11.7116 C   0  0  0  0  0  0  0  0  0  0  0  0
  -20.2306   20.6406  -12.2705 C   0  0  0  0  0  0  0  0  0  0  0  0
  1  5  1  0  0  0
  1 11  1  0  0  0
  2  3  1  0  0  0
  2 11  2  0  0  0
  3  4  2  0  0  0
  3  8  1  0  0  0
  4  5  1  0  0  0
  4  6  1  0  0  0
  5 14  2  0  0  0
  6  7  2  0  0  0
  7  9  1  0  0  0
  7 12  1  0  0  0
  8 12  2  0  0  0
  9 10  1  0  0  0
 10 13  2  0  0  0
 10 17  1  0  0  0
 12 13  1  0  0  0
 17 19  1  0  0  0
 19 20  1  0  0  0
 24 20  2  0  0  0
 21 20  1  0  0  0
 21 22  1  0  0  0
 22 23  2  0  0  0
 23 24  1  0  0  0
  1 15  1  0  0  0
  9 16  1  0  0  0
 17 18  1  0  0  0
M  END
> <minimizedAffinity>
-6.53552

$$$$
