4O61_CIT_A_302


 17 16  0  0  0  0  0  0  0  0999 V2000
   15.7067    3.4733    3.3084 C   0  0  0  0  0  0  0  0  0  0  0  0
   15.6422    3.5672    1.8378 O   0  0  0  0  0  0  0  0  0  0  0  0
   15.9329    4.4490    1.5570 H   0  0  0  0  0  0  0  0  0  0  0  0
   15.2627    2.1031    3.8614 C   0  0  0  0  0  0  0  0  0  0  0  0
   14.2057    1.9870    4.4889 O   0  0  0  0  0  0  0  0  0  0  0  0
   15.9644    1.0844    3.6483 O   0  0  0  0  0  0  0  0  0  0  0  0
   16.7684    1.1603    3.1732 H   0  0  0  0  0  0  0  0  0  0  0  0
   14.7851    4.5087    4.0368 C   0  0  0  0  0  0  0  0  0  0  0  0
   14.2162    5.5703    3.0956 C   0  0  0  0  0  0  0  0  0  0  0  0
   12.9921    5.5318    2.7937 O   0  0  0  0  0  0  0  0  0  0  0  0
   14.9860    6.4436    2.6550 O   0  0  0  0  0  0  0  0  0  0  0  0
   15.8898    6.4394    2.9022 H   0  0  0  0  0  0  0  0  0  0  0  0
   17.1771    3.6929    3.6715 C   0  0  0  0  0  0  0  0  0  0  0  0
   17.9943    4.5467    2.6947 C   0  0  0  0  0  0  0  0  0  0  0  0
   17.8586    5.7948    2.7642 O   0  0  0  0  0  0  0  0  0  0  0  0
   18.7796    4.0187    1.8841 O   0  0  0  0  0  0  0  0  0  0  0  0
   18.8626    3.0860    1.8519 H   0  0  0  0  0  0  0  0  0  0  0  0
  9 10  2  0  0  0
  9 11  1  0  0  0
  9  8  1  0  0  0
  8  1  1  0  0  0
  1  2  1  0  0  0
  1 13  1  0  0  0
  1  4  1  0  0  0
 13 14  1  0  0  0
 14 15  2  0  0  0
 14 16  1  0  0  0
  4  5  2  0  0  0
  4  6  1  0  0  0
 11 12  1  0  0  0
  2  3  1  0  0  0
 16 17  1  0  0  0
  6  7  1  0  0  0
M  END
> <minimizedAffinity>
-5.77680

$$$$
4O61_CIT_A_302


 17 16  0  0  0  0  0  0  0  0999 V2000
   17.3212    3.5382    3.1773 C   0  0  0  0  0  0  0  0  0  0  0  0
   17.5927    2.7948    1.9326 O   0  0  0  0  0  0  0  0  0  0  0  0
   17.1032    1.9574    1.9428 H   0  0  0  0  0  0  0  0  0  0  0  0
   18.0555    4.8924    3.2624 C   0  0  0  0  0  0  0  0  0  0  0  0
   17.4744    5.9454    2.9830 O   0  0  0  0  0  0  0  0  0  0  0  0
   19.2490    4.9346    3.6487 O   0  0  0  0  0  0  0  0  0  0  0  0
   19.7003    4.1420    3.8635 H   0  0  0  0  0  0  0  0  0  0  0  0
   17.7633    2.7694    4.4677 C   0  0  0  0  0  0  0  0  0  0  0  0
   18.4551    1.4402    4.1656 C   0  0  0  0  0  0  0  0  0  0  0  0
   17.7618    0.3892    4.0916 O   0  0  0  0  0  0  0  0  0  0  0  0
   19.6891    1.4397    4.0020 O   0  0  0  0  0  0  0  0  0  0  0  0
   20.1704    2.2412    4.0648 H   0  0  0  0  0  0  0  0  0  0  0  0
   15.8133    3.7997    3.1808 C   0  0  0  0  0  0  0  0  0  0  0  0
   14.9210    2.6052    3.5379 C   0  0  0  0  0  0  0  0  0  0  0  0
   14.0108    2.7957    4.3842 O   0  0  0  0  0  0  0  0  0  0  0  0
   15.0807    1.4986    2.9878 O   0  0  0  0  0  0  0  0  0  0  0  0
   15.7667    1.3821    2.3602 H   0  0  0  0  0  0  0  0  0  0  0  0
  9 10  2  0  0  0
  9 11  1  0  0  0
  9  8  1  0  0  0
  8  1  1  0  0  0
  1  2  1  0  0  0
  1 13  1  0  0  0
  1  4  1  0  0  0
 13 14  1  0  0  0
 14 15  2  0  0  0
 14 16  1  0  0  0
  4  5  2  0  0  0
  4  6  1  0  0  0
 11 12  1  0  0  0
  2  3  1  0  0  0
 16 17  1  0  0  0
  6  7  1  0  0  0
M  END
> <minimizedAffinity>
-5.65861

$$$$
4O61_CIT_A_302


 17 16  0  0  0  0  0  0  0  0999 V2000
   15.6713    3.5116    3.5017 C   0  0  0  0  0  0  0  0  0  0  0  0
   15.5745    4.3691    4.6980 O   0  0  0  0  0  0  0  0  0  0  0  0
   15.6962    5.2966    4.4416 H   0  0  0  0  0  0  0  0  0  0  0  0
   15.4910    2.0089    3.8009 C   0  0  0  0  0  0  0  0  0  0  0  0
   15.9094    1.5193    4.8543 O   0  0  0  0  0  0  0  0  0  0  0  0
   14.8858    1.2753    2.9817 O   0  0  0  0  0  0  0  0  0  0  0  0
   14.5638    1.6357    2.1789 H   0  0  0  0  0  0  0  0  0  0  0  0
   17.0588    3.6056    2.7821 C   0  0  0  0  0  0  0  0  0  0  0  0
   17.8366    4.8709    3.1437 C   0  0  0  0  0  0  0  0  0  0  0  0
   17.3022    5.9971    2.9512 O   0  0  0  0  0  0  0  0  0  0  0  0
   18.9802    4.7463    3.6191 O   0  0  0  0  0  0  0  0  0  0  0  0
   19.3437    3.8923    3.7476 H   0  0  0  0  0  0  0  0  0  0  0  0
   14.5390    3.9644    2.5771 C   0  0  0  0  0  0  0  0  0  0  0  0
   13.7695    5.2166    3.0139 C   0  0  0  0  0  0  0  0  0  0  0  0
   12.5954    5.0566    3.4345 O   0  0  0  0  0  0  0  0  0  0  0  0
   14.3023    6.3423    2.9753 O   0  0  0  0  0  0  0  0  0  0  0  0
   15.1788    6.4352    2.6575 H   0  0  0  0  0  0  0  0  0  0  0  0
  9 10  2  0  0  0
  9 11  1  0  0  0
  9  8  1  0  0  0
  8  1  1  0  0  0
  1  2  1  0  0  0
  1 13  1  0  0  0
  1  4  1  0  0  0
 13 14  1  0  0  0
 14 15  2  0  0  0
 14 16  1  0  0  0
  4  5  2  0  0  0
  4  6  1  0  0  0
 11 12  1  0  0  0
  2  3  1  0  0  0
 16 17  1  0  0  0
  6  7  1  0  0  0
M  END
> <minimizedAffinity>
-5.55585

$$$$
4O61_CIT_A_302


 17 16  0  0  0  0  0  0  0  0999 V2000
   16.3375    3.9368    3.2225 C   0  0  0  0  0  0  0  0  0  0  0  0
   15.7119    3.7166    1.9050 O   0  0  0  0  0  0  0  0  0  0  0  0
   14.9099    3.1819    2.0132 H   0  0  0  0  0  0  0  0  0  0  0  0
   17.6274    4.7810    3.1621 C   0  0  0  0  0  0  0  0  0  0  0  0
   18.7290    4.2690    3.3831 O   0  0  0  0  0  0  0  0  0  0  0  0
   17.5668    5.9966    2.8553 O   0  0  0  0  0  0  0  0  0  0  0  0
   16.7364    6.3960    2.6853 H   0  0  0  0  0  0  0  0  0  0  0  0
   16.7687    2.6101    3.9336 C   0  0  0  0  0  0  0  0  0  0  0  0
   15.6154    1.6223    4.1090 C   0  0  0  0  0  0  0  0  0  0  0  0
   15.3444    1.1924    5.2634 O   0  0  0  0  0  0  0  0  0  0  0  0
   14.9779    1.2723    3.0988 O   0  0  0  0  0  0  0  0  0  0  0  0
   15.2091    1.6136    2.2574 H   0  0  0  0  0  0  0  0  0  0  0  0
   15.2973    4.6937    4.0515 C   0  0  0  0  0  0  0  0  0  0  0  0
   14.2762    5.5215    3.2623 C   0  0  0  0  0  0  0  0  0  0  0  0
   14.7041    6.5254    2.6379 O   0  0  0  0  0  0  0  0  0  0  0  0
   13.0753    5.1913    3.2246 O   0  0  0  0  0  0  0  0  0  0  0  0
   12.7812    4.4386    3.6989 H   0  0  0  0  0  0  0  0  0  0  0  0
  9 10  2  0  0  0
  9 11  1  0  0  0
  9  8  1  0  0  0
  8  1  1  0  0  0
  1  2  1  0  0  0
  1 13  1  0  0  0
  1  4  1  0  0  0
 13 14  1  0  0  0
 14 15  2  0  0  0
 14 16  1  0  0  0
  4  5  2  0  0  0
  4  6  1  0  0  0
 11 12  1  0  0  0
  2  3  1  0  0  0
 16 17  1  0  0  0
  6  7  1  0  0  0
M  END
> <minimizedAffinity>
-5.47009

$$$$
4O61_CIT_A_302


 17 16  0  0  0  0  0  0  0  0999 V2000
   15.0279    4.7428    3.4574 C   0  0  0  0  0  0  0  0  0  0  0  0
   15.3169    4.4738    4.8786 O   0  0  0  0  0  0  0  0  0  0  0  0
   14.8167    3.6949    5.1684 H   0  0  0  0  0  0  0  0  0  0  0  0
   15.7774    5.9682    2.8944 C   0  0  0  0  0  0  0  0  0  0  0  0
   15.1585    6.9173    2.4038 O   0  0  0  0  0  0  0  0  0  0  0  0
   17.0298    6.0210    2.9600 O   0  0  0  0  0  0  0  0  0  0  0  0
   17.5101    5.3067    3.3302 H   0  0  0  0  0  0  0  0  0  0  0  0
   13.5168    5.0437    3.1782 C   0  0  0  0  0  0  0  0  0  0  0  0
   12.5953    4.5797    4.3061 C   0  0  0  0  0  0  0  0  0  0  0  0
   11.9245    5.4367    4.9436 O   0  0  0  0  0  0  0  0  0  0  0  0
   12.5378    3.3624    4.5597 O   0  0  0  0  0  0  0  0  0  0  0  0
   13.0515    2.7558    4.0637 H   0  0  0  0  0  0  0  0  0  0  0  0
   15.4911    3.4967    2.6994 C   0  0  0  0  0  0  0  0  0  0  0  0
   15.8259    2.2699    3.5560 C   0  0  0  0  0  0  0  0  0  0  0  0
   14.9287    1.8386    4.3241 O   0  0  0  0  0  0  0  0  0  0  0  0
   16.9366    1.7118    3.4699 O   0  0  0  0  0  0  0  0  0  0  0  0
   17.5886    2.0529    2.8898 H   0  0  0  0  0  0  0  0  0  0  0  0
  9 10  2  0  0  0
  9 11  1  0  0  0
  9  8  1  0  0  0
  8  1  1  0  0  0
  1  2  1  0  0  0
  1 13  1  0  0  0
  1  4  1  0  0  0
 13 14  1  0  0  0
 14 15  2  0  0  0
 14 16  1  0  0  0
  4  5  2  0  0  0
  4  6  1  0  0  0
 11 12  1  0  0  0
  2  3  1  0  0  0
 16 17  1  0  0  0
  6  7  1  0  0  0
M  END
> <minimizedAffinity>
-5.46257

$$$$
4O61_CIT_A_302


 17 16  0  0  0  0  0  0  0  0999 V2000
   18.7182    4.3667    2.9605 C   0  0  0  0  0  0  0  0  0  0  0  0
   19.7167    4.8728    3.9210 O   0  0  0  0  0  0  0  0  0  0  0  0
   20.5603    4.4146    3.7820 H   0  0  0  0  0  0  0  0  0  0  0  0
   17.3338    5.0337    3.0974 C   0  0  0  0  0  0  0  0  0  0  0  0
   16.3412    4.3708    3.4134 O   0  0  0  0  0  0  0  0  0  0  0  0
   17.2133    6.2699    2.9167 O   0  0  0  0  0  0  0  0  0  0  0  0
   17.9596    6.7832    2.6767 H   0  0  0  0  0  0  0  0  0  0  0  0
   18.4333    2.8345    3.1117 C   0  0  0  0  0  0  0  0  0  0  0  0
   19.4987    2.1050    3.9299 C   0  0  0  0  0  0  0  0  0  0  0  0
   20.6939    2.1107    3.5271 O   0  0  0  0  0  0  0  0  0  0  0  0
   19.1481    1.5249    4.9739 O   0  0  0  0  0  0  0  0  0  0  0  0
   18.2501    1.5429    5.2409 H   0  0  0  0  0  0  0  0  0  0  0  0
   19.2800    4.6887    1.5738 C   0  0  0  0  0  0  0  0  0  0  0  0
   20.7342    5.1725    1.5293 C   0  0  0  0  0  0  0  0  0  0  0  0
   20.9305    6.3953    1.3122 O   0  0  0  0  0  0  0  0  0  0  0  0
   21.6784    4.3840    1.7272 O   0  0  0  0  0  0  0  0  0  0  0  0
   21.5057    3.4769    1.8867 H   0  0  0  0  0  0  0  0  0  0  0  0
  9 10  2  0  0  0
  9 11  1  0  0  0
  9  8  1  0  0  0
  8  1  1  0  0  0
  1  2  1  0  0  0
  1 13  1  0  0  0
  1  4  1  0  0  0
 13 14  1  0  0  0
 14 15  2  0  0  0
 14 16  1  0  0  0
  4  5  2  0  0  0
  4  6  1  0  0  0
 11 12  1  0  0  0
  2  3  1  0  0  0
 16 17  1  0  0  0
  6  7  1  0  0  0
M  END
> <minimizedAffinity>
-5.46065

$$$$
4O61_CIT_A_302


 17 16  0  0  0  0  0  0  0  0999 V2000
   16.3317    3.1957    3.5359 C   0  0  0  0  0  0  0  0  0  0  0  0
   16.8552    3.2478    2.1580 O   0  0  0  0  0  0  0  0  0  0  0  0
   17.5571    3.9152    2.1037 H   0  0  0  0  0  0  0  0  0  0  0  0
   15.2047    2.1604    3.7314 C   0  0  0  0  0  0  0  0  0  0  0  0
   14.1742    2.4557    4.3440 O   0  0  0  0  0  0  0  0  0  0  0  0
   15.3170    1.0116    3.2383 O   0  0  0  0  0  0  0  0  0  0  0  0
   16.0945    0.7761    2.7713 H   0  0  0  0  0  0  0  0  0  0  0  0
   15.7085    4.5503    4.0141 C   0  0  0  0  0  0  0  0  0  0  0  0
   16.0752    5.7295    3.1132 C   0  0  0  0  0  0  0  0  0  0  0  0
   15.1535    6.4066    2.5812 O   0  0  0  0  0  0  0  0  0  0  0  0
   17.2804    5.9835    2.9330 O   0  0  0  0  0  0  0  0  0  0  0  0
   17.9368    5.4574    3.3456 H   0  0  0  0  0  0  0  0  0  0  0  0
   17.5198    2.7953    4.4135 C   0  0  0  0  0  0  0  0  0  0  0  0
   18.6365    2.0060    3.7202 C   0  0  0  0  0  0  0  0  0  0  0  0
   19.6896    2.6281    3.4290 O   0  0  0  0  0  0  0  0  0  0  0  0
   18.5086    0.7897    3.4814 O   0  0  0  0  0  0  0  0  0  0  0  0
   17.7135    0.3488    3.7082 H   0  0  0  0  0  0  0  0  0  0  0  0
  9 10  2  0  0  0
  9 11  1  0  0  0
  9  8  1  0  0  0
  8  1  1  0  0  0
  1  2  1  0  0  0
  1 13  1  0  0  0
  1  4  1  0  0  0
 13 14  1  0  0  0
 14 15  2  0  0  0
 14 16  1  0  0  0
  4  5  2  0  0  0
  4  6  1  0  0  0
 11 12  1  0  0  0
  2  3  1  0  0  0
 16 17  1  0  0  0
  6  7  1  0  0  0
M  END
> <minimizedAffinity>
-5.37856

$$$$
4O61_CIT_A_302


 17 16  0  0  0  0  0  0  0  0999 V2000
   17.9292    3.6459    3.2138 C   0  0  0  0  0  0  0  0  0  0  0  0
   17.7985    2.6981    2.0913 O   0  0  0  0  0  0  0  0  0  0  0  0
   18.4637    1.9978    2.1803 H   0  0  0  0  0  0  0  0  0  0  0  0
   16.9119    4.8048    3.1674 C   0  0  0  0  0  0  0  0  0  0  0  0
   15.7074    4.5961    3.3411 O   0  0  0  0  0  0  0  0  0  0  0  0
   17.3098    5.9807    2.9814 O   0  0  0  0  0  0  0  0  0  0  0  0
   18.2215    6.1512    2.8485 H   0  0  0  0  0  0  0  0  0  0  0  0
   19.3262    4.3510    3.2705 C   0  0  0  0  0  0  0  0  0  0  0  0
   20.4035    3.4934    3.9342 C   0  0  0  0  0  0  0  0  0  0  0  0
   21.0219    3.9488    4.9347 O   0  0  0  0  0  0  0  0  0  0  0  0
   20.6365    2.3659    3.4610 O   0  0  0  0  0  0  0  0  0  0  0  0
   20.1560    2.0620    2.7162 H   0  0  0  0  0  0  0  0  0  0  0  0
   17.6749    2.8238    4.4794 C   0  0  0  0  0  0  0  0  0  0  0  0
   17.3906    1.3317    4.2704 C   0  0  0  0  0  0  0  0  0  0  0  0
   16.1887    0.9839    4.1456 O   0  0  0  0  0  0  0  0  0  0  0  0
   18.3206    0.5054    4.2019 O   0  0  0  0  0  0  0  0  0  0  0  0
   19.2082    0.7899    4.2982 H   0  0  0  0  0  0  0  0  0  0  0  0
  9 10  2  0  0  0
  9 11  1  0  0  0
  9  8  1  0  0  0
  8  1  1  0  0  0
  1  2  1  0  0  0
  1 13  1  0  0  0
  1  4  1  0  0  0
 13 14  1  0  0  0
 14 15  2  0  0  0
 14 16  1  0  0  0
  4  5  2  0  0  0
  4  6  1  0  0  0
 11 12  1  0  0  0
  2  3  1  0  0  0
 16 17  1  0  0  0
  6  7  1  0  0  0
M  END
> <minimizedAffinity>
-5.35314

$$$$
4O61_CIT_A_302


 17 16  0  0  0  0  0  0  0  0999 V2000
   22.8997    3.8998    0.9039 C   0  0  0  0  0  0  0  0  0  0  0  0
   23.8224    4.8031    1.6168 O   0  0  0  0  0  0  0  0  0  0  0  0
   23.3111    5.4540    2.1227 H   0  0  0  0  0  0  0  0  0  0  0  0
   23.6148    2.8208    0.0645 C   0  0  0  0  0  0  0  0  0  0  0  0
   23.3596    2.6810   -1.1354 O   0  0  0  0  0  0  0  0  0  0  0  0
   24.4898    2.0930    0.5941 O   0  0  0  0  0  0  0  0  0  0  0  0
   24.6920    2.1900    1.5038 H   0  0  0  0  0  0  0  0  0  0  0  0
   21.9716    4.6408   -0.1166 C   0  0  0  0  0  0  0  0  0  0  0  0
   21.9079    6.1499    0.1179 C   0  0  0  0  0  0  0  0  0  0  0  0
   21.1325    6.6022    1.0040 O   0  0  0  0  0  0  0  0  0  0  0  0
   22.6287    6.8875   -0.5791 O   0  0  0  0  0  0  0  0  0  0  0  0
   23.1923    6.5142   -1.2279 H   0  0  0  0  0  0  0  0  0  0  0  0
   22.0783    3.2060    1.9930 C   0  0  0  0  0  0  0  0  0  0  0  0
   21.8254    4.0175    3.2690 C   0  0  0  0  0  0  0  0  0  0  0  0
   22.5718    3.7919    4.2554 O   0  0  0  0  0  0  0  0  0  0  0  0
   20.9302    4.8832    3.3111 O   0  0  0  0  0  0  0  0  0  0  0  0
   20.3871    5.0324    2.5624 H   0  0  0  0  0  0  0  0  0  0  0  0
  9 10  2  0  0  0
  9 11  1  0  0  0
  9  8  1  0  0  0
  8  1  1  0  0  0
  1  2  1  0  0  0
  1 13  1  0  0  0
  1  4  1  0  0  0
 13 14  1  0  0  0
 14 15  2  0  0  0
 14 16  1  0  0  0
  4  5  2  0  0  0
  4  6  1  0  0  0
 11 12  1  0  0  0
  2  3  1  0  0  0
 16 17  1  0  0  0
  6  7  1  0  0  0
M  END
> <minimizedAffinity>
-5.30653

$$$$
4O61_CIT_A_302


 17 16  0  0  0  0  0  0  0  0999 V2000
   15.5046    4.6434    3.3980 C   0  0  0  0  0  0  0  0  0  0  0  0
   15.4664    4.5703    4.8707 O   0  0  0  0  0  0  0  0  0  0  0  0
   16.0191    3.8324    5.1723 H   0  0  0  0  0  0  0  0  0  0  0  0
   14.6537    5.7895    2.8127 C   0  0  0  0  0  0  0  0  0  0  0  0
   13.4236    5.6984    2.7563 O   0  0  0  0  0  0  0  0  0  0  0  0
   15.2094    6.8424    2.4152 O   0  0  0  0  0  0  0  0  0  0  0  0
   16.1422    6.9229    2.4532 H   0  0  0  0  0  0  0  0  0  0  0  0
   14.9600    3.3526    2.6988 C   0  0  0  0  0  0  0  0  0  0  0  0
   14.8520    2.1581    3.6465 C   0  0  0  0  0  0  0  0  0  0  0  0
   13.9512    2.1533    4.5294 O   0  0  0  0  0  0  0  0  0  0  0  0
   15.6632    1.2233    3.5144 O   0  0  0  0  0  0  0  0  0  0  0  0
   16.3189    1.2629    2.8462 H   0  0  0  0  0  0  0  0  0  0  0  0
   16.9709    4.8899    3.0354 C   0  0  0  0  0  0  0  0  0  0  0  0
   17.8765    3.6532    3.0041 C   0  0  0  0  0  0  0  0  0  0  0  0
   18.1797    3.1302    4.1066 O   0  0  0  0  0  0  0  0  0  0  0  0
   18.2716    3.1752    1.9233 O   0  0  0  0  0  0  0  0  0  0  0  0
   18.0319    3.5837    1.1149 H   0  0  0  0  0  0  0  0  0  0  0  0
  9 10  2  0  0  0
  9 11  1  0  0  0
  9  8  1  0  0  0
  8  1  1  0  0  0
  1  2  1  0  0  0
  1 13  1  0  0  0
  1  4  1  0  0  0
 13 14  1  0  0  0
 14 15  2  0  0  0
 14 16  1  0  0  0
  4  5  2  0  0  0
  4  6  1  0  0  0
 11 12  1  0  0  0
  2  3  1  0  0  0
 16 17  1  0  0  0
  6  7  1  0  0  0
M  END
> <minimizedAffinity>
-5.20637

$$$$
