5IWG_IWX_A_403


 26 28  0  0  0  0  0  0  0  0999 V2000
   66.3908   29.3861    0.8812 C   0  0  0  0  0  0  0  0  0  0  0  0
   65.9759   29.2858    2.2058 C   0  0  0  0  0  0  0  0  0  0  0  0
   64.7597   28.6471    2.5393 C   0  0  0  0  0  0  0  0  0  0  0  0
   63.9815   28.0927    1.5165 C   0  0  0  0  0  0  0  0  0  0  0  0
   64.3791   28.1661    0.2060 C   0  0  0  0  0  0  0  0  0  0  0  0
   65.5856   28.7903   -0.1099 C   0  0  0  0  0  0  0  0  0  0  0  0
   65.9217   28.8340   -1.4440 N   0  0  0  0  0  0  0  0  0  0  0  0
   65.3382   28.4081   -2.1129 H   0  0  0  0  0  0  0  0  0  0  0  0
   66.7456   29.2912   -1.7294 H   0  0  0  0  0  0  0  0  0  0  0  0
   64.2718   28.5653    3.9407 C   0  0  0  0  0  0  0  0  0  0  0  0
   62.8884   28.6503    4.2367 C   0  0  0  0  0  0  0  0  0  0  0  0
   62.4342   28.5827    5.5426 C   0  0  0  0  0  0  0  0  0  0  0  0
   63.3456   28.4413    6.5755 C   0  0  0  0  0  0  0  0  0  0  0  0
   62.8909   28.3772    7.8340 F   0  0  0  0  0  0  0  0  0  0  0  0
   64.7112   28.3681    6.3113 C   0  0  0  0  0  0  0  0  0  0  0  0
   65.1803   28.4270    5.0064 C   0  0  0  0  0  0  0  0  0  0  0  0
   66.9360   31.5345   -0.8777 O   0  0  0  0  0  0  0  0  0  0  0  0
   67.8845   30.9956   -0.3294 C   0  0  0  0  0  0  0  0  0  0  0  0
   67.6407   29.9605    0.5386 N   0  0  0  0  0  0  0  0  0  0  0  0
   68.4306   29.5691    0.9769 H   0  0  0  0  0  0  0  0  0  0  0  0
   69.2917   31.4688   -0.7056 C   0  0  0  0  0  0  0  0  0  0  0  0
   69.4332   33.0049   -0.6807 C   0  0  0  0  0  0  0  0  0  0  0  0
   70.8533   33.3510   -1.1419 C   0  0  0  0  0  0  0  0  0  0  0  0
   71.8012   32.7527   -0.2588 O   0  0  0  0  0  0  0  0  0  0  0  0
   71.8108   31.3248   -0.2817 C   0  0  0  0  0  0  0  0  0  0  0  0
   70.4242   30.7894    0.1057 C   0  0  0  0  0  0  0  0  0  0  0  0
  7  6  1  0  0  0
 23 22  1  0  0  0
 23 24  1  0  0  0
 17 18  2  0  0  0
 21 22  1  0  0  0
 21 18  1  0  0  0
 21 26  1  0  0  0
 18 19  1  0  0  0
 25 24  1  0  0  0
 25 26  1  0  0  0
  6  5  2  0  0  0
  6  1  1  0  0  0
  5  4  1  0  0  0
 19  1  1  0  0  0
  1  2  2  0  0  0
  4  3  2  0  0  0
  2  3  1  0  0  0
  3 10  1  0  0  0
 10 11  2  0  0  0
 10 16  1  0  0  0
 11 12  1  0  0  0
 16 15  2  0  0  0
 12 13  2  0  0  0
 15 13  1  0  0  0
 13 14  1  0  0  0
 19 20  1  0  0  0
  7  8  1  0  0  0
  7  9  1  0  0  0
M  END
> <minimizedAffinity>
-11.41142

$$$$
5IWG_IWX_A_403


 26 28  0  0  0  0  0  0  0  0999 V2000
   66.2116   29.5034    1.0569 C   0  0  0  0  0  0  0  0  0  0  0  0
   65.7813   29.4003    2.3764 C   0  0  0  0  0  0  0  0  0  0  0  0
   64.6342   28.6438    2.7090 C   0  0  0  0  0  0  0  0  0  0  0  0
   63.9430   27.9762    1.6914 C   0  0  0  0  0  0  0  0  0  0  0  0
   64.3588   28.0510    0.3867 C   0  0  0  0  0  0  0  0  0  0  0  0
   65.4973   28.7926    0.0719 C   0  0  0  0  0  0  0  0  0  0  0  0
   65.8557   28.8306   -1.2565 N   0  0  0  0  0  0  0  0  0  0  0  0
   65.3364   28.3228   -1.9212 H   0  0  0  0  0  0  0  0  0  0  0  0
   66.6314   29.3655   -1.5420 H   0  0  0  0  0  0  0  0  0  0  0  0
   64.1276   28.5536    4.1032 C   0  0  0  0  0  0  0  0  0  0  0  0
   65.0180   28.3806    5.1922 C   0  0  0  0  0  0  0  0  0  0  0  0
   64.5458   28.2880    6.4902 C   0  0  0  0  0  0  0  0  0  0  0  0
   63.1830   28.3540    6.7267 C   0  0  0  0  0  0  0  0  0  0  0  0
   62.7412   28.2630    7.9882 F   0  0  0  0  0  0  0  0  0  0  0  0
   62.2868   28.5111    5.6722 C   0  0  0  0  0  0  0  0  0  0  0  0
   62.7465   28.6129    4.3665 C   0  0  0  0  0  0  0  0  0  0  0  0
   67.1735   30.2341   -1.5018 O   0  0  0  0  0  0  0  0  0  0  0  0
   67.8547   30.5321   -0.5334 C   0  0  0  0  0  0  0  0  0  0  0  0
   67.3992   30.1992    0.7181 N   0  0  0  0  0  0  0  0  0  0  0  0
   67.9668   30.4779    1.4727 H   0  0  0  0  0  0  0  0  0  0  0  0
   69.2106   31.1966   -0.7897 C   0  0  0  0  0  0  0  0  0  0  0  0
   69.2023   32.7094   -0.4870 C   0  0  0  0  0  0  0  0  0  0  0  0
   70.5837   33.2661   -0.8494 C   0  0  0  0  0  0  0  0  0  0  0  0
   71.5822   32.6109   -0.0683 O   0  0  0  0  0  0  0  0  0  0  0  0
   71.7303   31.2181   -0.3464 C   0  0  0  0  0  0  0  0  0  0  0  0
   70.4010   30.4925   -0.0900 C   0  0  0  0  0  0  0  0  0  0  0  0
  7  6  1  0  0  0
 23 22  1  0  0  0
 23 24  1  0  0  0
 17 18  2  0  0  0
 21 22  1  0  0  0
 21 18  1  0  0  0
 21 26  1  0  0  0
 18 19  1  0  0  0
 25 24  1  0  0  0
 25 26  1  0  0  0
  6  5  2  0  0  0
  6  1  1  0  0  0
  5  4  1  0  0  0
 19  1  1  0  0  0
  1  2  2  0  0  0
  4  3  2  0  0  0
  2  3  1  0  0  0
  3 10  1  0  0  0
 10 11  2  0  0  0
 10 16  1  0  0  0
 11 12  1  0  0  0
 16 15  2  0  0  0
 12 13  2  0  0  0
 15 13  1  0  0  0
 13 14  1  0  0  0
 19 20  1  0  0  0
  7  8  1  0  0  0
  7  9  1  0  0  0
M  END
> <minimizedAffinity>
-9.12007

$$$$
