3O7U_O7U_A_430


 13 13  0  0  0  0  0  0  0  0999 V2000
  -68.5871   18.2797  -14.8526 N   0  0  0  0  0  0  0  0  0  0  0  0
  -68.4573   19.6306  -15.1892 C   0  0  0  0  0  0  0  0  0  0  0  0
  -69.0408   20.5769  -14.6222 O   0  0  0  0  0  0  0  0  0  0  0  0
  -67.6503   19.9505  -16.2490 N   0  0  0  0  0  0  0  0  0  0  0  0
  -67.0506   19.1130  -18.7199 N   0  0  0  0  0  0  0  0  0  0  0  0
  -65.3498   19.3667  -16.8608 O   0  0  0  0  0  0  0  0  0  0  0  0
  -66.7295   18.9376  -17.1319 P   0  0  0  0  0  0  0  0  0  0  0  0
  -67.0790   17.2832  -16.5547 C   0  0  0  0  0  0  0  0  0  0  0  0
  -67.8915   17.2131  -15.5684 C   0  0  0  0  0  0  0  0  0  0  0  0
  -69.1732   18.0366  -14.0999 H   0  0  0  0  0  0  0  0  0  0  0  0
  -67.6239   20.9004  -16.5063 H   0  0  0  0  0  0  0  0  0  0  0  0
  -66.8377   20.0685  -19.0064 H   0  0  0  0  0  0  0  0  0  0  0  0
  -68.0372   18.9186  -18.8908 H   0  0  0  0  0  0  0  0  0  0  0  0
  1  2  1  0  0  0
  1  9  1  0  0  0
  2  3  2  0  0  0
  2  4  1  0  0  0
  4  7  1  0  0  0
  5  7  1  0  0  0
  6  7  2  0  0  0
  7  8  1  0  0  0
  8  9  2  0  0  0
  1 10  1  0  0  0
  4 11  1  0  0  0
  5 12  1  0  0  0
  5 13  1  0  0  0
M  END
> <minimizedAffinity>
-6.98022

$$$$
3O7U_O7U_A_430


 13 13  0  0  0  0  0  0  0  0999 V2000
  -66.9851   17.2879  -17.3386 N   0  0  0  0  0  0  0  0  0  0  0  0
  -67.3128   18.5417  -17.8639 C   0  0  0  0  0  0  0  0  0  0  0  0
  -67.0025   18.9536  -19.0003 O   0  0  0  0  0  0  0  0  0  0  0  0
  -68.0036   19.4102  -17.0607 N   0  0  0  0  0  0  0  0  0  0  0  0
  -68.0751   20.2755  -14.5284 N   0  0  0  0  0  0  0  0  0  0  0  0
  -70.0434   19.2137  -15.7163 O   0  0  0  0  0  0  0  0  0  0  0  0
  -68.5838   19.1260  -15.5655 P   0  0  0  0  0  0  0  0  0  0  0  0
  -68.0210   17.4976  -15.0920 C   0  0  0  0  0  0  0  0  0  0  0  0
  -67.3605   16.8695  -15.9904 C   0  0  0  0  0  0  0  0  0  0  0  0
  -66.4789   16.6593  -17.9024 H   0  0  0  0  0  0  0  0  0  0  0  0
  -68.1680   20.3083  -17.4291 H   0  0  0  0  0  0  0  0  0  0  0  0
  -68.4176   21.1860  -14.8352 H   0  0  0  0  0  0  0  0  0  0  0  0
  -67.0554   20.2859  -14.5058 H   0  0  0  0  0  0  0  0  0  0  0  0
  1  2  1  0  0  0
  1  9  1  0  0  0
  2  3  2  0  0  0
  2  4  1  0  0  0
  4  7  1  0  0  0
  5  7  1  0  0  0
  6  7  2  0  0  0
  7  8  1  0  0  0
  8  9  2  0  0  0
  1 10  1  0  0  0
  4 11  1  0  0  0
  5 12  1  0  0  0
  5 13  1  0  0  0
M  END
> <minimizedAffinity>
-4.98764

$$$$
3O7U_O7U_A_430


 13 13  0  0  0  0  0  0  0  0999 V2000
  -68.2242   17.2979  -14.9308 N   0  0  0  0  0  0  0  0  0  0  0  0
  -67.4702   16.6129  -15.8886 C   0  0  0  0  0  0  0  0  0  0  0  0
  -67.2390   15.3865  -15.8859 O   0  0  0  0  0  0  0  0  0  0  0  0
  -66.9066   17.3442  -16.9007 N   0  0  0  0  0  0  0  0  0  0  0  0
  -65.6273   19.6586  -17.3171 N   0  0  0  0  0  0  0  0  0  0  0  0
  -67.7803   19.0038  -18.4786 O   0  0  0  0  0  0  0  0  0  0  0  0
  -67.0831   18.9381  -17.1860 P   0  0  0  0  0  0  0  0  0  0  0  0
  -68.0425   19.6036  -15.8335 C   0  0  0  0  0  0  0  0  0  0  0  0
  -68.4437   18.7413  -14.9772 C   0  0  0  0  0  0  0  0  0  0  0  0
  -68.6248   16.7847  -14.1923 H   0  0  0  0  0  0  0  0  0  0  0  0
  -66.3293   16.8502  -17.5268 H   0  0  0  0  0  0  0  0  0  0  0  0
  -65.1148   19.2499  -18.0986 H   0  0  0  0  0  0  0  0  0  0  0  0
  -65.1002   19.5194  -16.4550 H   0  0  0  0  0  0  0  0  0  0  0  0
  1  2  1  0  0  0
  1  9  1  0  0  0
  2  3  2  0  0  0
  2  4  1  0  0  0
  4  7  1  0  0  0
  5  7  1  0  0  0
  6  7  2  0  0  0
  7  8  1  0  0  0
  8  9  2  0  0  0
  1 10  1  0  0  0
  4 11  1  0  0  0
  5 12  1  0  0  0
  5 13  1  0  0  0
M  END
> <minimizedAffinity>
-4.96469

$$$$
3O7U_O7U_A_430


 13 13  0  0  0  0  0  0  0  0999 V2000
  -66.8218   17.2957  -17.3757 N   0  0  0  0  0  0  0  0  0  0  0  0
  -67.3259   16.6831  -16.2243 C   0  0  0  0  0  0  0  0  0  0  0  0
  -67.1544   15.4886  -15.9060 O   0  0  0  0  0  0  0  0  0  0  0  0
  -68.1012   17.4393  -15.3854 N   0  0  0  0  0  0  0  0  0  0  0  0
  -70.0545   19.2684  -15.4602 N   0  0  0  0  0  0  0  0  0  0  0  0
  -67.8145   19.6364  -14.3377 O   0  0  0  0  0  0  0  0  0  0  0  0
  -68.4440   19.0262  -15.5176 P   0  0  0  0  0  0  0  0  0  0  0  0
  -67.7358   19.5826  -17.0609 C   0  0  0  0  0  0  0  0  0  0  0  0
  -67.0739   18.6964  -17.7046 C   0  0  0  0  0  0  0  0  0  0  0  0
  -66.2726   16.7592  -17.9919 H   0  0  0  0  0  0  0  0  0  0  0  0
  -68.4961   16.9704  -14.6151 H   0  0  0  0  0  0  0  0  0  0  0  0
  -70.4163   18.9379  -14.5657 H   0  0  0  0  0  0  0  0  0  0  0  0
  -70.5028   18.7550  -16.2190 H   0  0  0  0  0  0  0  0  0  0  0  0
  1  2  1  0  0  0
  1  9  1  0  0  0
  2  3  2  0  0  0
  2  4  1  0  0  0
  4  7  1  0  0  0
  5  7  1  0  0  0
  6  7  2  0  0  0
  7  8  1  0  0  0
  8  9  2  0  0  0
  1 10  1  0  0  0
  4 11  1  0  0  0
  5 12  1  0  0  0
  5 13  1  0  0  0
M  END
> <minimizedAffinity>
-4.05077

$$$$
