3GY3_PNT_A_246


 31 32  0  0  0  0  0  0  0  0999 V2000
  -12.5756   23.7375   48.8089 C   0  0  0  0  0  0  0  0  0  0  0  0
  -13.5342   24.9216   48.7059 C   0  0  0  0  0  0  0  0  0  0  0  0
  -13.0777   26.1106   49.5442 C   0  0  0  0  0  0  0  0  0  0  0  0
  -12.8478   25.6315   50.8596 O   0  0  0  0  0  0  0  0  0  0  0  0
  -13.8634   25.4539   51.7552 C   0  0  0  0  0  0  0  0  0  0  0  0
  -15.0246   26.2392   51.7394 C   0  0  0  0  0  0  0  0  0  0  0  0
  -16.0331   25.9995   52.6604 C   0  0  0  0  0  0  0  0  0  0  0  0
  -15.8771   24.9747   53.5939 C   0  0  0  0  0  0  0  0  0  0  0  0
  -14.7247   24.1804   53.5944 C   0  0  0  0  0  0  0  0  0  0  0  0
  -13.7188   24.4098   52.6686 C   0  0  0  0  0  0  0  0  0  0  0  0
  -16.9413   24.6989   54.6058 C   0  0  0  0  0  0  0  0  0  0  0  0
  -17.5331   25.6443   55.1913 N   0  0  0  0  0  0  0  0  0  0  0  0
  -17.2373   23.4364   54.9106 N   0  0  0  0  0  0  0  0  0  0  0  0
  -17.3139   26.5772   54.9657 H   0  0  0  0  0  0  0  0  0  0  0  0
  -16.7745   22.6979   54.4526 H   0  0  0  0  0  0  0  0  0  0  0  0
  -17.9189   23.2417   55.5938 H   0  0  0  0  0  0  0  0  0  0  0  0
  -11.2951   24.0532   48.0449 C   0  0  0  0  0  0  0  0  0  0  0  0
  -10.0392   23.3818   48.6176 C   0  0  0  0  0  0  0  0  0  0  0  0
   -9.9274   22.0100   48.2096 O   0  0  0  0  0  0  0  0  0  0  0  0
   -9.5619   21.0052   49.0613 C   0  0  0  0  0  0  0  0  0  0  0  0
   -9.5645   19.6715   48.6237 C   0  0  0  0  0  0  0  0  0  0  0  0
   -9.1990   18.6466   49.4839 C   0  0  0  0  0  0  0  0  0  0  0  0
   -8.8374   18.9579   50.7827 C   0  0  0  0  0  0  0  0  0  0  0  0
   -8.8405   20.2873   51.2336 C   0  0  0  0  0  0  0  0  0  0  0  0
   -9.2004   21.3239   50.3677 C   0  0  0  0  0  0  0  0  0  0  0  0
   -8.4175   17.8715   51.7162 C   0  0  0  0  0  0  0  0  0  0  0  0
   -9.0454   16.7766   51.7508 N   0  0  0  0  0  0  0  0  0  0  0  0
   -7.3334   18.0757   52.4708 N   0  0  0  0  0  0  0  0  0  0  0  0
   -9.8417   16.6478   51.1863 H   0  0  0  0  0  0  0  0  0  0  0  0
   -6.8591   18.9373   52.4281 H   0  0  0  0  0  0  0  0  0  0  0  0
   -7.0092   17.3645   53.0694 H   0  0  0  0  0  0  0  0  0  0  0  0
  5  6  2  0  0  0
  5 10  1  0  0  0
  5  4  1  0  0  0
  6  7  1  0  0  0
  7  8  2  0  0  0
  8  9  1  0  0  0
  8 11  1  0  0  0
  9 10  2  0  0  0
  3  2  1  0  0  0
  3  4  1  0  0  0
  2  1  1  0  0  0
 11 12  2  0  0  0
 11 13  1  0  0  0
  1 17  1  0  0  0
 20 21  2  0  0  0
 20 25  1  0  0  0
 20 19  1  0  0  0
 21 22  1  0  0  0
 22 23  2  0  0  0
 23 24  1  0  0  0
 23 26  1  0  0  0
 24 25  2  0  0  0
 18 17  1  0  0  0
 18 19  1  0  0  0
 26 27  2  0  0  0
 26 28  1  0  0  0
 12 14  1  0  0  0
 13 15  1  0  0  0
 13 16  1  0  0  0
 27 29  1  0  0  0
 28 30  1  0  0  0
 28 31  1  0  0  0
M  END
> <minimizedAffinity>
-8.62733

$$$$
3GY3_PNT_A_246


 31 32  0  0  0  0  0  0  0  0999 V2000
  -12.2612   23.4525   48.8788 C   0  0  0  0  0  0  0  0  0  0  0  0
  -11.1069   23.9564   48.0154 C   0  0  0  0  0  0  0  0  0  0  0  0
   -9.7937   23.2504   48.3353 C   0  0  0  0  0  0  0  0  0  0  0  0
  -10.0118   21.8601   48.1563 O   0  0  0  0  0  0  0  0  0  0  0  0
   -9.5736   20.9345   49.0598 C   0  0  0  0  0  0  0  0  0  0  0  0
   -9.1245   21.2885   50.3398 C   0  0  0  0  0  0  0  0  0  0  0  0
   -8.7110   20.3033   51.2236 C   0  0  0  0  0  0  0  0  0  0  0  0
   -8.7485   18.9671   50.8245 C   0  0  0  0  0  0  0  0  0  0  0  0
   -9.2152   18.6161   49.5526 C   0  0  0  0  0  0  0  0  0  0  0  0
   -9.6396   19.5970   48.6698 C   0  0  0  0  0  0  0  0  0  0  0  0
   -8.2995   17.8837   51.7503 C   0  0  0  0  0  0  0  0  0  0  0  0
   -7.4330   18.1120   52.6358 N   0  0  0  0  0  0  0  0  0  0  0  0
   -8.8013   16.6579   51.6087 N   0  0  0  0  0  0  0  0  0  0  0  0
   -7.0625   19.0181   52.7400 H   0  0  0  0  0  0  0  0  0  0  0  0
   -9.4784   16.4802   50.9165 H   0  0  0  0  0  0  0  0  0  0  0  0
   -8.4950   15.9297   52.1962 H   0  0  0  0  0  0  0  0  0  0  0  0
  -13.4072   24.4562   48.8300 C   0  0  0  0  0  0  0  0  0  0  0  0
  -13.0247   25.8704   49.2879 C   0  0  0  0  0  0  0  0  0  0  0  0
  -12.8348   25.9443   50.7090 O   0  0  0  0  0  0  0  0  0  0  0  0
  -13.8065   25.6095   51.6103 C   0  0  0  0  0  0  0  0  0  0  0  0
  -14.9852   26.3673   51.6931 C   0  0  0  0  0  0  0  0  0  0  0  0
  -15.9735   26.0359   52.6083 C   0  0  0  0  0  0  0  0  0  0  0  0
  -15.7775   24.9501   53.4433 C   0  0  0  0  0  0  0  0  0  0  0  0
  -14.5984   24.1913   53.3755 C   0  0  0  0  0  0  0  0  0  0  0  0
  -13.6036   24.5169   52.4493 C   0  0  0  0  0  0  0  0  0  0  0  0
  -16.8397   24.5630   54.4180 C   0  0  0  0  0  0  0  0  0  0  0  0
  -17.4333   25.4418   55.1031 N   0  0  0  0  0  0  0  0  0  0  0  0
  -17.1737   23.2717   54.5031 N   0  0  0  0  0  0  0  0  0  0  0  0
  -17.1709   26.3874   55.0247 H   0  0  0  0  0  0  0  0  0  0  0  0
  -16.6975   22.6031   53.9596 H   0  0  0  0  0  0  0  0  0  0  0  0
  -17.8961   22.9890   55.1094 H   0  0  0  0  0  0  0  0  0  0  0  0
  5  6  2  0  0  0
  5 10  1  0  0  0
  5  4  1  0  0  0
  6  7  1  0  0  0
  7  8  2  0  0  0
  8  9  1  0  0  0
  8 11  1  0  0  0
  9 10  2  0  0  0
  3  2  1  0  0  0
  3  4  1  0  0  0
  2  1  1  0  0  0
 11 12  2  0  0  0
 11 13  1  0  0  0
  1 17  1  0  0  0
 20 21  2  0  0  0
 20 25  1  0  0  0
 20 19  1  0  0  0
 21 22  1  0  0  0
 22 23  2  0  0  0
 23 24  1  0  0  0
 23 26  1  0  0  0
 24 25  2  0  0  0
 18 17  1  0  0  0
 18 19  1  0  0  0
 26 27  2  0  0  0
 26 28  1  0  0  0
 12 14  1  0  0  0
 13 15  1  0  0  0
 13 16  1  0  0  0
 27 29  1  0  0  0
 28 30  1  0  0  0
 28 31  1  0  0  0
M  END
> <minimizedAffinity>
-8.53063

$$$$
3GY3_PNT_A_246


 31 32  0  0  0  0  0  0  0  0999 V2000
  -10.4393   24.7883   49.4157 C   0  0  0  0  0  0  0  0  0  0  0  0
  -11.2410   23.4954   49.5475 C   0  0  0  0  0  0  0  0  0  0  0  0
  -11.0635   22.5787   48.3421 C   0  0  0  0  0  0  0  0  0  0  0  0
   -9.7511   22.0447   48.4122 O   0  0  0  0  0  0  0  0  0  0  0  0
   -9.4438   20.9759   49.2048 C   0  0  0  0  0  0  0  0  0  0  0  0
   -9.7353   19.6562   48.8323 C   0  0  0  0  0  0  0  0  0  0  0  0
   -9.3805   18.6082   49.6681 C   0  0  0  0  0  0  0  0  0  0  0  0
   -8.7349   18.8836   50.8737 C   0  0  0  0  0  0  0  0  0  0  0  0
   -8.4286   20.2010   51.2335 C   0  0  0  0  0  0  0  0  0  0  0  0
   -8.7719   21.2508   50.3959 C   0  0  0  0  0  0  0  0  0  0  0  0
   -8.3496   17.7767   51.8004 C   0  0  0  0  0  0  0  0  0  0  0  0
   -8.7777   16.6061   51.6179 N   0  0  0  0  0  0  0  0  0  0  0  0
   -7.5720   18.0465   52.8478 N   0  0  0  0  0  0  0  0  0  0  0  0
   -9.3523   16.4073   50.8436 H   0  0  0  0  0  0  0  0  0  0  0  0
   -7.2377   18.9615   52.9900 H   0  0  0  0  0  0  0  0  0  0  0  0
   -7.3316   17.3309   53.4798 H   0  0  0  0  0  0  0  0  0  0  0  0
  -10.0470   25.2858   50.8019 C   0  0  0  0  0  0  0  0  0  0  0  0
  -10.3360   24.2892   51.9329 C   0  0  0  0  0  0  0  0  0  0  0  0
  -10.9234   24.9272   53.0770 O   0  0  0  0  0  0  0  0  0  0  0  0
  -12.2404   24.7874   53.4154 C   0  0  0  0  0  0  0  0  0  0  0  0
  -13.2313   24.8028   52.4212 C   0  0  0  0  0  0  0  0  0  0  0  0
  -14.5699   24.6658   52.7579 C   0  0  0  0  0  0  0  0  0  0  0  0
  -14.9149   24.5198   54.0899 C   0  0  0  0  0  0  0  0  0  0  0  0
  -13.9330   24.5127   55.0930 C   0  0  0  0  0  0  0  0  0  0  0  0
  -12.5823   24.6423   54.7574 C   0  0  0  0  0  0  0  0  0  0  0  0
  -16.3480   24.3466   54.4699 C   0  0  0  0  0  0  0  0  0  0  0  0
  -16.9384   25.2211   55.1634 N   0  0  0  0  0  0  0  0  0  0  0  0
  -16.9935   23.2693   54.0125 N   0  0  0  0  0  0  0  0  0  0  0  0
  -16.4434   26.0069   55.4901 H   0  0  0  0  0  0  0  0  0  0  0  0
  -16.5134   22.5999   53.4735 H   0  0  0  0  0  0  0  0  0  0  0  0
  -17.9490   23.1453   54.2147 H   0  0  0  0  0  0  0  0  0  0  0  0
  5  6  2  0  0  0
  5 10  1  0  0  0
  5  4  1  0  0  0
  6  7  1  0  0  0
  7  8  2  0  0  0
  8  9  1  0  0  0
  8 11  1  0  0  0
  9 10  2  0  0  0
  3  2  1  0  0  0
  3  4  1  0  0  0
  2  1  1  0  0  0
 11 12  2  0  0  0
 11 13  1  0  0  0
  1 17  1  0  0  0
 20 21  2  0  0  0
 20 25  1  0  0  0
 20 19  1  0  0  0
 21 22  1  0  0  0
 22 23  2  0  0  0
 23 24  1  0  0  0
 23 26  1  0  0  0
 24 25  2  0  0  0
 18 17  1  0  0  0
 18 19  1  0  0  0
 26 27  2  0  0  0
 26 28  1  0  0  0
 12 14  1  0  0  0
 13 15  1  0  0  0
 13 16  1  0  0  0
 27 29  1  0  0  0
 28 30  1  0  0  0
 28 31  1  0  0  0
M  END
> <minimizedAffinity>
-7.82904

$$$$
3GY3_PNT_A_246


 31 32  0  0  0  0  0  0  0  0999 V2000
  -12.7558   23.8731   48.7953 C   0  0  0  0  0  0  0  0  0  0  0  0
  -13.2134   25.3134   49.0135 C   0  0  0  0  0  0  0  0  0  0  0  0
  -13.1235   25.7341   50.4763 C   0  0  0  0  0  0  0  0  0  0  0  0
  -13.1998   24.5521   51.2571 O   0  0  0  0  0  0  0  0  0  0  0  0
  -13.1602   24.5800   52.6219 C   0  0  0  0  0  0  0  0  0  0  0  0
  -11.9816   24.8436   53.3338 C   0  0  0  0  0  0  0  0  0  0  0  0
  -12.0054   24.8803   54.7197 C   0  0  0  0  0  0  0  0  0  0  0  0
  -13.2082   24.6537   55.3891 C   0  0  0  0  0  0  0  0  0  0  0  0
  -14.3866   24.4095   54.6745 C   0  0  0  0  0  0  0  0  0  0  0  0
  -14.3693   24.3825   53.2887 C   0  0  0  0  0  0  0  0  0  0  0  0
  -13.2638   24.6761   56.8821 C   0  0  0  0  0  0  0  0  0  0  0  0
  -12.7985   23.7201   57.5578 N   0  0  0  0  0  0  0  0  0  0  0  0
  -13.8439   25.7063   57.4958 N   0  0  0  0  0  0  0  0  0  0  0  0
  -12.3699   22.9590   57.1037 H   0  0  0  0  0  0  0  0  0  0  0  0
  -14.2074   26.4530   56.9672 H   0  0  0  0  0  0  0  0  0  0  0  0
  -13.9092   25.7209   58.4780 H   0  0  0  0  0  0  0  0  0  0  0  0
  -11.4367   23.8697   48.0318 C   0  0  0  0  0  0  0  0  0  0  0  0
  -10.2560   23.2841   48.8186 C   0  0  0  0  0  0  0  0  0  0  0  0
   -9.8884   21.9788   48.3477 O   0  0  0  0  0  0  0  0  0  0  0  0
   -9.5025   20.9660   49.1807 C   0  0  0  0  0  0  0  0  0  0  0  0
   -9.0842   21.2485   50.4905 C   0  0  0  0  0  0  0  0  0  0  0  0
   -8.6872   20.2262   51.3397 C   0  0  0  0  0  0  0  0  0  0  0  0
   -8.7037   18.9232   50.8743 C   0  0  0  0  0  0  0  0  0  0  0  0
   -9.1111   18.6304   49.5632 C   0  0  0  0  0  0  0  0  0  0  0  0
   -9.5196   19.6567   48.7069 C   0  0  0  0  0  0  0  0  0  0  0  0
   -8.3033   17.8069   51.7808 C   0  0  0  0  0  0  0  0  0  0  0  0
   -8.7534   16.6410   51.6009 N   0  0  0  0  0  0  0  0  0  0  0  0
   -7.4207   18.0699   52.7494 N   0  0  0  0  0  0  0  0  0  0  0  0
   -9.4030   16.4698   50.8812 H   0  0  0  0  0  0  0  0  0  0  0  0
   -7.0829   18.9865   52.8719 H   0  0  0  0  0  0  0  0  0  0  0  0
   -7.1084   17.3471   53.3404 H   0  0  0  0  0  0  0  0  0  0  0  0
  5  6  2  0  0  0
  5 10  1  0  0  0
  5  4  1  0  0  0
  6  7  1  0  0  0
  7  8  2  0  0  0
  8  9  1  0  0  0
  8 11  1  0  0  0
  9 10  2  0  0  0
  3  2  1  0  0  0
  3  4  1  0  0  0
  2  1  1  0  0  0
 11 12  2  0  0  0
 11 13  1  0  0  0
  1 17  1  0  0  0
 20 21  2  0  0  0
 20 25  1  0  0  0
 20 19  1  0  0  0
 21 22  1  0  0  0
 22 23  2  0  0  0
 23 24  1  0  0  0
 23 26  1  0  0  0
 24 25  2  0  0  0
 18 17  1  0  0  0
 18 19  1  0  0  0
 26 27  2  0  0  0
 26 28  1  0  0  0
 12 14  1  0  0  0
 13 15  1  0  0  0
 13 16  1  0  0  0
 27 29  1  0  0  0
 28 30  1  0  0  0
 28 31  1  0  0  0
M  END
> <minimizedAffinity>
-7.77479

$$$$
3GY3_PNT_A_246


 31 32  0  0  0  0  0  0  0  0999 V2000
  -11.9979   23.4847   50.0313 C   0  0  0  0  0  0  0  0  0  0  0  0
  -11.5199   23.7114   48.5989 C   0  0  0  0  0  0  0  0  0  0  0  0
  -10.1221   23.1513   48.3595 C   0  0  0  0  0  0  0  0  0  0  0  0
  -10.2580   21.7509   48.1780 O   0  0  0  0  0  0  0  0  0  0  0  0
   -9.7446   20.8505   49.0672 C   0  0  0  0  0  0  0  0  0  0  0  0
   -8.9959   21.2429   50.1857 C   0  0  0  0  0  0  0  0  0  0  0  0
   -8.5173   20.2854   51.0670 C   0  0  0  0  0  0  0  0  0  0  0  0
   -8.7896   18.9384   50.8272 C   0  0  0  0  0  0  0  0  0  0  0  0
   -9.5534   18.5518   49.7199 C   0  0  0  0  0  0  0  0  0  0  0  0
  -10.0428   19.5067   48.8422 C   0  0  0  0  0  0  0  0  0  0  0  0
   -8.2787   17.8825   51.7527 C   0  0  0  0  0  0  0  0  0  0  0  0
   -7.4028   18.1529   52.6167 N   0  0  0  0  0  0  0  0  0  0  0  0
   -8.7353   16.6368   51.6333 N   0  0  0  0  0  0  0  0  0  0  0  0
   -7.0657   19.0737   52.7044 H   0  0  0  0  0  0  0  0  0  0  0  0
   -9.4199   16.4260   50.9579 H   0  0  0  0  0  0  0  0  0  0  0  0
   -8.3882   15.9269   52.2205 H   0  0  0  0  0  0  0  0  0  0  0  0
  -12.1309   24.8273   50.7405 C   0  0  0  0  0  0  0  0  0  0  0  0
  -13.4980   25.5012   50.5599 C   0  0  0  0  0  0  0  0  0  0  0  0
  -13.4023   26.7239   49.8138 O   0  0  0  0  0  0  0  0  0  0  0  0
  -14.1048   26.9537   48.6639 C   0  0  0  0  0  0  0  0  0  0  0  0
  -15.4468   27.3609   48.7248 C   0  0  0  0  0  0  0  0  0  0  0  0
  -16.1669   27.5917   47.5620 C   0  0  0  0  0  0  0  0  0  0  0  0
  -15.5443   27.4085   46.3400 C   0  0  0  0  0  0  0  0  0  0  0  0
  -14.2056   26.9924   46.2675 C   0  0  0  0  0  0  0  0  0  0  0  0
  -13.4739   26.7665   47.4368 C   0  0  0  0  0  0  0  0  0  0  0  0
  -16.2952   27.6753   45.0778 C   0  0  0  0  0  0  0  0  0  0  0  0
  -17.5527   27.7874   45.0905 N   0  0  0  0  0  0  0  0  0  0  0  0
  -15.5934   27.8409   43.9524 N   0  0  0  0  0  0  0  0  0  0  0  0
  -18.0497   27.6613   45.9309 H   0  0  0  0  0  0  0  0  0  0  0  0
  -14.6133   27.7489   43.9654 H   0  0  0  0  0  0  0  0  0  0  0  0
  -16.0567   28.0548   43.1104 H   0  0  0  0  0  0  0  0  0  0  0  0
  5  6  2  0  0  0
  5 10  1  0  0  0
  5  4  1  0  0  0
  6  7  1  0  0  0
  7  8  2  0  0  0
  8  9  1  0  0  0
  8 11  1  0  0  0
  9 10  2  0  0  0
  3  2  1  0  0  0
  3  4  1  0  0  0
  2  1  1  0  0  0
 11 12  2  0  0  0
 11 13  1  0  0  0
  1 17  1  0  0  0
 20 21  2  0  0  0
 20 25  1  0  0  0
 20 19  1  0  0  0
 21 22  1  0  0  0
 22 23  2  0  0  0
 23 24  1  0  0  0
 23 26  1  0  0  0
 24 25  2  0  0  0
 18 17  1  0  0  0
 18 19  1  0  0  0
 26 27  2  0  0  0
 26 28  1  0  0  0
 12 14  1  0  0  0
 13 15  1  0  0  0
 13 16  1  0  0  0
 27 29  1  0  0  0
 28 30  1  0  0  0
 28 31  1  0  0  0
M  END
> <minimizedAffinity>
-7.61526

$$$$
3GY3_PNT_A_246


 31 32  0  0  0  0  0  0  0  0999 V2000
   -9.6360   25.0230   48.9253 C   0  0  0  0  0  0  0  0  0  0  0  0
  -10.2799   24.7125   50.2746 C   0  0  0  0  0  0  0  0  0  0  0  0
  -11.0356   25.9080   50.8442 C   0  0  0  0  0  0  0  0  0  0  0  0
  -12.3977   25.5275   50.9558 O   0  0  0  0  0  0  0  0  0  0  0  0
  -13.3788   26.1146   50.2090 C   0  0  0  0  0  0  0  0  0  0  0  0
  -14.1609   27.1720   50.6944 C   0  0  0  0  0  0  0  0  0  0  0  0
  -15.1291   27.7440   49.8832 C   0  0  0  0  0  0  0  0  0  0  0  0
  -15.3116   27.2569   48.5888 C   0  0  0  0  0  0  0  0  0  0  0  0
  -14.5161   26.2137   48.1011 C   0  0  0  0  0  0  0  0  0  0  0  0
  -13.5398   25.6462   48.9051 C   0  0  0  0  0  0  0  0  0  0  0  0
  -16.3539   27.8453   47.6945 C   0  0  0  0  0  0  0  0  0  0  0  0
  -16.5984   27.3356   46.5688 N   0  0  0  0  0  0  0  0  0  0  0  0
  -17.0031   28.9409   48.0855 N   0  0  0  0  0  0  0  0  0  0  0  0
  -16.1183   26.5259   46.2803 H   0  0  0  0  0  0  0  0  0  0  0  0
  -16.8116   29.3388   48.9654 H   0  0  0  0  0  0  0  0  0  0  0  0
  -17.6743   29.3526   47.4946 H   0  0  0  0  0  0  0  0  0  0  0  0
  -10.3098   24.1936   47.8385 C   0  0  0  0  0  0  0  0  0  0  0  0
  -10.7526   22.7972   48.2967 C   0  0  0  0  0  0  0  0  0  0  0  0
   -9.7573   21.7992   48.0241 O   0  0  0  0  0  0  0  0  0  0  0  0
   -9.4109   20.8263   48.9197 C   0  0  0  0  0  0  0  0  0  0  0  0
   -8.9809   21.1738   50.2099 C   0  0  0  0  0  0  0  0  0  0  0  0
   -8.6238   20.1919   51.1223 C   0  0  0  0  0  0  0  0  0  0  0  0
   -8.6919   18.8640   50.7395 C   0  0  0  0  0  0  0  0  0  0  0  0
   -9.1114   18.5057   49.4487 C   0  0  0  0  0  0  0  0  0  0  0  0
   -9.4798   19.4916   48.5289 C   0  0  0  0  0  0  0  0  0  0  0  0
   -8.3351   17.7919   51.7150 C   0  0  0  0  0  0  0  0  0  0  0  0
   -8.7817   16.6196   51.5721 N   0  0  0  0  0  0  0  0  0  0  0  0
   -7.4936   18.0996   52.7067 N   0  0  0  0  0  0  0  0  0  0  0  0
   -9.4007   16.4152   50.8344 H   0  0  0  0  0  0  0  0  0  0  0  0
   -7.1576   19.0203   52.7993 H   0  0  0  0  0  0  0  0  0  0  0  0
   -7.2097   17.4055   53.3446 H   0  0  0  0  0  0  0  0  0  0  0  0
  5  6  2  0  0  0
  5 10  1  0  0  0
  5  4  1  0  0  0
  6  7  1  0  0  0
  7  8  2  0  0  0
  8  9  1  0  0  0
  8 11  1  0  0  0
  9 10  2  0  0  0
  3  2  1  0  0  0
  3  4  1  0  0  0
  2  1  1  0  0  0
 11 12  2  0  0  0
 11 13  1  0  0  0
  1 17  1  0  0  0
 20 21  2  0  0  0
 20 25  1  0  0  0
 20 19  1  0  0  0
 21 22  1  0  0  0
 22 23  2  0  0  0
 23 24  1  0  0  0
 23 26  1  0  0  0
 24 25  2  0  0  0
 18 17  1  0  0  0
 18 19  1  0  0  0
 26 27  2  0  0  0
 26 28  1  0  0  0
 12 14  1  0  0  0
 13 15  1  0  0  0
 13 16  1  0  0  0
 27 29  1  0  0  0
 28 30  1  0  0  0
 28 31  1  0  0  0
M  END
> <minimizedAffinity>
-7.60245

$$$$
3GY3_PNT_A_246


 31 32  0  0  0  0  0  0  0  0999 V2000
  -12.0586   24.2431   48.4295 C   0  0  0  0  0  0  0  0  0  0  0  0
  -10.9638   24.9139   49.2560 C   0  0  0  0  0  0  0  0  0  0  0  0
  -10.1550   23.9095   50.0695 C   0  0  0  0  0  0  0  0  0  0  0  0
  -10.1046   22.7068   49.3187 O   0  0  0  0  0  0  0  0  0  0  0  0
   -9.7078   21.5225   49.8710 C   0  0  0  0  0  0  0  0  0  0  0  0
   -9.8795   20.2942   49.2175 C   0  0  0  0  0  0  0  0  0  0  0  0
   -9.4374   19.1249   49.8175 C   0  0  0  0  0  0  0  0  0  0  0  0
   -8.8245   19.1880   51.0690 C   0  0  0  0  0  0  0  0  0  0  0  0
   -8.6377   20.4182   51.7099 C   0  0  0  0  0  0  0  0  0  0  0  0
   -9.0686   21.5906   51.1088 C   0  0  0  0  0  0  0  0  0  0  0  0
   -8.3471   17.9444   51.7459 C   0  0  0  0  0  0  0  0  0  0  0  0
   -7.2924   17.9509   52.4346 N   0  0  0  0  0  0  0  0  0  0  0  0
   -9.0322   16.8132   51.5861 N   0  0  0  0  0  0  0  0  0  0  0  0
   -6.7865   18.7872   52.5524 H   0  0  0  0  0  0  0  0  0  0  0  0
   -9.8565   16.8088   51.0477 H   0  0  0  0  0  0  0  0  0  0  0  0
   -8.7143   15.9816   52.0063 H   0  0  0  0  0  0  0  0  0  0  0  0
  -13.3564   25.0292   48.5729 C   0  0  0  0  0  0  0  0  0  0  0  0
  -13.3326   26.0848   49.6870 C   0  0  0  0  0  0  0  0  0  0  0  0
  -14.3306   25.8350   50.6882 O   0  0  0  0  0  0  0  0  0  0  0  0
  -14.0266   25.4921   51.9761 C   0  0  0  0  0  0  0  0  0  0  0  0
  -13.1668   24.4135   52.2363 C   0  0  0  0  0  0  0  0  0  0  0  0
  -12.8573   24.0575   53.5407 C   0  0  0  0  0  0  0  0  0  0  0  0
  -13.4141   24.7779   54.5826 C   0  0  0  0  0  0  0  0  0  0  0  0
  -14.2826   25.8523   54.3339 C   0  0  0  0  0  0  0  0  0  0  0  0
  -14.5907   26.2195   53.0209 C   0  0  0  0  0  0  0  0  0  0  0  0
  -13.0741   24.4254   55.9927 C   0  0  0  0  0  0  0  0  0  0  0  0
  -13.7899   24.8371   56.9477 N   0  0  0  0  0  0  0  0  0  0  0  0
  -12.0253   23.6244   56.2046 N   0  0  0  0  0  0  0  0  0  0  0  0
  -14.5579   25.4266   56.7687 H   0  0  0  0  0  0  0  0  0  0  0  0
  -11.4806   23.3152   55.4450 H   0  0  0  0  0  0  0  0  0  0  0  0
  -11.7975   23.3436   57.1203 H   0  0  0  0  0  0  0  0  0  0  0  0
  5  6  2  0  0  0
  5 10  1  0  0  0
  5  4  1  0  0  0
  6  7  1  0  0  0
  7  8  2  0  0  0
  8  9  1  0  0  0
  8 11  1  0  0  0
  9 10  2  0  0  0
  3  2  1  0  0  0
  3  4  1  0  0  0
  2  1  1  0  0  0
 11 12  2  0  0  0
 11 13  1  0  0  0
  1 17  1  0  0  0
 20 21  2  0  0  0
 20 25  1  0  0  0
 20 19  1  0  0  0
 21 22  1  0  0  0
 22 23  2  0  0  0
 23 24  1  0  0  0
 23 26  1  0  0  0
 24 25  2  0  0  0
 18 17  1  0  0  0
 18 19  1  0  0  0
 26 27  2  0  0  0
 26 28  1  0  0  0
 12 14  1  0  0  0
 13 15  1  0  0  0
 13 16  1  0  0  0
 27 29  1  0  0  0
 28 30  1  0  0  0
 28 31  1  0  0  0
M  END
> <minimizedAffinity>
-7.51328

$$$$
3GY3_PNT_A_246


 31 32  0  0  0  0  0  0  0  0999 V2000
  -10.3674   24.0122   50.7289 C   0  0  0  0  0  0  0  0  0  0  0  0
  -10.9758   23.2331   49.5651 C   0  0  0  0  0  0  0  0  0  0  0  0
  -10.0037   23.0789   48.4006 C   0  0  0  0  0  0  0  0  0  0  0  0
   -9.9275   21.6947   48.0995 O   0  0  0  0  0  0  0  0  0  0  0  0
   -9.5078   20.7744   49.0172 C   0  0  0  0  0  0  0  0  0  0  0  0
   -8.6596   21.1086   50.0821 C   0  0  0  0  0  0  0  0  0  0  0  0
   -8.2830   20.1365   50.9964 C   0  0  0  0  0  0  0  0  0  0  0  0
   -8.7564   18.8333   50.8428 C   0  0  0  0  0  0  0  0  0  0  0  0
   -9.6182   18.5076   49.7892 C   0  0  0  0  0  0  0  0  0  0  0  0
  -10.0057   19.4788   48.8791 C   0  0  0  0  0  0  0  0  0  0  0  0
   -8.3599   17.7615   51.8053 C   0  0  0  0  0  0  0  0  0  0  0  0
   -7.3606   17.9099   52.5580 N   0  0  0  0  0  0  0  0  0  0  0  0
   -9.0560   16.6262   51.8373 N   0  0  0  0  0  0  0  0  0  0  0  0
   -6.8466   18.7492   52.5339 H   0  0  0  0  0  0  0  0  0  0  0  0
   -9.8368   16.5108   51.2488 H   0  0  0  0  0  0  0  0  0  0  0  0
   -8.7896   15.9025   52.4493 H   0  0  0  0  0  0  0  0  0  0  0  0
  -11.1414   23.7046   52.0054 C   0  0  0  0  0  0  0  0  0  0  0  0
  -12.5291   24.3571   52.0722 C   0  0  0  0  0  0  0  0  0  0  0  0
  -13.3208   23.8320   53.1485 O   0  0  0  0  0  0  0  0  0  0  0  0
  -14.3023   24.5501   53.7725 C   0  0  0  0  0  0  0  0  0  0  0  0
  -13.9703   25.6566   54.5699 C   0  0  0  0  0  0  0  0  0  0  0  0
  -14.9607   26.3872   55.2095 C   0  0  0  0  0  0  0  0  0  0  0  0
  -16.2817   26.0053   55.0548 C   0  0  0  0  0  0  0  0  0  0  0  0
  -16.6241   24.8947   54.2675 C   0  0  0  0  0  0  0  0  0  0  0  0
  -15.6298   24.1606   53.6147 C   0  0  0  0  0  0  0  0  0  0  0  0
  -17.3637   26.7934   55.7153 C   0  0  0  0  0  0  0  0  0  0  0  0
  -18.3554   26.2110   56.2363 N   0  0  0  0  0  0  0  0  0  0  0  0
  -17.2232   28.1210   55.7810 N   0  0  0  0  0  0  0  0  0  0  0  0
  -18.4388   25.2319   56.1759 H   0  0  0  0  0  0  0  0  0  0  0  0
  -16.4418   28.5543   55.3677 H   0  0  0  0  0  0  0  0  0  0  0  0
  -17.9012   28.6654   56.2427 H   0  0  0  0  0  0  0  0  0  0  0  0
  5  6  2  0  0  0
  5 10  1  0  0  0
  5  4  1  0  0  0
  6  7  1  0  0  0
  7  8  2  0  0  0
  8  9  1  0  0  0
  8 11  1  0  0  0
  9 10  2  0  0  0
  3  2  1  0  0  0
  3  4  1  0  0  0
  2  1  1  0  0  0
 11 12  2  0  0  0
 11 13  1  0  0  0
  1 17  1  0  0  0
 20 21  2  0  0  0
 20 25  1  0  0  0
 20 19  1  0  0  0
 21 22  1  0  0  0
 22 23  2  0  0  0
 23 24  1  0  0  0
 23 26  1  0  0  0
 24 25  2  0  0  0
 18 17  1  0  0  0
 18 19  1  0  0  0
 26 27  2  0  0  0
 26 28  1  0  0  0
 12 14  1  0  0  0
 13 15  1  0  0  0
 13 16  1  0  0  0
 27 29  1  0  0  0
 28 30  1  0  0  0
 28 31  1  0  0  0
M  END
> <minimizedAffinity>
-7.18060

$$$$
3GY3_PNT_A_246


 31 32  0  0  0  0  0  0  0  0999 V2000
  -10.6945   26.3758   49.5787 C   0  0  0  0  0  0  0  0  0  0  0  0
  -11.7559   25.4178   49.0425 C   0  0  0  0  0  0  0  0  0  0  0  0
  -13.1714   25.9400   49.2628 C   0  0  0  0  0  0  0  0  0  0  0  0
  -13.2288   26.4480   50.5861 O   0  0  0  0  0  0  0  0  0  0  0  0
  -14.0895   25.9456   51.5197 C   0  0  0  0  0  0  0  0  0  0  0  0
  -13.7144   24.9424   52.4243 C   0  0  0  0  0  0  0  0  0  0  0  0
  -14.6246   24.4854   53.3653 C   0  0  0  0  0  0  0  0  0  0  0  0
  -15.9069   25.0335   53.3987 C   0  0  0  0  0  0  0  0  0  0  0  0
  -16.2718   26.0481   52.5064 C   0  0  0  0  0  0  0  0  0  0  0  0
  -15.3616   26.5154   51.5711 C   0  0  0  0  0  0  0  0  0  0  0  0
  -16.9133   24.5545   54.3939 C   0  0  0  0  0  0  0  0  0  0  0  0
  -17.4900   25.3647   55.1670 N   0  0  0  0  0  0  0  0  0  0  0  0
  -17.1723   23.2507   54.4806 N   0  0  0  0  0  0  0  0  0  0  0  0
  -17.2981   26.3282   55.1024 H   0  0  0  0  0  0  0  0  0  0  0  0
  -16.7213   22.6179   53.8761 H   0  0  0  0  0  0  0  0  0  0  0  0
  -17.8147   22.9198   55.1492 H   0  0  0  0  0  0  0  0  0  0  0  0
   -9.7319   25.6131   50.4813 C   0  0  0  0  0  0  0  0  0  0  0  0
  -10.3544   24.3954   51.1782 C   0  0  0  0  0  0  0  0  0  0  0  0
   -9.3575   23.4807   51.6582 O   0  0  0  0  0  0  0  0  0  0  0  0
   -9.2949   22.1723   51.2674 C   0  0  0  0  0  0  0  0  0  0  0  0
   -8.5690   21.2415   52.0270 C   0  0  0  0  0  0  0  0  0  0  0  0
   -8.4978   19.9132   51.6341 C   0  0  0  0  0  0  0  0  0  0  0  0
   -9.1482   19.5200   50.4778 C   0  0  0  0  0  0  0  0  0  0  0  0
   -9.8691   20.4444   49.7055 C   0  0  0  0  0  0  0  0  0  0  0  0
   -9.9501   21.7822   50.1023 C   0  0  0  0  0  0  0  0  0  0  0  0
   -9.1036   18.0901   50.0515 C   0  0  0  0  0  0  0  0  0  0  0  0
   -8.7163   17.7781   48.8911 N   0  0  0  0  0  0  0  0  0  0  0  0
   -9.4356   17.1565   50.9485 N   0  0  0  0  0  0  0  0  0  0  0  0
   -8.4767   18.4823   48.2461 H   0  0  0  0  0  0  0  0  0  0  0  0
   -9.7351   17.4224   51.8479 H   0  0  0  0  0  0  0  0  0  0  0  0
   -9.3808   16.2030   50.7098 H   0  0  0  0  0  0  0  0  0  0  0  0
  5  6  2  0  0  0
  5 10  1  0  0  0
  5  4  1  0  0  0
  6  7  1  0  0  0
  7  8  2  0  0  0
  8  9  1  0  0  0
  8 11  1  0  0  0
  9 10  2  0  0  0
  3  2  1  0  0  0
  3  4  1  0  0  0
  2  1  1  0  0  0
 11 12  2  0  0  0
 11 13  1  0  0  0
  1 17  1  0  0  0
 20 21  2  0  0  0
 20 25  1  0  0  0
 20 19  1  0  0  0
 21 22  1  0  0  0
 22 23  2  0  0  0
 23 24  1  0  0  0
 23 26  1  0  0  0
 24 25  2  0  0  0
 18 17  1  0  0  0
 18 19  1  0  0  0
 26 27  2  0  0  0
 26 28  1  0  0  0
 12 14  1  0  0  0
 13 15  1  0  0  0
 13 16  1  0  0  0
 27 29  1  0  0  0
 28 30  1  0  0  0
 28 31  1  0  0  0
M  END
> <minimizedAffinity>
-6.97313

$$$$
3GY3_PNT_A_246


 31 32  0  0  0  0  0  0  0  0999 V2000
   -9.9841   22.1666   49.8827 C   0  0  0  0  0  0  0  0  0  0  0  0
   -9.8619   23.4366   49.0438 C   0  0  0  0  0  0  0  0  0  0  0  0
  -10.9431   23.5292   47.9727 C   0  0  0  0  0  0  0  0  0  0  0  0
  -11.0402   24.8926   47.5930 O   0  0  0  0  0  0  0  0  0  0  0  0
  -12.2393   25.5420   47.5198 C   0  0  0  0  0  0  0  0  0  0  0  0
  -12.5165   26.4985   46.5330 C   0  0  0  0  0  0  0  0  0  0  0  0
  -13.7600   27.1107   46.4945 C   0  0  0  0  0  0  0  0  0  0  0  0
  -14.7226   26.7640   47.4428 C   0  0  0  0  0  0  0  0  0  0  0  0
  -14.4487   25.7950   48.4149 C   0  0  0  0  0  0  0  0  0  0  0  0
  -13.2105   25.1728   48.4504 C   0  0  0  0  0  0  0  0  0  0  0  0
  -16.0680   27.4138   47.4339 C   0  0  0  0  0  0  0  0  0  0  0  0
  -16.5633   27.8827   48.4930 N   0  0  0  0  0  0  0  0  0  0  0  0
  -16.7587   27.4632   46.2959 N   0  0  0  0  0  0  0  0  0  0  0  0
  -16.0523   27.8460   49.3337 H   0  0  0  0  0  0  0  0  0  0  0  0
  -16.3711   27.0965   45.4685 H   0  0  0  0  0  0  0  0  0  0  0  0
  -17.6568   27.8663   46.2823 H   0  0  0  0  0  0  0  0  0  0  0  0
  -10.0340   22.5371   51.3602 C   0  0  0  0  0  0  0  0  0  0  0  0
  -10.0029   24.0475   51.6313 C   0  0  0  0  0  0  0  0  0  0  0  0
  -10.7762   24.4042   52.7869 O   0  0  0  0  0  0  0  0  0  0  0  0
  -12.0842   24.7953   52.7182 C   0  0  0  0  0  0  0  0  0  0  0  0
  -12.4393   25.9539   52.0097 C   0  0  0  0  0  0  0  0  0  0  0  0
  -13.7641   26.3590   51.9394 C   0  0  0  0  0  0  0  0  0  0  0  0
  -14.7305   25.6069   52.5837 C   0  0  0  0  0  0  0  0  0  0  0  0
  -14.3852   24.4520   53.3030 C   0  0  0  0  0  0  0  0  0  0  0  0
  -13.0525   24.0358   53.3696 C   0  0  0  0  0  0  0  0  0  0  0  0
  -16.1644   26.0130   52.4994 C   0  0  0  0  0  0  0  0  0  0  0  0
  -16.5432   26.8565   51.6396 N   0  0  0  0  0  0  0  0  0  0  0  0
  -17.0345   25.4209   53.3233 N   0  0  0  0  0  0  0  0  0  0  0  0
  -15.8850   27.2805   51.0428 H   0  0  0  0  0  0  0  0  0  0  0  0
  -16.7172   24.7660   53.9863 H   0  0  0  0  0  0  0  0  0  0  0  0
  -17.9927   25.6397   53.2671 H   0  0  0  0  0  0  0  0  0  0  0  0
  5  6  2  0  0  0
  5 10  1  0  0  0
  5  4  1  0  0  0
  6  7  1  0  0  0
  7  8  2  0  0  0
  8  9  1  0  0  0
  8 11  1  0  0  0
  9 10  2  0  0  0
  3  2  1  0  0  0
  3  4  1  0  0  0
  2  1  1  0  0  0
 11 12  2  0  0  0
 11 13  1  0  0  0
  1 17  1  0  0  0
 20 21  2  0  0  0
 20 25  1  0  0  0
 20 19  1  0  0  0
 21 22  1  0  0  0
 22 23  2  0  0  0
 23 24  1  0  0  0
 23 26  1  0  0  0
 24 25  2  0  0  0
 18 17  1  0  0  0
 18 19  1  0  0  0
 26 27  2  0  0  0
 26 28  1  0  0  0
 12 14  1  0  0  0
 13 15  1  0  0  0
 13 16  1  0  0  0
 27 29  1  0  0  0
 28 30  1  0  0  0
 28 31  1  0  0  0
M  END
> <minimizedAffinity>
-6.33282

$$$$
