1POT_SPD_A_350


 15 14  0  0  0  0  0  0  0  0999 V2000
   66.1688   42.7383    8.9518 N   0  0  0  0  0  0  0  0  0  0  0  0
   66.9786   43.2493    8.6004 H   0  0  0  0  0  0  0  0  0  0  0  0
   65.7109   41.9543    7.8371 C   0  0  0  0  0  0  0  0  0  0  0  0
   66.4851   40.6819    7.8400 C   0  0  0  0  0  0  0  0  0  0  0  0
   66.5443   39.9913    6.4923 C   0  0  0  0  0  0  0  0  0  0  0  0
   66.3190   40.4552    4.0806 N   0  0  0  0  0  0  0  0  0  0  0  0
   66.3535   41.1184    5.4348 C   0  0  0  0  0  0  0  0  0  0  0  0
   66.1947   41.1641    3.3579 H   0  0  0  0  0  0  0  0  0  0  0  0
   65.5429   39.7942    4.0454 H   0  0  0  0  0  0  0  0  0  0  0  0
   65.4281   43.6830    9.6699 C   0  0  0  0  0  0  0  0  0  0  0  0
   66.3264   44.6507   10.3839 C   0  0  0  0  0  0  0  0  0  0  0  0
   65.5621   45.6170   11.1726 C   0  0  0  0  0  0  0  0  0  0  0  0
   66.2868   46.9453   11.2610 N   0  0  0  0  0  0  0  0  0  0  0  0
   67.1895   46.8105   11.7164 H   0  0  0  0  0  0  0  0  0  0  0  0
   65.7268   47.6026   11.8040 H   0  0  0  0  0  0  0  0  0  0  0  0
  6  7  1  0  0  0
  7  5  1  0  0  0
  5  4  1  0  0  0
  4  3  1  0  0  0
  3  1  1  0  0  0
  1 10  1  0  0  0
 10 11  1  0  0  0
 11 12  1  0  0  0
 12 13  1  0  0  0
  6  8  1  0  0  0
  6  9  1  0  0  0
  1  2  1  0  0  0
 13 14  1  0  0  0
 13 15  1  0  0  0
M  END
> <minimizedAffinity>
-6.62725

$$$$
1POT_SPD_A_350


 15 14  0  0  0  0  0  0  0  0999 V2000
   66.3650   42.2104    8.1859 N   0  0  0  0  0  0  0  0  0  0  0  0
   66.6131   41.3685    8.7055 H   0  0  0  0  0  0  0  0  0  0  0  0
   65.4587   42.9240    9.0440 C   0  0  0  0  0  0  0  0  0  0  0  0
   66.2545   43.9441    9.7819 C   0  0  0  0  0  0  0  0  0  0  0  0
   65.4393   44.7897   10.7396 C   0  0  0  0  0  0  0  0  0  0  0  0
   66.4505   46.9287   11.4358 N   0  0  0  0  0  0  0  0  0  0  0  0
   65.6909   46.2663   10.3137 C   0  0  0  0  0  0  0  0  0  0  0  0
   66.6351   47.9021   11.1933 H   0  0  0  0  0  0  0  0  0  0  0  0
   67.3344   46.4412   11.5822 H   0  0  0  0  0  0  0  0  0  0  0  0
   66.1107   41.7701    6.8828 C   0  0  0  0  0  0  0  0  0  0  0  0
   66.4909   40.3282    6.7115 C   0  0  0  0  0  0  0  0  0  0  0  0
   65.9279   39.7625    5.4855 C   0  0  0  0  0  0  0  0  0  0  0  0
   66.3287   40.5786    4.2727 N   0  0  0  0  0  0  0  0  0  0  0  0
   65.9757   41.5305    4.3717 H   0  0  0  0  0  0  0  0  0  0  0  0
   65.9343   40.1554    3.4327 H   0  0  0  0  0  0  0  0  0  0  0  0
  6  7  1  0  0  0
  7  5  1  0  0  0
  5  4  1  0  0  0
  4  3  1  0  0  0
  3  1  1  0  0  0
  1 10  1  0  0  0
 10 11  1  0  0  0
 11 12  1  0  0  0
 12 13  1  0  0  0
  6  8  1  0  0  0
  6  9  1  0  0  0
  1  2  1  0  0  0
 13 14  1  0  0  0
 13 15  1  0  0  0
M  END
> <minimizedAffinity>
-6.54020

$$$$
1POT_SPD_A_350


 15 14  0  0  0  0  0  0  0  0999 V2000
   66.0889   40.5565    7.0691 N   0  0  0  0  0  0  0  0  0  0  0  0
   65.2204   41.0387    6.8376 H   0  0  0  0  0  0  0  0  0  0  0  0
   66.6820   41.3409    8.1178 C   0  0  0  0  0  0  0  0  0  0  0  0
   65.7041   42.4018    8.4876 C   0  0  0  0  0  0  0  0  0  0  0  0
   66.3285   43.6157    9.1459 C   0  0  0  0  0  0  0  0  0  0  0  0
   65.9582   45.1440   11.0457 N   0  0  0  0  0  0  0  0  0  0  0  0
   65.2700   44.1312   10.1650 C   0  0  0  0  0  0  0  0  0  0  0  0
   65.2942   45.5066   11.7298 H   0  0  0  0  0  0  0  0  0  0  0  0
   66.3084   45.9112   10.4720 H   0  0  0  0  0  0  0  0  0  0  0  0
   66.6658   40.2372    5.8355 C   0  0  0  0  0  0  0  0  0  0  0  0
   66.0433   41.0283    4.7222 C   0  0  0  0  0  0  0  0  0  0  0  0
   66.6235   42.3673    4.6203 C   0  0  0  0  0  0  0  0  0  0  0  0
   66.1792   43.0600    3.3474 N   0  0  0  0  0  0  0  0  0  0  0  0
   66.4898   42.5197    2.5400 H   0  0  0  0  0  0  0  0  0  0  0  0
   66.5869   43.9942    3.3086 H   0  0  0  0  0  0  0  0  0  0  0  0
  6  7  1  0  0  0
  7  5  1  0  0  0
  5  4  1  0  0  0
  4  3  1  0  0  0
  3  1  1  0  0  0
  1 10  1  0  0  0
 10 11  1  0  0  0
 11 12  1  0  0  0
 12 13  1  0  0  0
  6  8  1  0  0  0
  6  9  1  0  0  0
  1  2  1  0  0  0
 13 14  1  0  0  0
 13 15  1  0  0  0
M  END
> <minimizedAffinity>
-5.31447

$$$$
