5OEI_OOG_A_401


 13 12  0  0  0  0  0  0  0  0999 V2000
    9.5799  195.1159   85.9499 C   0  0  0  0  0  0  0  0  0  0  0  0
   10.8351  195.5229   85.2344 C   0  0  0  0  0  0  0  0  0  0  0  0
   10.7732  196.0361   84.1005 O   0  0  0  0  0  0  0  0  0  0  0  0
   12.1587  195.1565   85.8372 C   0  0  0  0  0  0  0  0  0  0  0  0
   12.6367  193.9858   85.6795 O   0  0  0  0  0  0  0  0  0  0  0  0
   12.8061  196.0656   86.3896 O   0  0  0  0  0  0  0  0  0  0  0  0
   12.1243  193.3231   85.2597 H   0  0  0  0  0  0  0  0  0  0  0  0
    9.1617  193.6511   85.7741 C   0  0  0  0  0  0  0  0  0  0  0  0
    8.0317  193.5254   84.7648 C   0  0  0  0  0  0  0  0  0  0  0  0
    8.1789  192.3137   83.8231 C   0  0  0  0  0  0  0  0  0  0  0  0
    7.6460  191.2049   84.2058 O   0  0  0  0  0  0  0  0  0  0  0  0
    8.8347  192.4202   82.7142 O   0  0  0  0  0  0  0  0  0  0  0  0
    9.2088  193.2434   82.4683 H   0  0  0  0  0  0  0  0  0  0  0  0
  9  8  1  0  0  0
  9 10  1  0  0  0
  8  1  1  0  0  0
  1  2  1  0  0  0
  4  5  1  0  0  0
  4  6  2  0  0  0
  4  2  1  0  0  0
  2  3  2  0  0  0
 10 11  2  0  0  0
 10 12  1  0  0  0
  5  7  1  0  0  0
 12 13  1  0  0  0
M  END
> <minimizedAffinity>
-7.37801

$$$$
5OEI_OOG_A_401


 13 12  0  0  0  0  0  0  0  0999 V2000
    8.8333  193.5339   85.5450 C   0  0  0  0  0  0  0  0  0  0  0  0
    7.7080  193.6352   84.5567 C   0  0  0  0  0  0  0  0  0  0  0  0
    7.3047  194.7513   84.1766 O   0  0  0  0  0  0  0  0  0  0  0  0
    6.9809  192.3840   84.1627 C   0  0  0  0  0  0  0  0  0  0  0  0
    5.7792  192.4420   83.7425 O   0  0  0  0  0  0  0  0  0  0  0  0
    7.6319  191.3224   84.1575 O   0  0  0  0  0  0  0  0  0  0  0  0
    5.3158  193.2563   83.7594 H   0  0  0  0  0  0  0  0  0  0  0  0
    9.2638  194.8533   86.1969 C   0  0  0  0  0  0  0  0  0  0  0  0
   10.7785  194.9450   86.2904 C   0  0  0  0  0  0  0  0  0  0  0  0
   11.4215  195.7249   85.1264 C   0  0  0  0  0  0  0  0  0  0  0  0
   12.6077  196.1906   85.3163 O   0  0  0  0  0  0  0  0  0  0  0  0
   10.7714  195.9145   84.0252 O   0  0  0  0  0  0  0  0  0  0  0  0
    9.9099  195.5604   83.9228 H   0  0  0  0  0  0  0  0  0  0  0  0
  9  8  1  0  0  0
  9 10  1  0  0  0
  8  1  1  0  0  0
  1  2  1  0  0  0
  4  5  1  0  0  0
  4  6  2  0  0  0
  4  2  1  0  0  0
  2  3  2  0  0  0
 10 11  2  0  0  0
 10 12  1  0  0  0
  5  7  1  0  0  0
 12 13  1  0  0  0
M  END
> <minimizedAffinity>
-7.02154

$$$$
5OEI_OOG_A_401


 13 12  0  0  0  0  0  0  0  0999 V2000
    8.9462  193.7350   85.7129 C   0  0  0  0  0  0  0  0  0  0  0  0
    8.0293  193.5558   84.5380 C   0  0  0  0  0  0  0  0  0  0  0  0
    7.1022  194.3636   84.3362 O   0  0  0  0  0  0  0  0  0  0  0  0
    8.1514  192.3094   83.7128 C   0  0  0  0  0  0  0  0  0  0  0  0
    8.8300  192.3143   82.6343 O   0  0  0  0  0  0  0  0  0  0  0  0
    7.6635  191.2638   84.1816 O   0  0  0  0  0  0  0  0  0  0  0  0
    9.1841  193.1179   82.3072 H   0  0  0  0  0  0  0  0  0  0  0  0
    9.4971  195.1517   85.9141 C   0  0  0  0  0  0  0  0  0  0  0  0
   10.7052  195.1397   86.8370 C   0  0  0  0  0  0  0  0  0  0  0  0
   12.0510  195.0619   86.0891 C   0  0  0  0  0  0  0  0  0  0  0  0
   12.7019  196.1631   85.9359 O   0  0  0  0  0  0  0  0  0  0  0  0
   12.4775  193.9348   85.6212 O   0  0  0  0  0  0  0  0  0  0  0  0
   11.9769  193.1536   85.7521 H   0  0  0  0  0  0  0  0  0  0  0  0
  9  8  1  0  0  0
  9 10  1  0  0  0
  8  1  1  0  0  0
  1  2  1  0  0  0
  4  5  1  0  0  0
  4  6  2  0  0  0
  4  2  1  0  0  0
  2  3  2  0  0  0
 10 11  2  0  0  0
 10 12  1  0  0  0
  5  7  1  0  0  0
 12 13  1  0  0  0
M  END
> <minimizedAffinity>
-6.98912

$$$$
5OEI_OOG_A_401


 13 12  0  0  0  0  0  0  0  0999 V2000
    9.7696  193.7495   85.9622 C   0  0  0  0  0  0  0  0  0  0  0  0
   10.5808  194.6821   86.8139 C   0  0  0  0  0  0  0  0  0  0  0  0
   10.0275  195.3729   87.6910 O   0  0  0  0  0  0  0  0  0  0  0  0
   12.0302  194.8820   86.4837 C   0  0  0  0  0  0  0  0  0  0  0  0
   12.5979  194.1525   85.6065 O   0  0  0  0  0  0  0  0  0  0  0  0
   12.6088  195.8489   87.0139 O   0  0  0  0  0  0  0  0  0  0  0  0
   12.1355  193.4318   85.2261 H   0  0  0  0  0  0  0  0  0  0  0  0
    8.7310  194.4166   85.0525 C   0  0  0  0  0  0  0  0  0  0  0  0
    7.5694  193.4765   84.7725 C   0  0  0  0  0  0  0  0  0  0  0  0
    7.9546  192.2631   83.9033 C   0  0  0  0  0  0  0  0  0  0  0  0
    7.4664  191.1198   84.2419 O   0  0  0  0  0  0  0  0  0  0  0  0
    8.7550  192.4036   82.8979 O   0  0  0  0  0  0  0  0  0  0  0  0
    9.0906  193.2512   82.6812 H   0  0  0  0  0  0  0  0  0  0  0  0
  9  8  1  0  0  0
  9 10  1  0  0  0
  8  1  1  0  0  0
  1  2  1  0  0  0
  4  5  1  0  0  0
  4  6  2  0  0  0
  4  2  1  0  0  0
  2  3  2  0  0  0
 10 11  2  0  0  0
 10 12  1  0  0  0
  5  7  1  0  0  0
 12 13  1  0  0  0
M  END
> <minimizedAffinity>
-6.83579

$$$$
5OEI_OOG_A_401


 13 12  0  0  0  0  0  0  0  0999 V2000
   10.0354  195.1887   87.3108 C   0  0  0  0  0  0  0  0  0  0  0  0
   11.5216  195.3976   87.3412 C   0  0  0  0  0  0  0  0  0  0  0  0
   12.0703  195.8563   88.3617 O   0  0  0  0  0  0  0  0  0  0  0  0
   12.3031  195.1960   86.0771 C   0  0  0  0  0  0  0  0  0  0  0  0
   12.6701  196.1974   85.3796 O   0  0  0  0  0  0  0  0  0  0  0  0
   12.6664  194.0354   85.8090 O   0  0  0  0  0  0  0  0  0  0  0  0
   12.3795  197.0586   85.6073 H   0  0  0  0  0  0  0  0  0  0  0  0
    9.3653  195.3910   85.9465 C   0  0  0  0  0  0  0  0  0  0  0  0
    8.6056  194.1438   85.5234 C   0  0  0  0  0  0  0  0  0  0  0  0
    7.2188  194.4424   84.9200 C   0  0  0  0  0  0  0  0  0  0  0  0
    6.7550  193.5953   84.0672 O   0  0  0  0  0  0  0  0  0  0  0  0
    6.5770  195.5151   85.2493 O   0  0  0  0  0  0  0  0  0  0  0  0
    6.9457  196.1086   85.8736 H   0  0  0  0  0  0  0  0  0  0  0  0
  9  8  1  0  0  0
  9 10  1  0  0  0
  8  1  1  0  0  0
  1  2  1  0  0  0
  4  5  1  0  0  0
  4  6  2  0  0  0
  4  2  1  0  0  0
  2  3  2  0  0  0
 10 11  2  0  0  0
 10 12  1  0  0  0
  5  7  1  0  0  0
 12 13  1  0  0  0
M  END
> <minimizedAffinity>
-6.59097

$$$$
5OEI_OOG_A_401


 13 12  0  0  0  0  0  0  0  0999 V2000
    9.6437  194.8313   85.5776 C   0  0  0  0  0  0  0  0  0  0  0  0
   10.8872  195.5136   85.0864 C   0  0  0  0  0  0  0  0  0  0  0  0
   10.8445  196.2496   84.0817 O   0  0  0  0  0  0  0  0  0  0  0  0
   12.1988  195.1684   85.7267 C   0  0  0  0  0  0  0  0  0  0  0  0
   12.6492  193.9776   85.6717 O   0  0  0  0  0  0  0  0  0  0  0  0
   12.8655  196.1054   86.2045 O   0  0  0  0  0  0  0  0  0  0  0  0
   12.1228  193.2940   85.3061 H   0  0  0  0  0  0  0  0  0  0  0  0
    9.6227  194.4866   87.0716 C   0  0  0  0  0  0  0  0  0  0  0  0
    9.6841  195.7459   87.9213 C   0  0  0  0  0  0  0  0  0  0  0  0
   10.6212  195.6221   89.1391 C   0  0  0  0  0  0  0  0  0  0  0  0
   10.1102  195.1617   90.2285 O   0  0  0  0  0  0  0  0  0  0  0  0
   11.8565  195.9941   89.0570 O   0  0  0  0  0  0  0  0  0  0  0  0
   12.1936  196.3242   88.2475 H   0  0  0  0  0  0  0  0  0  0  0  0
  9  8  1  0  0  0
  9 10  1  0  0  0
  8  1  1  0  0  0
  1  2  1  0  0  0
  4  5  1  0  0  0
  4  6  2  0  0  0
  4  2  1  0  0  0
  2  3  2  0  0  0
 10 11  2  0  0  0
 10 12  1  0  0  0
  5  7  1  0  0  0
 12 13  1  0  0  0
M  END
> <minimizedAffinity>
-6.44172

$$$$
5OEI_OOG_A_401


 13 12  0  0  0  0  0  0  0  0999 V2000
   10.4039  194.4563   86.6485 C   0  0  0  0  0  0  0  0  0  0  0  0
   11.6642  194.8051   85.9113 C   0  0  0  0  0  0  0  0  0  0  0  0
   12.7544  194.3165   86.2656 O   0  0  0  0  0  0  0  0  0  0  0  0
   11.6090  195.8660   84.8526 C   0  0  0  0  0  0  0  0  0  0  0  0
   10.6270  195.9172   84.0421 O   0  0  0  0  0  0  0  0  0  0  0  0
   12.4921  196.7437   84.8768 O   0  0  0  0  0  0  0  0  0  0  0  0
    9.9785  195.2409   84.0485 H   0  0  0  0  0  0  0  0  0  0  0  0
   10.5223  194.4042   88.1764 C   0  0  0  0  0  0  0  0  0  0  0  0
   10.6469  195.8025   88.7603 C   0  0  0  0  0  0  0  0  0  0  0  0
    9.6766  196.0712   89.9277 C   0  0  0  0  0  0  0  0  0  0  0  0
    9.2073  197.2660   90.0377 O   0  0  0  0  0  0  0  0  0  0  0  0
    9.3800  195.1312   90.7641 O   0  0  0  0  0  0  0  0  0  0  0  0
    9.7405  194.2736   90.6523 H   0  0  0  0  0  0  0  0  0  0  0  0
  9  8  1  0  0  0
  9 10  1  0  0  0
  8  1  1  0  0  0
  1  2  1  0  0  0
  4  5  1  0  0  0
  4  6  2  0  0  0
  4  2  1  0  0  0
  2  3  2  0  0  0
 10 11  2  0  0  0
 10 12  1  0  0  0
  5  7  1  0  0  0
 12 13  1  0  0  0
M  END
> <minimizedAffinity>
-6.39047

$$$$
5OEI_OOG_A_401


 13 12  0  0  0  0  0  0  0  0999 V2000
    9.6651  193.1571   86.7123 C   0  0  0  0  0  0  0  0  0  0  0  0
    9.2602  193.2042   85.2676 C   0  0  0  0  0  0  0  0  0  0  0  0
    9.3857  192.1952   84.5471 O   0  0  0  0  0  0  0  0  0  0  0  0
    8.8561  194.5217   84.6756 C   0  0  0  0  0  0  0  0  0  0  0  0
    9.4026  194.9413   83.6036 O   0  0  0  0  0  0  0  0  0  0  0  0
    7.9012  195.1182   85.2077 O   0  0  0  0  0  0  0  0  0  0  0  0
   10.1198  194.4698   83.2277 H   0  0  0  0  0  0  0  0  0  0  0  0
   10.7322  194.1738   87.1352 C   0  0  0  0  0  0  0  0  0  0  0  0
   11.8738  194.2134   86.1318 C   0  0  0  0  0  0  0  0  0  0  0  0
   12.5563  195.5919   86.0294 C   0  0  0  0  0  0  0  0  0  0  0  0
   13.1922  196.0107   87.0687 O   0  0  0  0  0  0  0  0  0  0  0  0
   12.4606  196.2928   84.9473 O   0  0  0  0  0  0  0  0  0  0  0  0
   11.9897  195.9555   84.2108 H   0  0  0  0  0  0  0  0  0  0  0  0
  9  8  1  0  0  0
  9 10  1  0  0  0
  8  1  1  0  0  0
  1  2  1  0  0  0
  4  5  1  0  0  0
  4  6  2  0  0  0
  4  2  1  0  0  0
  2  3  2  0  0  0
 10 11  2  0  0  0
 10 12  1  0  0  0
  5  7  1  0  0  0
 12 13  1  0  0  0
M  END
> <minimizedAffinity>
-6.16792

$$$$
5OEI_OOG_A_401


 13 12  0  0  0  0  0  0  0  0999 V2000
    9.6596  194.8310   85.4277 C   0  0  0  0  0  0  0  0  0  0  0  0
    8.5233  193.8663   85.2507 C   0  0  0  0  0  0  0  0  0  0  0  0
    8.7356  192.6384   85.2553 O   0  0  0  0  0  0  0  0  0  0  0  0
    7.1659  194.4068   84.9117 C   0  0  0  0  0  0  0  0  0  0  0  0
    6.8029  195.5513   85.3388 O   0  0  0  0  0  0  0  0  0  0  0  0
    6.4708  193.7477   84.1159 O   0  0  0  0  0  0  0  0  0  0  0  0
    7.3484  196.0226   85.9373 H   0  0  0  0  0  0  0  0  0  0  0  0
   10.4216  194.7217   86.7538 C   0  0  0  0  0  0  0  0  0  0  0  0
    9.7632  195.5689   87.8310 C   0  0  0  0  0  0  0  0  0  0  0  0
   10.4552  195.4655   89.2046 C   0  0  0  0  0  0  0  0  0  0  0  0
   11.7154  195.7302   89.2484 O   0  0  0  0  0  0  0  0  0  0  0  0
    9.7874  195.1022   90.2502 O   0  0  0  0  0  0  0  0  0  0  0  0
    8.8714  194.9178   90.1803 H   0  0  0  0  0  0  0  0  0  0  0  0
  9  8  1  0  0  0
  9 10  1  0  0  0
  8  1  1  0  0  0
  1  2  1  0  0  0
  4  5  1  0  0  0
  4  6  2  0  0  0
  4  2  1  0  0  0
  2  3  2  0  0  0
 10 11  2  0  0  0
 10 12  1  0  0  0
  5  7  1  0  0  0
 12 13  1  0  0  0
M  END
> <minimizedAffinity>
-6.08754

$$$$
5OEI_OOG_A_401


 13 12  0  0  0  0  0  0  0  0999 V2000
    9.3731  194.7980   86.3471 C   0  0  0  0  0  0  0  0  0  0  0  0
   10.5639  194.6229   87.2441 C   0  0  0  0  0  0  0  0  0  0  0  0
   11.3376  193.6600   87.0797 O   0  0  0  0  0  0  0  0  0  0  0  0
   10.7122  195.5299   88.4293 C   0  0  0  0  0  0  0  0  0  0  0  0
   11.8614  195.7460   88.9357 O   0  0  0  0  0  0  0  0  0  0  0  0
    9.6957  196.1378   88.8143 O   0  0  0  0  0  0  0  0  0  0  0  0
   12.6073  195.2721   88.6241 H   0  0  0  0  0  0  0  0  0  0  0  0
    8.9219  193.5423   85.5915 C   0  0  0  0  0  0  0  0  0  0  0  0
    7.5811  193.7690   84.9115 C   0  0  0  0  0  0  0  0  0  0  0  0
    7.0317  192.5166   84.2000 C   0  0  0  0  0  0  0  0  0  0  0  0
    7.8345  191.5178   84.0665 O   0  0  0  0  0  0  0  0  0  0  0  0
    5.8231  192.4994   83.7416 O   0  0  0  0  0  0  0  0  0  0  0  0
    5.2674  193.2449   83.8575 H   0  0  0  0  0  0  0  0  0  0  0  0
  9  8  1  0  0  0
  9 10  1  0  0  0
  8  1  1  0  0  0
  1  2  1  0  0  0
  4  5  1  0  0  0
  4  6  2  0  0  0
  4  2  1  0  0  0
  2  3  2  0  0  0
 10 11  2  0  0  0
 10 12  1  0  0  0
  5  7  1  0  0  0
 12 13  1  0  0  0
M  END
> <minimizedAffinity>
-6.01836

$$$$
