2CCB_RBF_A_1067


 32 34  0  0  0  0  0  0  0  0999 V2000
    1.7645   16.8556    0.8497 N   0  0  0  0  0  0  0  0  0  0  0  0
    1.2530   15.6313    0.5747 C   0  0  0  0  0  0  0  0  0  0  0  0
    1.6494   14.6886    1.2928 O   0  0  0  0  0  0  0  0  0  0  0  0
    0.3479   15.4258   -0.3945 N   0  0  0  0  0  0  0  0  0  0  0  0
   -0.0922   16.3818   -1.1995 C   0  0  0  0  0  0  0  0  0  0  0  0
   -0.9374   16.1785   -2.0911 O   0  0  0  0  0  0  0  0  0  0  0  0
    0.4216   17.7517   -0.9773 C   0  0  0  0  0  0  0  0  0  0  0  0
    0.0157   18.7777   -1.7419 N   0  0  0  0  0  0  0  0  0  0  0  0
    0.5110   20.0302   -1.5168 C   0  0  0  0  0  0  0  0  0  0  0  0
    0.0895   21.0773   -2.3198 C   0  0  0  0  0  0  0  0  0  0  0  0
    0.5746   22.3750   -2.1052 C   0  0  0  0  0  0  0  0  0  0  0  0
    0.0744   23.5137   -2.9884 C   0  0  0  0  0  0  0  0  0  0  0  0
    1.5567   22.6108   -1.0200 C   0  0  0  0  0  0  0  0  0  0  0  0
    2.0927   24.0128   -0.7938 C   0  0  0  0  0  0  0  0  0  0  0  0
    2.0054   21.5661   -0.2099 C   0  0  0  0  0  0  0  0  0  0  0  0
    1.4990   20.2679   -0.4321 C   0  0  0  0  0  0  0  0  0  0  0  0
    1.9245   19.1891    0.3849 N   0  0  0  0  0  0  0  0  0  0  0  0
    1.3977   17.9169    0.1096 C   0  0  0  0  0  0  0  0  0  0  0  0
   -0.0082   14.5158   -0.5139 H   0  0  0  0  0  0  0  0  0  0  0  0
    2.9324   19.3506    1.4455 C   0  0  0  0  0  0  0  0  0  0  0  0
    2.4365   19.1510    2.8600 C   0  0  0  0  0  0  0  0  0  0  0  0
    2.5313   20.4234    3.4924 O   0  0  0  0  0  0  0  0  0  0  0  0
    3.4504   20.7320    3.4618 H   0  0  0  0  0  0  0  0  0  0  0  0
    3.2338   18.0452    3.5662 C   0  0  0  0  0  0  0  0  0  0  0  0
    4.0928   17.4027    2.6233 O   0  0  0  0  0  0  0  0  0  0  0  0
    3.5603   17.0239    1.9065 H   0  0  0  0  0  0  0  0  0  0  0  0
    2.2269   17.0689    4.2486 C   0  0  0  0  0  0  0  0  0  0  0  0
    1.5127   17.7877    5.2556 O   0  0  0  0  0  0  0  0  0  0  0  0
    2.1301   18.0773    5.9455 H   0  0  0  0  0  0  0  0  0  0  0  0
    2.8041   15.8003    4.8699 C   0  0  0  0  0  0  0  0  0  0  0  0
    3.1893   14.8491    3.8526 O   0  0  0  0  0  0  0  0  0  0  0  0
    2.4100   14.5991    3.3319 H   0  0  0  0  0  0  0  0  0  0  0  0
  1  2  1  0  0  0
  1 18  2  0  0  0
  2  3  2  0  0  0
  2  4  1  0  0  0
  4  5  1  0  0  0
  5  6  2  0  0  0
  5  7  1  0  0  0
  7  8  2  0  0  0
  7 18  1  0  0  0
  8  9  1  0  0  0
  9 10  2  0  0  0
  9 16  1  0  0  0
 10 11  1  0  0  0
 11 12  1  0  0  0
 11 13  2  0  0  0
 13 14  1  0  0  0
 13 15  1  0  0  0
 15 16  2  0  0  0
 16 17  1  0  0  0
 17 18  1  0  0  0
 17 20  1  0  0  0
 20 21  1  0  0  0
 21 22  1  0  0  0
 21 24  1  0  0  0
 24 25  1  0  0  0
 24 27  1  0  0  0
 27 28  1  0  0  0
 27 30  1  0  0  0
 30 31  1  0  0  0
  4 19  1  0  0  0
 22 23  1  0  0  0
 25 26  1  0  0  0
 28 29  1  0  0  0
 31 32  1  0  0  0
M  END
> <minimizedAffinity>
-7.35442

$$$$
2CCB_RBF_A_1067


 32 34  0  0  0  0  0  0  0  0999 V2000
    2.5018   17.9121    1.9778 N   0  0  0  0  0  0  0  0  0  0  0  0
    3.2064   17.8710    3.1345 C   0  0  0  0  0  0  0  0  0  0  0  0
    3.3344   16.7486    3.6685 O   0  0  0  0  0  0  0  0  0  0  0  0
    3.7679   18.9613    3.6793 N   0  0  0  0  0  0  0  0  0  0  0  0
    3.6478   20.1785    3.1698 C   0  0  0  0  0  0  0  0  0  0  0  0
    4.1795   21.1811    3.6824 O   0  0  0  0  0  0  0  0  0  0  0  0
    2.8846   20.3189    1.9097 C   0  0  0  0  0  0  0  0  0  0  0  0
    2.7277   21.5162    1.3232 N   0  0  0  0  0  0  0  0  0  0  0  0
    2.0139   21.6159    0.1632 C   0  0  0  0  0  0  0  0  0  0  0  0
    1.8531   22.8595   -0.4255 C   0  0  0  0  0  0  0  0  0  0  0  0
    1.1330   22.9898   -1.6214 C   0  0  0  0  0  0  0  0  0  0  0  0
    0.9926   24.3675   -2.2610 C   0  0  0  0  0  0  0  0  0  0  0  0
    0.5311   21.7841   -2.2394 C   0  0  0  0  0  0  0  0  0  0  0  0
   -0.2595   21.9247   -3.5275 C   0  0  0  0  0  0  0  0  0  0  0  0
    0.6690   20.5246   -1.6533 C   0  0  0  0  0  0  0  0  0  0  0  0
    1.4061   20.4090   -0.4557 C   0  0  0  0  0  0  0  0  0  0  0  0
    1.5765   19.1400    0.1550 N   0  0  0  0  0  0  0  0  0  0  0  0
    2.3079   19.0868    1.3525 C   0  0  0  0  0  0  0  0  0  0  0  0
    4.2974   18.8508    4.5019 H   0  0  0  0  0  0  0  0  0  0  0  0
    0.9634   17.9150   -0.3838 C   0  0  0  0  0  0  0  0  0  0  0  0
   -0.4441   17.6228    0.0850 C   0  0  0  0  0  0  0  0  0  0  0  0
   -0.4994   18.0398    1.4455 O   0  0  0  0  0  0  0  0  0  0  0  0
    0.1694   17.5595    1.9583 H   0  0  0  0  0  0  0  0  0  0  0  0
   -0.7927   16.1426   -0.1259 C   0  0  0  0  0  0  0  0  0  0  0  0
   -1.7398   15.7322    0.8612 O   0  0  0  0  0  0  0  0  0  0  0  0
   -1.3628   15.8633    1.7453 H   0  0  0  0  0  0  0  0  0  0  0  0
    0.5285   15.3145   -0.0951 C   0  0  0  0  0  0  0  0  0  0  0  0
    0.5455   14.4484   -1.2312 O   0  0  0  0  0  0  0  0  0  0  0  0
   -0.1832   13.8118   -1.1633 H   0  0  0  0  0  0  0  0  0  0  0  0
    0.7974   14.4842    1.1566 C   0  0  0  0  0  0  0  0  0  0  0  0
    0.8624   15.3198    2.3338 O   0  0  0  0  0  0  0  0  0  0  0  0
    1.5862   15.9584    2.2374 H   0  0  0  0  0  0  0  0  0  0  0  0
  1  2  1  0  0  0
  1 18  2  0  0  0
  2  3  2  0  0  0
  2  4  1  0  0  0
  4  5  1  0  0  0
  5  6  2  0  0  0
  5  7  1  0  0  0
  7  8  2  0  0  0
  7 18  1  0  0  0
  8  9  1  0  0  0
  9 10  2  0  0  0
  9 16  1  0  0  0
 10 11  1  0  0  0
 11 12  1  0  0  0
 11 13  2  0  0  0
 13 14  1  0  0  0
 13 15  1  0  0  0
 15 16  2  0  0  0
 16 17  1  0  0  0
 17 18  1  0  0  0
 17 20  1  0  0  0
 20 21  1  0  0  0
 21 22  1  0  0  0
 21 24  1  0  0  0
 24 25  1  0  0  0
 24 27  1  0  0  0
 27 28  1  0  0  0
 27 30  1  0  0  0
 30 31  1  0  0  0
  4 19  1  0  0  0
 22 23  1  0  0  0
 25 26  1  0  0  0
 28 29  1  0  0  0
 31 32  1  0  0  0
M  END
> <minimizedAffinity>
-7.33015

$$$$
2CCB_RBF_A_1067


 32 34  0  0  0  0  0  0  0  0999 V2000
    3.3974   20.3840    2.1641 N   0  0  0  0  0  0  0  0  0  0  0  0
    4.0339   19.6514    3.1097 C   0  0  0  0  0  0  0  0  0  0  0  0
    4.6811   20.2905    3.9666 O   0  0  0  0  0  0  0  0  0  0  0  0
    3.9633   18.3122    3.1572 N   0  0  0  0  0  0  0  0  0  0  0  0
    3.3108   17.5816    2.2649 C   0  0  0  0  0  0  0  0  0  0  0  0
    3.2480   16.3394    2.3245 O   0  0  0  0  0  0  0  0  0  0  0  0
    2.5930   18.2996    1.1882 C   0  0  0  0  0  0  0  0  0  0  0  0
    1.8984   17.6327    0.2528 N   0  0  0  0  0  0  0  0  0  0  0  0
    1.2500   18.3220   -0.7318 C   0  0  0  0  0  0  0  0  0  0  0  0
    0.5448   17.6196   -1.6952 C   0  0  0  0  0  0  0  0  0  0  0  0
   -0.1378   18.3018   -2.7122 C   0  0  0  0  0  0  0  0  0  0  0  0
   -0.9270   17.5043   -3.7456 C   0  0  0  0  0  0  0  0  0  0  0  0
   -0.0821   19.7827   -2.7545 C   0  0  0  0  0  0  0  0  0  0  0  0
   -0.8101   20.5229   -3.8619 C   0  0  0  0  0  0  0  0  0  0  0  0
    0.6358   20.5078   -1.8018 C   0  0  0  0  0  0  0  0  0  0  0  0
    1.3082   19.8064   -0.7785 C   0  0  0  0  0  0  0  0  0  0  0  0
    2.0331   20.5166    0.2127 N   0  0  0  0  0  0  0  0  0  0  0  0
    2.6936   19.7662    1.1988 C   0  0  0  0  0  0  0  0  0  0  0  0
    4.4209   17.8475    3.8947 H   0  0  0  0  0  0  0  0  0  0  0  0
    2.1654   21.9825    0.1967 C   0  0  0  0  0  0  0  0  0  0  0  0
    0.9928   22.7550    0.7576 C   0  0  0  0  0  0  0  0  0  0  0  0
    1.4165   24.1125    0.8322 O   0  0  0  0  0  0  0  0  0  0  0  0
    2.2046   24.1748    1.3943 H   0  0  0  0  0  0  0  0  0  0  0  0
    0.5476   22.1681    2.1047 C   0  0  0  0  0  0  0  0  0  0  0  0
   -0.8698   21.9929    2.1015 O   0  0  0  0  0  0  0  0  0  0  0  0
   -1.3010   22.8488    1.9518 H   0  0  0  0  0  0  0  0  0  0  0  0
    1.0506   23.1075    3.2435 C   0  0  0  0  0  0  0  0  0  0  0  0
    2.3467   22.6677    3.6526 O   0  0  0  0  0  0  0  0  0  0  0  0
    2.2808   21.7786    4.0346 H   0  0  0  0  0  0  0  0  0  0  0  0
    0.1647   23.2346    4.4795 C   0  0  0  0  0  0  0  0  0  0  0  0
    0.0350   21.9672    5.1617 O   0  0  0  0  0  0  0  0  0  0  0  0
   -0.3738   21.3198    4.5662 H   0  0  0  0  0  0  0  0  0  0  0  0
  1  2  1  0  0  0
  1 18  2  0  0  0
  2  3  2  0  0  0
  2  4  1  0  0  0
  4  5  1  0  0  0
  5  6  2  0  0  0
  5  7  1  0  0  0
  7  8  2  0  0  0
  7 18  1  0  0  0
  8  9  1  0  0  0
  9 10  2  0  0  0
  9 16  1  0  0  0
 10 11  1  0  0  0
 11 12  1  0  0  0
 11 13  2  0  0  0
 13 14  1  0  0  0
 13 15  1  0  0  0
 15 16  2  0  0  0
 16 17  1  0  0  0
 17 18  1  0  0  0
 17 20  1  0  0  0
 20 21  1  0  0  0
 21 22  1  0  0  0
 21 24  1  0  0  0
 24 25  1  0  0  0
 24 27  1  0  0  0
 27 28  1  0  0  0
 27 30  1  0  0  0
 30 31  1  0  0  0
  4 19  1  0  0  0
 22 23  1  0  0  0
 25 26  1  0  0  0
 28 29  1  0  0  0
 31 32  1  0  0  0
M  END
> <minimizedAffinity>
-7.19466

$$$$
2CCB_RBF_A_1067


 32 34  0  0  0  0  0  0  0  0999 V2000
    1.7686   18.5109    0.4560 N   0  0  0  0  0  0  0  0  0  0  0  0
    1.6156   17.1646    0.4420 C   0  0  0  0  0  0  0  0  0  0  0  0
    2.1488   16.5343    1.3801 O   0  0  0  0  0  0  0  0  0  0  0  0
    0.9103   16.5257   -0.5041 N   0  0  0  0  0  0  0  0  0  0  0  0
    0.3418   17.1386   -1.5321 C   0  0  0  0  0  0  0  0  0  0  0  0
   -0.3155   16.5341   -2.3999 O   0  0  0  0  0  0  0  0  0  0  0  0
    0.4668   18.6115   -1.6030 C   0  0  0  0  0  0  0  0  0  0  0  0
   -0.0910   19.3078   -2.6061 N   0  0  0  0  0  0  0  0  0  0  0  0
    0.0452   20.6659   -2.6481 C   0  0  0  0  0  0  0  0  0  0  0  0
   -0.5284   21.3699   -3.6942 C   0  0  0  0  0  0  0  0  0  0  0  0
   -0.4121   22.7656   -3.7575 C   0  0  0  0  0  0  0  0  0  0  0  0
   -1.0748   23.5177   -4.9072 C   0  0  0  0  0  0  0  0  0  0  0  0
    0.3462   23.4778   -2.7012 C   0  0  0  0  0  0  0  0  0  0  0  0
    0.4839   24.9877   -2.7744 C   0  0  0  0  0  0  0  0  0  0  0  0
    0.9445   22.7848   -1.6473 C   0  0  0  0  0  0  0  0  0  0  0  0
    0.8087   21.3814   -1.5924 C   0  0  0  0  0  0  0  0  0  0  0  0
    1.3924   20.6515   -0.5252 N   0  0  0  0  0  0  0  0  0  0  0  0
    1.2367   19.2560   -0.5292 C   0  0  0  0  0  0  0  0  0  0  0  0
    0.8098   15.5491   -0.4304 H   0  0  0  0  0  0  0  0  0  0  0  0
    2.1969   21.2957    0.5258 C   0  0  0  0  0  0  0  0  0  0  0  0
    1.4179   21.9071    1.6685 C   0  0  0  0  0  0  0  0  0  0  0  0
    1.4906   23.3171    1.4832 O   0  0  0  0  0  0  0  0  0  0  0  0
    2.4199   23.5950    1.4774 H   0  0  0  0  0  0  0  0  0  0  0  0
    1.9672   21.4289    3.0202 C   0  0  0  0  0  0  0  0  0  0  0  0
    2.7474   22.4691    3.6109 O   0  0  0  0  0  0  0  0  0  0  0  0
    3.4785   22.7017    3.0173 H   0  0  0  0  0  0  0  0  0  0  0  0
    2.7692   20.1113    2.7895 C   0  0  0  0  0  0  0  0  0  0  0  0
    2.0637   19.0377    3.4144 O   0  0  0  0  0  0  0  0  0  0  0  0
    2.0373   19.1828    4.3731 H   0  0  0  0  0  0  0  0  0  0  0  0
    4.2179   20.0885    3.2683 C   0  0  0  0  0  0  0  0  0  0  0  0
    5.0652   19.3811    2.3357 O   0  0  0  0  0  0  0  0  0  0  0  0
    4.7624   18.4631    2.2558 H   0  0  0  0  0  0  0  0  0  0  0  0
  1  2  1  0  0  0
  1 18  2  0  0  0
  2  3  2  0  0  0
  2  4  1  0  0  0
  4  5  1  0  0  0
  5  6  2  0  0  0
  5  7  1  0  0  0
  7  8  2  0  0  0
  7 18  1  0  0  0
  8  9  1  0  0  0
  9 10  2  0  0  0
  9 16  1  0  0  0
 10 11  1  0  0  0
 11 12  1  0  0  0
 11 13  2  0  0  0
 13 14  1  0  0  0
 13 15  1  0  0  0
 15 16  2  0  0  0
 16 17  1  0  0  0
 17 18  1  0  0  0
 17 20  1  0  0  0
 20 21  1  0  0  0
 21 22  1  0  0  0
 21 24  1  0  0  0
 24 25  1  0  0  0
 24 27  1  0  0  0
 27 28  1  0  0  0
 27 30  1  0  0  0
 30 31  1  0  0  0
  4 19  1  0  0  0
 22 23  1  0  0  0
 25 26  1  0  0  0
 28 29  1  0  0  0
 31 32  1  0  0  0
M  END
> <minimizedAffinity>
-7.12235

$$$$
2CCB_RBF_A_1067


 32 34  0  0  0  0  0  0  0  0999 V2000
    1.6687   23.3729    3.7343 N   0  0  0  0  0  0  0  0  0  0  0  0
    1.4482   24.6494    4.1318 C   0  0  0  0  0  0  0  0  0  0  0  0
    1.8227   24.9450    5.2867 O   0  0  0  0  0  0  0  0  0  0  0  0
    0.8845   25.5692    3.3337 N   0  0  0  0  0  0  0  0  0  0  0  0
    0.4494   25.3082    2.1097 C   0  0  0  0  0  0  0  0  0  0  0  0
   -0.0663   26.1730    1.3771 O   0  0  0  0  0  0  0  0  0  0  0  0
    0.6405   23.9336    1.5959 C   0  0  0  0  0  0  0  0  0  0  0  0
    0.2385   23.5920    0.3615 N   0  0  0  0  0  0  0  0  0  0  0  0
    0.4235   22.3144   -0.0839 C   0  0  0  0  0  0  0  0  0  0  0  0
   -0.0047   21.9746   -1.3568 C   0  0  0  0  0  0  0  0  0  0  0  0
    0.1808   20.6728   -1.8431 C   0  0  0  0  0  0  0  0  0  0  0  0
   -0.2778   20.3328   -3.2576 C   0  0  0  0  0  0  0  0  0  0  0  0
    0.8248   19.6596   -0.9732 C   0  0  0  0  0  0  0  0  0  0  0  0
    1.0154   18.2463   -1.4931 C   0  0  0  0  0  0  0  0  0  0  0  0
    1.2492   19.9784    0.3180 C   0  0  0  0  0  0  0  0  0  0  0  0
    1.0651   21.2960    0.7882 C   0  0  0  0  0  0  0  0  0  0  0  0
    1.5000   21.6539    2.0901 N   0  0  0  0  0  0  0  0  0  0  0  0
    1.2788   22.9754    2.5100 C   0  0  0  0  0  0  0  0  0  0  0  0
    0.7891   26.4873    3.6760 H   0  0  0  0  0  0  0  0  0  0  0  0
    2.1016   20.6818    3.0174 C   0  0  0  0  0  0  0  0  0  0  0  0
    3.5945   20.8059    3.2232 C   0  0  0  0  0  0  0  0  0  0  0  0
    4.0744   21.6036    2.1456 O   0  0  0  0  0  0  0  0  0  0  0  0
    3.8504   21.1777    1.3033 H   0  0  0  0  0  0  0  0  0  0  0  0
    4.2499   19.4203    3.3105 C   0  0  0  0  0  0  0  0  0  0  0  0
    5.1334   19.2419    2.2027 O   0  0  0  0  0  0  0  0  0  0  0  0
    4.6343   19.3231    1.3748 H   0  0  0  0  0  0  0  0  0  0  0  0
    3.1232   18.3442    3.3807 C   0  0  0  0  0  0  0  0  0  0  0  0
    3.1189   17.7794    4.6929 O   0  0  0  0  0  0  0  0  0  0  0  0
    3.9565   17.3153    4.8478 H   0  0  0  0  0  0  0  0  0  0  0  0
    3.1825   17.2107    2.3608 C   0  0  0  0  0  0  0  0  0  0  0  0
    4.3503   16.3845    2.5653 O   0  0  0  0  0  0  0  0  0  0  0  0
    5.1500   16.9233    2.4603 H   0  0  0  0  0  0  0  0  0  0  0  0
  1  2  1  0  0  0
  1 18  2  0  0  0
  2  3  2  0  0  0
  2  4  1  0  0  0
  4  5  1  0  0  0
  5  6  2  0  0  0
  5  7  1  0  0  0
  7  8  2  0  0  0
  7 18  1  0  0  0
  8  9  1  0  0  0
  9 10  2  0  0  0
  9 16  1  0  0  0
 10 11  1  0  0  0
 11 12  1  0  0  0
 11 13  2  0  0  0
 13 14  1  0  0  0
 13 15  1  0  0  0
 15 16  2  0  0  0
 16 17  1  0  0  0
 17 18  1  0  0  0
 17 20  1  0  0  0
 20 21  1  0  0  0
 21 22  1  0  0  0
 21 24  1  0  0  0
 24 25  1  0  0  0
 24 27  1  0  0  0
 27 28  1  0  0  0
 27 30  1  0  0  0
 30 31  1  0  0  0
  4 19  1  0  0  0
 22 23  1  0  0  0
 25 26  1  0  0  0
 28 29  1  0  0  0
 31 32  1  0  0  0
M  END
> <minimizedAffinity>
-7.05785

$$$$
2CCB_RBF_A_1067


 32 34  0  0  0  0  0  0  0  0999 V2000
    2.7249   21.7122    1.5864 N   0  0  0  0  0  0  0  0  0  0  0  0
    3.3439   20.9458    2.5169 C   0  0  0  0  0  0  0  0  0  0  0  0
    3.9234   21.5535    3.4422 O   0  0  0  0  0  0  0  0  0  0  0  0
    3.3241   19.6045    2.4797 N   0  0  0  0  0  0  0  0  0  0  0  0
    2.7445   18.9077    1.5132 C   0  0  0  0  0  0  0  0  0  0  0  0
    2.7281   17.6627    1.4943 O   0  0  0  0  0  0  0  0  0  0  0  0
    2.0513   19.6647    0.4471 C   0  0  0  0  0  0  0  0  0  0  0  0
    1.4294   19.0325   -0.5606 N   0  0  0  0  0  0  0  0  0  0  0  0
    0.8022   19.7576   -1.5331 C   0  0  0  0  0  0  0  0  0  0  0  0
    0.1723   19.0913   -2.5715 C   0  0  0  0  0  0  0  0  0  0  0  0
   -0.4872   19.8103   -3.5784 C   0  0  0  0  0  0  0  0  0  0  0  0
   -1.1938   19.0504   -4.6965 C   0  0  0  0  0  0  0  0  0  0  0  0
   -0.4881   21.2919   -3.5283 C   0  0  0  0  0  0  0  0  0  0  0  0
   -1.1909   22.0726   -4.6241 C   0  0  0  0  0  0  0  0  0  0  0  0
    0.1540   21.9820   -2.4986 C   0  0  0  0  0  0  0  0  0  0  0  0
    0.8037   21.2432   -1.4870 C   0  0  0  0  0  0  0  0  0  0  0  0
    1.4517   21.9162   -0.4195 N   0  0  0  0  0  0  0  0  0  0  0  0
    2.0933   21.1304    0.5514 C   0  0  0  0  0  0  0  0  0  0  0  0
    3.7638   19.1118    3.2099 H   0  0  0  0  0  0  0  0  0  0  0  0
    1.5265   23.3842   -0.3402 C   0  0  0  0  0  0  0  0  0  0  0  0
    2.5244   24.0429   -1.2658 C   0  0  0  0  0  0  0  0  0  0  0  0
    3.8119   23.6750   -0.7809 O   0  0  0  0  0  0  0  0  0  0  0  0
    3.9077   23.9701    0.1381 H   0  0  0  0  0  0  0  0  0  0  0  0
    2.2932   25.5595   -1.3263 C   0  0  0  0  0  0  0  0  0  0  0  0
    0.9994   25.8215   -1.8713 O   0  0  0  0  0  0  0  0  0  0  0  0
    0.9398   25.4394   -2.7609 H   0  0  0  0  0  0  0  0  0  0  0  0
    3.4512   26.2035   -2.1490 C   0  0  0  0  0  0  0  0  0  0  0  0
    4.5376   26.4766   -1.2624 O   0  0  0  0  0  0  0  0  0  0  0  0
    4.2620   27.1364   -0.6070 H   0  0  0  0  0  0  0  0  0  0  0  0
    3.1248   27.4742   -2.9282 C   0  0  0  0  0  0  0  0  0  0  0  0
    2.6715   28.5256   -2.0466 O   0  0  0  0  0  0  0  0  0  0  0  0
    1.8649   28.2395   -1.5900 H   0  0  0  0  0  0  0  0  0  0  0  0
  1  2  1  0  0  0
  1 18  2  0  0  0
  2  3  2  0  0  0
  2  4  1  0  0  0
  4  5  1  0  0  0
  5  6  2  0  0  0
  5  7  1  0  0  0
  7  8  2  0  0  0
  7 18  1  0  0  0
  8  9  1  0  0  0
  9 10  2  0  0  0
  9 16  1  0  0  0
 10 11  1  0  0  0
 11 12  1  0  0  0
 11 13  2  0  0  0
 13 14  1  0  0  0
 13 15  1  0  0  0
 15 16  2  0  0  0
 16 17  1  0  0  0
 17 18  1  0  0  0
 17 20  1  0  0  0
 20 21  1  0  0  0
 21 22  1  0  0  0
 21 24  1  0  0  0
 24 25  1  0  0  0
 24 27  1  0  0  0
 27 28  1  0  0  0
 27 30  1  0  0  0
 30 31  1  0  0  0
  4 19  1  0  0  0
 22 23  1  0  0  0
 25 26  1  0  0  0
 28 29  1  0  0  0
 31 32  1  0  0  0
M  END
> <minimizedAffinity>
-7.03746

$$$$
2CCB_RBF_A_1067


 32 34  0  0  0  0  0  0  0  0999 V2000
    0.0982   22.6373   -2.7186 N   0  0  0  0  0  0  0  0  0  0  0  0
   -0.6522   22.3000   -3.7953 C   0  0  0  0  0  0  0  0  0  0  0  0
   -1.0880   23.2445   -4.4877 O   0  0  0  0  0  0  0  0  0  0  0  0
   -0.9027   21.0256   -4.1326 N   0  0  0  0  0  0  0  0  0  0  0  0
   -0.4852   19.9857   -3.4255 C   0  0  0  0  0  0  0  0  0  0  0  0
   -0.7195   18.8075   -3.7535 O   0  0  0  0  0  0  0  0  0  0  0  0
    0.3347   20.2615   -2.2248 C   0  0  0  0  0  0  0  0  0  0  0  0
    0.8063   19.2626   -1.4621 N   0  0  0  0  0  0  0  0  0  0  0  0
    1.5561   19.5476   -0.3569 C   0  0  0  0  0  0  0  0  0  0  0  0
    2.0283   18.5065    0.4254 C   0  0  0  0  0  0  0  0  0  0  0  0
    2.8081   18.7698    1.5604 C   0  0  0  0  0  0  0  0  0  0  0  0
    3.3358   17.6033    2.3896 C   0  0  0  0  0  0  0  0  0  0  0  0
    3.1072   20.1757    1.9233 C   0  0  0  0  0  0  0  0  0  0  0  0
    3.9410   20.4636    3.1587 C   0  0  0  0  0  0  0  0  0  0  0  0
    2.6277   21.2392    1.1565 C   0  0  0  0  0  0  0  0  0  0  0  0
    1.8535   20.9567    0.0111 C   0  0  0  0  0  0  0  0  0  0  0  0
    1.3653   22.0159   -0.7964 N   0  0  0  0  0  0  0  0  0  0  0  0
    0.5892   21.6762   -1.9162 C   0  0  0  0  0  0  0  0  0  0  0  0
   -1.4248   20.8540   -4.9495 H   0  0  0  0  0  0  0  0  0  0  0  0
    1.5878   23.4319   -0.4617 C   0  0  0  0  0  0  0  0  0  0  0  0
    2.5026   24.1926   -1.3950 C   0  0  0  0  0  0  0  0  0  0  0  0
    3.8147   24.0516   -0.8599 O   0  0  0  0  0  0  0  0  0  0  0  0
    3.8342   24.4010    0.0448 H   0  0  0  0  0  0  0  0  0  0  0  0
    2.0438   25.6506   -1.5396 C   0  0  0  0  0  0  0  0  0  0  0  0
    0.7799   25.6874   -2.2034 O   0  0  0  0  0  0  0  0  0  0  0  0
    0.8617   25.2754   -3.0777 H   0  0  0  0  0  0  0  0  0  0  0  0
    3.1569   26.4470   -2.2874 C   0  0  0  0  0  0  0  0  0  0  0  0
    4.2409   26.6658   -1.3831 O   0  0  0  0  0  0  0  0  0  0  0  0
    3.9425   27.2269   -0.6502 H   0  0  0  0  0  0  0  0  0  0  0  0
    2.7572   27.7843   -2.9041 C   0  0  0  0  0  0  0  0  0  0  0  0
    1.6595   28.3855   -2.1815 O   0  0  0  0  0  0  0  0  0  0  0  0
    0.8887   27.7977   -2.2169 H   0  0  0  0  0  0  0  0  0  0  0  0
  1  2  1  0  0  0
  1 18  2  0  0  0
  2  3  2  0  0  0
  2  4  1  0  0  0
  4  5  1  0  0  0
  5  6  2  0  0  0
  5  7  1  0  0  0
  7  8  2  0  0  0
  7 18  1  0  0  0
  8  9  1  0  0  0
  9 10  2  0  0  0
  9 16  1  0  0  0
 10 11  1  0  0  0
 11 12  1  0  0  0
 11 13  2  0  0  0
 13 14  1  0  0  0
 13 15  1  0  0  0
 15 16  2  0  0  0
 16 17  1  0  0  0
 17 18  1  0  0  0
 17 20  1  0  0  0
 20 21  1  0  0  0
 21 22  1  0  0  0
 21 24  1  0  0  0
 24 25  1  0  0  0
 24 27  1  0  0  0
 27 28  1  0  0  0
 27 30  1  0  0  0
 30 31  1  0  0  0
  4 19  1  0  0  0
 22 23  1  0  0  0
 25 26  1  0  0  0
 28 29  1  0  0  0
 31 32  1  0  0  0
M  END
> <minimizedAffinity>
-6.67241

$$$$
2CCB_RBF_A_1067


 32 34  0  0  0  0  0  0  0  0999 V2000
    2.5934   22.0251    1.0809 N   0  0  0  0  0  0  0  0  0  0  0  0
    3.1147   21.0518    1.8664 C   0  0  0  0  0  0  0  0  0  0  0  0
    3.7757   21.4307    2.8569 O   0  0  0  0  0  0  0  0  0  0  0  0
    2.9202   19.7459    1.6265 N   0  0  0  0  0  0  0  0  0  0  0  0
    2.2472   19.2861    0.5818 C   0  0  0  0  0  0  0  0  0  0  0  0
    2.0688   18.0713    0.3744 O   0  0  0  0  0  0  0  0  0  0  0  0
    1.6499   20.2806   -0.3371 C   0  0  0  0  0  0  0  0  0  0  0  0
    0.9429   19.8959   -1.4114 N   0  0  0  0  0  0  0  0  0  0  0  0
    0.4077   20.8363   -2.2446 C   0  0  0  0  0  0  0  0  0  0  0  0
   -0.3118   20.4239   -3.3542 C   0  0  0  0  0  0  0  0  0  0  0  0
   -0.8802   21.3677   -4.2213 C   0  0  0  0  0  0  0  0  0  0  0  0
   -1.6885   20.8857   -5.4218 C   0  0  0  0  0  0  0  0  0  0  0  0
   -0.6878   22.8118   -3.9466 C   0  0  0  0  0  0  0  0  0  0  0  0
   -1.2918   23.8353   -4.8910 C   0  0  0  0  0  0  0  0  0  0  0  0
    0.0469   23.2472   -2.8423 C   0  0  0  0  0  0  0  0  0  0  0  0
    0.6030   22.2846   -1.9733 C   0  0  0  0  0  0  0  0  0  0  0  0
    1.3415   22.6967   -0.8344 N   0  0  0  0  0  0  0  0  0  0  0  0
    1.8831   21.6953   -0.0125 C   0  0  0  0  0  0  0  0  0  0  0  0
    3.2979   19.0945    2.2607 H   0  0  0  0  0  0  0  0  0  0  0  0
    1.6073   24.1132   -0.5351 C   0  0  0  0  0  0  0  0  0  0  0  0
    2.6763   24.7738   -1.3761 C   0  0  0  0  0  0  0  0  0  0  0  0
    3.9100   24.1860   -0.9756 O   0  0  0  0  0  0  0  0  0  0  0  0
    4.0436   24.3304   -0.0257 H   0  0  0  0  0  0  0  0  0  0  0  0
    2.6330   26.2998   -1.2127 C   0  0  0  0  0  0  0  0  0  0  0  0
    1.8832   26.6313   -0.0432 O   0  0  0  0  0  0  0  0  0  0  0  0
    0.9832   26.2792   -0.1256 H   0  0  0  0  0  0  0  0  0  0  0  0
    2.0467   26.9202   -2.5179 C   0  0  0  0  0  0  0  0  0  0  0  0
    0.6229   26.8153   -2.4680 O   0  0  0  0  0  0  0  0  0  0  0  0
    0.3675   25.8796   -2.4660 H   0  0  0  0  0  0  0  0  0  0  0  0
    2.5337   26.3382   -3.8418 C   0  0  0  0  0  0  0  0  0  0  0  0
    1.4311   26.1019   -4.7456 O   0  0  0  0  0  0  0  0  0  0  0  0
    0.8171   25.4654   -4.3471 H   0  0  0  0  0  0  0  0  0  0  0  0
  1  2  1  0  0  0
  1 18  2  0  0  0
  2  3  2  0  0  0
  2  4  1  0  0  0
  4  5  1  0  0  0
  5  6  2  0  0  0
  5  7  1  0  0  0
  7  8  2  0  0  0
  7 18  1  0  0  0
  8  9  1  0  0  0
  9 10  2  0  0  0
  9 16  1  0  0  0
 10 11  1  0  0  0
 11 12  1  0  0  0
 11 13  2  0  0  0
 13 14  1  0  0  0
 13 15  1  0  0  0
 15 16  2  0  0  0
 16 17  1  0  0  0
 17 18  1  0  0  0
 17 20  1  0  0  0
 20 21  1  0  0  0
 21 22  1  0  0  0
 21 24  1  0  0  0
 24 25  1  0  0  0
 24 27  1  0  0  0
 27 28  1  0  0  0
 27 30  1  0  0  0
 30 31  1  0  0  0
  4 19  1  0  0  0
 22 23  1  0  0  0
 25 26  1  0  0  0
 28 29  1  0  0  0
 31 32  1  0  0  0
M  END
> <minimizedAffinity>
-6.53089

$$$$
2CCB_RBF_A_1067


 32 34  0  0  0  0  0  0  0  0999 V2000
    2.3297   17.0906    1.5736 N   0  0  0  0  0  0  0  0  0  0  0  0
    1.9727   15.7855    1.4993 C   0  0  0  0  0  0  0  0  0  0  0  0
    2.4775   15.0213    2.3494 O   0  0  0  0  0  0  0  0  0  0  0  0
    1.1043   15.3233    0.5866 N   0  0  0  0  0  0  0  0  0  0  0  0
    0.5548   16.0817   -0.3507 C   0  0  0  0  0  0  0  0  0  0  0  0
   -0.2548   15.6410   -1.1879 O   0  0  0  0  0  0  0  0  0  0  0  0
    0.8967   17.5215   -0.3512 C   0  0  0  0  0  0  0  0  0  0  0  0
    0.3725   18.3589   -1.2601 N   0  0  0  0  0  0  0  0  0  0  0  0
    0.7103   19.6820   -1.2391 C   0  0  0  0  0  0  0  0  0  0  0  0
    0.1682   20.5322   -2.1890 C   0  0  0  0  0  0  0  0  0  0  0  0
    0.4903   21.8967   -2.1853 C   0  0  0  0  0  0  0  0  0  0  0  0
   -0.1405   22.8146   -3.2275 C   0  0  0  0  0  0  0  0  0  0  0  0
    1.4310   22.4159   -1.1639 C   0  0  0  0  0  0  0  0  0  0  0  0
    1.7908   23.8906   -1.1657 C   0  0  0  0  0  0  0  0  0  0  0  0
    1.9997   21.5724   -0.2079 C   0  0  0  0  0  0  0  0  0  0  0  0
    1.6565   20.2038   -0.2186 C   0  0  0  0  0  0  0  0  0  0  0  0
    2.2063   19.3251    0.7499 N   0  0  0  0  0  0  0  0  0  0  0  0
    1.8399   17.9712    0.6829 C   0  0  0  0  0  0  0  0  0  0  0  0
    0.8624   14.3694    0.6151 H   0  0  0  0  0  0  0  0  0  0  0  0
    3.1816   19.7709    1.7582 C   0  0  0  0  0  0  0  0  0  0  0  0
    2.6060   20.1740    3.0971 C   0  0  0  0  0  0  0  0  0  0  0  0
    1.8595   19.0520    3.5573 O   0  0  0  0  0  0  0  0  0  0  0  0
    1.1721   18.8330    2.9089 H   0  0  0  0  0  0  0  0  0  0  0  0
    1.7784   21.4609    2.9695 C   0  0  0  0  0  0  0  0  0  0  0  0
    2.4744   22.5376    3.5987 O   0  0  0  0  0  0  0  0  0  0  0  0
    2.6196   22.3260    4.5342 H   0  0  0  0  0  0  0  0  0  0  0  0
    0.3651   21.2017    3.5759 C   0  0  0  0  0  0  0  0  0  0  0  0
   -0.4820   20.6907    2.5452 O   0  0  0  0  0  0  0  0  0  0  0  0
   -0.5945   21.3637    1.8558 H   0  0  0  0  0  0  0  0  0  0  0  0
   -0.3323   22.3856    4.2396 C   0  0  0  0  0  0  0  0  0  0  0  0
   -0.2817   23.5600    3.3991 O   0  0  0  0  0  0  0  0  0  0  0  0
    0.6434   23.8068    3.2437 H   0  0  0  0  0  0  0  0  0  0  0  0
  1  2  1  0  0  0
  1 18  2  0  0  0
  2  3  2  0  0  0
  2  4  1  0  0  0
  4  5  1  0  0  0
  5  6  2  0  0  0
  5  7  1  0  0  0
  7  8  2  0  0  0
  7 18  1  0  0  0
  8  9  1  0  0  0
  9 10  2  0  0  0
  9 16  1  0  0  0
 10 11  1  0  0  0
 11 12  1  0  0  0
 11 13  2  0  0  0
 13 14  1  0  0  0
 13 15  1  0  0  0
 15 16  2  0  0  0
 16 17  1  0  0  0
 17 18  1  0  0  0
 17 20  1  0  0  0
 20 21  1  0  0  0
 21 22  1  0  0  0
 21 24  1  0  0  0
 24 25  1  0  0  0
 24 27  1  0  0  0
 27 28  1  0  0  0
 27 30  1  0  0  0
 30 31  1  0  0  0
  4 19  1  0  0  0
 22 23  1  0  0  0
 25 26  1  0  0  0
 28 29  1  0  0  0
 31 32  1  0  0  0
M  END
> <minimizedAffinity>
-6.42279

$$$$
2CCB_RBF_A_1067


 32 34  0  0  0  0  0  0  0  0999 V2000
    2.9642   19.0693    2.5717 N   0  0  0  0  0  0  0  0  0  0  0  0
    3.6942   20.1833    2.8215 C   0  0  0  0  0  0  0  0  0  0  0  0
    4.4966   20.1199    3.7773 O   0  0  0  0  0  0  0  0  0  0  0  0
    3.5955   21.2956    2.0773 N   0  0  0  0  0  0  0  0  0  0  0  0
    2.7486   21.4273    1.0668 C   0  0  0  0  0  0  0  0  0  0  0  0
    2.6717   22.4633    0.3802 O   0  0  0  0  0  0  0  0  0  0  0  0
    1.9026   20.2612    0.7286 C   0  0  0  0  0  0  0  0  0  0  0  0
    1.0282   20.3099   -0.2887 N   0  0  0  0  0  0  0  0  0  0  0  0
    0.2570   19.2197   -0.5744 C   0  0  0  0  0  0  0  0  0  0  0  0
   -0.6472   19.2882   -1.6216 C   0  0  0  0  0  0  0  0  0  0  0  0
   -1.4450   18.1809   -1.9429 C   0  0  0  0  0  0  0  0  0  0  0  0
   -2.4144   18.2757   -3.1168 C   0  0  0  0  0  0  0  0  0  0  0  0
   -1.3221   16.9419   -1.1381 C   0  0  0  0  0  0  0  0  0  0  0  0
   -2.1938   15.7461   -1.4763 C   0  0  0  0  0  0  0  0  0  0  0  0
   -0.4279   16.8584   -0.0693 C   0  0  0  0  0  0  0  0  0  0  0  0
    0.3756   17.9780    0.2338 C   0  0  0  0  0  0  0  0  0  0  0  0
    1.3045   17.9179    1.3043 N   0  0  0  0  0  0  0  0  0  0  0  0
    2.0679   19.0663    1.5690 C   0  0  0  0  0  0  0  0  0  0  0  0
    4.1840   22.0545    2.2938 H   0  0  0  0  0  0  0  0  0  0  0  0
    1.4382   16.7342    2.1690 C   0  0  0  0  0  0  0  0  0  0  0  0
    0.4952   16.6718    3.3494 C   0  0  0  0  0  0  0  0  0  0  0  0
    0.2943   18.0196    3.7630 O   0  0  0  0  0  0  0  0  0  0  0  0
    1.1485   18.4184    3.9915 H   0  0  0  0  0  0  0  0  0  0  0  0
    1.0587   15.7616    4.4499 C   0  0  0  0  0  0  0  0  0  0  0  0
    0.0574   14.8256    4.8513 O   0  0  0  0  0  0  0  0  0  0  0  0
   -0.7196   15.3044    5.1800 H   0  0  0  0  0  0  0  0  0  0  0  0
    1.5695   16.6581    5.6194 C   0  0  0  0  0  0  0  0  0  0  0  0
    2.7227   17.3720    5.1709 O   0  0  0  0  0  0  0  0  0  0  0  0
    3.4343   16.7439    4.9710 H   0  0  0  0  0  0  0  0  0  0  0  0
    1.9077   15.9584    6.9326 C   0  0  0  0  0  0  0  0  0  0  0  0
    3.3304   15.9812    7.1853 O   0  0  0  0  0  0  0  0  0  0  0  0
    3.7931   15.5160    6.4709 H   0  0  0  0  0  0  0  0  0  0  0  0
  1  2  1  0  0  0
  1 18  2  0  0  0
  2  3  2  0  0  0
  2  4  1  0  0  0
  4  5  1  0  0  0
  5  6  2  0  0  0
  5  7  1  0  0  0
  7  8  2  0  0  0
  7 18  1  0  0  0
  8  9  1  0  0  0
  9 10  2  0  0  0
  9 16  1  0  0  0
 10 11  1  0  0  0
 11 12  1  0  0  0
 11 13  2  0  0  0
 13 14  1  0  0  0
 13 15  1  0  0  0
 15 16  2  0  0  0
 16 17  1  0  0  0
 17 18  1  0  0  0
 17 20  1  0  0  0
 20 21  1  0  0  0
 21 22  1  0  0  0
 21 24  1  0  0  0
 24 25  1  0  0  0
 24 27  1  0  0  0
 27 28  1  0  0  0
 27 30  1  0  0  0
 30 31  1  0  0  0
  4 19  1  0  0  0
 22 23  1  0  0  0
 25 26  1  0  0  0
 28 29  1  0  0  0
 31 32  1  0  0  0
M  END
> <minimizedAffinity>
-6.31367

$$$$
