4O04_2Q8_A_4000


 28 31  0  0  0  0  0  0  0  0999 V2000
    8.3287  -12.4360  -24.3413 O   0  0  0  0  0  0  0  0  0  0  0  0
    7.1658  -12.8228  -24.3499 C   0  0  0  0  0  0  0  0  0  0  0  0
    6.8496  -14.2662  -24.6760 C   0  0  0  0  0  0  0  0  0  0  0  0
    5.5353  -14.4980  -25.4400 C   0  0  0  0  0  0  0  0  0  0  0  0
    5.2247  -15.9920  -25.4999 C   0  0  0  0  0  0  0  0  0  0  0  0
    5.6587  -13.9638  -26.8716 C   0  0  0  0  0  0  0  0  0  0  0  0
    6.0368  -11.9054  -24.0909 C   0  0  0  0  0  0  0  0  0  0  0  0
    5.9228  -10.5096  -23.7419 C   0  0  0  0  0  0  0  0  0  0  0  0
    7.0474   -9.5327  -23.4949 C   0  0  0  0  0  0  0  0  0  0  0  0
    6.4818   -8.1125  -23.5229 C   0  0  0  0  0  0  0  0  0  0  0  0
    5.2207   -7.9573  -22.7989 N   0  0  0  0  0  0  0  0  0  0  0  0
    4.8048   -6.5473  -22.7686 C   0  0  0  0  0  0  0  0  0  0  0  0
    4.1726   -8.7881  -23.3865 C   0  0  0  0  0  0  0  0  0  0  0  0
    4.5856  -10.1909  -23.7065 C   0  0  0  0  0  0  0  0  0  0  0  0
    3.8663  -11.3300  -24.0260 N   0  0  0  0  0  0  0  0  0  0  0  0
    4.7481  -12.3801  -24.2648 C   0  0  0  0  0  0  0  0  0  0  0  0
    4.4040  -13.7741  -24.6982 C   0  0  0  0  0  0  0  0  0  0  0  0
    2.4268  -11.3853  -24.1462 C   0  0  0  0  0  0  0  0  0  0  0  0
    1.7040  -12.3518  -23.4399 C   0  0  0  0  0  0  0  0  0  0  0  0
    0.3237  -12.4025  -23.5501 C   0  0  0  0  0  0  0  0  0  0  0  0
   -0.3656  -11.4846  -24.3466 C   0  0  0  0  0  0  0  0  0  0  0  0
    0.3615  -10.5198  -25.0488 C   0  0  0  0  0  0  0  0  0  0  0  0
    1.7469  -10.4694  -24.9600 C   0  0  0  0  0  0  0  0  0  0  0  0
   -1.8713  -11.5390  -24.3923 C   0  0  0  0  0  0  0  0  0  0  0  0
   -2.4722  -11.2802  -25.5487 N   0  0  0  0  0  0  0  0  0  0  0  0
   -2.4971  -11.8083  -23.3651 O   0  0  0  0  0  0  0  0  0  0  0  0
   -3.4544  -11.3079  -25.6102 H   0  0  0  0  0  0  0  0  0  0  0  0
   -1.9352  -11.0607  -26.3442 H   0  0  0  0  0  0  0  0  0  0  0  0
  6  4  1  0  0  0
 26 24  2  0  0  0
  5  4  1  0  0  0
  4 17  1  0  0  0
  4  3  1  0  0  0
 20 19  2  0  0  0
 20 21  1  0  0  0
 19 18  1  0  0  0
 24 21  1  0  0  0
 24 25  1  0  0  0
 17 16  1  0  0  0
 21 22  2  0  0  0
  3  2  1  0  0  0
 18 15  1  0  0  0
 18 23  2  0  0  0
 16 15  1  0  0  0
 16  7  2  0  0  0
  2  1  2  0  0  0
  2  7  1  0  0  0
 15 14  1  0  0  0
  7  8  1  0  0  0
 22 23  1  0  0  0
 14  8  2  0  0  0
 14 13  1  0  0  0
  8  9  1  0  0  0
 13 11  1  0  0  0
 10  9  1  0  0  0
 10 11  1  0  0  0
 11 12  1  0  0  0
 25 27  1  0  0  0
 25 28  1  0  0  0
M  END
> <minimizedAffinity>
-12.35581

$$$$
4O04_2Q8_A_4000


 28 31  0  0  0  0  0  0  0  0999 V2000
    8.1467  -10.2271  -23.6173 O   0  0  0  0  0  0  0  0  0  0  0  0
    6.9674   -9.8947  -23.6409 C   0  0  0  0  0  0  0  0  0  0  0  0
    6.5655   -8.4966  -23.2245 C   0  0  0  0  0  0  0  0  0  0  0  0
    5.2054   -8.3839  -22.5155 C   0  0  0  0  0  0  0  0  0  0  0  0
    4.8198   -6.9145  -22.3601 C   0  0  0  0  0  0  0  0  0  0  0  0
    5.2846   -9.0212  -21.1235 C   0  0  0  0  0  0  0  0  0  0  0  0
    5.8985  -10.8391  -24.0270 C   0  0  0  0  0  0  0  0  0  0  0  0
    5.8700  -12.2075  -24.4852 C   0  0  0  0  0  0  0  0  0  0  0  0
    7.0517  -13.1108  -24.7452 C   0  0  0  0  0  0  0  0  0  0  0  0
    6.5555  -14.5529  -24.8537 C   0  0  0  0  0  0  0  0  0  0  0  0
    5.3404  -14.7081  -25.6525 N   0  0  0  0  0  0  0  0  0  0  0  0
    4.9958  -16.1288  -25.8104 C   0  0  0  0  0  0  0  0  0  0  0  0
    4.2255  -13.9732  -25.0602 C   0  0  0  0  0  0  0  0  0  0  0  0
    4.5533  -12.5823  -24.6147 C   0  0  0  0  0  0  0  0  0  0  0  0
    3.7644  -11.5048  -24.2489 N   0  0  0  0  0  0  0  0  0  0  0  0
    4.5812  -10.4378  -23.8860 C   0  0  0  0  0  0  0  0  0  0  0  0
    4.1486   -9.0984  -23.3680 C   0  0  0  0  0  0  0  0  0  0  0  0
    2.3198  -11.5237  -24.2007 C   0  0  0  0  0  0  0  0  0  0  0  0
    1.5837  -10.6209  -24.9745 C   0  0  0  0  0  0  0  0  0  0  0  0
    0.1989  -10.6416  -24.9332 C   0  0  0  0  0  0  0  0  0  0  0  0
   -0.4804  -11.5694  -24.1398 C   0  0  0  0  0  0  0  0  0  0  0  0
    0.2600  -12.4704  -23.3700 C   0  0  0  0  0  0  0  0  0  0  0  0
    1.6489  -12.4485  -23.3897 C   0  0  0  0  0  0  0  0  0  0  0  0
   -1.9873  -11.5952  -24.1693 C   0  0  0  0  0  0  0  0  0  0  0  0
   -2.5984  -11.2028  -25.2820 N   0  0  0  0  0  0  0  0  0  0  0  0
   -2.6046  -11.9647  -23.1684 O   0  0  0  0  0  0  0  0  0  0  0  0
   -3.5816  -11.2084  -25.3318 H   0  0  0  0  0  0  0  0  0  0  0  0
   -2.0680  -10.9066  -26.0567 H   0  0  0  0  0  0  0  0  0  0  0  0
  6  4  1  0  0  0
 26 24  2  0  0  0
  5  4  1  0  0  0
  4 17  1  0  0  0
  4  3  1  0  0  0
 20 19  2  0  0  0
 20 21  1  0  0  0
 19 18  1  0  0  0
 24 21  1  0  0  0
 24 25  1  0  0  0
 17 16  1  0  0  0
 21 22  2  0  0  0
  3  2  1  0  0  0
 18 15  1  0  0  0
 18 23  2  0  0  0
 16 15  1  0  0  0
 16  7  2  0  0  0
  2  1  2  0  0  0
  2  7  1  0  0  0
 15 14  1  0  0  0
  7  8  1  0  0  0
 22 23  1  0  0  0
 14  8  2  0  0  0
 14 13  1  0  0  0
  8  9  1  0  0  0
 13 11  1  0  0  0
 10  9  1  0  0  0
 10 11  1  0  0  0
 11 12  1  0  0  0
 25 27  1  0  0  0
 25 28  1  0  0  0
M  END
> <minimizedAffinity>
-11.17355

$$$$
