2GKL_PD2_A_2


 14 14  0  0  0  0  0  0  0  0999 V2000
   18.1018   46.4899   69.1636 C   0  0  0  0  0  0  0  0  0  0  0  0
   18.0887   47.0303   67.8812 C   0  0  0  0  0  0  0  0  0  0  0  0
   16.9553   47.6999   67.4147 C   0  0  0  0  0  0  0  0  0  0  0  0
   16.9644   46.6344   69.9624 C   0  0  0  0  0  0  0  0  0  0  0  0
   15.8464   47.2977   69.4384 C   0  0  0  0  0  0  0  0  0  0  0  0
   15.8816   47.8149   68.1907 N   0  0  0  0  0  0  0  0  0  0  0  0
   19.2319   44.8783   70.5324 O   0  0  0  0  0  0  0  0  0  0  0  0
   19.3354   45.7869   69.6710 C   0  0  0  0  0  0  0  0  0  0  0  0
   20.4487   46.1515   69.2240 O   0  0  0  0  0  0  0  0  0  0  0  0
   20.4956   46.8320   68.5817 H   0  0  0  0  0  0  0  0  0  0  0  0
   14.5943   47.4837   70.2560 C   0  0  0  0  0  0  0  0  0  0  0  0
   13.6995   48.2699   69.8451 O   0  0  0  0  0  0  0  0  0  0  0  0
   14.4924   46.8387   71.3228 O   0  0  0  0  0  0  0  0  0  0  0  0
   15.1826   46.2645   71.5908 H   0  0  0  0  0  0  0  0  0  0  0  0
  7  8  2  0  0  0
  8  9  1  0  0  0
  8  1  1  0  0  0
  1  2  2  0  0  0
  1  4  1  0  0  0
  2  3  1  0  0  0
  3  6  2  0  0  0
  4  5  2  0  0  0
  5  6  1  0  0  0
  5 11  1  0  0  0
 11 12  2  0  0  0
 11 13  1  0  0  0
  9 10  1  0  0  0
 13 14  1  0  0  0
M  END
> <minimizedAffinity>
-6.42213

$$$$
2GKL_PD2_A_2


 14 14  0  0  0  0  0  0  0  0999 V2000
   15.8877   47.3155   69.4244 C   0  0  0  0  0  0  0  0  0  0  0  0
   15.9773   47.8371   68.1373 C   0  0  0  0  0  0  0  0  0  0  0  0
   17.1482   47.6714   67.3942 C   0  0  0  0  0  0  0  0  0  0  0  0
   16.9873   46.6292   69.9465 C   0  0  0  0  0  0  0  0  0  0  0  0
   18.1454   46.5089   69.1664 C   0  0  0  0  0  0  0  0  0  0  0  0
   18.1846   47.0232   67.9177 N   0  0  0  0  0  0  0  0  0  0  0  0
   13.7330   48.2859   69.8284 O   0  0  0  0  0  0  0  0  0  0  0  0
   14.6139   47.4778   70.2147 C   0  0  0  0  0  0  0  0  0  0  0  0
   14.4795   46.8036   71.2632 O   0  0  0  0  0  0  0  0  0  0  0  0
   15.1534   46.2083   71.5270 H   0  0  0  0  0  0  0  0  0  0  0  0
   19.3596   45.7778   69.6785 C   0  0  0  0  0  0  0  0  0  0  0  0
   20.4976   46.0814   69.2310 O   0  0  0  0  0  0  0  0  0  0  0  0
   19.1853   44.8889   70.5409 O   0  0  0  0  0  0  0  0  0  0  0  0
   18.3208   44.6952   70.8460 H   0  0  0  0  0  0  0  0  0  0  0  0
  7  8  2  0  0  0
  8  9  1  0  0  0
  8  1  1  0  0  0
  1  2  2  0  0  0
  1  4  1  0  0  0
  2  3  1  0  0  0
  3  6  2  0  0  0
  4  5  2  0  0  0
  5  6  1  0  0  0
  5 11  1  0  0  0
 11 12  2  0  0  0
 11 13  1  0  0  0
  9 10  1  0  0  0
 13 14  1  0  0  0
M  END
> <minimizedAffinity>
-6.37638

$$$$
2GKL_PD2_A_2


 14 14  0  0  0  0  0  0  0  0999 V2000
   16.2201   49.6958   69.0328 C   0  0  0  0  0  0  0  0  0  0  0  0
   14.8297   49.7560   69.0227 C   0  0  0  0  0  0  0  0  0  0  0  0
   14.0795   48.7152   69.5746 C   0  0  0  0  0  0  0  0  0  0  0  0
   16.8376   48.5800   69.6038 C   0  0  0  0  0  0  0  0  0  0  0  0
   16.0378   47.5541   70.1256 C   0  0  0  0  0  0  0  0  0  0  0  0
   14.6910   47.6590   70.1028 N   0  0  0  0  0  0  0  0  0  0  0  0
   16.4593   51.9065   68.1364 O   0  0  0  0  0  0  0  0  0  0  0  0
   17.0262   50.8318   68.4556 C   0  0  0  0  0  0  0  0  0  0  0  0
   18.2569   50.6582   68.2902 O   0  0  0  0  0  0  0  0  0  0  0  0
   18.6529   49.8459   68.5377 H   0  0  0  0  0  0  0  0  0  0  0  0
   16.6503   46.3292   70.7545 C   0  0  0  0  0  0  0  0  0  0  0  0
   17.8591   46.0567   70.5260 O   0  0  0  0  0  0  0  0  0  0  0  0
   15.9238   45.6251   71.4899 O   0  0  0  0  0  0  0  0  0  0  0  0
   15.0293   45.8649   71.6326 H   0  0  0  0  0  0  0  0  0  0  0  0
  7  8  2  0  0  0
  8  9  1  0  0  0
  8  1  1  0  0  0
  1  2  2  0  0  0
  1  4  1  0  0  0
  2  3  1  0  0  0
  3  6  2  0  0  0
  4  5  2  0  0  0
  5  6  1  0  0  0
  5 11  1  0  0  0
 11 12  2  0  0  0
 11 13  1  0  0  0
  9 10  1  0  0  0
 13 14  1  0  0  0
M  END
> <minimizedAffinity>
-6.09535

$$$$
2GKL_PD2_A_2


 14 14  0  0  0  0  0  0  0  0999 V2000
   18.9596   46.1888   68.3862 C   0  0  0  0  0  0  0  0  0  0  0  0
   18.1255   46.4637   67.3066 C   0  0  0  0  0  0  0  0  0  0  0  0
   16.8101   46.8788   67.5255 C   0  0  0  0  0  0  0  0  0  0  0  0
   18.4517   46.3383   69.6794 C   0  0  0  0  0  0  0  0  0  0  0  0
   17.1184   46.7381   69.8432 C   0  0  0  0  0  0  0  0  0  0  0  0
   16.3474   47.0033   68.7660 N   0  0  0  0  0  0  0  0  0  0  0  0
   21.1062   45.4040   69.1101 O   0  0  0  0  0  0  0  0  0  0  0  0
   20.3856   45.7620   68.1454 C   0  0  0  0  0  0  0  0  0  0  0  0
   20.8222   45.7976   66.9706 O   0  0  0  0  0  0  0  0  0  0  0  0
   20.2616   46.0688   66.2704 H   0  0  0  0  0  0  0  0  0  0  0  0
   16.5195   46.9168   71.2145 C   0  0  0  0  0  0  0  0  0  0  0  0
   17.0621   47.7129   72.0264 O   0  0  0  0  0  0  0  0  0  0  0  0
   15.4922   46.2599   71.4930 O   0  0  0  0  0  0  0  0  0  0  0  0
   15.1214   45.6786   70.8585 H   0  0  0  0  0  0  0  0  0  0  0  0
  7  8  2  0  0  0
  8  9  1  0  0  0
  8  1  1  0  0  0
  1  2  2  0  0  0
  1  4  1  0  0  0
  2  3  1  0  0  0
  3  6  2  0  0  0
  4  5  2  0  0  0
  5  6  1  0  0  0
  5 11  1  0  0  0
 11 12  2  0  0  0
 11 13  1  0  0  0
  9 10  1  0  0  0
 13 14  1  0  0  0
M  END
> <minimizedAffinity>
-6.07734

$$$$
2GKL_PD2_A_2


 14 14  0  0  0  0  0  0  0  0999 V2000
   15.5893   48.7805   68.4104 C   0  0  0  0  0  0  0  0  0  0  0  0
   16.1642   48.4986   67.1747 C   0  0  0  0  0  0  0  0  0  0  0  0
   17.0397   47.4189   67.0394 C   0  0  0  0  0  0  0  0  0  0  0  0
   15.9072   47.9634   69.4985 C   0  0  0  0  0  0  0  0  0  0  0  0
   16.8072   46.9051   69.3128 C   0  0  0  0  0  0  0  0  0  0  0  0
   17.3343   46.6626   68.0927 N   0  0  0  0  0  0  0  0  0  0  0  0
   14.4099   50.6901   67.5678 O   0  0  0  0  0  0  0  0  0  0  0  0
   14.6278   49.9339   68.5470 C   0  0  0  0  0  0  0  0  0  0  0  0
   14.0806   50.1179   69.6600 O   0  0  0  0  0  0  0  0  0  0  0  0
   14.2620   49.5375   70.3729 H   0  0  0  0  0  0  0  0  0  0  0  0
   17.1840   45.9916   70.4506 C   0  0  0  0  0  0  0  0  0  0  0  0
   18.3724   45.5842   70.5478 O   0  0  0  0  0  0  0  0  0  0  0  0
   16.2893   45.6730   71.2645 O   0  0  0  0  0  0  0  0  0  0  0  0
   15.4179   45.9992   71.1542 H   0  0  0  0  0  0  0  0  0  0  0  0
  7  8  2  0  0  0
  8  9  1  0  0  0
  8  1  1  0  0  0
  1  2  2  0  0  0
  1  4  1  0  0  0
  2  3  1  0  0  0
  3  6  2  0  0  0
  4  5  2  0  0  0
  5  6  1  0  0  0
  5 11  1  0  0  0
 11 12  2  0  0  0
 11 13  1  0  0  0
  9 10  1  0  0  0
 13 14  1  0  0  0
M  END
> <minimizedAffinity>
-6.07495

$$$$
2GKL_PD2_A_2


 14 14  0  0  0  0  0  0  0  0999 V2000
   16.2470   47.8387   68.8706 C   0  0  0  0  0  0  0  0  0  0  0  0
   15.4367   47.4903   69.9472 C   0  0  0  0  0  0  0  0  0  0  0  0
   15.9121   46.6170   70.9279 C   0  0  0  0  0  0  0  0  0  0  0  0
   17.5336   47.2984   68.7989 C   0  0  0  0  0  0  0  0  0  0  0  0
   17.9541   46.4109   69.7989 C   0  0  0  0  0  0  0  0  0  0  0  0
   17.1368   46.1079   70.8312 N   0  0  0  0  0  0  0  0  0  0  0  0
   14.7838   49.5717   68.0935 O   0  0  0  0  0  0  0  0  0  0  0  0
   15.7375   48.7991   67.8257 C   0  0  0  0  0  0  0  0  0  0  0  0
   16.2783   48.7824   66.6947 O   0  0  0  0  0  0  0  0  0  0  0  0
   16.9882   48.1953   66.5234 H   0  0  0  0  0  0  0  0  0  0  0  0
   19.3314   45.8000   69.7724 C   0  0  0  0  0  0  0  0  0  0  0  0
   20.2364   46.3468   69.0871 O   0  0  0  0  0  0  0  0  0  0  0  0
   19.5227   44.7620   70.4434 O   0  0  0  0  0  0  0  0  0  0  0  0
   18.8208   44.3886   70.9391 H   0  0  0  0  0  0  0  0  0  0  0  0
  7  8  2  0  0  0
  8  9  1  0  0  0
  8  1  1  0  0  0
  1  2  2  0  0  0
  1  4  1  0  0  0
  2  3  1  0  0  0
  3  6  2  0  0  0
  4  5  2  0  0  0
  5  6  1  0  0  0
  5 11  1  0  0  0
 11 12  2  0  0  0
 11 13  1  0  0  0
  9 10  1  0  0  0
 13 14  1  0  0  0
M  END
> <minimizedAffinity>
-6.02998

$$$$
2GKL_PD2_A_2


 14 14  0  0  0  0  0  0  0  0999 V2000
   15.9962   47.5639   70.1811 C   0  0  0  0  0  0  0  0  0  0  0  0
   14.6103   47.6854   70.1420 C   0  0  0  0  0  0  0  0  0  0  0  0
   14.0219   48.8111   69.5614 C   0  0  0  0  0  0  0  0  0  0  0  0
   16.7734   48.5859   69.6298 C   0  0  0  0  0  0  0  0  0  0  0  0
   16.1328   49.7036   69.0776 C   0  0  0  0  0  0  0  0  0  0  0  0
   14.7839   49.7750   69.0529 N   0  0  0  0  0  0  0  0  0  0  0  0
   17.8253   46.0558   70.5386 O   0  0  0  0  0  0  0  0  0  0  0  0
   16.6267   46.3367   70.7892 C   0  0  0  0  0  0  0  0  0  0  0  0
   15.9162   45.6100   71.5236 O   0  0  0  0  0  0  0  0  0  0  0  0
   15.0250   45.8444   71.6931 H   0  0  0  0  0  0  0  0  0  0  0  0
   16.9214   50.8339   68.4680 C   0  0  0  0  0  0  0  0  0  0  0  0
   16.3178   51.8706   68.0828 O   0  0  0  0  0  0  0  0  0  0  0  0
   18.1606   50.6952   68.3706 O   0  0  0  0  0  0  0  0  0  0  0  0
   18.5688   49.9068   68.6702 H   0  0  0  0  0  0  0  0  0  0  0  0
  7  8  2  0  0  0
  8  9  1  0  0  0
  8  1  1  0  0  0
  1  2  2  0  0  0
  1  4  1  0  0  0
  2  3  1  0  0  0
  3  6  2  0  0  0
  4  5  2  0  0  0
  5  6  1  0  0  0
  5 11  1  0  0  0
 11 12  2  0  0  0
 11 13  1  0  0  0
  9 10  1  0  0  0
 13 14  1  0  0  0
M  END
> <minimizedAffinity>
-6.00423

$$$$
2GKL_PD2_A_2


 14 14  0  0  0  0  0  0  0  0999 V2000
   16.3944   47.0985   69.3906 C   0  0  0  0  0  0  0  0  0  0  0  0
   16.8720   46.6803   68.1521 C   0  0  0  0  0  0  0  0  0  0  0  0
   16.6570   47.4651   67.0170 C   0  0  0  0  0  0  0  0  0  0  0  0
   15.7031   48.3104   69.4669 C   0  0  0  0  0  0  0  0  0  0  0  0
   15.4971   49.0496   68.2940 C   0  0  0  0  0  0  0  0  0  0  0  0
   15.9869   48.6096   67.1142 N   0  0  0  0  0  0  0  0  0  0  0  0
   17.7461   45.6649   70.7565 O   0  0  0  0  0  0  0  0  0  0  0  0
   16.6478   46.2587   70.6171 C   0  0  0  0  0  0  0  0  0  0  0  0
   15.7302   46.1611   71.4658 O   0  0  0  0  0  0  0  0  0  0  0  0
   14.9211   46.6155   71.3355 H   0  0  0  0  0  0  0  0  0  0  0  0
   14.7601   50.3638   68.3183 C   0  0  0  0  0  0  0  0  0  0  0  0
   14.7372   51.0783   67.2807 O   0  0  0  0  0  0  0  0  0  0  0  0
   14.1912   50.6946   69.3820 O   0  0  0  0  0  0  0  0  0  0  0  0
   14.2338   50.1325   70.1304 H   0  0  0  0  0  0  0  0  0  0  0  0
  7  8  2  0  0  0
  8  9  1  0  0  0
  8  1  1  0  0  0
  1  2  2  0  0  0
  1  4  1  0  0  0
  2  3  1  0  0  0
  3  6  2  0  0  0
  4  5  2  0  0  0
  5  6  1  0  0  0
  5 11  1  0  0  0
 11 12  2  0  0  0
 11 13  1  0  0  0
  9 10  1  0  0  0
 13 14  1  0  0  0
M  END
> <minimizedAffinity>
-5.88281

$$$$
2GKL_PD2_A_2


 14 14  0  0  0  0  0  0  0  0999 V2000
   16.0565   47.2564   69.3695 C   0  0  0  0  0  0  0  0  0  0  0  0
   16.5862   46.5505   68.2934 C   0  0  0  0  0  0  0  0  0  0  0  0
   16.7324   47.1723   67.0514 C   0  0  0  0  0  0  0  0  0  0  0  0
   15.6802   48.5882   69.1761 C   0  0  0  0  0  0  0  0  0  0  0  0
   15.8293   49.1581   67.9044 C   0  0  0  0  0  0  0  0  0  0  0  0
   16.3571   48.4378   66.8905 N   0  0  0  0  0  0  0  0  0  0  0  0
   16.8247   45.8201   71.1286 O   0  0  0  0  0  0  0  0  0  0  0  0
   15.9208   46.5877   70.7141 C   0  0  0  0  0  0  0  0  0  0  0  0
   14.8814   46.8067   71.3803 O   0  0  0  0  0  0  0  0  0  0  0  0
   14.2236   47.3842   71.0459 H   0  0  0  0  0  0  0  0  0  0  0  0
   15.4416   50.5902   67.6399 C   0  0  0  0  0  0  0  0  0  0  0  0
   14.9053   51.2646   68.5591 O   0  0  0  0  0  0  0  0  0  0  0  0
   15.6740   51.0575   66.5032 O   0  0  0  0  0  0  0  0  0  0  0  0
   16.0748   50.5201   65.8487 H   0  0  0  0  0  0  0  0  0  0  0  0
  7  8  2  0  0  0
  8  9  1  0  0  0
  8  1  1  0  0  0
  1  2  2  0  0  0
  1  4  1  0  0  0
  2  3  1  0  0  0
  3  6  2  0  0  0
  4  5  2  0  0  0
  5  6  1  0  0  0
  5 11  1  0  0  0
 11 12  2  0  0  0
 11 13  1  0  0  0
  9 10  1  0  0  0
 13 14  1  0  0  0
M  END
> <minimizedAffinity>
-5.80888

$$$$
2GKL_PD2_A_2


 14 14  0  0  0  0  0  0  0  0999 V2000
   15.7680   49.2402   67.7300 C   0  0  0  0  0  0  0  0  0  0  0  0
   16.5284   48.2801   67.0690 C   0  0  0  0  0  0  0  0  0  0  0  0
   16.7219   47.0221   67.6440 C   0  0  0  0  0  0  0  0  0  0  0  0
   15.2096   48.9151   68.9690 C   0  0  0  0  0  0  0  0  0  0  0  0
   15.4515   47.6453   69.5106 C   0  0  0  0  0  0  0  0  0  0  0  0
   16.1884   46.7409   68.8291 N   0  0  0  0  0  0  0  0  0  0  0  0
   14.6493   51.3521   67.5392 O   0  0  0  0  0  0  0  0  0  0  0  0
   15.5435   50.5895   67.0955 C   0  0  0  0  0  0  0  0  0  0  0  0
   16.2561   50.9062   66.1136 O   0  0  0  0  0  0  0  0  0  0  0  0
   16.9159   50.3171   65.8042 H   0  0  0  0  0  0  0  0  0  0  0  0
   14.8728   47.2408   70.8419 C   0  0  0  0  0  0  0  0  0  0  0  0
   13.7195   47.6363   71.1598 O   0  0  0  0  0  0  0  0  0  0  0  0
   15.5703   46.5167   71.5860 O   0  0  0  0  0  0  0  0  0  0  0  0
   16.4235   46.2454   71.3097 H   0  0  0  0  0  0  0  0  0  0  0  0
  7  8  2  0  0  0
  8  9  1  0  0  0
  8  1  1  0  0  0
  1  2  2  0  0  0
  1  4  1  0  0  0
  2  3  1  0  0  0
  3  6  2  0  0  0
  4  5  2  0  0  0
  5  6  1  0  0  0
  5 11  1  0  0  0
 11 12  2  0  0  0
 11 13  1  0  0  0
  9 10  1  0  0  0
 13 14  1  0  0  0
M  END
> <minimizedAffinity>
-5.78821

$$$$
