4G8V_0EY_A_201


 27 29  0  0  0  0  0  0  0  0999 V2000
   37.1274   -1.5479   12.2771 C   0  0  0  0  0  0  0  0  0  0  0  0
   38.0572   -0.7444   12.9846 C   0  0  0  0  0  0  0  0  0  0  0  0
   36.3996   -0.6706   11.4861 N   0  0  0  0  0  0  0  0  0  0  0  0
   36.8161    0.5497   11.7284 N   0  0  0  0  0  0  0  0  0  0  0  0
   37.7548    0.5595   12.6288 N   0  0  0  0  0  0  0  0  0  0  0  0
   38.5446    1.6280   13.1584 C   0  0  0  0  0  0  0  0  0  0  0  0
   38.7618    1.6164   14.5322 O   0  0  0  0  0  0  0  0  0  0  0  0
   37.5243    2.0022   15.1895 C   0  0  0  0  0  0  0  0  0  0  0  0
   36.7396    2.8130   14.1521 C   0  0  0  0  0  0  0  0  0  0  0  0
   35.4308    2.3099   13.9389 O   0  0  0  0  0  0  0  0  0  0  0  0
   37.6196    2.8033   12.8888 C   0  0  0  0  0  0  0  0  0  0  0  0
   38.3964    3.9892   12.8037 O   0  0  0  0  0  0  0  0  0  0  0  0
   35.4836    1.3913   13.6316 H   0  0  0  0  0  0  0  0  0  0  0  0
   38.9262    4.0873   13.6103 H   0  0  0  0  0  0  0  0  0  0  0  0
   37.8249    2.7031   16.4882 C   0  0  0  0  0  0  0  0  0  0  0  0
   38.3655    3.9950   16.2529 O   0  0  0  0  0  0  0  0  0  0  0  0
   37.7226    4.5298   15.7612 H   0  0  0  0  0  0  0  0  0  0  0  0
   37.1158   -3.0394   12.3192 C   0  0  0  0  0  0  0  0  0  0  0  0
   34.1585   -5.8950   12.8277 C   0  0  0  0  0  0  0  0  0  0  0  0
   35.1940   -5.7846   13.7247 C   0  0  0  0  0  0  0  0  0  0  0  0
   36.1358   -4.7994   13.4980 C   0  0  0  0  0  0  0  0  0  0  0  0
   36.0035   -3.9871   12.4692 N   0  0  0  0  0  0  0  0  0  0  0  0
   34.0804   -5.0681   11.7629 N   0  0  0  0  0  0  0  0  0  0  0  0
   34.8783   -3.3249   10.5353 O   0  0  0  0  0  0  0  0  0  0  0  0
   34.9811   -4.1279   11.5584 C   0  0  0  0  0  0  0  0  0  0  0  0
   33.2241   -6.8507   13.0287 O   0  0  0  0  0  0  0  0  0  0  0  0
   33.3359   -5.1696   11.1268 H   0  0  0  0  0  0  0  0  0  0  0  0
 24 25  2  0  0  0
 23 25  1  0  0  0
 23 19  1  0  0  0
 25 22  1  0  0  0
  3  4  2  0  0  0
  3  1  1  0  0  0
  4  5  1  0  0  0
 26 19  2  0  0  0
 19 20  1  0  0  0
 22 18  1  0  0  0
 22 21  1  0  0  0
 18  1  1  0  0  0
  1  2  2  0  0  0
 16 15  1  0  0  0
 10  9  1  0  0  0
  8 15  1  0  0  0
  8  7  1  0  0  0
  8  9  1  0  0  0
  5  2  1  0  0  0
  5  6  1  0  0  0
 20 21  2  0  0  0
  7  6  1  0  0  0
  9 11  1  0  0  0
  6 11  1  0  0  0
 11 12  1  0  0  0
 23 27  1  0  0  0
 16 17  1  0  0  0
 10 13  1  0  0  0
 12 14  1  0  0  0
M  END
> <minimizedAffinity>
-7.44548

$$$$
4G8V_0EY_A_201


 27 29  0  0  0  0  0  0  0  0999 V2000
   37.7131   -0.4715   12.1603 C   0  0  0  0  0  0  0  0  0  0  0  0
   36.9252    0.2154   13.1186 C   0  0  0  0  0  0  0  0  0  0  0  0
   38.9194    0.2120   12.1076 N   0  0  0  0  0  0  0  0  0  0  0  0
   38.8494    1.2406   12.9191 N   0  0  0  0  0  0  0  0  0  0  0  0
   37.6873    1.3074   13.4995 N   0  0  0  0  0  0  0  0  0  0  0  0
   37.1784    2.1998   14.4950 C   0  0  0  0  0  0  0  0  0  0  0  0
   35.8983    2.7005   14.2825 O   0  0  0  0  0  0  0  0  0  0  0  0
   35.9687    3.6862   13.2168 C   0  0  0  0  0  0  0  0  0  0  0  0
   37.4185    4.1835   13.2077 C   0  0  0  0  0  0  0  0  0  0  0  0
   38.0303    4.0662   11.9335 O   0  0  0  0  0  0  0  0  0  0  0  0
   38.1253    3.3741   14.3103 C   0  0  0  0  0  0  0  0  0  0  0  0
   38.1832    4.1125   15.5221 O   0  0  0  0  0  0  0  0  0  0  0  0
   38.0251    3.1366   11.6567 H   0  0  0  0  0  0  0  0  0  0  0  0
   37.2866    4.3725   15.7855 H   0  0  0  0  0  0  0  0  0  0  0  0
   34.9090    4.7380   13.4140 C   0  0  0  0  0  0  0  0  0  0  0  0
   35.4933    6.0241   13.5592 O   0  0  0  0  0  0  0  0  0  0  0  0
   35.9939    6.2442   12.7581 H   0  0  0  0  0  0  0  0  0  0  0  0
   37.3044   -1.7512   11.5109 C   0  0  0  0  0  0  0  0  0  0  0  0
   35.1280   -5.0011   12.8747 C   0  0  0  0  0  0  0  0  0  0  0  0
   36.4186   -4.7891   13.2974 C   0  0  0  0  0  0  0  0  0  0  0  0
   37.0775   -3.6763   12.8108 C   0  0  0  0  0  0  0  0  0  0  0  0
   36.4556   -2.8467   11.9980 N   0  0  0  0  0  0  0  0  0  0  0  0
   34.5395   -4.1483   12.0089 N   0  0  0  0  0  0  0  0  0  0  0  0
   34.5830   -2.2624   10.7344 O   0  0  0  0  0  0  0  0  0  0  0  0
   35.1747   -3.0865   11.5546 C   0  0  0  0  0  0  0  0  0  0  0  0
   34.4624   -6.0827   13.3375 O   0  0  0  0  0  0  0  0  0  0  0  0
   33.6175   -4.3231   11.7110 H   0  0  0  0  0  0  0  0  0  0  0  0
 24 25  2  0  0  0
 23 25  1  0  0  0
 23 19  1  0  0  0
 25 22  1  0  0  0
  3  4  2  0  0  0
  3  1  1  0  0  0
  4  5  1  0  0  0
 26 19  2  0  0  0
 19 20  1  0  0  0
 22 18  1  0  0  0
 22 21  1  0  0  0
 18  1  1  0  0  0
  1  2  2  0  0  0
 16 15  1  0  0  0
 10  9  1  0  0  0
  8 15  1  0  0  0
  8  7  1  0  0  0
  8  9  1  0  0  0
  5  2  1  0  0  0
  5  6  1  0  0  0
 20 21  2  0  0  0
  7  6  1  0  0  0
  9 11  1  0  0  0
  6 11  1  0  0  0
 11 12  1  0  0  0
 23 27  1  0  0  0
 16 17  1  0  0  0
 10 13  1  0  0  0
 12 14  1  0  0  0
M  END
> <minimizedAffinity>
-7.24310

$$$$
4G8V_0EY_A_201


 27 29  0  0  0  0  0  0  0  0999 V2000
   37.4152   -1.5879   13.1617 C   0  0  0  0  0  0  0  0  0  0  0  0
   36.9820   -0.3461   12.6318 C   0  0  0  0  0  0  0  0  0  0  0  0
   37.9209   -1.3018   14.4216 N   0  0  0  0  0  0  0  0  0  0  0  0
   37.8455   -0.0062   14.6147 N   0  0  0  0  0  0  0  0  0  0  0  0
   37.3426    0.5982   13.5785 N   0  0  0  0  0  0  0  0  0  0  0  0
   37.0134    1.9721   13.3540 C   0  0  0  0  0  0  0  0  0  0  0  0
   37.6249    2.5862   12.2661 O   0  0  0  0  0  0  0  0  0  0  0  0
   39.0199    2.8175   12.6018 C   0  0  0  0  0  0  0  0  0  0  0  0
   39.0757    2.8607   14.1330 C   0  0  0  0  0  0  0  0  0  0  0  0
   40.0182    1.9489   14.6731 O   0  0  0  0  0  0  0  0  0  0  0  0
   37.6296    2.6006   14.5929 C   0  0  0  0  0  0  0  0  0  0  0  0
   36.9592    3.8215   14.8704 O   0  0  0  0  0  0  0  0  0  0  0  0
   39.7875    1.0467   14.4017 H   0  0  0  0  0  0  0  0  0  0  0  0
   36.9903    4.3928   14.0870 H   0  0  0  0  0  0  0  0  0  0  0  0
   39.5284    4.0410   11.8858 C   0  0  0  0  0  0  0  0  0  0  0  0
   38.4699    4.7147   11.2207 O   0  0  0  0  0  0  0  0  0  0  0  0
   37.8074    4.9970   11.8705 H   0  0  0  0  0  0  0  0  0  0  0  0
   37.1863   -2.9025   12.4938 C   0  0  0  0  0  0  0  0  0  0  0  0
   34.1319   -5.6913   12.7206 C   0  0  0  0  0  0  0  0  0  0  0  0
   35.1668   -5.7037   13.6250 C   0  0  0  0  0  0  0  0  0  0  0  0
   36.1424   -4.7339   13.4956 C   0  0  0  0  0  0  0  0  0  0  0  0
   36.0419   -3.8217   12.5503 N   0  0  0  0  0  0  0  0  0  0  0  0
   34.0863   -4.7630   11.7410 N   0  0  0  0  0  0  0  0  0  0  0  0
   34.9478   -2.9373   10.6888 O   0  0  0  0  0  0  0  0  0  0  0  0
   35.0191   -3.8387   11.6293 C   0  0  0  0  0  0  0  0  0  0  0  0
   33.1648   -6.6296   12.8272 O   0  0  0  0  0  0  0  0  0  0  0  0
   33.3414   -4.7770   11.0974 H   0  0  0  0  0  0  0  0  0  0  0  0
 24 25  2  0  0  0
 23 25  1  0  0  0
 23 19  1  0  0  0
 25 22  1  0  0  0
  3  4  2  0  0  0
  3  1  1  0  0  0
  4  5  1  0  0  0
 26 19  2  0  0  0
 19 20  1  0  0  0
 22 18  1  0  0  0
 22 21  1  0  0  0
 18  1  1  0  0  0
  1  2  2  0  0  0
 16 15  1  0  0  0
 10  9  1  0  0  0
  8 15  1  0  0  0
  8  7  1  0  0  0
  8  9  1  0  0  0
  5  2  1  0  0  0
  5  6  1  0  0  0
 20 21  2  0  0  0
  7  6  1  0  0  0
  9 11  1  0  0  0
  6 11  1  0  0  0
 11 12  1  0  0  0
 23 27  1  0  0  0
 16 17  1  0  0  0
 10 13  1  0  0  0
 12 14  1  0  0  0
M  END
> <minimizedAffinity>
-7.01280

$$$$
4G8V_0EY_A_201


 27 29  0  0  0  0  0  0  0  0999 V2000
   36.1167   -2.2426   11.7070 C   0  0  0  0  0  0  0  0  0  0  0  0
   36.1214   -3.2613   12.6935 C   0  0  0  0  0  0  0  0  0  0  0  0
   35.0893   -2.5709   10.8343 N   0  0  0  0  0  0  0  0  0  0  0  0
   34.5568   -3.7037   11.2274 N   0  0  0  0  0  0  0  0  0  0  0  0
   35.1555   -4.1661   12.2855 N   0  0  0  0  0  0  0  0  0  0  0  0
   34.8886   -5.3142   13.0961 C   0  0  0  0  0  0  0  0  0  0  0  0
   35.9391   -6.2094   13.2679 O   0  0  0  0  0  0  0  0  0  0  0  0
   36.1193   -6.9402   12.0246 C   0  0  0  0  0  0  0  0  0  0  0  0
   34.7682   -6.8710   11.3040 C   0  0  0  0  0  0  0  0  0  0  0  0
   34.8758   -6.3598    9.9854 O   0  0  0  0  0  0  0  0  0  0  0  0
   33.8679   -6.0259   12.2236 C   0  0  0  0  0  0  0  0  0  0  0  0
   33.0612   -6.8571   13.0453 O   0  0  0  0  0  0  0  0  0  0  0  0
   35.2519   -5.4662   10.0147 H   0  0  0  0  0  0  0  0  0  0  0  0
   33.6284   -7.4593   13.5519 H   0  0  0  0  0  0  0  0  0  0  0  0
   36.6485   -8.3213   12.3082 C   0  0  0  0  0  0  0  0  0  0  0  0
   35.7513   -9.0471   13.1358 O   0  0  0  0  0  0  0  0  0  0  0  0
   34.8966   -9.1362   12.6858 H   0  0  0  0  0  0  0  0  0  0  0  0
   36.9734   -1.0224   11.7674 C   0  0  0  0  0  0  0  0  0  0  0  0
   37.3750    2.0183   14.5515 C   0  0  0  0  0  0  0  0  0  0  0  0
   36.4298    2.0935   13.5565 C   0  0  0  0  0  0  0  0  0  0  0  0
   36.3446    1.0350   12.6724 C   0  0  0  0  0  0  0  0  0  0  0  0
   37.1312   -0.0113   12.8213 N   0  0  0  0  0  0  0  0  0  0  0  0
   38.1898    0.9457   14.6459 N   0  0  0  0  0  0  0  0  0  0  0  0
   38.8791   -1.0988   13.9197 O   0  0  0  0  0  0  0  0  0  0  0  0
   38.0970   -0.0615   13.8008 C   0  0  0  0  0  0  0  0  0  0  0  0
   37.4769    3.0413   15.4292 O   0  0  0  0  0  0  0  0  0  0  0  0
   38.8666    0.9153   15.3602 H   0  0  0  0  0  0  0  0  0  0  0  0
 24 25  2  0  0  0
 23 25  1  0  0  0
 23 19  1  0  0  0
 25 22  1  0  0  0
  3  4  2  0  0  0
  3  1  1  0  0  0
  4  5  1  0  0  0
 26 19  2  0  0  0
 19 20  1  0  0  0
 22 18  1  0  0  0
 22 21  1  0  0  0
 18  1  1  0  0  0
  1  2  2  0  0  0
 16 15  1  0  0  0
 10  9  1  0  0  0
  8 15  1  0  0  0
  8  7  1  0  0  0
  8  9  1  0  0  0
  5  2  1  0  0  0
  5  6  1  0  0  0
 20 21  2  0  0  0
  7  6  1  0  0  0
  9 11  1  0  0  0
  6 11  1  0  0  0
 11 12  1  0  0  0
 23 27  1  0  0  0
 16 17  1  0  0  0
 10 13  1  0  0  0
 12 14  1  0  0  0
M  END
> <minimizedAffinity>
-6.74186

$$$$
4G8V_0EY_A_201


 27 29  0  0  0  0  0  0  0  0999 V2000
   36.9246   -3.8827   13.1714 C   0  0  0  0  0  0  0  0  0  0  0  0
   35.5867   -4.2554   12.8853 C   0  0  0  0  0  0  0  0  0  0  0  0
   37.4560   -4.9307   13.9092 N   0  0  0  0  0  0  0  0  0  0  0  0
   36.5160   -5.8274   14.0929 N   0  0  0  0  0  0  0  0  0  0  0  0
   35.3946   -5.4559   13.5487 N   0  0  0  0  0  0  0  0  0  0  0  0
   34.1338   -6.1219   13.4342 C   0  0  0  0  0  0  0  0  0  0  0  0
   34.0534   -7.3959   13.9864 O   0  0  0  0  0  0  0  0  0  0  0  0
   34.7862   -8.3095   13.1259 C   0  0  0  0  0  0  0  0  0  0  0  0
   34.8041   -7.6506   11.7421 C   0  0  0  0  0  0  0  0  0  0  0  0
   36.1145   -7.5123   11.2176 O   0  0  0  0  0  0  0  0  0  0  0  0
   34.0674   -6.3115   11.9278 C   0  0  0  0  0  0  0  0  0  0  0  0
   32.7062   -6.4242   11.5385 O   0  0  0  0  0  0  0  0  0  0  0  0
   36.6484   -6.9710   11.8200 H   0  0  0  0  0  0  0  0  0  0  0  0
   32.2846   -7.1392   12.0403 H   0  0  0  0  0  0  0  0  0  0  0  0
   34.1790   -9.6860   13.1962 C   0  0  0  0  0  0  0  0  0  0  0  0
   32.7721   -9.6285   13.0120 O   0  0  0  0  0  0  0  0  0  0  0  0
   32.5753   -9.2543   12.1390 H   0  0  0  0  0  0  0  0  0  0  0  0
   37.5865   -2.6667   12.6147 C   0  0  0  0  0  0  0  0  0  0  0  0
   36.8334    1.3177   13.4607 C   0  0  0  0  0  0  0  0  0  0  0  0
   37.8354    0.6362   14.1094 C   0  0  0  0  0  0  0  0  0  0  0  0
   38.0375   -0.6866   13.7648 C   0  0  0  0  0  0  0  0  0  0  0  0
   37.3036   -1.2401   12.8212 N   0  0  0  0  0  0  0  0  0  0  0  0
   36.0764    0.7024   12.5270 N   0  0  0  0  0  0  0  0  0  0  0  0
   35.5528   -1.1306   11.2827 O   0  0  0  0  0  0  0  0  0  0  0  0
   36.2808   -0.5584   12.2016 C   0  0  0  0  0  0  0  0  0  0  0  0
   36.6170    2.6132   13.7799 O   0  0  0  0  0  0  0  0  0  0  0  0
   35.3576    1.2055   12.0805 H   0  0  0  0  0  0  0  0  0  0  0  0
 24 25  2  0  0  0
 23 25  1  0  0  0
 23 19  1  0  0  0
 25 22  1  0  0  0
  3  4  2  0  0  0
  3  1  1  0  0  0
  4  5  1  0  0  0
 26 19  2  0  0  0
 19 20  1  0  0  0
 22 18  1  0  0  0
 22 21  1  0  0  0
 18  1  1  0  0  0
  1  2  2  0  0  0
 16 15  1  0  0  0
 10  9  1  0  0  0
  8 15  1  0  0  0
  8  7  1  0  0  0
  8  9  1  0  0  0
  5  2  1  0  0  0
  5  6  1  0  0  0
 20 21  2  0  0  0
  7  6  1  0  0  0
  9 11  1  0  0  0
  6 11  1  0  0  0
 11 12  1  0  0  0
 23 27  1  0  0  0
 16 17  1  0  0  0
 10 13  1  0  0  0
 12 14  1  0  0  0
M  END
> <minimizedAffinity>
-6.66546

$$$$
4G8V_0EY_A_201


 27 29  0  0  0  0  0  0  0  0999 V2000
   37.0507   -3.8954   13.5121 C   0  0  0  0  0  0  0  0  0  0  0  0
   37.1892   -2.6216   14.1194 C   0  0  0  0  0  0  0  0  0  0  0  0
   38.0616   -3.9709   12.5649 N   0  0  0  0  0  0  0  0  0  0  0  0
   38.7168   -2.8342   12.5657 N   0  0  0  0  0  0  0  0  0  0  0  0
   38.2155   -1.9996   13.4282 N   0  0  0  0  0  0  0  0  0  0  0  0
   38.6280   -0.6881   13.8234 C   0  0  0  0  0  0  0  0  0  0  0  0
   37.6276    0.1670   14.2736 O   0  0  0  0  0  0  0  0  0  0  0  0
   36.8458    0.5935   13.1251 C   0  0  0  0  0  0  0  0  0  0  0  0
   37.7709    0.4368   11.9130 C   0  0  0  0  0  0  0  0  0  0  0  0
   37.2002   -0.3588   10.8870 O   0  0  0  0  0  0  0  0  0  0  0  0
   39.0819   -0.1353   12.4826 C   0  0  0  0  0  0  0  0  0  0  0  0
   40.0293    0.8984   12.7088 O   0  0  0  0  0  0  0  0  0  0  0  0
   37.0017   -1.2421   11.2353 H   0  0  0  0  0  0  0  0  0  0  0  0
   39.6438    1.5675   13.2959 H   0  0  0  0  0  0  0  0  0  0  0  0
   36.2909    1.9736   13.3605 C   0  0  0  0  0  0  0  0  0  0  0  0
   36.4540    2.7881   12.2087 O   0  0  0  0  0  0  0  0  0  0  0  0
   35.9767    2.3924   11.4627 H   0  0  0  0  0  0  0  0  0  0  0  0
   36.0865   -4.9365   13.9737 C   0  0  0  0  0  0  0  0  0  0  0  0
   33.6827   -7.5674   11.8620 C   0  0  0  0  0  0  0  0  0  0  0  0
   34.4101   -7.9930   12.9478 C   0  0  0  0  0  0  0  0  0  0  0  0
   35.1784   -7.0558   13.6115 C   0  0  0  0  0  0  0  0  0  0  0  0
   35.1696   -5.7991   13.2166 N   0  0  0  0  0  0  0  0  0  0  0  0
   33.7320   -6.2778   11.4644 N   0  0  0  0  0  0  0  0  0  0  0  0
   34.4834   -4.1443   11.7214 O   0  0  0  0  0  0  0  0  0  0  0  0
   34.4640   -5.3903   12.1076 C   0  0  0  0  0  0  0  0  0  0  0  0
   32.9227   -8.4656   11.1968 O   0  0  0  0  0  0  0  0  0  0  0  0
   33.2109   -5.9950   10.6785 H   0  0  0  0  0  0  0  0  0  0  0  0
 24 25  2  0  0  0
 23 25  1  0  0  0
 23 19  1  0  0  0
 25 22  1  0  0  0
  3  4  2  0  0  0
  3  1  1  0  0  0
  4  5  1  0  0  0
 26 19  2  0  0  0
 19 20  1  0  0  0
 22 18  1  0  0  0
 22 21  1  0  0  0
 18  1  1  0  0  0
  1  2  2  0  0  0
 16 15  1  0  0  0
 10  9  1  0  0  0
  8 15  1  0  0  0
  8  7  1  0  0  0
  8  9  1  0  0  0
  5  2  1  0  0  0
  5  6  1  0  0  0
 20 21  2  0  0  0
  7  6  1  0  0  0
  9 11  1  0  0  0
  6 11  1  0  0  0
 11 12  1  0  0  0
 23 27  1  0  0  0
 16 17  1  0  0  0
 10 13  1  0  0  0
 12 14  1  0  0  0
M  END
> <minimizedAffinity>
-6.47679

$$$$
4G8V_0EY_A_201


 27 29  0  0  0  0  0  0  0  0999 V2000
   35.4218   -3.3444   12.6519 C   0  0  0  0  0  0  0  0  0  0  0  0
   36.5994   -2.9107   13.3120 C   0  0  0  0  0  0  0  0  0  0  0  0
   35.2324   -2.4575   11.6019 N   0  0  0  0  0  0  0  0  0  0  0  0
   36.1762   -1.5475   11.6519 N   0  0  0  0  0  0  0  0  0  0  0  0
   36.9734   -1.7474   12.6601 N   0  0  0  0  0  0  0  0  0  0  0  0
   38.1618   -1.0672   13.0740 C   0  0  0  0  0  0  0  0  0  0  0  0
   38.2594   -0.7569   14.4263 O   0  0  0  0  0  0  0  0  0  0  0  0
   37.3505    0.3423   14.7054 C   0  0  0  0  0  0  0  0  0  0  0  0
   37.1489    1.0630   13.3677 C   0  0  0  0  0  0  0  0  0  0  0  0
   35.7813    1.1911   13.0146 O   0  0  0  0  0  0  0  0  0  0  0  0
   37.9776    0.2568   12.3509 C   0  0  0  0  0  0  0  0  0  0  0  0
   39.2515    0.8519   12.1506 O   0  0  0  0  0  0  0  0  0  0  0  0
   35.3802    0.3103   12.9499 H   0  0  0  0  0  0  0  0  0  0  0  0
   39.7079    0.9333   13.0026 H   0  0  0  0  0  0  0  0  0  0  0  0
   37.8852    1.1816   15.8358 C   0  0  0  0  0  0  0  0  0  0  0  0
   37.3750    2.5052   15.7688 O   0  0  0  0  0  0  0  0  0  0  0  0
   36.4078    2.4828   15.8387 H   0  0  0  0  0  0  0  0  0  0  0  0
   34.6929   -4.6014   12.9915 C   0  0  0  0  0  0  0  0  0  0  0  0
   35.1610   -8.3232   11.2345 C   0  0  0  0  0  0  0  0  0  0  0  0
   36.2347   -7.6607   11.7799 C   0  0  0  0  0  0  0  0  0  0  0  0
   35.9998   -6.4295   12.3614 C   0  0  0  0  0  0  0  0  0  0  0  0
   34.7750   -5.9466   12.4071 N   0  0  0  0  0  0  0  0  0  0  0  0
   33.9271   -7.7757   11.2663 N   0  0  0  0  0  0  0  0  0  0  0  0
   32.5099   -6.0986   11.8677 O   0  0  0  0  0  0  0  0  0  0  0  0
   33.7125   -6.6029   11.8282 C   0  0  0  0  0  0  0  0  0  0  0  0
   35.3656   -9.5298   10.6606 O   0  0  0  0  0  0  0  0  0  0  0  0
   33.1728   -8.2621   10.8618 H   0  0  0  0  0  0  0  0  0  0  0  0
 24 25  2  0  0  0
 23 25  1  0  0  0
 23 19  1  0  0  0
 25 22  1  0  0  0
  3  4  2  0  0  0
  3  1  1  0  0  0
  4  5  1  0  0  0
 26 19  2  0  0  0
 19 20  1  0  0  0
 22 18  1  0  0  0
 22 21  1  0  0  0
 18  1  1  0  0  0
  1  2  2  0  0  0
 16 15  1  0  0  0
 10  9  1  0  0  0
  8 15  1  0  0  0
  8  7  1  0  0  0
  8  9  1  0  0  0
  5  2  1  0  0  0
  5  6  1  0  0  0
 20 21  2  0  0  0
  7  6  1  0  0  0
  9 11  1  0  0  0
  6 11  1  0  0  0
 11 12  1  0  0  0
 23 27  1  0  0  0
 16 17  1  0  0  0
 10 13  1  0  0  0
 12 14  1  0  0  0
M  END
> <minimizedAffinity>
-6.46707

$$$$
4G8V_0EY_A_201


 27 29  0  0  0  0  0  0  0  0999 V2000
   35.5743   -2.7974   12.0490 C   0  0  0  0  0  0  0  0  0  0  0  0
   35.5650   -3.7078   13.1361 C   0  0  0  0  0  0  0  0  0  0  0  0
   34.8279   -3.4018   11.0476 N   0  0  0  0  0  0  0  0  0  0  0  0
   34.4459   -4.5835   11.4706 N   0  0  0  0  0  0  0  0  0  0  0  0
   34.8892   -4.8232   12.6697 N   0  0  0  0  0  0  0  0  0  0  0  0
   34.6792   -5.9304   13.5508 C   0  0  0  0  0  0  0  0  0  0  0  0
   35.8193   -6.5772   14.0161 O   0  0  0  0  0  0  0  0  0  0  0  0
   36.3757   -7.3567   12.9230 C   0  0  0  0  0  0  0  0  0  0  0  0
   35.2073   -7.6222   11.9670 C   0  0  0  0  0  0  0  0  0  0  0  0
   35.4822   -7.2108   10.6378 O   0  0  0  0  0  0  0  0  0  0  0  0
   34.0019   -6.9036   12.6003 C   0  0  0  0  0  0  0  0  0  0  0  0
   33.2123   -7.8100   13.3566 O   0  0  0  0  0  0  0  0  0  0  0  0
   35.6751   -6.2602   10.6269 H   0  0  0  0  0  0  0  0  0  0  0  0
   33.7665   -8.2409   14.0260 H   0  0  0  0  0  0  0  0  0  0  0  0
   37.0803   -8.5738   13.4616 C   0  0  0  0  0  0  0  0  0  0  0  0
   36.6369   -8.8749   14.7766 O   0  0  0  0  0  0  0  0  0  0  0  0
   35.6842   -9.0571   14.7628 H   0  0  0  0  0  0  0  0  0  0  0  0
   36.1582   -1.4260   12.1176 C   0  0  0  0  0  0  0  0  0  0  0  0
   40.1699   -0.3951   12.0749 C   0  0  0  0  0  0  0  0  0  0  0  0
   39.7600   -1.6495   11.6905 C   0  0  0  0  0  0  0  0  0  0  0  0
   38.4046   -1.9166   11.7172 C   0  0  0  0  0  0  0  0  0  0  0  0
   37.5551   -0.9738   12.0706 N   0  0  0  0  0  0  0  0  0  0  0  0
   39.2701    0.5314   12.4690 N   0  0  0  0  0  0  0  0  0  0  0  0
   37.1223    1.1825   12.8501 O   0  0  0  0  0  0  0  0  0  0  0  0
   37.9787    0.2683   12.4858 C   0  0  0  0  0  0  0  0  0  0  0  0
   41.4910   -0.1096   12.0564 O   0  0  0  0  0  0  0  0  0  0  0  0
   39.5850    1.4210   12.7494 H   0  0  0  0  0  0  0  0  0  0  0  0
 24 25  2  0  0  0
 23 25  1  0  0  0
 23 19  1  0  0  0
 25 22  1  0  0  0
  3  4  2  0  0  0
  3  1  1  0  0  0
  4  5  1  0  0  0
 26 19  2  0  0  0
 19 20  1  0  0  0
 22 18  1  0  0  0
 22 21  1  0  0  0
 18  1  1  0  0  0
  1  2  2  0  0  0
 16 15  1  0  0  0
 10  9  1  0  0  0
  8 15  1  0  0  0
  8  7  1  0  0  0
  8  9  1  0  0  0
  5  2  1  0  0  0
  5  6  1  0  0  0
 20 21  2  0  0  0
  7  6  1  0  0  0
  9 11  1  0  0  0
  6 11  1  0  0  0
 11 12  1  0  0  0
 23 27  1  0  0  0
 16 17  1  0  0  0
 10 13  1  0  0  0
 12 14  1  0  0  0
M  END
> <minimizedAffinity>
-6.42645

$$$$
4G8V_0EY_A_201


 27 29  0  0  0  0  0  0  0  0999 V2000
   37.2819   -0.1716   13.1919 C   0  0  0  0  0  0  0  0  0  0  0  0
   38.2853    0.0954   14.1576 C   0  0  0  0  0  0  0  0  0  0  0  0
   36.4231    0.9174   13.2329 N   0  0  0  0  0  0  0  0  0  0  0  0
   36.8396    1.7395   14.1668 N   0  0  0  0  0  0  0  0  0  0  0  0
   37.9004    1.2801   14.7630 N   0  0  0  0  0  0  0  0  0  0  0  0
   38.7324    1.8462   15.7797 C   0  0  0  0  0  0  0  0  0  0  0  0
   39.3970    0.9480   16.6081 O   0  0  0  0  0  0  0  0  0  0  0  0
   38.4239    0.3642   17.5161 C   0  0  0  0  0  0  0  0  0  0  0  0
   37.2740    1.3746   17.5964 C   0  0  0  0  0  0  0  0  0  0  0  0
   36.0149    0.7975   17.2914 O   0  0  0  0  0  0  0  0  0  0  0  0
   37.6782    2.5160   16.6455 C   0  0  0  0  0  0  0  0  0  0  0  0
   38.2826    3.5825   17.3627 O   0  0  0  0  0  0  0  0  0  0  0  0
   36.0362    0.4307   16.3937 H   0  0  0  0  0  0  0  0  0  0  0  0
   39.0419    3.2458   17.8636 H   0  0  0  0  0  0  0  0  0  0  0  0
   39.0838    0.0068   18.8218 C   0  0  0  0  0  0  0  0  0  0  0  0
   38.6224    0.8477   19.8689 O   0  0  0  0  0  0  0  0  0  0  0  0
   37.6643    0.7381   19.9733 H   0  0  0  0  0  0  0  0  0  0  0  0
   37.3148   -1.3350   12.2581 C   0  0  0  0  0  0  0  0  0  0  0  0
   35.0958   -4.8220   11.9832 C   0  0  0  0  0  0  0  0  0  0  0  0
   36.2662   -4.7857   12.7030 C   0  0  0  0  0  0  0  0  0  0  0  0
   36.9452   -3.5838   12.7618 C   0  0  0  0  0  0  0  0  0  0  0  0
   36.4487   -2.5180   12.1674 N   0  0  0  0  0  0  0  0  0  0  0  0
   34.6409   -3.7168   11.3547 N   0  0  0  0  0  0  0  0  0  0  0  0
   34.8281   -1.5108   10.8244 O   0  0  0  0  0  0  0  0  0  0  0  0
   35.2934   -2.5735   11.4212 C   0  0  0  0  0  0  0  0  0  0  0  0
   34.4131   -5.9864   11.9118 O   0  0  0  0  0  0  0  0  0  0  0  0
   33.8054   -3.7660   10.8364 H   0  0  0  0  0  0  0  0  0  0  0  0
 24 25  2  0  0  0
 23 25  1  0  0  0
 23 19  1  0  0  0
 25 22  1  0  0  0
  3  4  2  0  0  0
  3  1  1  0  0  0
  4  5  1  0  0  0
 26 19  2  0  0  0
 19 20  1  0  0  0
 22 18  1  0  0  0
 22 21  1  0  0  0
 18  1  1  0  0  0
  1  2  2  0  0  0
 16 15  1  0  0  0
 10  9  1  0  0  0
  8 15  1  0  0  0
  8  7  1  0  0  0
  8  9  1  0  0  0
  5  2  1  0  0  0
  5  6  1  0  0  0
 20 21  2  0  0  0
  7  6  1  0  0  0
  9 11  1  0  0  0
  6 11  1  0  0  0
 11 12  1  0  0  0
 23 27  1  0  0  0
 16 17  1  0  0  0
 10 13  1  0  0  0
 12 14  1  0  0  0
M  END
> <minimizedAffinity>
-6.32519

$$$$
4G8V_0EY_A_201


 27 29  0  0  0  0  0  0  0  0999 V2000
   37.1889   -0.3547   12.5437 C   0  0  0  0  0  0  0  0  0  0  0  0
   37.1428    0.4099   13.7369 C   0  0  0  0  0  0  0  0  0  0  0  0
   36.7475    0.4931   11.5380 N   0  0  0  0  0  0  0  0  0  0  0  0
   36.4201    1.6430   12.0785 N   0  0  0  0  0  0  0  0  0  0  0  0
   36.5941    1.6267   13.3674 N   0  0  0  0  0  0  0  0  0  0  0  0
   36.4384    2.6502   14.3546 C   0  0  0  0  0  0  0  0  0  0  0  0
   36.0382    3.9000   13.8939 O   0  0  0  0  0  0  0  0  0  0  0  0
   37.1664    4.5149   13.2146 C   0  0  0  0  0  0  0  0  0  0  0  0
   38.4159    3.8459   13.7983 C   0  0  0  0  0  0  0  0  0  0  0  0
   39.2571    3.2905   12.8006 O   0  0  0  0  0  0  0  0  0  0  0  0
   37.8814    2.8098   14.8040 C   0  0  0  0  0  0  0  0  0  0  0  0
   37.8961    3.3318   16.1247 O   0  0  0  0  0  0  0  0  0  0  0  0
   38.7636    2.6261   12.2948 H   0  0  0  0  0  0  0  0  0  0  0  0
   37.3859    4.1563   16.1523 H   0  0  0  0  0  0  0  0  0  0  0  0
   37.0952    6.0135   13.3457 C   0  0  0  0  0  0  0  0  0  0  0  0
   35.7546    6.4418   13.5358 O   0  0  0  0  0  0  0  0  0  0  0  0
   35.4020    6.0490   14.3496 H   0  0  0  0  0  0  0  0  0  0  0  0
   37.7610   -1.7302   12.4588 C   0  0  0  0  0  0  0  0  0  0  0  0
   35.9984   -5.2568   13.7298 C   0  0  0  0  0  0  0  0  0  0  0  0
   35.2313   -4.1733   13.3738 C   0  0  0  0  0  0  0  0  0  0  0  0
   35.8886   -3.0356   12.9462 C   0  0  0  0  0  0  0  0  0  0  0  0
   37.2032   -3.0285   12.8607 N   0  0  0  0  0  0  0  0  0  0  0  0
   37.3458   -5.1957   13.6660 N   0  0  0  0  0  0  0  0  0  0  0  0
   39.2653   -4.0736   13.1770 O   0  0  0  0  0  0  0  0  0  0  0  0
   37.9633   -4.1075   13.2516 C   0  0  0  0  0  0  0  0  0  0  0  0
   35.3781   -6.3816   14.1505 O   0  0  0  0  0  0  0  0  0  0  0  0
   37.8776   -5.9796   13.9343 H   0  0  0  0  0  0  0  0  0  0  0  0
 24 25  2  0  0  0
 23 25  1  0  0  0
 23 19  1  0  0  0
 25 22  1  0  0  0
  3  4  2  0  0  0
  3  1  1  0  0  0
  4  5  1  0  0  0
 26 19  2  0  0  0
 19 20  1  0  0  0
 22 18  1  0  0  0
 22 21  1  0  0  0
 18  1  1  0  0  0
  1  2  2  0  0  0
 16 15  1  0  0  0
 10  9  1  0  0  0
  8 15  1  0  0  0
  8  7  1  0  0  0
  8  9  1  0  0  0
  5  2  1  0  0  0
  5  6  1  0  0  0
 20 21  2  0  0  0
  7  6  1  0  0  0
  9 11  1  0  0  0
  6 11  1  0  0  0
 11 12  1  0  0  0
 23 27  1  0  0  0
 16 17  1  0  0  0
 10 13  1  0  0  0
 12 14  1  0  0  0
M  END
> <minimizedAffinity>
-6.32212

$$$$
