3M96_E38_A_265


 28 30  0  0  0  0  0  0  0  0999 V2000
   -4.3336    5.6256   13.3348 C   0  0  0  0  0  0  0  0  0  0  0  0
   -3.0730    5.8620   13.2736 O   0  0  0  0  0  0  0  0  0  0  0  0
   -4.9106    4.7863   14.5195 C   0  0  0  0  0  0  0  0  0  0  0  0
   -4.5599    3.4206   14.6342 C   0  0  0  0  0  0  0  0  0  0  0  0
   -5.0567    2.6533   15.6168 C   0  0  0  0  0  0  0  0  0  0  0  0
   -5.9956    3.1540   16.5143 C   0  0  0  0  0  0  0  0  0  0  0  0
   -6.3597    4.5095   16.4144 C   0  0  0  0  0  0  0  0  0  0  0  0
   -5.8460    5.2799   15.4351 C   0  0  0  0  0  0  0  0  0  0  0  0
   -6.6962    2.2562   17.7198 Cl  0  0  0  0  0  0  0  0  0  0  0  0
   -4.6321    0.8953   15.6469 S   0  0  0  0  0  0  0  0  0  0  0  0
   -3.3704    0.8425   16.4591 O   0  0  0  0  0  0  0  0  0  0  0  0
   -4.5170    0.4707   14.2620 O   0  0  0  0  0  0  0  0  0  0  0  0
   -5.7990    0.0806   16.4180 N   0  0  0  0  0  0  0  0  0  0  0  0
   -5.8549    0.4004   17.3849 H   0  0  0  0  0  0  0  0  0  0  0  0
   -5.5852   -0.9166   16.4014 H   0  0  0  0  0  0  0  0  0  0  0  0
   -5.3105    6.1103   12.2604 C   0  0  0  0  0  0  0  0  0  0  0  0
   -4.7878    5.9000   10.4898 S   0  0  0  0  0  0  0  0  0  0  0  0
   -2.6985    4.0524   10.6964 N   0  0  0  0  0  0  0  0  0  0  0  0
   -4.0191    4.2936   10.6333 C   0  0  0  0  0  0  0  0  0  0  0  0
   -4.7452    3.1522   10.7155 N   0  0  0  0  0  0  0  0  0  0  0  0
   -3.8576    2.1817   10.8588 C   0  0  0  0  0  0  0  0  0  0  0  0
   -2.5885    2.7282   10.8223 C   0  0  0  0  0  0  0  0  0  0  0  0
   -1.4160    1.9489   10.9141 C   0  0  0  0  0  0  0  0  0  0  0  0
   -1.6018    0.5628   11.0406 C   0  0  0  0  0  0  0  0  0  0  0  0
   -2.9453    0.0762   11.0755 C   0  0  0  0  0  0  0  0  0  0  0  0
   -4.0919    0.8337   11.0197 C   0  0  0  0  0  0  0  0  0  0  0  0
   -3.3869   -1.7671   11.2173 Br  0  0  0  0  0  0  0  0  0  0  0  0
   -1.9683    4.7116   10.6581 H   0  0  0  0  0  0  0  0  0  0  0  0
 18 19  1  0  0  0
 18 22  1  0  0  0
 17 19  1  0  0  0
 19 20  2  0  0  0
 20 21  1  0  0  0
 22 21  2  0  0  0
 21 26  1  0  0  0
 23 22  1  0  0  0
 23 24  2  0  0  0
 24 25  1  0  0  0
 25 26  2  0  0  0
 25 27  1  0  0  0
 17 16  1  0  0  0
 16  1  1  0  0  0
  2  1  2  0  0  0
  1  3  1  0  0  0
  3  8  2  0  0  0
  3  4  1  0  0  0
  4  5  2  0  0  0
  5  6  1  0  0  0
  5 10  1  0  0  0
  7  6  2  0  0  0
  6  9  1  0  0  0
  8  7  1  0  0  0
 13 10  1  0  0  0
 10 11  2  0  0  0
 10 12  2  0  0  0
 18 28  1  0  0  0
 13 14  1  0  0  0
 13 15  1  0  0  0
M  END
> <minimizedAffinity>
-9.42814

$$$$
3M96_E38_A_265


 28 30  0  0  0  0  0  0  0  0999 V2000
   -4.2678    2.2877   11.7478 C   0  0  0  0  0  0  0  0  0  0  0  0
   -4.8025    2.7039   10.6572 O   0  0  0  0  0  0  0  0  0  0  0  0
   -4.8048    2.8008   13.1222 C   0  0  0  0  0  0  0  0  0  0  0  0
   -5.0016    1.8774   14.1758 C   0  0  0  0  0  0  0  0  0  0  0  0
   -5.4911    2.2677   15.3627 C   0  0  0  0  0  0  0  0  0  0  0  0
   -5.8954    3.5825   15.5759 C   0  0  0  0  0  0  0  0  0  0  0  0
   -5.7109    4.5154   14.5388 C   0  0  0  0  0  0  0  0  0  0  0  0
   -5.2043    4.1213   13.3536 C   0  0  0  0  0  0  0  0  0  0  0  0
   -6.5594    4.1298   16.9936 Cl  0  0  0  0  0  0  0  0  0  0  0  0
   -5.7980    1.0156   16.6315 S   0  0  0  0  0  0  0  0  0  0  0  0
   -5.1447    1.5792   17.8604 O   0  0  0  0  0  0  0  0  0  0  0  0
   -5.2440   -0.2305   16.1297 O   0  0  0  0  0  0  0  0  0  0  0  0
   -7.3924    0.8932   16.8818 N   0  0  0  0  0  0  0  0  0  0  0  0
   -7.7506    1.7813   17.2328 H   0  0  0  0  0  0  0  0  0  0  0  0
   -7.5737    0.1590   17.5663 H   0  0  0  0  0  0  0  0  0  0  0  0
   -3.0829    1.3183   11.7608 C   0  0  0  0  0  0  0  0  0  0  0  0
   -1.4756    1.9431   11.0690 S   0  0  0  0  0  0  0  0  0  0  0  0
   -1.8940    4.6986   10.8372 N   0  0  0  0  0  0  0  0  0  0  0  0
   -1.5997    3.6406   11.6120 C   0  0  0  0  0  0  0  0  0  0  0  0
   -1.4205    3.9978   12.9071 N   0  0  0  0  0  0  0  0  0  0  0  0
   -1.6331    5.3031   12.9434 C   0  0  0  0  0  0  0  0  0  0  0  0
   -1.9015    5.7477   11.6624 C   0  0  0  0  0  0  0  0  0  0  0  0
   -2.1394    7.1042   11.3565 C   0  0  0  0  0  0  0  0  0  0  0  0
   -2.0834    8.0015   12.4352 C   0  0  0  0  0  0  0  0  0  0  0  0
   -1.8052    7.4628   13.7295 C   0  0  0  0  0  0  0  0  0  0  0  0
   -1.6053    6.1377   14.0390 C   0  0  0  0  0  0  0  0  0  0  0  0
   -1.6671    8.5275   15.2981 Br  0  0  0  0  0  0  0  0  0  0  0  0
   -2.0671    4.6996    9.8680 H   0  0  0  0  0  0  0  0  0  0  0  0
 18 19  1  0  0  0
 18 22  1  0  0  0
 17 19  1  0  0  0
 19 20  2  0  0  0
 20 21  1  0  0  0
 22 21  2  0  0  0
 21 26  1  0  0  0
 23 22  1  0  0  0
 23 24  2  0  0  0
 24 25  1  0  0  0
 25 26  2  0  0  0
 25 27  1  0  0  0
 17 16  1  0  0  0
 16  1  1  0  0  0
  2  1  2  0  0  0
  1  3  1  0  0  0
  3  8  2  0  0  0
  3  4  1  0  0  0
  4  5  2  0  0  0
  5  6  1  0  0  0
  5 10  1  0  0  0
  7  6  2  0  0  0
  6  9  1  0  0  0
  8  7  1  0  0  0
 13 10  1  0  0  0
 10 11  2  0  0  0
 10 12  2  0  0  0
 18 28  1  0  0  0
 13 14  1  0  0  0
 13 15  1  0  0  0
M  END
> <minimizedAffinity>
-8.90749

$$$$
3M96_E38_A_265


 28 30  0  0  0  0  0  0  0  0999 V2000
   -1.9979    5.7284   10.3453 C   0  0  0  0  0  0  0  0  0  0  0  0
   -1.9302    6.2746    9.1852 O   0  0  0  0  0  0  0  0  0  0  0  0
   -1.9652    4.1719   10.4749 C   0  0  0  0  0  0  0  0  0  0  0  0
   -3.1170    3.4924   10.9362 C   0  0  0  0  0  0  0  0  0  0  0  0
   -3.1242    2.1597   11.0936 C   0  0  0  0  0  0  0  0  0  0  0  0
   -1.9739    1.4050   10.8818 C   0  0  0  0  0  0  0  0  0  0  0  0
   -0.8168    2.0633   10.4258 C   0  0  0  0  0  0  0  0  0  0  0  0
   -0.8195    3.4001   10.2545 C   0  0  0  0  0  0  0  0  0  0  0  0
   -1.8872   -0.2356   11.1069 Cl  0  0  0  0  0  0  0  0  0  0  0  0
   -4.6046    1.3716   11.7712 S   0  0  0  0  0  0  0  0  0  0  0  0
   -5.4768    2.5261   12.1724 O   0  0  0  0  0  0  0  0  0  0  0  0
   -4.1588    0.5049   12.8490 O   0  0  0  0  0  0  0  0  0  0  0  0
   -5.3391    0.5275   10.6017 N   0  0  0  0  0  0  0  0  0  0  0  0
   -5.6396    1.1621    9.8619 H   0  0  0  0  0  0  0  0  0  0  0  0
   -6.1516    0.0470   10.9883 H   0  0  0  0  0  0  0  0  0  0  0  0
   -2.1457    6.5492   11.6291 C   0  0  0  0  0  0  0  0  0  0  0  0
   -1.2125    5.9542   13.1216 S   0  0  0  0  0  0  0  0  0  0  0  0
   -3.7224    5.9055   14.3543 N   0  0  0  0  0  0  0  0  0  0  0  0
   -2.5867    5.2638   14.0309 C   0  0  0  0  0  0  0  0  0  0  0  0
   -2.5936    3.9783   14.4602 N   0  0  0  0  0  0  0  0  0  0  0  0
   -3.7701    3.8090   15.0410 C   0  0  0  0  0  0  0  0  0  0  0  0
   -4.4636    5.0040   15.0019 C   0  0  0  0  0  0  0  0  0  0  0  0
   -5.7442    5.1654   15.5713 C   0  0  0  0  0  0  0  0  0  0  0  0
   -6.2905    4.0340   16.1983 C   0  0  0  0  0  0  0  0  0  0  0  0
   -5.5130    2.8346   16.1921 C   0  0  0  0  0  0  0  0  0  0  0  0
   -4.2789    2.6622   15.6101 C   0  0  0  0  0  0  0  0  0  0  0  0
   -6.0801    1.2161   17.0118 Br  0  0  0  0  0  0  0  0  0  0  0  0
   -3.9574    6.8408   14.1559 H   0  0  0  0  0  0  0  0  0  0  0  0
 18 19  1  0  0  0
 18 22  1  0  0  0
 17 19  1  0  0  0
 19 20  2  0  0  0
 20 21  1  0  0  0
 22 21  2  0  0  0
 21 26  1  0  0  0
 23 22  1  0  0  0
 23 24  2  0  0  0
 24 25  1  0  0  0
 25 26  2  0  0  0
 25 27  1  0  0  0
 17 16  1  0  0  0
 16  1  1  0  0  0
  2  1  2  0  0  0
  1  3  1  0  0  0
  3  8  2  0  0  0
  3  4  1  0  0  0
  4  5  2  0  0  0
  5  6  1  0  0  0
  5 10  1  0  0  0
  7  6  2  0  0  0
  6  9  1  0  0  0
  8  7  1  0  0  0
 13 10  1  0  0  0
 10 11  2  0  0  0
 10 12  2  0  0  0
 18 28  1  0  0  0
 13 14  1  0  0  0
 13 15  1  0  0  0
M  END
> <minimizedAffinity>
-8.57499

$$$$
3M96_E38_A_265


 28 30  0  0  0  0  0  0  0  0999 V2000
   -4.0142    2.1527   12.4776 C   0  0  0  0  0  0  0  0  0  0  0  0
   -3.4381    1.0081   12.5592 O   0  0  0  0  0  0  0  0  0  0  0  0
   -4.7182    2.7599   13.7332 C   0  0  0  0  0  0  0  0  0  0  0  0
   -5.0740    1.9084   14.8055 C   0  0  0  0  0  0  0  0  0  0  0  0
   -5.7086    2.3804   15.8896 C   0  0  0  0  0  0  0  0  0  0  0  0
   -6.1086    3.7115   15.9653 C   0  0  0  0  0  0  0  0  0  0  0  0
   -5.7668    4.5737   14.9070 C   0  0  0  0  0  0  0  0  0  0  0  0
   -5.1157    4.0978   13.8272 C   0  0  0  0  0  0  0  0  0  0  0  0
   -6.9433    4.3573   17.2445 Cl  0  0  0  0  0  0  0  0  0  0  0  0
   -6.2095    1.2163   17.1802 S   0  0  0  0  0  0  0  0  0  0  0  0
   -7.6671    0.9804   16.9079 O   0  0  0  0  0  0  0  0  0  0  0  0
   -5.8920    1.8427   18.4524 O   0  0  0  0  0  0  0  0  0  0  0  0
   -5.3981   -0.1710   16.9877 N   0  0  0  0  0  0  0  0  0  0  0  0
   -5.6417   -0.5853   16.0881 H   0  0  0  0  0  0  0  0  0  0  0  0
   -5.6458   -0.8165   17.7376 H   0  0  0  0  0  0  0  0  0  0  0  0
   -4.0722    2.9489   11.1713 C   0  0  0  0  0  0  0  0  0  0  0  0
   -2.8888    4.3709   10.9982 S   0  0  0  0  0  0  0  0  0  0  0  0
   -3.9914    6.9397   10.9142 N   0  0  0  0  0  0  0  0  0  0  0  0
   -4.0690    5.6425   10.5714 C   0  0  0  0  0  0  0  0  0  0  0  0
   -5.1657    5.3842    9.8182 N   0  0  0  0  0  0  0  0  0  0  0  0
   -5.7702    6.5512    9.6673 C   0  0  0  0  0  0  0  0  0  0  0  0
   -5.0634    7.5136   10.3638 C   0  0  0  0  0  0  0  0  0  0  0  0
   -5.4693    8.8630   10.4312 C   0  0  0  0  0  0  0  0  0  0  0  0
   -6.6528    9.1888    9.7492 C   0  0  0  0  0  0  0  0  0  0  0  0
   -7.3227    8.1384    9.0486 C   0  0  0  0  0  0  0  0  0  0  0  0
   -6.9143    6.8286    8.9519 C   0  0  0  0  0  0  0  0  0  0  0  0
   -8.9465    8.3881    8.0927 Br  0  0  0  0  0  0  0  0  0  0  0  0
   -3.2931    7.3738   11.4555 H   0  0  0  0  0  0  0  0  0  0  0  0
 18 19  1  0  0  0
 18 22  1  0  0  0
 17 19  1  0  0  0
 19 20  2  0  0  0
 20 21  1  0  0  0
 22 21  2  0  0  0
 21 26  1  0  0  0
 23 22  1  0  0  0
 23 24  2  0  0  0
 24 25  1  0  0  0
 25 26  2  0  0  0
 25 27  1  0  0  0
 17 16  1  0  0  0
 16  1  1  0  0  0
  2  1  2  0  0  0
  1  3  1  0  0  0
  3  8  2  0  0  0
  3  4  1  0  0  0
  4  5  2  0  0  0
  5  6  1  0  0  0
  5 10  1  0  0  0
  7  6  2  0  0  0
  6  9  1  0  0  0
  8  7  1  0  0  0
 13 10  1  0  0  0
 10 11  2  0  0  0
 10 12  2  0  0  0
 18 28  1  0  0  0
 13 14  1  0  0  0
 13 15  1  0  0  0
M  END
> <minimizedAffinity>
-8.54796

$$$$
3M96_E38_A_265


 28 30  0  0  0  0  0  0  0  0999 V2000
   -4.3389    2.8016   12.3128 C   0  0  0  0  0  0  0  0  0  0  0  0
   -5.0792    2.2638   11.4119 O   0  0  0  0  0  0  0  0  0  0  0  0
   -4.9530    3.1830   13.6978 C   0  0  0  0  0  0  0  0  0  0  0  0
   -5.1734    2.1687   14.6590 C   0  0  0  0  0  0  0  0  0  0  0  0
   -5.7279    2.4449   15.8494 C   0  0  0  0  0  0  0  0  0  0  0  0
   -6.1772    3.7270   16.1526 C   0  0  0  0  0  0  0  0  0  0  0  0
   -5.9700    4.7491   15.2079 C   0  0  0  0  0  0  0  0  0  0  0  0
   -5.3985    4.4693   14.0198 C   0  0  0  0  0  0  0  0  0  0  0  0
   -6.9209    4.1358   17.5774 Cl  0  0  0  0  0  0  0  0  0  0  0  0
   -6.0593    1.0823   16.9920 S   0  0  0  0  0  0  0  0  0  0  0  0
   -7.5471    0.8968   16.9107 O   0  0  0  0  0  0  0  0  0  0  0  0
   -5.5373    1.4875   18.2861 O   0  0  0  0  0  0  0  0  0  0  0  0
   -5.3234   -0.2543   16.4519 N   0  0  0  0  0  0  0  0  0  0  0  0
   -5.7107   -0.5125   15.5443 H   0  0  0  0  0  0  0  0  0  0  0  0
   -5.4723   -1.0156   17.1141 H   0  0  0  0  0  0  0  0  0  0  0  0
   -2.8612    3.1224   12.0738 C   0  0  0  0  0  0  0  0  0  0  0  0
   -2.4759    4.4182   10.7990 S   0  0  0  0  0  0  0  0  0  0  0  0
   -2.2071    5.7498   13.2436 N   0  0  0  0  0  0  0  0  0  0  0  0
   -2.2241    5.8019   11.9008 C   0  0  0  0  0  0  0  0  0  0  0  0
   -1.9991    7.0570   11.4414 N   0  0  0  0  0  0  0  0  0  0  0  0
   -1.8126    7.7974   12.5218 C   0  0  0  0  0  0  0  0  0  0  0  0
   -1.9651    7.0008   13.6410 C   0  0  0  0  0  0  0  0  0  0  0  0
   -1.8621    7.5002   14.9564 C   0  0  0  0  0  0  0  0  0  0  0  0
   -1.5983    8.8740   15.0787 C   0  0  0  0  0  0  0  0  0  0  0  0
   -1.4492    9.6283   13.8738 C   0  0  0  0  0  0  0  0  0  0  0  0
   -1.5156    9.1410   12.5894 C   0  0  0  0  0  0  0  0  0  0  0  0
   -1.1146   11.4993   13.8455 Br  0  0  0  0  0  0  0  0  0  0  0  0
   -2.3441    4.9581   13.8126 H   0  0  0  0  0  0  0  0  0  0  0  0
 18 19  1  0  0  0
 18 22  1  0  0  0
 17 19  1  0  0  0
 19 20  2  0  0  0
 20 21  1  0  0  0
 22 21  2  0  0  0
 21 26  1  0  0  0
 23 22  1  0  0  0
 23 24  2  0  0  0
 24 25  1  0  0  0
 25 26  2  0  0  0
 25 27  1  0  0  0
 17 16  1  0  0  0
 16  1  1  0  0  0
  2  1  2  0  0  0
  1  3  1  0  0  0
  3  8  2  0  0  0
  3  4  1  0  0  0
  4  5  2  0  0  0
  5  6  1  0  0  0
  5 10  1  0  0  0
  7  6  2  0  0  0
  6  9  1  0  0  0
  8  7  1  0  0  0
 13 10  1  0  0  0
 10 11  2  0  0  0
 10 12  2  0  0  0
 18 28  1  0  0  0
 13 14  1  0  0  0
 13 15  1  0  0  0
M  END
> <minimizedAffinity>
-8.32361

$$$$
3M96_E38_A_265


 28 30  0  0  0  0  0  0  0  0999 V2000
   -3.9786    4.7668   10.6703 C   0  0  0  0  0  0  0  0  0  0  0  0
   -4.6970    3.7032   10.6337 O   0  0  0  0  0  0  0  0  0  0  0  0
   -4.6266    6.1538   10.3587 C   0  0  0  0  0  0  0  0  0  0  0  0
   -5.6099    6.2454    9.3458 C   0  0  0  0  0  0  0  0  0  0  0  0
   -6.1704    7.4210    9.0224 C   0  0  0  0  0  0  0  0  0  0  0  0
   -5.7493    8.6060    9.6190 C   0  0  0  0  0  0  0  0  0  0  0  0
   -4.7695    8.5360   10.6267 C   0  0  0  0  0  0  0  0  0  0  0  0
   -4.2209    7.3506   10.9586 C   0  0  0  0  0  0  0  0  0  0  0  0
   -6.3526   10.1023    9.2355 Cl  0  0  0  0  0  0  0  0  0  0  0  0
   -7.3557    7.4734    7.6571 S   0  0  0  0  0  0  0  0  0  0  0  0
   -7.3548    6.0697    7.1240 O   0  0  0  0  0  0  0  0  0  0  0  0
   -6.8922    8.5029    6.7423 O   0  0  0  0  0  0  0  0  0  0  0  0
   -8.8240    7.8225    8.2420 N   0  0  0  0  0  0  0  0  0  0  0  0
   -9.1208    7.0832    8.8790 H   0  0  0  0  0  0  0  0  0  0  0  0
   -9.4886    7.8945    7.4716 H   0  0  0  0  0  0  0  0  0  0  0  0
   -2.4794    4.7319   10.9786 C   0  0  0  0  0  0  0  0  0  0  0  0
   -1.9093    5.6450   12.4931 S   0  0  0  0  0  0  0  0  0  0  0  0
   -4.1798    5.6118   14.1255 N   0  0  0  0  0  0  0  0  0  0  0  0
   -3.0892    4.9805   13.6585 C   0  0  0  0  0  0  0  0  0  0  0  0
   -2.9775    3.7269   14.1614 N   0  0  0  0  0  0  0  0  0  0  0  0
   -4.0358    3.5654   14.9386 C   0  0  0  0  0  0  0  0  0  0  0  0
   -4.7707    4.7361   14.9414 C   0  0  0  0  0  0  0  0  0  0  0  0
   -5.9459    4.9009   15.7042 C   0  0  0  0  0  0  0  0  0  0  0  0
   -6.3394    3.7998   16.4818 C   0  0  0  0  0  0  0  0  0  0  0  0
   -5.5290    2.6240   16.4206 C   0  0  0  0  0  0  0  0  0  0  0  0
   -4.4012    2.4460   15.6537 C   0  0  0  0  0  0  0  0  0  0  0  0
   -5.8931    1.0493   17.4211 Br  0  0  0  0  0  0  0  0  0  0  0  0
   -4.4791    6.5250   13.9116 H   0  0  0  0  0  0  0  0  0  0  0  0
 18 19  1  0  0  0
 18 22  1  0  0  0
 17 19  1  0  0  0
 19 20  2  0  0  0
 20 21  1  0  0  0
 22 21  2  0  0  0
 21 26  1  0  0  0
 23 22  1  0  0  0
 23 24  2  0  0  0
 24 25  1  0  0  0
 25 26  2  0  0  0
 25 27  1  0  0  0
 17 16  1  0  0  0
 16  1  1  0  0  0
  2  1  2  0  0  0
  1  3  1  0  0  0
  3  8  2  0  0  0
  3  4  1  0  0  0
  4  5  2  0  0  0
  5  6  1  0  0  0
  5 10  1  0  0  0
  7  6  2  0  0  0
  6  9  1  0  0  0
  8  7  1  0  0  0
 13 10  1  0  0  0
 10 11  2  0  0  0
 10 12  2  0  0  0
 18 28  1  0  0  0
 13 14  1  0  0  0
 13 15  1  0  0  0
M  END
> <minimizedAffinity>
-7.62960

$$$$
3M96_E38_A_265


 28 30  0  0  0  0  0  0  0  0999 V2000
   -4.3296    2.4054   12.1336 C   0  0  0  0  0  0  0  0  0  0  0  0
   -4.7927    1.3456   11.5759 O   0  0  0  0  0  0  0  0  0  0  0  0
   -4.9206    2.8883   13.4967 C   0  0  0  0  0  0  0  0  0  0  0  0
   -5.1351    1.9458   14.5297 C   0  0  0  0  0  0  0  0  0  0  0  0
   -5.6702    2.3095   15.7054 C   0  0  0  0  0  0  0  0  0  0  0  0
   -6.1050    3.6137   15.9241 C   0  0  0  0  0  0  0  0  0  0  0  0
   -5.9035    4.5652   14.9072 C   0  0  0  0  0  0  0  0  0  0  0  0
   -5.3513    4.1979   13.7339 C   0  0  0  0  0  0  0  0  0  0  0  0
   -6.8249    4.1278   17.3268 Cl  0  0  0  0  0  0  0  0  0  0  0  0
   -5.9958    1.0333   16.9452 S   0  0  0  0  0  0  0  0  0  0  0  0
   -7.4844    0.8457   16.8879 O   0  0  0  0  0  0  0  0  0  0  0  0
   -5.4638    1.5292   18.2032 O   0  0  0  0  0  0  0  0  0  0  0  0
   -5.2660   -0.3402   16.4973 N   0  0  0  0  0  0  0  0  0  0  0  0
   -5.6602   -0.6621   15.6134 H   0  0  0  0  0  0  0  0  0  0  0  0
   -5.4115   -1.0517   17.2136 H   0  0  0  0  0  0  0  0  0  0  0  0
   -3.2261    3.2518   11.4935 C   0  0  0  0  0  0  0  0  0  0  0  0
   -1.5481    2.4693   11.3367 S   0  0  0  0  0  0  0  0  0  0  0  0
    0.7726    4.0290   11.3923 N   0  0  0  0  0  0  0  0  0  0  0  0
   -0.5533    3.9317   11.5890 C   0  0  0  0  0  0  0  0  0  0  0  0
   -1.0912    5.1081   11.9935 N   0  0  0  0  0  0  0  0  0  0  0  0
   -0.0819    5.9628   12.0243 C   0  0  0  0  0  0  0  0  0  0  0  0
    1.0785    5.2963   11.6784 C   0  0  0  0  0  0  0  0  0  0  0  0
    2.3423    5.9228   11.6501 C   0  0  0  0  0  0  0  0  0  0  0  0
    2.3682    7.2816   12.0033 C   0  0  0  0  0  0  0  0  0  0  0  0
    1.1254    7.9000   12.3438 C   0  0  0  0  0  0  0  0  0  0  0  0
   -0.1138    7.3032   12.3411 C   0  0  0  0  0  0  0  0  0  0  0  0
    0.9720    9.7202   12.8697 Br  0  0  0  0  0  0  0  0  0  0  0  0
    1.3870    3.3175   11.0997 H   0  0  0  0  0  0  0  0  0  0  0  0
 18 19  1  0  0  0
 18 22  1  0  0  0
 17 19  1  0  0  0
 19 20  2  0  0  0
 20 21  1  0  0  0
 22 21  2  0  0  0
 21 26  1  0  0  0
 23 22  1  0  0  0
 23 24  2  0  0  0
 24 25  1  0  0  0
 25 26  2  0  0  0
 25 27  1  0  0  0
 17 16  1  0  0  0
 16  1  1  0  0  0
  2  1  2  0  0  0
  1  3  1  0  0  0
  3  8  2  0  0  0
  3  4  1  0  0  0
  4  5  2  0  0  0
  5  6  1  0  0  0
  5 10  1  0  0  0
  7  6  2  0  0  0
  6  9  1  0  0  0
  8  7  1  0  0  0
 13 10  1  0  0  0
 10 11  2  0  0  0
 10 12  2  0  0  0
 18 28  1  0  0  0
 13 14  1  0  0  0
 13 15  1  0  0  0
M  END
> <minimizedAffinity>
-7.54331

$$$$
3M96_E38_A_265


 28 30  0  0  0  0  0  0  0  0999 V2000
   -1.3004    2.8483   11.3029 C   0  0  0  0  0  0  0  0  0  0  0  0
   -0.9230    1.7098   11.7613 O   0  0  0  0  0  0  0  0  0  0  0  0
   -0.3008    4.0488   11.2840 C   0  0  0  0  0  0  0  0  0  0  0  0
    0.9100    3.9287   10.5623 C   0  0  0  0  0  0  0  0  0  0  0  0
    1.8125    4.9217   10.5444 C   0  0  0  0  0  0  0  0  0  0  0  0
    1.6247    6.0769   11.2980 C   0  0  0  0  0  0  0  0  0  0  0  0
    0.4279    6.2137   12.0254 C   0  0  0  0  0  0  0  0  0  0  0  0
   -0.4823    5.2197   12.0276 C   0  0  0  0  0  0  0  0  0  0  0  0
    2.7163    7.3231   11.3718 Cl  0  0  0  0  0  0  0  0  0  0  0  0
    3.3757    4.6611    9.6725 S   0  0  0  0  0  0  0  0  0  0  0  0
    4.4054    4.6764   10.7652 O   0  0  0  0  0  0  0  0  0  0  0  0
    3.4816    5.7189    8.6819 O   0  0  0  0  0  0  0  0  0  0  0  0
    3.3575    3.2005    8.9752 N   0  0  0  0  0  0  0  0  0  0  0  0
    3.2826    2.4813    9.6946 H   0  0  0  0  0  0  0  0  0  0  0  0
    4.2197    3.0650    8.4474 H   0  0  0  0  0  0  0  0  0  0  0  0
   -2.7234    3.0956   10.7954 C   0  0  0  0  0  0  0  0  0  0  0  0
   -3.9710    1.7521   11.0974 S   0  0  0  0  0  0  0  0  0  0  0  0
   -5.1025    3.4861   12.9774 N   0  0  0  0  0  0  0  0  0  0  0  0
   -4.5536    2.2916   12.6978 C   0  0  0  0  0  0  0  0  0  0  0  0
   -4.5030    1.4913   13.7904 N   0  0  0  0  0  0  0  0  0  0  0  0
   -5.0560    2.1939   14.7655 C   0  0  0  0  0  0  0  0  0  0  0  0
   -5.4061    3.4384   14.2762 C   0  0  0  0  0  0  0  0  0  0  0  0
   -5.9899    4.4406   15.0793 C   0  0  0  0  0  0  0  0  0  0  0  0
   -6.1973    4.1108   16.4284 C   0  0  0  0  0  0  0  0  0  0  0  0
   -5.8130    2.8022   16.8558 C   0  0  0  0  0  0  0  0  0  0  0  0
   -5.2742    1.8099   16.0704 C   0  0  0  0  0  0  0  0  0  0  0  0
   -5.9960    2.1905   18.6461 Br  0  0  0  0  0  0  0  0  0  0  0  0
   -5.2492    4.2362   12.3567 H   0  0  0  0  0  0  0  0  0  0  0  0
 18 19  1  0  0  0
 18 22  1  0  0  0
 17 19  1  0  0  0
 19 20  2  0  0  0
 20 21  1  0  0  0
 22 21  2  0  0  0
 21 26  1  0  0  0
 23 22  1  0  0  0
 23 24  2  0  0  0
 24 25  1  0  0  0
 25 26  2  0  0  0
 25 27  1  0  0  0
 17 16  1  0  0  0
 16  1  1  0  0  0
  2  1  2  0  0  0
  1  3  1  0  0  0
  3  8  2  0  0  0
  3  4  1  0  0  0
  4  5  2  0  0  0
  5  6  1  0  0  0
  5 10  1  0  0  0
  7  6  2  0  0  0
  6  9  1  0  0  0
  8  7  1  0  0  0
 13 10  1  0  0  0
 10 11  2  0  0  0
 10 12  2  0  0  0
 18 28  1  0  0  0
 13 14  1  0  0  0
 13 15  1  0  0  0
M  END
> <minimizedAffinity>
-7.44401

$$$$
3M96_E38_A_265


 28 30  0  0  0  0  0  0  0  0999 V2000
   -4.1996    0.9881   11.4376 C   0  0  0  0  0  0  0  0  0  0  0  0
   -4.7613    0.0236   10.8026 O   0  0  0  0  0  0  0  0  0  0  0  0
   -4.5367    1.2275   12.9442 C   0  0  0  0  0  0  0  0  0  0  0  0
   -4.9940    2.5012   13.3561 C   0  0  0  0  0  0  0  0  0  0  0  0
   -5.2649    2.7617   14.6444 C   0  0  0  0  0  0  0  0  0  0  0  0
   -5.0326    1.8107   15.6339 C   0  0  0  0  0  0  0  0  0  0  0  0
   -4.5745    0.5385   15.2444 C   0  0  0  0  0  0  0  0  0  0  0  0
   -4.3186    0.2772   13.9472 C   0  0  0  0  0  0  0  0  0  0  0  0
   -5.2897    2.0737   17.2509 Cl  0  0  0  0  0  0  0  0  0  0  0  0
   -5.7608    4.4385   15.1074 S   0  0  0  0  0  0  0  0  0  0  0  0
   -4.4592    5.1434   15.3593 O   0  0  0  0  0  0  0  0  0  0  0  0
   -6.6478    4.3097   16.2512 O   0  0  0  0  0  0  0  0  0  0  0  0
   -6.5124    5.1348   13.8544 N   0  0  0  0  0  0  0  0  0  0  0  0
   -5.8655    5.2109   13.0694 H   0  0  0  0  0  0  0  0  0  0  0  0
   -6.8312    6.0655   14.1237 H   0  0  0  0  0  0  0  0  0  0  0  0
   -3.2212    1.9527   10.7624 C   0  0  0  0  0  0  0  0  0  0  0  0
   -1.4292    1.7987   11.2289 S   0  0  0  0  0  0  0  0  0  0  0  0
   -0.3693    4.3863   11.1819 N   0  0  0  0  0  0  0  0  0  0  0  0
   -1.1574    3.4764   11.7795 C   0  0  0  0  0  0  0  0  0  0  0  0
   -1.7715    3.9832   12.8763 N   0  0  0  0  0  0  0  0  0  0  0  0
   -1.3768    5.2438   12.9480 C   0  0  0  0  0  0  0  0  0  0  0  0
   -0.4894    5.4932   11.9180 C   0  0  0  0  0  0  0  0  0  0  0  0
    0.1423    6.7416   11.7366 C   0  0  0  0  0  0  0  0  0  0  0  0
   -0.1739    7.7379   12.6743 C   0  0  0  0  0  0  0  0  0  0  0  0
   -1.1038    7.4030   13.7067 C   0  0  0  0  0  0  0  0  0  0  0  0
   -1.7478    6.1986   13.8692 C   0  0  0  0  0  0  0  0  0  0  0  0
   -1.6301    8.6142   15.0739 Br  0  0  0  0  0  0  0  0  0  0  0  0
    0.1794    4.2628   10.3739 H   0  0  0  0  0  0  0  0  0  0  0  0
 18 19  1  0  0  0
 18 22  1  0  0  0
 17 19  1  0  0  0
 19 20  2  0  0  0
 20 21  1  0  0  0
 22 21  2  0  0  0
 21 26  1  0  0  0
 23 22  1  0  0  0
 23 24  2  0  0  0
 24 25  1  0  0  0
 25 26  2  0  0  0
 25 27  1  0  0  0
 17 16  1  0  0  0
 16  1  1  0  0  0
  2  1  2  0  0  0
  1  3  1  0  0  0
  3  8  2  0  0  0
  3  4  1  0  0  0
  4  5  2  0  0  0
  5  6  1  0  0  0
  5 10  1  0  0  0
  7  6  2  0  0  0
  6  9  1  0  0  0
  8  7  1  0  0  0
 13 10  1  0  0  0
 10 11  2  0  0  0
 10 12  2  0  0  0
 18 28  1  0  0  0
 13 14  1  0  0  0
 13 15  1  0  0  0
M  END
> <minimizedAffinity>
-7.43356

$$$$
3M96_E38_A_265


 28 30  0  0  0  0  0  0  0  0999 V2000
   -4.0988    5.4647   11.2749 C   0  0  0  0  0  0  0  0  0  0  0  0
   -4.8552    4.4274   11.2977 O   0  0  0  0  0  0  0  0  0  0  0  0
   -4.7057    6.8619   10.9280 C   0  0  0  0  0  0  0  0  0  0  0  0
   -3.8465    7.9024   10.5034 C   0  0  0  0  0  0  0  0  0  0  0  0
   -4.3191    9.1273   10.2256 C   0  0  0  0  0  0  0  0  0  0  0  0
   -5.6616    9.4402   10.4188 C   0  0  0  0  0  0  0  0  0  0  0  0
   -6.5317    8.4193   10.8440 C   0  0  0  0  0  0  0  0  0  0  0  0
   -6.0545    7.1866   11.1068 C   0  0  0  0  0  0  0  0  0  0  0  0
   -6.3111   10.9424   10.1511 Cl  0  0  0  0  0  0  0  0  0  0  0  0
   -3.1482   10.4298    9.7736 S   0  0  0  0  0  0  0  0  0  0  0  0
   -3.2358   11.4049   10.9120 O   0  0  0  0  0  0  0  0  0  0  0  0
   -3.5622   10.9293    8.4733 O   0  0  0  0  0  0  0  0  0  0  0  0
   -1.6558    9.8059    9.7174 N   0  0  0  0  0  0  0  0  0  0  0  0
   -1.3948    9.4649   10.6426 H   0  0  0  0  0  0  0  0  0  0  0  0
   -0.9970   10.5265    9.4223 H   0  0  0  0  0  0  0  0  0  0  0  0
   -2.5939    5.3866   11.5449 C   0  0  0  0  0  0  0  0  0  0  0  0
   -2.0060    5.9601   13.2115 S   0  0  0  0  0  0  0  0  0  0  0  0
   -4.3324    5.5940   14.7201 N   0  0  0  0  0  0  0  0  0  0  0  0
   -3.1921    5.0861   14.2220 C   0  0  0  0  0  0  0  0  0  0  0  0
   -3.0323    3.7822   14.5558 N   0  0  0  0  0  0  0  0  0  0  0  0
   -4.1093    3.4649   15.2553 C   0  0  0  0  0  0  0  0  0  0  0  0
   -4.9059    4.5873   15.3828 C   0  0  0  0  0  0  0  0  0  0  0  0
   -6.1167    4.5891   16.1068 C   0  0  0  0  0  0  0  0  0  0  0  0
   -6.4796    3.3741   16.7101 C   0  0  0  0  0  0  0  0  0  0  0  0
   -5.6052    2.2583   16.5277 C   0  0  0  0  0  0  0  0  0  0  0  0
   -4.4409    2.2418   15.7957 C   0  0  0  0  0  0  0  0  0  0  0  0
   -5.9217    0.5457   17.2892 Br  0  0  0  0  0  0  0  0  0  0  0  0
   -4.6720    6.5124   14.6179 H   0  0  0  0  0  0  0  0  0  0  0  0
 18 19  1  0  0  0
 18 22  1  0  0  0
 17 19  1  0  0  0
 19 20  2  0  0  0
 20 21  1  0  0  0
 22 21  2  0  0  0
 21 26  1  0  0  0
 23 22  1  0  0  0
 23 24  2  0  0  0
 24 25  1  0  0  0
 25 26  2  0  0  0
 25 27  1  0  0  0
 17 16  1  0  0  0
 16  1  1  0  0  0
  2  1  2  0  0  0
  1  3  1  0  0  0
  3  8  2  0  0  0
  3  4  1  0  0  0
  4  5  2  0  0  0
  5  6  1  0  0  0
  5 10  1  0  0  0
  7  6  2  0  0  0
  6  9  1  0  0  0
  8  7  1  0  0  0
 13 10  1  0  0  0
 10 11  2  0  0  0
 10 12  2  0  0  0
 18 28  1  0  0  0
 13 14  1  0  0  0
 13 15  1  0  0  0
M  END
> <minimizedAffinity>
-7.36165

$$$$
