1R1H_BIR_A_2001


 34 35  0  0  0  0  0  0  0  0999 V2000
   29.9939   43.2664   35.1657 C   0  0  0  0  0  0  0  0  0  0  0  0
   29.8593   42.2934   36.3087 C   0  0  0  0  0  0  0  0  0  0  0  0
   29.2202   42.5765   37.3099 O   0  0  0  0  0  0  0  0  0  0  0  0
   30.4762   41.1239   36.2034 N   0  0  0  0  0  0  0  0  0  0  0  0
   31.0527   40.9220   35.4313 H   0  0  0  0  0  0  0  0  0  0  0  0
   30.2751   40.1495   37.2631 C   0  0  0  0  0  0  0  0  0  0  0  0
   29.2272   39.1206   36.8454 C   0  0  0  0  0  0  0  0  0  0  0  0
   31.5488   39.4543   37.5957 C   0  0  0  0  0  0  0  0  0  0  0  0
   32.6192   40.0583   37.4950 O   0  0  0  0  0  0  0  0  0  0  0  0
   31.5023   38.2927   37.9700 O   0  0  0  0  0  0  0  0  0  0  0  0
   32.6288   40.9494   37.2056 H   0  0  0  0  0  0  0  0  0  0  0  0
   29.1180   42.8482   33.9756 C   0  0  0  0  0  0  0  0  0  0  0  0
   29.3626   43.7780   32.5327 P   0  0  0  0  0  0  0  0  0  0  0  0
   30.8150   43.7237   32.1778 O   0  0  0  0  0  0  0  0  0  0  0  0
   28.7419   45.1330   32.7095 O   0  0  0  0  0  0  0  0  0  0  0  0
   28.8759   45.6575   31.9046 H   0  0  0  0  0  0  0  0  0  0  0  0
   27.3963   42.1453   31.7706 C   0  0  0  0  0  0  0  0  0  0  0  0
   28.5961   42.9292   31.2262 C   0  0  0  0  0  0  0  0  0  0  0  0
   29.5015   42.0205   30.5355 N   0  0  0  0  0  0  0  0  0  0  0  0
   29.8277   41.3059   31.1862 H   0  0  0  0  0  0  0  0  0  0  0  0
   30.3002   42.5438   30.1769 H   0  0  0  0  0  0  0  0  0  0  0  0
   29.5885   44.6777   35.6167 C   0  0  0  0  0  0  0  0  0  0  0  0
   30.7815   45.4798   36.0521 C   0  0  0  0  0  0  0  0  0  0  0  0
   30.8521   45.9827   37.3493 C   0  0  0  0  0  0  0  0  0  0  0  0
   31.9635   46.7114   37.7595 C   0  0  0  0  0  0  0  0  0  0  0  0
   33.0273   46.9451   36.8787 C   0  0  0  0  0  0  0  0  0  0  0  0
   32.9457   46.4404   35.5757 C   0  0  0  0  0  0  0  0  0  0  0  0
   31.8324   45.7157   35.1667 C   0  0  0  0  0  0  0  0  0  0  0  0
   34.2103   47.6966   37.3145 C   0  0  0  0  0  0  0  0  0  0  0  0
   34.1102   49.0570   37.6313 C   0  0  0  0  0  0  0  0  0  0  0  0
   35.2311   49.7744   38.0401 C   0  0  0  0  0  0  0  0  0  0  0  0
   36.4668   49.1399   38.1413 C   0  0  0  0  0  0  0  0  0  0  0  0
   36.5778   47.7862   37.8295 C   0  0  0  0  0  0  0  0  0  0  0  0
   35.4582   47.0707   37.4171 C   0  0  0  0  0  0  0  0  0  0  0  0
 17 18  1  0  0  0
 18 19  1  0  0  0
 18 13  1  0  0  0
 13 14  2  0  0  0
 13 15  1  0  0  0
 13 12  1  0  0  0
 12  1  1  0  0  0
  1  2  1  0  0  0
  1 22  1  0  0  0
  2  3  2  0  0  0
  2  4  1  0  0  0
  4  6  1  0  0  0
  6  7  1  0  0  0
  6  8  1  0  0  0
  8  9  1  0  0  0
  8 10  2  0  0  0
 22 23  1  0  0  0
 23 24  2  0  0  0
 23 28  1  0  0  0
 24 25  1  0  0  0
 25 26  2  0  0  0
 26 27  1  0  0  0
 26 29  1  0  0  0
 27 28  2  0  0  0
 29 30  2  0  0  0
 29 34  1  0  0  0
 30 31  1  0  0  0
 31 32  2  0  0  0
 32 33  1  0  0  0
 33 34  2  0  0  0
 19 20  1  0  0  0
 19 21  1  0  0  0
 15 16  1  0  0  0
  4  5  1  0  0  0
  9 11  1  0  0  0
M  END
> <minimizedAffinity>
-10.16882

$$$$
1R1H_BIR_A_2001


 34 35  0  0  0  0  0  0  0  0999 V2000
   29.7870   44.6716   33.1081 C   0  0  0  0  0  0  0  0  0  0  0  0
   30.1956   43.6195   34.1068 C   0  0  0  0  0  0  0  0  0  0  0  0
   31.3699   43.3334   34.2811 O   0  0  0  0  0  0  0  0  0  0  0  0
   29.2366   42.9958   34.7780 N   0  0  0  0  0  0  0  0  0  0  0  0
   28.2869   43.1710   34.5865 H   0  0  0  0  0  0  0  0  0  0  0  0
   29.6307   42.0455   35.8048 C   0  0  0  0  0  0  0  0  0  0  0  0
   29.6764   42.7283   37.1697 C   0  0  0  0  0  0  0  0  0  0  0  0
   28.6868   40.8953   35.8562 C   0  0  0  0  0  0  0  0  0  0  0  0
   29.0612   39.8179   36.3248 O   0  0  0  0  0  0  0  0  0  0  0  0
   27.5512   41.0497   35.4344 O   0  0  0  0  0  0  0  0  0  0  0  0
   29.9379   39.7244   36.6422 H   0  0  0  0  0  0  0  0  0  0  0  0
   28.4542   44.3102   32.4361 C   0  0  0  0  0  0  0  0  0  0  0  0
   28.5976   43.2856   31.0447 P   0  0  0  0  0  0  0  0  0  0  0  0
   29.9830   42.7214   31.0159 O   0  0  0  0  0  0  0  0  0  0  0  0
   28.1283   44.0346   29.8318 O   0  0  0  0  0  0  0  0  0  0  0  0
   28.2064   43.4656   29.0501 H   0  0  0  0  0  0  0  0  0  0  0  0
   26.4161   41.9219   30.3419 C   0  0  0  0  0  0  0  0  0  0  0  0
   27.5996   41.8909   31.3160 C   0  0  0  0  0  0  0  0  0  0  0  0
   27.1053   41.8083   32.6839 N   0  0  0  0  0  0  0  0  0  0  0  0
   26.5202   42.6196   32.8836 H   0  0  0  0  0  0  0  0  0  0  0  0
   27.8943   41.7908   33.3301 H   0  0  0  0  0  0  0  0  0  0  0  0
   29.6479   46.0366   33.7986 C   0  0  0  0  0  0  0  0  0  0  0  0
   30.9025   46.4109   34.5348 C   0  0  0  0  0  0  0  0  0  0  0  0
   30.9044   46.4795   35.9262 C   0  0  0  0  0  0  0  0  0  0  0  0
   32.0694   46.8096   36.6105 C   0  0  0  0  0  0  0  0  0  0  0  0
   33.2557   47.0718   35.9132 C   0  0  0  0  0  0  0  0  0  0  0  0
   33.2434   47.0055   34.5152 C   0  0  0  0  0  0  0  0  0  0  0  0
   32.0770   46.6792   33.8331 C   0  0  0  0  0  0  0  0  0  0  0  0
   34.4916   47.4008   36.6332 C   0  0  0  0  0  0  0  0  0  0  0  0
   34.5309   48.4866   37.5168 C   0  0  0  0  0  0  0  0  0  0  0  0
   35.7027   48.8049   38.1977 C   0  0  0  0  0  0  0  0  0  0  0  0
   36.8503   48.0391   38.0070 C   0  0  0  0  0  0  0  0  0  0  0  0
   36.8223   46.9558   37.1310 C   0  0  0  0  0  0  0  0  0  0  0  0
   35.6522   46.6405   36.4477 C   0  0  0  0  0  0  0  0  0  0  0  0
 17 18  1  0  0  0
 18 19  1  0  0  0
 18 13  1  0  0  0
 13 14  2  0  0  0
 13 15  1  0  0  0
 13 12  1  0  0  0
 12  1  1  0  0  0
  1  2  1  0  0  0
  1 22  1  0  0  0
  2  3  2  0  0  0
  2  4  1  0  0  0
  4  6  1  0  0  0
  6  7  1  0  0  0
  6  8  1  0  0  0
  8  9  1  0  0  0
  8 10  2  0  0  0
 22 23  1  0  0  0
 23 24  2  0  0  0
 23 28  1  0  0  0
 24 25  1  0  0  0
 25 26  2  0  0  0
 26 27  1  0  0  0
 26 29  1  0  0  0
 27 28  2  0  0  0
 29 30  2  0  0  0
 29 34  1  0  0  0
 30 31  1  0  0  0
 31 32  2  0  0  0
 32 33  1  0  0  0
 33 34  2  0  0  0
 19 20  1  0  0  0
 19 21  1  0  0  0
 15 16  1  0  0  0
  4  5  1  0  0  0
  9 11  1  0  0  0
M  END
> <minimizedAffinity>
-9.97886

$$$$
1R1H_BIR_A_2001


 34 35  0  0  0  0  0  0  0  0999 V2000
   29.3303   44.2017   33.6862 C   0  0  0  0  0  0  0  0  0  0  0  0
   29.3303   43.7975   32.2344 C   0  0  0  0  0  0  0  0  0  0  0  0
   30.0003   44.3987   31.4093 O   0  0  0  0  0  0  0  0  0  0  0  0
   28.5612   42.7786   31.8742 N   0  0  0  0  0  0  0  0  0  0  0  0
   27.9639   42.3399   32.5223 H   0  0  0  0  0  0  0  0  0  0  0  0
   28.6271   42.3297   30.4933 C   0  0  0  0  0  0  0  0  0  0  0  0
   28.2885   40.8438   30.4020 C   0  0  0  0  0  0  0  0  0  0  0  0
   27.6901   43.1063   29.6358 C   0  0  0  0  0  0  0  0  0  0  0  0
   28.1290   43.9867   28.8923 O   0  0  0  0  0  0  0  0  0  0  0  0
   26.4979   42.8461   29.6853 O   0  0  0  0  0  0  0  0  0  0  0  0
   29.0482   44.1677   28.8722 H   0  0  0  0  0  0  0  0  0  0  0  0
   30.5048   43.5608   34.4401 C   0  0  0  0  0  0  0  0  0  0  0  0
   30.0551   42.6546   35.8483 P   0  0  0  0  0  0  0  0  0  0  0  0
   30.0212   43.5874   37.0177 O   0  0  0  0  0  0  0  0  0  0  0  0
   30.9326   41.4417   35.9537 O   0  0  0  0  0  0  0  0  0  0  0  0
   30.6851   40.9309   36.7403 H   0  0  0  0  0  0  0  0  0  0  0  0
   27.9546   41.3867   36.8937 C   0  0  0  0  0  0  0  0  0  0  0  0
   28.3946   42.1833   35.6599 C   0  0  0  0  0  0  0  0  0  0  0  0
   28.1658   41.3910   34.4589 N   0  0  0  0  0  0  0  0  0  0  0  0
   28.7023   40.5254   34.5153 H   0  0  0  0  0  0  0  0  0  0  0  0
   28.4620   41.9219   33.6399 H   0  0  0  0  0  0  0  0  0  0  0  0
   29.4245   45.7295   33.8142 C   0  0  0  0  0  0  0  0  0  0  0  0
   30.6878   46.1460   34.5120 C   0  0  0  0  0  0  0  0  0  0  0  0
   30.6729   46.4353   35.8745 C   0  0  0  0  0  0  0  0  0  0  0  0
   31.8448   46.8049   36.5260 C   0  0  0  0  0  0  0  0  0  0  0  0
   33.0548   46.8862   35.8248 C   0  0  0  0  0  0  0  0  0  0  0  0
   33.0596   46.5987   34.4550 C   0  0  0  0  0  0  0  0  0  0  0  0
   31.8865   46.2332   33.8052 C   0  0  0  0  0  0  0  0  0  0  0  0
   34.2970   47.2566   36.5133 C   0  0  0  0  0  0  0  0  0  0  0  0
   34.3124   48.3162   37.4288 C   0  0  0  0  0  0  0  0  0  0  0  0
   35.4898   48.6737   38.0801 C   0  0  0  0  0  0  0  0  0  0  0  0
   36.6671   47.9737   37.8273 C   0  0  0  0  0  0  0  0  0  0  0  0
   36.6630   46.9169   36.9190 C   0  0  0  0  0  0  0  0  0  0  0  0
   35.4871   46.5626   36.2655 C   0  0  0  0  0  0  0  0  0  0  0  0
 17 18  1  0  0  0
 18 19  1  0  0  0
 18 13  1  0  0  0
 13 14  2  0  0  0
 13 15  1  0  0  0
 13 12  1  0  0  0
 12  1  1  0  0  0
  1  2  1  0  0  0
  1 22  1  0  0  0
  2  3  2  0  0  0
  2  4  1  0  0  0
  4  6  1  0  0  0
  6  7  1  0  0  0
  6  8  1  0  0  0
  8  9  1  0  0  0
  8 10  2  0  0  0
 22 23  1  0  0  0
 23 24  2  0  0  0
 23 28  1  0  0  0
 24 25  1  0  0  0
 25 26  2  0  0  0
 26 27  1  0  0  0
 26 29  1  0  0  0
 27 28  2  0  0  0
 29 30  2  0  0  0
 29 34  1  0  0  0
 30 31  1  0  0  0
 31 32  2  0  0  0
 32 33  1  0  0  0
 33 34  2  0  0  0
 19 20  1  0  0  0
 19 21  1  0  0  0
 15 16  1  0  0  0
  4  5  1  0  0  0
  9 11  1  0  0  0
M  END
> <minimizedAffinity>
-9.27148

$$$$
1R1H_BIR_A_2001


 34 35  0  0  0  0  0  0  0  0999 V2000
   29.9511   44.4697   35.5586 C   0  0  0  0  0  0  0  0  0  0  0  0
   30.8924   45.6401   35.4338 C   0  0  0  0  0  0  0  0  0  0  0  0
   30.5577   46.6638   34.8584 O   0  0  0  0  0  0  0  0  0  0  0  0
   32.1075   45.5165   35.9509 N   0  0  0  0  0  0  0  0  0  0  0  0
   32.4054   44.6669   36.3494 H   0  0  0  0  0  0  0  0  0  0  0  0
   32.9859   46.6739   35.9114 C   0  0  0  0  0  0  0  0  0  0  0  0
   33.1629   47.2535   37.3128 C   0  0  0  0  0  0  0  0  0  0  0  0
   34.3173   46.3128   35.3514 C   0  0  0  0  0  0  0  0  0  0  0  0
   34.5384   46.4730   34.1489 O   0  0  0  0  0  0  0  0  0  0  0  0
   35.1691   45.8679   36.1050 O   0  0  0  0  0  0  0  0  0  0  0  0
   33.8684   46.8161   33.5909 H   0  0  0  0  0  0  0  0  0  0  0  0
   30.0585   43.5397   34.3412 C   0  0  0  0  0  0  0  0  0  0  0  0
   29.5378   44.2418   32.8437 P   0  0  0  0  0  0  0  0  0  0  0  0
   30.7438   44.4807   31.9911 O   0  0  0  0  0  0  0  0  0  0  0  0
   28.6495   45.4162   33.1336 O   0  0  0  0  0  0  0  0  0  0  0  0
   28.3553   45.8129   32.2987 H   0  0  0  0  0  0  0  0  0  0  0  0
   28.0131   42.0573   32.9689 C   0  0  0  0  0  0  0  0  0  0  0  0
   28.6613   43.0235   31.9706 C   0  0  0  0  0  0  0  0  0  0  0  0
   29.5030   42.2779   31.0442 N   0  0  0  0  0  0  0  0  0  0  0  0
   30.2297   41.7869   31.5649 H   0  0  0  0  0  0  0  0  0  0  0  0
   29.9354   42.9231   30.3830 H   0  0  0  0  0  0  0  0  0  0  0  0
   30.2622   43.6688   36.8319 C   0  0  0  0  0  0  0  0  0  0  0  0
   29.6667   42.2910   36.7742 C   0  0  0  0  0  0  0  0  0  0  0  0
   30.4929   41.1696   36.7868 C   0  0  0  0  0  0  0  0  0  0  0  0
   29.9428   39.8926   36.7504 C   0  0  0  0  0  0  0  0  0  0  0  0
   28.5539   39.7160   36.7061 C   0  0  0  0  0  0  0  0  0  0  0  0
   27.7315   40.8484   36.6886 C   0  0  0  0  0  0  0  0  0  0  0  0
   28.2835   42.1237   36.7212 C   0  0  0  0  0  0  0  0  0  0  0  0
   27.9695   38.3697   36.6876 C   0  0  0  0  0  0  0  0  0  0  0  0
   27.8809   37.6506   35.4892 C   0  0  0  0  0  0  0  0  0  0  0  0
   27.3226   36.3755   35.4668 C   0  0  0  0  0  0  0  0  0  0  0  0
   26.8488   35.8006   36.6436 C   0  0  0  0  0  0  0  0  0  0  0  0
   26.9330   36.5067   37.8421 C   0  0  0  0  0  0  0  0  0  0  0  0
   27.4872   37.7826   37.8632 C   0  0  0  0  0  0  0  0  0  0  0  0
 17 18  1  0  0  0
 18 19  1  0  0  0
 18 13  1  0  0  0
 13 14  2  0  0  0
 13 15  1  0  0  0
 13 12  1  0  0  0
 12  1  1  0  0  0
  1  2  1  0  0  0
  1 22  1  0  0  0
  2  3  2  0  0  0
  2  4  1  0  0  0
  4  6  1  0  0  0
  6  7  1  0  0  0
  6  8  1  0  0  0
  8  9  1  0  0  0
  8 10  2  0  0  0
 22 23  1  0  0  0
 23 24  2  0  0  0
 23 28  1  0  0  0
 24 25  1  0  0  0
 25 26  2  0  0  0
 26 27  1  0  0  0
 26 29  1  0  0  0
 27 28  2  0  0  0
 29 30  2  0  0  0
 29 34  1  0  0  0
 30 31  1  0  0  0
 31 32  2  0  0  0
 32 33  1  0  0  0
 33 34  2  0  0  0
 19 20  1  0  0  0
 19 21  1  0  0  0
 15 16  1  0  0  0
  4  5  1  0  0  0
  9 11  1  0  0  0
M  END
> <minimizedAffinity>
-8.55017

$$$$
1R1H_BIR_A_2001


 34 35  0  0  0  0  0  0  0  0999 V2000
   30.1965   44.2001   34.2414 C   0  0  0  0  0  0  0  0  0  0  0  0
   29.1274   44.0889   33.1851 C   0  0  0  0  0  0  0  0  0  0  0  0
   28.5643   45.0798   32.7466 O   0  0  0  0  0  0  0  0  0  0  0  0
   28.7997   42.8760   32.7596 N   0  0  0  0  0  0  0  0  0  0  0  0
   29.1983   42.0717   33.1638 H   0  0  0  0  0  0  0  0  0  0  0  0
   27.8341   42.7709   31.6783 C   0  0  0  0  0  0  0  0  0  0  0  0
   28.5433   42.4602   30.3624 C   0  0  0  0  0  0  0  0  0  0  0  0
   26.8291   41.7103   31.9634 C   0  0  0  0  0  0  0  0  0  0  0  0
   25.6734   42.0260   32.2557 O   0  0  0  0  0  0  0  0  0  0  0  0
   27.1750   40.5411   31.8942 O   0  0  0  0  0  0  0  0  0  0  0  0
   25.4324   42.9303   32.3024 H   0  0  0  0  0  0  0  0  0  0  0  0
   30.3568   42.8797   35.0091 C   0  0  0  0  0  0  0  0  0  0  0  0
   29.0721   42.5247   36.1181 P   0  0  0  0  0  0  0  0  0  0  0  0
   28.1106   41.5977   35.4439 O   0  0  0  0  0  0  0  0  0  0  0  0
   28.5267   43.8107   36.6671 O   0  0  0  0  0  0  0  0  0  0  0  0
   27.8073   43.6176   37.2885 H   0  0  0  0  0  0  0  0  0  0  0  0
   30.6758   40.5045   36.7959 C   0  0  0  0  0  0  0  0  0  0  0  0
   29.7366   41.5565   37.3972 C   0  0  0  0  0  0  0  0  0  0  0  0
   28.7121   40.8979   38.1967 N   0  0  0  0  0  0  0  0  0  0  0  0
   28.1775   40.2608   37.6063 H   0  0  0  0  0  0  0  0  0  0  0  0
   28.0869   41.5996   38.5931 H   0  0  0  0  0  0  0  0  0  0  0  0
   31.5414   44.5758   33.6012 C   0  0  0  0  0  0  0  0  0  0  0  0
   32.3350   45.4931   34.4872 C   0  0  0  0  0  0  0  0  0  0  0  0
   32.2458   45.3794   35.8727 C   0  0  0  0  0  0  0  0  0  0  0  0
   32.9926   46.2168   36.6947 C   0  0  0  0  0  0  0  0  0  0  0  0
   33.8468   47.1802   36.1431 C   0  0  0  0  0  0  0  0  0  0  0  0
   33.9263   47.2909   34.7501 C   0  0  0  0  0  0  0  0  0  0  0  0
   33.1762   46.4556   33.9305 C   0  0  0  0  0  0  0  0  0  0  0  0
   34.6512   48.0520   37.0074 C   0  0  0  0  0  0  0  0  0  0  0  0
   35.8169   47.5691   37.6152 C   0  0  0  0  0  0  0  0  0  0  0  0
   36.5798   48.3915   38.4397 C   0  0  0  0  0  0  0  0  0  0  0  0
   36.1892   49.7093   38.6646 C   0  0  0  0  0  0  0  0  0  0  0  0
   35.0316   50.2006   38.0641 C   0  0  0  0  0  0  0  0  0  0  0  0
   34.2674   49.3773   37.2435 C   0  0  0  0  0  0  0  0  0  0  0  0
 17 18  1  0  0  0
 18 19  1  0  0  0
 18 13  1  0  0  0
 13 14  2  0  0  0
 13 15  1  0  0  0
 13 12  1  0  0  0
 12  1  1  0  0  0
  1  2  1  0  0  0
  1 22  1  0  0  0
  2  3  2  0  0  0
  2  4  1  0  0  0
  4  6  1  0  0  0
  6  7  1  0  0  0
  6  8  1  0  0  0
  8  9  1  0  0  0
  8 10  2  0  0  0
 22 23  1  0  0  0
 23 24  2  0  0  0
 23 28  1  0  0  0
 24 25  1  0  0  0
 25 26  2  0  0  0
 26 27  1  0  0  0
 26 29  1  0  0  0
 27 28  2  0  0  0
 29 30  2  0  0  0
 29 34  1  0  0  0
 30 31  1  0  0  0
 31 32  2  0  0  0
 32 33  1  0  0  0
 33 34  2  0  0  0
 19 20  1  0  0  0
 19 21  1  0  0  0
 15 16  1  0  0  0
  4  5  1  0  0  0
  9 11  1  0  0  0
M  END
> <minimizedAffinity>
-7.68295

$$$$
1R1H_BIR_A_2001


 34 35  0  0  0  0  0  0  0  0999 V2000
   29.5105   43.6665   35.6628 C   0  0  0  0  0  0  0  0  0  0  0  0
   29.2519   42.4311   36.4863 C   0  0  0  0  0  0  0  0  0  0  0  0
   28.1839   42.2594   37.0528 O   0  0  0  0  0  0  0  0  0  0  0  0
   30.2305   41.5425   36.5955 N   0  0  0  0  0  0  0  0  0  0  0  0
   31.1168   41.7129   36.2021 H   0  0  0  0  0  0  0  0  0  0  0  0
   29.9544   40.3094   37.3139 C   0  0  0  0  0  0  0  0  0  0  0  0
   28.9758   39.4434   36.5241 C   0  0  0  0  0  0  0  0  0  0  0  0
   31.2077   39.5445   37.5598 C   0  0  0  0  0  0  0  0  0  0  0  0
   32.2998   40.1011   37.4251 O   0  0  0  0  0  0  0  0  0  0  0  0
   31.1234   38.3742   37.8986 O   0  0  0  0  0  0  0  0  0  0  0  0
   32.3384   41.0002   37.1642 H   0  0  0  0  0  0  0  0  0  0  0  0
   30.3466   44.6895   36.4455 C   0  0  0  0  0  0  0  0  0  0  0  0
   30.2277   46.3194   35.8660 P   0  0  0  0  0  0  0  0  0  0  0  0
   30.2363   47.2403   37.0451 O   0  0  0  0  0  0  0  0  0  0  0  0
   29.0706   46.4203   34.9154 O   0  0  0  0  0  0  0  0  0  0  0  0
   28.9996   47.3306   34.5881 H   0  0  0  0  0  0  0  0  0  0  0  0
   31.4769   46.6655   33.5353 C   0  0  0  0  0  0  0  0  0  0  0  0
   31.7134   46.6950   35.0498 C   0  0  0  0  0  0  0  0  0  0  0  0
   32.7933   45.7797   35.3941 N   0  0  0  0  0  0  0  0  0  0  0  0
   32.5422   44.8340   35.1063 H   0  0  0  0  0  0  0  0  0  0  0  0
   32.9468   45.7989   36.4023 H   0  0  0  0  0  0  0  0  0  0  0  0
   30.2500   43.2986   34.3676 C   0  0  0  0  0  0  0  0  0  0  0  0
   29.2907   43.0413   33.2408 C   0  0  0  0  0  0  0  0  0  0  0  0
   29.4417   43.7067   32.0263 C   0  0  0  0  0  0  0  0  0  0  0  0
   28.5646   43.4574   30.9761 C   0  0  0  0  0  0  0  0  0  0  0  0
   27.5228   42.5324   31.1219 C   0  0  0  0  0  0  0  0  0  0  0  0
   27.3754   41.8722   32.3473 C   0  0  0  0  0  0  0  0  0  0  0  0
   28.2508   42.1257   33.3967 C   0  0  0  0  0  0  0  0  0  0  0  0
   26.6075   42.2524   30.0092 C   0  0  0  0  0  0  0  0  0  0  0  0
   25.6437   41.2424   30.1198 C   0  0  0  0  0  0  0  0  0  0  0  0
   24.7771   40.9704   29.0647 C   0  0  0  0  0  0  0  0  0  0  0  0
   24.8603   41.7075   27.8859 C   0  0  0  0  0  0  0  0  0  0  0  0
   25.8148   42.7156   27.7653 C   0  0  0  0  0  0  0  0  0  0  0  0
   26.6832   42.9843   28.8185 C   0  0  0  0  0  0  0  0  0  0  0  0
 17 18  1  0  0  0
 18 19  1  0  0  0
 18 13  1  0  0  0
 13 14  2  0  0  0
 13 15  1  0  0  0
 13 12  1  0  0  0
 12  1  1  0  0  0
  1  2  1  0  0  0
  1 22  1  0  0  0
  2  3  2  0  0  0
  2  4  1  0  0  0
  4  6  1  0  0  0
  6  7  1  0  0  0
  6  8  1  0  0  0
  8  9  1  0  0  0
  8 10  2  0  0  0
 22 23  1  0  0  0
 23 24  2  0  0  0
 23 28  1  0  0  0
 24 25  1  0  0  0
 25 26  2  0  0  0
 26 27  1  0  0  0
 26 29  1  0  0  0
 27 28  2  0  0  0
 29 30  2  0  0  0
 29 34  1  0  0  0
 30 31  1  0  0  0
 31 32  2  0  0  0
 32 33  1  0  0  0
 33 34  2  0  0  0
 19 20  1  0  0  0
 19 21  1  0  0  0
 15 16  1  0  0  0
  4  5  1  0  0  0
  9 11  1  0  0  0
M  END
> <minimizedAffinity>
-7.62905

$$$$
1R1H_BIR_A_2001


 34 35  0  0  0  0  0  0  0  0999 V2000
   29.7179   43.6726   35.2145 C   0  0  0  0  0  0  0  0  0  0  0  0
   29.6011   42.2796   35.7776 C   0  0  0  0  0  0  0  0  0  0  0  0
   30.5883   41.5830   35.9548 O   0  0  0  0  0  0  0  0  0  0  0  0
   28.3873   41.8229   36.0560 N   0  0  0  0  0  0  0  0  0  0  0  0
   27.5850   42.3531   35.8450 H   0  0  0  0  0  0  0  0  0  0  0  0
   28.2780   40.5156   36.6820 C   0  0  0  0  0  0  0  0  0  0  0  0
   28.3416   40.6484   38.2017 C   0  0  0  0  0  0  0  0  0  0  0  0
   27.0066   39.8447   36.2949 C   0  0  0  0  0  0  0  0  0  0  0  0
   25.9439   40.2089   36.8034 O   0  0  0  0  0  0  0  0  0  0  0  0
   27.0462   38.9448   35.4701 O   0  0  0  0  0  0  0  0  0  0  0  0
   25.9395   40.9018   37.4341 H   0  0  0  0  0  0  0  0  0  0  0  0
   30.5640   44.5709   36.1287 C   0  0  0  0  0  0  0  0  0  0  0  0
   30.4332   46.2684   35.8005 P   0  0  0  0  0  0  0  0  0  0  0  0
   30.3382   46.9945   37.1052 O   0  0  0  0  0  0  0  0  0  0  0  0
   29.3371   46.4931   34.8002 O   0  0  0  0  0  0  0  0  0  0  0  0
   29.2597   47.4417   34.6130 H   0  0  0  0  0  0  0  0  0  0  0  0
   31.8296   46.9592   33.6359 C   0  0  0  0  0  0  0  0  0  0  0  0
   31.9562   46.7962   35.1550 C   0  0  0  0  0  0  0  0  0  0  0  0
   33.0463   45.8788   35.4594 N   0  0  0  0  0  0  0  0  0  0  0  0
   32.8562   44.9716   35.0336 H   0  0  0  0  0  0  0  0  0  0  0  0
   33.1266   45.7697   36.4704 H   0  0  0  0  0  0  0  0  0  0  0  0
   30.3575   43.6314   33.8186 C   0  0  0  0  0  0  0  0  0  0  0  0
   29.3551   43.2547   32.7653 C   0  0  0  0  0  0  0  0  0  0  0  0
   28.2824   42.4249   33.0837 C   0  0  0  0  0  0  0  0  0  0  0  0
   27.3439   42.0885   32.1139 C   0  0  0  0  0  0  0  0  0  0  0  0
   27.4602   42.5820   30.8081 C   0  0  0  0  0  0  0  0  0  0  0  0
   28.5438   43.4109   30.4957 C   0  0  0  0  0  0  0  0  0  0  0  0
   29.4827   43.7427   31.4654 C   0  0  0  0  0  0  0  0  0  0  0  0
   26.4607   42.2450   29.7875 C   0  0  0  0  0  0  0  0  0  0  0  0
   25.5125   41.2423   30.0261 C   0  0  0  0  0  0  0  0  0  0  0  0
   24.5661   40.9164   29.0585 C   0  0  0  0  0  0  0  0  0  0  0  0
   24.5527   41.5917   27.8404 C   0  0  0  0  0  0  0  0  0  0  0  0
   25.4908   42.5919   27.5927 C   0  0  0  0  0  0  0  0  0  0  0  0
   26.4389   42.9144   28.5583 C   0  0  0  0  0  0  0  0  0  0  0  0
 17 18  1  0  0  0
 18 19  1  0  0  0
 18 13  1  0  0  0
 13 14  2  0  0  0
 13 15  1  0  0  0
 13 12  1  0  0  0
 12  1  1  0  0  0
  1  2  1  0  0  0
  1 22  1  0  0  0
  2  3  2  0  0  0
  2  4  1  0  0  0
  4  6  1  0  0  0
  6  7  1  0  0  0
  6  8  1  0  0  0
  8  9  1  0  0  0
  8 10  2  0  0  0
 22 23  1  0  0  0
 23 24  2  0  0  0
 23 28  1  0  0  0
 24 25  1  0  0  0
 25 26  2  0  0  0
 26 27  1  0  0  0
 26 29  1  0  0  0
 27 28  2  0  0  0
 29 30  2  0  0  0
 29 34  1  0  0  0
 30 31  1  0  0  0
 31 32  2  0  0  0
 32 33  1  0  0  0
 33 34  2  0  0  0
 19 20  1  0  0  0
 19 21  1  0  0  0
 15 16  1  0  0  0
  4  5  1  0  0  0
  9 11  1  0  0  0
M  END
> <minimizedAffinity>
-7.29019

$$$$
