1W0Z_SI1_U_1245


 36 36  0  0  0  0  0  0  0  0999 V2000
   28.6610   10.7459   31.6109 C   0  0  0  0  0  0  0  0  0  0  0  0
   27.4702   11.6699   31.9776 C   0  0  0  0  0  0  0  0  0  0  0  0
   29.0138    8.7883   30.2479 N   0  0  0  0  0  0  0  0  0  0  0  0
   28.2389    9.7884   30.5830 C   0  0  0  0  0  0  0  0  0  0  0  0
   27.1362    9.9497   30.0421 O   0  0  0  0  0  0  0  0  0  0  0  0
   29.8993    8.7192   30.6727 H   0  0  0  0  0  0  0  0  0  0  0  0
   28.6415    7.8037   29.3068 C   0  0  0  0  0  0  0  0  0  0  0  0
   31.9916    5.2272   28.2575 C   0  0  0  0  0  0  0  0  0  0  0  0
   30.7425    4.6917   28.6545 C   0  0  0  0  0  0  0  0  0  0  0  0
   29.6438    5.5252   28.9408 C   0  0  0  0  0  0  0  0  0  0  0  0
   29.7828    6.9254   28.9433 C   0  0  0  0  0  0  0  0  0  0  0  0
   31.0322    7.4695   28.5910 C   0  0  0  0  0  0  0  0  0  0  0  0
   32.1100    6.6324   28.2407 C   0  0  0  0  0  0  0  0  0  0  0  0
   34.3043    4.8096   27.5228 N   0  0  0  0  0  0  0  0  0  0  0  0
   32.9685    3.0394   27.8807 N   0  0  0  0  0  0  0  0  0  0  0  0
   33.0700    4.3855   27.8906 C   0  0  0  0  0  0  0  0  0  0  0  0
   34.9986    4.1543   27.2823 H   0  0  0  0  0  0  0  0  0  0  0  0
   34.5062    5.7728   27.4961 H   0  0  0  0  0  0  0  0  0  0  0  0
   33.7420    2.4894   27.6192 H   0  0  0  0  0  0  0  0  0  0  0  0
   29.7221   11.5532   31.1321 N   0  0  0  0  0  0  0  0  0  0  0  0
   31.0067   11.2659   31.1937 C   0  0  0  0  0  0  0  0  0  0  0  0
   31.3642   10.1867   31.6790 O   0  0  0  0  0  0  0  0  0  0  0  0
   29.4766   12.4099   30.7138 H   0  0  0  0  0  0  0  0  0  0  0  0
   32.0620   12.1644   30.7053 C   0  0  0  0  0  0  0  0  0  0  0  0
   32.9600   12.7661   31.8233 C   0  0  0  0  0  0  0  0  0  0  0  0
   32.5669   12.3217   33.1248 O   0  0  0  0  0  0  0  0  0  0  0  0
   31.6573   12.6076   33.3030 H   0  0  0  0  0  0  0  0  0  0  0  0
   33.0780   11.5375   29.8229 N   0  0  0  0  0  0  0  0  0  0  0  0
   32.7348   10.6093   29.5757 H   0  0  0  0  0  0  0  0  0  0  0  0
   33.4678   12.3269   28.3878 S   0  0  0  0  0  0  0  0  0  0  0  0
   33.5674   13.8609   28.5802 O   0  0  0  0  0  0  0  0  0  0  0  0
   34.8069   11.6682   27.9459 O   0  0  0  0  0  0  0  0  0  0  0  0
   32.2337   11.9042   27.2119 C   0  0  0  0  0  0  0  0  0  0  0  0
   32.2494   10.4637   26.6483 C   0  0  0  0  0  0  0  0  0  0  0  0
   30.8322   10.1001   26.1300 C   0  0  0  0  0  0  0  0  0  0  0  0
   29.7542   10.6843   27.0768 C   0  0  0  0  0  0  0  0  0  0  0  0
 14 16  1  0  0  0
 15 16  2  0  0  0
 16  8  1  0  0  0
  8  9  2  0  0  0
  8 13  1  0  0  0
  9 10  1  0  0  0
 10 11  2  0  0  0
 11 12  1  0  0  0
 11  7  1  0  0  0
 12 13  2  0  0  0
  7  3  1  0  0  0
  3  4  1  0  0  0
  4  5  2  0  0  0
  4  1  1  0  0  0
  1 20  1  0  0  0
  1  2  1  0  0  0
 20 21  1  0  0  0
 21 22  2  0  0  0
 21 24  1  0  0  0
 24 25  1  0  0  0
 24 28  1  0  0  0
 25 26  1  0  0  0
 28 30  1  0  0  0
 30 31  2  0  0  0
 30 32  2  0  0  0
 30 33  1  0  0  0
 33 34  1  0  0  0
 34 35  1  0  0  0
 35 36  1  0  0  0
 14 17  1  0  0  0
 14 18  1  0  0  0
 15 19  1  0  0  0
  3  6  1  0  0  0
 20 23  1  0  0  0
 26 27  1  0  0  0
 28 29  1  0  0  0
M  END
> <minimizedAffinity>
-7.42565

$$$$
1W0Z_SI1_U_1245


 36 36  0  0  0  0  0  0  0  0999 V2000
   28.0585   10.7613   30.8253 C   0  0  0  0  0  0  0  0  0  0  0  0
   26.9861   11.8787   30.7386 C   0  0  0  0  0  0  0  0  0  0  0  0
   28.6575    8.9492   29.3516 N   0  0  0  0  0  0  0  0  0  0  0  0
   27.7176    9.6824   29.8919 C   0  0  0  0  0  0  0  0  0  0  0  0
   26.5235    9.4839   29.6286 O   0  0  0  0  0  0  0  0  0  0  0  0
   29.5959    9.1657   29.5558 H   0  0  0  0  0  0  0  0  0  0  0  0
   28.3910    7.8628   28.4899 C   0  0  0  0  0  0  0  0  0  0  0  0
   31.8477    5.2559   28.0236 C   0  0  0  0  0  0  0  0  0  0  0  0
   31.8100    6.5458   27.4411 C   0  0  0  0  0  0  0  0  0  0  0  0
   30.7144    7.4088   27.6382 C   0  0  0  0  0  0  0  0  0  0  0  0
   29.5719    6.9754   28.3360 C   0  0  0  0  0  0  0  0  0  0  0  0
   29.5805    5.6791   28.8842 C   0  0  0  0  0  0  0  0  0  0  0  0
   30.7058    4.8434   28.7411 C   0  0  0  0  0  0  0  0  0  0  0  0
   34.2573    4.8559   27.7127 N   0  0  0  0  0  0  0  0  0  0  0  0
   32.9072    3.0755   27.9441 N   0  0  0  0  0  0  0  0  0  0  0  0
   32.9851    4.4222   27.8925 C   0  0  0  0  0  0  0  0  0  0  0  0
   34.9920    4.2057   27.6306 H   0  0  0  0  0  0  0  0  0  0  0  0
   34.4462    5.8209   27.6641 H   0  0  0  0  0  0  0  0  0  0  0  0
   33.7220    2.5313   27.8486 H   0  0  0  0  0  0  0  0  0  0  0  0
   29.3168   11.3231   30.4970 N   0  0  0  0  0  0  0  0  0  0  0  0
   30.4773   10.9953   31.0283 C   0  0  0  0  0  0  0  0  0  0  0  0
   30.5242   10.0959   31.8751 O   0  0  0  0  0  0  0  0  0  0  0  0
   29.3251   12.0248   29.8065 H   0  0  0  0  0  0  0  0  0  0  0  0
   31.7461   11.6413   30.6647 C   0  0  0  0  0  0  0  0  0  0  0  0
   32.8583   11.5237   31.7452 C   0  0  0  0  0  0  0  0  0  0  0  0
   33.3576   10.1881   31.8585 O   0  0  0  0  0  0  0  0  0  0  0  0
   32.6371    9.5949   32.1231 H   0  0  0  0  0  0  0  0  0  0  0  0
   32.4343   11.0759   29.4769 N   0  0  0  0  0  0  0  0  0  0  0  0
   32.3914   10.0599   29.5558 H   0  0  0  0  0  0  0  0  0  0  0  0
   31.8421   11.4866   27.9554 S   0  0  0  0  0  0  0  0  0  0  0  0
   30.4239   10.9123   27.7124 O   0  0  0  0  0  0  0  0  0  0  0  0
   31.8937   13.0421   27.9371 O   0  0  0  0  0  0  0  0  0  0  0  0
   32.9919   10.8852   26.7719 C   0  0  0  0  0  0  0  0  0  0  0  0
   32.4225   10.1704   25.5237 C   0  0  0  0  0  0  0  0  0  0  0  0
   32.4632   11.1414   24.3134 C   0  0  0  0  0  0  0  0  0  0  0  0
   33.3314   10.5410   23.1796 C   0  0  0  0  0  0  0  0  0  0  0  0
 14 16  1  0  0  0
 15 16  2  0  0  0
 16  8  1  0  0  0
  8  9  2  0  0  0
  8 13  1  0  0  0
  9 10  1  0  0  0
 10 11  2  0  0  0
 11 12  1  0  0  0
 11  7  1  0  0  0
 12 13  2  0  0  0
  7  3  1  0  0  0
  3  4  1  0  0  0
  4  5  2  0  0  0
  4  1  1  0  0  0
  1 20  1  0  0  0
  1  2  1  0  0  0
 20 21  1  0  0  0
 21 22  2  0  0  0
 21 24  1  0  0  0
 24 25  1  0  0  0
 24 28  1  0  0  0
 25 26  1  0  0  0
 28 30  1  0  0  0
 30 31  2  0  0  0
 30 32  2  0  0  0
 30 33  1  0  0  0
 33 34  1  0  0  0
 34 35  1  0  0  0
 35 36  1  0  0  0
 14 17  1  0  0  0
 14 18  1  0  0  0
 15 19  1  0  0  0
  3  6  1  0  0  0
 20 23  1  0  0  0
 26 27  1  0  0  0
 28 29  1  0  0  0
M  END
> <minimizedAffinity>
-7.31349

$$$$
1W0Z_SI1_U_1245


 36 36  0  0  0  0  0  0  0  0999 V2000
   29.1370   10.6740   31.5925 C   0  0  0  0  0  0  0  0  0  0  0  0
   27.9053   11.5711   31.8830 C   0  0  0  0  0  0  0  0  0  0  0  0
   28.9929    8.5953   30.3790 N   0  0  0  0  0  0  0  0  0  0  0  0
   28.9014    9.9009   30.3684 C   0  0  0  0  0  0  0  0  0  0  0  0
   28.6156   10.5117   29.3293 O   0  0  0  0  0  0  0  0  0  0  0  0
   29.2619    8.1515   31.2156 H   0  0  0  0  0  0  0  0  0  0  0  0
   28.7247    7.7926   29.2487 C   0  0  0  0  0  0  0  0  0  0  0  0
   32.0520    5.1534   28.2864 C   0  0  0  0  0  0  0  0  0  0  0  0
   32.0528    6.5157   27.9007 C   0  0  0  0  0  0  0  0  0  0  0  0
   31.0013    7.3812   28.2600 C   0  0  0  0  0  0  0  0  0  0  0  0
   29.8617    6.8933   28.9257 C   0  0  0  0  0  0  0  0  0  0  0  0
   29.8305    5.5308   29.2775 C   0  0  0  0  0  0  0  0  0  0  0  0
   30.9145    4.6832   28.9747 C   0  0  0  0  0  0  0  0  0  0  0  0
   34.4233    4.7178   27.7865 N   0  0  0  0  0  0  0  0  0  0  0  0
   33.0240    2.9645   27.9038 N   0  0  0  0  0  0  0  0  0  0  0  0
   33.1485    4.3055   27.9953 C   0  0  0  0  0  0  0  0  0  0  0  0
   35.1277    4.0590   27.5889 H   0  0  0  0  0  0  0  0  0  0  0  0
   34.6446    5.6761   27.8325 H   0  0  0  0  0  0  0  0  0  0  0  0
   33.8114    2.4098   27.6994 H   0  0  0  0  0  0  0  0  0  0  0  0
   30.2720   11.5083   31.4424 N   0  0  0  0  0  0  0  0  0  0  0  0
   31.5035   11.1091   31.1963 C   0  0  0  0  0  0  0  0  0  0  0  0
   31.7312    9.9037   31.0438 O   0  0  0  0  0  0  0  0  0  0  0  0
   30.1271   12.4781   31.5302 H   0  0  0  0  0  0  0  0  0  0  0  0
   32.6453   12.0271   31.0833 C   0  0  0  0  0  0  0  0  0  0  0  0
   33.4079   12.2692   32.4168 C   0  0  0  0  0  0  0  0  0  0  0  0
   32.5401   12.7335   33.4547 O   0  0  0  0  0  0  0  0  0  0  0  0
   32.1461   13.5801   33.1922 H   0  0  0  0  0  0  0  0  0  0  0  0
   33.7465   11.5723   30.1976 N   0  0  0  0  0  0  0  0  0  0  0  0
   33.6776   10.5573   30.1237 H   0  0  0  0  0  0  0  0  0  0  0  0
   33.8006   12.1870   28.6311 S   0  0  0  0  0  0  0  0  0  0  0  0
   35.2037   12.0251   27.9945 O   0  0  0  0  0  0  0  0  0  0  0  0
   32.6838   11.4055   27.8798 O   0  0  0  0  0  0  0  0  0  0  0  0
   33.3247   13.8752   28.7200 C   0  0  0  0  0  0  0  0  0  0  0  0
   33.9915   14.8572   27.7280 C   0  0  0  0  0  0  0  0  0  0  0  0
   32.9624   15.2650   26.6400 C   0  0  0  0  0  0  0  0  0  0  0  0
   32.9491   14.2149   25.5011 C   0  0  0  0  0  0  0  0  0  0  0  0
 14 16  1  0  0  0
 15 16  2  0  0  0
 16  8  1  0  0  0
  8  9  2  0  0  0
  8 13  1  0  0  0
  9 10  1  0  0  0
 10 11  2  0  0  0
 11 12  1  0  0  0
 11  7  1  0  0  0
 12 13  2  0  0  0
  7  3  1  0  0  0
  3  4  1  0  0  0
  4  5  2  0  0  0
  4  1  1  0  0  0
  1 20  1  0  0  0
  1  2  1  0  0  0
 20 21  1  0  0  0
 21 22  2  0  0  0
 21 24  1  0  0  0
 24 25  1  0  0  0
 24 28  1  0  0  0
 25 26  1  0  0  0
 28 30  1  0  0  0
 30 31  2  0  0  0
 30 32  2  0  0  0
 30 33  1  0  0  0
 33 34  1  0  0  0
 34 35  1  0  0  0
 35 36  1  0  0  0
 14 17  1  0  0  0
 14 18  1  0  0  0
 15 19  1  0  0  0
  3  6  1  0  0  0
 20 23  1  0  0  0
 26 27  1  0  0  0
 28 29  1  0  0  0
M  END
> <minimizedAffinity>
-6.77621

$$$$
1W0Z_SI1_U_1245


 36 36  0  0  0  0  0  0  0  0999 V2000
   28.9228   10.8102   31.2524 C   0  0  0  0  0  0  0  0  0  0  0  0
   27.7575   11.8125   31.4616 C   0  0  0  0  0  0  0  0  0  0  0  0
   29.3375    9.8318   29.0880 N   0  0  0  0  0  0  0  0  0  0  0  0
   28.5878    9.8916   30.1591 C   0  0  0  0  0  0  0  0  0  0  0  0
   27.5820    9.1777   30.2742 O   0  0  0  0  0  0  0  0  0  0  0  0
   30.1047   10.4447   29.0185 H   0  0  0  0  0  0  0  0  0  0  0  0
   29.0992    8.9307   28.0271 C   0  0  0  0  0  0  0  0  0  0  0  0
   31.2839    5.2021   28.5623 C   0  0  0  0  0  0  0  0  0  0  0  0
   29.9078    5.3052   28.8791 C   0  0  0  0  0  0  0  0  0  0  0  0
   29.1898    6.4959   28.6542 C   0  0  0  0  0  0  0  0  0  0  0  0
   29.8435    7.6577   28.2041 C   0  0  0  0  0  0  0  0  0  0  0  0
   31.2210    7.5791   27.9256 C   0  0  0  0  0  0  0  0  0  0  0  0
   31.9214    6.3675   28.0889 C   0  0  0  0  0  0  0  0  0  0  0  0
   31.8397    3.1168   29.7479 N   0  0  0  0  0  0  0  0  0  0  0  0
   32.8823    3.5428   27.8042 N   0  0  0  0  0  0  0  0  0  0  0  0
   31.9838    3.9799   28.7120 C   0  0  0  0  0  0  0  0  0  0  0  0
   32.3676    2.2862   29.7736 H   0  0  0  0  0  0  0  0  0  0  0  0
   31.2072    3.3207   30.4742 H   0  0  0  0  0  0  0  0  0  0  0  0
   33.3480    2.6869   27.9453 H   0  0  0  0  0  0  0  0  0  0  0  0
   30.0939   11.5447   30.9429 N   0  0  0  0  0  0  0  0  0  0  0  0
   31.3145   11.2740   31.3593 C   0  0  0  0  0  0  0  0  0  0  0  0
   31.5077   10.2765   32.0634 O   0  0  0  0  0  0  0  0  0  0  0  0
   29.9857   12.3319   30.3617 H   0  0  0  0  0  0  0  0  0  0  0  0
   32.4852   12.0974   31.0265 C   0  0  0  0  0  0  0  0  0  0  0  0
   33.5216   12.2335   32.1778 C   0  0  0  0  0  0  0  0  0  0  0  0
   34.1355   10.9819   32.4982 O   0  0  0  0  0  0  0  0  0  0  0  0
   33.4570   10.3559   32.7960 H   0  0  0  0  0  0  0  0  0  0  0  0
   33.3387   11.5809   29.9271 N   0  0  0  0  0  0  0  0  0  0  0  0
   33.2544   10.5644   29.9286 H   0  0  0  0  0  0  0  0  0  0  0  0
   33.0109   12.1092   28.3625 S   0  0  0  0  0  0  0  0  0  0  0  0
   33.7970   11.2987   27.3017 O   0  0  0  0  0  0  0  0  0  0  0  0
   31.4663   11.9688   28.2321 O   0  0  0  0  0  0  0  0  0  0  0  0
   33.4144   13.8172   28.2969 C   0  0  0  0  0  0  0  0  0  0  0  0
   34.7337   14.2646   28.9694 C   0  0  0  0  0  0  0  0  0  0  0  0
   34.4103   15.2248   30.1452 C   0  0  0  0  0  0  0  0  0  0  0  0
   35.5712   15.2186   31.1709 C   0  0  0  0  0  0  0  0  0  0  0  0
 14 16  1  0  0  0
 15 16  2  0  0  0
 16  8  1  0  0  0
  8  9  2  0  0  0
  8 13  1  0  0  0
  9 10  1  0  0  0
 10 11  2  0  0  0
 11 12  1  0  0  0
 11  7  1  0  0  0
 12 13  2  0  0  0
  7  3  1  0  0  0
  3  4  1  0  0  0
  4  5  2  0  0  0
  4  1  1  0  0  0
  1 20  1  0  0  0
  1  2  1  0  0  0
 20 21  1  0  0  0
 21 22  2  0  0  0
 21 24  1  0  0  0
 24 25  1  0  0  0
 24 28  1  0  0  0
 25 26  1  0  0  0
 28 30  1  0  0  0
 30 31  2  0  0  0
 30 32  2  0  0  0
 30 33  1  0  0  0
 33 34  1  0  0  0
 34 35  1  0  0  0
 35 36  1  0  0  0
 14 17  1  0  0  0
 14 18  1  0  0  0
 15 19  1  0  0  0
  3  6  1  0  0  0
 20 23  1  0  0  0
 26 27  1  0  0  0
 28 29  1  0  0  0
M  END
> <minimizedAffinity>
-6.74699

$$$$
1W0Z_SI1_U_1245


 36 36  0  0  0  0  0  0  0  0999 V2000
   28.6406   11.2314   29.7079 C   0  0  0  0  0  0  0  0  0  0  0  0
   28.3569   12.0741   28.4369 C   0  0  0  0  0  0  0  0  0  0  0  0
   28.7387    9.1003   28.5840 N   0  0  0  0  0  0  0  0  0  0  0  0
   28.1798    9.8552   29.4955 C   0  0  0  0  0  0  0  0  0  0  0  0
   27.2524    9.4275   30.1966 O   0  0  0  0  0  0  0  0  0  0  0  0
   29.4452    9.4914   28.0209 H   0  0  0  0  0  0  0  0  0  0  0  0
   28.3776    7.7523   28.3692 C   0  0  0  0  0  0  0  0  0  0  0  0
   31.8729    5.1770   28.0337 C   0  0  0  0  0  0  0  0  0  0  0  0
   30.6915    4.7401   28.6802 C   0  0  0  0  0  0  0  0  0  0  0  0
   29.5434    5.5538   28.7400 C   0  0  0  0  0  0  0  0  0  0  0  0
   29.5681    6.8724   28.2495 C   0  0  0  0  0  0  0  0  0  0  0  0
   30.7512    7.3329   27.6418 C   0  0  0  0  0  0  0  0  0  0  0  0
   31.8758    6.4922   27.5248 C   0  0  0  0  0  0  0  0  0  0  0  0
   32.9662    2.9719   27.9618 N   0  0  0  0  0  0  0  0  0  0  0  0
   34.2443    4.7994   27.6920 N   0  0  0  0  0  0  0  0  0  0  0  0
   32.9977    4.3263   27.9027 C   0  0  0  0  0  0  0  0  0  0  0  0
   33.7982    2.4553   27.8604 H   0  0  0  0  0  0  0  0  0  0  0  0
   32.1115    2.5052   28.1061 H   0  0  0  0  0  0  0  0  0  0  0  0
   35.0001    4.1744   27.6064 H   0  0  0  0  0  0  0  0  0  0  0  0
   30.0348   11.2555   29.9581 N   0  0  0  0  0  0  0  0  0  0  0  0
   30.6776   12.1390   30.6946 C   0  0  0  0  0  0  0  0  0  0  0  0
   30.0403   13.0311   31.2657 O   0  0  0  0  0  0  0  0  0  0  0  0
   30.5745   10.5447   29.5424 H   0  0  0  0  0  0  0  0  0  0  0  0
   32.1342   12.1257   30.8886 C   0  0  0  0  0  0  0  0  0  0  0  0
   32.5975   11.4754   32.2230 C   0  0  0  0  0  0  0  0  0  0  0  0
   32.7745   12.4448   33.2596 O   0  0  0  0  0  0  0  0  0  0  0  0
   33.4604   13.0782   32.9963 H   0  0  0  0  0  0  0  0  0  0  0  0
   32.9043   11.3337   29.8968 N   0  0  0  0  0  0  0  0  0  0  0  0
   32.4021   10.4579   29.7512 H   0  0  0  0  0  0  0  0  0  0  0  0
   33.1714   12.0169   28.3814 S   0  0  0  0  0  0  0  0  0  0  0  0
   32.8000   13.5206   28.3513 O   0  0  0  0  0  0  0  0  0  0  0  0
   34.6784   11.7437   28.1041 O   0  0  0  0  0  0  0  0  0  0  0  0
   32.2245   11.0964   27.2237 C   0  0  0  0  0  0  0  0  0  0  0  0
   32.8762   10.7864   25.8554 C   0  0  0  0  0  0  0  0  0  0  0  0
   32.8332   12.0583   24.9668 C   0  0  0  0  0  0  0  0  0  0  0  0
   34.2710   12.5715   24.7040 C   0  0  0  0  0  0  0  0  0  0  0  0
 14 16  1  0  0  0
 15 16  2  0  0  0
 16  8  1  0  0  0
  8  9  2  0  0  0
  8 13  1  0  0  0
  9 10  1  0  0  0
 10 11  2  0  0  0
 11 12  1  0  0  0
 11  7  1  0  0  0
 12 13  2  0  0  0
  7  3  1  0  0  0
  3  4  1  0  0  0
  4  5  2  0  0  0
  4  1  1  0  0  0
  1 20  1  0  0  0
  1  2  1  0  0  0
 20 21  1  0  0  0
 21 22  2  0  0  0
 21 24  1  0  0  0
 24 25  1  0  0  0
 24 28  1  0  0  0
 25 26  1  0  0  0
 28 30  1  0  0  0
 30 31  2  0  0  0
 30 32  2  0  0  0
 30 33  1  0  0  0
 33 34  1  0  0  0
 34 35  1  0  0  0
 35 36  1  0  0  0
 14 17  1  0  0  0
 14 18  1  0  0  0
 15 19  1  0  0  0
  3  6  1  0  0  0
 20 23  1  0  0  0
 26 27  1  0  0  0
 28 29  1  0  0  0
M  END
> <minimizedAffinity>
-6.58799

$$$$
1W0Z_SI1_U_1245


 36 36  0  0  0  0  0  0  0  0999 V2000
   31.9026    9.6502   26.5700 C   0  0  0  0  0  0  0  0  0  0  0  0
   31.0908   10.1656   25.3528 C   0  0  0  0  0  0  0  0  0  0  0  0
   32.9682   10.9860   28.2713 N   0  0  0  0  0  0  0  0  0  0  0  0
   32.8461   10.6864   27.0031 C   0  0  0  0  0  0  0  0  0  0  0  0
   33.5207   11.2685   26.1425 O   0  0  0  0  0  0  0  0  0  0  0  0
   32.3846   10.5285   28.9189 H   0  0  0  0  0  0  0  0  0  0  0  0
   33.8963   11.9336   28.7557 C   0  0  0  0  0  0  0  0  0  0  0  0
   32.6482   13.6491   32.5586 C   0  0  0  0  0  0  0  0  0  0  0  0
   33.1712   14.4558   31.5192 C   0  0  0  0  0  0  0  0  0  0  0  0
   33.5233   13.9075   30.2706 C   0  0  0  0  0  0  0  0  0  0  0  0
   33.4652   12.5188   30.0509 C   0  0  0  0  0  0  0  0  0  0  0  0
   32.9863   11.7013   31.0918 C   0  0  0  0  0  0  0  0  0  0  0  0
   32.5724   12.2619   32.3164 C   0  0  0  0  0  0  0  0  0  0  0  0
   32.4454   13.6879   35.0122 N   0  0  0  0  0  0  0  0  0  0  0  0
   31.5264   15.3726   33.8446 N   0  0  0  0  0  0  0  0  0  0  0  0
   32.2180   14.2149   33.7836 C   0  0  0  0  0  0  0  0  0  0  0  0
   32.1096   14.1482   35.8151 H   0  0  0  0  0  0  0  0  0  0  0  0
   32.9464   12.8451   35.1013 H   0  0  0  0  0  0  0  0  0  0  0  0
   31.2454   15.7328   34.7167 H   0  0  0  0  0  0  0  0  0  0  0  0
   30.9955    9.3373   27.6121 N   0  0  0  0  0  0  0  0  0  0  0  0
   30.4302    8.1663   27.8256 C   0  0  0  0  0  0  0  0  0  0  0  0
   30.7125    7.2135   27.0904 O   0  0  0  0  0  0  0  0  0  0  0  0
   30.7657   10.0635   28.2359 H   0  0  0  0  0  0  0  0  0  0  0  0
   29.4702    7.9158   28.9096 C   0  0  0  0  0  0  0  0  0  0  0  0
   29.4271    6.4407   29.3999 C   0  0  0  0  0  0  0  0  0  0  0  0
   28.8595    5.5660   28.4209 O   0  0  0  0  0  0  0  0  0  0  0  0
   27.9452    5.8342   28.2389 H   0  0  0  0  0  0  0  0  0  0  0  0
   29.7374    8.6363   30.1798 N   0  0  0  0  0  0  0  0  0  0  0  0
   30.6563    9.0709   30.0953 H   0  0  0  0  0  0  0  0  0  0  0  0
   28.6545    9.8386   30.6448 S   0  0  0  0  0  0  0  0  0  0  0  0
   27.2128    9.5355   30.1654 O   0  0  0  0  0  0  0  0  0  0  0  0
   28.7949    9.8951   32.1938 O   0  0  0  0  0  0  0  0  0  0  0  0
   29.2475   11.3540   29.9841 C   0  0  0  0  0  0  0  0  0  0  0  0
   29.1809   12.6032   30.8941 C   0  0  0  0  0  0  0  0  0  0  0  0
   29.7398   13.8294   30.1238 C   0  0  0  0  0  0  0  0  0  0  0  0
   30.1453   13.4147   28.6873 C   0  0  0  0  0  0  0  0  0  0  0  0
 14 16  1  0  0  0
 15 16  2  0  0  0
 16  8  1  0  0  0
  8  9  2  0  0  0
  8 13  1  0  0  0
  9 10  1  0  0  0
 10 11  2  0  0  0
 11 12  1  0  0  0
 11  7  1  0  0  0
 12 13  2  0  0  0
  7  3  1  0  0  0
  3  4  1  0  0  0
  4  5  2  0  0  0
  4  1  1  0  0  0
  1 20  1  0  0  0
  1  2  1  0  0  0
 20 21  1  0  0  0
 21 22  2  0  0  0
 21 24  1  0  0  0
 24 25  1  0  0  0
 24 28  1  0  0  0
 25 26  1  0  0  0
 28 30  1  0  0  0
 30 31  2  0  0  0
 30 32  2  0  0  0
 30 33  1  0  0  0
 33 34  1  0  0  0
 34 35  1  0  0  0
 35 36  1  0  0  0
 14 17  1  0  0  0
 14 18  1  0  0  0
 15 19  1  0  0  0
  3  6  1  0  0  0
 20 23  1  0  0  0
 26 27  1  0  0  0
 28 29  1  0  0  0
M  END
> <minimizedAffinity>
-6.42205

$$$$
1W0Z_SI1_U_1245


 36 36  0  0  0  0  0  0  0  0999 V2000
   30.9645   11.7475   30.9112 C   0  0  0  0  0  0  0  0  0  0  0  0
   30.0039   12.8944   31.3210 C   0  0  0  0  0  0  0  0  0  0  0  0
   29.8983    9.9669   29.6835 N   0  0  0  0  0  0  0  0  0  0  0  0
   30.2188   10.4863   30.8413 C   0  0  0  0  0  0  0  0  0  0  0  0
   29.9011    9.9280   31.9005 O   0  0  0  0  0  0  0  0  0  0  0  0
   30.1344   10.4626   28.8663 H   0  0  0  0  0  0  0  0  0  0  0  0
   29.2303    8.7301   29.5495 C   0  0  0  0  0  0  0  0  0  0  0  0
   31.9154    5.5781   28.2014 C   0  0  0  0  0  0  0  0  0  0  0  0
   30.7450    5.2860   28.9426 C   0  0  0  0  0  0  0  0  0  0  0  0
   29.8492    6.3013   29.3308 C   0  0  0  0  0  0  0  0  0  0  0  0
   30.1435    7.6550   29.0846 C   0  0  0  0  0  0  0  0  0  0  0  0
   31.3260    7.9610   28.3850 C   0  0  0  0  0  0  0  0  0  0  0  0
   32.1858    6.9373   27.9403 C   0  0  0  0  0  0  0  0  0  0  0  0
   33.8406    4.7235   26.9262 N   0  0  0  0  0  0  0  0  0  0  0  0
   32.6017    3.2544   28.0894 N   0  0  0  0  0  0  0  0  0  0  0  0
   32.7713    4.5477   27.7414 C   0  0  0  0  0  0  0  0  0  0  0  0
   34.3844    3.9494   26.6536 H   0  0  0  0  0  0  0  0  0  0  0  0
   34.0732    5.6253   26.6070 H   0  0  0  0  0  0  0  0  0  0  0  0
   33.2191    2.5677   27.7480 H   0  0  0  0  0  0  0  0  0  0  0  0
   31.5254   12.0636   29.6493 N   0  0  0  0  0  0  0  0  0  0  0  0
   32.7998   12.2851   29.3982 C   0  0  0  0  0  0  0  0  0  0  0  0
   33.6242   12.1884   30.3143 O   0  0  0  0  0  0  0  0  0  0  0  0
   30.9042   12.1234   28.8879 H   0  0  0  0  0  0  0  0  0  0  0  0
   33.3135   12.6409   28.0681 C   0  0  0  0  0  0  0  0  0  0  0  0
   34.7750   13.1720   28.0662 C   0  0  0  0  0  0  0  0  0  0  0  0
   35.7323   12.1095   28.0447 O   0  0  0  0  0  0  0  0  0  0  0  0
   35.6270   11.5632   28.8394 H   0  0  0  0  0  0  0  0  0  0  0  0
   33.4106   11.5203   27.0992 N   0  0  0  0  0  0  0  0  0  0  0  0
   32.7982   10.7760   27.4329 H   0  0  0  0  0  0  0  0  0  0  0  0
   32.9980   11.8288   25.4963 S   0  0  0  0  0  0  0  0  0  0  0  0
   31.9614   12.9738   25.3760 O   0  0  0  0  0  0  0  0  0  0  0  0
   34.3583   12.1479   24.8107 O   0  0  0  0  0  0  0  0  0  0  0  0
   32.3818   10.3288   24.8219 C   0  0  0  0  0  0  0  0  0  0  0  0
   31.0675   10.3993   24.0089 C   0  0  0  0  0  0  0  0  0  0  0  0
   31.4040   10.4808   22.4959 C   0  0  0  0  0  0  0  0  0  0  0  0
   31.2511   11.9389   21.9954 C   0  0  0  0  0  0  0  0  0  0  0  0
 14 16  1  0  0  0
 15 16  2  0  0  0
 16  8  1  0  0  0
  8  9  2  0  0  0
  8 13  1  0  0  0
  9 10  1  0  0  0
 10 11  2  0  0  0
 11 12  1  0  0  0
 11  7  1  0  0  0
 12 13  2  0  0  0
  7  3  1  0  0  0
  3  4  1  0  0  0
  4  5  2  0  0  0
  4  1  1  0  0  0
  1 20  1  0  0  0
  1  2  1  0  0  0
 20 21  1  0  0  0
 21 22  2  0  0  0
 21 24  1  0  0  0
 24 25  1  0  0  0
 24 28  1  0  0  0
 25 26  1  0  0  0
 28 30  1  0  0  0
 30 31  2  0  0  0
 30 32  2  0  0  0
 30 33  1  0  0  0
 33 34  1  0  0  0
 34 35  1  0  0  0
 35 36  1  0  0  0
 14 17  1  0  0  0
 14 18  1  0  0  0
 15 19  1  0  0  0
  3  6  1  0  0  0
 20 23  1  0  0  0
 26 27  1  0  0  0
 28 29  1  0  0  0
M  END
> <minimizedAffinity>
-6.24608

$$$$
1W0Z_SI1_U_1245


 36 36  0  0  0  0  0  0  0  0999 V2000
   32.9324   11.1908   32.1034 C   0  0  0  0  0  0  0  0  0  0  0  0
   34.4300   10.8715   32.3513 C   0  0  0  0  0  0  0  0  0  0  0  0
   31.5824   13.1623   32.4270 N   0  0  0  0  0  0  0  0  0  0  0  0
   32.7372   12.6445   32.0933 C   0  0  0  0  0  0  0  0  0  0  0  0
   33.6879   13.3663   31.7621 O   0  0  0  0  0  0  0  0  0  0  0  0
   30.8410   12.5524   32.6447 H   0  0  0  0  0  0  0  0  0  0  0  0
   31.3484   14.5535   32.4899 C   0  0  0  0  0  0  0  0  0  0  0  0
   27.5758   15.4925   34.4513 C   0  0  0  0  0  0  0  0  0  0  0  0
   27.6139   14.9067   33.1629 C   0  0  0  0  0  0  0  0  0  0  0  0
   28.8333   14.5534   32.5528 C   0  0  0  0  0  0  0  0  0  0  0  0
   30.0619   14.8688   33.1617 C   0  0  0  0  0  0  0  0  0  0  0  0
   30.0373   15.4897   34.4246 C   0  0  0  0  0  0  0  0  0  0  0  0
   28.8143   15.7810   35.0609 C   0  0  0  0  0  0  0  0  0  0  0  0
   25.6771   16.9486   35.0325 N   0  0  0  0  0  0  0  0  0  0  0  0
   25.7015   14.8579   35.8539 N   0  0  0  0  0  0  0  0  0  0  0  0
   26.3463   15.7709   35.0969 C   0  0  0  0  0  0  0  0  0  0  0  0
   24.8252   17.0577   35.5138 H   0  0  0  0  0  0  0  0  0  0  0  0
   26.0431   17.6945   34.5045 H   0  0  0  0  0  0  0  0  0  0  0  0
   24.8482   15.0911   36.2862 H   0  0  0  0  0  0  0  0  0  0  0  0
   32.5562   10.6304   30.8579 N   0  0  0  0  0  0  0  0  0  0  0  0
   31.3671   10.1557   30.5461 C   0  0  0  0  0  0  0  0  0  0  0  0
   30.4544   10.2122   31.3779 O   0  0  0  0  0  0  0  0  0  0  0  0
   33.2486   10.5920   30.1591 H   0  0  0  0  0  0  0  0  0  0  0  0
   31.0504    9.5568   29.2421 C   0  0  0  0  0  0  0  0  0  0  0  0
   31.7594   10.2352   28.0358 C   0  0  0  0  0  0  0  0  0  0  0  0
   32.5592    9.3103   27.2937 O   0  0  0  0  0  0  0  0  0  0  0  0
   33.2529    8.9496   27.8679 H   0  0  0  0  0  0  0  0  0  0  0  0
   31.4703    8.1435   29.0684 N   0  0  0  0  0  0  0  0  0  0  0  0
   31.7959    7.8095   29.9754 H   0  0  0  0  0  0  0  0  0  0  0  0
   30.3225    7.0449   28.5115 S   0  0  0  0  0  0  0  0  0  0  0  0
   29.3675    6.5839   29.6409 O   0  0  0  0  0  0  0  0  0  0  0  0
   29.6014    7.8032   27.3594 O   0  0  0  0  0  0  0  0  0  0  0  0
   31.1967    5.6905   27.8145 C   0  0  0  0  0  0  0  0  0  0  0  0
   31.1871    4.3565   28.5977 C   0  0  0  0  0  0  0  0  0  0  0  0
   32.6265    3.7777   28.6429 C   0  0  0  0  0  0  0  0  0  0  0  0
   33.5956    4.7022   27.8645 C   0  0  0  0  0  0  0  0  0  0  0  0
 14 16  1  0  0  0
 15 16  2  0  0  0
 16  8  1  0  0  0
  8  9  2  0  0  0
  8 13  1  0  0  0
  9 10  1  0  0  0
 10 11  2  0  0  0
 11 12  1  0  0  0
 11  7  1  0  0  0
 12 13  2  0  0  0
  7  3  1  0  0  0
  3  4  1  0  0  0
  4  5  2  0  0  0
  4  1  1  0  0  0
  1 20  1  0  0  0
  1  2  1  0  0  0
 20 21  1  0  0  0
 21 22  2  0  0  0
 21 24  1  0  0  0
 24 25  1  0  0  0
 24 28  1  0  0  0
 25 26  1  0  0  0
 28 30  1  0  0  0
 30 31  2  0  0  0
 30 32  2  0  0  0
 30 33  1  0  0  0
 33 34  1  0  0  0
 34 35  1  0  0  0
 35 36  1  0  0  0
 14 17  1  0  0  0
 14 18  1  0  0  0
 15 19  1  0  0  0
  3  6  1  0  0  0
 20 23  1  0  0  0
 26 27  1  0  0  0
 28 29  1  0  0  0
M  END
> <minimizedAffinity>
-5.86480

$$$$
1W0Z_SI1_U_1245


 36 36  0  0  0  0  0  0  0  0999 V2000
   29.0802   11.4614   28.1704 C   0  0  0  0  0  0  0  0  0  0  0  0
   29.8752   11.2866   26.8500 C   0  0  0  0  0  0  0  0  0  0  0  0
   28.6466    9.0987   27.9607 N   0  0  0  0  0  0  0  0  0  0  0  0
   28.7790   10.1430   28.7384 C   0  0  0  0  0  0  0  0  0  0  0  0
   28.6531   10.0434   29.9667 O   0  0  0  0  0  0  0  0  0  0  0  0
   28.7143    9.2282   26.9871 H   0  0  0  0  0  0  0  0  0  0  0  0
   28.4114    7.7953   28.4502 C   0  0  0  0  0  0  0  0  0  0  0  0
   31.9189    5.2476   28.0392 C   0  0  0  0  0  0  0  0  0  0  0  0
   30.7267    4.7740   28.6381 C   0  0  0  0  0  0  0  0  0  0  0  0
   29.5756    5.5814   28.7211 C   0  0  0  0  0  0  0  0  0  0  0  0
   29.6062    6.9251   28.3046 C   0  0  0  0  0  0  0  0  0  0  0  0
   30.7993    7.4202   27.7458 C   0  0  0  0  0  0  0  0  0  0  0  0
   31.9281    6.5890   27.6038 C   0  0  0  0  0  0  0  0  0  0  0  0
   34.3224    4.8335   27.7008 N   0  0  0  0  0  0  0  0  0  0  0  0
   32.9591    3.0604   27.9092 N   0  0  0  0  0  0  0  0  0  0  0  0
   33.0481    4.4071   27.8827 C   0  0  0  0  0  0  0  0  0  0  0  0
   35.0509    4.1789   27.6003 H   0  0  0  0  0  0  0  0  0  0  0  0
   34.5192    5.7976   27.6692 H   0  0  0  0  0  0  0  0  0  0  0  0
   33.7684    2.5113   27.7966 H   0  0  0  0  0  0  0  0  0  0  0  0
   29.8682   12.2214   29.0693 N   0  0  0  0  0  0  0  0  0  0  0  0
   29.4725   13.2803   29.7466 C   0  0  0  0  0  0  0  0  0  0  0  0
   28.3021   13.6643   29.6423 O   0  0  0  0  0  0  0  0  0  0  0  0
   30.7997   11.9311   29.2005 H   0  0  0  0  0  0  0  0  0  0  0  0
   30.3522   14.0448   30.6415 C   0  0  0  0  0  0  0  0  0  0  0  0
   29.7251   15.3584   31.1888 C   0  0  0  0  0  0  0  0  0  0  0  0
   28.6717   15.1022   32.1219 O   0  0  0  0  0  0  0  0  0  0  0  0
   27.9627   14.6080   31.6815 H   0  0  0  0  0  0  0  0  0  0  0  0
   30.7350   13.3591   31.9013 N   0  0  0  0  0  0  0  0  0  0  0  0
   30.0701   12.5997   32.0483 H   0  0  0  0  0  0  0  0  0  0  0  0
   32.2806   12.6985   31.9988 S   0  0  0  0  0  0  0  0  0  0  0  0
   33.0141   13.1316   33.2927 O   0  0  0  0  0  0  0  0  0  0  0  0
   32.0420   11.1633   31.9044 O   0  0  0  0  0  0  0  0  0  0  0  0
   33.1535   13.2078   30.5624 C   0  0  0  0  0  0  0  0  0  0  0  0
   34.6045   12.6994   30.3921 C   0  0  0  0  0  0  0  0  0  0  0  0
   34.8092   12.2115   28.9329 C   0  0  0  0  0  0  0  0  0  0  0  0
   33.4631   12.2470   28.1671 C   0  0  0  0  0  0  0  0  0  0  0  0
 14 16  1  0  0  0
 15 16  2  0  0  0
 16  8  1  0  0  0
  8  9  2  0  0  0
  8 13  1  0  0  0
  9 10  1  0  0  0
 10 11  2  0  0  0
 11 12  1  0  0  0
 11  7  1  0  0  0
 12 13  2  0  0  0
  7  3  1  0  0  0
  3  4  1  0  0  0
  4  5  2  0  0  0
  4  1  1  0  0  0
  1 20  1  0  0  0
  1  2  1  0  0  0
 20 21  1  0  0  0
 21 22  2  0  0  0
 21 24  1  0  0  0
 24 25  1  0  0  0
 24 28  1  0  0  0
 25 26  1  0  0  0
 28 30  1  0  0  0
 30 31  2  0  0  0
 30 32  2  0  0  0
 30 33  1  0  0  0
 33 34  1  0  0  0
 34 35  1  0  0  0
 35 36  1  0  0  0
 14 17  1  0  0  0
 14 18  1  0  0  0
 15 19  1  0  0  0
  3  6  1  0  0  0
 20 23  1  0  0  0
 26 27  1  0  0  0
 28 29  1  0  0  0
M  END
> <minimizedAffinity>
-5.85161

$$$$
1W0Z_SI1_U_1245


 36 36  0  0  0  0  0  0  0  0999 V2000
   29.0541   11.6454   28.0136 C   0  0  0  0  0  0  0  0  0  0  0  0
   30.2047   11.4279   26.9962 C   0  0  0  0  0  0  0  0  0  0  0  0
   28.7551    9.2527   28.0189 N   0  0  0  0  0  0  0  0  0  0  0  0
   28.7504   10.3782   28.6870 C   0  0  0  0  0  0  0  0  0  0  0  0
   28.4899   10.3999   29.8979 O   0  0  0  0  0  0  0  0  0  0  0  0
   28.9274    9.2839   27.0501 H   0  0  0  0  0  0  0  0  0  0  0  0
   28.5251    7.9960   28.6202 C   0  0  0  0  0  0  0  0  0  0  0  0
   31.9139    5.3090   28.1115 C   0  0  0  0  0  0  0  0  0  0  0  0
   30.8342    4.9841   28.9678 C   0  0  0  0  0  0  0  0  0  0  0  0
   29.7135    5.8286   29.0894 C   0  0  0  0  0  0  0  0  0  0  0  0
   29.6785    7.0774   28.4420 C   0  0  0  0  0  0  0  0  0  0  0  0
   30.7657    7.4305   27.6207 C   0  0  0  0  0  0  0  0  0  0  0  0
   31.8546    6.5528   27.4496 C   0  0  0  0  0  0  0  0  0  0  0  0
   34.2954    4.7888   27.7645 N   0  0  0  0  0  0  0  0  0  0  0  0
   32.8454    3.0790   27.9063 N   0  0  0  0  0  0  0  0  0  0  0  0
   33.0008    4.4198   27.9280 C   0  0  0  0  0  0  0  0  0  0  0  0
   34.9911    4.1029   27.6425 H   0  0  0  0  0  0  0  0  0  0  0  0
   34.5396    5.7425   27.7677 H   0  0  0  0  0  0  0  0  0  0  0  0
   33.6271    2.4949   27.7761 H   0  0  0  0  0  0  0  0  0  0  0  0
   29.4674   12.6210   28.9539 N   0  0  0  0  0  0  0  0  0  0  0  0
   28.7613   13.6560   29.3621 C   0  0  0  0  0  0  0  0  0  0  0  0
   27.6123   13.8131   28.9340 O   0  0  0  0  0  0  0  0  0  0  0  0
   30.3674   12.5158   29.3389 H   0  0  0  0  0  0  0  0  0  0  0  0
   29.2626   14.6519   30.3193 C   0  0  0  0  0  0  0  0  0  0  0  0
   28.1549   15.3467   31.1610 C   0  0  0  0  0  0  0  0  0  0  0  0
   27.3173   14.4007   31.8314 O   0  0  0  0  0  0  0  0  0  0  0  0
   26.8711   13.8423   31.1757 H   0  0  0  0  0  0  0  0  0  0  0  0
   30.1496   14.1238   31.3862 N   0  0  0  0  0  0  0  0  0  0  0  0
   30.1654   13.1081   31.2933 H   0  0  0  0  0  0  0  0  0  0  0  0
   31.7486   14.6503   31.4118 S   0  0  0  0  0  0  0  0  0  0  0  0
   31.9919   15.8092   30.4129 O   0  0  0  0  0  0  0  0  0  0  0  0
   31.9914   15.0489   32.8966 O   0  0  0  0  0  0  0  0  0  0  0  0
   32.7578   13.2607   31.0443 C   0  0  0  0  0  0  0  0  0  0  0  0
   33.7213   12.7669   32.1492 C   0  0  0  0  0  0  0  0  0  0  0  0
   33.8638   11.2243   32.0538 C   0  0  0  0  0  0  0  0  0  0  0  0
   32.4775   10.5766   31.8121 C   0  0  0  0  0  0  0  0  0  0  0  0
 14 16  1  0  0  0
 15 16  2  0  0  0
 16  8  1  0  0  0
  8  9  2  0  0  0
  8 13  1  0  0  0
  9 10  1  0  0  0
 10 11  2  0  0  0
 11 12  1  0  0  0
 11  7  1  0  0  0
 12 13  2  0  0  0
  7  3  1  0  0  0
  3  4  1  0  0  0
  4  5  2  0  0  0
  4  1  1  0  0  0
  1 20  1  0  0  0
  1  2  1  0  0  0
 20 21  1  0  0  0
 21 22  2  0  0  0
 21 24  1  0  0  0
 24 25  1  0  0  0
 24 28  1  0  0  0
 25 26  1  0  0  0
 28 30  1  0  0  0
 30 31  2  0  0  0
 30 32  2  0  0  0
 30 33  1  0  0  0
 33 34  1  0  0  0
 34 35  1  0  0  0
 35 36  1  0  0  0
 14 17  1  0  0  0
 14 18  1  0  0  0
 15 19  1  0  0  0
  3  6  1  0  0  0
 20 23  1  0  0  0
 26 27  1  0  0  0
 28 29  1  0  0  0
M  END
> <minimizedAffinity>
-5.56589

$$$$
