4YHA_MZM_A_303


 16 16  0  0  0  0  0  0  0  0999 V2000
   51.2697   45.4797   87.6175 C   0  0  0  0  0  0  0  0  0  0  0  0
   51.8186   44.1569   88.1367 S   0  0  0  0  0  0  0  0  0  0  0  0
   50.6244   43.3391   88.6311 C   0  0  0  0  0  0  0  0  0  0  0  0
   49.4768   44.1377   88.4295 N   0  0  0  0  0  0  0  0  0  0  0  0
   48.1537   43.7684   88.7588 C   0  0  0  0  0  0  0  0  0  0  0  0
   49.8822   45.5032   87.7819 N   0  0  0  0  0  0  0  0  0  0  0  0
   50.6136   42.0323   89.2104 N   0  0  0  0  0  0  0  0  0  0  0  0
   51.2563   47.7446   86.0176 N   0  0  0  0  0  0  0  0  0  0  0  0
   52.2260   46.7676   86.9075 S   0  0  0  0  0  0  0  0  0  0  0  0
   53.2391   46.1729   86.0929 O   0  0  0  0  0  0  0  0  0  0  0  0
   52.9384   47.5022   87.8947 O   0  0  0  0  0  0  0  0  0  0  0  0
   50.5434   48.1560   86.6199 H   0  0  0  0  0  0  0  0  0  0  0  0
   50.8068   47.1991   85.2823 H   0  0  0  0  0  0  0  0  0  0  0  0
   51.7489   41.1898   89.4280 C   0  0  0  0  0  0  0  0  0  0  0  0
   52.1279   40.3898   88.6034 O   0  0  0  0  0  0  0  0  0  0  0  0
   52.5128   41.2700   90.7329 C   0  0  0  0  0  0  0  0  0  0  0  0
  5  4  1  0  0  0
  4  3  1  0  0  0
  4  6  1  0  0  0
 16 14  1  0  0  0
  7  3  2  0  0  0
  7 14  1  0  0  0
  3  2  1  0  0  0
 14 15  2  0  0  0
  6  1  2  0  0  0
  2  1  1  0  0  0
  1  9  1  0  0  0
  9 11  2  0  0  0
  9  8  1  0  0  0
  9 10  2  0  0  0
  8 12  1  0  0  0
  8 13  1  0  0  0
M  END
> <minimizedAffinity>
-6.28931

$$$$
4YHA_MZM_A_303


 16 16  0  0  0  0  0  0  0  0999 V2000
   50.6092   42.4193   88.9785 C   0  0  0  0  0  0  0  0  0  0  0  0
   50.7658   43.6891   88.1515 S   0  0  0  0  0  0  0  0  0  0  0  0
   49.3587   44.1543   87.7734 C   0  0  0  0  0  0  0  0  0  0  0  0
   48.4606   43.2136   88.3247 N   0  0  0  0  0  0  0  0  0  0  0  0
   47.0538   43.2568   88.2053 C   0  0  0  0  0  0  0  0  0  0  0  0
   49.2525   42.1059   89.0956 N   0  0  0  0  0  0  0  0  0  0  0  0
   48.9705   45.2926   87.0008 N   0  0  0  0  0  0  0  0  0  0  0  0
   53.2762   42.4266   89.7377 N   0  0  0  0  0  0  0  0  0  0  0  0
   51.9243   41.5011   89.6889 S   0  0  0  0  0  0  0  0  0  0  0  0
   52.1327   40.3325   88.8923 O   0  0  0  0  0  0  0  0  0  0  0  0
   51.5865   41.0062   90.9784 O   0  0  0  0  0  0  0  0  0  0  0  0
   53.1024   43.2523   90.3108 H   0  0  0  0  0  0  0  0  0  0  0  0
   53.5248   42.7154   88.7916 H   0  0  0  0  0  0  0  0  0  0  0  0
   49.8446   46.2700   86.4292 C   0  0  0  0  0  0  0  0  0  0  0  0
   50.2193   46.2092   85.2805 O   0  0  0  0  0  0  0  0  0  0  0  0
   50.3460   47.4234   87.2723 C   0  0  0  0  0  0  0  0  0  0  0  0
  5  4  1  0  0  0
  4  3  1  0  0  0
  4  6  1  0  0  0
 16 14  1  0  0  0
  7  3  2  0  0  0
  7 14  1  0  0  0
  3  2  1  0  0  0
 14 15  2  0  0  0
  6  1  2  0  0  0
  2  1  1  0  0  0
  1  9  1  0  0  0
  9 11  2  0  0  0
  9  8  1  0  0  0
  9 10  2  0  0  0
  8 12  1  0  0  0
  8 13  1  0  0  0
M  END
> <minimizedAffinity>
-6.21543

$$$$
4YHA_MZM_A_303


 16 16  0  0  0  0  0  0  0  0999 V2000
   51.2183   42.8147   88.8484 C   0  0  0  0  0  0  0  0  0  0  0  0
   51.9920   44.0363   88.3690 S   0  0  0  0  0  0  0  0  0  0  0  0
   51.0005   44.9311   87.6238 C   0  0  0  0  0  0  0  0  0  0  0  0
   49.7543   44.2665   87.6550 N   0  0  0  0  0  0  0  0  0  0  0  0
   48.5583   44.7407   87.0721 C   0  0  0  0  0  0  0  0  0  0  0  0
   49.8870   42.9172   88.4361 N   0  0  0  0  0  0  0  0  0  0  0  0
   51.2354   46.1879   86.9846 N   0  0  0  0  0  0  0  0  0  0  0  0
   53.3855   41.8970   90.3147 N   0  0  0  0  0  0  0  0  0  0  0  0
   51.8875   41.4923   89.7867 S   0  0  0  0  0  0  0  0  0  0  0  0
   51.9353   40.3331   88.9515 O   0  0  0  0  0  0  0  0  0  0  0  0
   51.0370   41.1273   90.8662 O   0  0  0  0  0  0  0  0  0  0  0  0
   53.3250   42.7250   90.9072 H   0  0  0  0  0  0  0  0  0  0  0  0
   53.9862   42.0947   89.5145 H   0  0  0  0  0  0  0  0  0  0  0  0
   52.4771   46.8961   86.9330 C   0  0  0  0  0  0  0  0  0  0  0  0
   52.9287   47.4800   87.8916 O   0  0  0  0  0  0  0  0  0  0  0  0
   53.2677   46.9460   85.6427 C   0  0  0  0  0  0  0  0  0  0  0  0
  5  4  1  0  0  0
  4  3  1  0  0  0
  4  6  1  0  0  0
 16 14  1  0  0  0
  7  3  2  0  0  0
  7 14  1  0  0  0
  3  2  1  0  0  0
 14 15  2  0  0  0
  6  1  2  0  0  0
  2  1  1  0  0  0
  1  9  1  0  0  0
  9 11  2  0  0  0
  9  8  1  0  0  0
  9 10  2  0  0  0
  8 12  1  0  0  0
  8 13  1  0  0  0
M  END
> <minimizedAffinity>
-5.97480

$$$$
4YHA_MZM_A_303


 16 16  0  0  0  0  0  0  0  0999 V2000
   49.8884   42.8394   88.7431 C   0  0  0  0  0  0  0  0  0  0  0  0
   51.1090   43.7013   88.4467 S   0  0  0  0  0  0  0  0  0  0  0  0
   52.3202   42.9847   89.0456 C   0  0  0  0  0  0  0  0  0  0  0  0
   51.8319   41.8086   89.6571 N   0  0  0  0  0  0  0  0  0  0  0  0
   52.6171   40.8547   90.3417 C   0  0  0  0  0  0  0  0  0  0  0  0
   50.2820   41.7101   89.4659 N   0  0  0  0  0  0  0  0  0  0  0  0
   53.6917   43.3874   89.0380 N   0  0  0  0  0  0  0  0  0  0  0  0
   48.2746   44.1460   86.9053 N   0  0  0  0  0  0  0  0  0  0  0  0
   48.2460   43.1975   88.2417 S   0  0  0  0  0  0  0  0  0  0  0  0
   47.5840   43.8573   89.3233 O   0  0  0  0  0  0  0  0  0  0  0  0
   47.4907   42.0129   88.0220 O   0  0  0  0  0  0  0  0  0  0  0  0
   48.7510   43.6541   86.1494 H   0  0  0  0  0  0  0  0  0  0  0  0
   48.7714   45.0121   87.1136 H   0  0  0  0  0  0  0  0  0  0  0  0
   54.2283   44.5649   88.4285 C   0  0  0  0  0  0  0  0  0  0  0  0
   54.3582   45.6044   89.0337 O   0  0  0  0  0  0  0  0  0  0  0  0
   54.6425   44.5427   86.9723 C   0  0  0  0  0  0  0  0  0  0  0  0
  5  4  1  0  0  0
  4  3  1  0  0  0
  4  6  1  0  0  0
 16 14  1  0  0  0
  7  3  2  0  0  0
  7 14  1  0  0  0
  3  2  1  0  0  0
 14 15  2  0  0  0
  6  1  2  0  0  0
  2  1  1  0  0  0
  1  9  1  0  0  0
  9 11  2  0  0  0
  9  8  1  0  0  0
  9 10  2  0  0  0
  8 12  1  0  0  0
  8 13  1  0  0  0
M  END
> <minimizedAffinity>
-5.87399

$$$$
4YHA_MZM_A_303


 16 16  0  0  0  0  0  0  0  0999 V2000
   53.2085   44.6120   88.1916 C   0  0  0  0  0  0  0  0  0  0  0  0
   51.6888   44.5790   88.0921 S   0  0  0  0  0  0  0  0  0  0  0  0
   51.2300   43.2430   88.6784 C   0  0  0  0  0  0  0  0  0  0  0  0
   52.3979   42.5508   89.0688 N   0  0  0  0  0  0  0  0  0  0  0  0
   52.4316   41.2647   89.6517 C   0  0  0  0  0  0  0  0  0  0  0  0
   53.6625   43.4199   88.7621 N   0  0  0  0  0  0  0  0  0  0  0  0
   49.9009   42.7336   88.8109 N   0  0  0  0  0  0  0  0  0  0  0  0
   53.3570   47.3313   87.6690 N   0  0  0  0  0  0  0  0  0  0  0  0
   54.2309   45.9447   87.6856 S   0  0  0  0  0  0  0  0  0  0  0  0
   54.7406   45.6456   86.3839 O   0  0  0  0  0  0  0  0  0  0  0  0
   55.3844   46.0672   88.5080 O   0  0  0  0  0  0  0  0  0  0  0  0
   53.0051   47.5225   88.6071 H   0  0  0  0  0  0  0  0  0  0  0  0
   52.5722   47.2309   87.0253 H   0  0  0  0  0  0  0  0  0  0  0  0
   48.6934   43.4011   88.4336 C   0  0  0  0  0  0  0  0  0  0  0  0
   47.8932   43.7997   89.2488 O   0  0  0  0  0  0  0  0  0  0  0  0
   48.3726   43.6167   86.9697 C   0  0  0  0  0  0  0  0  0  0  0  0
  5  4  1  0  0  0
  4  3  1  0  0  0
  4  6  1  0  0  0
 16 14  1  0  0  0
  7  3  2  0  0  0
  7 14  1  0  0  0
  3  2  1  0  0  0
 14 15  2  0  0  0
  6  1  2  0  0  0
  2  1  1  0  0  0
  1  9  1  0  0  0
  9 11  2  0  0  0
  9  8  1  0  0  0
  9 10  2  0  0  0
  8 12  1  0  0  0
  8 13  1  0  0  0
M  END
> <minimizedAffinity>
-5.61700

$$$$
4YHA_MZM_A_303


 16 16  0  0  0  0  0  0  0  0999 V2000
   50.4912   43.6205   87.8787 C   0  0  0  0  0  0  0  0  0  0  0  0
   51.8992   44.1989   87.9399 S   0  0  0  0  0  0  0  0  0  0  0  0
   52.7089   43.3091   88.8842 C   0  0  0  0  0  0  0  0  0  0  0  0
   51.8291   42.3054   89.3469 N   0  0  0  0  0  0  0  0  0  0  0  0
   52.1660   41.2743   90.2516 C   0  0  0  0  0  0  0  0  0  0  0  0
   50.4140   42.4982   88.7076 N   0  0  0  0  0  0  0  0  0  0  0  0
   54.0784   43.4325   89.2749 N   0  0  0  0  0  0  0  0  0  0  0  0
   47.7538   43.6307   87.4365 N   0  0  0  0  0  0  0  0  0  0  0  0
   49.1747   44.2526   86.9069 S   0  0  0  0  0  0  0  0  0  0  0  0
   49.4145   43.8929   85.5443 O   0  0  0  0  0  0  0  0  0  0  0  0
   49.1524   45.6744   86.9086 O   0  0  0  0  0  0  0  0  0  0  0  0
   47.6058   43.9007   88.4089 H   0  0  0  0  0  0  0  0  0  0  0  0
   47.7807   42.6134   87.3664 H   0  0  0  0  0  0  0  0  0  0  0  0
   55.0031   44.4283   88.8285 C   0  0  0  0  0  0  0  0  0  0  0  0
   54.8209   45.6097   89.0150 O   0  0  0  0  0  0  0  0  0  0  0  0
   56.2545   44.0193   88.0807 C   0  0  0  0  0  0  0  0  0  0  0  0
  5  4  1  0  0  0
  4  3  1  0  0  0
  4  6  1  0  0  0
 16 14  1  0  0  0
  7  3  2  0  0  0
  7 14  1  0  0  0
  3  2  1  0  0  0
 14 15  2  0  0  0
  6  1  2  0  0  0
  2  1  1  0  0  0
  1  9  1  0  0  0
  9 11  2  0  0  0
  9  8  1  0  0  0
  9 10  2  0  0  0
  8 12  1  0  0  0
  8 13  1  0  0  0
M  END
> <minimizedAffinity>
-5.51528

$$$$
4YHA_MZM_A_303


 16 16  0  0  0  0  0  0  0  0999 V2000
   52.0193   43.3549   88.6780 C   0  0  0  0  0  0  0  0  0  0  0  0
   53.2957   44.0855   88.2810 S   0  0  0  0  0  0  0  0  0  0  0  0
   52.9142   45.5426   88.0154 C   0  0  0  0  0  0  0  0  0  0  0  0
   51.5206   45.6399   88.2249 N   0  0  0  0  0  0  0  0  0  0  0  0
   50.7501   46.8145   88.0775 C   0  0  0  0  0  0  0  0  0  0  0  0
   50.9450   44.2481   88.6493 N   0  0  0  0  0  0  0  0  0  0  0  0
   53.7530   46.6276   87.6121 N   0  0  0  0  0  0  0  0  0  0  0  0
   50.4300   41.3458   89.7397 N   0  0  0  0  0  0  0  0  0  0  0  0
   51.9142   41.6605   89.1196 S   0  0  0  0  0  0  0  0  0  0  0  0
   52.9381   41.3859   90.0788 O   0  0  0  0  0  0  0  0  0  0  0  0
   52.2091   40.8088   88.0198 O   0  0  0  0  0  0  0  0  0  0  0  0
   49.7182   41.5491   89.0379 H   0  0  0  0  0  0  0  0  0  0  0  0
   50.2739   41.9299   90.5613 H   0  0  0  0  0  0  0  0  0  0  0  0
   55.1656   46.5739   87.3935 C   0  0  0  0  0  0  0  0  0  0  0  0
   55.9645   46.7128   88.2913 O   0  0  0  0  0  0  0  0  0  0  0  0
   55.7082   46.3516   85.9975 C   0  0  0  0  0  0  0  0  0  0  0  0
  5  4  1  0  0  0
  4  3  1  0  0  0
  4  6  1  0  0  0
 16 14  1  0  0  0
  7  3  2  0  0  0
  7 14  1  0  0  0
  3  2  1  0  0  0
 14 15  2  0  0  0
  6  1  2  0  0  0
  2  1  1  0  0  0
  1  9  1  0  0  0
  9 11  2  0  0  0
  9  8  1  0  0  0
  9 10  2  0  0  0
  8 12  1  0  0  0
  8 13  1  0  0  0
M  END
> <minimizedAffinity>
-5.46983

$$$$
4YHA_MZM_A_303


 16 16  0  0  0  0  0  0  0  0999 V2000
   54.0878   46.0953   87.6659 C   0  0  0  0  0  0  0  0  0  0  0  0
   53.8695   44.6133   87.9428 S   0  0  0  0  0  0  0  0  0  0  0  0
   52.3865   44.4320   88.2700 C   0  0  0  0  0  0  0  0  0  0  0  0
   51.7988   45.7149   88.2050 N   0  0  0  0  0  0  0  0  0  0  0  0
   50.4384   46.0061   88.4495 C   0  0  0  0  0  0  0  0  0  0  0  0
   52.8789   46.7792   87.8186 N   0  0  0  0  0  0  0  0  0  0  0  0
   51.6843   43.2324   88.6036 N   0  0  0  0  0  0  0  0  0  0  0  0
   56.2124   46.0729   85.8840 N   0  0  0  0  0  0  0  0  0  0  0  0
   55.6143   46.8293   87.2093 S   0  0  0  0  0  0  0  0  0  0  0  0
   56.5132   46.7118   88.3147 O   0  0  0  0  0  0  0  0  0  0  0  0
   55.4840   48.2288   86.9944 O   0  0  0  0  0  0  0  0  0  0  0  0
   55.5544   46.1707   85.1108 H   0  0  0  0  0  0  0  0  0  0  0  0
   56.3499   45.0835   86.0902 H   0  0  0  0  0  0  0  0  0  0  0  0
   52.2383   41.9157   88.6763 C   0  0  0  0  0  0  0  0  0  0  0  0
   52.4518   41.2487   87.6898 O   0  0  0  0  0  0  0  0  0  0  0  0
   52.5647   41.3044   90.0225 C   0  0  0  0  0  0  0  0  0  0  0  0
  5  4  1  0  0  0
  4  3  1  0  0  0
  4  6  1  0  0  0
 16 14  1  0  0  0
  7  3  2  0  0  0
  7 14  1  0  0  0
  3  2  1  0  0  0
 14 15  2  0  0  0
  6  1  2  0  0  0
  2  1  1  0  0  0
  1  9  1  0  0  0
  9 11  2  0  0  0
  9  8  1  0  0  0
  9 10  2  0  0  0
  8 12  1  0  0  0
  8 13  1  0  0  0
M  END
> <minimizedAffinity>
-5.27581

$$$$
4YHA_MZM_A_303


 16 16  0  0  0  0  0  0  0  0999 V2000
   54.6314   45.3092   88.0526 C   0  0  0  0  0  0  0  0  0  0  0  0
   53.1426   45.2762   87.7317 S   0  0  0  0  0  0  0  0  0  0  0  0
   52.5451   44.0941   88.4964 C   0  0  0  0  0  0  0  0  0  0  0  0
   53.6121   43.4811   89.1902 N   0  0  0  0  0  0  0  0  0  0  0  0
   53.5041   42.3406   90.0166 C   0  0  0  0  0  0  0  0  0  0  0  0
   54.9446   44.2528   88.9121 N   0  0  0  0  0  0  0  0  0  0  0  0
   51.1901   43.6397   88.5243 N   0  0  0  0  0  0  0  0  0  0  0  0
   54.9816   47.8841   87.0849 N   0  0  0  0  0  0  0  0  0  0  0  0
   55.7740   46.4971   87.4520 S   0  0  0  0  0  0  0  0  0  0  0  0
   56.4157   45.9532   86.2962 O   0  0  0  0  0  0  0  0  0  0  0  0
   56.8285   46.7303   88.3769 O   0  0  0  0  0  0  0  0  0  0  0  0
   54.5331   48.2517   87.9240 H   0  0  0  0  0  0  0  0  0  0  0  0
   54.2730   47.6935   86.3764 H   0  0  0  0  0  0  0  0  0  0  0  0
   50.0810   44.2318   87.8421 C   0  0  0  0  0  0  0  0  0  0  0  0
   49.3763   45.0687   88.3585 O   0  0  0  0  0  0  0  0  0  0  0  0
   49.7451   43.8045   86.4289 C   0  0  0  0  0  0  0  0  0  0  0  0
  5  4  1  0  0  0
  4  3  1  0  0  0
  4  6  1  0  0  0
 16 14  1  0  0  0
  7  3  2  0  0  0
  7 14  1  0  0  0
  3  2  1  0  0  0
 14 15  2  0  0  0
  6  1  2  0  0  0
  2  1  1  0  0  0
  1  9  1  0  0  0
  9 11  2  0  0  0
  9  8  1  0  0  0
  9 10  2  0  0  0
  8 12  1  0  0  0
  8 13  1  0  0  0
M  END
> <minimizedAffinity>
-5.10039

$$$$
4YHA_MZM_A_303


 16 16  0  0  0  0  0  0  0  0999 V2000
   54.0732   45.1391   87.9537 C   0  0  0  0  0  0  0  0  0  0  0  0
   52.5717   45.0535   87.7108 S   0  0  0  0  0  0  0  0  0  0  0  0
   52.0663   43.8185   88.4581 C   0  0  0  0  0  0  0  0  0  0  0  0
   53.1939   43.2268   89.0695 N   0  0  0  0  0  0  0  0  0  0  0  0
   53.1784   42.0524   89.8543 C   0  0  0  0  0  0  0  0  0  0  0  0
   54.4762   44.0657   88.7525 N   0  0  0  0  0  0  0  0  0  0  0  0
   50.7347   43.3048   88.5393 N   0  0  0  0  0  0  0  0  0  0  0  0
   55.8031   45.9100   85.9283 N   0  0  0  0  0  0  0  0  0  0  0  0
   55.1311   46.3974   87.3415 S   0  0  0  0  0  0  0  0  0  0  0  0
   56.1366   46.6515   88.3254 O   0  0  0  0  0  0  0  0  0  0  0  0
   54.4478   47.6354   87.1923 O   0  0  0  0  0  0  0  0  0  0  0  0
   55.0670   45.7354   85.2441 H   0  0  0  0  0  0  0  0  0  0  0  0
   56.3345   45.0531   86.0821 H   0  0  0  0  0  0  0  0  0  0  0  0
   49.5666   43.8733   87.9408 C   0  0  0  0  0  0  0  0  0  0  0  0
   48.7357   44.4714   88.5855 O   0  0  0  0  0  0  0  0  0  0  0  0
   49.3285   43.7239   86.4530 C   0  0  0  0  0  0  0  0  0  0  0  0
  5  4  1  0  0  0
  4  3  1  0  0  0
  4  6  1  0  0  0
 16 14  1  0  0  0
  7  3  2  0  0  0
  7 14  1  0  0  0
  3  2  1  0  0  0
 14 15  2  0  0  0
  6  1  2  0  0  0
  2  1  1  0  0  0
  1  9  1  0  0  0
  9 11  2  0  0  0
  9  8  1  0  0  0
  9 10  2  0  0  0
  8 12  1  0  0  0
  8 13  1  0  0  0
M  END
> <minimizedAffinity>
-5.08611

$$$$
