4G95_OAG_A_201


 27 29  0  0  0  0  0  0  0  0999 V2000
   29.2136   11.7578   -1.1510 C   0  0  0  0  0  0  0  0  0  0  0  0
   26.4653   11.8070   -3.4304 N   0  0  0  0  0  0  0  0  0  0  0  0
   28.6215   11.2459    0.0029 C   0  0  0  0  0  0  0  0  0  0  0  0
   27.0814   12.2776   -4.5598 C   0  0  0  0  0  0  0  0  0  0  0  0
   26.3740   12.4270   -5.6954 N   0  0  0  0  0  0  0  0  0  0  0  0
   28.3623   12.6646   -4.5922 N   0  0  0  0  0  0  0  0  0  0  0  0
   29.0682   12.5270   -3.4344 C   0  0  0  0  0  0  0  0  0  0  0  0
   30.3449   12.9109   -3.5438 N   0  0  0  0  0  0  0  0  0  0  0  0
   28.4913   11.9308   -2.3173 C   0  0  0  0  0  0  0  0  0  0  0  0
   27.2769   10.9016   -0.0508 C   0  0  0  0  0  0  0  0  0  0  0  0
   26.5711   11.1033   -1.1611 N   0  0  0  0  0  0  0  0  0  0  0  0
   27.1544   11.6283   -2.2597 C   0  0  0  0  0  0  0  0  0  0  0  0
   25.4275   12.1579   -5.7247 H   0  0  0  0  0  0  0  0  0  0  0  0
   26.8032   12.8055   -6.4965 H   0  0  0  0  0  0  0  0  0  0  0  0
   30.6643   13.3262   -4.3773 H   0  0  0  0  0  0  0  0  0  0  0  0
   30.9650   12.7782   -2.7908 H   0  0  0  0  0  0  0  0  0  0  0  0
   29.5610   11.1402    1.2240 C   0  0  0  0  0  0  0  0  0  0  0  0
   29.3388   12.2589    2.1124 N   0  0  0  0  0  0  0  0  0  0  0  0
   28.9054   12.1364    2.9879 H   0  0  0  0  0  0  0  0  0  0  0  0
   27.1101   14.1896    1.8095 Cl  0  0  0  0  0  0  0  0  0  0  0  0
   32.9722   15.5764    0.7202 Cl  0  0  0  0  0  0  0  0  0  0  0  0
   29.7361   13.4456    1.7098 C   0  0  0  0  0  0  0  0  0  0  0  0
   28.7824   14.4334    1.5515 C   0  0  0  0  0  0  0  0  0  0  0  0
   30.5793   15.9792    0.8865 C   0  0  0  0  0  0  0  0  0  0  0  0
   29.3042   15.5928    1.0537 C   0  0  0  0  0  0  0  0  0  0  0  0
   31.4522   14.9950    1.0482 C   0  0  0  0  0  0  0  0  0  0  0  0
   31.0972   13.7075    1.4633 C   0  0  0  0  0  0  0  0  0  0  0  0
  3 17  1  0  0  0
 17 18  1  0  0  0
 18 22  1  0  0  0
 23 20  1  0  0  0
 21 26  1  0  0  0
  9  1  2  0  0  0
  1  3  1  0  0  0
 27 22  2  0  0  0
 22 23  1  0  0  0
  4  2  2  0  0  0
  2 12  1  0  0  0
 10  3  2  0  0  0
 23 25  2  0  0  0
 26 24  2  0  0  0
 24 25  1  0  0  0
  5  4  1  0  0  0
  4  6  1  0  0  0
  6  7  2  0  0  0
  7  9  1  0  0  0
  7  8  1  0  0  0
 12  9  1  0  0  0
 27 26  1  0  0  0
 11 10  1  0  0  0
 12 11  2  0  0  0
 18 19  1  0  0  0
  5 13  1  0  0  0
  5 14  1  0  0  0
  8 15  1  0  0  0
  8 16  1  0  0  0
M  END
> <minimizedAffinity>
-9.32734

$$$$
4G95_OAG_A_201


 27 29  0  0  0  0  0  0  0  0999 V2000
   29.2732    9.4310    1.0963 C   0  0  0  0  0  0  0  0  0  0  0  0
   28.2101    8.1604    4.2597 N   0  0  0  0  0  0  0  0  0  0  0  0
   28.2520    8.9949    0.2529 C   0  0  0  0  0  0  0  0  0  0  0  0
   29.2082    8.6325    5.0705 C   0  0  0  0  0  0  0  0  0  0  0  0
   29.1702    8.3839    6.3930 N   0  0  0  0  0  0  0  0  0  0  0  0
   30.2784    9.2927    4.6118 N   0  0  0  0  0  0  0  0  0  0  0  0
   30.3193    9.5259    3.2696 C   0  0  0  0  0  0  0  0  0  0  0  0
   31.4030   10.2084    2.8835 N   0  0  0  0  0  0  0  0  0  0  0  0
   29.2516    9.1660    2.4532 C   0  0  0  0  0  0  0  0  0  0  0  0
   27.1969    8.2886    0.8162 C   0  0  0  0  0  0  0  0  0  0  0  0
   27.1938    7.9998    2.1155 N   0  0  0  0  0  0  0  0  0  0  0  0
   28.2064    8.4045    2.9114 C   0  0  0  0  0  0  0  0  0  0  0  0
   28.4049    7.9014    6.7814 H   0  0  0  0  0  0  0  0  0  0  0  0
   29.9077    8.6845    6.9718 H   0  0  0  0  0  0  0  0  0  0  0  0
   32.1107   10.4180    3.5350 H   0  0  0  0  0  0  0  0  0  0  0  0
   31.4930   10.5010    1.9478 H   0  0  0  0  0  0  0  0  0  0  0  0
   28.4420    9.3525   -1.2374 C   0  0  0  0  0  0  0  0  0  0  0  0
   27.7172   10.5643   -1.5476 N   0  0  0  0  0  0  0  0  0  0  0  0
   26.7359   10.5650   -1.6276 H   0  0  0  0  0  0  0  0  0  0  0  0
   26.8512   12.7768    0.2248 Cl  0  0  0  0  0  0  0  0  0  0  0  0
   31.4423   13.2495   -3.7966 Cl  0  0  0  0  0  0  0  0  0  0  0  0
   28.4148   11.6652   -1.7191 C   0  0  0  0  0  0  0  0  0  0  0  0
   28.1103   12.7593   -0.9315 C   0  0  0  0  0  0  0  0  0  0  0  0
   29.9168   13.9972   -2.0561 C   0  0  0  0  0  0  0  0  0  0  0  0
   28.8457   13.8627   -1.2574 C   0  0  0  0  0  0  0  0  0  0  0  0
   30.1639   12.9213   -2.7896 C   0  0  0  0  0  0  0  0  0  0  0  0
   29.4543   11.7225   -2.6667 C   0  0  0  0  0  0  0  0  0  0  0  0
  3 17  1  0  0  0
 17 18  1  0  0  0
 18 22  1  0  0  0
 23 20  1  0  0  0
 21 26  1  0  0  0
  9  1  2  0  0  0
  1  3  1  0  0  0
 27 22  2  0  0  0
 22 23  1  0  0  0
  4  2  2  0  0  0
  2 12  1  0  0  0
 10  3  2  0  0  0
 23 25  2  0  0  0
 26 24  2  0  0  0
 24 25  1  0  0  0
  5  4  1  0  0  0
  4  6  1  0  0  0
  6  7  2  0  0  0
  7  9  1  0  0  0
  7  8  1  0  0  0
 12  9  1  0  0  0
 27 26  1  0  0  0
 11 10  1  0  0  0
 12 11  2  0  0  0
 18 19  1  0  0  0
  5 13  1  0  0  0
  5 14  1  0  0  0
  8 15  1  0  0  0
  8 16  1  0  0  0
M  END
> <minimizedAffinity>
-9.13787

$$$$
4G95_OAG_A_201


 27 29  0  0  0  0  0  0  0  0999 V2000
   28.4992   12.6726   -0.5486 C   0  0  0  0  0  0  0  0  0  0  0  0
   28.4720   12.7884   -4.1176 N   0  0  0  0  0  0  0  0  0  0  0  0
   29.7570   13.1970   -0.2531 C   0  0  0  0  0  0  0  0  0  0  0  0
   27.2173   12.3038   -4.3770 C   0  0  0  0  0  0  0  0  0  0  0  0
   26.7879   12.2045   -5.6491 N   0  0  0  0  0  0  0  0  0  0  0  0
   26.3903   11.8554   -3.4249 N   0  0  0  0  0  0  0  0  0  0  0  0
   26.8381   11.9427   -2.1406 C   0  0  0  0  0  0  0  0  0  0  0  0
   25.9541   11.4986   -1.2403 N   0  0  0  0  0  0  0  0  0  0  0  0
   28.0559   12.5510   -1.8527 C   0  0  0  0  0  0  0  0  0  0  0  0
   30.5584   13.6070   -1.3109 C   0  0  0  0  0  0  0  0  0  0  0  0
   30.1486   13.4551   -2.5681 N   0  0  0  0  0  0  0  0  0  0  0  0
   28.9396   12.9174   -2.8361 C   0  0  0  0  0  0  0  0  0  0  0  0
   27.3581   12.5198   -6.3872 H   0  0  0  0  0  0  0  0  0  0  0  0
   25.9037   11.8165   -5.8413 H   0  0  0  0  0  0  0  0  0  0  0  0
   25.1149   11.0797   -1.5395 H   0  0  0  0  0  0  0  0  0  0  0  0
   26.1426   11.5907   -0.2784 H   0  0  0  0  0  0  0  0  0  0  0  0
   30.1067   13.2402    1.2505 C   0  0  0  0  0  0  0  0  0  0  0  0
   31.3852   12.6036    1.4754 N   0  0  0  0  0  0  0  0  0  0  0  0
   32.2224   13.0173    1.1638 H   0  0  0  0  0  0  0  0  0  0  0  0
   34.0937   11.7640    2.3388 Cl  0  0  0  0  0  0  0  0  0  0  0  0
   29.0242    8.5108    3.4299 Cl  0  0  0  0  0  0  0  0  0  0  0  0
   31.3899   11.4527    2.1108 C   0  0  0  0  0  0  0  0  0  0  0  0
   32.5983   10.9703    2.5768 C   0  0  0  0  0  0  0  0  0  0  0  0
   31.4010    9.0234    3.4913 C   0  0  0  0  0  0  0  0  0  0  0  0
   32.4866    9.7341    3.1456 C   0  0  0  0  0  0  0  0  0  0  0  0
   30.2702    9.5278    3.0186 C   0  0  0  0  0  0  0  0  0  0  0  0
   30.1949   10.7400    2.3253 C   0  0  0  0  0  0  0  0  0  0  0  0
  3 17  1  0  0  0
 17 18  1  0  0  0
 18 22  1  0  0  0
 23 20  1  0  0  0
 21 26  1  0  0  0
  9  1  2  0  0  0
  1  3  1  0  0  0
 27 22  2  0  0  0
 22 23  1  0  0  0
  4  2  2  0  0  0
  2 12  1  0  0  0
 10  3  2  0  0  0
 23 25  2  0  0  0
 26 24  2  0  0  0
 24 25  1  0  0  0
  5  4  1  0  0  0
  4  6  1  0  0  0
  6  7  2  0  0  0
  7  9  1  0  0  0
  7  8  1  0  0  0
 12  9  1  0  0  0
 27 26  1  0  0  0
 11 10  1  0  0  0
 12 11  2  0  0  0
 18 19  1  0  0  0
  5 13  1  0  0  0
  5 14  1  0  0  0
  8 15  1  0  0  0
  8 16  1  0  0  0
M  END
> <minimizedAffinity>
-8.93813

$$$$
4G95_OAG_A_201


 27 29  0  0  0  0  0  0  0  0999 V2000
   29.3842   13.0213   -1.1859 C   0  0  0  0  0  0  0  0  0  0  0  0
   26.6193   11.9895   -3.1965 N   0  0  0  0  0  0  0  0  0  0  0  0
   28.9203   12.7527    0.1013 C   0  0  0  0  0  0  0  0  0  0  0  0
   27.1148   12.2296   -4.4508 C   0  0  0  0  0  0  0  0  0  0  0  0
   26.3659   11.9439   -5.5324 N   0  0  0  0  0  0  0  0  0  0  0  0
   28.3046   12.8002   -4.6751 N   0  0  0  0  0  0  0  0  0  0  0  0
   29.0504   13.1030   -3.5751 C   0  0  0  0  0  0  0  0  0  0  0  0
   30.2348   13.6490   -3.8723 N   0  0  0  0  0  0  0  0  0  0  0  0
   28.6157   12.7470   -2.3022 C   0  0  0  0  0  0  0  0  0  0  0  0
   27.6582   12.1884    0.2360 C   0  0  0  0  0  0  0  0  0  0  0  0
   26.9021   11.9594   -0.8353 N   0  0  0  0  0  0  0  0  0  0  0  0
   27.3563   12.2540   -2.0720 C   0  0  0  0  0  0  0  0  0  0  0  0
   25.4825   11.5235   -5.4224 H   0  0  0  0  0  0  0  0  0  0  0  0
   26.7017   12.1552   -6.4334 H   0  0  0  0  0  0  0  0  0  0  0  0
   30.4553   13.8682   -4.8065 H   0  0  0  0  0  0  0  0  0  0  0  0
   30.8860   13.8318   -3.1570 H   0  0  0  0  0  0  0  0  0  0  0  0
   29.8916   13.1418    1.2371 C   0  0  0  0  0  0  0  0  0  0  0  0
   31.1145   12.3796    1.1196 N   0  0  0  0  0  0  0  0  0  0  0  0
   31.1002   11.3961    1.0786 H   0  0  0  0  0  0  0  0  0  0  0  0
   33.2781   11.1179    2.7051 Cl  0  0  0  0  0  0  0  0  0  0  0  0
   33.9960   16.2747   -0.5144 Cl  0  0  0  0  0  0  0  0  0  0  0  0
   32.2463   13.0465    1.0695 C   0  0  0  0  0  0  0  0  0  0  0  0
   33.3324   12.5402    1.7581 C   0  0  0  0  0  0  0  0  0  0  0  0
   34.6634   14.4423    0.9391 C   0  0  0  0  0  0  0  0  0  0  0  0
   34.4224   13.3602    1.6967 C   0  0  0  0  0  0  0  0  0  0  0  0
   33.5898   14.8875    0.3019 C   0  0  0  0  0  0  0  0  0  0  0  0
   32.3533   14.2343    0.3214 C   0  0  0  0  0  0  0  0  0  0  0  0
  3 17  1  0  0  0
 17 18  1  0  0  0
 18 22  1  0  0  0
 23 20  1  0  0  0
 21 26  1  0  0  0
  9  1  2  0  0  0
  1  3  1  0  0  0
 27 22  2  0  0  0
 22 23  1  0  0  0
  4  2  2  0  0  0
  2 12  1  0  0  0
 10  3  2  0  0  0
 23 25  2  0  0  0
 26 24  2  0  0  0
 24 25  1  0  0  0
  5  4  1  0  0  0
  4  6  1  0  0  0
  6  7  2  0  0  0
  7  9  1  0  0  0
  7  8  1  0  0  0
 12  9  1  0  0  0
 27 26  1  0  0  0
 11 10  1  0  0  0
 12 11  2  0  0  0
 18 19  1  0  0  0
  5 13  1  0  0  0
  5 14  1  0  0  0
  8 15  1  0  0  0
  8 16  1  0  0  0
M  END
> <minimizedAffinity>
-8.46393

$$$$
4G95_OAG_A_201


 27 29  0  0  0  0  0  0  0  0999 V2000
   29.1181   13.2803   -1.0788 C   0  0  0  0  0  0  0  0  0  0  0  0
   26.5418   12.0819   -3.2415 N   0  0  0  0  0  0  0  0  0  0  0  0
   28.5400   13.1116    0.1788 C   0  0  0  0  0  0  0  0  0  0  0  0
   27.1484   12.2249   -4.4614 C   0  0  0  0  0  0  0  0  0  0  0  0
   26.4986   11.8519   -5.5799 N   0  0  0  0  0  0  0  0  0  0  0  0
   28.3551   12.7812   -4.6224 N   0  0  0  0  0  0  0  0  0  0  0  0
   29.0001   13.1726   -3.4873 C   0  0  0  0  0  0  0  0  0  0  0  0
   30.2078   13.6987   -3.7192 N   0  0  0  0  0  0  0  0  0  0  0  0
   28.4521   12.9158   -2.2344 C   0  0  0  0  0  0  0  0  0  0  0  0
   27.2693   12.5542    0.2438 C   0  0  0  0  0  0  0  0  0  0  0  0
   26.6117   12.2385   -0.8695 N   0  0  0  0  0  0  0  0  0  0  0  0
   27.1757   12.4370   -2.0799 C   0  0  0  0  0  0  0  0  0  0  0  0
   25.6077   11.4377   -5.5168 H   0  0  0  0  0  0  0  0  0  0  0  0
   26.9144   11.9933   -6.4611 H   0  0  0  0  0  0  0  0  0  0  0  0
   30.5118   13.8448   -4.6441 H   0  0  0  0  0  0  0  0  0  0  0  0
   30.7928   13.9399   -2.9649 H   0  0  0  0  0  0  0  0  0  0  0  0
   29.4067   13.5928    1.3630 C   0  0  0  0  0  0  0  0  0  0  0  0
   30.7502   13.8704    0.9068 N   0  0  0  0  0  0  0  0  0  0  0  0
   30.9297   14.5871    0.2562 H   0  0  0  0  0  0  0  0  0  0  0  0
   33.4205   15.1204    0.6009 Cl  0  0  0  0  0  0  0  0  0  0  0  0
   32.5047    9.6801    3.2538 Cl  0  0  0  0  0  0  0  0  0  0  0  0
   31.7236   13.1318    1.3917 C   0  0  0  0  0  0  0  0  0  0  0  0
   33.0131   13.6241    1.3204 C   0  0  0  0  0  0  0  0  0  0  0  0
   33.7924   11.5808    2.4510 C   0  0  0  0  0  0  0  0  0  0  0  0
   33.9414   12.7349    1.7810 C   0  0  0  0  0  0  0  0  0  0  0  0
   32.5386   11.1529    2.4886 C   0  0  0  0  0  0  0  0  0  0  0  0
   31.4577   11.8818    1.9824 C   0  0  0  0  0  0  0  0  0  0  0  0
  3 17  1  0  0  0
 17 18  1  0  0  0
 18 22  1  0  0  0
 23 20  1  0  0  0
 21 26  1  0  0  0
  9  1  2  0  0  0
  1  3  1  0  0  0
 27 22  2  0  0  0
 22 23  1  0  0  0
  4  2  2  0  0  0
  2 12  1  0  0  0
 10  3  2  0  0  0
 23 25  2  0  0  0
 26 24  2  0  0  0
 24 25  1  0  0  0
  5  4  1  0  0  0
  4  6  1  0  0  0
  6  7  2  0  0  0
  7  9  1  0  0  0
  7  8  1  0  0  0
 12  9  1  0  0  0
 27 26  1  0  0  0
 11 10  1  0  0  0
 12 11  2  0  0  0
 18 19  1  0  0  0
  5 13  1  0  0  0
  5 14  1  0  0  0
  8 15  1  0  0  0
  8 16  1  0  0  0
M  END
> <minimizedAffinity>
-8.44613

$$$$
4G95_OAG_A_201


 27 29  0  0  0  0  0  0  0  0999 V2000
   33.7519   14.4699   -2.0490 C   0  0  0  0  0  0  0  0  0  0  0  0
   36.0176   16.9682   -3.2223 N   0  0  0  0  0  0  0  0  0  0  0  0
   33.3695   14.9863   -0.8115 C   0  0  0  0  0  0  0  0  0  0  0  0
   36.3474   16.4549   -4.4488 C   0  0  0  0  0  0  0  0  0  0  0  0
   37.1922   17.1291   -5.2514 N   0  0  0  0  0  0  0  0  0  0  0  0
   35.9184   15.2656   -4.8883 N   0  0  0  0  0  0  0  0  0  0  0  0
   35.0773   14.5803   -4.0633 C   0  0  0  0  0  0  0  0  0  0  0  0
   34.6704   13.4126   -4.5735 N   0  0  0  0  0  0  0  0  0  0  0  0
   34.6320   15.1468   -2.8730 C   0  0  0  0  0  0  0  0  0  0  0  0
   33.8924   16.2143   -0.4267 C   0  0  0  0  0  0  0  0  0  0  0  0
   34.7692   16.8486   -1.2016 N   0  0  0  0  0  0  0  0  0  0  0  0
   35.1508   16.3186   -2.3832 C   0  0  0  0  0  0  0  0  0  0  0  0
   37.5373   18.0087   -4.9750 H   0  0  0  0  0  0  0  0  0  0  0  0
   37.4649   16.7424   -6.1148 H   0  0  0  0  0  0  0  0  0  0  0  0
   35.0436   13.0910   -5.4258 H   0  0  0  0  0  0  0  0  0  0  0  0
   33.9977   12.8748   -4.0965 H   0  0  0  0  0  0  0  0  0  0  0  0
   32.4007   14.0938   -0.0055 C   0  0  0  0  0  0  0  0  0  0  0  0
   31.1039   14.7274    0.0778 N   0  0  0  0  0  0  0  0  0  0  0  0
   30.9953   15.6135    0.4928 H   0  0  0  0  0  0  0  0  0  0  0  0
   29.1939   13.8103    2.1508 Cl  0  0  0  0  0  0  0  0  0  0  0  0
   28.4240   12.8323   -3.8429 Cl  0  0  0  0  0  0  0  0  0  0  0  0
   30.0749   14.0784   -0.4204 C   0  0  0  0  0  0  0  0  0  0  0  0
   29.1083   13.6191    0.4541 C   0  0  0  0  0  0  0  0  0  0  0  0
   27.8690   12.7276   -1.4772 C   0  0  0  0  0  0  0  0  0  0  0  0
   28.1356   12.8933   -0.1716 C   0  0  0  0  0  0  0  0  0  0  0  0
   28.8272   13.1837   -2.2713 C   0  0  0  0  0  0  0  0  0  0  0  0
   29.9528   13.8721   -1.8077 C   0  0  0  0  0  0  0  0  0  0  0  0
  3 17  1  0  0  0
 17 18  1  0  0  0
 18 22  1  0  0  0
 23 20  1  0  0  0
 21 26  1  0  0  0
  9  1  2  0  0  0
  1  3  1  0  0  0
 27 22  2  0  0  0
 22 23  1  0  0  0
  4  2  2  0  0  0
  2 12  1  0  0  0
 10  3  2  0  0  0
 23 25  2  0  0  0
 26 24  2  0  0  0
 24 25  1  0  0  0
  5  4  1  0  0  0
  4  6  1  0  0  0
  6  7  2  0  0  0
  7  9  1  0  0  0
  7  8  1  0  0  0
 12  9  1  0  0  0
 27 26  1  0  0  0
 11 10  1  0  0  0
 12 11  2  0  0  0
 18 19  1  0  0  0
  5 13  1  0  0  0
  5 14  1  0  0  0
  8 15  1  0  0  0
  8 16  1  0  0  0
M  END
> <minimizedAffinity>
-8.19563

$$$$
4G95_OAG_A_201


 27 29  0  0  0  0  0  0  0  0999 V2000
   29.1554   11.4415   -1.1582 C   0  0  0  0  0  0  0  0  0  0  0  0
   26.4367   11.8351   -3.4397 N   0  0  0  0  0  0  0  0  0  0  0  0
   28.5036   11.0016   -0.0067 C   0  0  0  0  0  0  0  0  0  0  0  0
   27.1072   12.2309   -4.5667 C   0  0  0  0  0  0  0  0  0  0  0  0
   26.4249   12.4700   -5.7024 N   0  0  0  0  0  0  0  0  0  0  0  0
   28.4259   12.4583   -4.5966 N   0  0  0  0  0  0  0  0  0  0  0  0
   29.1081   12.2311   -3.4387 C   0  0  0  0  0  0  0  0  0  0  0  0
   30.4223   12.4563   -3.5456 N   0  0  0  0  0  0  0  0  0  0  0  0
   28.4612   11.7058   -2.3245 C   0  0  0  0  0  0  0  0  0  0  0  0
   27.1270   10.8247   -0.0629 C   0  0  0  0  0  0  0  0  0  0  0  0
   26.4527   11.1153   -1.1730 N   0  0  0  0  0  0  0  0  0  0  0  0
   27.0972   11.5690   -2.2691 C   0  0  0  0  0  0  0  0  0  0  0  0
   25.4526   12.3188   -5.7335 H   0  0  0  0  0  0  0  0  0  0  0  0
   26.8982   12.7960   -6.5017 H   0  0  0  0  0  0  0  0  0  0  0  0
   30.7913   12.8324   -4.3772 H   0  0  0  0  0  0  0  0  0  0  0  0
   31.0206   12.2459   -2.7926 H   0  0  0  0  0  0  0  0  0  0  0  0
   29.4215   10.7772    1.2148 C   0  0  0  0  0  0  0  0  0  0  0  0
   30.4032   11.8357    1.2919 N   0  0  0  0  0  0  0  0  0  0  0  0
   31.3644   11.6352    1.3641 H   0  0  0  0  0  0  0  0  0  0  0  0
   32.2659   13.6908   -0.0777 Cl  0  0  0  0  0  0  0  0  0  0  0  0
   26.9126   15.4242    2.3330 Cl  0  0  0  0  0  0  0  0  0  0  0  0
   29.9669   13.0755    1.2621 C   0  0  0  0  0  0  0  0  0  0  0  0
   30.7467   14.0261    0.6310 C   0  0  0  0  0  0  0  0  0  0  0  0
   29.0284   15.7056    1.1668 C   0  0  0  0  0  0  0  0  0  0  0  0
   30.2289   15.2851    0.7365 C   0  0  0  0  0  0  0  0  0  0  0  0
   28.3223   14.7566    1.7647 C   0  0  0  0  0  0  0  0  0  0  0  0
   28.7317   13.4216    1.8422 C   0  0  0  0  0  0  0  0  0  0  0  0
  3 17  1  0  0  0
 17 18  1  0  0  0
 18 22  1  0  0  0
 23 20  1  0  0  0
 21 26  1  0  0  0
  9  1  2  0  0  0
  1  3  1  0  0  0
 27 22  2  0  0  0
 22 23  1  0  0  0
  4  2  2  0  0  0
  2 12  1  0  0  0
 10  3  2  0  0  0
 23 25  2  0  0  0
 26 24  2  0  0  0
 24 25  1  0  0  0
  5  4  1  0  0  0
  4  6  1  0  0  0
  6  7  2  0  0  0
  7  9  1  0  0  0
  7  8  1  0  0  0
 12  9  1  0  0  0
 27 26  1  0  0  0
 11 10  1  0  0  0
 12 11  2  0  0  0
 18 19  1  0  0  0
  5 13  1  0  0  0
  5 14  1  0  0  0
  8 15  1  0  0  0
  8 16  1  0  0  0
M  END
> <minimizedAffinity>
-8.15405

$$$$
4G95_OAG_A_201


 27 29  0  0  0  0  0  0  0  0999 V2000
   31.1178   12.6455    2.0815 C   0  0  0  0  0  0  0  0  0  0  0  0
   34.3480   13.9745    1.3393 N   0  0  0  0  0  0  0  0  0  0  0  0
   30.2788   13.6786    1.6655 C   0  0  0  0  0  0  0  0  0  0  0  0
   35.1460   12.9292    1.7226 C   0  0  0  0  0  0  0  0  0  0  0  0
   36.4817   13.0196    1.5803 N   0  0  0  0  0  0  0  0  0  0  0  0
   34.6752   11.8170    2.2995 N   0  0  0  0  0  0  0  0  0  0  0  0
   33.3235   11.7394    2.4564 C   0  0  0  0  0  0  0  0  0  0  0  0
   32.9205   10.5941    3.0179 N   0  0  0  0  0  0  0  0  0  0  0  0
   32.4918   12.7359    1.9551 C   0  0  0  0  0  0  0  0  0  0  0  0
   30.8622   14.8086    1.1068 C   0  0  0  0  0  0  0  0  0  0  0  0
   32.1863   14.9131    1.0197 N   0  0  0  0  0  0  0  0  0  0  0  0
   32.9840   13.9150    1.4554 C   0  0  0  0  0  0  0  0  0  0  0  0
   36.8794   13.8172    1.1622 H   0  0  0  0  0  0  0  0  0  0  0  0
   37.0608   12.2880    1.8945 H   0  0  0  0  0  0  0  0  0  0  0  0
   33.5852    9.9459    3.3454 H   0  0  0  0  0  0  0  0  0  0  0  0
   31.9593   10.3994    3.1036 H   0  0  0  0  0  0  0  0  0  0  0  0
   28.7732   13.4284    1.9007 C   0  0  0  0  0  0  0  0  0  0  0  0
   28.0846   13.3503    0.6318 N   0  0  0  0  0  0  0  0  0  0  0  0
   27.5228   14.0920    0.3102 H   0  0  0  0  0  0  0  0  0  0  0  0
   29.2263   13.8530   -2.0571 Cl  0  0  0  0  0  0  0  0  0  0  0  0
   27.7558    8.2847    0.0178 Cl  0  0  0  0  0  0  0  0  0  0  0  0
   28.2355   12.2536   -0.0773 C   0  0  0  0  0  0  0  0  0  0  0  0
   28.7780   12.3656   -1.3435 C   0  0  0  0  0  0  0  0  0  0  0  0
   28.5893    9.9220   -1.5760 C   0  0  0  0  0  0  0  0  0  0  0  0
   28.8089   11.1739   -2.0093 C   0  0  0  0  0  0  0  0  0  0  0  0
   28.0682    9.8711   -0.3583 C   0  0  0  0  0  0  0  0  0  0  0  0
   27.8703   10.9985    0.4453 C   0  0  0  0  0  0  0  0  0  0  0  0
  3 17  1  0  0  0
 17 18  1  0  0  0
 18 22  1  0  0  0
 23 20  1  0  0  0
 21 26  1  0  0  0
  9  1  2  0  0  0
  1  3  1  0  0  0
 27 22  2  0  0  0
 22 23  1  0  0  0
  4  2  2  0  0  0
  2 12  1  0  0  0
 10  3  2  0  0  0
 23 25  2  0  0  0
 26 24  2  0  0  0
 24 25  1  0  0  0
  5  4  1  0  0  0
  4  6  1  0  0  0
  6  7  2  0  0  0
  7  9  1  0  0  0
  7  8  1  0  0  0
 12  9  1  0  0  0
 27 26  1  0  0  0
 11 10  1  0  0  0
 12 11  2  0  0  0
 18 19  1  0  0  0
  5 13  1  0  0  0
  5 14  1  0  0  0
  8 15  1  0  0  0
  8 16  1  0  0  0
M  END
> <minimizedAffinity>
-8.14499

$$$$
4G95_OAG_A_201


 27 29  0  0  0  0  0  0  0  0999 V2000
   30.0493   12.3385   -0.0281 C   0  0  0  0  0  0  0  0  0  0  0  0
   27.6149    9.7307    0.1284 N   0  0  0  0  0  0  0  0  0  0  0  0
   30.2160   12.4946   -1.4036 C   0  0  0  0  0  0  0  0  0  0  0  0
   27.4446    9.6243    1.4834 C   0  0  0  0  0  0  0  0  0  0  0  0
   26.5619    8.7371    1.9796 N   0  0  0  0  0  0  0  0  0  0  0  0
   28.1613   10.3229    2.3722 N   0  0  0  0  0  0  0  0  0  0  0  0
   29.0655   11.2067    1.8634 C   0  0  0  0  0  0  0  0  0  0  0  0
   29.7297   11.8859    2.8052 N   0  0  0  0  0  0  0  0  0  0  0  0
   29.1574   11.4183    0.4913 C   0  0  0  0  0  0  0  0  0  0  0  0
   29.4499   11.7015   -2.2483 C   0  0  0  0  0  0  0  0  0  0  0  0
   28.6193   10.7887   -1.7498 N   0  0  0  0  0  0  0  0  0  0  0  0
   28.4932   10.6311   -0.4150 C   0  0  0  0  0  0  0  0  0  0  0  0
   26.0098    8.1977    1.3685 H   0  0  0  0  0  0  0  0  0  0  0  0
   26.4685    8.6277    2.9535 H   0  0  0  0  0  0  0  0  0  0  0  0
   29.5999   11.6644    3.7556 H   0  0  0  0  0  0  0  0  0  0  0  0
   30.3483   12.6072    2.5479 H   0  0  0  0  0  0  0  0  0  0  0  0
   31.2688   13.5465   -1.8159 C   0  0  0  0  0  0  0  0  0  0  0  0
   32.0876   13.8943   -0.6762 N   0  0  0  0  0  0  0  0  0  0  0  0
   31.9627   13.4527    0.1948 H   0  0  0  0  0  0  0  0  0  0  0  0
   32.0928   15.9287    1.4796 Cl  0  0  0  0  0  0  0  0  0  0  0  0
   35.9732   15.9918   -3.2545 Cl  0  0  0  0  0  0  0  0  0  0  0  0
   33.0047   14.8210   -0.8443 C   0  0  0  0  0  0  0  0  0  0  0  0
   33.1117   15.8133    0.1117 C   0  0  0  0  0  0  0  0  0  0  0  0
   34.9745   16.7742   -1.1794 C   0  0  0  0  0  0  0  0  0  0  0  0
   34.0415   16.7588   -0.2138 C   0  0  0  0  0  0  0  0  0  0  0  0
   34.8257   15.8037   -2.0697 C   0  0  0  0  0  0  0  0  0  0  0  0
   33.8650   14.7935   -1.9584 C   0  0  0  0  0  0  0  0  0  0  0  0
  3 17  1  0  0  0
 17 18  1  0  0  0
 18 22  1  0  0  0
 23 20  1  0  0  0
 21 26  1  0  0  0
  9  1  2  0  0  0
  1  3  1  0  0  0
 27 22  2  0  0  0
 22 23  1  0  0  0
  4  2  2  0  0  0
  2 12  1  0  0  0
 10  3  2  0  0  0
 23 25  2  0  0  0
 26 24  2  0  0  0
 24 25  1  0  0  0
  5  4  1  0  0  0
  4  6  1  0  0  0
  6  7  2  0  0  0
  7  9  1  0  0  0
  7  8  1  0  0  0
 12  9  1  0  0  0
 27 26  1  0  0  0
 11 10  1  0  0  0
 12 11  2  0  0  0
 18 19  1  0  0  0
  5 13  1  0  0  0
  5 14  1  0  0  0
  8 15  1  0  0  0
  8 16  1  0  0  0
M  END
> <minimizedAffinity>
-8.04464

$$$$
4G95_OAG_A_201


 27 29  0  0  0  0  0  0  0  0999 V2000
   28.8051   11.5068    0.3003 C   0  0  0  0  0  0  0  0  0  0  0  0
   26.8795    8.7150    1.4179 N   0  0  0  0  0  0  0  0  0  0  0  0
   28.4225   11.6036   -1.0371 C   0  0  0  0  0  0  0  0  0  0  0  0
   27.2463    8.6661    2.7368 C   0  0  0  0  0  0  0  0  0  0  0  0
   26.7087    7.7351    3.5471 N   0  0  0  0  0  0  0  0  0  0  0  0
   28.1738    9.4686    3.2727 N   0  0  0  0  0  0  0  0  0  0  0  0
   28.7268   10.3975    2.4426 C   0  0  0  0  0  0  0  0  0  0  0  0
   29.6280   11.1789    3.0480 N   0  0  0  0  0  0  0  0  0  0  0  0
   28.2712   10.5434    1.1360 C   0  0  0  0  0  0  0  0  0  0  0  0
   27.4754   10.7054   -1.5119 C   0  0  0  0  0  0  0  0  0  0  0  0
   26.9891    9.7533   -0.7189 N   0  0  0  0  0  0  0  0  0  0  0  0
   27.3939    9.6563    0.5653 C   0  0  0  0  0  0  0  0  0  0  0  0
   26.0221    7.1196    3.2021 H   0  0  0  0  0  0  0  0  0  0  0  0
   27.0022    7.6697    4.4845 H   0  0  0  0  0  0  0  0  0  0  0  0
   29.8901   10.9977    3.9795 H   0  0  0  0  0  0  0  0  0  0  0  0
   30.0292   11.9353    2.5620 H   0  0  0  0  0  0  0  0  0  0  0  0
   29.1322   12.7174   -1.8376 C   0  0  0  0  0  0  0  0  0  0  0  0
   29.0681   13.9635   -1.1074 N   0  0  0  0  0  0  0  0  0  0  0  0
   28.2305   14.4775   -1.0489 H   0  0  0  0  0  0  0  0  0  0  0  0
   28.5542   15.4507    1.4047 Cl  0  0  0  0  0  0  0  0  0  0  0  0
   34.1549   14.4041   -0.8336 Cl  0  0  0  0  0  0  0  0  0  0  0  0
   30.1680   14.3859   -0.5243 C   0  0  0  0  0  0  0  0  0  0  0  0
   30.0503   15.0772    0.6666 C   0  0  0  0  0  0  0  0  0  0  0  0
   32.5046   15.2568    0.7364 C   0  0  0  0  0  0  0  0  0  0  0  0
   31.2510   15.5323    1.1311 C   0  0  0  0  0  0  0  0  0  0  0  0
   32.5611   14.5945   -0.4103 C   0  0  0  0  0  0  0  0  0  0  0  0
   31.4313   14.1264   -1.0888 C   0  0  0  0  0  0  0  0  0  0  0  0
  3 17  1  0  0  0
 17 18  1  0  0  0
 18 22  1  0  0  0
 23 20  1  0  0  0
 21 26  1  0  0  0
  9  1  2  0  0  0
  1  3  1  0  0  0
 27 22  2  0  0  0
 22 23  1  0  0  0
  4  2  2  0  0  0
  2 12  1  0  0  0
 10  3  2  0  0  0
 23 25  2  0  0  0
 26 24  2  0  0  0
 24 25  1  0  0  0
  5  4  1  0  0  0
  4  6  1  0  0  0
  6  7  2  0  0  0
  7  9  1  0  0  0
  7  8  1  0  0  0
 12  9  1  0  0  0
 27 26  1  0  0  0
 11 10  1  0  0  0
 12 11  2  0  0  0
 18 19  1  0  0  0
  5 13  1  0  0  0
  5 14  1  0  0  0
  8 15  1  0  0  0
  8 16  1  0  0  0
M  END
> <minimizedAffinity>
-8.03773

$$$$
