6EJ2_B7E_A_901


 30 34  0  0  0  0  0  0  0  0999 V2000
  -16.4222  -34.8832  -10.9390 C   0  0  0  0  0  0  0  0  0  0  0  0
  -17.9741  -37.2915   -9.9866 C   0  0  0  0  0  0  0  0  0  0  0  0
  -16.8279  -37.3994  -11.0184 C   0  0  0  0  0  0  0  0  0  0  0  0
  -16.5876  -36.1168  -11.8499 C   0  0  0  0  0  0  0  0  0  0  0  0
  -15.3332  -36.3351  -12.7152 C   0  0  0  0  0  0  0  0  0  0  0  0
  -19.3600  -37.2938  -10.6998 C   0  0  0  0  0  0  0  0  0  0  0  0
  -20.3203  -37.9106   -9.6912 C   0  0  0  0  0  0  0  0  0  0  0  0
  -21.7162  -37.8410   -9.6096 C   0  0  0  0  0  0  0  0  0  0  0  0
  -22.3963  -38.5010   -8.5891 C   0  0  0  0  0  0  0  0  0  0  0  0
  -21.6754  -39.2238   -7.6153 C   0  0  0  0  0  0  0  0  0  0  0  0
  -18.1181  -38.5501   -9.0762 C   0  0  0  0  0  0  0  0  0  0  0  0
  -17.6342  -39.9028   -9.6636 C   0  0  0  0  0  0  0  0  0  0  0  0
  -16.7550  -39.5725   -7.5984 C   0  0  0  0  0  0  0  0  0  0  0  0
  -17.3369  -38.4450   -7.8356 N   0  0  0  0  0  0  0  0  0  0  0  0
  -17.6237  -34.7186   -9.9838 C   0  0  0  0  0  0  0  0  0  0  0  0
  -17.8430  -35.9954   -9.1461 C   0  0  0  0  0  0  0  0  0  0  0  0
  -20.2701  -39.3002   -7.7151 C   0  0  0  0  0  0  0  0  0  0  0  0
  -19.5929  -38.6480   -8.7484 C   0  0  0  0  0  0  0  0  0  0  0  0
  -16.9737  -40.5177   -8.5264 O   0  0  0  0  0  0  0  0  0  0  0  0
  -15.9770  -39.7684   -6.4913 N   0  0  0  0  0  0  0  0  0  0  0  0
  -15.5470  -40.6410   -6.3398 H   0  0  0  0  0  0  0  0  0  0  0  0
  -15.8467  -39.0367   -5.8455 H   0  0  0  0  0  0  0  0  0  0  0  0
  -23.4734  -41.9642   -5.8051 N   0  0  0  0  0  0  0  0  0  0  0  0
  -22.9284  -41.2767   -6.8078 C   0  0  0  0  0  0  0  0  0  0  0  0
  -22.3766  -40.0042   -6.5523 C   0  0  0  0  0  0  0  0  0  0  0  0
  -22.3915  -39.5700   -5.2130 C   0  0  0  0  0  0  0  0  0  0  0  0
  -22.9385  -40.3226   -4.2648 N   0  0  0  0  0  0  0  0  0  0  0  0
  -23.4841  -41.4941   -4.5631 C   0  0  0  0  0  0  0  0  0  0  0  0
  -15.1970  -32.8283  -11.4689 C   0  0  0  0  0  0  0  0  0  0  0  0
  -16.3214  -33.6837  -11.7373 O   0  0  0  0  0  0  0  0  0  0  0  0
  5  4  1  0  0  0
 30 29  1  0  0  0
 30  1  1  0  0  0
  4  1  1  0  0  0
  4  3  1  0  0  0
  1 15  1  0  0  0
  3  2  1  0  0  0
  6  2  1  0  0  0
  6  7  1  0  0  0
 15 16  1  0  0  0
  2 16  1  0  0  0
  2 11  1  0  0  0
  7  8  2  0  0  0
  7 18  1  0  0  0
 12 11  1  0  0  0
 12 19  1  0  0  0
  8  9  1  0  0  0
 11 18  1  0  0  0
 11 14  1  0  0  0
 18 17  2  0  0  0
  9 10  2  0  0  0
 19 13  1  0  0  0
 14 13  2  0  0  0
 17 10  1  0  0  0
 13 20  1  0  0  0
 10 25  1  0  0  0
 24 25  2  0  0  0
 24 23  1  0  0  0
 25 26  1  0  0  0
 23 28  2  0  0  0
 26 27  2  0  0  0
 28 27  1  0  0  0
 20 21  1  0  0  0
 20 22  1  0  0  0
M  END
> <minimizedAffinity>
-11.69246

$$$$
6EJ2_B7E_A_901


 30 34  0  0  0  0  0  0  0  0999 V2000
  -12.3980  -38.2065  -10.8588 C   0  0  0  0  0  0  0  0  0  0  0  0
  -15.2758  -39.1191  -10.8869 C   0  0  0  0  0  0  0  0  0  0  0  0
  -14.1999  -39.7423  -11.8057 C   0  0  0  0  0  0  0  0  0  0  0  0
  -13.0164  -38.8033  -12.1396 C   0  0  0  0  0  0  0  0  0  0  0  0
  -11.9721  -39.6118  -12.9307 C   0  0  0  0  0  0  0  0  0  0  0  0
  -16.1170  -38.0607  -11.6624 C   0  0  0  0  0  0  0  0  0  0  0  0
  -17.4855  -38.0794  -10.9938 C   0  0  0  0  0  0  0  0  0  0  0  0
  -18.5097  -37.1249  -10.9993 C   0  0  0  0  0  0  0  0  0  0  0  0
  -19.6979  -37.3623  -10.3129 C   0  0  0  0  0  0  0  0  0  0  0  0
  -19.8637  -38.5597   -9.5854 C   0  0  0  0  0  0  0  0  0  0  0  0
  -16.3945  -40.1205  -10.4636 C   0  0  0  0  0  0  0  0  0  0  0  0
  -16.6884  -41.2978  -11.4314 C   0  0  0  0  0  0  0  0  0  0  0  0
  -16.4000  -42.0613   -9.3144 C   0  0  0  0  0  0  0  0  0  0  0  0
  -16.0884  -40.8135   -9.2041 N   0  0  0  0  0  0  0  0  0  0  0  0
  -13.4598  -37.4902   -9.9973 C   0  0  0  0  0  0  0  0  0  0  0  0
  -14.6259  -38.4402   -9.6540 C   0  0  0  0  0  0  0  0  0  0  0  0
  -18.8317  -39.5216   -9.5986 C   0  0  0  0  0  0  0  0  0  0  0  0
  -17.6467  -39.2854  -10.2999 C   0  0  0  0  0  0  0  0  0  0  0  0
  -16.8791  -42.4108  -10.5189 O   0  0  0  0  0  0  0  0  0  0  0  0
  -16.2413  -42.9425   -8.2812 N   0  0  0  0  0  0  0  0  0  0  0  0
  -16.4888  -43.8882   -8.3984 H   0  0  0  0  0  0  0  0  0  0  0  0
  -15.8796  -42.6314   -7.4201 H   0  0  0  0  0  0  0  0  0  0  0  0
  -23.2868  -39.9016   -8.8771 N   0  0  0  0  0  0  0  0  0  0  0  0
  -22.1894  -39.5729   -9.5576 C   0  0  0  0  0  0  0  0  0  0  0  0
  -21.1522  -38.8788   -8.9009 C   0  0  0  0  0  0  0  0  0  0  0  0
  -21.3339  -38.6302   -7.5269 C   0  0  0  0  0  0  0  0  0  0  0  0
  -22.4511  -39.0059   -6.9143 N   0  0  0  0  0  0  0  0  0  0  0  0
  -23.4169  -39.6180   -7.5863 C   0  0  0  0  0  0  0  0  0  0  0  0
  -11.2347  -36.1203  -10.3118 C   0  0  0  0  0  0  0  0  0  0  0  0
  -11.3780  -37.2423  -11.2000 O   0  0  0  0  0  0  0  0  0  0  0  0
  5  4  1  0  0  0
 30 29  1  0  0  0
 30  1  1  0  0  0
  4  1  1  0  0  0
  4  3  1  0  0  0
  1 15  1  0  0  0
  3  2  1  0  0  0
  6  2  1  0  0  0
  6  7  1  0  0  0
 15 16  1  0  0  0
  2 16  1  0  0  0
  2 11  1  0  0  0
  7  8  2  0  0  0
  7 18  1  0  0  0
 12 11  1  0  0  0
 12 19  1  0  0  0
  8  9  1  0  0  0
 11 18  1  0  0  0
 11 14  1  0  0  0
 18 17  2  0  0  0
  9 10  2  0  0  0
 19 13  1  0  0  0
 14 13  2  0  0  0
 17 10  1  0  0  0
 13 20  1  0  0  0
 10 25  1  0  0  0
 24 25  2  0  0  0
 24 23  1  0  0  0
 25 26  1  0  0  0
 23 28  2  0  0  0
 26 27  2  0  0  0
 28 27  1  0  0  0
 20 21  1  0  0  0
 20 22  1  0  0  0
M  END
> <minimizedAffinity>
-9.80434

$$$$
6EJ2_B7E_A_901


 30 34  0  0  0  0  0  0  0  0999 V2000
  -21.6507  -42.2433   -9.2078 C   0  0  0  0  0  0  0  0  0  0  0  0
  -19.8643  -39.8383   -8.8332 C   0  0  0  0  0  0  0  0  0  0  0  0
  -20.6518  -40.4754   -7.6653 C   0  0  0  0  0  0  0  0  0  0  0  0
  -21.9393  -41.2218   -8.0887 C   0  0  0  0  0  0  0  0  0  0  0  0
  -22.5209  -41.9171   -6.8444 C   0  0  0  0  0  0  0  0  0  0  0  0
  -20.6103  -38.5846   -9.3820 C   0  0  0  0  0  0  0  0  0  0  0  0
  -19.5118  -37.6794   -9.9241 C   0  0  0  0  0  0  0  0  0  0  0  0
  -19.5781  -36.6239  -10.8415 C   0  0  0  0  0  0  0  0  0  0  0  0
  -18.4282  -35.9198  -11.1900 C   0  0  0  0  0  0  0  0  0  0  0  0
  -17.1832  -36.2865  -10.6366 C   0  0  0  0  0  0  0  0  0  0  0  0
  -18.5092  -39.1986   -8.3997 C   0  0  0  0  0  0  0  0  0  0  0  0
  -18.4053  -38.6941   -6.9356 C   0  0  0  0  0  0  0  0  0  0  0  0
  -16.6315  -40.0116   -7.4505 C   0  0  0  0  0  0  0  0  0  0  0  0
  -17.3830  -40.1387   -8.4923 N   0  0  0  0  0  0  0  0  0  0  0  0
  -20.9610  -41.5784  -10.4182 C   0  0  0  0  0  0  0  0  0  0  0  0
  -19.6687  -40.8533   -9.9886 C   0  0  0  0  0  0  0  0  0  0  0  0
  -17.1296  -37.3417   -9.7017 C   0  0  0  0  0  0  0  0  0  0  0  0
  -18.2878  -38.0364   -9.3444 C   0  0  0  0  0  0  0  0  0  0  0  0
  -17.0660  -39.1079   -6.5579 O   0  0  0  0  0  0  0  0  0  0  0  0
  -15.4935  -40.7505   -7.2828 N   0  0  0  0  0  0  0  0  0  0  0  0
  -14.9422  -40.6292   -6.4761 H   0  0  0  0  0  0  0  0  0  0  0  0
  -15.2252  -41.4039   -7.9686 H   0  0  0  0  0  0  0  0  0  0  0  0
  -14.7925  -33.4482  -11.1348 N   0  0  0  0  0  0  0  0  0  0  0  0
  -15.9413  -34.0959  -10.9451 C   0  0  0  0  0  0  0  0  0  0  0  0
  -15.9442  -35.5061  -10.9306 C   0  0  0  0  0  0  0  0  0  0  0  0
  -14.6933  -36.1386  -11.0630 C   0  0  0  0  0  0  0  0  0  0  0  0
  -13.5879  -35.4213  -11.2310 N   0  0  0  0  0  0  0  0  0  0  0  0
  -13.6431  -34.0971  -11.2813 C   0  0  0  0  0  0  0  0  0  0  0  0
  -23.4683  -42.2634  -10.8511 C   0  0  0  0  0  0  0  0  0  0  0  0
  -22.8831  -42.8383   -9.6699 O   0  0  0  0  0  0  0  0  0  0  0  0
  5  4  1  0  0  0
 30 29  1  0  0  0
 30  1  1  0  0  0
  4  1  1  0  0  0
  4  3  1  0  0  0
  1 15  1  0  0  0
  3  2  1  0  0  0
  6  2  1  0  0  0
  6  7  1  0  0  0
 15 16  1  0  0  0
  2 16  1  0  0  0
  2 11  1  0  0  0
  7  8  2  0  0  0
  7 18  1  0  0  0
 12 11  1  0  0  0
 12 19  1  0  0  0
  8  9  1  0  0  0
 11 18  1  0  0  0
 11 14  1  0  0  0
 18 17  2  0  0  0
  9 10  2  0  0  0
 19 13  1  0  0  0
 14 13  2  0  0  0
 17 10  1  0  0  0
 13 20  1  0  0  0
 10 25  1  0  0  0
 24 25  2  0  0  0
 24 23  1  0  0  0
 25 26  1  0  0  0
 23 28  2  0  0  0
 26 27  2  0  0  0
 28 27  1  0  0  0
 20 21  1  0  0  0
 20 22  1  0  0  0
M  END
> <minimizedAffinity>
-9.61176

$$$$
6EJ2_B7E_A_901


 30 34  0  0  0  0  0  0  0  0999 V2000
  -16.7269  -34.4174  -10.1768 C   0  0  0  0  0  0  0  0  0  0  0  0
  -16.9892  -37.4251  -10.1891 C   0  0  0  0  0  0  0  0  0  0  0  0
  -16.0853  -36.6682  -11.1892 C   0  0  0  0  0  0  0  0  0  0  0  0
  -16.5263  -35.2142  -11.4821 C   0  0  0  0  0  0  0  0  0  0  0  0
  -15.4529  -34.5578  -12.3691 C   0  0  0  0  0  0  0  0  0  0  0  0
  -18.3523  -37.7945  -10.8485 C   0  0  0  0  0  0  0  0  0  0  0  0
  -18.7992  -39.0673  -10.1410 C   0  0  0  0  0  0  0  0  0  0  0  0
  -20.0691  -39.6473  -10.0362 C   0  0  0  0  0  0  0  0  0  0  0  0
  -20.2446  -40.8374   -9.3345 C   0  0  0  0  0  0  0  0  0  0  0  0
  -19.1426  -41.4512   -8.7026 C   0  0  0  0  0  0  0  0  0  0  0  0
  -16.4583  -38.8432   -9.8142 C   0  0  0  0  0  0  0  0  0  0  0  0
  -15.5722  -39.5637  -10.8653 C   0  0  0  0  0  0  0  0  0  0  0  0
  -14.5741  -39.5949   -8.8281 C   0  0  0  0  0  0  0  0  0  0  0  0
  -15.5934  -38.8291   -8.6258 N   0  0  0  0  0  0  0  0  0  0  0  0
  -17.7161  -35.1255   -9.2266 C   0  0  0  0  0  0  0  0  0  0  0  0
  -17.2575  -36.5676   -8.9257 C   0  0  0  0  0  0  0  0  0  0  0  0
  -17.8645  -40.8667   -8.8269 C   0  0  0  0  0  0  0  0  0  0  0  0
  -17.6906  -39.6801   -9.5434 C   0  0  0  0  0  0  0  0  0  0  0  0
  -14.5412  -40.1686  -10.0415 O   0  0  0  0  0  0  0  0  0  0  0  0
  -13.6123  -39.7886   -7.8760 N   0  0  0  0  0  0  0  0  0  0  0  0
  -12.8471  -40.3794   -8.0623 H   0  0  0  0  0  0  0  0  0  0  0  0
  -13.6848  -39.3373   -7.0040 H   0  0  0  0  0  0  0  0  0  0  0  0
  -20.5626  -44.6583   -7.3920 N   0  0  0  0  0  0  0  0  0  0  0  0
  -20.5116  -43.4528   -7.9572 C   0  0  0  0  0  0  0  0  0  0  0  0
  -19.2812  -42.7652   -8.0064 C   0  0  0  0  0  0  0  0  0  0  0  0
  -18.1601  -43.4455   -7.4939 C   0  0  0  0  0  0  0  0  0  0  0  0
  -18.2892  -44.6557   -6.9615 N   0  0  0  0  0  0  0  0  0  0  0  0
  -19.4768  -45.2430   -6.8992 C   0  0  0  0  0  0  0  0  0  0  0  0
  -17.1743  -32.1322   -9.4135 C   0  0  0  0  0  0  0  0  0  0  0  0
  -17.2542  -33.1049  -10.4698 O   0  0  0  0  0  0  0  0  0  0  0  0
  5  4  1  0  0  0
 30 29  1  0  0  0
 30  1  1  0  0  0
  4  1  1  0  0  0
  4  3  1  0  0  0
  1 15  1  0  0  0
  3  2  1  0  0  0
  6  2  1  0  0  0
  6  7  1  0  0  0
 15 16  1  0  0  0
  2 16  1  0  0  0
  2 11  1  0  0  0
  7  8  2  0  0  0
  7 18  1  0  0  0
 12 11  1  0  0  0
 12 19  1  0  0  0
  8  9  1  0  0  0
 11 18  1  0  0  0
 11 14  1  0  0  0
 18 17  2  0  0  0
  9 10  2  0  0  0
 19 13  1  0  0  0
 14 13  2  0  0  0
 17 10  1  0  0  0
 13 20  1  0  0  0
 10 25  1  0  0  0
 24 25  2  0  0  0
 24 23  1  0  0  0
 25 26  1  0  0  0
 23 28  2  0  0  0
 26 27  2  0  0  0
 28 27  1  0  0  0
 20 21  1  0  0  0
 20 22  1  0  0  0
M  END
> <minimizedAffinity>
-9.55812

$$$$
6EJ2_B7E_A_901


 30 34  0  0  0  0  0  0  0  0999 V2000
  -23.4115  -42.8049   -9.4571 C   0  0  0  0  0  0  0  0  0  0  0  0
  -20.9193  -41.1076   -9.3024 C   0  0  0  0  0  0  0  0  0  0  0  0
  -21.2688  -42.1660   -8.2311 C   0  0  0  0  0  0  0  0  0  0  0  0
  -22.7804  -42.4654   -8.0913 C   0  0  0  0  0  0  0  0  0  0  0  0
  -22.9478  -43.6326   -7.1016 C   0  0  0  0  0  0  0  0  0  0  0  0
  -21.3275  -39.6819   -8.8225 C   0  0  0  0  0  0  0  0  0  0  0  0
  -20.3467  -38.7402   -9.5090 C   0  0  0  0  0  0  0  0  0  0  0  0
  -20.4344  -37.3654   -9.7583 C   0  0  0  0  0  0  0  0  0  0  0  0
  -19.3967  -36.6989  -10.4054 C   0  0  0  0  0  0  0  0  0  0  0  0
  -18.2603  -37.4154  -10.8364 C   0  0  0  0  0  0  0  0  0  0  0  0
  -19.3861  -40.9115   -9.5124 C   0  0  0  0  0  0  0  0  0  0  0  0
  -18.4639  -41.2282   -8.3048 C   0  0  0  0  0  0  0  0  0  0  0  0
  -17.7138  -42.2728  -10.1739 C   0  0  0  0  0  0  0  0  0  0  0  0
  -18.8419  -41.7818  -10.5645 N   0  0  0  0  0  0  0  0  0  0  0  0
  -23.1512  -41.6915  -10.4943 C   0  0  0  0  0  0  0  0  0  0  0  0
  -21.6406  -41.4139  -10.6401 C   0  0  0  0  0  0  0  0  0  0  0  0
  -18.1750  -38.7977  -10.5668 C   0  0  0  0  0  0  0  0  0  0  0  0
  -19.2121  -39.4596   -9.9051 C   0  0  0  0  0  0  0  0  0  0  0  0
  -17.3459  -41.9057   -8.9361 O   0  0  0  0  0  0  0  0  0  0  0  0
  -16.9711  -43.1033  -10.9663 N   0  0  0  0  0  0  0  0  0  0  0  0
  -16.1145  -43.4609  -10.6381 H   0  0  0  0  0  0  0  0  0  0  0  0
  -17.2929  -43.3438  -11.8651 H   0  0  0  0  0  0  0  0  0  0  0  0
  -15.9622  -34.7409  -12.0954 N   0  0  0  0  0  0  0  0  0  0  0  0
  -17.0566  -35.3165  -11.5992 C   0  0  0  0  0  0  0  0  0  0  0  0
  -17.0979  -36.7198  -11.4654 C   0  0  0  0  0  0  0  0  0  0  0  0
  -15.9291  -37.4198  -11.8208 C   0  0  0  0  0  0  0  0  0  0  0  0
  -14.8700  -36.7712  -12.2922 N   0  0  0  0  0  0  0  0  0  0  0  0
  -14.8960  -35.4534  -12.4405 C   0  0  0  0  0  0  0  0  0  0  0  0
  -25.6580  -41.9863   -9.9935 C   0  0  0  0  0  0  0  0  0  0  0  0
  -24.8410  -42.9604   -9.3212 O   0  0  0  0  0  0  0  0  0  0  0  0
  5  4  1  0  0  0
 30 29  1  0  0  0
 30  1  1  0  0  0
  4  1  1  0  0  0
  4  3  1  0  0  0
  1 15  1  0  0  0
  3  2  1  0  0  0
  6  2  1  0  0  0
  6  7  1  0  0  0
 15 16  1  0  0  0
  2 16  1  0  0  0
  2 11  1  0  0  0
  7  8  2  0  0  0
  7 18  1  0  0  0
 12 11  1  0  0  0
 12 19  1  0  0  0
  8  9  1  0  0  0
 11 18  1  0  0  0
 11 14  1  0  0  0
 18 17  2  0  0  0
  9 10  2  0  0  0
 19 13  1  0  0  0
 14 13  2  0  0  0
 17 10  1  0  0  0
 13 20  1  0  0  0
 10 25  1  0  0  0
 24 25  2  0  0  0
 24 23  1  0  0  0
 25 26  1  0  0  0
 23 28  2  0  0  0
 26 27  2  0  0  0
 28 27  1  0  0  0
 20 21  1  0  0  0
 20 22  1  0  0  0
M  END
> <minimizedAffinity>
-9.37696

$$$$
6EJ2_B7E_A_901


 30 34  0  0  0  0  0  0  0  0999 V2000
  -16.5518  -35.8857   -9.9524 C   0  0  0  0  0  0  0  0  0  0  0  0
  -18.3114  -38.3391   -9.9366 C   0  0  0  0  0  0  0  0  0  0  0  0
  -17.1123  -38.1856  -10.9003 C   0  0  0  0  0  0  0  0  0  0  0  0
  -16.7388  -36.7219  -11.2349 C   0  0  0  0  0  0  0  0  0  0  0  0
  -15.4494  -36.7369  -12.0759 C   0  0  0  0  0  0  0  0  0  0  0  0
  -19.6473  -37.9875  -10.6585 C   0  0  0  0  0  0  0  0  0  0  0  0
  -20.7063  -38.8280   -9.9569 C   0  0  0  0  0  0  0  0  0  0  0  0
  -22.0972  -38.6764   -9.9081 C   0  0  0  0  0  0  0  0  0  0  0  0
  -22.8806  -39.5843   -9.1998 C   0  0  0  0  0  0  0  0  0  0  0  0
  -22.2697  -40.6495   -8.5051 C   0  0  0  0  0  0  0  0  0  0  0  0
  -18.5923  -39.8148   -9.5162 C   0  0  0  0  0  0  0  0  0  0  0  0
  -18.1604  -40.9247  -10.5116 C   0  0  0  0  0  0  0  0  0  0  0  0
  -17.3925  -41.3835   -8.4266 C   0  0  0  0  0  0  0  0  0  0  0  0
  -17.8849  -40.1985   -8.2862 N   0  0  0  0  0  0  0  0  0  0  0  0
  -17.7975  -35.9556   -9.0434 C   0  0  0  0  0  0  0  0  0  0  0  0
  -18.1501  -37.4179   -8.7002 C   0  0  0  0  0  0  0  0  0  0  0  0
  -20.8688  -40.8021   -8.5731 C   0  0  0  0  0  0  0  0  0  0  0  0
  -20.0880  -39.8970   -9.2962 C   0  0  0  0  0  0  0  0  0  0  0  0
  -17.6130  -41.9389   -9.6288 O   0  0  0  0  0  0  0  0  0  0  0  0
  -16.6993  -42.0041   -7.4248 N   0  0  0  0  0  0  0  0  0  0  0  0
  -16.3365  -42.9086   -7.5643 H   0  0  0  0  0  0  0  0  0  0  0  0
  -16.5629  -41.5465   -6.5638 H   0  0  0  0  0  0  0  0  0  0  0  0
  -23.5198  -43.0420   -5.9103 N   0  0  0  0  0  0  0  0  0  0  0  0
  -22.7161  -42.1797   -6.5313 C   0  0  0  0  0  0  0  0  0  0  0  0
  -23.0845  -41.6828   -7.7988 C   0  0  0  0  0  0  0  0  0  0  0  0
  -24.3325  -42.1008   -8.2992 C   0  0  0  0  0  0  0  0  0  0  0  0
  -25.0863  -42.9506   -7.6106 N   0  0  0  0  0  0  0  0  0  0  0  0
  -24.6754  -43.4238   -6.4417 C   0  0  0  0  0  0  0  0  0  0  0  0
  -17.2592  -33.5482   -9.7512 C   0  0  0  0  0  0  0  0  0  0  0  0
  -16.3246  -34.4996  -10.2894 O   0  0  0  0  0  0  0  0  0  0  0  0
  5  4  1  0  0  0
 30 29  1  0  0  0
 30  1  1  0  0  0
  4  1  1  0  0  0
  4  3  1  0  0  0
  1 15  1  0  0  0
  3  2  1  0  0  0
  6  2  1  0  0  0
  6  7  1  0  0  0
 15 16  1  0  0  0
  2 16  1  0  0  0
  2 11  1  0  0  0
  7  8  2  0  0  0
  7 18  1  0  0  0
 12 11  1  0  0  0
 12 19  1  0  0  0
  8  9  1  0  0  0
 11 18  1  0  0  0
 11 14  1  0  0  0
 18 17  2  0  0  0
  9 10  2  0  0  0
 19 13  1  0  0  0
 14 13  2  0  0  0
 17 10  1  0  0  0
 13 20  1  0  0  0
 10 25  1  0  0  0
 24 25  2  0  0  0
 24 23  1  0  0  0
 25 26  1  0  0  0
 23 28  2  0  0  0
 26 27  2  0  0  0
 28 27  1  0  0  0
 20 21  1  0  0  0
 20 22  1  0  0  0
M  END
> <minimizedAffinity>
-9.36997

$$$$
6EJ2_B7E_A_901


 30 34  0  0  0  0  0  0  0  0999 V2000
  -14.4958  -43.1016   -9.3464 C   0  0  0  0  0  0  0  0  0  0  0  0
  -16.1272  -40.6440   -9.9903 C   0  0  0  0  0  0  0  0  0  0  0  0
  -16.6870  -42.0760  -10.1523 C   0  0  0  0  0  0  0  0  0  0  0  0
  -15.6141  -43.1614  -10.4070 C   0  0  0  0  0  0  0  0  0  0  0  0
  -16.3102  -44.5345  -10.3969 C   0  0  0  0  0  0  0  0  0  0  0  0
  -15.6450  -40.0823  -11.3619 C   0  0  0  0  0  0  0  0  0  0  0  0
  -15.8278  -38.5739  -11.2553 C   0  0  0  0  0  0  0  0  0  0  0  0
  -15.2462  -37.5364  -11.9938 C   0  0  0  0  0  0  0  0  0  0  0  0
  -15.5720  -36.2098  -11.7226 C   0  0  0  0  0  0  0  0  0  0  0  0
  -16.4735  -35.9050  -10.6810 C   0  0  0  0  0  0  0  0  0  0  0  0
  -17.2105  -39.5870   -9.6124 C   0  0  0  0  0  0  0  0  0  0  0  0
  -18.6667  -39.8794  -10.0630 C   0  0  0  0  0  0  0  0  0  0  0  0
  -18.6086  -39.3419   -7.8595 C   0  0  0  0  0  0  0  0  0  0  0  0
  -17.3554  -39.4181   -8.1595 N   0  0  0  0  0  0  0  0  0  0  0  0
  -13.8658  -41.6946   -9.2656 C   0  0  0  0  0  0  0  0  0  0  0  0
  -14.9409  -40.6223   -8.9925 C   0  0  0  0  0  0  0  0  0  0  0  0
  -17.0656  -36.9584   -9.9528 C   0  0  0  0  0  0  0  0  0  0  0  0
  -16.7465  -38.2884  -10.2373 C   0  0  0  0  0  0  0  0  0  0  0  0
  -19.4398  -39.4635   -8.9067 O   0  0  0  0  0  0  0  0  0  0  0  0
  -19.0368  -39.1597   -6.5739 N   0  0  0  0  0  0  0  0  0  0  0  0
  -20.0003  -39.1058   -6.3790 H   0  0  0  0  0  0  0  0  0  0  0  0
  -18.3816  -39.0823   -5.8432 H   0  0  0  0  0  0  0  0  0  0  0  0
  -18.4614  -32.9368   -9.5594 N   0  0  0  0  0  0  0  0  0  0  0  0
  -18.1606  -34.2015   -9.8514 C   0  0  0  0  0  0  0  0  0  0  0  0
  -16.9018  -34.4995  -10.4131 C   0  0  0  0  0  0  0  0  0  0  0  0
  -16.0133  -33.4190  -10.5732 C   0  0  0  0  0  0  0  0  0  0  0  0
  -16.3814  -32.1866  -10.2409 N   0  0  0  0  0  0  0  0  0  0  0  0
  -17.5935  -31.9512   -9.7565 C   0  0  0  0  0  0  0  0  0  0  0  0
  -12.1124  -43.6680   -9.2894 C   0  0  0  0  0  0  0  0  0  0  0  0
  -13.4475  -44.0399   -9.6734 O   0  0  0  0  0  0  0  0  0  0  0  0
  5  4  1  0  0  0
 30 29  1  0  0  0
 30  1  1  0  0  0
  4  1  1  0  0  0
  4  3  1  0  0  0
  1 15  1  0  0  0
  3  2  1  0  0  0
  6  2  1  0  0  0
  6  7  1  0  0  0
 15 16  1  0  0  0
  2 16  1  0  0  0
  2 11  1  0  0  0
  7  8  2  0  0  0
  7 18  1  0  0  0
 12 11  1  0  0  0
 12 19  1  0  0  0
  8  9  1  0  0  0
 11 18  1  0  0  0
 11 14  1  0  0  0
 18 17  2  0  0  0
  9 10  2  0  0  0
 19 13  1  0  0  0
 14 13  2  0  0  0
 17 10  1  0  0  0
 13 20  1  0  0  0
 10 25  1  0  0  0
 24 25  2  0  0  0
 24 23  1  0  0  0
 25 26  1  0  0  0
 23 28  2  0  0  0
 26 27  2  0  0  0
 28 27  1  0  0  0
 20 21  1  0  0  0
 20 22  1  0  0  0
M  END
> <minimizedAffinity>
-9.35030

$$$$
6EJ2_B7E_A_901


 30 34  0  0  0  0  0  0  0  0999 V2000
  -12.1369  -42.1796  -10.9615 C   0  0  0  0  0  0  0  0  0  0  0  0
  -14.4137  -40.2133  -10.7056 C   0  0  0  0  0  0  0  0  0  0  0  0
  -14.6396  -41.7422  -10.7423 C   0  0  0  0  0  0  0  0  0  0  0  0
  -13.5417  -42.5373  -11.4885 C   0  0  0  0  0  0  0  0  0  0  0  0
  -13.8319  -44.0384  -11.3090 C   0  0  0  0  0  0  0  0  0  0  0  0
  -14.6760  -39.5836  -12.1070 C   0  0  0  0  0  0  0  0  0  0  0  0
  -15.1464  -38.1639  -11.8184 C   0  0  0  0  0  0  0  0  0  0  0  0
  -15.1749  -37.0335  -12.6439 C   0  0  0  0  0  0  0  0  0  0  0  0
  -15.6624  -35.8211  -12.1621 C   0  0  0  0  0  0  0  0  0  0  0  0
  -16.1070  -35.7217  -10.8268 C   0  0  0  0  0  0  0  0  0  0  0  0
  -15.4640  -39.4454   -9.8450 C   0  0  0  0  0  0  0  0  0  0  0  0
  -16.8652  -40.0966   -9.6981 C   0  0  0  0  0  0  0  0  0  0  0  0
  -16.0444  -39.5085   -7.6663 C   0  0  0  0  0  0  0  0  0  0  0  0
  -15.0413  -39.2823   -8.4467 N   0  0  0  0  0  0  0  0  0  0  0  0
  -11.8761  -40.6596  -11.0290 C   0  0  0  0  0  0  0  0  0  0  0  0
  -12.9654  -39.8774  -10.2661 C   0  0  0  0  0  0  0  0  0  0  0  0
  -16.0882  -36.8704  -10.0077 C   0  0  0  0  0  0  0  0  0  0  0  0
  -15.6113  -38.0880  -10.4993 C   0  0  0  0  0  0  0  0  0  0  0  0
  -17.1757  -39.8553   -8.3006 O   0  0  0  0  0  0  0  0  0  0  0  0
  -15.9430  -39.4060   -6.3068 N   0  0  0  0  0  0  0  0  0  0  0  0
  -16.7276  -39.5854   -5.7397 H   0  0  0  0  0  0  0  0  0  0  0  0
  -15.0854  -39.1528   -5.8948 H   0  0  0  0  0  0  0  0  0  0  0  0
  -16.6231  -32.1191   -9.9470 N   0  0  0  0  0  0  0  0  0  0  0  0
  -16.0133  -33.2302  -10.3578 C   0  0  0  0  0  0  0  0  0  0  0  0
  -16.7047  -34.4582  -10.3008 C   0  0  0  0  0  0  0  0  0  0  0  0
  -18.0402  -34.4076   -9.8576 C   0  0  0  0  0  0  0  0  0  0  0  0
  -18.5840  -33.2555   -9.4812 N   0  0  0  0  0  0  0  0  0  0  0  0
  -17.8777  -32.1332   -9.5120 C   0  0  0  0  0  0  0  0  0  0  0  0
  -11.0601  -42.4769  -13.1425 C   0  0  0  0  0  0  0  0  0  0  0  0
  -11.1245  -42.8399  -11.7523 O   0  0  0  0  0  0  0  0  0  0  0  0
  5  4  1  0  0  0
 30 29  1  0  0  0
 30  1  1  0  0  0
  4  1  1  0  0  0
  4  3  1  0  0  0
  1 15  1  0  0  0
  3  2  1  0  0  0
  6  2  1  0  0  0
  6  7  1  0  0  0
 15 16  1  0  0  0
  2 16  1  0  0  0
  2 11  1  0  0  0
  7  8  2  0  0  0
  7 18  1  0  0  0
 12 11  1  0  0  0
 12 19  1  0  0  0
  8  9  1  0  0  0
 11 18  1  0  0  0
 11 14  1  0  0  0
 18 17  2  0  0  0
  9 10  2  0  0  0
 19 13  1  0  0  0
 14 13  2  0  0  0
 17 10  1  0  0  0
 13 20  1  0  0  0
 10 25  1  0  0  0
 24 25  2  0  0  0
 24 23  1  0  0  0
 25 26  1  0  0  0
 23 28  2  0  0  0
 26 27  2  0  0  0
 28 27  1  0  0  0
 20 21  1  0  0  0
 20 22  1  0  0  0
M  END
> <minimizedAffinity>
-9.33627

$$$$
6EJ2_B7E_A_901


 30 34  0  0  0  0  0  0  0  0999 V2000
  -22.3956  -40.5629   -9.0731 C   0  0  0  0  0  0  0  0  0  0  0  0
  -19.4755  -39.7960   -9.0974 C   0  0  0  0  0  0  0  0  0  0  0  0
  -20.2911  -39.9110   -7.7891 C   0  0  0  0  0  0  0  0  0  0  0  0
  -21.8112  -39.6749   -7.9555 C   0  0  0  0  0  0  0  0  0  0  0  0
  -22.4919  -39.9680   -6.6062 C   0  0  0  0  0  0  0  0  0  0  0  0
  -19.3642  -38.3083   -9.5487 C   0  0  0  0  0  0  0  0  0  0  0  0
  -18.0444  -38.2244  -10.3045 C   0  0  0  0  0  0  0  0  0  0  0  0
  -17.5895  -37.2784  -11.2308 C   0  0  0  0  0  0  0  0  0  0  0  0
  -16.3236  -37.4001  -11.7985 C   0  0  0  0  0  0  0  0  0  0  0  0
  -15.5024  -38.4961  -11.4596 C   0  0  0  0  0  0  0  0  0  0  0  0
  -17.9675  -40.1584   -8.9293 C   0  0  0  0  0  0  0  0  0  0  0  0
  -17.3449  -39.9456   -7.5236 C   0  0  0  0  0  0  0  0  0  0  0  0
  -16.8712  -42.0253   -8.2968 C   0  0  0  0  0  0  0  0  0  0  0  0
  -17.6937  -41.5795   -9.1862 N   0  0  0  0  0  0  0  0  0  0  0  0
  -21.6449  -40.3627  -10.4070 C   0  0  0  0  0  0  0  0  0  0  0  0
  -20.1334  -40.6190  -10.2347 C   0  0  0  0  0  0  0  0  0  0  0  0
  -15.9641  -39.4357  -10.5139 C   0  0  0  0  0  0  0  0  0  0  0  0
  -17.2292  -39.3023   -9.9364 C   0  0  0  0  0  0  0  0  0  0  0  0
  -16.5077  -41.1220   -7.3726 O   0  0  0  0  0  0  0  0  0  0  0  0
  -16.4230  -43.3169   -8.3063 N   0  0  0  0  0  0  0  0  0  0  0  0
  -15.7956  -43.6253   -7.6130 H   0  0  0  0  0  0  0  0  0  0  0  0
  -16.7276  -43.9386   -9.0063 H   0  0  0  0  0  0  0  0  0  0  0  0
  -11.7710  -38.3700  -11.7439 N   0  0  0  0  0  0  0  0  0  0  0  0
  -12.9950  -38.1667  -11.2581 C   0  0  0  0  0  0  0  0  0  0  0  0
  -14.1121  -38.6168  -11.9918 C   0  0  0  0  0  0  0  0  0  0  0  0
  -13.8413  -39.3157  -13.1837 C   0  0  0  0  0  0  0  0  0  0  0  0
  -12.5901  -39.4937  -13.5932 N   0  0  0  0  0  0  0  0  0  0  0  0
  -11.5741  -39.0129  -12.8890 C   0  0  0  0  0  0  0  0  0  0  0  0
  -24.6906  -41.3490   -9.4193 C   0  0  0  0  0  0  0  0  0  0  0  0
  -23.7859  -40.2383   -9.2923 O   0  0  0  0  0  0  0  0  0  0  0  0
  5  4  1  0  0  0
 30 29  1  0  0  0
 30  1  1  0  0  0
  4  1  1  0  0  0
  4  3  1  0  0  0
  1 15  1  0  0  0
  3  2  1  0  0  0
  6  2  1  0  0  0
  6  7  1  0  0  0
 15 16  1  0  0  0
  2 16  1  0  0  0
  2 11  1  0  0  0
  7  8  2  0  0  0
  7 18  1  0  0  0
 12 11  1  0  0  0
 12 19  1  0  0  0
  8  9  1  0  0  0
 11 18  1  0  0  0
 11 14  1  0  0  0
 18 17  2  0  0  0
  9 10  2  0  0  0
 19 13  1  0  0  0
 14 13  2  0  0  0
 17 10  1  0  0  0
 13 20  1  0  0  0
 10 25  1  0  0  0
 24 25  2  0  0  0
 24 23  1  0  0  0
 25 26  1  0  0  0
 23 28  2  0  0  0
 26 27  2  0  0  0
 28 27  1  0  0  0
 20 21  1  0  0  0
 20 22  1  0  0  0
M  END
> <minimizedAffinity>
-8.90344

$$$$
