5ZAF_28I_U_301


 31 33  0  0  0  0  0  0  0  0999 V2000
    0.2152   31.6418   25.5868 C   0  0  0  0  0  0  0  0  0  0  0  0
    0.5344   32.7366   26.3992 C   0  0  0  0  0  0  0  0  0  0  0  0
   -1.5500   33.3007   22.8960 N   0  0  0  0  0  0  0  0  0  0  0  0
   -0.8658   33.1317   24.0615 C   0  0  0  0  0  0  0  0  0  0  0  0
   -0.5472   34.1962   24.8933 C   0  0  0  0  0  0  0  0  0  0  0  0
   -0.4683   31.8903   24.4267 N   0  0  0  0  0  0  0  0  0  0  0  0
    0.1362   33.9724   26.0374 N   0  0  0  0  0  0  0  0  0  0  0  0
   -1.7587   32.5224   22.3304 H   0  0  0  0  0  0  0  0  0  0  0  0
   -1.8358   34.2012   22.6191 H   0  0  0  0  0  0  0  0  0  0  0  0
   -0.3164   29.3059   26.3046 C   0  0  0  0  0  0  0  0  0  0  0  0
   -0.3893   28.2510   25.1934 C   0  0  0  0  0  0  0  0  0  0  0  0
    2.0101   27.4174   25.1403 C   0  0  0  0  0  0  0  0  0  0  0  0
    0.6324   30.3136   25.8317 N   0  0  0  0  0  0  0  0  0  0  0  0
    2.0020   29.9269   25.4064 C   0  0  0  0  0  0  0  0  0  0  0  0
    2.4912   28.5966   25.9777 C   0  0  0  0  0  0  0  0  0  0  0  0
    0.5574   27.0781   25.4501 C   0  0  0  0  0  0  0  0  0  0  0  0
    1.6356   32.4827   29.8940 C   0  0  0  0  0  0  0  0  0  0  0  0
    2.6101   32.8016   27.9238 C   0  0  0  0  0  0  0  0  0  0  0  0
    1.2421   32.6999   27.7083 C   0  0  0  0  0  0  0  0  0  0  0  0
    0.6525   32.4866   28.9263 C   0  0  0  0  0  0  0  0  0  0  0  0
    2.8465   32.6746   29.2730 O   0  0  0  0  0  0  0  0  0  0  0  0
   -0.8582   36.0232   23.4525 O   0  0  0  0  0  0  0  0  0  0  0  0
   -0.8988   35.6124   24.6006 C   0  0  0  0  0  0  0  0  0  0  0  0
   -1.1580   36.3446   25.6918 N   0  0  0  0  0  0  0  0  0  0  0  0
   -1.0929   35.8801   26.5573 H   0  0  0  0  0  0  0  0  0  0  0  0
   -1.2606   38.3546   26.8162 N   0  0  0  0  0  0  0  0  0  0  0  0
   -1.4928   37.6273   25.7333 C   0  0  0  0  0  0  0  0  0  0  0  0
   -2.0517   38.1281   24.7209 N   0  0  0  0  0  0  0  0  0  0  0  0
   -0.8229   37.9472   27.5983 H   0  0  0  0  0  0  0  0  0  0  0  0
   -2.3120   39.0775   24.7215 H   0  0  0  0  0  0  0  0  0  0  0  0
   -2.2279   37.5699   23.9293 H   0  0  0  0  0  0  0  0  0  0  0  0
  3  4  1  0  0  0
 22 23  2  0  0  0
 26 27  2  0  0  0
  4  6  2  0  0  0
  4  5  1  0  0  0
 23  5  1  0  0  0
 23 24  1  0  0  0
  6  1  1  0  0  0
  5  7  2  0  0  0
 27 24  1  0  0  0
 27 28  1  0  0  0
 11 10  1  0  0  0
 11 16  1  0  0  0
 10 13  1  0  0  0
  1 13  1  0  0  0
  1  2  2  0  0  0
  7  2  1  0  0  0
 16 12  1  0  0  0
 13 14  1  0  0  0
  2 19  1  0  0  0
 14 15  1  0  0  0
 12 15  1  0  0  0
 19 18  2  0  0  0
 19 20  1  0  0  0
 18 21  1  0  0  0
 20 17  2  0  0  0
 21 17  1  0  0  0
 26 29  1  0  0  0
  3  8  1  0  0  0
  3  9  1  0  0  0
 24 25  1  0  0  0
 28 30  1  0  0  0
 28 31  1  0  0  0
M  END
> <minimizedAffinity>
-8.98883

$$$$
5ZAF_28I_U_301


 31 33  0  0  0  0  0  0  0  0999 V2000
   -0.2772   31.8040   26.2992 C   0  0  0  0  0  0  0  0  0  0  0  0
   -0.8920   32.7545   27.1232 C   0  0  0  0  0  0  0  0  0  0  0  0
   -0.0367   33.6630   23.2017 N   0  0  0  0  0  0  0  0  0  0  0  0
   -0.3322   33.3774   24.5002 C   0  0  0  0  0  0  0  0  0  0  0  0
   -0.9533   34.2946   25.3366 C   0  0  0  0  0  0  0  0  0  0  0  0
   -0.0046   32.1656   25.0070 N   0  0  0  0  0  0  0  0  0  0  0  0
   -1.2211   33.9600   26.6181 N   0  0  0  0  0  0  0  0  0  0  0  0
    0.4045   32.9878   22.6373 H   0  0  0  0  0  0  0  0  0  0  0  0
   -0.2643   34.5448   22.8275 H   0  0  0  0  0  0  0  0  0  0  0  0
   -0.3627   29.3099   26.1364 C   0  0  0  0  0  0  0  0  0  0  0  0
    0.8312   28.6297   25.4545 C   0  0  0  0  0  0  0  0  0  0  0  0
    2.3561   28.1939   27.4393 C   0  0  0  0  0  0  0  0  0  0  0  0
    0.1682   30.5347   26.7338 N   0  0  0  0  0  0  0  0  0  0  0  0
    1.3257   30.4866   27.6635 C   0  0  0  0  0  0  0  0  0  0  0  0
    1.5472   29.1294   28.3302 C   0  0  0  0  0  0  0  0  0  0  0  0
    1.4843   27.5781   26.3519 C   0  0  0  0  0  0  0  0  0  0  0  0
   -1.3899   32.7810   30.7622 C   0  0  0  0  0  0  0  0  0  0  0  0
   -2.3926   31.8506   29.0123 C   0  0  0  0  0  0  0  0  0  0  0  0
   -1.3034   32.5724   28.5422 C   0  0  0  0  0  0  0  0  0  0  0  0
   -0.7024   33.1556   29.6264 C   0  0  0  0  0  0  0  0  0  0  0  0
   -2.4369   31.9762   30.3815 O   0  0  0  0  0  0  0  0  0  0  0  0
   -1.6175   35.8924   23.7503 O   0  0  0  0  0  0  0  0  0  0  0  0
   -1.3431   35.6686   24.9178 C   0  0  0  0  0  0  0  0  0  0  0  0
   -1.2703   36.5770   25.8994 N   0  0  0  0  0  0  0  0  0  0  0  0
   -0.9748   36.2491   26.7794 H   0  0  0  0  0  0  0  0  0  0  0  0
   -1.3120   38.6852   26.8314 N   0  0  0  0  0  0  0  0  0  0  0  0
   -1.5530   37.8700   25.8150 C   0  0  0  0  0  0  0  0  0  0  0  0
   -2.0713   38.2961   24.7483 N   0  0  0  0  0  0  0  0  0  0  0  0
   -0.9065   38.3353   27.6575 H   0  0  0  0  0  0  0  0  0  0  0  0
   -2.2925   39.2509   24.6556 H   0  0  0  0  0  0  0  0  0  0  0  0
   -2.2551   37.6741   24.0076 H   0  0  0  0  0  0  0  0  0  0  0  0
  3  4  1  0  0  0
 22 23  2  0  0  0
 26 27  2  0  0  0
  4  6  2  0  0  0
  4  5  1  0  0  0
 23  5  1  0  0  0
 23 24  1  0  0  0
  6  1  1  0  0  0
  5  7  2  0  0  0
 27 24  1  0  0  0
 27 28  1  0  0  0
 11 10  1  0  0  0
 11 16  1  0  0  0
 10 13  1  0  0  0
  1 13  1  0  0  0
  1  2  2  0  0  0
  7  2  1  0  0  0
 16 12  1  0  0  0
 13 14  1  0  0  0
  2 19  1  0  0  0
 14 15  1  0  0  0
 12 15  1  0  0  0
 19 18  2  0  0  0
 19 20  1  0  0  0
 18 21  1  0  0  0
 20 17  2  0  0  0
 21 17  1  0  0  0
 26 29  1  0  0  0
  3  8  1  0  0  0
  3  9  1  0  0  0
 24 25  1  0  0  0
 28 30  1  0  0  0
 28 31  1  0  0  0
M  END
> <minimizedAffinity>
-8.81570

$$$$
5ZAF_28I_U_301


 31 33  0  0  0  0  0  0  0  0999 V2000
    1.0345   31.0905   26.2674 C   0  0  0  0  0  0  0  0  0  0  0  0
    1.4333   32.3560   26.7145 C   0  0  0  0  0  0  0  0  0  0  0  0
   -1.3591   32.0103   23.7114 N   0  0  0  0  0  0  0  0  0  0  0  0
   -0.4405   32.1432   24.7082 C   0  0  0  0  0  0  0  0  0  0  0  0
   -0.0361   33.3840   25.1809 C   0  0  0  0  0  0  0  0  0  0  0  0
    0.1120   31.0360   25.2570 N   0  0  0  0  0  0  0  0  0  0  0  0
    0.8812   33.4586   26.1703 N   0  0  0  0  0  0  0  0  0  0  0  0
   -1.6224   31.1139   23.4010 H   0  0  0  0  0  0  0  0  0  0  0  0
   -1.7598   32.8106   23.3013 H   0  0  0  0  0  0  0  0  0  0  0  0
    2.8566   29.3797   26.1808 C   0  0  0  0  0  0  0  0  0  0  0  0
    3.8288   29.3583   27.3670 C   0  0  0  0  0  0  0  0  0  0  0  0
    2.6896   27.6962   28.9144 C   0  0  0  0  0  0  0  0  0  0  0  0
    1.5878   29.8702   26.7181 N   0  0  0  0  0  0  0  0  0  0  0  0
    0.9512   29.2091   27.8860 C   0  0  0  0  0  0  0  0  0  0  0  0
    1.3934   27.7644   28.1154 C   0  0  0  0  0  0  0  0  0  0  0  0
    3.8973   27.9825   28.0305 C   0  0  0  0  0  0  0  0  0  0  0  0
    3.3069   32.7934   29.8432 C   0  0  0  0  0  0  0  0  0  0  0  0
    3.6923   33.1295   27.6818 C   0  0  0  0  0  0  0  0  0  0  0  0
    2.3947   32.6525   27.8116 C   0  0  0  0  0  0  0  0  0  0  0  0
    2.1729   32.4326   29.1455 C   0  0  0  0  0  0  0  0  0  0  0  0
    4.2474   33.2216   28.9371 O   0  0  0  0  0  0  0  0  0  0  0  0
   -0.5424   34.8838   23.4475 O   0  0  0  0  0  0  0  0  0  0  0  0
   -0.5415   34.6794   24.6503 C   0  0  0  0  0  0  0  0  0  0  0  0
   -0.8845   35.5590   25.6003 N   0  0  0  0  0  0  0  0  0  0  0  0
   -0.7716   35.2639   26.5327 H   0  0  0  0  0  0  0  0  0  0  0  0
   -1.0025   37.5040   24.3682 N   0  0  0  0  0  0  0  0  0  0  0  0
   -1.3597   36.7843   25.4218 C   0  0  0  0  0  0  0  0  0  0  0  0
   -2.1462   37.2485   26.2903 N   0  0  0  0  0  0  0  0  0  0  0  0
   -0.3872   37.1257   23.6993 H   0  0  0  0  0  0  0  0  0  0  0  0
   -2.5155   38.1551   26.1856 H   0  0  0  0  0  0  0  0  0  0  0  0
   -2.3912   36.7046   27.0734 H   0  0  0  0  0  0  0  0  0  0  0  0
  3  4  1  0  0  0
 22 23  2  0  0  0
 26 27  2  0  0  0
  4  6  2  0  0  0
  4  5  1  0  0  0
 23  5  1  0  0  0
 23 24  1  0  0  0
  6  1  1  0  0  0
  5  7  2  0  0  0
 27 24  1  0  0  0
 27 28  1  0  0  0
 11 10  1  0  0  0
 11 16  1  0  0  0
 10 13  1  0  0  0
  1 13  1  0  0  0
  1  2  2  0  0  0
  7  2  1  0  0  0
 16 12  1  0  0  0
 13 14  1  0  0  0
  2 19  1  0  0  0
 14 15  1  0  0  0
 12 15  1  0  0  0
 19 18  2  0  0  0
 19 20  1  0  0  0
 18 21  1  0  0  0
 20 17  2  0  0  0
 21 17  1  0  0  0
 26 29  1  0  0  0
  3  8  1  0  0  0
  3  9  1  0  0  0
 24 25  1  0  0  0
 28 30  1  0  0  0
 28 31  1  0  0  0
M  END
> <minimizedAffinity>
-8.00976

$$$$
5ZAF_28I_U_301


 31 33  0  0  0  0  0  0  0  0999 V2000
    0.2703   31.7320   27.4740 C   0  0  0  0  0  0  0  0  0  0  0  0
   -0.4185   32.8013   28.0592 C   0  0  0  0  0  0  0  0  0  0  0  0
    0.3487   32.8020   24.0161 N   0  0  0  0  0  0  0  0  0  0  0  0
    0.0812   32.8156   25.3515 C   0  0  0  0  0  0  0  0  0  0  0  0
   -0.6112   33.8552   25.9568 C   0  0  0  0  0  0  0  0  0  0  0  0
    0.5088   31.7917   26.1270 N   0  0  0  0  0  0  0  0  0  0  0  0
   -0.8471   33.8194   27.2868 N   0  0  0  0  0  0  0  0  0  0  0  0
    0.8425   32.0478   23.6206 H   0  0  0  0  0  0  0  0  0  0  0  0
    0.0483   33.5466   23.4463 H   0  0  0  0  0  0  0  0  0  0  0  0
    2.2295   30.6410   28.5812 C   0  0  0  0  0  0  0  0  0  0  0  0
    2.2349   30.6444   30.1151 C   0  0  0  0  0  0  0  0  0  0  0  0
    1.0521   28.4537   30.6218 C   0  0  0  0  0  0  0  0  0  0  0  0
    0.8200   30.6446   28.1907 N   0  0  0  0  0  0  0  0  0  0  0  0
   -0.1133   29.6099   28.7052 C   0  0  0  0  0  0  0  0  0  0  0  0
    0.5644   28.3264   29.1834 C   0  0  0  0  0  0  0  0  0  0  0  0
    2.3587   29.2344   30.6934 C   0  0  0  0  0  0  0  0  0  0  0  0
   -1.9961   32.8255   31.3761 C   0  0  0  0  0  0  0  0  0  0  0  0
   -0.0049   33.3486   30.5425 C   0  0  0  0  0  0  0  0  0  0  0  0
   -0.8097   32.9349   29.4893 C   0  0  0  0  0  0  0  0  0  0  0  0
   -2.0289   32.5987   30.0157 C   0  0  0  0  0  0  0  0  0  0  0  0
   -0.7429   33.2866   31.7017 O   0  0  0  0  0  0  0  0  0  0  0  0
   -1.4242   34.9614   24.0527 O   0  0  0  0  0  0  0  0  0  0  0  0
   -1.1140   35.0521   25.2291 C   0  0  0  0  0  0  0  0  0  0  0  0
   -1.0963   36.1770   25.9560 N   0  0  0  0  0  0  0  0  0  0  0  0
   -0.7617   36.0980   26.8785 H   0  0  0  0  0  0  0  0  0  0  0  0
   -1.0642   37.8938   24.4176 N   0  0  0  0  0  0  0  0  0  0  0  0
   -1.4806   37.3858   25.5684 C   0  0  0  0  0  0  0  0  0  0  0  0
   -2.2382   38.0415   26.3327 N   0  0  0  0  0  0  0  0  0  0  0  0
   -0.4726   37.3676   23.8326 H   0  0  0  0  0  0  0  0  0  0  0  0
   -2.5404   38.9416   26.0726 H   0  0  0  0  0  0  0  0  0  0  0  0
   -2.5279   37.6536   27.1899 H   0  0  0  0  0  0  0  0  0  0  0  0
  3  4  1  0  0  0
 22 23  2  0  0  0
 26 27  2  0  0  0
  4  6  2  0  0  0
  4  5  1  0  0  0
 23  5  1  0  0  0
 23 24  1  0  0  0
  6  1  1  0  0  0
  5  7  2  0  0  0
 27 24  1  0  0  0
 27 28  1  0  0  0
 11 10  1  0  0  0
 11 16  1  0  0  0
 10 13  1  0  0  0
  1 13  1  0  0  0
  1  2  2  0  0  0
  7  2  1  0  0  0
 16 12  1  0  0  0
 13 14  1  0  0  0
  2 19  1  0  0  0
 14 15  1  0  0  0
 12 15  1  0  0  0
 19 18  2  0  0  0
 19 20  1  0  0  0
 18 21  1  0  0  0
 20 17  2  0  0  0
 21 17  1  0  0  0
 26 29  1  0  0  0
  3  8  1  0  0  0
  3  9  1  0  0  0
 24 25  1  0  0  0
 28 30  1  0  0  0
 28 31  1  0  0  0
M  END
> <minimizedAffinity>
-7.68706

$$$$
5ZAF_28I_U_301


 31 33  0  0  0  0  0  0  0  0999 V2000
    1.0928   30.8025   26.4764 C   0  0  0  0  0  0  0  0  0  0  0  0
    0.2019   31.1962   25.4706 C   0  0  0  0  0  0  0  0  0  0  0  0
    1.1789   27.2248   25.9276 N   0  0  0  0  0  0  0  0  0  0  0  0
    0.8399   28.5340   25.7658 C   0  0  0  0  0  0  0  0  0  0  0  0
   -0.0505   28.9520   24.7866 C   0  0  0  0  0  0  0  0  0  0  0  0
    1.3913   29.4698   26.5738 N   0  0  0  0  0  0  0  0  0  0  0  0
   -0.3497   30.2644   24.6679 N   0  0  0  0  0  0  0  0  0  0  0  0
    1.8142   26.9644   26.6332 H   0  0  0  0  0  0  0  0  0  0  0  0
    0.7886   26.5389   25.3391 H   0  0  0  0  0  0  0  0  0  0  0  0
    1.2074   32.0797   28.6235 C   0  0  0  0  0  0  0  0  0  0  0  0
    2.1788   31.5456   29.6836 C   0  0  0  0  0  0  0  0  0  0  0  0
    4.2977   32.8228   29.1059 C   0  0  0  0  0  0  0  0  0  0  0  0
    1.7783   31.6934   27.3335 N   0  0  0  0  0  0  0  0  0  0  0  0
    3.1725   32.0630   26.9786 C   0  0  0  0  0  0  0  0  0  0  0  0
    3.7307   33.2531   27.7581 C   0  0  0  0  0  0  0  0  0  0  0  0
    3.1874   32.6058   30.1266 C   0  0  0  0  0  0  0  0  0  0  0  0
   -1.2473   34.5712   25.4727 C   0  0  0  0  0  0  0  0  0  0  0  0
   -0.0200   33.3528   24.0789 C   0  0  0  0  0  0  0  0  0  0  0  0
   -0.2843   32.5769   25.1997 C   0  0  0  0  0  0  0  0  0  0  0  0
   -1.0266   33.3425   26.0596 C   0  0  0  0  0  0  0  0  0  0  0  0
   -0.6220   34.5781   24.2488 O   0  0  0  0  0  0  0  0  0  0  0  0
   -0.4737   28.1436   22.6237 O   0  0  0  0  0  0  0  0  0  0  0  0
   -0.7078   28.0348   23.8162 C   0  0  0  0  0  0  0  0  0  0  0  0
   -1.5922   27.1973   24.3734 N   0  0  0  0  0  0  0  0  0  0  0  0
   -1.7126   27.2713   25.3477 H   0  0  0  0  0  0  0  0  0  0  0  0
   -2.7831   26.4890   22.5308 N   0  0  0  0  0  0  0  0  0  0  0  0
   -2.3233   26.2792   23.7556 C   0  0  0  0  0  0  0  0  0  0  0  0
   -2.5806   25.2111   24.3729 N   0  0  0  0  0  0  0  0  0  0  0  0
   -2.5723   27.3293   22.0631 H   0  0  0  0  0  0  0  0  0  0  0  0
   -3.1210   24.5108   23.9408 H   0  0  0  0  0  0  0  0  0  0  0  0
   -2.2413   25.0770   25.2873 H   0  0  0  0  0  0  0  0  0  0  0  0
  3  4  1  0  0  0
 22 23  2  0  0  0
 26 27  2  0  0  0
  4  6  2  0  0  0
  4  5  1  0  0  0
 23  5  1  0  0  0
 23 24  1  0  0  0
  6  1  1  0  0  0
  5  7  2  0  0  0
 27 24  1  0  0  0
 27 28  1  0  0  0
 11 10  1  0  0  0
 11 16  1  0  0  0
 10 13  1  0  0  0
  1 13  1  0  0  0
  1  2  2  0  0  0
  7  2  1  0  0  0
 16 12  1  0  0  0
 13 14  1  0  0  0
  2 19  1  0  0  0
 14 15  1  0  0  0
 12 15  1  0  0  0
 19 18  2  0  0  0
 19 20  1  0  0  0
 18 21  1  0  0  0
 20 17  2  0  0  0
 21 17  1  0  0  0
 26 29  1  0  0  0
  3  8  1  0  0  0
  3  9  1  0  0  0
 24 25  1  0  0  0
 28 30  1  0  0  0
 28 31  1  0  0  0
M  END
> <minimizedAffinity>
-7.29801

$$$$
5ZAF_28I_U_301


 31 33  0  0  0  0  0  0  0  0999 V2000
   -0.3484   31.5600   28.5924 C   0  0  0  0  0  0  0  0  0  0  0  0
   -1.4488   32.4215   28.6772 C   0  0  0  0  0  0  0  0  0  0  0  0
    1.2165   32.7739   25.5615 N   0  0  0  0  0  0  0  0  0  0  0  0
    0.3214   32.6678   26.5826 C   0  0  0  0  0  0  0  0  0  0  0  0
   -0.7857   33.4987   26.6852 C   0  0  0  0  0  0  0  0  0  0  0  0
    0.5124   31.7315   27.5415 N   0  0  0  0  0  0  0  0  0  0  0  0
   -1.6410   33.3518   27.7210 N   0  0  0  0  0  0  0  0  0  0  0  0
    1.9908   32.1672   25.5206 H   0  0  0  0  0  0  0  0  0  0  0  0
    1.0893   33.4573   24.8644 H   0  0  0  0  0  0  0  0  0  0  0  0
   -0.2938   29.1742   29.3405 C   0  0  0  0  0  0  0  0  0  0  0  0
    1.0734   28.4798   29.3056 C   0  0  0  0  0  0  0  0  0  0  0  0
    1.9392   28.9673   31.6439 C   0  0  0  0  0  0  0  0  0  0  0  0
   -0.0118   30.5916   29.5657 N   0  0  0  0  0  0  0  0  0  0  0  0
    0.8104   31.0280   30.7233 C   0  0  0  0  0  0  0  0  0  0  0  0
    0.8663   30.0250   31.8749 C   0  0  0  0  0  0  0  0  0  0  0  0
    1.4600   27.9007   30.6669 C   0  0  0  0  0  0  0  0  0  0  0  0
   -4.3736   31.8467   30.8234 C   0  0  0  0  0  0  0  0  0  0  0  0
   -2.5449   33.1046   30.9064 C   0  0  0  0  0  0  0  0  0  0  0  0
   -2.5209   32.4005   29.7098 C   0  0  0  0  0  0  0  0  0  0  0  0
   -3.6432   31.6158   29.6761 C   0  0  0  0  0  0  0  0  0  0  0  0
   -3.6922   32.7655   31.5854 O   0  0  0  0  0  0  0  0  0  0  0  0
   -1.1777   34.3328   24.5263 O   0  0  0  0  0  0  0  0  0  0  0  0
   -1.1009   34.5846   25.7176 C   0  0  0  0  0  0  0  0  0  0  0  0
   -1.1926   35.7992   26.2748 N   0  0  0  0  0  0  0  0  0  0  0  0
   -1.0473   35.8477   27.2473 H   0  0  0  0  0  0  0  0  0  0  0  0
   -0.9786   37.1901   24.4488 N   0  0  0  0  0  0  0  0  0  0  0  0
   -1.4579   36.9436   25.6592 C   0  0  0  0  0  0  0  0  0  0  0  0
   -2.1638   37.7939   26.2649 N   0  0  0  0  0  0  0  0  0  0  0  0
   -0.4288   36.5145   23.9900 H   0  0  0  0  0  0  0  0  0  0  0  0
   -2.3777   38.6528   25.8340 H   0  0  0  0  0  0  0  0  0  0  0  0
   -2.5013   37.5992   27.1690 H   0  0  0  0  0  0  0  0  0  0  0  0
  3  4  1  0  0  0
 22 23  2  0  0  0
 26 27  2  0  0  0
  4  6  2  0  0  0
  4  5  1  0  0  0
 23  5  1  0  0  0
 23 24  1  0  0  0
  6  1  1  0  0  0
  5  7  2  0  0  0
 27 24  1  0  0  0
 27 28  1  0  0  0
 11 10  1  0  0  0
 11 16  1  0  0  0
 10 13  1  0  0  0
  1 13  1  0  0  0
  1  2  2  0  0  0
  7  2  1  0  0  0
 16 12  1  0  0  0
 13 14  1  0  0  0
  2 19  1  0  0  0
 14 15  1  0  0  0
 12 15  1  0  0  0
 19 18  2  0  0  0
 19 20  1  0  0  0
 18 21  1  0  0  0
 20 17  2  0  0  0
 21 17  1  0  0  0
 26 29  1  0  0  0
  3  8  1  0  0  0
  3  9  1  0  0  0
 24 25  1  0  0  0
 28 30  1  0  0  0
 28 31  1  0  0  0
M  END
> <minimizedAffinity>
-7.23940

$$$$
5ZAF_28I_U_301


 31 33  0  0  0  0  0  0  0  0999 V2000
    2.6557   31.6291   28.3107 C   0  0  0  0  0  0  0  0  0  0  0  0
    1.3145   32.0079   28.4457 C   0  0  0  0  0  0  0  0  0  0  0  0
    2.9139   31.3638   24.7091 N   0  0  0  0  0  0  0  0  0  0  0  0
    2.3666   31.5755   25.9382 C   0  0  0  0  0  0  0  0  0  0  0  0
    1.0371   31.9384   26.1035 C   0  0  0  0  0  0  0  0  0  0  0  0
    3.1374   31.4410   27.0429 N   0  0  0  0  0  0  0  0  0  0  0  0
    0.5459   32.1389   27.3463 N   0  0  0  0  0  0  0  0  0  0  0  0
    3.8611   31.1073   24.6295 H   0  0  0  0  0  0  0  0  0  0  0  0
    2.3623   31.4672   23.9002 H   0  0  0  0  0  0  0  0  0  0  0  0
    4.3608   32.6759   29.8111 C   0  0  0  0  0  0  0  0  0  0  0  0
    3.9130   32.9762   31.2470 C   0  0  0  0  0  0  0  0  0  0  0  0
    4.5630   30.8247   32.4315 C   0  0  0  0  0  0  0  0  0  0  0  0
    3.5701   31.5222   29.3833 N   0  0  0  0  0  0  0  0  0  0  0  0
    3.5567   30.2714   30.1844 C   0  0  0  0  0  0  0  0  0  0  0  0
    4.7622   30.0968   31.1073 C   0  0  0  0  0  0  0  0  0  0  0  0
    4.8242   32.3186   32.2838 C   0  0  0  0  0  0  0  0  0  0  0  0
   -0.4956   31.8615   31.6384 C   0  0  0  0  0  0  0  0  0  0  0  0
    0.3142   33.4590   30.3247 C   0  0  0  0  0  0  0  0  0  0  0  0
    0.5761   32.2379   29.7177 C   0  0  0  0  0  0  0  0  0  0  0  0
    0.0884   31.2595   30.5431 C   0  0  0  0  0  0  0  0  0  0  0  0
   -0.3530   33.2219   31.5041 O   0  0  0  0  0  0  0  0  0  0  0  0
   -0.3441   31.1849   24.3613 O   0  0  0  0  0  0  0  0  0  0  0  0
    0.0872   32.1460   24.9767 C   0  0  0  0  0  0  0  0  0  0  0  0
   -0.1435   33.4341   24.6909 N   0  0  0  0  0  0  0  0  0  0  0  0
    0.3274   34.0975   25.2453 H   0  0  0  0  0  0  0  0  0  0  0  0
   -1.2877   33.1631   22.7079 N   0  0  0  0  0  0  0  0  0  0  0  0
   -0.9372   33.9131   23.7424 C   0  0  0  0  0  0  0  0  0  0  0  0
   -1.3336   35.1049   23.8458 N   0  0  0  0  0  0  0  0  0  0  0  0
   -0.9689   32.2339   22.6430 H   0  0  0  0  0  0  0  0  0  0  0  0
   -1.9236   35.4889   23.1576 H   0  0  0  0  0  0  0  0  0  0  0  0
   -1.0532   35.6519   24.6148 H   0  0  0  0  0  0  0  0  0  0  0  0
  3  4  1  0  0  0
 22 23  2  0  0  0
 26 27  2  0  0  0
  4  6  2  0  0  0
  4  5  1  0  0  0
 23  5  1  0  0  0
 23 24  1  0  0  0
  6  1  1  0  0  0
  5  7  2  0  0  0
 27 24  1  0  0  0
 27 28  1  0  0  0
 11 10  1  0  0  0
 11 16  1  0  0  0
 10 13  1  0  0  0
  1 13  1  0  0  0
  1  2  2  0  0  0
  7  2  1  0  0  0
 16 12  1  0  0  0
 13 14  1  0  0  0
  2 19  1  0  0  0
 14 15  1  0  0  0
 12 15  1  0  0  0
 19 18  2  0  0  0
 19 20  1  0  0  0
 18 21  1  0  0  0
 20 17  2  0  0  0
 21 17  1  0  0  0
 26 29  1  0  0  0
  3  8  1  0  0  0
  3  9  1  0  0  0
 24 25  1  0  0  0
 28 30  1  0  0  0
 28 31  1  0  0  0
M  END
> <minimizedAffinity>
-7.13651

$$$$
5ZAF_28I_U_301


 31 33  0  0  0  0  0  0  0  0999 V2000
    1.2638   30.8364   25.9950 C   0  0  0  0  0  0  0  0  0  0  0  0
    1.6217   31.9310   26.7914 C   0  0  0  0  0  0  0  0  0  0  0  0
   -1.1633   32.3781   23.7948 N   0  0  0  0  0  0  0  0  0  0  0  0
   -0.2478   32.2468   24.7946 C   0  0  0  0  0  0  0  0  0  0  0  0
    0.1165   33.3106   25.6085 C   0  0  0  0  0  0  0  0  0  0  0  0
    0.3417   31.0465   25.0048 N   0  0  0  0  0  0  0  0  0  0  0  0
    1.0327   33.1256   26.5843 N   0  0  0  0  0  0  0  0  0  0  0  0
   -1.3977   31.6015   23.2369 H   0  0  0  0  0  0  0  0  0  0  0  0
   -1.5908   33.2495   23.6301 H   0  0  0  0  0  0  0  0  0  0  0  0
    1.0598   28.3824   26.4313 C   0  0  0  0  0  0  0  0  0  0  0  0
    1.1058   27.4652   25.2027 C   0  0  0  0  0  0  0  0  0  0  0  0
    3.5929   26.9718   25.0427 C   0  0  0  0  0  0  0  0  0  0  0  0
    1.8577   29.5564   26.0786 N   0  0  0  0  0  0  0  0  0  0  0  0
    3.2580   29.4089   25.6057 C   0  0  0  0  0  0  0  0  0  0  0  0
    3.9298   28.0980   26.0129 C   0  0  0  0  0  0  0  0  0  0  0  0
    2.2041   26.4073   25.3148 C   0  0  0  0  0  0  0  0  0  0  0  0
    4.2587   32.4947   29.2852 C   0  0  0  0  0  0  0  0  0  0  0  0
    2.5187   31.1311   29.0701 C   0  0  0  0  0  0  0  0  0  0  0  0
    2.5748   31.9287   27.9348 C   0  0  0  0  0  0  0  0  0  0  0  0
    3.6401   32.7768   28.0848 C   0  0  0  0  0  0  0  0  0  0  0  0
    3.5629   31.4787   29.8955 O   0  0  0  0  0  0  0  0  0  0  0  0
   -0.8808   35.2627   26.4481 O   0  0  0  0  0  0  0  0  0  0  0  0
   -0.4321   34.6871   25.4704 C   0  0  0  0  0  0  0  0  0  0  0  0
   -0.4501   35.1411   24.2104 N   0  0  0  0  0  0  0  0  0  0  0  0
   -0.1037   34.5312   23.5195 H   0  0  0  0  0  0  0  0  0  0  0  0
   -0.3214   36.9229   22.7532 N   0  0  0  0  0  0  0  0  0  0  0  0
   -0.8837   36.3226   23.7920 C   0  0  0  0  0  0  0  0  0  0  0  0
   -1.8329   36.8632   24.4204 N   0  0  0  0  0  0  0  0  0  0  0  0
    0.4192   36.4861   22.2738 H   0  0  0  0  0  0  0  0  0  0  0  0
   -2.1766   37.7402   24.1339 H   0  0  0  0  0  0  0  0  0  0  0  0
   -2.2307   36.4087   25.1978 H   0  0  0  0  0  0  0  0  0  0  0  0
  3  4  1  0  0  0
 22 23  2  0  0  0
 26 27  2  0  0  0
  4  6  2  0  0  0
  4  5  1  0  0  0
 23  5  1  0  0  0
 23 24  1  0  0  0
  6  1  1  0  0  0
  5  7  2  0  0  0
 27 24  1  0  0  0
 27 28  1  0  0  0
 11 10  1  0  0  0
 11 16  1  0  0  0
 10 13  1  0  0  0
  1 13  1  0  0  0
  1  2  2  0  0  0
  7  2  1  0  0  0
 16 12  1  0  0  0
 13 14  1  0  0  0
  2 19  1  0  0  0
 14 15  1  0  0  0
 12 15  1  0  0  0
 19 18  2  0  0  0
 19 20  1  0  0  0
 18 21  1  0  0  0
 20 17  2  0  0  0
 21 17  1  0  0  0
 26 29  1  0  0  0
  3  8  1  0  0  0
  3  9  1  0  0  0
 24 25  1  0  0  0
 28 30  1  0  0  0
 28 31  1  0  0  0
M  END
> <minimizedAffinity>
-7.13306

$$$$
5ZAF_28I_U_301


 31 33  0  0  0  0  0  0  0  0999 V2000
    0.3250   29.7136   24.9666 C   0  0  0  0  0  0  0  0  0  0  0  0
    1.1946   28.7305   25.4541 C   0  0  0  0  0  0  0  0  0  0  0  0
   -1.5294   27.8054   22.5113 N   0  0  0  0  0  0  0  0  0  0  0  0
   -0.6178   28.0954   23.4809 C   0  0  0  0  0  0  0  0  0  0  0  0
    0.2657   27.1450   23.9737 C   0  0  0  0  0  0  0  0  0  0  0  0
   -0.5690   29.3459   23.9968 N   0  0  0  0  0  0  0  0  0  0  0  0
    1.1483   27.4860   24.9385 N   0  0  0  0  0  0  0  0  0  0  0  0
   -2.1408   28.5048   22.1854 H   0  0  0  0  0  0  0  0  0  0  0  0
   -1.5769   26.8963   22.1364 H   0  0  0  0  0  0  0  0  0  0  0  0
    0.7842   32.1594   24.7180 C   0  0  0  0  0  0  0  0  0  0  0  0
   -0.4185   33.0477   24.3755 C   0  0  0  0  0  0  0  0  0  0  0  0
   -1.2349   33.6955   26.6924 C   0  0  0  0  0  0  0  0  0  0  0  0
    0.2401   31.0308   25.4727 N   0  0  0  0  0  0  0  0  0  0  0  0
   -0.5879   31.2563   26.6851 C   0  0  0  0  0  0  0  0  0  0  0  0
   -0.3816   32.6170   27.3495 C   0  0  0  0  0  0  0  0  0  0  0  0
   -0.6081   34.1762   25.3895 C   0  0  0  0  0  0  0  0  0  0  0  0
    4.0902   29.6450   27.5204 C   0  0  0  0  0  0  0  0  0  0  0  0
    2.2894   28.3666   27.7576 C   0  0  0  0  0  0  0  0  0  0  0  0
    2.2584   28.9094   26.4798 C   0  0  0  0  0  0  0  0  0  0  0  0
    3.3632   29.7089   26.3498 C   0  0  0  0  0  0  0  0  0  0  0  0
    3.4240   28.8169   28.3919 O   0  0  0  0  0  0  0  0  0  0  0  0
   -0.6300   24.9848   23.7701 O   0  0  0  0  0  0  0  0  0  0  0  0
    0.3024   25.7294   23.5158 C   0  0  0  0  0  0  0  0  0  0  0  0
    1.4469   25.3830   22.9125 N   0  0  0  0  0  0  0  0  0  0  0  0
    2.1314   26.0862   22.8336 H   0  0  0  0  0  0  0  0  0  0  0  0
    0.9150   23.5518   21.6169 N   0  0  0  0  0  0  0  0  0  0  0  0
    1.7587   24.1959   22.4100 C   0  0  0  0  0  0  0  0  0  0  0  0
    2.8713   23.6928   22.7216 N   0  0  0  0  0  0  0  0  0  0  0  0
    0.0499   23.9597   21.3836 H   0  0  0  0  0  0  0  0  0  0  0  0
    3.1311   22.8129   22.3645 H   0  0  0  0  0  0  0  0  0  0  0  0
    3.4808   24.1797   23.3222 H   0  0  0  0  0  0  0  0  0  0  0  0
  3  4  1  0  0  0
 22 23  2  0  0  0
 26 27  2  0  0  0
  4  6  2  0  0  0
  4  5  1  0  0  0
 23  5  1  0  0  0
 23 24  1  0  0  0
  6  1  1  0  0  0
  5  7  2  0  0  0
 27 24  1  0  0  0
 27 28  1  0  0  0
 11 10  1  0  0  0
 11 16  1  0  0  0
 10 13  1  0  0  0
  1 13  1  0  0  0
  1  2  2  0  0  0
  7  2  1  0  0  0
 16 12  1  0  0  0
 13 14  1  0  0  0
  2 19  1  0  0  0
 14 15  1  0  0  0
 12 15  1  0  0  0
 19 18  2  0  0  0
 19 20  1  0  0  0
 18 21  1  0  0  0
 20 17  2  0  0  0
 21 17  1  0  0  0
 26 29  1  0  0  0
  3  8  1  0  0  0
  3  9  1  0  0  0
 24 25  1  0  0  0
 28 30  1  0  0  0
 28 31  1  0  0  0
M  END
> <minimizedAffinity>
-7.07778

$$$$
5ZAF_28I_U_301


 31 33  0  0  0  0  0  0  0  0999 V2000
   -0.0545   28.1458   24.4205 C   0  0  0  0  0  0  0  0  0  0  0  0
    1.0070   28.0214   25.3250 C   0  0  0  0  0  0  0  0  0  0  0  0
   -0.7149   31.6981   24.6524 N   0  0  0  0  0  0  0  0  0  0  0  0
   -0.1370   30.4881   24.8915 C   0  0  0  0  0  0  0  0  0  0  0  0
    0.9074   30.3322   25.7923 C   0  0  0  0  0  0  0  0  0  0  0  0
   -0.5800   29.3952   24.2267 N   0  0  0  0  0  0  0  0  0  0  0  0
    1.4463   29.1088   25.9894 N   0  0  0  0  0  0  0  0  0  0  0  0
   -1.4541   31.7715   24.0063 H   0  0  0  0  0  0  0  0  0  0  0  0
   -0.3934   32.4992   25.1257 H   0  0  0  0  0  0  0  0  0  0  0  0
    0.0646   26.7622   22.3406 C   0  0  0  0  0  0  0  0  0  0  0  0
    0.6143   25.3391   22.4989 C   0  0  0  0  0  0  0  0  0  0  0  0
   -1.5165   24.0290   22.9438 C   0  0  0  0  0  0  0  0  0  0  0  0
   -0.5559   27.0915   23.6235 N   0  0  0  0  0  0  0  0  0  0  0  0
   -1.5934   26.2079   24.2144 C   0  0  0  0  0  0  0  0  0  0  0  0
   -2.3060   25.3058   23.2076 C   0  0  0  0  0  0  0  0  0  0  0  0
   -0.3632   24.2834   21.9812 C   0  0  0  0  0  0  0  0  0  0  0  0
    2.1255   24.7684   26.6128 C   0  0  0  0  0  0  0  0  0  0  0  0
    2.9501   26.3308   25.2664 C   0  0  0  0  0  0  0  0  0  0  0  0
    1.7085   26.7662   25.7102 C   0  0  0  0  0  0  0  0  0  0  0  0
    1.2015   25.7890   26.5256 C   0  0  0  0  0  0  0  0  0  0  0  0
    3.2056   25.1028   25.8314 O   0  0  0  0  0  0  0  0  0  0  0  0
    0.7913   32.3289   27.0211 O   0  0  0  0  0  0  0  0  0  0  0  0
    1.5076   31.4509   26.5689 C   0  0  0  0  0  0  0  0  0  0  0  0
    2.8454   31.4175   26.6243 N   0  0  0  0  0  0  0  0  0  0  0  0
    3.2853   30.6707   26.1573 H   0  0  0  0  0  0  0  0  0  0  0  0
    3.2203   33.5012   27.5368 N   0  0  0  0  0  0  0  0  0  0  0  0
    3.6422   32.2808   27.2398 C   0  0  0  0  0  0  0  0  0  0  0  0
    4.8147   31.9122   27.5183 N   0  0  0  0  0  0  0  0  0  0  0  0
    2.3010   33.7725   27.3120 H   0  0  0  0  0  0  0  0  0  0  0  0
    5.4297   32.5306   27.9751 H   0  0  0  0  0  0  0  0  0  0  0  0
    5.1157   31.0058   27.2792 H   0  0  0  0  0  0  0  0  0  0  0  0
  3  4  1  0  0  0
 22 23  2  0  0  0
 26 27  2  0  0  0
  4  6  2  0  0  0
  4  5  1  0  0  0
 23  5  1  0  0  0
 23 24  1  0  0  0
  6  1  1  0  0  0
  5  7  2  0  0  0
 27 24  1  0  0  0
 27 28  1  0  0  0
 11 10  1  0  0  0
 11 16  1  0  0  0
 10 13  1  0  0  0
  1 13  1  0  0  0
  1  2  2  0  0  0
  7  2  1  0  0  0
 16 12  1  0  0  0
 13 14  1  0  0  0
  2 19  1  0  0  0
 14 15  1  0  0  0
 12 15  1  0  0  0
 19 18  2  0  0  0
 19 20  1  0  0  0
 18 21  1  0  0  0
 20 17  2  0  0  0
 21 17  1  0  0  0
 26 29  1  0  0  0
  3  8  1  0  0  0
  3  9  1  0  0  0
 24 25  1  0  0  0
 28 30  1  0  0  0
 28 31  1  0  0  0
M  END
> <minimizedAffinity>
-6.78621

$$$$
