5CS6_K82_A_404


 15 15  0  0  0  0  0  0  0  0999 V2000
   31.0898  154.9090  333.1721 Cl  0  0  0  0  0  0  0  0  0  0  0  0
   31.4241  154.9170  334.8727 C   0  0  0  0  0  0  0  0  0  0  0  0
   31.5996  156.1245  335.5162 C   0  0  0  0  0  0  0  0  0  0  0  0
   31.8693  156.1608  336.8777 C   0  0  0  0  0  0  0  0  0  0  0  0
   31.9613  154.9573  337.5637 C   0  0  0  0  0  0  0  0  0  0  0  0
   31.7861  153.7453  336.9211 C   0  0  0  0  0  0  0  0  0  0  0  0
   31.5132  153.7158  335.5639 C   0  0  0  0  0  0  0  0  0  0  0  0
   32.0436  157.4822  337.5604 C   0  0  0  0  0  0  0  0  0  0  0  0
   31.5274  157.3727  338.9263 N   0  0  0  0  0  0  0  0  0  0  0  0
   30.5403  157.1174  338.8973 H   0  0  0  0  0  0  0  0  0  0  0  0
   31.6331  158.2684  339.4026 H   0  0  0  0  0  0  0  0  0  0  0  0
   31.3270  152.5754  334.8284 O   0  0  0  0  0  0  0  0  0  0  0  0
   32.1167  151.4254  335.1621 C   0  0  0  0  0  0  0  0  0  0  0  0
   31.2669  150.2003  335.0599 C   0  0  0  0  0  0  0  0  0  0  0  0
   30.2145  150.3263  333.9925 C   0  0  0  0  0  0  0  0  0  0  0  0
 15 14  1  0  0  0
 14 13  1  0  0  0
 13 12  1  0  0  0
 12  7  1  0  0  0
  6  7  2  0  0  0
  6  5  1  0  0  0
  7  2  1  0  0  0
  5  4  2  0  0  0
  2  1  1  0  0  0
  2  3  2  0  0  0
  4  3  1  0  0  0
  4  8  1  0  0  0
  9  8  1  0  0  0
  9 10  1  0  0  0
  9 11  1  0  0  0
M  END
> <minimizedAffinity>
-4.72873

$$$$
5CS6_K82_A_404


 15 15  0  0  0  0  0  0  0  0999 V2000
   31.6012  155.1236  338.2518 Cl  0  0  0  0  0  0  0  0  0  0  0  0
   32.8764  154.0004  337.9117 C   0  0  0  0  0  0  0  0  0  0  0  0
   33.9252  153.8869  338.8006 C   0  0  0  0  0  0  0  0  0  0  0  0
   34.9608  152.9958  338.5531 C   0  0  0  0  0  0  0  0  0  0  0  0
   34.9120  152.2341  337.3935 C   0  0  0  0  0  0  0  0  0  0  0  0
   33.8620  152.3460  336.5004 C   0  0  0  0  0  0  0  0  0  0  0  0
   32.8300  153.2335  336.7548 C   0  0  0  0  0  0  0  0  0  0  0  0
   36.0838  152.8780  339.5370 C   0  0  0  0  0  0  0  0  0  0  0  0
   36.3756  151.4579  339.7430 N   0  0  0  0  0  0  0  0  0  0  0  0
   35.5433  150.9879  340.0989 H   0  0  0  0  0  0  0  0  0  0  0  0
   37.1351  151.3612  340.4170 H   0  0  0  0  0  0  0  0  0  0  0  0
   31.7470  153.4279  335.9391 O   0  0  0  0  0  0  0  0  0  0  0  0
   31.6318  152.6055  334.7695 C   0  0  0  0  0  0  0  0  0  0  0  0
   30.5810  151.5682  335.0008 C   0  0  0  0  0  0  0  0  0  0  0  0
   31.1353  150.1717  334.9273 C   0  0  0  0  0  0  0  0  0  0  0  0
 15 14  1  0  0  0
 14 13  1  0  0  0
 13 12  1  0  0  0
 12  7  1  0  0  0
  6  7  2  0  0  0
  6  5  1  0  0  0
  7  2  1  0  0  0
  5  4  2  0  0  0
  2  1  1  0  0  0
  2  3  2  0  0  0
  4  3  1  0  0  0
  4  8  1  0  0  0
  9  8  1  0  0  0
  9 10  1  0  0  0
  9 11  1  0  0  0
M  END
> <minimizedAffinity>
-4.34888

$$$$
5CS6_K82_A_404


 15 15  0  0  0  0  0  0  0  0999 V2000
   33.9901  151.8651  337.2791 Cl  0  0  0  0  0  0  0  0  0  0  0  0
   33.1321  153.3406  336.9787 C   0  0  0  0  0  0  0  0  0  0  0  0
   33.3312  154.4156  337.8199 C   0  0  0  0  0  0  0  0  0  0  0  0
   32.6565  155.6097  337.6036 C   0  0  0  0  0  0  0  0  0  0  0  0
   31.7806  155.6865  336.5293 C   0  0  0  0  0  0  0  0  0  0  0  0
   31.5787  154.6103  335.6845 C   0  0  0  0  0  0  0  0  0  0  0  0
   32.2577  153.4235  335.9030 C   0  0  0  0  0  0  0  0  0  0  0  0
   32.8964  156.7693  338.5204 C   0  0  0  0  0  0  0  0  0  0  0  0
   31.6026  157.3491  338.8866 N   0  0  0  0  0  0  0  0  0  0  0  0
   31.1182  157.6590  338.0442 H   0  0  0  0  0  0  0  0  0  0  0  0
   31.7501  158.1456  339.5064 H   0  0  0  0  0  0  0  0  0  0  0  0
   32.1306  152.2970  335.1342 O   0  0  0  0  0  0  0  0  0  0  0  0
   30.8535  151.6444  335.1063 C   0  0  0  0  0  0  0  0  0  0  0  0
   30.9727  150.3655  334.3421 C   0  0  0  0  0  0  0  0  0  0  0  0
   29.8895  150.2180  333.3089 C   0  0  0  0  0  0  0  0  0  0  0  0
 15 14  1  0  0  0
 14 13  1  0  0  0
 13 12  1  0  0  0
 12  7  1  0  0  0
  6  7  2  0  0  0
  6  5  1  0  0  0
  7  2  1  0  0  0
  5  4  2  0  0  0
  2  1  1  0  0  0
  2  3  2  0  0  0
  4  3  1  0  0  0
  4  8  1  0  0  0
  9  8  1  0  0  0
  9 10  1  0  0  0
  9 11  1  0  0  0
M  END
> <minimizedAffinity>
-4.16839

$$$$
5CS6_K82_A_404


 15 15  0  0  0  0  0  0  0  0999 V2000
   34.4131  151.3775  335.3436 Cl  0  0  0  0  0  0  0  0  0  0  0  0
   33.6677  152.5425  336.3879 C   0  0  0  0  0  0  0  0  0  0  0  0
   34.3687  153.0099  337.4802 C   0  0  0  0  0  0  0  0  0  0  0  0
   33.7958  153.9427  338.3342 C   0  0  0  0  0  0  0  0  0  0  0  0
   32.5076  154.3825  338.0613 C   0  0  0  0  0  0  0  0  0  0  0  0
   31.8023  153.9154  336.9672 C   0  0  0  0  0  0  0  0  0  0  0  0
   32.3806  152.9882  336.1168 C   0  0  0  0  0  0  0  0  0  0  0  0
   34.5782  154.4475  339.5072 C   0  0  0  0  0  0  0  0  0  0  0  0
   34.9861  153.3020  340.3230 N   0  0  0  0  0  0  0  0  0  0  0  0
   34.1578  152.7988  340.6408 H   0  0  0  0  0  0  0  0  0  0  0  0
   35.5150  153.6309  341.1307 H   0  0  0  0  0  0  0  0  0  0  0  0
   31.7731  152.4565  335.0103 O   0  0  0  0  0  0  0  0  0  0  0  0
   30.6290  151.6153  335.2122 C   0  0  0  0  0  0  0  0  0  0  0  0
   30.8035  150.3538  334.4300 C   0  0  0  0  0  0  0  0  0  0  0  0
   31.6109  150.5680  333.1791 C   0  0  0  0  0  0  0  0  0  0  0  0
 15 14  1  0  0  0
 14 13  1  0  0  0
 13 12  1  0  0  0
 12  7  1  0  0  0
  6  7  2  0  0  0
  6  5  1  0  0  0
  7  2  1  0  0  0
  5  4  2  0  0  0
  2  1  1  0  0  0
  2  3  2  0  0  0
  4  3  1  0  0  0
  4  8  1  0  0  0
  9  8  1  0  0  0
  9 10  1  0  0  0
  9 11  1  0  0  0
M  END
> <minimizedAffinity>
-4.13021

$$$$
5CS6_K82_A_404


 15 15  0  0  0  0  0  0  0  0999 V2000
   31.2268  154.0255  333.7311 Cl  0  0  0  0  0  0  0  0  0  0  0  0
   31.5284  152.4533  334.3951 C   0  0  0  0  0  0  0  0  0  0  0  0
   32.5927  152.2814  335.2557 C   0  0  0  0  0  0  0  0  0  0  0  0
   32.8583  151.0329  335.8018 C   0  0  0  0  0  0  0  0  0  0  0  0
   32.0320  149.9725  335.4551 C   0  0  0  0  0  0  0  0  0  0  0  0
   30.9644  150.1418  334.5923 C   0  0  0  0  0  0  0  0  0  0  0  0
   30.7022  151.3904  334.0541 C   0  0  0  0  0  0  0  0  0  0  0  0
   34.0106  150.8697  336.7443 C   0  0  0  0  0  0  0  0  0  0  0  0
   34.0765  149.4675  337.1613 N   0  0  0  0  0  0  0  0  0  0  0  0
   33.2040  149.2084  337.6217 H   0  0  0  0  0  0  0  0  0  0  0  0
   34.8536  149.3419  337.8100 H   0  0  0  0  0  0  0  0  0  0  0  0
   29.6779  151.6693  333.1887 O   0  0  0  0  0  0  0  0  0  0  0  0
   29.2356  150.6228  332.3131 C   0  0  0  0  0  0  0  0  0  0  0  0
   28.8762  151.2116  330.9873 C   0  0  0  0  0  0  0  0  0  0  0  0
   29.7023  150.6385  329.8684 C   0  0  0  0  0  0  0  0  0  0  0  0
 15 14  1  0  0  0
 14 13  1  0  0  0
 13 12  1  0  0  0
 12  7  1  0  0  0
  6  7  2  0  0  0
  6  5  1  0  0  0
  7  2  1  0  0  0
  5  4  2  0  0  0
  2  1  1  0  0  0
  2  3  2  0  0  0
  4  3  1  0  0  0
  4  8  1  0  0  0
  9  8  1  0  0  0
  9 10  1  0  0  0
  9 11  1  0  0  0
M  END
> <minimizedAffinity>
-4.06800

$$$$
5CS6_K82_A_404


 15 15  0  0  0  0  0  0  0  0999 V2000
   31.1629  155.5895  334.5812 Cl  0  0  0  0  0  0  0  0  0  0  0  0
   31.6918  153.9792  334.9426 C   0  0  0  0  0  0  0  0  0  0  0  0
   31.1208  152.9187  334.2701 C   0  0  0  0  0  0  0  0  0  0  0  0
   31.5246  151.6180  334.5400 C   0  0  0  0  0  0  0  0  0  0  0  0
   32.5065  151.4186  335.5009 C   0  0  0  0  0  0  0  0  0  0  0  0
   33.0805  152.4798  336.1770 C   0  0  0  0  0  0  0  0  0  0  0  0
   32.6765  153.7751  335.9004 C   0  0  0  0  0  0  0  0  0  0  0  0
   30.9018  150.4813  333.7897 C   0  0  0  0  0  0  0  0  0  0  0  0
   29.5219  150.8424  333.4581 N   0  0  0  0  0  0  0  0  0  0  0  0
   29.0028  151.0257  334.3168 H   0  0  0  0  0  0  0  0  0  0  0  0
   29.0817  150.0740  332.9521 H   0  0  0  0  0  0  0  0  0  0  0  0
   33.1727  154.8961  336.5112 O   0  0  0  0  0  0  0  0  0  0  0  0
   33.0218  155.0077  337.9333 C   0  0  0  0  0  0  0  0  0  0  0  0
   31.7028  155.6407  338.2386 C   0  0  0  0  0  0  0  0  0  0  0  0
   31.7757  157.1431  338.2201 C   0  0  0  0  0  0  0  0  0  0  0  0
 15 14  1  0  0  0
 14 13  1  0  0  0
 13 12  1  0  0  0
 12  7  1  0  0  0
  6  7  2  0  0  0
  6  5  1  0  0  0
  7  2  1  0  0  0
  5  4  2  0  0  0
  2  1  1  0  0  0
  2  3  2  0  0  0
  4  3  1  0  0  0
  4  8  1  0  0  0
  9  8  1  0  0  0
  9 10  1  0  0  0
  9 11  1  0  0  0
M  END
> <minimizedAffinity>
-4.01459

$$$$
5CS6_K82_A_404


 15 15  0  0  0  0  0  0  0  0999 V2000
   31.5455  155.0314  333.2938 Cl  0  0  0  0  0  0  0  0  0  0  0  0
   31.0467  153.3794  333.4545 C   0  0  0  0  0  0  0  0  0  0  0  0
   30.4914  152.7375  332.3671 C   0  0  0  0  0  0  0  0  0  0  0  0
   30.0821  151.4146  332.4675 C   0  0  0  0  0  0  0  0  0  0  0  0
   30.2421  150.7657  333.6843 C   0  0  0  0  0  0  0  0  0  0  0  0
   30.7982  151.4068  334.7763 C   0  0  0  0  0  0  0  0  0  0  0  0
   31.2084  152.7250  334.6687 C   0  0  0  0  0  0  0  0  0  0  0  0
   29.4936  150.7315  331.2717 C   0  0  0  0  0  0  0  0  0  0  0  0
   28.6470  149.6298  331.7342 N   0  0  0  0  0  0  0  0  0  0  0  0
   29.2093  148.9730  332.2753 H   0  0  0  0  0  0  0  0  0  0  0  0
   28.2439  149.1498  330.9295 H   0  0  0  0  0  0  0  0  0  0  0  0
   31.7656  153.4558  335.6842 O   0  0  0  0  0  0  0  0  0  0  0  0
   32.8844  152.8907  336.3818 C   0  0  0  0  0  0  0  0  0  0  0  0
   32.9885  153.5201  337.7334 C   0  0  0  0  0  0  0  0  0  0  0  0
   31.8267  154.4290  338.0279 C   0  0  0  0  0  0  0  0  0  0  0  0
 15 14  1  0  0  0
 14 13  1  0  0  0
 13 12  1  0  0  0
 12  7  1  0  0  0
  6  7  2  0  0  0
  6  5  1  0  0  0
  7  2  1  0  0  0
  5  4  2  0  0  0
  2  1  1  0  0  0
  2  3  2  0  0  0
  4  3  1  0  0  0
  4  8  1  0  0  0
  9  8  1  0  0  0
  9 10  1  0  0  0
  9 11  1  0  0  0
M  END
> <minimizedAffinity>
-3.99076

$$$$
5CS6_K82_A_404


 15 15  0  0  0  0  0  0  0  0999 V2000
   34.9584  151.5470  337.1801 Cl  0  0  0  0  0  0  0  0  0  0  0  0
   33.4751  151.9928  336.4024 C   0  0  0  0  0  0  0  0  0  0  0  0
   32.8131  151.0578  335.6341 C   0  0  0  0  0  0  0  0  0  0  0  0
   31.6233  151.3876  334.9989 C   0  0  0  0  0  0  0  0  0  0  0  0
   31.1280  152.6751  335.1545 C   0  0  0  0  0  0  0  0  0  0  0  0
   31.7897  153.6148  335.9239 C   0  0  0  0  0  0  0  0  0  0  0  0
   32.9737  153.2785  336.5583 C   0  0  0  0  0  0  0  0  0  0  0  0
   30.9130  150.3544  334.1799 C   0  0  0  0  0  0  0  0  0  0  0  0
   29.6278  150.9062  333.7464 N   0  0  0  0  0  0  0  0  0  0  0  0
   29.0706  151.1531  334.5643 H   0  0  0  0  0  0  0  0  0  0  0  0
   29.1285  150.2104  333.1924 H   0  0  0  0  0  0  0  0  0  0  0  0
   33.7119  154.1290  337.3379 O   0  0  0  0  0  0  0  0  0  0  0  0
   33.5297  155.5394  337.1506 C   0  0  0  0  0  0  0  0  0  0  0  0
   33.0297  156.1428  338.4231 C   0  0  0  0  0  0  0  0  0  0  0  0
   31.6466  156.7155  338.2753 C   0  0  0  0  0  0  0  0  0  0  0  0
 15 14  1  0  0  0
 14 13  1  0  0  0
 13 12  1  0  0  0
 12  7  1  0  0  0
  6  7  2  0  0  0
  6  5  1  0  0  0
  7  2  1  0  0  0
  5  4  2  0  0  0
  2  1  1  0  0  0
  2  3  2  0  0  0
  4  3  1  0  0  0
  4  8  1  0  0  0
  9  8  1  0  0  0
  9 10  1  0  0  0
  9 11  1  0  0  0
M  END
> <minimizedAffinity>
-3.94674

$$$$
5CS6_K82_A_404


 15 15  0  0  0  0  0  0  0  0999 V2000
   31.4135  153.1751  335.4915 Cl  0  0  0  0  0  0  0  0  0  0  0  0
   32.6737  153.1329  336.6805 C   0  0  0  0  0  0  0  0  0  0  0  0
   33.6445  152.1566  336.5946 C   0  0  0  0  0  0  0  0  0  0  0  0
   34.6654  152.0985  337.5339 C   0  0  0  0  0  0  0  0  0  0  0  0
   34.6765  153.0395  338.5544 C   0  0  0  0  0  0  0  0  0  0  0  0
   33.7044  154.0192  338.6432 C   0  0  0  0  0  0  0  0  0  0  0  0
   32.6911  154.0746  337.7010 C   0  0  0  0  0  0  0  0  0  0  0  0
   35.7172  151.0390  337.4157 C   0  0  0  0  0  0  0  0  0  0  0  0
   35.0613  149.7606  337.1335 N   0  0  0  0  0  0  0  0  0  0  0  0
   34.4161  149.5351  337.8907 H   0  0  0  0  0  0  0  0  0  0  0  0
   35.7655  149.0267  337.0570 H   0  0  0  0  0  0  0  0  0  0  0  0
   31.6780  154.9963  337.6956 O   0  0  0  0  0  0  0  0  0  0  0  0
   32.0123  156.3623  337.9785 C   0  0  0  0  0  0  0  0  0  0  0  0
   32.5019  157.0168  336.7272 C   0  0  0  0  0  0  0  0  0  0  0  0
   31.5250  156.8749  335.5922 C   0  0  0  0  0  0  0  0  0  0  0  0
 15 14  1  0  0  0
 14 13  1  0  0  0
 13 12  1  0  0  0
 12  7  1  0  0  0
  6  7  2  0  0  0
  6  5  1  0  0  0
  7  2  1  0  0  0
  5  4  2  0  0  0
  2  1  1  0  0  0
  2  3  2  0  0  0
  4  3  1  0  0  0
  4  8  1  0  0  0
  9  8  1  0  0  0
  9 10  1  0  0  0
  9 11  1  0  0  0
M  END
> <minimizedAffinity>
-3.90513

$$$$
5CS6_K82_A_404


 15 15  0  0  0  0  0  0  0  0999 V2000
   31.0293  149.8693  335.4893 Cl  0  0  0  0  0  0  0  0  0  0  0  0
   30.8640  151.0497  334.2311 C   0  0  0  0  0  0  0  0  0  0  0  0
   30.3885  150.6539  332.9982 C   0  0  0  0  0  0  0  0  0  0  0  0
   30.2468  151.5779  331.9717 C   0  0  0  0  0  0  0  0  0  0  0  0
   30.5993  152.8976  332.2195 C   0  0  0  0  0  0  0  0  0  0  0  0
   31.0766  153.2973  333.4544 C   0  0  0  0  0  0  0  0  0  0  0  0
   31.2118  152.3718  334.4755 C   0  0  0  0  0  0  0  0  0  0  0  0
   29.7165  151.1308  330.6444 C   0  0  0  0  0  0  0  0  0  0  0  0
   28.3109  150.7540  330.8072 N   0  0  0  0  0  0  0  0  0  0  0  0
   28.2381  149.9991  331.4893 H   0  0  0  0  0  0  0  0  0  0  0  0
   27.9370  150.4401  329.9116 H   0  0  0  0  0  0  0  0  0  0  0  0
   31.6772  152.6562  335.7319 O   0  0  0  0  0  0  0  0  0  0  0  0
   32.5620  153.7751  335.8823 C   0  0  0  0  0  0  0  0  0  0  0  0
   31.9434  154.7682  336.8123 C   0  0  0  0  0  0  0  0  0  0  0  0
   31.7778  156.1193  336.1723 C   0  0  0  0  0  0  0  0  0  0  0  0
 15 14  1  0  0  0
 14 13  1  0  0  0
 13 12  1  0  0  0
 12  7  1  0  0  0
  6  7  2  0  0  0
  6  5  1  0  0  0
  7  2  1  0  0  0
  5  4  2  0  0  0
  2  1  1  0  0  0
  2  3  2  0  0  0
  4  3  1  0  0  0
  4  8  1  0  0  0
  9  8  1  0  0  0
  9 10  1  0  0  0
  9 11  1  0  0  0
M  END
> <minimizedAffinity>
-3.85185

$$$$
