2WJG_GDP_A_200


 36 38  0  0  0  0  0  0  0  0999 V2000
   -3.3608   25.2029  -23.2776 C   0  0  0  0  0  0  0  0  0  0  0  0
   -4.2291   24.1094  -23.5991 O   0  0  0  0  0  0  0  0  0  0  0  0
   -2.7994   25.7163  -24.5885 C   0  0  0  0  0  0  0  0  0  0  0  0
   -1.4875   25.1620  -24.7045 O   0  0  0  0  0  0  0  0  0  0  0  0
   -3.7218   25.1383  -25.6374 C   0  0  0  0  0  0  0  0  0  0  0  0
   -3.0867   24.8793  -26.8917 O   0  0  0  0  0  0  0  0  0  0  0  0
   -4.1126   23.8335  -24.9908 C   0  0  0  0  0  0  0  0  0  0  0  0
   -1.5365   24.1963  -24.6269 H   0  0  0  0  0  0  0  0  0  0  0  0
   -2.3406   24.2742  -26.7575 H   0  0  0  0  0  0  0  0  0  0  0  0
   -5.4044   23.3869  -25.5226 N   0  0  0  0  0  0  0  0  0  0  0  0
   -6.6231   23.8044  -25.1524 C   0  0  0  0  0  0  0  0  0  0  0  0
   -7.5775   23.1533  -25.8631 N   0  0  0  0  0  0  0  0  0  0  0  0
   -6.9552   22.2953  -26.7016 C   0  0  0  0  0  0  0  0  0  0  0  0
   -7.3666   21.3096  -27.7369 C   0  0  0  0  0  0  0  0  0  0  0  0
   -8.5898   21.1105  -27.9951 O   0  0  0  0  0  0  0  0  0  0  0  0
   -6.3867   20.6401  -28.3747 N   0  0  0  0  0  0  0  0  0  0  0  0
   -5.0771   20.8473  -28.0991 C   0  0  0  0  0  0  0  0  0  0  0  0
   -4.1435   20.1410  -28.7626 N   0  0  0  0  0  0  0  0  0  0  0  0
   -4.6308   21.7388  -27.1752 N   0  0  0  0  0  0  0  0  0  0  0  0
   -5.5209   22.4591  -26.4586 C   0  0  0  0  0  0  0  0  0  0  0  0
   -6.6303   19.9794  -29.0628 H   0  0  0  0  0  0  0  0  0  0  0  0
   -4.4151   19.4824  -29.4420 H   0  0  0  0  0  0  0  0  0  0  0  0
   -3.1888   20.2829  -28.5685 H   0  0  0  0  0  0  0  0  0  0  0  0
   -4.1507   26.3144  -22.6081 C   0  0  0  0  0  0  0  0  0  0  0  0
   -5.5071   25.8869  -22.4683 O   0  0  0  0  0  0  0  0  0  0  0  0
   -6.4710   26.7734  -21.5235 P   0  0  0  0  0  0  0  0  0  0  0  0
   -5.7967   28.0812  -21.2121 O   0  0  0  0  0  0  0  0  0  0  0  0
   -7.8446   27.0047  -22.1165 O   0  0  0  0  0  0  0  0  0  0  0  0
   -8.3744   27.5405  -21.5057 H   0  0  0  0  0  0  0  0  0  0  0  0
   -6.5825   25.7338  -20.3001 O   0  0  0  0  0  0  0  0  0  0  0  0
   -7.4494   25.9440  -18.9671 P   0  0  0  0  0  0  0  0  0  0  0  0
   -6.6413   26.2494  -17.7192 O   0  0  0  0  0  0  0  0  0  0  0  0
   -8.3620   27.1165  -19.2519 O   0  0  0  0  0  0  0  0  0  0  0  0
   -8.2639   24.6847  -18.7205 O   0  0  0  0  0  0  0  0  0  0  0  0
   -8.9152   27.2920  -18.4747 H   0  0  0  0  0  0  0  0  0  0  0  0
   -8.7950   24.7954  -17.9164 H   0  0  0  0  0  0  0  0  0  0  0  0
 31 32  2  0  0  0
 31 33  1  0  0  0
 31 34  1  0  0  0
 31 30  1  0  0  0
 30 26  1  0  0  0
 26 27  2  0  0  0
 26 28  1  0  0  0
 26 25  1  0  0  0
 25 24  1  0  0  0
 24  1  1  0  0  0
  1  2  1  0  0  0
  1  3  1  0  0  0
  2  7  1  0  0  0
  3  4  1  0  0  0
  3  5  1  0  0  0
  5  6  1  0  0  0
  5  7  1  0  0  0
  7 10  1  0  0  0
 10 11  1  0  0  0
 10 20  1  0  0  0
 11 12  2  0  0  0
 12 13  1  0  0  0
 13 14  1  0  0  0
 13 20  2  0  0  0
 14 15  2  0  0  0
 14 16  1  0  0  0
 16 17  1  0  0  0
 17 18  1  0  0  0
 17 19  2  0  0  0
 19 20  1  0  0  0
 33 35  1  0  0  0
 34 36  1  0  0  0
 28 29  1  0  0  0
  4  8  1  0  0  0
  6  9  1  0  0  0
 16 21  1  0  0  0
 18 22  1  0  0  0
 18 23  1  0  0  0
M  END
> <minimizedAffinity>
-8.47078

$$$$
2WJG_GDP_A_200


 36 38  0  0  0  0  0  0  0  0999 V2000
   -5.4883   25.7589  -21.3963 C   0  0  0  0  0  0  0  0  0  0  0  0
   -5.5882   24.5753  -22.1976 O   0  0  0  0  0  0  0  0  0  0  0  0
   -4.6394   26.7442  -22.1746 C   0  0  0  0  0  0  0  0  0  0  0  0
   -3.3279   26.6715  -21.6123 O   0  0  0  0  0  0  0  0  0  0  0  0
   -4.6493   26.2057  -23.5871 C   0  0  0  0  0  0  0  0  0  0  0  0
   -3.4603   26.4924  -24.3273 O   0  0  0  0  0  0  0  0  0  0  0  0
   -4.7383   24.7227  -23.3300 C   0  0  0  0  0  0  0  0  0  0  0  0
   -3.0174   25.7528  -21.6337 H   0  0  0  0  0  0  0  0  0  0  0  0
   -2.6919   26.1336  -23.8565 H   0  0  0  0  0  0  0  0  0  0  0  0
   -5.3330   24.0554  -24.4928 N   0  0  0  0  0  0  0  0  0  0  0  0
   -6.5949   24.1609  -24.9322 C   0  0  0  0  0  0  0  0  0  0  0  0
   -6.7753   23.3850  -26.0301 N   0  0  0  0  0  0  0  0  0  0  0  0
   -5.6043   22.7642  -26.2944 C   0  0  0  0  0  0  0  0  0  0  0  0
   -5.0953   21.8116  -27.3172 C   0  0  0  0  0  0  0  0  0  0  0  0
   -5.8529   21.3747  -28.2325 O   0  0  0  0  0  0  0  0  0  0  0  0
   -3.8057   21.4336  -27.2201 N   0  0  0  0  0  0  0  0  0  0  0  0
   -2.9929   21.8957  -26.2405 C   0  0  0  0  0  0  0  0  0  0  0  0
   -1.7160   21.4742  -26.1892 N   0  0  0  0  0  0  0  0  0  0  0  0
   -3.3881   22.7746  -25.2819 N   0  0  0  0  0  0  0  0  0  0  0  0
   -4.6652   23.2144  -25.2655 C   0  0  0  0  0  0  0  0  0  0  0  0
   -3.4430   20.8016  -27.8821 H   0  0  0  0  0  0  0  0  0  0  0  0
   -1.3805   20.8373  -26.8608 H   0  0  0  0  0  0  0  0  0  0  0  0
   -1.1173   21.8028  -25.4801 H   0  0  0  0  0  0  0  0  0  0  0  0
   -6.8675   26.3572  -21.1788 C   0  0  0  0  0  0  0  0  0  0  0  0
   -6.8551   27.0938  -19.9543 O   0  0  0  0  0  0  0  0  0  0  0  0
   -7.5973   26.4315  -18.6822 P   0  0  0  0  0  0  0  0  0  0  0  0
   -8.0782   25.0543  -19.0482 O   0  0  0  0  0  0  0  0  0  0  0  0
   -6.7333   26.3867  -17.4399 O   0  0  0  0  0  0  0  0  0  0  0  0
   -7.2318   25.9803  -16.7138 H   0  0  0  0  0  0  0  0  0  0  0  0
   -8.7420   27.5480  -18.5001 O   0  0  0  0  0  0  0  0  0  0  0  0
   -8.9059   28.5259  -17.2394 P   0  0  0  0  0  0  0  0  0  0  0  0
   -7.6288   29.2131  -16.7919 O   0  0  0  0  0  0  0  0  0  0  0  0
   -9.9004   29.5829  -17.6666 O   0  0  0  0  0  0  0  0  0  0  0  0
   -9.4557   27.7193  -16.0743 O   0  0  0  0  0  0  0  0  0  0  0  0
  -10.0406   30.2081  -16.9384 H   0  0  0  0  0  0  0  0  0  0  0  0
   -9.5609   28.2969  -15.3023 H   0  0  0  0  0  0  0  0  0  0  0  0
 31 32  2  0  0  0
 31 33  1  0  0  0
 31 34  1  0  0  0
 31 30  1  0  0  0
 30 26  1  0  0  0
 26 27  2  0  0  0
 26 28  1  0  0  0
 26 25  1  0  0  0
 25 24  1  0  0  0
 24  1  1  0  0  0
  1  2  1  0  0  0
  1  3  1  0  0  0
  2  7  1  0  0  0
  3  4  1  0  0  0
  3  5  1  0  0  0
  5  6  1  0  0  0
  5  7  1  0  0  0
  7 10  1  0  0  0
 10 11  1  0  0  0
 10 20  1  0  0  0
 11 12  2  0  0  0
 12 13  1  0  0  0
 13 14  1  0  0  0
 13 20  2  0  0  0
 14 15  2  0  0  0
 14 16  1  0  0  0
 16 17  1  0  0  0
 17 18  1  0  0  0
 17 19  2  0  0  0
 19 20  1  0  0  0
 33 35  1  0  0  0
 34 36  1  0  0  0
 28 29  1  0  0  0
  4  8  1  0  0  0
  6  9  1  0  0  0
 16 21  1  0  0  0
 18 22  1  0  0  0
 18 23  1  0  0  0
M  END
> <minimizedAffinity>
-7.83370

$$$$
2WJG_GDP_A_200


 36 38  0  0  0  0  0  0  0  0999 V2000
   -4.7495   28.2104  -19.9911 C   0  0  0  0  0  0  0  0  0  0  0  0
   -4.2929   27.1198  -20.8004 O   0  0  0  0  0  0  0  0  0  0  0  0
   -5.6977   29.0248  -20.8483 C   0  0  0  0  0  0  0  0  0  0  0  0
   -4.9461   30.1444  -21.3207 O   0  0  0  0  0  0  0  0  0  0  0  0
   -6.0548   28.0978  -21.9877 C   0  0  0  0  0  0  0  0  0  0  0  0
   -6.3356   28.7695  -23.2181 O   0  0  0  0  0  0  0  0  0  0  0  0
   -4.7798   27.3049  -22.1253 C   0  0  0  0  0  0  0  0  0  0  0  0
   -4.1478   29.8302  -21.7733 H   0  0  0  0  0  0  0  0  0  0  0  0
   -5.5702   29.3073  -23.4748 H   0  0  0  0  0  0  0  0  0  0  0  0
   -5.0712   26.0046  -22.7380 N   0  0  0  0  0  0  0  0  0  0  0  0
   -5.2907   24.8415  -22.1091 C   0  0  0  0  0  0  0  0  0  0  0  0
   -5.5157   23.8553  -23.0128 N   0  0  0  0  0  0  0  0  0  0  0  0
   -5.4313   24.3987  -24.2473 C   0  0  0  0  0  0  0  0  0  0  0  0
   -5.5721   23.9198  -25.6486 C   0  0  0  0  0  0  0  0  0  0  0  0
   -5.8241   22.7046  -25.8979 O   0  0  0  0  0  0  0  0  0  0  0  0
   -5.4127   24.8293  -26.6298 N   0  0  0  0  0  0  0  0  0  0  0  0
   -5.1395   26.1294  -26.3677 C   0  0  0  0  0  0  0  0  0  0  0  0
   -4.9811   26.9895  -27.3904 N   0  0  0  0  0  0  0  0  0  0  0  0
   -5.0088   26.6366  -25.1134 N   0  0  0  0  0  0  0  0  0  0  0  0
   -5.1313   25.8175  -24.0463 C   0  0  0  0  0  0  0  0  0  0  0  0
   -5.4976   24.5394  -27.5669 H   0  0  0  0  0  0  0  0  0  0  0  0
   -5.0659   26.6718  -28.3184 H   0  0  0  0  0  0  0  0  0  0  0  0
   -4.7806   27.9365  -27.2107 H   0  0  0  0  0  0  0  0  0  0  0  0
   -5.5040   27.6812  -18.7835 C   0  0  0  0  0  0  0  0  0  0  0  0
   -6.8807   27.5336  -19.1371 O   0  0  0  0  0  0  0  0  0  0  0  0
   -7.7653   26.5044  -18.2620 P   0  0  0  0  0  0  0  0  0  0  0  0
   -7.9463   25.2249  -19.0315 O   0  0  0  0  0  0  0  0  0  0  0  0
   -7.1846   26.2296  -16.8911 O   0  0  0  0  0  0  0  0  0  0  0  0
   -7.7577   25.6077  -16.4160 H   0  0  0  0  0  0  0  0  0  0  0  0
   -9.0771   27.4250  -18.1147 O   0  0  0  0  0  0  0  0  0  0  0  0
   -9.3556   28.4789  -16.9381 P   0  0  0  0  0  0  0  0  0  0  0  0
   -8.1510   28.8095  -16.0762 O   0  0  0  0  0  0  0  0  0  0  0  0
   -9.8228   29.7444  -17.6231 O   0  0  0  0  0  0  0  0  0  0  0  0
  -10.4523   27.9226  -16.0448 O   0  0  0  0  0  0  0  0  0  0  0  0
  -10.0081   30.4237  -16.9559 H   0  0  0  0  0  0  0  0  0  0  0  0
  -10.6332   28.5490  -15.3267 H   0  0  0  0  0  0  0  0  0  0  0  0
 31 32  2  0  0  0
 31 33  1  0  0  0
 31 34  1  0  0  0
 31 30  1  0  0  0
 30 26  1  0  0  0
 26 27  2  0  0  0
 26 28  1  0  0  0
 26 25  1  0  0  0
 25 24  1  0  0  0
 24  1  1  0  0  0
  1  2  1  0  0  0
  1  3  1  0  0  0
  2  7  1  0  0  0
  3  4  1  0  0  0
  3  5  1  0  0  0
  5  6  1  0  0  0
  5  7  1  0  0  0
  7 10  1  0  0  0
 10 11  1  0  0  0
 10 20  1  0  0  0
 11 12  2  0  0  0
 12 13  1  0  0  0
 13 14  1  0  0  0
 13 20  2  0  0  0
 14 15  2  0  0  0
 14 16  1  0  0  0
 16 17  1  0  0  0
 17 18  1  0  0  0
 17 19  2  0  0  0
 19 20  1  0  0  0
 33 35  1  0  0  0
 34 36  1  0  0  0
 28 29  1  0  0  0
  4  8  1  0  0  0
  6  9  1  0  0  0
 16 21  1  0  0  0
 18 22  1  0  0  0
 18 23  1  0  0  0
M  END
> <minimizedAffinity>
-7.45818

$$$$
2WJG_GDP_A_200


 36 38  0  0  0  0  0  0  0  0999 V2000
   -7.0630   28.1209  -18.1397 C   0  0  0  0  0  0  0  0  0  0  0  0
   -6.5285   27.8258  -19.4360 O   0  0  0  0  0  0  0  0  0  0  0  0
   -6.0777   27.5754  -17.1253 C   0  0  0  0  0  0  0  0  0  0  0  0
   -6.6137   26.3280  -16.6800 O   0  0  0  0  0  0  0  0  0  0  0  0
   -4.8092   27.3626  -17.9194 C   0  0  0  0  0  0  0  0  0  0  0  0
   -3.9993   26.2846  -17.4442 O   0  0  0  0  0  0  0  0  0  0  0  0
   -5.3717   27.0122  -19.2737 C   0  0  0  0  0  0  0  0  0  0  0  0
   -6.7774   25.7549  -17.4452 H   0  0  0  0  0  0  0  0  0  0  0  0
   -4.5175   25.4646  -17.4486 H   0  0  0  0  0  0  0  0  0  0  0  0
   -4.3871   27.3285  -20.3136 N   0  0  0  0  0  0  0  0  0  0  0  0
   -3.2835   28.0784  -20.1859 C   0  0  0  0  0  0  0  0  0  0  0  0
   -2.6274   28.1524  -21.3709 N   0  0  0  0  0  0  0  0  0  0  0  0
   -3.3311   27.4395  -22.2781 C   0  0  0  0  0  0  0  0  0  0  0  0
   -3.1963   27.0952  -23.7190 C   0  0  0  0  0  0  0  0  0  0  0  0
   -2.2209   27.5257  -24.4015 O   0  0  0  0  0  0  0  0  0  0  0  0
   -4.1551   26.3182  -24.2595 N   0  0  0  0  0  0  0  0  0  0  0  0
   -5.2020   25.8586  -23.5339 C   0  0  0  0  0  0  0  0  0  0  0  0
   -6.1342   25.0941  -24.1318 N   0  0  0  0  0  0  0  0  0  0  0  0
   -5.3814   26.1246  -22.2131 N   0  0  0  0  0  0  0  0  0  0  0  0
   -4.4929   26.9078  -21.5635 C   0  0  0  0  0  0  0  0  0  0  0  0
   -4.0926   26.0770  -25.2120 H   0  0  0  0  0  0  0  0  0  0  0  0
   -6.0502   24.8726  -25.0874 H   0  0  0  0  0  0  0  0  0  0  0  0
   -6.9001   24.7563  -23.6137 H   0  0  0  0  0  0  0  0  0  0  0  0
   -7.1815   29.6241  -17.9563 C   0  0  0  0  0  0  0  0  0  0  0  0
   -8.5332   29.9345  -17.6116 O   0  0  0  0  0  0  0  0  0  0  0  0
   -8.7912   30.6402  -16.1823 P   0  0  0  0  0  0  0  0  0  0  0  0
   -7.8238   31.7784  -16.0073 O   0  0  0  0  0  0  0  0  0  0  0  0
  -10.2172   31.1134  -15.9956 O   0  0  0  0  0  0  0  0  0  0  0  0
  -10.3091   31.5264  -15.1228 H   0  0  0  0  0  0  0  0  0  0  0  0
   -8.5287   29.3491  -15.2582 O   0  0  0  0  0  0  0  0  0  0  0  0
   -9.5303   28.1103  -15.0716 P   0  0  0  0  0  0  0  0  0  0  0  0
   -8.8649   26.8008  -14.6895 O   0  0  0  0  0  0  0  0  0  0  0  0
  -10.4786   28.5128  -13.9637 O   0  0  0  0  0  0  0  0  0  0  0  0
  -10.2893   27.9063  -16.3725 O   0  0  0  0  0  0  0  0  0  0  0  0
  -11.1131   27.7965  -13.8050 H   0  0  0  0  0  0  0  0  0  0  0  0
  -10.9006   27.1593  -16.2765 H   0  0  0  0  0  0  0  0  0  0  0  0
 31 32  2  0  0  0
 31 33  1  0  0  0
 31 34  1  0  0  0
 31 30  1  0  0  0
 30 26  1  0  0  0
 26 27  2  0  0  0
 26 28  1  0  0  0
 26 25  1  0  0  0
 25 24  1  0  0  0
 24  1  1  0  0  0
  1  2  1  0  0  0
  1  3  1  0  0  0
  2  7  1  0  0  0
  3  4  1  0  0  0
  3  5  1  0  0  0
  5  6  1  0  0  0
  5  7  1  0  0  0
  7 10  1  0  0  0
 10 11  1  0  0  0
 10 20  1  0  0  0
 11 12  2  0  0  0
 12 13  1  0  0  0
 13 14  1  0  0  0
 13 20  2  0  0  0
 14 15  2  0  0  0
 14 16  1  0  0  0
 16 17  1  0  0  0
 17 18  1  0  0  0
 17 19  2  0  0  0
 19 20  1  0  0  0
 33 35  1  0  0  0
 34 36  1  0  0  0
 28 29  1  0  0  0
  4  8  1  0  0  0
  6  9  1  0  0  0
 16 21  1  0  0  0
 18 22  1  0  0  0
 18 23  1  0  0  0
M  END
> <minimizedAffinity>
-7.25354

$$$$
2WJG_GDP_A_200


 36 38  0  0  0  0  0  0  0  0999 V2000
   -4.7746   25.5483  -23.6492 C   0  0  0  0  0  0  0  0  0  0  0  0
   -4.9859   25.1162  -24.9989 O   0  0  0  0  0  0  0  0  0  0  0  0
   -3.6310   24.7200  -23.0984 C   0  0  0  0  0  0  0  0  0  0  0  0
   -4.2290   23.6908  -22.3080 O   0  0  0  0  0  0  0  0  0  0  0  0
   -2.9700   24.1386  -24.3273 C   0  0  0  0  0  0  0  0  0  0  0  0
   -2.3650   22.8612  -24.1131 O   0  0  0  0  0  0  0  0  0  0  0  0
   -4.1544   23.9879  -25.2480 C   0  0  0  0  0  0  0  0  0  0  0  0
   -4.8706   23.2014  -22.8462 H   0  0  0  0  0  0  0  0  0  0  0  0
   -3.0328   22.2377  -23.7872 H   0  0  0  0  0  0  0  0  0  0  0  0
   -3.6997   23.9990  -26.6424 N   0  0  0  0  0  0  0  0  0  0  0  0
   -3.0658   24.9919  -27.2819 C   0  0  0  0  0  0  0  0  0  0  0  0
   -2.8163   24.6374  -28.5672 N   0  0  0  0  0  0  0  0  0  0  0  0
   -3.3079   23.3927  -28.7555 C   0  0  0  0  0  0  0  0  0  0  0  0
   -3.3746   22.4175  -29.8768 C   0  0  0  0  0  0  0  0  0  0  0  0
   -2.8957   22.7008  -31.0139 O   0  0  0  0  0  0  0  0  0  0  0  0
   -3.9693   21.2339  -29.6301 N   0  0  0  0  0  0  0  0  0  0  0  0
   -4.4861   20.9282  -28.4163 C   0  0  0  0  0  0  0  0  0  0  0  0
   -5.0771   19.7333  -28.2328 N   0  0  0  0  0  0  0  0  0  0  0  0
   -4.4501   21.7659  -27.3464 N   0  0  0  0  0  0  0  0  0  0  0  0
   -3.8928   22.9895  -27.4755 C   0  0  0  0  0  0  0  0  0  0  0  0
   -4.0300   20.5705  -30.3549 H   0  0  0  0  0  0  0  0  0  0  0  0
   -5.1291   19.0905  -28.9767 H   0  0  0  0  0  0  0  0  0  0  0  0
   -5.4575   19.5019  -27.3547 H   0  0  0  0  0  0  0  0  0  0  0  0
   -4.3786   27.0147  -23.6289 C   0  0  0  0  0  0  0  0  0  0  0  0
   -4.4599   27.4885  -22.2833 O   0  0  0  0  0  0  0  0  0  0  0  0
   -5.5215   28.6653  -21.9736 P   0  0  0  0  0  0  0  0  0  0  0  0
   -4.7800   29.9433  -21.6929 O   0  0  0  0  0  0  0  0  0  0  0  0
   -6.5360   28.8643  -23.0797 O   0  0  0  0  0  0  0  0  0  0  0  0
   -7.1430   29.5808  -22.8366 H   0  0  0  0  0  0  0  0  0  0  0  0
   -6.2367   27.9773  -20.7067 O   0  0  0  0  0  0  0  0  0  0  0  0
   -7.1646   26.6697  -20.7495 P   0  0  0  0  0  0  0  0  0  0  0  0
   -8.1206   26.5245  -19.5797 O   0  0  0  0  0  0  0  0  0  0  0  0
   -7.9723   26.7815  -22.0239 O   0  0  0  0  0  0  0  0  0  0  0  0
   -6.2662   25.4447  -20.7958 O   0  0  0  0  0  0  0  0  0  0  0  0
   -8.5571   26.0119  -22.1046 H   0  0  0  0  0  0  0  0  0  0  0  0
   -6.8128   24.6437  -20.8221 H   0  0  0  0  0  0  0  0  0  0  0  0
 31 32  2  0  0  0
 31 33  1  0  0  0
 31 34  1  0  0  0
 31 30  1  0  0  0
 30 26  1  0  0  0
 26 27  2  0  0  0
 26 28  1  0  0  0
 26 25  1  0  0  0
 25 24  1  0  0  0
 24  1  1  0  0  0
  1  2  1  0  0  0
  1  3  1  0  0  0
  2  7  1  0  0  0
  3  4  1  0  0  0
  3  5  1  0  0  0
  5  6  1  0  0  0
  5  7  1  0  0  0
  7 10  1  0  0  0
 10 11  1  0  0  0
 10 20  1  0  0  0
 11 12  2  0  0  0
 12 13  1  0  0  0
 13 14  1  0  0  0
 13 20  2  0  0  0
 14 15  2  0  0  0
 14 16  1  0  0  0
 16 17  1  0  0  0
 17 18  1  0  0  0
 17 19  2  0  0  0
 19 20  1  0  0  0
 33 35  1  0  0  0
 34 36  1  0  0  0
 28 29  1  0  0  0
  4  8  1  0  0  0
  6  9  1  0  0  0
 16 21  1  0  0  0
 18 22  1  0  0  0
 18 23  1  0  0  0
M  END
> <minimizedAffinity>
-6.83381

$$$$
2WJG_GDP_A_200


 36 38  0  0  0  0  0  0  0  0999 V2000
   -6.2781   25.8200  -22.3375 C   0  0  0  0  0  0  0  0  0  0  0  0
   -6.0103   26.5415  -23.5461 O   0  0  0  0  0  0  0  0  0  0  0  0
   -5.0323   25.0164  -22.0222 C   0  0  0  0  0  0  0  0  0  0  0  0
   -5.2948   23.6838  -22.4658 O   0  0  0  0  0  0  0  0  0  0  0  0
   -3.9541   25.6604  -22.8635 C   0  0  0  0  0  0  0  0  0  0  0  0
   -2.9298   24.7576  -23.2872 O   0  0  0  0  0  0  0  0  0  0  0  0
   -4.7530   26.1140  -24.0589 C   0  0  0  0  0  0  0  0  0  0  0  0
   -5.5498   23.6989  -23.4016 H   0  0  0  0  0  0  0  0  0  0  0  0
   -3.3283   24.0280  -23.7869 H   0  0  0  0  0  0  0  0  0  0  0  0
   -4.0704   27.2364  -24.7113 N   0  0  0  0  0  0  0  0  0  0  0  0
   -2.9804   27.8858  -24.2792 C   0  0  0  0  0  0  0  0  0  0  0  0
   -2.6494   28.8747  -25.1467 N   0  0  0  0  0  0  0  0  0  0  0  0
   -3.5522   28.8616  -26.1523 C   0  0  0  0  0  0  0  0  0  0  0  0
   -3.7852   29.6328  -27.4028 C   0  0  0  0  0  0  0  0  0  0  0  0
   -3.0218   30.5886  -27.7287 O   0  0  0  0  0  0  0  0  0  0  0  0
   -4.8402   29.2748  -28.1604 N   0  0  0  0  0  0  0  0  0  0  0  0
   -5.6614   28.2554  -27.8137 C   0  0  0  0  0  0  0  0  0  0  0  0
   -6.7055   27.9505  -28.6061 N   0  0  0  0  0  0  0  0  0  0  0  0
   -5.5011   27.5030  -26.6931 N   0  0  0  0  0  0  0  0  0  0  0  0
   -4.4863   27.7772  -25.8448 C   0  0  0  0  0  0  0  0  0  0  0  0
   -5.0198   29.7699  -28.9922 H   0  0  0  0  0  0  0  0  0  0  0  0
   -6.8653   28.4657  -29.4297 H   0  0  0  0  0  0  0  0  0  0  0  0
   -7.3095   27.2123  -28.3623 H   0  0  0  0  0  0  0  0  0  0  0  0
   -6.5419   26.7914  -21.1999 C   0  0  0  0  0  0  0  0  0  0  0  0
   -7.7630   26.4185  -20.5581 O   0  0  0  0  0  0  0  0  0  0  0  0
   -7.7331   26.2375  -18.9538 P   0  0  0  0  0  0  0  0  0  0  0  0
   -8.1548   24.8371  -18.6030 O   0  0  0  0  0  0  0  0  0  0  0  0
   -6.3892   26.5643  -18.3382 O   0  0  0  0  0  0  0  0  0  0  0  0
   -6.4341   26.4373  -17.3776 H   0  0  0  0  0  0  0  0  0  0  0  0
   -8.7868   27.3983  -18.5901 O   0  0  0  0  0  0  0  0  0  0  0  0
   -8.8713   28.1842  -17.1944 P   0  0  0  0  0  0  0  0  0  0  0  0
   -7.7693   27.8525  -16.2051 O   0  0  0  0  0  0  0  0  0  0  0  0
   -8.7814   29.6533  -17.5448 O   0  0  0  0  0  0  0  0  0  0  0  0
  -10.2116   27.8732  -16.5487 O   0  0  0  0  0  0  0  0  0  0  0  0
   -8.8276   30.1826  -16.7332 H   0  0  0  0  0  0  0  0  0  0  0  0
  -10.2790   28.3416  -15.7019 H   0  0  0  0  0  0  0  0  0  0  0  0
 31 32  2  0  0  0
 31 33  1  0  0  0
 31 34  1  0  0  0
 31 30  1  0  0  0
 30 26  1  0  0  0
 26 27  2  0  0  0
 26 28  1  0  0  0
 26 25  1  0  0  0
 25 24  1  0  0  0
 24  1  1  0  0  0
  1  2  1  0  0  0
  1  3  1  0  0  0
  2  7  1  0  0  0
  3  4  1  0  0  0
  3  5  1  0  0  0
  5  6  1  0  0  0
  5  7  1  0  0  0
  7 10  1  0  0  0
 10 11  1  0  0  0
 10 20  1  0  0  0
 11 12  2  0  0  0
 12 13  1  0  0  0
 13 14  1  0  0  0
 13 20  2  0  0  0
 14 15  2  0  0  0
 14 16  1  0  0  0
 16 17  1  0  0  0
 17 18  1  0  0  0
 17 19  2  0  0  0
 19 20  1  0  0  0
 33 35  1  0  0  0
 34 36  1  0  0  0
 28 29  1  0  0  0
  4  8  1  0  0  0
  6  9  1  0  0  0
 16 21  1  0  0  0
 18 22  1  0  0  0
 18 23  1  0  0  0
M  END
> <minimizedAffinity>
-6.77712

$$$$
2WJG_GDP_A_200


 36 38  0  0  0  0  0  0  0  0999 V2000
   -3.5522   25.0044  -23.1621 C   0  0  0  0  0  0  0  0  0  0  0  0
   -4.2604   23.8953  -23.7291 O   0  0  0  0  0  0  0  0  0  0  0  0
   -3.2862   25.9782  -24.2926 C   0  0  0  0  0  0  0  0  0  0  0  0
   -1.9312   25.7642  -24.6924 O   0  0  0  0  0  0  0  0  0  0  0  0
   -4.2422   25.5497  -25.3823 C   0  0  0  0  0  0  0  0  0  0  0  0
   -3.7651   25.8003  -26.7065 O   0  0  0  0  0  0  0  0  0  0  0  0
   -4.3061   24.0626  -25.1420 C   0  0  0  0  0  0  0  0  0  0  0  0
   -1.8038   24.8288  -24.9154 H   0  0  0  0  0  0  0  0  0  0  0  0
   -2.9157   25.3498  -26.8347 H   0  0  0  0  0  0  0  0  0  0  0  0
   -5.5678   23.5316  -25.6687 N   0  0  0  0  0  0  0  0  0  0  0  0
   -6.8096   23.9198  -25.3465 C   0  0  0  0  0  0  0  0  0  0  0  0
   -7.7223   23.1881  -26.0331 N   0  0  0  0  0  0  0  0  0  0  0  0
   -7.0490   22.3076  -26.8064 C   0  0  0  0  0  0  0  0  0  0  0  0
   -7.3992   21.2451  -27.7867 C   0  0  0  0  0  0  0  0  0  0  0  0
   -8.6079   20.9803  -28.0541 O   0  0  0  0  0  0  0  0  0  0  0  0
   -6.3803   20.5795  -28.3648 N   0  0  0  0  0  0  0  0  0  0  0  0
   -5.0861   20.8571  -28.0789 C   0  0  0  0  0  0  0  0  0  0  0  0
   -4.1114   20.1513  -28.6812 N   0  0  0  0  0  0  0  0  0  0  0  0
   -4.6949   21.8203  -27.2033 N   0  0  0  0  0  0  0  0  0  0  0  0
   -5.6277   22.5451  -26.5481 C   0  0  0  0  0  0  0  0  0  0  0  0
   -6.5831   19.8691  -29.0155 H   0  0  0  0  0  0  0  0  0  0  0  0
   -4.3424   19.4422  -29.3239 H   0  0  0  0  0  0  0  0  0  0  0  0
   -3.1674   20.3440  -28.4790 H   0  0  0  0  0  0  0  0  0  0  0  0
   -4.4112   25.6875  -22.1118 C   0  0  0  0  0  0  0  0  0  0  0  0
   -4.4868   27.0802  -22.4226 O   0  0  0  0  0  0  0  0  0  0  0  0
   -5.3652   28.0132  -21.4400 P   0  0  0  0  0  0  0  0  0  0  0  0
   -5.8320   27.1981  -20.2655 O   0  0  0  0  0  0  0  0  0  0  0  0
   -4.6314   29.2535  -20.9759 O   0  0  0  0  0  0  0  0  0  0  0  0
   -5.2078   29.7705  -20.3916 H   0  0  0  0  0  0  0  0  0  0  0  0
   -6.5017   28.4275  -22.5014 O   0  0  0  0  0  0  0  0  0  0  0  0
   -6.3414   29.5137  -23.6707 P   0  0  0  0  0  0  0  0  0  0  0  0
   -5.5385   30.7455  -23.2947 O   0  0  0  0  0  0  0  0  0  0  0  0
   -5.6317   28.7993  -24.7998 O   0  0  0  0  0  0  0  0  0  0  0  0
   -7.7281   29.9548  -24.1098 O   0  0  0  0  0  0  0  0  0  0  0  0
   -5.5059   29.4116  -25.5415 H   0  0  0  0  0  0  0  0  0  0  0  0
   -7.6489   30.6130  -24.8179 H   0  0  0  0  0  0  0  0  0  0  0  0
 31 32  2  0  0  0
 31 33  1  0  0  0
 31 34  1  0  0  0
 31 30  1  0  0  0
 30 26  1  0  0  0
 26 27  2  0  0  0
 26 28  1  0  0  0
 26 25  1  0  0  0
 25 24  1  0  0  0
 24  1  1  0  0  0
  1  2  1  0  0  0
  1  3  1  0  0  0
  2  7  1  0  0  0
  3  4  1  0  0  0
  3  5  1  0  0  0
  5  6  1  0  0  0
  5  7  1  0  0  0
  7 10  1  0  0  0
 10 11  1  0  0  0
 10 20  1  0  0  0
 11 12  2  0  0  0
 12 13  1  0  0  0
 13 14  1  0  0  0
 13 20  2  0  0  0
 14 15  2  0  0  0
 14 16  1  0  0  0
 16 17  1  0  0  0
 17 18  1  0  0  0
 17 19  2  0  0  0
 19 20  1  0  0  0
 33 35  1  0  0  0
 34 36  1  0  0  0
 28 29  1  0  0  0
  4  8  1  0  0  0
  6  9  1  0  0  0
 16 21  1  0  0  0
 18 22  1  0  0  0
 18 23  1  0  0  0
M  END
> <minimizedAffinity>
-6.66376

$$$$
2WJG_GDP_A_200


 36 38  0  0  0  0  0  0  0  0999 V2000
   -6.7878   28.0420  -18.7078 C   0  0  0  0  0  0  0  0  0  0  0  0
   -6.1018   28.6395  -19.8149 O   0  0  0  0  0  0  0  0  0  0  0  0
   -7.0020   26.5837  -19.0610 C   0  0  0  0  0  0  0  0  0  0  0  0
   -8.3545   26.4767  -19.5091 O   0  0  0  0  0  0  0  0  0  0  0  0
   -6.0376   26.3331  -20.1978 C   0  0  0  0  0  0  0  0  0  0  0  0
   -6.4806   25.3427  -21.1288 O   0  0  0  0  0  0  0  0  0  0  0  0
   -6.0230   27.6840  -20.8671 C   0  0  0  0  0  0  0  0  0  0  0  0
   -8.5054   27.1030  -20.2342 H   0  0  0  0  0  0  0  0  0  0  0  0
   -7.3404   25.6039  -21.4941 H   0  0  0  0  0  0  0  0  0  0  0  0
   -4.7675   27.8549  -21.6058 N   0  0  0  0  0  0  0  0  0  0  0  0
   -3.6478   28.4534  -21.1764 C   0  0  0  0  0  0  0  0  0  0  0  0
   -2.7001   28.4260  -22.1465 N   0  0  0  0  0  0  0  0  0  0  0  0
   -3.2283   27.8022  -23.2227 C   0  0  0  0  0  0  0  0  0  0  0  0
   -2.7667   27.4264  -24.5860 C   0  0  0  0  0  0  0  0  0  0  0  0
   -1.5988   27.7158  -24.9795 O   0  0  0  0  0  0  0  0  0  0  0  0
   -3.6434   26.7770  -25.3766 N   0  0  0  0  0  0  0  0  0  0  0  0
   -4.8948   26.4687  -24.9609 C   0  0  0  0  0  0  0  0  0  0  0  0
   -5.7293   25.8275  -25.7996 N   0  0  0  0  0  0  0  0  0  0  0  0
   -5.3777   26.7715  -23.7270 N   0  0  0  0  0  0  0  0  0  0  0  0
   -4.5961   27.4374  -22.8494 C   0  0  0  0  0  0  0  0  0  0  0  0
   -3.3655   26.5186  -26.2850 H   0  0  0  0  0  0  0  0  0  0  0  0
   -5.4274   25.5857  -26.7049 H   0  0  0  0  0  0  0  0  0  0  0  0
   -6.6417   25.6003  -25.5078 H   0  0  0  0  0  0  0  0  0  0  0  0
   -5.9298   28.1279  -17.4572 C   0  0  0  0  0  0  0  0  0  0  0  0
   -6.7694   28.4714  -16.3531 O   0  0  0  0  0  0  0  0  0  0  0  0
   -7.0450   27.3281  -15.2465 P   0  0  0  0  0  0  0  0  0  0  0  0
   -7.2303   26.0037  -15.9346 O   0  0  0  0  0  0  0  0  0  0  0  0
   -5.9615   27.2395  -14.1929 O   0  0  0  0  0  0  0  0  0  0  0  0
   -6.1825   26.5385  -13.5599 H   0  0  0  0  0  0  0  0  0  0  0  0
   -8.3702   27.9736  -14.6007 O   0  0  0  0  0  0  0  0  0  0  0  0
   -9.6997   28.3814  -15.4000 P   0  0  0  0  0  0  0  0  0  0  0  0
   -9.8647   29.8689  -15.6516 O   0  0  0  0  0  0  0  0  0  0  0  0
   -9.6107   27.6718  -16.7332 O   0  0  0  0  0  0  0  0  0  0  0  0
  -10.9031   27.8866  -14.6143 O   0  0  0  0  0  0  0  0  0  0  0  0
  -10.3943   27.8825  -17.2646 H   0  0  0  0  0  0  0  0  0  0  0  0
  -11.7169   28.1255  -15.0850 H   0  0  0  0  0  0  0  0  0  0  0  0
 31 32  2  0  0  0
 31 33  1  0  0  0
 31 34  1  0  0  0
 31 30  1  0  0  0
 30 26  1  0  0  0
 26 27  2  0  0  0
 26 28  1  0  0  0
 26 25  1  0  0  0
 25 24  1  0  0  0
 24  1  1  0  0  0
  1  2  1  0  0  0
  1  3  1  0  0  0
  2  7  1  0  0  0
  3  4  1  0  0  0
  3  5  1  0  0  0
  5  6  1  0  0  0
  5  7  1  0  0  0
  7 10  1  0  0  0
 10 11  1  0  0  0
 10 20  1  0  0  0
 11 12  2  0  0  0
 12 13  1  0  0  0
 13 14  1  0  0  0
 13 20  2  0  0  0
 14 15  2  0  0  0
 14 16  1  0  0  0
 16 17  1  0  0  0
 17 18  1  0  0  0
 17 19  2  0  0  0
 19 20  1  0  0  0
 33 35  1  0  0  0
 34 36  1  0  0  0
 28 29  1  0  0  0
  4  8  1  0  0  0
  6  9  1  0  0  0
 16 21  1  0  0  0
 18 22  1  0  0  0
 18 23  1  0  0  0
M  END
> <minimizedAffinity>
-6.64294

$$$$
2WJG_GDP_A_200


 36 38  0  0  0  0  0  0  0  0999 V2000
   -3.9428   25.2554  -22.7453 C   0  0  0  0  0  0  0  0  0  0  0  0
   -3.7246   23.9623  -23.3225 O   0  0  0  0  0  0  0  0  0  0  0  0
   -3.5060   26.2752  -23.7780 C   0  0  0  0  0  0  0  0  0  0  0  0
   -2.2004   26.7042  -23.3869 O   0  0  0  0  0  0  0  0  0  0  0  0
   -3.4501   25.4924  -25.0700 C   0  0  0  0  0  0  0  0  0  0  0  0
   -2.4691   25.9667  -25.9955 O   0  0  0  0  0  0  0  0  0  0  0  0
   -3.0497   24.1295  -24.5647 C   0  0  0  0  0  0  0  0  0  0  0  0
   -1.6195   25.9325  -23.2982 H   0  0  0  0  0  0  0  0  0  0  0  0
   -1.5944   25.9499  -25.5765 H   0  0  0  0  0  0  0  0  0  0  0  0
   -3.4885   23.1025  -25.5153 N   0  0  0  0  0  0  0  0  0  0  0  0
   -2.7218   22.2121  -26.1602 C   0  0  0  0  0  0  0  0  0  0  0  0
   -3.4856   21.4315  -26.9647 N   0  0  0  0  0  0  0  0  0  0  0  0
   -4.7685   21.8366  -26.8366 C   0  0  0  0  0  0  0  0  0  0  0  0
   -6.0871   21.4362  -27.3967 C   0  0  0  0  0  0  0  0  0  0  0  0
   -6.1777   20.4912  -28.2341 O   0  0  0  0  0  0  0  0  0  0  0  0
   -7.1682   22.1245  -26.9809 N   0  0  0  0  0  0  0  0  0  0  0  0
   -7.0754   23.1384  -26.0880 C   0  0  0  0  0  0  0  0  0  0  0  0
   -8.1898   23.7957  -25.7180 N   0  0  0  0  0  0  0  0  0  0  0  0
   -5.9065   23.5487  -25.5288 N   0  0  0  0  0  0  0  0  0  0  0  0
   -4.7505   22.9447  -25.8800 C   0  0  0  0  0  0  0  0  0  0  0  0
   -8.0535   21.8827  -27.3375 H   0  0  0  0  0  0  0  0  0  0  0  0
   -9.0619   23.5369  -26.0944 H   0  0  0  0  0  0  0  0  0  0  0  0
   -8.1330   24.5354  -25.0708 H   0  0  0  0  0  0  0  0  0  0  0  0
   -5.4203   25.4505  -22.4508 C   0  0  0  0  0  0  0  0  0  0  0  0
   -5.5675   25.7870  -21.0698 O   0  0  0  0  0  0  0  0  0  0  0  0
   -6.9919   26.3848  -20.5994 P   0  0  0  0  0  0  0  0  0  0  0  0
   -7.7356   26.9018  -21.8001 O   0  0  0  0  0  0  0  0  0  0  0  0
   -7.8361   25.3898  -19.8317 O   0  0  0  0  0  0  0  0  0  0  0  0
   -8.6749   25.8055  -19.5778 H   0  0  0  0  0  0  0  0  0  0  0  0
   -6.4287   27.5036  -19.5890 O   0  0  0  0  0  0  0  0  0  0  0  0
   -6.9499   27.7651  -18.0947 P   0  0  0  0  0  0  0  0  0  0  0  0
   -6.4019   26.8110  -17.0494 O   0  0  0  0  0  0  0  0  0  0  0  0
   -6.5091   29.1699  -17.7466 O   0  0  0  0  0  0  0  0  0  0  0  0
   -8.4667   27.6681  -18.0914 O   0  0  0  0  0  0  0  0  0  0  0  0
   -6.7987   29.3858  -16.8463 H   0  0  0  0  0  0  0  0  0  0  0  0
   -8.7986   27.8241  -17.1934 H   0  0  0  0  0  0  0  0  0  0  0  0
 31 32  2  0  0  0
 31 33  1  0  0  0
 31 34  1  0  0  0
 31 30  1  0  0  0
 30 26  1  0  0  0
 26 27  2  0  0  0
 26 28  1  0  0  0
 26 25  1  0  0  0
 25 24  1  0  0  0
 24  1  1  0  0  0
  1  2  1  0  0  0
  1  3  1  0  0  0
  2  7  1  0  0  0
  3  4  1  0  0  0
  3  5  1  0  0  0
  5  6  1  0  0  0
  5  7  1  0  0  0
  7 10  1  0  0  0
 10 11  1  0  0  0
 10 20  1  0  0  0
 11 12  2  0  0  0
 12 13  1  0  0  0
 13 14  1  0  0  0
 13 20  2  0  0  0
 14 15  2  0  0  0
 14 16  1  0  0  0
 16 17  1  0  0  0
 17 18  1  0  0  0
 17 19  2  0  0  0
 19 20  1  0  0  0
 33 35  1  0  0  0
 34 36  1  0  0  0
 28 29  1  0  0  0
  4  8  1  0  0  0
  6  9  1  0  0  0
 16 21  1  0  0  0
 18 22  1  0  0  0
 18 23  1  0  0  0
M  END
> <minimizedAffinity>
-6.63268

$$$$
2WJG_GDP_A_200


 36 38  0  0  0  0  0  0  0  0999 V2000
   -6.4771   27.7482  -20.3969 C   0  0  0  0  0  0  0  0  0  0  0  0
   -6.2199   27.9676  -21.7893 O   0  0  0  0  0  0  0  0  0  0  0  0
   -6.2535   26.2716  -20.1378 C   0  0  0  0  0  0  0  0  0  0  0  0
   -7.5494   25.6702  -20.1160 O   0  0  0  0  0  0  0  0  0  0  0  0
   -5.4627   25.8013  -21.3372 C   0  0  0  0  0  0  0  0  0  0  0  0
   -5.7018   24.4375  -21.6932 O   0  0  0  0  0  0  0  0  0  0  0  0
   -6.0056   26.7065  -22.4139 C   0  0  0  0  0  0  0  0  0  0  0  0
   -8.0163   25.8781  -20.9404 H   0  0  0  0  0  0  0  0  0  0  0  0
   -6.6475   24.3097  -21.8670 H   0  0  0  0  0  0  0  0  0  0  0  0
   -5.0174   26.8417  -23.4892 N   0  0  0  0  0  0  0  0  0  0  0  0
   -4.1163   27.8215  -23.6455 C   0  0  0  0  0  0  0  0  0  0  0  0
   -3.3822   27.6088  -24.7661 N   0  0  0  0  0  0  0  0  0  0  0  0
   -3.8287   26.4711  -25.3429 C   0  0  0  0  0  0  0  0  0  0  0  0
   -3.4881   25.6664  -26.5467 C   0  0  0  0  0  0  0  0  0  0  0  0
   -2.5670   26.0328  -27.3341 O   0  0  0  0  0  0  0  0  0  0  0  0
   -4.2037   24.5452  -26.7616 N   0  0  0  0  0  0  0  0  0  0  0  0
   -5.1922   24.1516  -25.9239 C   0  0  0  0  0  0  0  0  0  0  0  0
   -5.8791   23.0270  -26.1964 N   0  0  0  0  0  0  0  0  0  0  0  0
   -5.5481   24.8316  -24.8021 N   0  0  0  0  0  0  0  0  0  0  0  0
   -4.9125   25.9816  -24.4891 C   0  0  0  0  0  0  0  0  0  0  0  0
   -4.0016   23.9948  -27.5524 H   0  0  0  0  0  0  0  0  0  0  0  0
   -5.6599   22.4982  -26.9974 H   0  0  0  0  0  0  0  0  0  0  0  0
   -6.6008   22.7330  -25.5947 H   0  0  0  0  0  0  0  0  0  0  0  0
   -5.5010   28.5520  -19.5551 C   0  0  0  0  0  0  0  0  0  0  0  0
   -5.8640   28.4113  -18.1802 O   0  0  0  0  0  0  0  0  0  0  0  0
   -6.5242   29.6924  -17.4520 P   0  0  0  0  0  0  0  0  0  0  0  0
   -5.4656   30.4213  -16.6709 O   0  0  0  0  0  0  0  0  0  0  0  0
   -7.2271   30.6307  -18.4098 O   0  0  0  0  0  0  0  0  0  0  0  0
   -7.6013   31.3768  -17.9155 H   0  0  0  0  0  0  0  0  0  0  0  0
   -7.6181   28.8989  -16.5781 O   0  0  0  0  0  0  0  0  0  0  0  0
   -9.0721   28.4467  -17.0821 P   0  0  0  0  0  0  0  0  0  0  0  0
   -9.0721   27.3956  -18.1768 O   0  0  0  0  0  0  0  0  0  0  0  0
   -9.7696   27.8787  -15.8656 O   0  0  0  0  0  0  0  0  0  0  0  0
   -9.8077   29.6757  -17.5906 O   0  0  0  0  0  0  0  0  0  0  0  0
  -10.6612   27.5862  -16.1112 H   0  0  0  0  0  0  0  0  0  0  0  0
  -10.6906   29.4192  -17.8997 H   0  0  0  0  0  0  0  0  0  0  0  0
 31 32  2  0  0  0
 31 33  1  0  0  0
 31 34  1  0  0  0
 31 30  1  0  0  0
 30 26  1  0  0  0
 26 27  2  0  0  0
 26 28  1  0  0  0
 26 25  1  0  0  0
 25 24  1  0  0  0
 24  1  1  0  0  0
  1  2  1  0  0  0
  1  3  1  0  0  0
  2  7  1  0  0  0
  3  4  1  0  0  0
  3  5  1  0  0  0
  5  6  1  0  0  0
  5  7  1  0  0  0
  7 10  1  0  0  0
 10 11  1  0  0  0
 10 20  1  0  0  0
 11 12  2  0  0  0
 12 13  1  0  0  0
 13 14  1  0  0  0
 13 20  2  0  0  0
 14 15  2  0  0  0
 14 16  1  0  0  0
 16 17  1  0  0  0
 17 18  1  0  0  0
 17 19  2  0  0  0
 19 20  1  0  0  0
 33 35  1  0  0  0
 34 36  1  0  0  0
 28 29  1  0  0  0
  4  8  1  0  0  0
  6  9  1  0  0  0
 16 21  1  0  0  0
 18 22  1  0  0  0
 18 23  1  0  0  0
M  END
> <minimizedAffinity>
-6.45658

$$$$
