2V58_LZJ_A_1448


 24 26  0  0  0  0  0  0  0  0999 V2000
    4.3731  -22.0204   24.6175 C   0  0  0  0  0  0  0  0  0  0  0  0
    3.3242  -22.5076   25.4039 C   0  0  0  0  0  0  0  0  0  0  0  0
    2.8944  -23.8257   25.2191 C   0  0  0  0  0  0  0  0  0  0  0  0
    1.8540  -24.3686   25.9734 C   0  0  0  0  0  0  0  0  0  0  0  0
    1.4741  -25.6431   25.7676 N   0  0  0  0  0  0  0  0  0  0  0  0
    4.9558  -22.8647   23.6655 C   0  0  0  0  0  0  0  0  0  0  0  0
    5.9690  -22.4353   22.8754 N   0  0  0  0  0  0  0  0  0  0  0  0
    4.5219  -24.1387   23.5082 N   0  0  0  0  0  0  0  0  0  0  0  0
    3.5113  -24.6295   24.2616 C   0  0  0  0  0  0  0  0  0  0  0  0
    3.0976  -25.9061   24.0846 N   0  0  0  0  0  0  0  0  0  0  0  0
    2.0845  -26.4112   24.8281 C   0  0  0  0  0  0  0  0  0  0  0  0
    1.6951  -27.6945   24.6324 N   0  0  0  0  0  0  0  0  0  0  0  0
    6.3071  -21.5150   22.9650 H   0  0  0  0  0  0  0  0  0  0  0  0
    6.3673  -23.0435   22.2115 H   0  0  0  0  0  0  0  0  0  0  0  0
    0.9599  -28.0728   25.1668 H   0  0  0  0  0  0  0  0  0  0  0  0
    2.1475  -28.2484   23.9557 H   0  0  0  0  0  0  0  0  0  0  0  0
    7.0296  -21.6945   26.3265 Br  0  0  0  0  0  0  0  0  0  0  0  0
    6.0428  -20.3347   25.4651 C   0  0  0  0  0  0  0  0  0  0  0  0
    6.5111  -19.0265   25.5689 C   0  0  0  0  0  0  0  0  0  0  0  0
    5.8228  -17.9853   24.9598 C   0  0  0  0  0  0  0  0  0  0  0  0
    4.6630  -18.2581   24.2440 C   0  0  0  0  0  0  0  0  0  0  0  0
    4.1957  -19.5671   24.1382 C   0  0  0  0  0  0  0  0  0  0  0  0
    2.6121  -19.8670   23.1579 Br  0  0  0  0  0  0  0  0  0  0  0  0
    4.8760  -20.6175   24.7522 C   0  0  0  0  0  0  0  0  0  0  0  0
 17 18  1  0  0  0
 18 19  1  0  0  0
 18 24  2  0  0  0
 19 20  2  0  0  0
 20 21  1  0  0  0
 21 22  2  0  0  0
 22 23  1  0  0  0
 22 24  1  0  0  0
 24  1  1  0  0  0
  1  2  1  0  0  0
  1  6  2  0  0  0
  2  3  2  0  0  0
  3  4  1  0  0  0
  3  9  1  0  0  0
  4  5  2  0  0  0
  5 11  1  0  0  0
  6  7  1  0  0  0
  6  8  1  0  0  0
  8  9  2  0  0  0
  9 10  1  0  0  0
 10 11  2  0  0  0
 11 12  1  0  0  0
  7 13  1  0  0  0
  7 14  1  0  0  0
 12 15  1  0  0  0
 12 16  1  0  0  0
M  END
> <minimizedAffinity>
-9.02524

$$$$
2V58_LZJ_A_1448


 24 26  0  0  0  0  0  0  0  0999 V2000
    4.4256  -22.0059   24.6214 C   0  0  0  0  0  0  0  0  0  0  0  0
    3.3751  -22.4826   25.4119 C   0  0  0  0  0  0  0  0  0  0  0  0
    2.9231  -23.7923   25.2202 C   0  0  0  0  0  0  0  0  0  0  0  0
    1.8798  -24.3246   25.9780 C   0  0  0  0  0  0  0  0  0  0  0  0
    1.4783  -25.5913   25.7652 N   0  0  0  0  0  0  0  0  0  0  0  0
    4.9879  -22.8518   23.6586 C   0  0  0  0  0  0  0  0  0  0  0  0
    6.0019  -22.4322   22.8642 N   0  0  0  0  0  0  0  0  0  0  0  0
    4.5328  -24.1176   23.4947 N   0  0  0  0  0  0  0  0  0  0  0  0
    3.5201  -24.5983   24.2519 C   0  0  0  0  0  0  0  0  0  0  0  0
    3.0850  -25.8668   24.0681 N   0  0  0  0  0  0  0  0  0  0  0  0
    2.0695  -26.3616   24.8154 C   0  0  0  0  0  0  0  0  0  0  0  0
    1.6585  -27.6370   24.6126 N   0  0  0  0  0  0  0  0  0  0  0  0
    6.3551  -21.5181   22.9584 H   0  0  0  0  0  0  0  0  0  0  0  0
    6.3856  -23.0414   22.1928 H   0  0  0  0  0  0  0  0  0  0  0  0
    0.9214  -28.0079   25.1496 H   0  0  0  0  0  0  0  0  0  0  0  0
    2.0970  -28.1927   23.9284 H   0  0  0  0  0  0  0  0  0  0  0  0
    2.6987  -19.7568   23.1919 Br  0  0  0  0  0  0  0  0  0  0  0  0
    4.2811  -19.5267   24.1959 C   0  0  0  0  0  0  0  0  0  0  0  0
    4.7709  -18.2315   24.3494 C   0  0  0  0  0  0  0  0  0  0  0  0
    5.9340  -18.0032   25.0734 C   0  0  0  0  0  0  0  0  0  0  0  0
    6.6056  -19.0772   25.6457 C   0  0  0  0  0  0  0  0  0  0  0  0
    6.1142  -20.3729   25.4941 C   0  0  0  0  0  0  0  0  0  0  0  0
    7.0778  -21.7856   26.2905 Br  0  0  0  0  0  0  0  0  0  0  0  0
    4.9517  -20.6121   24.7631 C   0  0  0  0  0  0  0  0  0  0  0  0
 17 18  1  0  0  0
 18 19  1  0  0  0
 18 24  2  0  0  0
 19 20  2  0  0  0
 20 21  1  0  0  0
 21 22  2  0  0  0
 22 23  1  0  0  0
 22 24  1  0  0  0
 24  1  1  0  0  0
  1  2  1  0  0  0
  1  6  2  0  0  0
  2  3  2  0  0  0
  3  4  1  0  0  0
  3  9  1  0  0  0
  4  5  2  0  0  0
  5 11  1  0  0  0
  6  7  1  0  0  0
  6  8  1  0  0  0
  8  9  2  0  0  0
  9 10  1  0  0  0
 10 11  2  0  0  0
 11 12  1  0  0  0
  7 13  1  0  0  0
  7 14  1  0  0  0
 12 15  1  0  0  0
 12 16  1  0  0  0
M  END
> <minimizedAffinity>
-9.02117

$$$$
2V58_LZJ_A_1448


 24 26  0  0  0  0  0  0  0  0999 V2000
    4.2896  -20.6961   24.1302 C   0  0  0  0  0  0  0  0  0  0  0  0
    3.2029  -20.2126   23.3946 C   0  0  0  0  0  0  0  0  0  0  0  0
    2.9507  -18.8369   23.3831 C   0  0  0  0  0  0  0  0  0  0  0  0
    1.8829  -18.2947   22.6677 C   0  0  0  0  0  0  0  0  0  0  0  0
    1.6779  -16.9646   22.6790 N   0  0  0  0  0  0  0  0  0  0  0  0
    5.0872  -19.7892   24.8374 C   0  0  0  0  0  0  0  0  0  0  0  0
    6.1457  -20.2110   25.5702 N   0  0  0  0  0  0  0  0  0  0  0  0
    4.8224  -18.4606   24.8076 N   0  0  0  0  0  0  0  0  0  0  0  0
    3.7783  -17.9731   24.0991 C   0  0  0  0  0  0  0  0  0  0  0  0
    3.5363  -16.6414   24.0859 N   0  0  0  0  0  0  0  0  0  0  0  0
    2.4926  -16.1380   23.3847 C   0  0  0  0  0  0  0  0  0  0  0  0
    2.2779  -14.7998   23.3857 N   0  0  0  0  0  0  0  0  0  0  0  0
    6.3646  -21.1700   25.6122 H   0  0  0  0  0  0  0  0  0  0  0  0
    6.6962  -19.5585   26.0606 H   0  0  0  0  0  0  0  0  0  0  0  0
    1.5225  -14.4221   22.8797 H   0  0  0  0  0  0  0  0  0  0  0  0
    2.8773  -14.2055   23.8924 H   0  0  0  0  0  0  0  0  0  0  0  0
    6.8631  -21.5904   22.4989 Br  0  0  0  0  0  0  0  0  0  0  0  0
    5.7246  -22.6806   23.5381 C   0  0  0  0  0  0  0  0  0  0  0  0
    6.0242  -24.0387   23.6226 C   0  0  0  0  0  0  0  0  0  0  0  0
    5.2185  -24.8891   24.3687 C   0  0  0  0  0  0  0  0  0  0  0  0
    4.1109  -24.3748   25.0325 C   0  0  0  0  0  0  0  0  0  0  0  0
    3.8124  -23.0156   24.9499 C   0  0  0  0  0  0  0  0  0  0  0  0
    2.2910  -22.3842   25.8692 Br  0  0  0  0  0  0  0  0  0  0  0  0
    4.6113  -22.1560   24.1976 C   0  0  0  0  0  0  0  0  0  0  0  0
 17 18  1  0  0  0
 18 19  1  0  0  0
 18 24  2  0  0  0
 19 20  2  0  0  0
 20 21  1  0  0  0
 21 22  2  0  0  0
 22 23  1  0  0  0
 22 24  1  0  0  0
 24  1  1  0  0  0
  1  2  1  0  0  0
  1  6  2  0  0  0
  2  3  2  0  0  0
  3  4  1  0  0  0
  3  9  1  0  0  0
  4  5  2  0  0  0
  5 11  1  0  0  0
  6  7  1  0  0  0
  6  8  1  0  0  0
  8  9  2  0  0  0
  9 10  1  0  0  0
 10 11  2  0  0  0
 11 12  1  0  0  0
  7 13  1  0  0  0
  7 14  1  0  0  0
 12 15  1  0  0  0
 12 16  1  0  0  0
M  END
> <minimizedAffinity>
-6.32541

$$$$
2V58_LZJ_A_1448


 24 26  0  0  0  0  0  0  0  0999 V2000
    4.3464  -20.7401   24.1469 C   0  0  0  0  0  0  0  0  0  0  0  0
    3.2728  -20.2512   23.3958 C   0  0  0  0  0  0  0  0  0  0  0  0
    3.0211  -18.8754   23.3892 C   0  0  0  0  0  0  0  0  0  0  0  0
    1.9660  -18.3280   22.6590 C   0  0  0  0  0  0  0  0  0  0  0  0
    1.7611  -16.9981   22.6757 N   0  0  0  0  0  0  0  0  0  0  0  0
    5.1317  -19.8383   24.8740 C   0  0  0  0  0  0  0  0  0  0  0  0
    6.1773  -20.2653   25.6223 N   0  0  0  0  0  0  0  0  0  0  0  0
    4.8678  -18.5094   24.8487 N   0  0  0  0  0  0  0  0  0  0  0  0
    3.8363  -18.0168   24.1254 C   0  0  0  0  0  0  0  0  0  0  0  0
    3.5948  -16.6849   24.1169 N   0  0  0  0  0  0  0  0  0  0  0  0
    2.5636  -16.1764   23.4010 C   0  0  0  0  0  0  0  0  0  0  0  0
    2.3492  -14.8383   23.4073 N   0  0  0  0  0  0  0  0  0  0  0  0
    6.3951  -21.2246   25.6617 H   0  0  0  0  0  0  0  0  0  0  0  0
    6.7192  -19.6164   26.1267 H   0  0  0  0  0  0  0  0  0  0  0  0
    1.6029  -14.4569   22.8909 H   0  0  0  0  0  0  0  0  0  0  0  0
    2.9398  -14.2475   23.9284 H   0  0  0  0  0  0  0  0  0  0  0  0
    2.3692  -22.4825   25.9186 Br  0  0  0  0  0  0  0  0  0  0  0  0
    3.8694  -23.0829   24.9420 C   0  0  0  0  0  0  0  0  0  0  0  0
    4.1672  -24.4434   24.9791 C   0  0  0  0  0  0  0  0  0  0  0  0
    5.2620  -24.9405   24.2839 C   0  0  0  0  0  0  0  0  0  0  0  0
    6.0583  -24.0703   23.5488 C   0  0  0  0  0  0  0  0  0  0  0  0
    5.7591  -22.7093   23.5097 C   0  0  0  0  0  0  0  0  0  0  0  0
    6.8844  -21.5825   22.4987 Br  0  0  0  0  0  0  0  0  0  0  0  0
    4.6665  -22.2005   24.2101 C   0  0  0  0  0  0  0  0  0  0  0  0
 17 18  1  0  0  0
 18 19  1  0  0  0
 18 24  2  0  0  0
 19 20  2  0  0  0
 20 21  1  0  0  0
 21 22  2  0  0  0
 22 23  1  0  0  0
 22 24  1  0  0  0
 24  1  1  0  0  0
  1  2  1  0  0  0
  1  6  2  0  0  0
  2  3  2  0  0  0
  3  4  1  0  0  0
  3  9  1  0  0  0
  4  5  2  0  0  0
  5 11  1  0  0  0
  6  7  1  0  0  0
  6  8  1  0  0  0
  8  9  2  0  0  0
  9 10  1  0  0  0
 10 11  2  0  0  0
 11 12  1  0  0  0
  7 13  1  0  0  0
  7 14  1  0  0  0
 12 15  1  0  0  0
 12 16  1  0  0  0
M  END
> <minimizedAffinity>
-6.30176

$$$$
2V58_LZJ_A_1448


 24 26  0  0  0  0  0  0  0  0999 V2000
    4.4405  -22.0368   24.8848 C   0  0  0  0  0  0  0  0  0  0  0  0
    5.4782  -21.7726   25.7843 C   0  0  0  0  0  0  0  0  0  0  0  0
    6.2784  -20.6433   25.5830 C   0  0  0  0  0  0  0  0  0  0  0  0
    7.3276  -20.3267   26.4462 C   0  0  0  0  0  0  0  0  0  0  0  0
    8.0708  -19.2278   26.2195 N   0  0  0  0  0  0  0  0  0  0  0  0
    4.2390  -21.1666   23.8073 C   0  0  0  0  0  0  0  0  0  0  0  0
    3.2518  -21.3854   22.9056 N   0  0  0  0  0  0  0  0  0  0  0  0
    5.0274  -20.0778   23.6364 N   0  0  0  0  0  0  0  0  0  0  0  0
    6.0337  -19.8032   24.4976 C   0  0  0  0  0  0  0  0  0  0  0  0
    6.8061  -18.7086   24.3042 N   0  0  0  0  0  0  0  0  0  0  0  0
    7.8201  -18.4220   25.1551 C   0  0  0  0  0  0  0  0  0  0  0  0
    8.5734  -17.3163   24.9392 N   0  0  0  0  0  0  0  0  0  0  0  0
    2.6618  -22.1676   23.0018 H   0  0  0  0  0  0  0  0  0  0  0  0
    3.1244  -20.7621   22.1543 H   0  0  0  0  0  0  0  0  0  0  0  0
    9.3132  -17.0975   25.5509 H   0  0  0  0  0  0  0  0  0  0  0  0
    8.3809  -16.7318   24.1707 H   0  0  0  0  0  0  0  0  0  0  0  0
    1.6384  -21.4799   26.2711 Br  0  0  0  0  0  0  0  0  0  0  0  0
    2.2871  -23.1252   25.6101 C   0  0  0  0  0  0  0  0  0  0  0  0
    1.4625  -24.2424   25.7251 C   0  0  0  0  0  0  0  0  0  0  0  0
    1.8899  -25.4797   25.2608 C   0  0  0  0  0  0  0  0  0  0  0  0
    3.1467  -25.5952   24.6786 C   0  0  0  0  0  0  0  0  0  0  0  0
    3.9708  -24.4770   24.5615 C   0  0  0  0  0  0  0  0  0  0  0  0
    5.6668  -24.7044   23.7676 Br  0  0  0  0  0  0  0  0  0  0  0  0
    3.5531  -23.2328   25.0311 C   0  0  0  0  0  0  0  0  0  0  0  0
 17 18  1  0  0  0
 18 19  1  0  0  0
 18 24  2  0  0  0
 19 20  2  0  0  0
 20 21  1  0  0  0
 21 22  2  0  0  0
 22 23  1  0  0  0
 22 24  1  0  0  0
 24  1  1  0  0  0
  1  2  1  0  0  0
  1  6  2  0  0  0
  2  3  2  0  0  0
  3  4  1  0  0  0
  3  9  1  0  0  0
  4  5  2  0  0  0
  5 11  1  0  0  0
  6  7  1  0  0  0
  6  8  1  0  0  0
  8  9  2  0  0  0
  9 10  1  0  0  0
 10 11  2  0  0  0
 11 12  1  0  0  0
  7 13  1  0  0  0
  7 14  1  0  0  0
 12 15  1  0  0  0
 12 16  1  0  0  0
M  END
> <minimizedAffinity>
-6.24883

$$$$
2V58_LZJ_A_1448


 24 26  0  0  0  0  0  0  0  0999 V2000
    5.9481  -20.7881   24.3941 C   0  0  0  0  0  0  0  0  0  0  0  0
    6.4396  -19.8864   25.3434 C   0  0  0  0  0  0  0  0  0  0  0  0
    7.6601  -19.2471   25.1025 C   0  0  0  0  0  0  0  0  0  0  0  0
    8.2014  -18.3374   26.0110 C   0  0  0  0  0  0  0  0  0  0  0  0
    9.3763  -17.7402   25.7388 N   0  0  0  0  0  0  0  0  0  0  0  0
    6.6957  -21.0278   23.2355 C   0  0  0  0  0  0  0  0  0  0  0  0
    6.2643  -21.8983   22.2913 N   0  0  0  0  0  0  0  0  0  0  0  0
    7.8744  -20.3932   23.0254 N   0  0  0  0  0  0  0  0  0  0  0  0
    8.3648  -19.5149   23.9298 C   0  0  0  0  0  0  0  0  0  0  0  0
    9.5445  -18.8942   23.6950 N   0  0  0  0  0  0  0  0  0  0  0  0
   10.0509  -18.0152   24.5924 C   0  0  0  0  0  0  0  0  0  0  0  0
   11.2318  -17.4050   24.3279 N   0  0  0  0  0  0  0  0  0  0  0  0
    5.4119  -22.3753   22.4143 H   0  0  0  0  0  0  0  0  0  0  0  0
    6.8032  -22.0538   21.4822 H   0  0  0  0  0  0  0  0  0  0  0  0
   11.6099  -16.7642   24.9725 H   0  0  0  0  0  0  0  0  0  0  0  0
   11.7114  -17.6025   23.4911 H   0  0  0  0  0  0  0  0  0  0  0  0
    6.2304  -23.8225   25.2865 Br  0  0  0  0  0  0  0  0  0  0  0  0
    4.6364  -22.8528   24.9979 C   0  0  0  0  0  0  0  0  0  0  0  0
    3.4271  -23.5161   25.1954 C   0  0  0  0  0  0  0  0  0  0  0  0
    2.2232  -22.8539   24.9928 C   0  0  0  0  0  0  0  0  0  0  0  0
    2.2333  -21.5228   24.5928 C   0  0  0  0  0  0  0  0  0  0  0  0
    3.4432  -20.8584   24.3974 C   0  0  0  0  0  0  0  0  0  0  0  0
    3.3857  -19.0548   23.8480 Br  0  0  0  0  0  0  0  0  0  0  0  0
    4.6562  -21.5171   24.5914 C   0  0  0  0  0  0  0  0  0  0  0  0
 17 18  1  0  0  0
 18 19  1  0  0  0
 18 24  2  0  0  0
 19 20  2  0  0  0
 20 21  1  0  0  0
 21 22  2  0  0  0
 22 23  1  0  0  0
 22 24  1  0  0  0
 24  1  1  0  0  0
  1  2  1  0  0  0
  1  6  2  0  0  0
  2  3  2  0  0  0
  3  4  1  0  0  0
  3  9  1  0  0  0
  4  5  2  0  0  0
  5 11  1  0  0  0
  6  7  1  0  0  0
  6  8  1  0  0  0
  8  9  2  0  0  0
  9 10  1  0  0  0
 10 11  2  0  0  0
 11 12  1  0  0  0
  7 13  1  0  0  0
  7 14  1  0  0  0
 12 15  1  0  0  0
 12 16  1  0  0  0
M  END
> <minimizedAffinity>
-6.23641

$$$$
2V58_LZJ_A_1448


 24 26  0  0  0  0  0  0  0  0999 V2000
    5.9907  -20.7641   24.4159 C   0  0  0  0  0  0  0  0  0  0  0  0
    6.4794  -19.8614   25.3657 C   0  0  0  0  0  0  0  0  0  0  0  0
    7.6896  -19.2056   25.1175 C   0  0  0  0  0  0  0  0  0  0  0  0
    8.2276  -18.2940   26.0261 C   0  0  0  0  0  0  0  0  0  0  0  0
    9.3925  -17.6807   25.7468 N   0  0  0  0  0  0  0  0  0  0  0  0
    6.7309  -20.9882   23.2494 C   0  0  0  0  0  0  0  0  0  0  0  0
    6.3020  -21.8590   22.3043 N   0  0  0  0  0  0  0  0  0  0  0  0
    7.8996  -20.3378   23.0323 N   0  0  0  0  0  0  0  0  0  0  0  0
    8.3871  -19.4583   23.9371 C   0  0  0  0  0  0  0  0  0  0  0  0
    9.5568  -18.8216   23.6952 N   0  0  0  0  0  0  0  0  0  0  0  0
   10.0602  -17.9412   24.5929 C   0  0  0  0  0  0  0  0  0  0  0  0
   11.2310  -17.3148   24.3213 N   0  0  0  0  0  0  0  0  0  0  0  0
    5.4567  -22.3473   22.4322 H   0  0  0  0  0  0  0  0  0  0  0  0
    6.8355  -22.0034   21.4896 H   0  0  0  0  0  0  0  0  0  0  0  0
   11.6068  -16.6727   24.9661 H   0  0  0  0  0  0  0  0  0  0  0  0
   11.7055  -17.5018   23.4793 H   0  0  0  0  0  0  0  0  0  0  0  0
    3.3485  -19.0962   23.8491 Br  0  0  0  0  0  0  0  0  0  0  0  0
    3.4749  -20.9000   24.3922 C   0  0  0  0  0  0  0  0  0  0  0  0
    2.2893  -21.6102   24.5692 C   0  0  0  0  0  0  0  0  0  0  0  0
    2.3217  -22.9387   24.9729 C   0  0  0  0  0  0  0  0  0  0  0  0
    3.5466  -23.5558   25.1978 C   0  0  0  0  0  0  0  0  0  0  0  0
    4.7329  -22.8460   25.0186 C   0  0  0  0  0  0  0  0  0  0  0  0
    6.3604  -23.7413   25.3474 Br  0  0  0  0  0  0  0  0  0  0  0  0
    4.7098  -21.5103   24.6206 C   0  0  0  0  0  0  0  0  0  0  0  0
 17 18  1  0  0  0
 18 19  1  0  0  0
 18 24  2  0  0  0
 19 20  2  0  0  0
 20 21  1  0  0  0
 21 22  2  0  0  0
 22 23  1  0  0  0
 22 24  1  0  0  0
 24  1  1  0  0  0
  1  2  1  0  0  0
  1  6  2  0  0  0
  2  3  2  0  0  0
  3  4  1  0  0  0
  3  9  1  0  0  0
  4  5  2  0  0  0
  5 11  1  0  0  0
  6  7  1  0  0  0
  6  8  1  0  0  0
  8  9  2  0  0  0
  9 10  1  0  0  0
 10 11  2  0  0  0
 11 12  1  0  0  0
  7 13  1  0  0  0
  7 14  1  0  0  0
 12 15  1  0  0  0
 12 16  1  0  0  0
M  END
> <minimizedAffinity>
-6.22447

$$$$
2V58_LZJ_A_1448


 24 26  0  0  0  0  0  0  0  0999 V2000
    4.4306  -22.0373   24.8685 C   0  0  0  0  0  0  0  0  0  0  0  0
    5.4671  -21.7808   25.7716 C   0  0  0  0  0  0  0  0  0  0  0  0
    6.2674  -20.6496   25.5812 C   0  0  0  0  0  0  0  0  0  0  0  0
    7.3154  -20.3403   26.4484 C   0  0  0  0  0  0  0  0  0  0  0  0
    8.0587  -19.2394   26.2322 N   0  0  0  0  0  0  0  0  0  0  0  0
    4.2303  -21.1579   23.7983 C   0  0  0  0  0  0  0  0  0  0  0  0
    3.2443  -21.3690   22.8936 N   0  0  0  0  0  0  0  0  0  0  0  0
    5.0187  -20.0675   23.6380 N   0  0  0  0  0  0  0  0  0  0  0  0
    6.0239  -19.8003   24.5028 C   0  0  0  0  0  0  0  0  0  0  0  0
    6.7964  -18.7038   24.3198 N   0  0  0  0  0  0  0  0  0  0  0  0
    7.8092  -18.4244   25.1745 C   0  0  0  0  0  0  0  0  0  0  0  0
    8.5626  -17.3168   24.9692 N   0  0  0  0  0  0  0  0  0  0  0  0
    2.6544  -22.1522   22.9822 H   0  0  0  0  0  0  0  0  0  0  0  0
    3.1178  -20.7393   22.1475 H   0  0  0  0  0  0  0  0  0  0  0  0
    9.3015  -17.1032   25.5837 H   0  0  0  0  0  0  0  0  0  0  0  0
    8.3710  -16.7257   24.2055 H   0  0  0  0  0  0  0  0  0  0  0  0
    5.6302  -24.7453   23.7232 Br  0  0  0  0  0  0  0  0  0  0  0  0
    3.9541  -24.4914   24.5545 C   0  0  0  0  0  0  0  0  0  0  0  0
    3.1264  -25.6025   24.7015 C   0  0  0  0  0  0  0  0  0  0  0  0
    1.8802  -25.4738   25.3009 C   0  0  0  0  0  0  0  0  0  0  0  0
    1.4649  -24.2275   25.7551 C   0  0  0  0  0  0  0  0  0  0  0  0
    2.2939  -23.1162   25.6102 C   0  0  0  0  0  0  0  0  0  0  0  0
    1.6665  -21.4533   26.2421 Br  0  0  0  0  0  0  0  0  0  0  0  0
    3.5432  -23.2347   25.0034 C   0  0  0  0  0  0  0  0  0  0  0  0
 17 18  1  0  0  0
 18 19  1  0  0  0
 18 24  2  0  0  0
 19 20  2  0  0  0
 20 21  1  0  0  0
 21 22  2  0  0  0
 22 23  1  0  0  0
 22 24  1  0  0  0
 24  1  1  0  0  0
  1  2  1  0  0  0
  1  6  2  0  0  0
  2  3  2  0  0  0
  3  4  1  0  0  0
  3  9  1  0  0  0
  4  5  2  0  0  0
  5 11  1  0  0  0
  6  7  1  0  0  0
  6  8  1  0  0  0
  8  9  2  0  0  0
  9 10  1  0  0  0
 10 11  2  0  0  0
 11 12  1  0  0  0
  7 13  1  0  0  0
  7 14  1  0  0  0
 12 15  1  0  0  0
 12 16  1  0  0  0
M  END
> <minimizedAffinity>
-6.13115

$$$$
2V58_LZJ_A_1448


 24 26  0  0  0  0  0  0  0  0999 V2000
    6.3916  -21.1773   24.5534 C   0  0  0  0  0  0  0  0  0  0  0  0
    5.6659  -21.7879   23.5257 C   0  0  0  0  0  0  0  0  0  0  0  0
    4.6512  -22.6917   23.8572 C   0  0  0  0  0  0  0  0  0  0  0  0
    3.8925  -23.3318   22.8770 C   0  0  0  0  0  0  0  0  0  0  0  0
    2.9219  -24.1910   23.2386 N   0  0  0  0  0  0  0  0  0  0  0  0
    6.0846  -21.4943   25.8815 C   0  0  0  0  0  0  0  0  0  0  0  0
    6.7651  -20.9342   26.9105 N   0  0  0  0  0  0  0  0  0  0  0  0
    5.0948  -22.3718   26.1756 N   0  0  0  0  0  0  0  0  0  0  0  0
    4.3791  -22.9700   25.1959 C   0  0  0  0  0  0  0  0  0  0  0  0
    3.3953  -23.8424   25.5172 N   0  0  0  0  0  0  0  0  0  0  0  0
    2.6723  -24.4526   24.5480 C   0  0  0  0  0  0  0  0  0  0  0  0
    1.6900  -25.3175   24.8997 N   0  0  0  0  0  0  0  0  0  0  0  0
    7.4899  -20.2929   26.7302 H   0  0  0  0  0  0  0  0  0  0  0  0
    6.5348  -21.1686   27.8385 H   0  0  0  0  0  0  0  0  0  0  0  0
    1.1577  -25.7672   24.2042 H   0  0  0  0  0  0  0  0  0  0  0  0
    1.5086  -25.4961   25.8508 H   0  0  0  0  0  0  0  0  0  0  0  0
    5.6239  -18.1126   24.8738 Br  0  0  0  0  0  0  0  0  0  0  0  0
    7.3007  -18.8331   24.3902 C   0  0  0  0  0  0  0  0  0  0  0  0
    8.3438  -17.9431   24.1431 C   0  0  0  0  0  0  0  0  0  0  0  0
    9.5977  -18.4164   23.7788 C   0  0  0  0  0  0  0  0  0  0  0  0
    9.8051  -19.7860   23.6638 C   0  0  0  0  0  0  0  0  0  0  0  0
    8.7621  -20.6767   23.9132 C   0  0  0  0  0  0  0  0  0  0  0  0
    9.1094  -22.5220   23.7325 Br  0  0  0  0  0  0  0  0  0  0  0  0
    7.4986  -20.2103   24.2724 C   0  0  0  0  0  0  0  0  0  0  0  0
 17 18  1  0  0  0
 18 19  1  0  0  0
 18 24  2  0  0  0
 19 20  2  0  0  0
 20 21  1  0  0  0
 21 22  2  0  0  0
 22 23  1  0  0  0
 22 24  1  0  0  0
 24  1  1  0  0  0
  1  2  1  0  0  0
  1  6  2  0  0  0
  2  3  2  0  0  0
  3  4  1  0  0  0
  3  9  1  0  0  0
  4  5  2  0  0  0
  5 11  1  0  0  0
  6  7  1  0  0  0
  6  8  1  0  0  0
  8  9  2  0  0  0
  9 10  1  0  0  0
 10 11  2  0  0  0
 11 12  1  0  0  0
  7 13  1  0  0  0
  7 14  1  0  0  0
 12 15  1  0  0  0
 12 16  1  0  0  0
M  END
> <minimizedAffinity>
-6.11093

$$$$
2V58_LZJ_A_1448


 24 26  0  0  0  0  0  0  0  0999 V2000
    6.4714  -21.1518   24.5643 C   0  0  0  0  0  0  0  0  0  0  0  0
    5.7373  -21.7350   23.5267 C   0  0  0  0  0  0  0  0  0  0  0  0
    4.7119  -22.6320   23.8431 C   0  0  0  0  0  0  0  0  0  0  0  0
    3.9445  -23.2450   22.8524 C   0  0  0  0  0  0  0  0  0  0  0  0
    2.9637  -24.0987   23.1996 N   0  0  0  0  0  0  0  0  0  0  0  0
    6.1617  -21.4887   25.8869 C   0  0  0  0  0  0  0  0  0  0  0  0
    6.8500  -20.9556   26.9249 N   0  0  0  0  0  0  0  0  0  0  0  0
    5.1615  -22.3592   26.1663 N   0  0  0  0  0  0  0  0  0  0  0  0
    4.4377  -22.9309   25.1769 C   0  0  0  0  0  0  0  0  0  0  0  0
    3.4434  -23.7968   25.4835 N   0  0  0  0  0  0  0  0  0  0  0  0
    2.7122  -24.3806   24.5044 C   0  0  0  0  0  0  0  0  0  0  0  0
    1.7196  -25.2395   24.8417 N   0  0  0  0  0  0  0  0  0  0  0  0
    7.5825  -20.3201   26.7553 H   0  0  0  0  0  0  0  0  0  0  0  0
    6.6176  -21.2038   27.8489 H   0  0  0  0  0  0  0  0  0  0  0  0
    1.1812  -25.6701   24.1388 H   0  0  0  0  0  0  0  0  0  0  0  0
    1.5369  -25.4329   25.7896 H   0  0  0  0  0  0  0  0  0  0  0  0
    9.2213  -22.4873   23.7049 Br  0  0  0  0  0  0  0  0  0  0  0  0
    8.8486  -20.6467   23.8995 C   0  0  0  0  0  0  0  0  0  0  0  0
    9.8774  -19.7440   23.6386 C   0  0  0  0  0  0  0  0  0  0  0  0
    9.6619  -18.3784   23.7705 C   0  0  0  0  0  0  0  0  0  0  0  0
    8.4107  -17.9180   24.1635 C   0  0  0  0  0  0  0  0  0  0  0  0
    7.3806  -18.8209   24.4223 C   0  0  0  0  0  0  0  0  0  0  0  0
    5.7093  -18.1298   24.9583 Br  0  0  0  0  0  0  0  0  0  0  0  0
    7.5899  -20.1936   24.2995 C   0  0  0  0  0  0  0  0  0  0  0  0
 17 18  1  0  0  0
 18 19  1  0  0  0
 18 24  2  0  0  0
 19 20  2  0  0  0
 20 21  1  0  0  0
 21 22  2  0  0  0
 22 23  1  0  0  0
 22 24  1  0  0  0
 24  1  1  0  0  0
  1  2  1  0  0  0
  1  6  2  0  0  0
  2  3  2  0  0  0
  3  4  1  0  0  0
  3  9  1  0  0  0
  4  5  2  0  0  0
  5 11  1  0  0  0
  6  7  1  0  0  0
  6  8  1  0  0  0
  8  9  2  0  0  0
  9 10  1  0  0  0
 10 11  2  0  0  0
 11 12  1  0  0  0
  7 13  1  0  0  0
  7 14  1  0  0  0
 12 15  1  0  0  0
 12 16  1  0  0  0
M  END
> <minimizedAffinity>
-6.09496

$$$$
