2GJ5_VD3_A_163


 29 31  0  0  0  0  0  0  0  0999 V2000
   -4.7073    5.6764   19.9224 C   0  0  0  0  0  0  0  0  0  0  0  0
   -4.4993    6.9404   19.3585 C   0  0  0  0  0  0  0  0  0  0  0  0
   -3.4429    6.3334   18.2888 C   0  0  0  0  0  0  0  0  0  0  0  0
   -2.4383    7.2719   17.7244 C   0  0  0  0  0  0  0  0  0  0  0  0
   -2.7991    8.8064   17.6574 C   0  0  0  0  0  0  0  0  0  0  0  0
   -3.5423    9.3642   18.8792 C   0  0  0  0  0  0  0  0  0  0  0  0
   -3.7879    8.2597   19.9776 C   0  0  0  0  0  0  0  0  0  0  0  0
   -4.5775    9.1245   21.0854 C   0  0  0  0  0  0  0  0  0  0  0  0
   -3.9526   10.6326   20.9761 C   0  0  0  0  0  0  0  0  0  0  0  0
   -2.8440   10.4815   19.8674 C   0  0  0  0  0  0  0  0  0  0  0  0
   -4.8879    9.9229   18.2105 C   0  0  0  0  0  0  0  0  0  0  0  0
    1.1806    4.8672   20.6333 O   0  0  0  0  0  0  0  0  0  0  0  0
   -1.0855    2.3168   21.6401 C   0  0  0  0  0  0  0  0  0  0  0  0
   -0.1342    2.7711   20.5958 C   0  0  0  0  0  0  0  0  0  0  0  0
   -0.1069    4.3347   20.2655 C   0  0  0  0  0  0  0  0  0  0  0  0
   -1.2209    5.0839   21.0439 C   0  0  0  0  0  0  0  0  0  0  0  0
   -2.6433    4.3397   21.0969 C   0  0  0  0  0  0  0  0  0  0  0  0
   -3.8059    5.0484   20.9696 C   0  0  0  0  0  0  0  0  0  0  0  0
   -2.5051    2.8086   21.2850 C   0  0  0  0  0  0  0  0  0  0  0  0
   -3.4670    1.9828   21.1747 C   0  0  0  0  0  0  0  0  0  0  0  0
    1.8757    4.3979   20.1460 H   0  0  0  0  0  0  0  0  0  0  0  0
   -2.4850   11.8695   19.0358 C   0  0  0  0  0  0  0  0  0  0  0  0
   -1.7520   12.7953   19.9798 C   0  0  0  0  0  0  0  0  0  0  0  0
   -3.6131   12.8313   18.5085 C   0  0  0  0  0  0  0  0  0  0  0  0
   -2.9703   14.3891   18.4561 C   0  0  0  0  0  0  0  0  0  0  0  0
   -3.9591   15.0002   17.4365 C   0  0  0  0  0  0  0  0  0  0  0  0
   -4.3961   16.4826   17.5025 C   0  0  0  0  0  0  0  0  0  0  0  0
   -3.1663   16.8431   18.1041 C   0  0  0  0  0  0  0  0  0  0  0  0
   -4.2628   17.5427   16.5327 C   0  0  0  0  0  0  0  0  0  0  0  0
 12 15  1  0  0  0
 13 14  1  0  0  0
 13 19  1  0  0  0
 14 15  1  0  0  0
 15 16  1  0  0  0
 16 17  1  0  0  0
 17 18  2  0  0  0
 17 19  1  0  0  0
 18  1  1  0  0  0
  1  2  2  0  0  0
  2  3  1  0  0  0
  2  7  1  0  0  0
  3  4  1  0  0  0
 19 20  2  0  0  0
  4  5  1  0  0  0
  5  6  1  0  0  0
  6  7  1  0  0  0
  6 10  1  0  0  0
  6 11  1  0  0  0
  7  8  1  0  0  0
  8  9  1  0  0  0
  9 10  1  0  0  0
 10 22  1  0  0  0
 22 23  1  0  0  0
 22 24  1  0  0  0
 24 25  1  0  0  0
 25 26  1  0  0  0
 26 27  1  0  0  0
 27 28  1  0  0  0
 27 29  1  0  0  0
 12 21  1  0  0  0
M  END
> <minimizedAffinity>
-9.69932

$$$$
2GJ5_VD3_A_163


 29 31  0  0  0  0  0  0  0  0999 V2000
   -3.2946    3.3385   18.5882 C   0  0  0  0  0  0  0  0  0  0  0  0
   -3.5071    4.6245   19.0979 C   0  0  0  0  0  0  0  0  0  0  0  0
   -5.1150    4.4426   18.9958 C   0  0  0  0  0  0  0  0  0  0  0  0
   -5.9298    5.6812   18.8927 C   0  0  0  0  0  0  0  0  0  0  0  0
   -5.3477    7.0154   19.5012 C   0  0  0  0  0  0  0  0  0  0  0  0
   -3.8474    7.2464   19.2723 C   0  0  0  0  0  0  0  0  0  0  0  0
   -3.1874    6.0754   18.4478 C   0  0  0  0  0  0  0  0  0  0  0  0
   -1.6594    6.5861   18.3932 C   0  0  0  0  0  0  0  0  0  0  0  0
   -1.7553    8.2188   18.3495 C   0  0  0  0  0  0  0  0  0  0  0  0
   -3.3075    8.4861   18.3321 C   0  0  0  0  0  0  0  0  0  0  0  0
   -3.3063    7.3641   20.7767 C   0  0  0  0  0  0  0  0  0  0  0  0
    0.8468    2.4139   14.3666 O   0  0  0  0  0  0  0  0  0  0  0  0
   -2.1525    4.1423   13.5479 C   0  0  0  0  0  0  0  0  0  0  0  0
   -0.7100    4.2725   13.8706 C   0  0  0  0  0  0  0  0  0  0  0  0
   -0.1202    3.2869   14.9822 C   0  0  0  0  0  0  0  0  0  0  0  0
   -1.2499    2.4398   15.6257 C   0  0  0  0  0  0  0  0  0  0  0  0
   -2.6059    3.2360   15.9534 C   0  0  0  0  0  0  0  0  0  0  0  0
   -3.2942    2.9938   17.1100 C   0  0  0  0  0  0  0  0  0  0  0  0
   -2.9777    4.2549   14.8477 C   0  0  0  0  0  0  0  0  0  0  0  0
   -3.8957    5.1292   14.9576 C   0  0  0  0  0  0  0  0  0  0  0  0
    1.5522    2.9448   13.9648 H   0  0  0  0  0  0  0  0  0  0  0  0
   -3.7776    9.9502   18.9506 C   0  0  0  0  0  0  0  0  0  0  0  0
   -4.9073   10.4715   18.0919 C   0  0  0  0  0  0  0  0  0  0  0  0
   -2.8157   11.1954   18.9467 C   0  0  0  0  0  0  0  0  0  0  0  0
   -3.4068   12.2916   17.8102 C   0  0  0  0  0  0  0  0  0  0  0  0
   -3.0254   13.5971   18.5457 C   0  0  0  0  0  0  0  0  0  0  0  0
   -3.6549   14.9614   18.1779 C   0  0  0  0  0  0  0  0  0  0  0  0
   -2.4188   15.6169   18.3941 C   0  0  0  0  0  0  0  0  0  0  0  0
   -3.8047   15.6093   16.8974 C   0  0  0  0  0  0  0  0  0  0  0  0
 12 15  1  0  0  0
 13 14  1  0  0  0
 13 19  1  0  0  0
 14 15  1  0  0  0
 15 16  1  0  0  0
 16 17  1  0  0  0
 17 18  2  0  0  0
 17 19  1  0  0  0
 18  1  1  0  0  0
  1  2  2  0  0  0
  2  3  1  0  0  0
  2  7  1  0  0  0
  3  4  1  0  0  0
 19 20  2  0  0  0
  4  5  1  0  0  0
  5  6  1  0  0  0
  6  7  1  0  0  0
  6 10  1  0  0  0
  6 11  1  0  0  0
  7  8  1  0  0  0
  8  9  1  0  0  0
  9 10  1  0  0  0
 10 22  1  0  0  0
 22 23  1  0  0  0
 22 24  1  0  0  0
 24 25  1  0  0  0
 25 26  1  0  0  0
 26 27  1  0  0  0
 27 28  1  0  0  0
 27 29  1  0  0  0
 12 21  1  0  0  0
M  END
> <minimizedAffinity>
-9.10224

$$$$
2GJ5_VD3_A_163


 29 31  0  0  0  0  0  0  0  0999 V2000
   -2.8644    3.4269   17.9286 C   0  0  0  0  0  0  0  0  0  0  0  0
   -2.6514    4.5819   18.6898 C   0  0  0  0  0  0  0  0  0  0  0  0
   -3.1525    3.8339   20.0382 C   0  0  0  0  0  0  0  0  0  0  0  0
   -3.6755    4.6927   21.1325 C   0  0  0  0  0  0  0  0  0  0  0  0
   -3.1622    6.1815   21.2289 C   0  0  0  0  0  0  0  0  0  0  0  0
   -3.0122    6.9165   19.8896 C   0  0  0  0  0  0  0  0  0  0  0  0
   -3.4219    6.0086   18.6671 C   0  0  0  0  0  0  0  0  0  0  0  0
   -3.1455    7.0251   17.4469 C   0  0  0  0  0  0  0  0  0  0  0  0
   -3.4834    8.5109   18.0429 C   0  0  0  0  0  0  0  0  0  0  0  0
   -3.9635    8.2068   19.5119 C   0  0  0  0  0  0  0  0  0  0  0  0
   -1.4586    7.3114   19.9109 C   0  0  0  0  0  0  0  0  0  0  0  0
   -8.5228    3.2786   19.8750 O   0  0  0  0  0  0  0  0  0  0  0  0
   -7.2982    0.6551   17.8083 C   0  0  0  0  0  0  0  0  0  0  0  0
   -7.6265    1.0750   19.1932 C   0  0  0  0  0  0  0  0  0  0  0  0
   -7.2910    2.5851   19.5956 C   0  0  0  0  0  0  0  0  0  0  0  0
   -6.5359    3.3083   18.4490 C   0  0  0  0  0  0  0  0  0  0  0  0
   -5.3966    2.4412   17.7208 C   0  0  0  0  0  0  0  0  0  0  0  0
   -4.2093    3.0146   17.3582 C   0  0  0  0  0  0  0  0  0  0  0  0
   -5.8129    0.9628   17.5212 C   0  0  0  0  0  0  0  0  0  0  0  0
   -5.0233    0.0407   17.1395 C   0  0  0  0  0  0  0  0  0  0  0  0
   -8.9936    2.8254   20.5919 H   0  0  0  0  0  0  0  0  0  0  0  0
   -3.7464    9.4430   20.5945 C   0  0  0  0  0  0  0  0  0  0  0  0
   -4.7878    9.2927   21.6800 C   0  0  0  0  0  0  0  0  0  0  0  0
   -3.9708   10.9462   20.1873 C   0  0  0  0  0  0  0  0  0  0  0  0
   -2.4741   11.7198   20.2515 C   0  0  0  0  0  0  0  0  0  0  0  0
   -2.7699   12.8537   19.2427 C   0  0  0  0  0  0  0  0  0  0  0  0
   -3.9153   12.7547   18.2077 C   0  0  0  0  0  0  0  0  0  0  0  0
   -3.6957   14.0930   17.8012 C   0  0  0  0  0  0  0  0  0  0  0  0
   -3.9022   12.3080   16.8357 C   0  0  0  0  0  0  0  0  0  0  0  0
 12 15  1  0  0  0
 13 14  1  0  0  0
 13 19  1  0  0  0
 14 15  1  0  0  0
 15 16  1  0  0  0
 16 17  1  0  0  0
 17 18  2  0  0  0
 17 19  1  0  0  0
 18  1  1  0  0  0
  1  2  2  0  0  0
  2  3  1  0  0  0
  2  7  1  0  0  0
  3  4  1  0  0  0
 19 20  2  0  0  0
  4  5  1  0  0  0
  5  6  1  0  0  0
  6  7  1  0  0  0
  6 10  1  0  0  0
  6 11  1  0  0  0
  7  8  1  0  0  0
  8  9  1  0  0  0
  9 10  1  0  0  0
 10 22  1  0  0  0
 22 23  1  0  0  0
 22 24  1  0  0  0
 24 25  1  0  0  0
 25 26  1  0  0  0
 26 27  1  0  0  0
 27 28  1  0  0  0
 27 29  1  0  0  0
 12 21  1  0  0  0
M  END
> <minimizedAffinity>
-8.88279

$$$$
2GJ5_VD3_A_163


 29 31  0  0  0  0  0  0  0  0999 V2000
   -1.6770    3.7941   17.5570 C   0  0  0  0  0  0  0  0  0  0  0  0
   -1.8632    5.1260   17.9444 C   0  0  0  0  0  0  0  0  0  0  0  0
   -0.3853    5.1813   18.6087 C   0  0  0  0  0  0  0  0  0  0  0  0
   -0.1632    6.1873   19.6798 C   0  0  0  0  0  0  0  0  0  0  0  0
   -1.0522    7.4907   19.6815 C   0  0  0  0  0  0  0  0  0  0  0  0
   -2.5325    7.2811   19.3330 C   0  0  0  0  0  0  0  0  0  0  0  0
   -2.8645    5.7662   19.0478 C   0  0  0  0  0  0  0  0  0  0  0  0
   -4.4361    5.8745   18.7053 C   0  0  0  0  0  0  0  0  0  0  0  0
   -4.9925    7.1018   19.6331 C   0  0  0  0  0  0  0  0  0  0  0  0
   -3.7176    7.5426   20.4463 C   0  0  0  0  0  0  0  0  0  0  0  0
   -2.7003    8.2328   18.0538 C   0  0  0  0  0  0  0  0  0  0  0  0
   -1.1503    2.6679   23.4121 O   0  0  0  0  0  0  0  0  0  0  0  0
   -0.2235    0.1788   21.0458 C   0  0  0  0  0  0  0  0  0  0  0  0
    0.2602    1.2324   21.9721 C   0  0  0  0  0  0  0  0  0  0  0  0
   -0.6139    2.5664   22.0786 C   0  0  0  0  0  0  0  0  0  0  0  0
   -1.7763    2.5494   21.0506 C   0  0  0  0  0  0  0  0  0  0  0  0
   -1.3953    2.0009   19.5898 C   0  0  0  0  0  0  0  0  0  0  0  0
   -1.8974    2.5999   18.4676 C   0  0  0  0  0  0  0  0  0  0  0  0
   -0.4317    0.7896   19.6434 C   0  0  0  0  0  0  0  0  0  0  0  0
    0.1569    0.2959   18.6289 C   0  0  0  0  0  0  0  0  0  0  0  0
   -0.4226    2.6783   24.0534 H   0  0  0  0  0  0  0  0  0  0  0  0
   -3.7173    9.1197   20.9562 C   0  0  0  0  0  0  0  0  0  0  0  0
   -4.9143    9.3117   21.8594 C   0  0  0  0  0  0  0  0  0  0  0  0
   -3.9218   10.3126   19.9508 C   0  0  0  0  0  0  0  0  0  0  0  0
   -2.6757   11.4178   20.2121 C   0  0  0  0  0  0  0  0  0  0  0  0
   -2.9116   12.3114   18.9725 C   0  0  0  0  0  0  0  0  0  0  0  0
   -3.9526   11.9518   17.8863 C   0  0  0  0  0  0  0  0  0  0  0  0
   -3.9930   13.2967   17.4459 C   0  0  0  0  0  0  0  0  0  0  0  0
   -3.7714   11.4862   16.5326 C   0  0  0  0  0  0  0  0  0  0  0  0
 12 15  1  0  0  0
 13 14  1  0  0  0
 13 19  1  0  0  0
 14 15  1  0  0  0
 15 16  1  0  0  0
 16 17  1  0  0  0
 17 18  2  0  0  0
 17 19  1  0  0  0
 18  1  1  0  0  0
  1  2  2  0  0  0
  2  3  1  0  0  0
  2  7  1  0  0  0
  3  4  1  0  0  0
 19 20  2  0  0  0
  4  5  1  0  0  0
  5  6  1  0  0  0
  6  7  1  0  0  0
  6 10  1  0  0  0
  6 11  1  0  0  0
  7  8  1  0  0  0
  8  9  1  0  0  0
  9 10  1  0  0  0
 10 22  1  0  0  0
 22 23  1  0  0  0
 22 24  1  0  0  0
 24 25  1  0  0  0
 25 26  1  0  0  0
 26 27  1  0  0  0
 27 28  1  0  0  0
 27 29  1  0  0  0
 12 21  1  0  0  0
M  END
> <minimizedAffinity>
-8.82272

$$$$
2GJ5_VD3_A_163


 29 31  0  0  0  0  0  0  0  0999 V2000
   -1.6770    3.6221   17.7850 C   0  0  0  0  0  0  0  0  0  0  0  0
   -1.8521    4.9692   18.1216 C   0  0  0  0  0  0  0  0  0  0  0  0
   -0.4098    5.0134   18.8609 C   0  0  0  0  0  0  0  0  0  0  0  0
   -0.2205    6.0474   19.9114 C   0  0  0  0  0  0  0  0  0  0  0  0
   -1.0779    7.3692   19.8268 C   0  0  0  0  0  0  0  0  0  0  0  0
   -2.5424    7.1808   19.4073 C   0  0  0  0  0  0  0  0  0  0  0  0
   -2.8943    5.6652   19.1508 C   0  0  0  0  0  0  0  0  0  0  0  0
   -4.4430    5.7966   18.7228 C   0  0  0  0  0  0  0  0  0  0  0  0
   -5.0183    7.0642   19.5825 C   0  0  0  0  0  0  0  0  0  0  0  0
   -3.7775    7.5026   20.4481 C   0  0  0  0  0  0  0  0  0  0  0  0
   -2.6213    8.0952   18.0929 C   0  0  0  0  0  0  0  0  0  0  0  0
   -6.4436    1.5909   20.7820 O   0  0  0  0  0  0  0  0  0  0  0  0
   -3.2229    1.4526   22.2859 C   0  0  0  0  0  0  0  0  0  0  0  0
   -4.5161    2.1773   22.2189 C   0  0  0  0  0  0  0  0  0  0  0  0
   -5.1992    2.3174   20.7807 C   0  0  0  0  0  0  0  0  0  0  0  0
   -4.2710    1.7567   19.6706 C   0  0  0  0  0  0  0  0  0  0  0  0
   -2.7166    2.1339   19.8176 C   0  0  0  0  0  0  0  0  0  0  0  0
   -1.9722    2.4621   18.7183 C   0  0  0  0  0  0  0  0  0  0  0  0
   -2.2310    2.0869   21.2875 C   0  0  0  0  0  0  0  0  0  0  0  0
   -1.1012    2.5182   21.6836 C   0  0  0  0  0  0  0  0  0  0  0  0
   -7.0225    1.9425   21.4763 H   0  0  0  0  0  0  0  0  0  0  0  0
   -3.7671    9.0945   20.9095 C   0  0  0  0  0  0  0  0  0  0  0  0
   -4.8295    9.2735   21.9701 C   0  0  0  0  0  0  0  0  0  0  0  0
   -4.1604   10.2460   19.9118 C   0  0  0  0  0  0  0  0  0  0  0  0
   -3.3923   11.6540   20.4314 C   0  0  0  0  0  0  0  0  0  0  0  0
   -3.1282   12.2843   19.0444 C   0  0  0  0  0  0  0  0  0  0  0  0
   -4.0386   12.0012   17.8263 C   0  0  0  0  0  0  0  0  0  0  0  0
   -3.9035   13.3394   17.3842 C   0  0  0  0  0  0  0  0  0  0  0  0
   -3.7154   11.5059   16.5101 C   0  0  0  0  0  0  0  0  0  0  0  0
 12 15  1  0  0  0
 13 14  1  0  0  0
 13 19  1  0  0  0
 14 15  1  0  0  0
 15 16  1  0  0  0
 16 17  1  0  0  0
 17 18  2  0  0  0
 17 19  1  0  0  0
 18  1  1  0  0  0
  1  2  2  0  0  0
  2  3  1  0  0  0
  2  7  1  0  0  0
  3  4  1  0  0  0
 19 20  2  0  0  0
  4  5  1  0  0  0
  5  6  1  0  0  0
  6  7  1  0  0  0
  6 10  1  0  0  0
  6 11  1  0  0  0
  7  8  1  0  0  0
  8  9  1  0  0  0
  9 10  1  0  0  0
 10 22  1  0  0  0
 22 23  1  0  0  0
 22 24  1  0  0  0
 24 25  1  0  0  0
 25 26  1  0  0  0
 26 27  1  0  0  0
 27 28  1  0  0  0
 27 29  1  0  0  0
 12 21  1  0  0  0
M  END
> <minimizedAffinity>
-8.70880

$$$$
2GJ5_VD3_A_163


 29 31  0  0  0  0  0  0  0  0999 V2000
   -2.7708    5.3517   18.7414 C   0  0  0  0  0  0  0  0  0  0  0  0
   -2.7296    6.6946   19.1337 C   0  0  0  0  0  0  0  0  0  0  0  0
   -3.4829    6.3519   20.5279 C   0  0  0  0  0  0  0  0  0  0  0  0
   -4.2260    7.4590   21.1841 C   0  0  0  0  0  0  0  0  0  0  0  0
   -3.7608    8.9414   20.9100 C   0  0  0  0  0  0  0  0  0  0  0  0
   -3.3531    9.2487   19.4623 C   0  0  0  0  0  0  0  0  0  0  0  0
   -3.4971    7.9876   18.5265 C   0  0  0  0  0  0  0  0  0  0  0  0
   -2.9929    8.6077   17.1265 C   0  0  0  0  0  0  0  0  0  0  0  0
   -3.4620   10.1748   17.1591 C   0  0  0  0  0  0  0  0  0  0  0  0
   -4.2245   10.2920   18.5323 C   0  0  0  0  0  0  0  0  0  0  0  0
   -1.8406    9.7451   19.6518 C   0  0  0  0  0  0  0  0  0  0  0  0
   -8.3379    3.8852   20.3799 O   0  0  0  0  0  0  0  0  0  0  0  0
   -6.4844    1.6986   18.2735 C   0  0  0  0  0  0  0  0  0  0  0  0
   -6.9547    1.9654   19.6554 C   0  0  0  0  0  0  0  0  0  0  0  0
   -6.9738    3.4893   20.1371 C   0  0  0  0  0  0  0  0  0  0  0  0
   -6.3467    4.4169   19.0627 C   0  0  0  0  0  0  0  0  0  0  0  0
   -5.0161    3.8550   18.3601 C   0  0  0  0  0  0  0  0  0  0  0  0
   -3.9680    4.6892   18.0845 C   0  0  0  0  0  0  0  0  0  0  0  0
   -5.0911    2.3340   18.0778 C   0  0  0  0  0  0  0  0  0  0  0  0
   -4.1041    1.6251   17.7003 C   0  0  0  0  0  0  0  0  0  0  0  0
   -8.7284    3.3045   21.0516 H   0  0  0  0  0  0  0  0  0  0  0  0
   -4.2449   11.8090   19.1999 C   0  0  0  0  0  0  0  0  0  0  0  0
   -5.6136   12.4020   18.9537 C   0  0  0  0  0  0  0  0  0  0  0  0
   -3.3284   12.9646   18.6521 C   0  0  0  0  0  0  0  0  0  0  0  0
   -4.1327   13.6804   17.3547 C   0  0  0  0  0  0  0  0  0  0  0  0
   -4.0440   15.1505   17.8258 C   0  0  0  0  0  0  0  0  0  0  0  0
   -2.6961   15.9036   17.9192 C   0  0  0  0  0  0  0  0  0  0  0  0
   -3.3663   17.1506   17.9291 C   0  0  0  0  0  0  0  0  0  0  0  0
   -1.9138   16.2849   19.0702 C   0  0  0  0  0  0  0  0  0  0  0  0
 12 15  1  0  0  0
 13 14  1  0  0  0
 13 19  1  0  0  0
 14 15  1  0  0  0
 15 16  1  0  0  0
 16 17  1  0  0  0
 17 18  2  0  0  0
 17 19  1  0  0  0
 18  1  1  0  0  0
  1  2  2  0  0  0
  2  3  1  0  0  0
  2  7  1  0  0  0
  3  4  1  0  0  0
 19 20  2  0  0  0
  4  5  1  0  0  0
  5  6  1  0  0  0
  6  7  1  0  0  0
  6 10  1  0  0  0
  6 11  1  0  0  0
  7  8  1  0  0  0
  8  9  1  0  0  0
  9 10  1  0  0  0
 10 22  1  0  0  0
 22 23  1  0  0  0
 22 24  1  0  0  0
 24 25  1  0  0  0
 25 26  1  0  0  0
 26 27  1  0  0  0
 27 28  1  0  0  0
 27 29  1  0  0  0
 12 21  1  0  0  0
M  END
> <minimizedAffinity>
-8.32278

$$$$
2GJ5_VD3_A_163


 29 31  0  0  0  0  0  0  0  0999 V2000
   -3.5338    2.1633   18.5834 C   0  0  0  0  0  0  0  0  0  0  0  0
   -3.1218    3.4753   18.8435 C   0  0  0  0  0  0  0  0  0  0  0  0
   -2.1237    2.9716   20.0177 C   0  0  0  0  0  0  0  0  0  0  0  0
   -1.7691    3.9572   21.0720 C   0  0  0  0  0  0  0  0  0  0  0  0
   -1.8107    5.4921   20.7091 C   0  0  0  0  0  0  0  0  0  0  0  0
   -2.9896    5.9311   19.8294 C   0  0  0  0  0  0  0  0  0  0  0  0
   -3.9414    4.7261   19.4708 C   0  0  0  0  0  0  0  0  0  0  0  0
   -5.0320    5.4819   18.5554 C   0  0  0  0  0  0  0  0  0  0  0  0
   -5.1400    6.9914   19.1770 C   0  0  0  0  0  0  0  0  0  0  0  0
   -4.1533    6.9450   20.4039 C   0  0  0  0  0  0  0  0  0  0  0  0
   -2.2312    6.5563   18.5628 C   0  0  0  0  0  0  0  0  0  0  0  0
   -9.4941    1.6801   18.3201 O   0  0  0  0  0  0  0  0  0  0  0  0
   -7.8751    1.8471   21.4831 C   0  0  0  0  0  0  0  0  0  0  0  0
   -8.6439    2.5940   20.4568 C   0  0  0  0  0  0  0  0  0  0  0  0
   -8.3249    2.2657   18.9254 C   0  0  0  0  0  0  0  0  0  0  0  0
   -7.1306    1.2819   18.8078 C   0  0  0  0  0  0  0  0  0  0  0  0
   -5.9001    1.5715   19.7988 C   0  0  0  0  0  0  0  0  0  0  0  0
   -4.6100    1.4338   19.3667 C   0  0  0  0  0  0  0  0  0  0  0  0
   -6.3649    2.0123   21.2089 C   0  0  0  0  0  0  0  0  0  0  0  0
   -5.5906    2.4717   22.1081 C   0  0  0  0  0  0  0  0  0  0  0  0
  -10.2396    2.2962   18.3944 H   0  0  0  0  0  0  0  0  0  0  0  0
   -3.5054    8.4060   20.8431 C   0  0  0  0  0  0  0  0  0  0  0  0
   -4.5571    9.1597   21.6250 C   0  0  0  0  0  0  0  0  0  0  0  0
   -3.1117    9.4900   19.7726 C   0  0  0  0  0  0  0  0  0  0  0  0
   -4.2137   10.7592   19.9044 C   0  0  0  0  0  0  0  0  0  0  0  0
   -3.2066   11.9310   19.8449 C   0  0  0  0  0  0  0  0  0  0  0  0
   -2.9992   12.7720   18.5632 C   0  0  0  0  0  0  0  0  0  0  0  0
   -4.3938   12.7890   18.3201 C   0  0  0  0  0  0  0  0  0  0  0  0
   -2.9235   14.2016   18.3829 C   0  0  0  0  0  0  0  0  0  0  0  0
 12 15  1  0  0  0
 13 14  1  0  0  0
 13 19  1  0  0  0
 14 15  1  0  0  0
 15 16  1  0  0  0
 16 17  1  0  0  0
 17 18  2  0  0  0
 17 19  1  0  0  0
 18  1  1  0  0  0
  1  2  2  0  0  0
  2  3  1  0  0  0
  2  7  1  0  0  0
  3  4  1  0  0  0
 19 20  2  0  0  0
  4  5  1  0  0  0
  5  6  1  0  0  0
  6  7  1  0  0  0
  6 10  1  0  0  0
  6 11  1  0  0  0
  7  8  1  0  0  0
  8  9  1  0  0  0
  9 10  1  0  0  0
 10 22  1  0  0  0
 22 23  1  0  0  0
 22 24  1  0  0  0
 24 25  1  0  0  0
 25 26  1  0  0  0
 26 27  1  0  0  0
 27 28  1  0  0  0
 27 29  1  0  0  0
 12 21  1  0  0  0
M  END
> <minimizedAffinity>
-8.05906

$$$$
2GJ5_VD3_A_163


 29 31  0  0  0  0  0  0  0  0999 V2000
   -2.7970    7.1937   17.5365 C   0  0  0  0  0  0  0  0  0  0  0  0
   -2.6114    6.0583   18.3337 C   0  0  0  0  0  0  0  0  0  0  0  0
   -3.9864    6.3514   19.1412 C   0  0  0  0  0  0  0  0  0  0  0  0
   -4.0994    5.7851   20.5106 C   0  0  0  0  0  0  0  0  0  0  0  0
   -3.2694    4.4891   20.8578 C   0  0  0  0  0  0  0  0  0  0  0  0
   -1.8432    4.4466   20.2914 C   0  0  0  0  0  0  0  0  0  0  0  0
   -1.4948    5.7451   19.4673 C   0  0  0  0  0  0  0  0  0  0  0  0
    0.0102    5.3988   19.0051 C   0  0  0  0  0  0  0  0  0  0  0  0
    0.6399    4.5124   20.2276 C   0  0  0  0  0  0  0  0  0  0  0  0
   -0.5287    4.4769   21.2832 C   0  0  0  0  0  0  0  0  0  0  0  0
   -1.8876    3.1106   19.4065 C   0  0  0  0  0  0  0  0  0  0  0  0
   -4.4735   11.0691   21.7790 O   0  0  0  0  0  0  0  0  0  0  0  0
   -3.7024   12.2514   18.5138 C   0  0  0  0  0  0  0  0  0  0  0  0
   -4.7826   11.8984   19.4680 C   0  0  0  0  0  0  0  0  0  0  0  0
   -4.5382   10.6292   20.4083 C   0  0  0  0  0  0  0  0  0  0  0  0
   -3.2173    9.9075   20.0310 C   0  0  0  0  0  0  0  0  0  0  0  0
   -2.9419    9.7550   18.4559 C   0  0  0  0  0  0  0  0  0  0  0  0
   -2.4091    8.6016   17.9501 C   0  0  0  0  0  0  0  0  0  0  0  0
   -3.3558   11.0152   17.6564 C   0  0  0  0  0  0  0  0  0  0  0  0
   -3.4090   11.0734   16.3863 C   0  0  0  0  0  0  0  0  0  0  0  0
   -5.2998   11.5200   22.0132 H   0  0  0  0  0  0  0  0  0  0  0  0
   -0.5205    3.1680   22.3000 C   0  0  0  0  0  0  0  0  0  0  0  0
    0.4207    2.1383   21.7175 C   0  0  0  0  0  0  0  0  0  0  0  0
   -1.8057    2.2883   22.5240 C   0  0  0  0  0  0  0  0  0  0  0  0
   -1.4047    0.6954   22.1441 C   0  0  0  0  0  0  0  0  0  0  0  0
   -2.8365    0.1132   22.1006 C   0  0  0  0  0  0  0  0  0  0  0  0
   -4.0554    0.9610   21.6665 C   0  0  0  0  0  0  0  0  0  0  0  0
   -4.1162    0.2815   20.4259 C   0  0  0  0  0  0  0  0  0  0  0  0
   -5.4668    0.7508   21.8808 C   0  0  0  0  0  0  0  0  0  0  0  0
 12 15  1  0  0  0
 13 14  1  0  0  0
 13 19  1  0  0  0
 14 15  1  0  0  0
 15 16  1  0  0  0
 16 17  1  0  0  0
 17 18  2  0  0  0
 17 19  1  0  0  0
 18  1  1  0  0  0
  1  2  2  0  0  0
  2  3  1  0  0  0
  2  7  1  0  0  0
  3  4  1  0  0  0
 19 20  2  0  0  0
  4  5  1  0  0  0
  5  6  1  0  0  0
  6  7  1  0  0  0
  6 10  1  0  0  0
  6 11  1  0  0  0
  7  8  1  0  0  0
  8  9  1  0  0  0
  9 10  1  0  0  0
 10 22  1  0  0  0
 22 23  1  0  0  0
 22 24  1  0  0  0
 24 25  1  0  0  0
 25 26  1  0  0  0
 26 27  1  0  0  0
 27 28  1  0  0  0
 27 29  1  0  0  0
 12 21  1  0  0  0
M  END
> <minimizedAffinity>
-7.85255

$$$$
2GJ5_VD3_A_163


 29 31  0  0  0  0  0  0  0  0999 V2000
   -3.2635    1.0955   17.3031 C   0  0  0  0  0  0  0  0  0  0  0  0
   -2.7583    2.3225   17.7481 C   0  0  0  0  0  0  0  0  0  0  0  0
   -3.0675    1.9353   19.2918 C   0  0  0  0  0  0  0  0  0  0  0  0
   -3.2475    3.0594   20.2472 C   0  0  0  0  0  0  0  0  0  0  0  0
   -2.5424    4.4346   19.9296 C   0  0  0  0  0  0  0  0  0  0  0  0
   -2.5741    4.8687   18.4575 C   0  0  0  0  0  0  0  0  0  0  0  0
   -3.3322    3.8261   17.5493 C   0  0  0  0  0  0  0  0  0  0  0  0
   -3.1817    4.5344   16.1090 C   0  0  0  0  0  0  0  0  0  0  0  0
   -3.2034    6.1409   16.4180 C   0  0  0  0  0  0  0  0  0  0  0  0
   -3.4123    6.2029   17.9780 C   0  0  0  0  0  0  0  0  0  0  0  0
   -1.0110    4.9998   18.1265 C   0  0  0  0  0  0  0  0  0  0  0  0
   -8.4444    2.9695   19.6428 O   0  0  0  0  0  0  0  0  0  0  0  0
   -8.0554   -0.4449   18.7243 C   0  0  0  0  0  0  0  0  0  0  0  0
   -8.0645    0.5323   19.8410 C   0  0  0  0  0  0  0  0  0  0  0  0
   -7.4143    1.9653   19.5605 C   0  0  0  0  0  0  0  0  0  0  0  0
   -6.7568    2.0088   18.1556 C   0  0  0  0  0  0  0  0  0  0  0  0
   -5.9232    0.6987   17.7448 C   0  0  0  0  0  0  0  0  0  0  0  0
   -4.7365    0.8095   17.0743 C   0  0  0  0  0  0  0  0  0  0  0  0
   -6.6114   -0.6106   18.2039 C   0  0  0  0  0  0  0  0  0  0  0  0
   -6.0668   -1.7599   18.1619 C   0  0  0  0  0  0  0  0  0  0  0  0
   -8.8543    2.9410   20.5214 H   0  0  0  0  0  0  0  0  0  0  0  0
   -2.8282    7.5685   18.7136 C   0  0  0  0  0  0  0  0  0  0  0  0
   -3.9188    8.1117   19.6086 C   0  0  0  0  0  0  0  0  0  0  0  0
   -2.4636    8.8585   17.8898 C   0  0  0  0  0  0  0  0  0  0  0  0
   -3.8646    9.7860   17.7500 C   0  0  0  0  0  0  0  0  0  0  0  0
   -3.1960   11.1726   17.6045 C   0  0  0  0  0  0  0  0  0  0  0  0
   -3.7928   12.4445   18.2518 C   0  0  0  0  0  0  0  0  0  0  0  0
   -2.7199   12.5078   19.1733 C   0  0  0  0  0  0  0  0  0  0  0  0
   -3.6198   13.8367   17.9143 C   0  0  0  0  0  0  0  0  0  0  0  0
 12 15  1  0  0  0
 13 14  1  0  0  0
 13 19  1  0  0  0
 14 15  1  0  0  0
 15 16  1  0  0  0
 16 17  1  0  0  0
 17 18  2  0  0  0
 17 19  1  0  0  0
 18  1  1  0  0  0
  1  2  2  0  0  0
  2  3  1  0  0  0
  2  7  1  0  0  0
  3  4  1  0  0  0
 19 20  2  0  0  0
  4  5  1  0  0  0
  5  6  1  0  0  0
  6  7  1  0  0  0
  6 10  1  0  0  0
  6 11  1  0  0  0
  7  8  1  0  0  0
  8  9  1  0  0  0
  9 10  1  0  0  0
 10 22  1  0  0  0
 22 23  1  0  0  0
 22 24  1  0  0  0
 24 25  1  0  0  0
 25 26  1  0  0  0
 26 27  1  0  0  0
 27 28  1  0  0  0
 27 29  1  0  0  0
 12 21  1  0  0  0
M  END
> <minimizedAffinity>
-7.78709

$$$$
2GJ5_VD3_A_163


 29 31  0  0  0  0  0  0  0  0999 V2000
   -3.8501    7.7908   21.2388 C   0  0  0  0  0  0  0  0  0  0  0  0
   -3.3429    6.7560   20.4447 C   0  0  0  0  0  0  0  0  0  0  0  0
   -1.9117    7.5061   20.3110 C   0  0  0  0  0  0  0  0  0  0  0  0
   -1.0788    7.1664   19.1281 C   0  0  0  0  0  0  0  0  0  0  0  0
   -1.2650    5.7487   18.4610 C   0  0  0  0  0  0  0  0  0  0  0  0
   -2.7144    5.2543   18.3541 C   0  0  0  0  0  0  0  0  0  0  0  0
   -3.7406    6.2982   18.9406 C   0  0  0  0  0  0  0  0  0  0  0  0
   -5.1246    5.5053   18.7068 C   0  0  0  0  0  0  0  0  0  0  0  0
   -4.8967    4.6420   17.3359 C   0  0  0  0  0  0  0  0  0  0  0  0
   -3.4429    5.0537   16.8907 C   0  0  0  0  0  0  0  0  0  0  0  0
   -2.6475    3.8798   19.1764 C   0  0  0  0  0  0  0  0  0  0  0  0
   -3.7313   10.7119   16.0157 O   0  0  0  0  0  0  0  0  0  0  0  0
   -3.5887   12.5401   19.0639 C   0  0  0  0  0  0  0  0  0  0  0  0
   -2.8139   11.9998   17.9194 C   0  0  0  0  0  0  0  0  0  0  0  0
   -3.2419   10.5638   17.3629 C   0  0  0  0  0  0  0  0  0  0  0  0
   -4.3472    9.9334   18.2511 C   0  0  0  0  0  0  0  0  0  0  0  0
   -4.1409   10.1081   19.8345 C   0  0  0  0  0  0  0  0  0  0  0  0
   -4.4294    9.0828   20.6922 C   0  0  0  0  0  0  0  0  0  0  0  0
   -3.5916   11.5065   20.2106 C   0  0  0  0  0  0  0  0  0  0  0  0
   -3.1740   11.8250   21.3696 C   0  0  0  0  0  0  0  0  0  0  0  0
   -3.0393   11.1060   15.4619 H   0  0  0  0  0  0  0  0  0  0  0  0
   -2.6405    3.9283   15.9760 C   0  0  0  0  0  0  0  0  0  0  0  0
   -2.3043    4.5688   14.6485 C   0  0  0  0  0  0  0  0  0  0  0  0
   -3.3434    2.6078   15.4880 C   0  0  0  0  0  0  0  0  0  0  0  0
   -2.9098    1.3763   16.5549 C   0  0  0  0  0  0  0  0  0  0  0  0
   -4.2617    0.6265   16.5852 C   0  0  0  0  0  0  0  0  0  0  0  0
   -5.4054    1.0326   17.5445 C   0  0  0  0  0  0  0  0  0  0  0  0
   -5.7444   -0.3259   17.7538 C   0  0  0  0  0  0  0  0  0  0  0  0
   -5.3932    1.2762   18.9666 C   0  0  0  0  0  0  0  0  0  0  0  0
 12 15  1  0  0  0
 13 14  1  0  0  0
 13 19  1  0  0  0
 14 15  1  0  0  0
 15 16  1  0  0  0
 16 17  1  0  0  0
 17 18  2  0  0  0
 17 19  1  0  0  0
 18  1  1  0  0  0
  1  2  2  0  0  0
  2  3  1  0  0  0
  2  7  1  0  0  0
  3  4  1  0  0  0
 19 20  2  0  0  0
  4  5  1  0  0  0
  5  6  1  0  0  0
  6  7  1  0  0  0
  6 10  1  0  0  0
  6 11  1  0  0  0
  7  8  1  0  0  0
  8  9  1  0  0  0
  9 10  1  0  0  0
 10 22  1  0  0  0
 22 23  1  0  0  0
 22 24  1  0  0  0
 24 25  1  0  0  0
 25 26  1  0  0  0
 26 27  1  0  0  0
 27 28  1  0  0  0
 27 29  1  0  0  0
 12 21  1  0  0  0
M  END
> <minimizedAffinity>
-7.72528

$$$$
