4GU9_4GU_A_701


 19 21  0  0  0  0  0  0  0  0999 V2000
   13.2546   26.8327  -41.6075 C   0  0  0  0  0  0  0  0  0  0  0  0
   12.9133   26.4332  -42.9169 C   0  0  0  0  0  0  0  0  0  0  0  0
   13.8699   25.6959  -43.6589 C   0  0  0  0  0  0  0  0  0  0  0  0
   12.0303   26.0219  -44.8735 N   0  0  0  0  0  0  0  0  0  0  0  0
   14.4620   26.4523  -41.1517 N   0  0  0  0  0  0  0  0  0  0  0  0
   15.0429   25.3982  -43.1182 N   0  0  0  0  0  0  0  0  0  0  0  0
   13.3112   25.4363  -44.8626 N   0  0  0  0  0  0  0  0  0  0  0  0
   15.3307   25.7764  -41.8976 C   0  0  0  0  0  0  0  0  0  0  0  0
   11.7750   26.5978  -43.7287 C   0  0  0  0  0  0  0  0  0  0  0  0
   13.7249   24.9295  -45.5983 H   0  0  0  0  0  0  0  0  0  0  0  0
   12.3320   27.5468  -40.8467 N   0  0  0  0  0  0  0  0  0  0  0  0
   12.4329   28.5260  -40.8320 H   0  0  0  0  0  0  0  0  0  0  0  0
   11.2682   27.0071  -40.0955 C   0  0  0  0  0  0  0  0  0  0  0  0
   11.5585   26.4960  -38.8189 C   0  0  0  0  0  0  0  0  0  0  0  0
   12.8135   26.5570  -38.3398 F   0  0  0  0  0  0  0  0  0  0  0  0
    9.9456   26.9180  -40.5758 C   0  0  0  0  0  0  0  0  0  0  0  0
   10.5602   25.9050  -38.0429 C   0  0  0  0  0  0  0  0  0  0  0  0
    8.9464   26.3393  -39.7918 C   0  0  0  0  0  0  0  0  0  0  0  0
    9.2494   25.8331  -38.5263 C   0  0  0  0  0  0  0  0  0  0  0  0
  1  2  2  0  0  0
  1 11  1  0  0  0
  1  5  1  0  0  0
  2  3  1  0  0  0
  2  9  1  0  0  0
  3  6  2  0  0  0
  3  7  1  0  0  0
 11 13  1  0  0  0
  4  7  1  0  0  0
  4  9  2  0  0  0
  5  8  2  0  0  0
  6  8  1  0  0  0
 13 14  2  0  0  0
 13 16  1  0  0  0
 14 15  1  0  0  0
 14 17  1  0  0  0
 16 18  2  0  0  0
 17 19  2  0  0  0
 18 19  1  0  0  0
 11 12  1  0  0  0
  7 10  1  0  0  0
M  END
> <minimizedAffinity>
-6.82634

$$$$
4GU9_4GU_A_701


 19 21  0  0  0  0  0  0  0  0999 V2000
   13.1756   27.6713  -41.1196 C   0  0  0  0  0  0  0  0  0  0  0  0
   13.9952   26.6772  -41.6945 C   0  0  0  0  0  0  0  0  0  0  0  0
   15.1962   26.3344  -41.0240 C   0  0  0  0  0  0  0  0  0  0  0  0
   14.9805   25.1352  -42.8899 N   0  0  0  0  0  0  0  0  0  0  0  0
   13.5886   28.1990  -39.9529 N   0  0  0  0  0  0  0  0  0  0  0  0
   15.5188   26.9397  -39.8898 N   0  0  0  0  0  0  0  0  0  0  0  0
   15.7928   25.3727  -41.7640 N   0  0  0  0  0  0  0  0  0  0  0  0
   14.7355   27.8548  -39.3751 C   0  0  0  0  0  0  0  0  0  0  0  0
   13.9099   25.8836  -42.8542 C   0  0  0  0  0  0  0  0  0  0  0  0
   16.6416   24.9203  -41.5538 H   0  0  0  0  0  0  0  0  0  0  0  0
   11.9820   28.0219  -41.7460 N   0  0  0  0  0  0  0  0  0  0  0  0
   12.0084   28.8031  -42.3445 H   0  0  0  0  0  0  0  0  0  0  0  0
   10.7399   27.3695  -41.6083 C   0  0  0  0  0  0  0  0  0  0  0  0
   10.1052   26.9122  -42.7759 C   0  0  0  0  0  0  0  0  0  0  0  0
   10.6971   27.0783  -43.9720 F   0  0  0  0  0  0  0  0  0  0  0  0
   10.0893   27.1920  -40.3701 C   0  0  0  0  0  0  0  0  0  0  0  0
    8.8521   26.3007  -42.7142 C   0  0  0  0  0  0  0  0  0  0  0  0
    8.8426   26.5672  -40.3099 C   0  0  0  0  0  0  0  0  0  0  0  0
    8.2223   26.1203  -41.4781 C   0  0  0  0  0  0  0  0  0  0  0  0
  1  2  2  0  0  0
  1 11  1  0  0  0
  1  5  1  0  0  0
  2  3  1  0  0  0
  2  9  1  0  0  0
  3  6  2  0  0  0
  3  7  1  0  0  0
 11 13  1  0  0  0
  4  7  1  0  0  0
  4  9  2  0  0  0
  5  8  2  0  0  0
  6  8  1  0  0  0
 13 14  2  0  0  0
 13 16  1  0  0  0
 14 15  1  0  0  0
 14 17  1  0  0  0
 16 18  2  0  0  0
 17 19  2  0  0  0
 18 19  1  0  0  0
 11 12  1  0  0  0
  7 10  1  0  0  0
M  END
> <minimizedAffinity>
-6.80071

$$$$
4GU9_4GU_A_701


 19 21  0  0  0  0  0  0  0  0999 V2000
   13.5572   27.0079  -41.5622 C   0  0  0  0  0  0  0  0  0  0  0  0
   12.9785   26.5969  -42.7815 C   0  0  0  0  0  0  0  0  0  0  0  0
   13.6895   25.6612  -43.5742 C   0  0  0  0  0  0  0  0  0  0  0  0
   11.7800   26.2303  -44.5722 N   0  0  0  0  0  0  0  0  0  0  0  0
   14.7361   26.4504  -41.2311 N   0  0  0  0  0  0  0  0  0  0  0  0
   14.8601   25.1962  -43.1616 N   0  0  0  0  0  0  0  0  0  0  0  0
   12.9360   25.4320  -44.6733 N   0  0  0  0  0  0  0  0  0  0  0  0
   15.3709   25.5903  -42.0216 C   0  0  0  0  0  0  0  0  0  0  0  0
   11.7826   26.9090  -43.4556 C   0  0  0  0  0  0  0  0  0  0  0  0
   13.1557   24.8180  -45.4109 H   0  0  0  0  0  0  0  0  0  0  0  0
   12.8782   27.9159  -40.7532 N   0  0  0  0  0  0  0  0  0  0  0  0
   13.1817   28.8519  -40.7859 H   0  0  0  0  0  0  0  0  0  0  0  0
   11.7997   27.6281  -39.8922 C   0  0  0  0  0  0  0  0  0  0  0  0
   10.6052   28.3461  -40.0731 C   0  0  0  0  0  0  0  0  0  0  0  0
   10.5092   29.2535  -41.0610 F   0  0  0  0  0  0  0  0  0  0  0  0
   11.8744   26.6922  -38.8404 C   0  0  0  0  0  0  0  0  0  0  0  0
    9.5154   28.1436  -39.2249 C   0  0  0  0  0  0  0  0  0  0  0  0
   10.7782   26.4814  -38.0026 C   0  0  0  0  0  0  0  0  0  0  0  0
    9.5984   27.2037  -38.1920 C   0  0  0  0  0  0  0  0  0  0  0  0
  1  2  2  0  0  0
  1 11  1  0  0  0
  1  5  1  0  0  0
  2  3  1  0  0  0
  2  9  1  0  0  0
  3  6  2  0  0  0
  3  7  1  0  0  0
 11 13  1  0  0  0
  4  7  1  0  0  0
  4  9  2  0  0  0
  5  8  2  0  0  0
  6  8  1  0  0  0
 13 14  2  0  0  0
 13 16  1  0  0  0
 14 15  1  0  0  0
 14 17  1  0  0  0
 16 18  2  0  0  0
 17 19  2  0  0  0
 18 19  1  0  0  0
 11 12  1  0  0  0
  7 10  1  0  0  0
M  END
> <minimizedAffinity>
-6.77525

$$$$
4GU9_4GU_A_701


 19 21  0  0  0  0  0  0  0  0999 V2000
   12.9063   26.8502  -42.0660 C   0  0  0  0  0  0  0  0  0  0  0  0
   14.0324   26.6698  -41.2354 C   0  0  0  0  0  0  0  0  0  0  0  0
   15.1128   25.9004  -41.7358 C   0  0  0  0  0  0  0  0  0  0  0  0
   15.5564   26.6080  -39.6697 N   0  0  0  0  0  0  0  0  0  0  0  0
   12.9606   26.2969  -43.2913 N   0  0  0  0  0  0  0  0  0  0  0  0
   15.0478   25.3781  -42.9522 N   0  0  0  0  0  0  0  0  0  0  0  0
   16.0546   25.8772  -40.7659 N   0  0  0  0  0  0  0  0  0  0  0  0
   13.9923   25.5671  -43.7046 C   0  0  0  0  0  0  0  0  0  0  0  0
   14.3738   27.0952  -39.9375 C   0  0  0  0  0  0  0  0  0  0  0  0
   16.9304   25.4303  -40.8167 H   0  0  0  0  0  0  0  0  0  0  0  0
   11.8334   27.6120  -41.6097 N   0  0  0  0  0  0  0  0  0  0  0  0
   12.0006   28.5714  -41.4654 H   0  0  0  0  0  0  0  0  0  0  0  0
   10.5317   27.1462  -41.3338 C   0  0  0  0  0  0  0  0  0  0  0  0
   10.2680   26.6608  -40.0416 C   0  0  0  0  0  0  0  0  0  0  0  0
   11.2349   26.6768  -39.1070 F   0  0  0  0  0  0  0  0  0  0  0  0
    9.5018   27.1053  -42.2958 C   0  0  0  0  0  0  0  0  0  0  0  0
    9.0140   26.1413  -39.7166 C   0  0  0  0  0  0  0  0  0  0  0  0
    8.2444   26.5984  -41.9639 C   0  0  0  0  0  0  0  0  0  0  0  0
    7.9970   26.1169  -40.6769 C   0  0  0  0  0  0  0  0  0  0  0  0
  1  2  2  0  0  0
  1 11  1  0  0  0
  1  5  1  0  0  0
  2  3  1  0  0  0
  2  9  1  0  0  0
  3  6  2  0  0  0
  3  7  1  0  0  0
 11 13  1  0  0  0
  4  7  1  0  0  0
  4  9  2  0  0  0
  5  8  2  0  0  0
  6  8  1  0  0  0
 13 14  2  0  0  0
 13 16  1  0  0  0
 14 15  1  0  0  0
 14 17  1  0  0  0
 16 18  2  0  0  0
 17 19  2  0  0  0
 18 19  1  0  0  0
 11 12  1  0  0  0
  7 10  1  0  0  0
M  END
> <minimizedAffinity>
-6.75882

$$$$
4GU9_4GU_A_701


 19 21  0  0  0  0  0  0  0  0999 V2000
   10.4553   26.8498  -40.2814 C   0  0  0  0  0  0  0  0  0  0  0  0
    9.0854   26.6140  -40.5227 C   0  0  0  0  0  0  0  0  0  0  0  0
    8.3332   25.9647  -39.5117 C   0  0  0  0  0  0  0  0  0  0  0  0
    7.0404   26.4184  -41.2692 N   0  0  0  0  0  0  0  0  0  0  0  0
   10.9370   26.4625  -39.0864 N   0  0  0  0  0  0  0  0  0  0  0  0
    8.9185   25.6016  -38.3793 N   0  0  0  0  0  0  0  0  0  0  0  0
    7.0681   25.8583  -39.9771 N   0  0  0  0  0  0  0  0  0  0  0  0
   10.1911   25.8390  -38.1794 C   0  0  0  0  0  0  0  0  0  0  0  0
    8.2168   26.8829  -41.5975 C   0  0  0  0  0  0  0  0  0  0  0  0
    6.3044   25.4612  -39.4992 H   0  0  0  0  0  0  0  0  0  0  0  0
   11.2197   27.4978  -41.2488 N   0  0  0  0  0  0  0  0  0  0  0  0
   11.0095   28.4444  -41.4191 H   0  0  0  0  0  0  0  0  0  0  0  0
   12.2644   26.9330  -42.0085 C   0  0  0  0  0  0  0  0  0  0  0  0
   11.9574   26.4541  -43.2935 C   0  0  0  0  0  0  0  0  0  0  0  0
   10.7058   26.5677  -43.7721 F   0  0  0  0  0  0  0  0  0  0  0  0
   13.5825   26.7889  -41.5292 C   0  0  0  0  0  0  0  0  0  0  0  0
   12.9348   25.8408  -44.0789 C   0  0  0  0  0  0  0  0  0  0  0  0
   14.5613   26.1881  -42.3224 C   0  0  0  0  0  0  0  0  0  0  0  0
   14.2417   25.7142  -43.5962 C   0  0  0  0  0  0  0  0  0  0  0  0
  1  2  2  0  0  0
  1 11  1  0  0  0
  1  5  1  0  0  0
  2  3  1  0  0  0
  2  9  1  0  0  0
  3  6  2  0  0  0
  3  7  1  0  0  0
 11 13  1  0  0  0
  4  7  1  0  0  0
  4  9  2  0  0  0
  5  8  2  0  0  0
  6  8  1  0  0  0
 13 14  2  0  0  0
 13 16  1  0  0  0
 14 15  1  0  0  0
 14 17  1  0  0  0
 16 18  2  0  0  0
 17 19  2  0  0  0
 18 19  1  0  0  0
 11 12  1  0  0  0
  7 10  1  0  0  0
M  END
> <minimizedAffinity>
-6.69371

$$$$
4GU9_4GU_A_701


 19 21  0  0  0  0  0  0  0  0999 V2000
   13.0024   27.0398  -42.2167 C   0  0  0  0  0  0  0  0  0  0  0  0
   14.0784   26.7986  -41.3366 C   0  0  0  0  0  0  0  0  0  0  0  0
   15.0700   25.8677  -41.7363 C   0  0  0  0  0  0  0  0  0  0  0  0
   15.5458   26.6897  -39.7204 N   0  0  0  0  0  0  0  0  0  0  0  0
   13.0191   26.3827  -43.3907 N   0  0  0  0  0  0  0  0  0  0  0  0
   14.9718   25.2561  -42.9080 N   0  0  0  0  0  0  0  0  0  0  0  0
   15.9787   25.8155  -40.7363 N   0  0  0  0  0  0  0  0  0  0  0  0
   13.9651   25.5041  -43.7085 C   0  0  0  0  0  0  0  0  0  0  0  0
   14.4373   27.2886  -40.0666 C   0  0  0  0  0  0  0  0  0  0  0  0
   16.7953   25.2657  -40.7212 H   0  0  0  0  0  0  0  0  0  0  0  0
   12.0183   27.9586  -41.8601 N   0  0  0  0  0  0  0  0  0  0  0  0
   12.3249   28.8005  -41.4521 H   0  0  0  0  0  0  0  0  0  0  0  0
   10.6269   27.8031  -42.0251 C   0  0  0  0  0  0  0  0  0  0  0  0
    9.9765   28.6439  -42.9444 C   0  0  0  0  0  0  0  0  0  0  0  0
   10.6848   29.5411  -43.6527 F   0  0  0  0  0  0  0  0  0  0  0  0
    9.8561   26.8808  -41.2882 C   0  0  0  0  0  0  0  0  0  0  0  0
    8.5937   28.5741  -43.1208 C   0  0  0  0  0  0  0  0  0  0  0  0
    8.4753   26.8033  -41.4771 C   0  0  0  0  0  0  0  0  0  0  0  0
    7.8417   27.6467  -42.3918 C   0  0  0  0  0  0  0  0  0  0  0  0
  1  2  2  0  0  0
  1 11  1  0  0  0
  1  5  1  0  0  0
  2  3  1  0  0  0
  2  9  1  0  0  0
  3  6  2  0  0  0
  3  7  1  0  0  0
 11 13  1  0  0  0
  4  7  1  0  0  0
  4  9  2  0  0  0
  5  8  2  0  0  0
  6  8  1  0  0  0
 13 14  2  0  0  0
 13 16  1  0  0  0
 14 15  1  0  0  0
 14 17  1  0  0  0
 16 18  2  0  0  0
 17 19  2  0  0  0
 18 19  1  0  0  0
 11 12  1  0  0  0
  7 10  1  0  0  0
M  END
> <minimizedAffinity>
-6.67074

$$$$
4GU9_4GU_A_701


 19 21  0  0  0  0  0  0  0  0999 V2000
   11.2638   28.3201  -40.1728 C   0  0  0  0  0  0  0  0  0  0  0  0
   10.1576   28.7430  -40.9397 C   0  0  0  0  0  0  0  0  0  0  0  0
    8.8657   28.6197  -40.3694 C   0  0  0  0  0  0  0  0  0  0  0  0
    8.7287   29.4776  -42.4216 N   0  0  0  0  0  0  0  0  0  0  0  0
   11.0042   27.8564  -38.9367 N   0  0  0  0  0  0  0  0  0  0  0  0
    8.7239   28.1225  -39.1490 N   0  0  0  0  0  0  0  0  0  0  0  0
    7.9900   29.0867  -41.2879 N   0  0  0  0  0  0  0  0  0  0  0  0
    9.7694   27.7437  -38.4567 C   0  0  0  0  0  0  0  0  0  0  0  0
   10.0079   29.2972  -42.2251 C   0  0  0  0  0  0  0  0  0  0  0  0
    7.0127   29.1432  -41.1831 H   0  0  0  0  0  0  0  0  0  0  0  0
   12.5480   28.4401  -40.6985 N   0  0  0  0  0  0  0  0  0  0  0  0
   12.9799   29.3210  -40.6164 H   0  0  0  0  0  0  0  0  0  0  0  0
   13.2908   27.4259  -41.3364 C   0  0  0  0  0  0  0  0  0  0  0  0
   14.4849   27.0042  -40.7269 C   0  0  0  0  0  0  0  0  0  0  0  0
   14.8709   27.5460  -39.5581 F   0  0  0  0  0  0  0  0  0  0  0  0
   12.9183   26.8483  -42.5675 C   0  0  0  0  0  0  0  0  0  0  0  0
   15.2914   26.0379  -41.3301 C   0  0  0  0  0  0  0  0  0  0  0  0
   13.7196   25.8719  -43.1613 C   0  0  0  0  0  0  0  0  0  0  0  0
   14.9048   25.4643  -42.5460 C   0  0  0  0  0  0  0  0  0  0  0  0
  1  2  2  0  0  0
  1 11  1  0  0  0
  1  5  1  0  0  0
  2  3  1  0  0  0
  2  9  1  0  0  0
  3  6  2  0  0  0
  3  7  1  0  0  0
 11 13  1  0  0  0
  4  7  1  0  0  0
  4  9  2  0  0  0
  5  8  2  0  0  0
  6  8  1  0  0  0
 13 14  2  0  0  0
 13 16  1  0  0  0
 14 15  1  0  0  0
 14 17  1  0  0  0
 16 18  2  0  0  0
 17 19  2  0  0  0
 18 19  1  0  0  0
 11 12  1  0  0  0
  7 10  1  0  0  0
M  END
> <minimizedAffinity>
-6.61989

$$$$
4GU9_4GU_A_701


 19 21  0  0  0  0  0  0  0  0999 V2000
   10.4699   26.8733  -40.2084 C   0  0  0  0  0  0  0  0  0  0  0  0
    9.1113   26.6164  -40.4893 C   0  0  0  0  0  0  0  0  0  0  0  0
    8.3317   25.9861  -39.4871 C   0  0  0  0  0  0  0  0  0  0  0  0
    7.0950   26.3790  -41.2988 N   0  0  0  0  0  0  0  0  0  0  0  0
   10.9145   26.5231  -38.9878 N   0  0  0  0  0  0  0  0  0  0  0  0
    8.8817   25.6596  -38.3263 N   0  0  0  0  0  0  0  0  0  0  0  0
    7.0842   25.8539  -39.9919 N   0  0  0  0  0  0  0  0  0  0  0  0
   10.1443   25.9159  -38.0900 C   0  0  0  0  0  0  0  0  0  0  0  0
    8.2772   26.8473  -41.5996 C   0  0  0  0  0  0  0  0  0  0  0  0
    6.3087   25.4614  -39.5296 H   0  0  0  0  0  0  0  0  0  0  0  0
   11.2603   27.5034  -41.1666 N   0  0  0  0  0  0  0  0  0  0  0  0
   11.1548   28.4781  -41.2570 H   0  0  0  0  0  0  0  0  0  0  0  0
   12.1966   26.8846  -42.0198 C   0  0  0  0  0  0  0  0  0  0  0  0
   13.5148   26.7411  -41.5544 C   0  0  0  0  0  0  0  0  0  0  0  0
   13.8417   27.1629  -40.3200 F   0  0  0  0  0  0  0  0  0  0  0  0
   11.8867   26.4440  -43.3228 C   0  0  0  0  0  0  0  0  0  0  0  0
   14.5014   26.1803  -42.3670 C   0  0  0  0  0  0  0  0  0  0  0  0
   12.8721   25.8705  -44.1279 C   0  0  0  0  0  0  0  0  0  0  0  0
   14.1785   25.7365  -43.6538 C   0  0  0  0  0  0  0  0  0  0  0  0
  1  2  2  0  0  0
  1 11  1  0  0  0
  1  5  1  0  0  0
  2  3  1  0  0  0
  2  9  1  0  0  0
  3  6  2  0  0  0
  3  7  1  0  0  0
 11 13  1  0  0  0
  4  7  1  0  0  0
  4  9  2  0  0  0
  5  8  2  0  0  0
  6  8  1  0  0  0
 13 14  2  0  0  0
 13 16  1  0  0  0
 14 15  1  0  0  0
 14 17  1  0  0  0
 16 18  2  0  0  0
 17 19  2  0  0  0
 18 19  1  0  0  0
 11 12  1  0  0  0
  7 10  1  0  0  0
M  END
> <minimizedAffinity>
-6.59063

$$$$
4GU9_4GU_A_701


 19 21  0  0  0  0  0  0  0  0999 V2000
   10.7933   27.3494  -39.0434 C   0  0  0  0  0  0  0  0  0  0  0  0
    9.6391   26.7559  -39.5968 C   0  0  0  0  0  0  0  0  0  0  0  0
    8.6930   26.1849  -38.7089 C   0  0  0  0  0  0  0  0  0  0  0  0
    8.0246   25.9346  -40.8200 N   0  0  0  0  0  0  0  0  0  0  0  0
   10.8906   27.3528  -37.7015 N   0  0  0  0  0  0  0  0  0  0  0  0
    8.9042   26.2217  -37.4010 N   0  0  0  0  0  0  0  0  0  0  0  0
    7.6933   25.6899  -39.4731 N   0  0  0  0  0  0  0  0  0  0  0  0
    9.9819   26.7851  -36.9142 C   0  0  0  0  0  0  0  0  0  0  0  0
    9.1593   26.5767  -40.9081 C   0  0  0  0  0  0  0  0  0  0  0  0
    6.8806   25.2399  -39.1470 H   0  0  0  0  0  0  0  0  0  0  0  0
   11.7361   27.9314  -39.8874 N   0  0  0  0  0  0  0  0  0  0  0  0
   11.5148   28.8174  -40.2552 H   0  0  0  0  0  0  0  0  0  0  0  0
   12.9758   27.3781  -40.2674 C   0  0  0  0  0  0  0  0  0  0  0  0
   13.1199   26.9390  -41.5946 C   0  0  0  0  0  0  0  0  0  0  0  0
   12.1027   27.0788  -42.4632 F   0  0  0  0  0  0  0  0  0  0  0  0
   14.0553   27.2072  -39.3767 C   0  0  0  0  0  0  0  0  0  0  0  0
   14.3048   26.3386  -42.0230 C   0  0  0  0  0  0  0  0  0  0  0  0
   15.2442   26.6194  -39.8116 C   0  0  0  0  0  0  0  0  0  0  0  0
   15.3727   26.1852  -41.1323 C   0  0  0  0  0  0  0  0  0  0  0  0
  1  2  2  0  0  0
  1 11  1  0  0  0
  1  5  1  0  0  0
  2  3  1  0  0  0
  2  9  1  0  0  0
  3  6  2  0  0  0
  3  7  1  0  0  0
 11 13  1  0  0  0
  4  7  1  0  0  0
  4  9  2  0  0  0
  5  8  2  0  0  0
  6  8  1  0  0  0
 13 14  2  0  0  0
 13 16  1  0  0  0
 14 15  1  0  0  0
 14 17  1  0  0  0
 16 18  2  0  0  0
 17 19  2  0  0  0
 18 19  1  0  0  0
 11 12  1  0  0  0
  7 10  1  0  0  0
M  END
> <minimizedAffinity>
-6.55890

$$$$
4GU9_4GU_A_701


 19 21  0  0  0  0  0  0  0  0999 V2000
    9.1785   27.5816  -42.3144 C   0  0  0  0  0  0  0  0  0  0  0  0
    8.7473   26.8528  -41.1859 C   0  0  0  0  0  0  0  0  0  0  0  0
    7.3898   26.4479  -41.1334 C   0  0  0  0  0  0  0  0  0  0  0  0
    8.4697   25.7791  -39.3024 N   0  0  0  0  0  0  0  0  0  0  0  0
    8.2647   27.8107  -43.2749 N   0  0  0  0  0  0  0  0  0  0  0  0
    6.5679   26.7523  -42.1276 N   0  0  0  0  0  0  0  0  0  0  0  0
    7.2302   25.7752  -39.9713 N   0  0  0  0  0  0  0  0  0  0  0  0
    6.9970   27.4246  -43.1668 C   0  0  0  0  0  0  0  0  0  0  0  0
    9.3770   26.3951  -40.0129 C   0  0  0  0  0  0  0  0  0  0  0  0
    6.3980   25.3582  -39.6508 H   0  0  0  0  0  0  0  0  0  0  0  0
   10.5094   27.9828  -42.4033 N   0  0  0  0  0  0  0  0  0  0  0  0
   10.7050   28.9218  -42.1815 H   0  0  0  0  0  0  0  0  0  0  0  0
   11.6041   27.1781  -42.7794 C   0  0  0  0  0  0  0  0  0  0  0  0
   12.7537   27.2140  -41.9717 C   0  0  0  0  0  0  0  0  0  0  0  0
   12.7742   27.9777  -40.8649 F   0  0  0  0  0  0  0  0  0  0  0  0
   11.6167   26.3776  -43.9399 C   0  0  0  0  0  0  0  0  0  0  0  0
   13.8893   26.4781  -42.3136 C   0  0  0  0  0  0  0  0  0  0  0  0
   12.7488   25.6316  -44.2717 C   0  0  0  0  0  0  0  0  0  0  0  0
   13.8850   25.6787  -43.4616 C   0  0  0  0  0  0  0  0  0  0  0  0
  1  2  2  0  0  0
  1 11  1  0  0  0
  1  5  1  0  0  0
  2  3  1  0  0  0
  2  9  1  0  0  0
  3  6  2  0  0  0
  3  7  1  0  0  0
 11 13  1  0  0  0
  4  7  1  0  0  0
  4  9  2  0  0  0
  5  8  2  0  0  0
  6  8  1  0  0  0
 13 14  2  0  0  0
 13 16  1  0  0  0
 14 15  1  0  0  0
 14 17  1  0  0  0
 16 18  2  0  0  0
 17 19  2  0  0  0
 18 19  1  0  0  0
 11 12  1  0  0  0
  7 10  1  0  0  0
M  END
> <minimizedAffinity>
-6.38428

$$$$
