2AFX_1BN_A_1501


 12 13  0  0  0  0  0  0  0  0999 V2000
  -14.0959    5.2917   23.4175 C   0  0  0  0  0  0  0  0  0  0  0  0
  -14.6152    4.2812   22.4603 C   0  0  0  0  0  0  0  0  0  0  0  0
  -13.7559    3.3765   21.8405 C   0  0  0  0  0  0  0  0  0  0  0  0
  -15.9814    4.1740   22.2305 C   0  0  0  0  0  0  0  0  0  0  0  0
  -14.2548    2.3633   21.0069 C   0  0  0  0  0  0  0  0  0  0  0  0
  -16.4901    3.1679   21.4033 C   0  0  0  0  0  0  0  0  0  0  0  0
  -15.6151    2.2595   20.7932 C   0  0  0  0  0  0  0  0  0  0  0  0
  -14.8438    4.2012   25.5449 C   0  0  0  0  0  0  0  0  0  0  0  0
  -15.1995    4.6594   26.7688 C   0  0  0  0  0  0  0  0  0  0  0  0
  -14.7160    5.3093   24.7383 N   0  0  0  0  0  0  0  0  0  0  0  0
  -14.9746    6.3956   25.4475 C   0  0  0  0  0  0  0  0  0  0  0  0
  -15.2707    6.0249   26.6871 N   0  0  0  0  0  0  0  0  0  0  0  0
  8  9  2  0  0  0
  8 10  1  0  0  0
  9 12  1  0  0  0
 10 11  1  0  0  0
 10  1  1  0  0  0
 11 12  2  0  0  0
  1  2  1  0  0  0
  2  3  2  0  0  0
  2  4  1  0  0  0
  3  5  1  0  0  0
  4  6  2  0  0  0
  5  7  2  0  0  0
  6  7  1  0  0  0
M  END
> <minimizedAffinity>
-6.40713

$$$$
2AFX_1BN_A_1501


 12 13  0  0  0  0  0  0  0  0999 V2000
  -13.8952    3.9010   23.0595 C   0  0  0  0  0  0  0  0  0  0  0  0
  -14.2940    4.7533   24.2090 C   0  0  0  0  0  0  0  0  0  0  0  0
  -14.2745    6.1428   24.1088 C   0  0  0  0  0  0  0  0  0  0  0  0
  -14.7692    4.1717   25.3781 C   0  0  0  0  0  0  0  0  0  0  0  0
  -14.7371    6.9482   25.1612 C   0  0  0  0  0  0  0  0  0  0  0  0
  -15.2340    4.9639   26.4325 C   0  0  0  0  0  0  0  0  0  0  0  0
  -15.2167    6.3599   26.3147 C   0  0  0  0  0  0  0  0  0  0  0  0
  -16.2359    3.7002   22.1905 C   0  0  0  0  0  0  0  0  0  0  0  0
  -16.8463    2.8878   21.2951 C   0  0  0  0  0  0  0  0  0  0  0  0
  -14.9718    3.1890   22.3787 N   0  0  0  0  0  0  0  0  0  0  0  0
  -14.8194    2.1157   21.6206 C   0  0  0  0  0  0  0  0  0  0  0  0
  -15.9474    1.9132   20.9511 N   0  0  0  0  0  0  0  0  0  0  0  0
  8  9  2  0  0  0
  8 10  1  0  0  0
  9 12  1  0  0  0
 10 11  1  0  0  0
 10  1  1  0  0  0
 11 12  2  0  0  0
  1  2  1  0  0  0
  2  3  2  0  0  0
  2  4  1  0  0  0
  3  5  1  0  0  0
  4  6  2  0  0  0
  5  7  2  0  0  0
  6  7  1  0  0  0
M  END
> <minimizedAffinity>
-6.23686

$$$$
2AFX_1BN_A_1501


 12 13  0  0  0  0  0  0  0  0999 V2000
  -14.1308    3.7211   24.0341 C   0  0  0  0  0  0  0  0  0  0  0  0
  -12.9352    4.6030   24.0323 C   0  0  0  0  0  0  0  0  0  0  0  0
  -11.6701    4.0918   24.3134 C   0  0  0  0  0  0  0  0  0  0  0  0
  -13.0536    5.9395   23.6708 C   0  0  0  0  0  0  0  0  0  0  0  0
  -10.5282    4.9030   24.2230 C   0  0  0  0  0  0  0  0  0  0  0  0
  -11.9230    6.7568   23.5759 C   0  0  0  0  0  0  0  0  0  0  0  0
  -10.6558    6.2273   23.8531 C   0  0  0  0  0  0  0  0  0  0  0  0
  -14.5993    2.8140   21.7469 C   0  0  0  0  0  0  0  0  0  0  0  0
  -15.6681    2.8488   20.9158 C   0  0  0  0  0  0  0  0  0  0  0  0
  -14.8922    3.6621   22.7907 N   0  0  0  0  0  0  0  0  0  0  0  0
  -16.0941    4.1823   22.6043 C   0  0  0  0  0  0  0  0  0  0  0  0
  -16.5864    3.7011   21.4695 N   0  0  0  0  0  0  0  0  0  0  0  0
  8  9  2  0  0  0
  8 10  1  0  0  0
  9 12  1  0  0  0
 10 11  1  0  0  0
 10  1  1  0  0  0
 11 12  2  0  0  0
  1  2  1  0  0  0
  2  3  2  0  0  0
  2  4  1  0  0  0
  3  5  1  0  0  0
  4  6  2  0  0  0
  5  7  2  0  0  0
  6  7  1  0  0  0
M  END
> <minimizedAffinity>
-5.91361

$$$$
2AFX_1BN_A_1501


 12 13  0  0  0  0  0  0  0  0999 V2000
  -14.0215    3.8218   24.0021 C   0  0  0  0  0  0  0  0  0  0  0  0
  -12.7970    4.6591   23.9220 C   0  0  0  0  0  0  0  0  0  0  0  0
  -12.8770    6.0132   23.6041 C   0  0  0  0  0  0  0  0  0  0  0  0
  -11.5581    4.1174   24.2423 C   0  0  0  0  0  0  0  0  0  0  0  0
  -11.7326    6.8258   23.6172 C   0  0  0  0  0  0  0  0  0  0  0  0
  -10.4114    4.9174   24.2601 C   0  0  0  0  0  0  0  0  0  0  0  0
  -10.5079    6.2796   23.9466 C   0  0  0  0  0  0  0  0  0  0  0  0
  -14.5609    2.8410   21.7614 C   0  0  0  0  0  0  0  0  0  0  0  0
  -15.6535    2.8538   20.9611 C   0  0  0  0  0  0  0  0  0  0  0  0
  -14.8192    3.7252   22.7841 N   0  0  0  0  0  0  0  0  0  0  0  0
  -16.0237    4.2455   22.6154 C   0  0  0  0  0  0  0  0  0  0  0  0
  -16.5513    3.7293   21.5123 N   0  0  0  0  0  0  0  0  0  0  0  0
  8  9  2  0  0  0
  8 10  1  0  0  0
  9 12  1  0  0  0
 10 11  1  0  0  0
 10  1  1  0  0  0
 11 12  2  0  0  0
  1  2  1  0  0  0
  2  3  2  0  0  0
  2  4  1  0  0  0
  3  5  1  0  0  0
  4  6  2  0  0  0
  5  7  2  0  0  0
  6  7  1  0  0  0
M  END
> <minimizedAffinity>
-5.89331

$$$$
2AFX_1BN_A_1501


 12 13  0  0  0  0  0  0  0  0999 V2000
  -13.5104    5.4326   23.4529 C   0  0  0  0  0  0  0  0  0  0  0  0
  -12.0638    5.6362   23.7231 C   0  0  0  0  0  0  0  0  0  0  0  0
  -11.4909    6.9026   23.6296 C   0  0  0  0  0  0  0  0  0  0  0  0
  -11.2770    4.5739   24.1515 C   0  0  0  0  0  0  0  0  0  0  0  0
  -10.1461    7.1128   23.9726 C   0  0  0  0  0  0  0  0  0  0  0  0
   -9.9367    4.7716   24.4974 C   0  0  0  0  0  0  0  0  0  0  0  0
   -9.3758    6.0523   24.4068 C   0  0  0  0  0  0  0  0  0  0  0  0
  -14.7075    4.1228   25.2208 C   0  0  0  0  0  0  0  0  0  0  0  0
  -15.2762    4.4371   26.4091 C   0  0  0  0  0  0  0  0  0  0  0  0
  -14.3762    5.3170   24.6218 N   0  0  0  0  0  0  0  0  0  0  0  0
  -14.7217    6.3142   25.4194 C   0  0  0  0  0  0  0  0  0  0  0  0
  -15.2709    5.8029   26.5142 N   0  0  0  0  0  0  0  0  0  0  0  0
  8  9  2  0  0  0
  8 10  1  0  0  0
  9 12  1  0  0  0
 10 11  1  0  0  0
 10  1  1  0  0  0
 11 12  2  0  0  0
  1  2  1  0  0  0
  2  3  2  0  0  0
  2  4  1  0  0  0
  3  5  1  0  0  0
  4  6  2  0  0  0
  5  7  2  0  0  0
  6  7  1  0  0  0
M  END
> <minimizedAffinity>
-5.79730

$$$$
2AFX_1BN_A_1501


 12 13  0  0  0  0  0  0  0  0999 V2000
  -13.9832    4.5812   24.4331 C   0  0  0  0  0  0  0  0  0  0  0  0
  -14.5560    3.9282   23.2279 C   0  0  0  0  0  0  0  0  0  0  0  0
  -15.9230    3.9863   22.9656 C   0  0  0  0  0  0  0  0  0  0  0  0
  -13.7206    3.3161   22.3015 C   0  0  0  0  0  0  0  0  0  0  0  0
  -16.4536    3.4493   21.7822 C   0  0  0  0  0  0  0  0  0  0  0  0
  -14.2376    2.7791   21.1184 C   0  0  0  0  0  0  0  0  0  0  0  0
  -15.6133    2.8521   20.8636 C   0  0  0  0  0  0  0  0  0  0  0  0
  -15.2009    6.2430   25.8577 C   0  0  0  0  0  0  0  0  0  0  0  0
  -15.2218    7.5955   25.9256 C   0  0  0  0  0  0  0  0  0  0  0  0
  -14.4716    5.9226   24.7351 N   0  0  0  0  0  0  0  0  0  0  0  0
  -14.0593    7.0361   24.1519 C   0  0  0  0  0  0  0  0  0  0  0  0
  -14.5032    8.0677   24.8593 N   0  0  0  0  0  0  0  0  0  0  0  0
  8  9  2  0  0  0
  8 10  1  0  0  0
  9 12  1  0  0  0
 10 11  1  0  0  0
 10  1  1  0  0  0
 11 12  2  0  0  0
  1  2  1  0  0  0
  2  3  2  0  0  0
  2  4  1  0  0  0
  3  5  1  0  0  0
  4  6  2  0  0  0
  5  7  2  0  0  0
  6  7  1  0  0  0
M  END
> <minimizedAffinity>
-5.79112

$$$$
2AFX_1BN_A_1501


 12 13  0  0  0  0  0  0  0  0999 V2000
  -13.9293    4.7839   24.2591 C   0  0  0  0  0  0  0  0  0  0  0  0
  -14.5221    4.1139   23.0731 C   0  0  0  0  0  0  0  0  0  0  0  0
  -13.7193    3.4269   22.1651 C   0  0  0  0  0  0  0  0  0  0  0  0
  -15.9003    4.0972   22.8965 C   0  0  0  0  0  0  0  0  0  0  0  0
  -14.2859    2.7169   21.0950 C   0  0  0  0  0  0  0  0  0  0  0  0
  -16.4762    3.3922   21.8351 C   0  0  0  0  0  0  0  0  0  0  0  0
  -15.6573    2.6984   20.9344 C   0  0  0  0  0  0  0  0  0  0  0  0
  -15.1584    6.5161   25.5869 C   0  0  0  0  0  0  0  0  0  0  0  0
  -15.1190    7.8687   25.6437 C   0  0  0  0  0  0  0  0  0  0  0  0
  -14.3719    6.1500   24.5182 N   0  0  0  0  0  0  0  0  0  0  0  0
  -13.8688    7.2367   23.9561 C   0  0  0  0  0  0  0  0  0  0  0  0
  -14.3090    8.2953   24.6248 N   0  0  0  0  0  0  0  0  0  0  0  0
  8  9  2  0  0  0
  8 10  1  0  0  0
  9 12  1  0  0  0
 10 11  1  0  0  0
 10  1  1  0  0  0
 11 12  2  0  0  0
  1  2  1  0  0  0
  2  3  2  0  0  0
  2  4  1  0  0  0
  3  5  1  0  0  0
  4  6  2  0  0  0
  5  7  2  0  0  0
  6  7  1  0  0  0
M  END
> <minimizedAffinity>
-5.78578

$$$$
2AFX_1BN_A_1501


 12 13  0  0  0  0  0  0  0  0999 V2000
  -14.0078    5.9142   23.5148 C   0  0  0  0  0  0  0  0  0  0  0  0
  -12.7388    5.2063   23.2058 C   0  0  0  0  0  0  0  0  0  0  0  0
  -11.6584    5.2606   24.0837 C   0  0  0  0  0  0  0  0  0  0  0  0
  -12.6406    4.4125   22.0695 C   0  0  0  0  0  0  0  0  0  0  0  0
  -10.4920    4.5193   23.8384 C   0  0  0  0  0  0  0  0  0  0  0  0
  -11.4842    3.6685   21.8155 C   0  0  0  0  0  0  0  0  0  0  0  0
  -10.4086    3.7258   22.7114 C   0  0  0  0  0  0  0  0  0  0  0  0
  -14.8891    4.2125   25.1277 C   0  0  0  0  0  0  0  0  0  0  0  0
  -15.2822    4.2512   26.4232 C   0  0  0  0  0  0  0  0  0  0  0  0
  -14.6852    5.5189   24.7453 N   0  0  0  0  0  0  0  0  0  0  0  0
  -14.9355    6.3163   25.7707 C   0  0  0  0  0  0  0  0  0  0  0  0
  -15.2999    5.5669   26.8038 N   0  0  0  0  0  0  0  0  0  0  0  0
  8  9  2  0  0  0
  8 10  1  0  0  0
  9 12  1  0  0  0
 10 11  1  0  0  0
 10  1  1  0  0  0
 11 12  2  0  0  0
  1  2  1  0  0  0
  2  3  2  0  0  0
  2  4  1  0  0  0
  3  5  1  0  0  0
  4  6  2  0  0  0
  5  7  2  0  0  0
  6  7  1  0  0  0
M  END
> <minimizedAffinity>
-5.73983

$$$$
2AFX_1BN_A_1501


 12 13  0  0  0  0  0  0  0  0999 V2000
  -14.1203    5.6079   23.3641 C   0  0  0  0  0  0  0  0  0  0  0  0
  -12.8116    4.9315   23.1728 C   0  0  0  0  0  0  0  0  0  0  0  0
  -12.5773    4.1313   22.0567 C   0  0  0  0  0  0  0  0  0  0  0  0
  -11.7731    5.1534   24.0690 C   0  0  0  0  0  0  0  0  0  0  0  0
  -11.3132    3.5656   21.8275 C   0  0  0  0  0  0  0  0  0  0  0  0
  -10.5092    4.5965   23.8503 C   0  0  0  0  0  0  0  0  0  0  0  0
  -10.2853    3.8007   22.7191 C   0  0  0  0  0  0  0  0  0  0  0  0
  -14.9960    4.2077   25.2473 C   0  0  0  0  0  0  0  0  0  0  0  0
  -15.3246    4.4560   26.5376 C   0  0  0  0  0  0  0  0  0  0  0  0
  -14.7545    5.4320   24.6664 N   0  0  0  0  0  0  0  0  0  0  0  0
  -14.9209    6.3829   25.5709 C   0  0  0  0  0  0  0  0  0  0  0  0
  -15.2674    5.8126   26.7182 N   0  0  0  0  0  0  0  0  0  0  0  0
  8  9  2  0  0  0
  8 10  1  0  0  0
  9 12  1  0  0  0
 10 11  1  0  0  0
 10  1  1  0  0  0
 11 12  2  0  0  0
  1  2  1  0  0  0
  2  3  2  0  0  0
  2  4  1  0  0  0
  3  5  1  0  0  0
  4  6  2  0  0  0
  5  7  2  0  0  0
  6  7  1  0  0  0
M  END
> <minimizedAffinity>
-5.70119

$$$$
2AFX_1BN_A_1501


 12 13  0  0  0  0  0  0  0  0999 V2000
  -13.3331    3.8805   22.7671 C   0  0  0  0  0  0  0  0  0  0  0  0
  -12.1852    4.3198   21.9327 C   0  0  0  0  0  0  0  0  0  0  0  0
  -12.0600    5.6483   21.5324 C   0  0  0  0  0  0  0  0  0  0  0  0
  -11.1755    3.4227   21.6059 C   0  0  0  0  0  0  0  0  0  0  0  0
  -10.9305    6.0840   20.8219 C   0  0  0  0  0  0  0  0  0  0  0  0
  -10.0450    3.8456   20.8998 C   0  0  0  0  0  0  0  0  0  0  0  0
   -9.9282    5.1865   20.5110 C   0  0  0  0  0  0  0  0  0  0  0  0
  -14.9278    2.7697   21.1869 C   0  0  0  0  0  0  0  0  0  0  0  0
  -16.2673    2.8307   20.9959 C   0  0  0  0  0  0  0  0  0  0  0  0
  -14.6190    3.7640   22.0872 N   0  0  0  0  0  0  0  0  0  0  0  0
  -15.7281    4.3957   22.4349 C   0  0  0  0  0  0  0  0  0  0  0  0
  -16.7448    3.8443   21.7838 N   0  0  0  0  0  0  0  0  0  0  0  0
  8  9  2  0  0  0
  8 10  1  0  0  0
  9 12  1  0  0  0
 10 11  1  0  0  0
 10  1  1  0  0  0
 11 12  2  0  0  0
  1  2  1  0  0  0
  2  3  2  0  0  0
  2  4  1  0  0  0
  3  5  1  0  0  0
  4  6  2  0  0  0
  5  7  2  0  0  0
  6  7  1  0  0  0
M  END
> <minimizedAffinity>
-5.45276

$$$$
