5U0W_9MG_A_301


 15 16  0  0  0  0  0  0  0  0999 V2000
    7.9683   -3.8750   27.8391 C   0  0  0  0  0  0  0  0  0  0  0  0
    8.1630   -3.4539   26.4646 N   0  0  0  0  0  0  0  0  0  0  0  0
    7.3557   -3.7656   25.4076 C   0  0  0  0  0  0  0  0  0  0  0  0
    7.8088   -3.2267   24.2853 N   0  0  0  0  0  0  0  0  0  0  0  0
    8.9437   -2.5563   24.6651 C   0  0  0  0  0  0  0  0  0  0  0  0
    9.8388   -1.7865   23.8691 C   0  0  0  0  0  0  0  0  0  0  0  0
    9.7120   -1.6060   22.6672 O   0  0  0  0  0  0  0  0  0  0  0  0
   10.8566   -1.2832   24.6591 N   0  0  0  0  0  0  0  0  0  0  0  0
   11.0132   -1.4728   26.0292 C   0  0  0  0  0  0  0  0  0  0  0  0
   12.1195   -0.8521   26.5668 N   0  0  0  0  0  0  0  0  0  0  0  0
   10.1814   -2.1770   26.7392 N   0  0  0  0  0  0  0  0  0  0  0  0
    9.1850   -2.6792   26.0030 C   0  0  0  0  0  0  0  0  0  0  0  0
    8.9882   -1.9870   22.2100 H   0  0  0  0  0  0  0  0  0  0  0  0
   12.7204   -0.3294   25.9881 H   0  0  0  0  0  0  0  0  0  0  0  0
   12.3092   -0.9314   27.5296 H   0  0  0  0  0  0  0  0  0  0  0  0
  1  2  1  0  0  0
  2  3  1  0  0  0
  2 12  1  0  0  0
  3  4  2  0  0  0
  4  5  1  0  0  0
  5  6  1  0  0  0
  5 12  2  0  0  0
  6  7  1  0  0  0
  6  8  2  0  0  0
  8  9  1  0  0  0
  9 10  1  0  0  0
  9 11  2  0  0  0
 11 12  1  0  0  0
  7 13  1  0  0  0
 10 14  1  0  0  0
 10 15  1  0  0  0
M  END
> <minimizedAffinity>
-6.72692

$$$$
5U0W_9MG_A_301


 15 16  0  0  0  0  0  0  0  0999 V2000
   10.2308   -1.3170   23.4814 C   0  0  0  0  0  0  0  0  0  0  0  0
    9.9358   -1.8869   24.7824 N   0  0  0  0  0  0  0  0  0  0  0  0
   10.6727   -1.7153   25.9198 C   0  0  0  0  0  0  0  0  0  0  0  0
   10.1358   -2.3682   26.9399 N   0  0  0  0  0  0  0  0  0  0  0  0
    9.0226   -2.9693   26.4098 C   0  0  0  0  0  0  0  0  0  0  0  0
    8.0580   -3.7960   27.0529 C   0  0  0  0  0  0  0  0  0  0  0  0
    8.0906   -4.1019   28.2356 O   0  0  0  0  0  0  0  0  0  0  0  0
    7.0944   -4.1901   26.1423 N   0  0  0  0  0  0  0  0  0  0  0  0
    7.0378   -3.8464   24.7946 C   0  0  0  0  0  0  0  0  0  0  0  0
    5.9622   -4.3772   24.1166 N   0  0  0  0  0  0  0  0  0  0  0  0
    7.9275   -3.0862   24.2269 N   0  0  0  0  0  0  0  0  0  0  0  0
    8.8751   -2.6888   25.0820 C   0  0  0  0  0  0  0  0  0  0  0  0
    8.7842   -3.7879   28.7818 H   0  0  0  0  0  0  0  0  0  0  0  0
    5.3146   -4.9477   24.5903 H   0  0  0  0  0  0  0  0  0  0  0  0
    5.8413   -4.1860   23.1585 H   0  0  0  0  0  0  0  0  0  0  0  0
  1  2  1  0  0  0
  2  3  1  0  0  0
  2 12  1  0  0  0
  3  4  2  0  0  0
  4  5  1  0  0  0
  5  6  1  0  0  0
  5 12  2  0  0  0
  6  7  1  0  0  0
  6  8  2  0  0  0
  8  9  1  0  0  0
  9 10  1  0  0  0
  9 11  2  0  0  0
 11 12  1  0  0  0
  7 13  1  0  0  0
 10 14  1  0  0  0
 10 15  1  0  0  0
M  END
> <minimizedAffinity>
-6.56643

$$$$
5U0W_9MG_A_301


 15 16  0  0  0  0  0  0  0  0999 V2000
    6.7868   -3.7673   25.1065 C   0  0  0  0  0  0  0  0  0  0  0  0
    8.0424   -3.3613   25.7089 N   0  0  0  0  0  0  0  0  0  0  0  0
    8.5042   -3.7428   26.9366 C   0  0  0  0  0  0  0  0  0  0  0  0
    9.6841   -3.1979   27.1936 N   0  0  0  0  0  0  0  0  0  0  0  0
    9.9612   -2.4475   26.0792 C   0  0  0  0  0  0  0  0  0  0  0  0
   11.1049   -1.6469   25.7991 C   0  0  0  0  0  0  0  0  0  0  0  0
   12.0534   -1.5100   26.5573 O   0  0  0  0  0  0  0  0  0  0  0  0
   10.9743   -1.0599   24.5535 N   0  0  0  0  0  0  0  0  0  0  0  0
    9.9054   -1.2096   23.6747 C   0  0  0  0  0  0  0  0  0  0  0  0
   10.0369   -0.5112   22.4944 N   0  0  0  0  0  0  0  0  0  0  0  0
    8.8710   -1.9492   23.9483 N   0  0  0  0  0  0  0  0  0  0  0  0
    8.9664   -2.5307   25.1482 C   0  0  0  0  0  0  0  0  0  0  0  0
   12.0578   -1.9474   27.3859 H   0  0  0  0  0  0  0  0  0  0  0  0
   10.8394    0.0358   22.3329 H   0  0  0  0  0  0  0  0  0  0  0  0
    9.3284   -0.5591   21.8125 H   0  0  0  0  0  0  0  0  0  0  0  0
  1  2  1  0  0  0
  2  3  1  0  0  0
  2 12  1  0  0  0
  3  4  2  0  0  0
  4  5  1  0  0  0
  5  6  1  0  0  0
  5 12  2  0  0  0
  6  7  1  0  0  0
  6  8  2  0  0  0
  8  9  1  0  0  0
  9 10  1  0  0  0
  9 11  2  0  0  0
 11 12  1  0  0  0
  7 13  1  0  0  0
 10 14  1  0  0  0
 10 15  1  0  0  0
M  END
> <minimizedAffinity>
-5.96377

$$$$
5U0W_9MG_A_301


 15 16  0  0  0  0  0  0  0  0999 V2000
   11.6755   -1.5458   26.1640 C   0  0  0  0  0  0  0  0  0  0  0  0
   10.5350   -1.9282   25.3532 N   0  0  0  0  0  0  0  0  0  0  0  0
   10.3492   -1.6237   24.0346 C   0  0  0  0  0  0  0  0  0  0  0  0
    9.2055   -2.1196   23.5863 N   0  0  0  0  0  0  0  0  0  0  0  0
    8.6618   -2.7549   24.6738 C   0  0  0  0  0  0  0  0  0  0  0  0
    7.4357   -3.4720   24.7727 C   0  0  0  0  0  0  0  0  0  0  0  0
    6.6526   -3.6301   23.8480 O   0  0  0  0  0  0  0  0  0  0  0  0
    7.2753   -3.9539   26.0592 N   0  0  0  0  0  0  0  0  0  0  0  0
    8.1590   -3.7893   27.1221 C   0  0  0  0  0  0  0  0  0  0  0  0
    7.7507   -4.3795   28.2982 N   0  0  0  0  0  0  0  0  0  0  0  0
    9.2765   -3.1334   27.0097 N   0  0  0  0  0  0  0  0  0  0  0  0
    9.4608   -2.6530   25.7759 C   0  0  0  0  0  0  0  0  0  0  0  0
    6.8429   -3.2667   23.0056 H   0  0  0  0  0  0  0  0  0  0  0  0
    6.8955   -4.8659   28.3339 H   0  0  0  0  0  0  0  0  0  0  0  0
    8.3142   -4.3148   29.1029 H   0  0  0  0  0  0  0  0  0  0  0  0
  1  2  1  0  0  0
  2  3  1  0  0  0
  2 12  1  0  0  0
  3  4  2  0  0  0
  4  5  1  0  0  0
  5  6  1  0  0  0
  5 12  2  0  0  0
  6  7  1  0  0  0
  6  8  2  0  0  0
  8  9  1  0  0  0
  9 10  1  0  0  0
  9 11  2  0  0  0
 11 12  1  0  0  0
  7 13  1  0  0  0
 10 14  1  0  0  0
 10 15  1  0  0  0
M  END
> <minimizedAffinity>
-5.79255

$$$$
5U0W_9MG_A_301


 15 16  0  0  0  0  0  0  0  0999 V2000
    6.2527   -4.3425   23.4393 C   0  0  0  0  0  0  0  0  0  0  0  0
    6.9553   -4.0302   24.6694 N   0  0  0  0  0  0  0  0  0  0  0  0
    6.6382   -4.4934   25.9148 C   0  0  0  0  0  0  0  0  0  0  0  0
    7.4752   -4.0221   26.8272 N   0  0  0  0  0  0  0  0  0  0  0  0
    8.3437   -3.2338   26.1158 C   0  0  0  0  0  0  0  0  0  0  0  0
    9.4576   -2.4797   26.5826 C   0  0  0  0  0  0  0  0  0  0  0  0
    9.8149   -2.4278   27.7501 O   0  0  0  0  0  0  0  0  0  0  0  0
   10.0613   -1.8275   25.5228 N   0  0  0  0  0  0  0  0  0  0  0  0
    9.6726   -1.8802   24.1873 C   0  0  0  0  0  0  0  0  0  0  0  0
   10.4574   -1.1332   23.3362 N   0  0  0  0  0  0  0  0  0  0  0  0
    8.6535   -2.5787   23.7807 N   0  0  0  0  0  0  0  0  0  0  0  0
    8.0466   -3.2215   24.7835 C   0  0  0  0  0  0  0  0  0  0  0  0
    9.3445   -2.9044   28.4056 H   0  0  0  0  0  0  0  0  0  0  0  0
   11.2190   -0.6205   23.6916 H   0  0  0  0  0  0  0  0  0  0  0  0
   10.2566   -1.1122   22.3726 H   0  0  0  0  0  0  0  0  0  0  0  0
  1  2  1  0  0  0
  2  3  1  0  0  0
  2 12  1  0  0  0
  3  4  2  0  0  0
  4  5  1  0  0  0
  5  6  1  0  0  0
  5 12  2  0  0  0
  6  7  1  0  0  0
  6  8  2  0  0  0
  8  9  1  0  0  0
  9 10  1  0  0  0
  9 11  2  0  0  0
 11 12  1  0  0  0
  7 13  1  0  0  0
 10 14  1  0  0  0
 10 15  1  0  0  0
M  END
> <minimizedAffinity>
-5.00705

$$$$
5U0W_9MG_A_301


 15 16  0  0  0  0  0  0  0  0999 V2000
    7.1796   -4.9132   28.4335 C   0  0  0  0  0  0  0  0  0  0  0  0
    7.9888   -4.0526   27.5915 N   0  0  0  0  0  0  0  0  0  0  0  0
    9.0783   -3.3323   27.9918 C   0  0  0  0  0  0  0  0  0  0  0  0
    9.5952   -2.6474   26.9824 N   0  0  0  0  0  0  0  0  0  0  0  0
    8.7902   -2.9562   25.9154 C   0  0  0  0  0  0  0  0  0  0  0  0
    8.8791   -2.5091   24.5665 C   0  0  0  0  0  0  0  0  0  0  0  0
    9.7352   -1.7438   24.1484 O   0  0  0  0  0  0  0  0  0  0  0  0
    7.8606   -3.0699   23.8172 N   0  0  0  0  0  0  0  0  0  0  0  0
    6.8819   -3.9476   24.2746 C   0  0  0  0  0  0  0  0  0  0  0  0
    5.9880   -4.3565   23.3092 N   0  0  0  0  0  0  0  0  0  0  0  0
    6.8206   -4.3470   25.5110 N   0  0  0  0  0  0  0  0  0  0  0  0
    7.7926   -3.8207   26.2627 C   0  0  0  0  0  0  0  0  0  0  0  0
   10.3903   -1.4110   24.7298 H   0  0  0  0  0  0  0  0  0  0  0  0
    6.0755   -4.0262   22.3858 H   0  0  0  0  0  0  0  0  0  0  0  0
    5.2617   -4.9788   23.5426 H   0  0  0  0  0  0  0  0  0  0  0  0
  1  2  1  0  0  0
  2  3  1  0  0  0
  2 12  1  0  0  0
  3  4  2  0  0  0
  4  5  1  0  0  0
  5  6  1  0  0  0
  5 12  2  0  0  0
  6  7  1  0  0  0
  6  8  2  0  0  0
  8  9  1  0  0  0
  9 10  1  0  0  0
  9 11  2  0  0  0
 11 12  1  0  0  0
  7 13  1  0  0  0
 10 14  1  0  0  0
 10 15  1  0  0  0
M  END
> <minimizedAffinity>
-4.88507

$$$$
5U0W_9MG_A_301


 15 16  0  0  0  0  0  0  0  0999 V2000
    3.5113   -3.7857   20.9636 C   0  0  0  0  0  0  0  0  0  0  0  0
    4.1772   -5.0366   21.2739 N   0  0  0  0  0  0  0  0  0  0  0  0
    4.0976   -6.1903   20.5467 C   0  0  0  0  0  0  0  0  0  0  0  0
    4.8229   -7.1528   21.0969 N   0  0  0  0  0  0  0  0  0  0  0  0
    5.3714   -6.5695   22.2108 C   0  0  0  0  0  0  0  0  0  0  0  0
    6.2470   -7.1360   23.1802 C   0  0  0  0  0  0  0  0  0  0  0  0
    6.6550   -8.2875   23.1519 O   0  0  0  0  0  0  0  0  0  0  0  0
    6.5579   -6.1916   24.1418 N   0  0  0  0  0  0  0  0  0  0  0  0
    6.1083   -4.8751   24.1864 C   0  0  0  0  0  0  0  0  0  0  0  0
    6.5791   -4.1489   25.2585 N   0  0  0  0  0  0  0  0  0  0  0  0
    5.3111   -4.3756   23.2881 N   0  0  0  0  0  0  0  0  0  0  0  0
    4.9904   -5.2655   22.3435 C   0  0  0  0  0  0  0  0  0  0  0  0
    6.3915   -8.8610   22.4594 H   0  0  0  0  0  0  0  0  0  0  0  0
    7.1811   -4.5714   25.9129 H   0  0  0  0  0  0  0  0  0  0  0  0
    6.3134   -3.2075   25.3701 H   0  0  0  0  0  0  0  0  0  0  0  0
  1  2  1  0  0  0
  2  3  1  0  0  0
  2 12  1  0  0  0
  3  4  2  0  0  0
  4  5  1  0  0  0
  5  6  1  0  0  0
  5 12  2  0  0  0
  6  7  1  0  0  0
  6  8  2  0  0  0
  8  9  1  0  0  0
  9 10  1  0  0  0
  9 11  2  0  0  0
 11 12  1  0  0  0
  7 13  1  0  0  0
 10 14  1  0  0  0
 10 15  1  0  0  0
M  END
> <minimizedAffinity>
-4.88365

$$$$
5U0W_9MG_A_301


 15 16  0  0  0  0  0  0  0  0999 V2000
    3.5175   -5.3906   20.4427 C   0  0  0  0  0  0  0  0  0  0  0  0
    4.1513   -4.7864   21.5993 N   0  0  0  0  0  0  0  0  0  0  0  0
    4.0149   -3.4886   22.0031 C   0  0  0  0  0  0  0  0  0  0  0  0
    4.7243   -3.2514   23.0965 N   0  0  0  0  0  0  0  0  0  0  0  0
    5.3251   -4.4520   23.3782 C   0  0  0  0  0  0  0  0  0  0  0  0
    6.2005   -4.7867   24.4501 C   0  0  0  0  0  0  0  0  0  0  0  0
    6.5582   -4.0048   25.3183 O   0  0  0  0  0  0  0  0  0  0  0  0
    6.5742   -6.1150   24.3547 N   0  0  0  0  0  0  0  0  0  0  0  0
    6.1718   -7.0211   23.3776 C   0  0  0  0  0  0  0  0  0  0  0  0
    6.6950   -8.2871   23.5254 N   0  0  0  0  0  0  0  0  0  0  0  0
    5.3679   -6.6958   22.4082 N   0  0  0  0  0  0  0  0  0  0  0  0
    4.9887   -5.4156   22.4717 C   0  0  0  0  0  0  0  0  0  0  0  0
    6.2541   -3.1186   25.3049 H   0  0  0  0  0  0  0  0  0  0  0  0
    7.3000   -8.4851   24.2764 H   0  0  0  0  0  0  0  0  0  0  0  0
    6.4638   -8.9937   22.8801 H   0  0  0  0  0  0  0  0  0  0  0  0
  1  2  1  0  0  0
  2  3  1  0  0  0
  2 12  1  0  0  0
  3  4  2  0  0  0
  4  5  1  0  0  0
  5  6  1  0  0  0
  5 12  2  0  0  0
  6  7  1  0  0  0
  6  8  2  0  0  0
  8  9  1  0  0  0
  9 10  1  0  0  0
  9 11  2  0  0  0
 11 12  1  0  0  0
  7 13  1  0  0  0
 10 14  1  0  0  0
 10 15  1  0  0  0
M  END
> <minimizedAffinity>
-4.69639

$$$$
5U0W_9MG_A_301


 15 16  0  0  0  0  0  0  0  0999 V2000
    4.0079   -2.7864   22.6444 C   0  0  0  0  0  0  0  0  0  0  0  0
    4.8995   -3.8915   22.9413 N   0  0  0  0  0  0  0  0  0  0  0  0
    5.9045   -3.8858   23.8665 C   0  0  0  0  0  0  0  0  0  0  0  0
    6.5345   -5.0510   23.8945 N   0  0  0  0  0  0  0  0  0  0  0  0
    5.8931   -5.8063   22.9460 C   0  0  0  0  0  0  0  0  0  0  0  0
    6.1448   -7.1506   22.5499 C   0  0  0  0  0  0  0  0  0  0  0  0
    7.0181   -7.8587   23.0286 O   0  0  0  0  0  0  0  0  0  0  0  0
    5.2582   -7.5215   21.5551 N   0  0  0  0  0  0  0  0  0  0  0  0
    4.2540   -6.7313   21.0031 C   0  0  0  0  0  0  0  0  0  0  0  0
    3.5107   -7.3563   20.0258 N   0  0  0  0  0  0  0  0  0  0  0  0
    4.0380   -5.5060   21.3820 N   0  0  0  0  0  0  0  0  0  0  0  0
    4.8810   -5.1164   22.3436 C   0  0  0  0  0  0  0  0  0  0  0  0
    7.5763   -7.5234   23.7024 H   0  0  0  0  0  0  0  0  0  0  0  0
    3.7125   -8.2862   19.7730 H   0  0  0  0  0  0  0  0  0  0  0  0
    2.7778   -6.8730   19.5802 H   0  0  0  0  0  0  0  0  0  0  0  0
  1  2  1  0  0  0
  2  3  1  0  0  0
  2 12  1  0  0  0
  3  4  2  0  0  0
  4  5  1  0  0  0
  5  6  1  0  0  0
  5 12  2  0  0  0
  6  7  1  0  0  0
  6  8  2  0  0  0
  8  9  1  0  0  0
  9 10  1  0  0  0
  9 11  2  0  0  0
 11 12  1  0  0  0
  7 13  1  0  0  0
 10 14  1  0  0  0
 10 15  1  0  0  0
M  END
> <minimizedAffinity>
-4.67695

$$$$
5U0W_9MG_A_301


 15 16  0  0  0  0  0  0  0  0999 V2000
    9.3894   -2.8491   28.7342 C   0  0  0  0  0  0  0  0  0  0  0  0
    8.5907   -3.3168   27.6172 N   0  0  0  0  0  0  0  0  0  0  0  0
    7.5423   -4.1896   27.6898 C   0  0  0  0  0  0  0  0  0  0  0  0
    7.0237   -4.4140   26.4915 N   0  0  0  0  0  0  0  0  0  0  0  0
    7.7847   -3.6495   25.6440 C   0  0  0  0  0  0  0  0  0  0  0  0
    7.6744   -3.4957   24.2327 C   0  0  0  0  0  0  0  0  0  0  0  0
    6.8373   -4.0563   23.5411 O   0  0  0  0  0  0  0  0  0  0  0  0
    8.6480   -2.6252   23.7772 N   0  0  0  0  0  0  0  0  0  0  0  0
    9.6043   -1.9732   24.5504 C   0  0  0  0  0  0  0  0  0  0  0  0
   10.4531   -1.1562   23.8360 N   0  0  0  0  0  0  0  0  0  0  0  0
    9.6856   -2.1245   25.8396 N   0  0  0  0  0  0  0  0  0  0  0  0
    8.7572   -2.9626   26.3115 C   0  0  0  0  0  0  0  0  0  0  0  0
    6.2129   -4.6325   23.9361 H   0  0  0  0  0  0  0  0  0  0  0  0
   10.3519   -1.0742   22.8602 H   0  0  0  0  0  0  0  0  0  0  0  0
   11.1608   -0.6544   24.3014 H   0  0  0  0  0  0  0  0  0  0  0  0
  1  2  1  0  0  0
  2  3  1  0  0  0
  2 12  1  0  0  0
  3  4  2  0  0  0
  4  5  1  0  0  0
  5  6  1  0  0  0
  5 12  2  0  0  0
  6  7  1  0  0  0
  6  8  2  0  0  0
  8  9  1  0  0  0
  9 10  1  0  0  0
  9 11  2  0  0  0
 11 12  1  0  0  0
  7 13  1  0  0  0
 10 14  1  0  0  0
 10 15  1  0  0  0
M  END
> <minimizedAffinity>
-4.60249

$$$$
