5IX0_6EZ_A_404


 28 31  0  0  0  0  0  0  0  0999 V2000
   65.8323   29.0877    2.1991 C   0  0  0  0  0  0  0  0  0  0  0  0
   66.2769   29.1556    0.8820 C   0  0  0  0  0  0  0  0  0  0  0  0
   65.5038   28.5350   -0.1133 C   0  0  0  0  0  0  0  0  0  0  0  0
   64.3092   27.8799    0.2029 C   0  0  0  0  0  0  0  0  0  0  0  0
   64.6366   28.4256    2.5347 C   0  0  0  0  0  0  0  0  0  0  0  0
   65.8793   28.5736   -1.4350 N   0  0  0  0  0  0  0  0  0  0  0  0
   63.8874   27.8193    1.5150 C   0  0  0  0  0  0  0  0  0  0  0  0
   65.3237   28.1325   -2.1177 H   0  0  0  0  0  0  0  0  0  0  0  0
   66.7037   29.0425   -1.6990 H   0  0  0  0  0  0  0  0  0  0  0  0
   63.2447   28.2507    6.5820 C   0  0  0  0  0  0  0  0  0  0  0  0
   64.6103   28.1888    6.3161 C   0  0  0  0  0  0  0  0  0  0  0  0
   65.0737   28.2409    5.0076 C   0  0  0  0  0  0  0  0  0  0  0  0
   64.1593   28.3611    3.9432 C   0  0  0  0  0  0  0  0  0  0  0  0
   62.7808   28.4264    4.2406 C   0  0  0  0  0  0  0  0  0  0  0  0
   62.3311   28.3664    5.5481 C   0  0  0  0  0  0  0  0  0  0  0  0
   62.7889   28.1905    7.8412 F   0  0  0  0  0  0  0  0  0  0  0  0
   67.7608   30.8400   -0.1943 C   0  0  0  0  0  0  0  0  0  0  0  0
   66.8677   31.2822   -0.9009 O   0  0  0  0  0  0  0  0  0  0  0  0
   67.5033   29.8250    0.6727 N   0  0  0  0  0  0  0  0  0  0  0  0
   68.2624   29.5198    1.2204 H   0  0  0  0  0  0  0  0  0  0  0  0
   70.1692   30.3562   -0.7373 C   0  0  0  0  0  0  0  0  0  0  0  0
   71.5921   30.9494   -0.8902 C   0  0  0  0  0  0  0  0  0  0  0  0
   72.0808   31.7293    0.3572 C   0  0  0  0  0  0  0  0  0  0  0  0
   71.6387   33.1824    0.0695 C   0  0  0  0  0  0  0  0  0  0  0  0
   70.8288   33.0879   -1.2374 C   0  0  0  0  0  0  0  0  0  0  0  0
   69.3492   32.7543   -0.9073 C   0  0  0  0  0  0  0  0  0  0  0  0
   69.1763   31.4000   -0.1794 C   0  0  0  0  0  0  0  0  0  0  0  0
   71.4513   31.9674   -1.9128 O   0  0  0  0  0  0  0  0  0  0  0  0
 28 25  1  0  0  0
 28 22  1  0  0  0
  6  3  1  0  0  0
 25 26  1  0  0  0
 25 24  1  0  0  0
 26 27  1  0  0  0
 18 17  2  0  0  0
 22 21  1  0  0  0
 22 23  1  0  0  0
 21 27  1  0  0  0
 17 27  1  0  0  0
 17 19  1  0  0  0
  3  4  2  0  0  0
  3  2  1  0  0  0
 24 23  1  0  0  0
  4  7  1  0  0  0
 19  2  1  0  0  0
  2  1  2  0  0  0
  7  5  2  0  0  0
  1  5  1  0  0  0
  5 13  1  0  0  0
 13 14  2  0  0  0
 13 12  1  0  0  0
 14 15  1  0  0  0
 12 11  2  0  0  0
 15 10  2  0  0  0
 11 10  1  0  0  0
 10 16  1  0  0  0
 19 20  1  0  0  0
  6  8  1  0  0  0
  6  9  1  0  0  0
M  END
> <minimizedAffinity>
-12.09925

$$$$
