2XC4_IVK_A_1246


 39 42  0  0  0  0  0  0  0  0999 V2000
   -3.5972   12.1071   24.9891 C   0  0  0  0  0  0  0  0  0  0  0  0
   -3.5048   12.2313   23.4631 C   0  0  0  0  0  0  0  0  0  0  0  0
   -4.3833   13.4868   23.1868 C   0  0  0  0  0  0  0  0  0  0  0  0
   -3.9198   14.3997   24.2682 N   0  0  0  0  0  0  0  0  0  0  0  0
   -3.4938   13.5567   25.4427 C   0  0  0  0  0  0  0  0  0  0  0  0
   -2.4536   11.2074   25.4070 C   0  0  0  0  0  0  0  0  0  0  0  0
   -1.3057   11.4324   25.0645 O   0  0  0  0  0  0  0  0  0  0  0  0
   -2.8004   10.2003   26.2049 N   0  0  0  0  0  0  0  0  0  0  0  0
   -3.7310   10.2326   26.5248 H   0  0  0  0  0  0  0  0  0  0  0  0
   -2.0708    9.1128   26.6614 C   0  0  0  0  0  0  0  0  0  0  0  0
   -0.7739    6.7957   27.3257 C   0  0  0  0  0  0  0  0  0  0  0  0
   -1.9088    7.1360   28.0251 C   0  0  0  0  0  0  0  0  0  0  0  0
   -0.2801    7.6171   26.3040 C   0  0  0  0  0  0  0  0  0  0  0  0
   -2.5914    8.2849   27.6640 C   0  0  0  0  0  0  0  0  0  0  0  0
    0.0943    5.3575   27.7360 Cl  0  0  0  0  0  0  0  0  0  0  0  0
   -0.9496    8.7613   25.9437 C   0  0  0  0  0  0  0  0  0  0  0  0
   -3.8808   10.9627   22.7040 C   0  0  0  0  0  0  0  0  0  0  0  0
   -4.8420   11.0009   21.7649 N   0  0  0  0  0  0  0  0  0  0  0  0
   -3.2870    9.8833   22.8997 O   0  0  0  0  0  0  0  0  0  0  0  0
   -5.3147   11.8526   21.6220 H   0  0  0  0  0  0  0  0  0  0  0  0
   -5.2162    9.8911   20.9687 C   0  0  0  0  0  0  0  0  0  0  0  0
   -6.4123    9.2036   21.1392 C   0  0  0  0  0  0  0  0  0  0  0  0
   -5.8915    7.7769   19.2409 C   0  0  0  0  0  0  0  0  0  0  0  0
   -4.7076    8.4824   19.0583 C   0  0  0  0  0  0  0  0  0  0  0  0
   -6.7304    8.1503   20.2894 C   0  0  0  0  0  0  0  0  0  0  0  0
   -4.3784    9.5177   19.9183 C   0  0  0  0  0  0  0  0  0  0  0  0
   -3.2351   10.2252   19.7432 F   0  0  0  0  0  0  0  0  0  0  0  0
   -6.2313    6.7221   18.3572 N   0  0  0  0  0  0  0  0  0  0  0  0
   -6.1082    5.4159   18.6905 C   0  0  0  0  0  0  0  0  0  0  0  0
   -6.8580    4.7374   16.5195 C   0  0  0  0  0  0  0  0  0  0  0  0
   -7.0099    6.0535   16.1918 C   0  0  0  0  0  0  0  0  0  0  0  0
   -6.3886    4.4237   17.8111 C   0  0  0  0  0  0  0  0  0  0  0  0
   -6.6772    7.0487   17.1158 C   0  0  0  0  0  0  0  0  0  0  0  0
   -6.7748    8.2197   16.7816 O   0  0  0  0  0  0  0  0  0  0  0  0
   -4.9291   15.3615   24.7089 C   0  0  0  0  0  0  0  0  0  0  0  0
   -4.1652   16.6311   25.0847 C   0  0  0  0  0  0  0  0  0  0  0  0
   -5.0423   17.7228   25.0871 F   0  0  0  0  0  0  0  0  0  0  0  0
   -3.1377   16.8336   24.1650 F   0  0  0  0  0  0  0  0  0  0  0  0
   -3.5892   16.4963   26.3566 F   0  0  0  0  0  0  0  0  0  0  0  0
  1  2  1  0  0  0
  1  5  1  0  0  0
  1  6  1  0  0  0
  2  3  1  0  0  0
  2 17  1  0  0  0
  3  4  1  0  0  0
  4  5  1  0  0  0
  4 35  1  0  0  0
  6  7  2  0  0  0
  6  8  1  0  0  0
 17 18  1  0  0  0
 17 19  2  0  0  0
 18 21  1  0  0  0
  8 10  1  0  0  0
 10 14  1  0  0  0
 10 16  2  0  0  0
 11 12  1  0  0  0
 11 13  2  0  0  0
 11 15  1  0  0  0
 12 14  2  0  0  0
 13 16  1  0  0  0
 21 22  1  0  0  0
 21 26  2  0  0  0
 22 25  2  0  0  0
 23 24  2  0  0  0
 23 25  1  0  0  0
 23 28  1  0  0  0
 24 26  1  0  0  0
 26 27  1  0  0  0
 28 29  1  0  0  0
 28 33  1  0  0  0
 29 32  2  0  0  0
 30 31  2  0  0  0
 30 32  1  0  0  0
 31 33  1  0  0  0
 33 34  2  0  0  0
 35 36  1  0  0  0
 36 37  1  0  0  0
 36 38  1  0  0  0
 36 39  1  0  0  0
 18 20  1  0  0  0
  8  9  1  0  0  0
M  END
> <minimizedAffinity>
-12.15364

$$$$
2XC4_IVK_A_1246


 39 42  0  0  0  0  0  0  0  0999 V2000
   -3.9739   12.0736   24.7356 C   0  0  0  0  0  0  0  0  0  0  0  0
   -3.7105   12.5781   23.3113 C   0  0  0  0  0  0  0  0  0  0  0  0
   -4.6719   13.7993   23.2175 C   0  0  0  0  0  0  0  0  0  0  0  0
   -4.4378   14.4455   24.5386 N   0  0  0  0  0  0  0  0  0  0  0  0
   -4.0738   13.3692   25.5289 C   0  0  0  0  0  0  0  0  0  0  0  0
   -2.8040   11.1795   25.0873 C   0  0  0  0  0  0  0  0  0  0  0  0
   -1.7363   11.2659   24.5057 O   0  0  0  0  0  0  0  0  0  0  0  0
   -3.0261   10.3440   26.0993 N   0  0  0  0  0  0  0  0  0  0  0  0
   -3.8758   10.4922   26.5739 H   0  0  0  0  0  0  0  0  0  0  0  0
   -2.2613    9.2998   26.5972 C   0  0  0  0  0  0  0  0  0  0  0  0
   -0.8881    7.0546   27.3490 C   0  0  0  0  0  0  0  0  0  0  0  0
   -2.0374    7.3800   28.0319 C   0  0  0  0  0  0  0  0  0  0  0  0
   -0.4183    7.8554   26.3000 C   0  0  0  0  0  0  0  0  0  0  0  0
   -2.7577    8.4908   27.6272 C   0  0  0  0  0  0  0  0  0  0  0  0
    0.0275    5.6631   27.8139 Cl  0  0  0  0  0  0  0  0  0  0  0  0
   -1.1253    8.9618   25.8965 C   0  0  0  0  0  0  0  0  0  0  0  0
   -3.8611   11.5143   22.2284 C   0  0  0  0  0  0  0  0  0  0  0  0
   -4.9932   10.7940   22.1463 N   0  0  0  0  0  0  0  0  0  0  0  0
   -2.9709   11.3171   21.3772 O   0  0  0  0  0  0  0  0  0  0  0  0
   -5.6881   10.9461   22.8269 H   0  0  0  0  0  0  0  0  0  0  0  0
   -5.2474    9.8297   21.1407 C   0  0  0  0  0  0  0  0  0  0  0  0
   -4.2498    9.2905   20.3367 C   0  0  0  0  0  0  0  0  0  0  0  0
   -5.8707    7.8335   19.2598 C   0  0  0  0  0  0  0  0  0  0  0  0
   -6.8614    8.3575   20.0823 C   0  0  0  0  0  0  0  0  0  0  0  0
   -4.5702    8.3149   19.3995 C   0  0  0  0  0  0  0  0  0  0  0  0
   -6.5478    9.3460   21.0012 C   0  0  0  0  0  0  0  0  0  0  0  0
   -7.5000    9.8553   21.8210 F   0  0  0  0  0  0  0  0  0  0  0  0
   -6.1902    6.8176   18.3243 N   0  0  0  0  0  0  0  0  0  0  0  0
   -6.2416    5.5056   18.6533 C   0  0  0  0  0  0  0  0  0  0  0  0
   -6.7553    4.9052   16.3925 C   0  0  0  0  0  0  0  0  0  0  0  0
   -6.7321    6.2300   16.0653 C   0  0  0  0  0  0  0  0  0  0  0  0
   -6.4969    4.5462   17.7309 C   0  0  0  0  0  0  0  0  0  0  0  0
   -6.4309    7.1871   17.0390 C   0  0  0  0  0  0  0  0  0  0  0  0
   -6.3675    8.3622   16.7107 O   0  0  0  0  0  0  0  0  0  0  0  0
   -5.5853   15.1962   25.0461 C   0  0  0  0  0  0  0  0  0  0  0  0
   -5.1059   16.6384   25.2102 C   0  0  0  0  0  0  0  0  0  0  0  0
   -5.7354   17.2186   26.3184 F   0  0  0  0  0  0  0  0  0  0  0  0
   -5.4044   17.3524   24.0510 F   0  0  0  0  0  0  0  0  0  0  0  0
   -3.7159   16.6729   25.3957 F   0  0  0  0  0  0  0  0  0  0  0  0
  1  2  1  0  0  0
  1  5  1  0  0  0
  1  6  1  0  0  0
  2  3  1  0  0  0
  2 17  1  0  0  0
  3  4  1  0  0  0
  4  5  1  0  0  0
  4 35  1  0  0  0
  6  7  2  0  0  0
  6  8  1  0  0  0
 17 18  1  0  0  0
 17 19  2  0  0  0
 18 21  1  0  0  0
  8 10  1  0  0  0
 10 14  1  0  0  0
 10 16  2  0  0  0
 11 12  1  0  0  0
 11 13  2  0  0  0
 11 15  1  0  0  0
 12 14  2  0  0  0
 13 16  1  0  0  0
 21 22  1  0  0  0
 21 26  2  0  0  0
 22 25  2  0  0  0
 23 24  2  0  0  0
 23 25  1  0  0  0
 23 28  1  0  0  0
 24 26  1  0  0  0
 26 27  1  0  0  0
 28 29  1  0  0  0
 28 33  1  0  0  0
 29 32  2  0  0  0
 30 31  2  0  0  0
 30 32  1  0  0  0
 31 33  1  0  0  0
 33 34  2  0  0  0
 35 36  1  0  0  0
 36 37  1  0  0  0
 36 38  1  0  0  0
 36 39  1  0  0  0
 18 20  1  0  0  0
  8  9  1  0  0  0
M  END
> <minimizedAffinity>
-11.30281

$$$$
2XC4_IVK_A_1246


 39 42  0  0  0  0  0  0  0  0999 V2000
   -5.5480   13.7640   24.7372 C   0  0  0  0  0  0  0  0  0  0  0  0
   -5.8360   13.8534   23.2333 C   0  0  0  0  0  0  0  0  0  0  0  0
   -6.9646   14.9249   23.1830 C   0  0  0  0  0  0  0  0  0  0  0  0
   -6.4338   15.9395   24.1351 N   0  0  0  0  0  0  0  0  0  0  0  0
   -5.6031   15.2230   25.1687 C   0  0  0  0  0  0  0  0  0  0  0  0
   -4.1967   13.0939   24.8667 C   0  0  0  0  0  0  0  0  0  0  0  0
   -3.1586   13.7262   24.7755 O   0  0  0  0  0  0  0  0  0  0  0  0
   -4.2446   11.7907   25.1326 N   0  0  0  0  0  0  0  0  0  0  0  0
   -5.1447   11.4463   25.3336 H   0  0  0  0  0  0  0  0  0  0  0  0
   -3.2391   10.8365   25.1740 C   0  0  0  0  0  0  0  0  0  0  0  0
   -1.0589    9.1918   25.3584 C   0  0  0  0  0  0  0  0  0  0  0  0
   -1.3766    9.7248   24.1304 C   0  0  0  0  0  0  0  0  0  0  0  0
   -1.8355    9.4698   26.4907 C   0  0  0  0  0  0  0  0  0  0  0  0
   -2.4529   10.5907   24.0412 C   0  0  0  0  0  0  0  0  0  0  0  0
    0.2905    8.1213   25.5119 Cl  0  0  0  0  0  0  0  0  0  0  0  0
   -2.9080   10.3242   26.4084 C   0  0  0  0  0  0  0  0  0  0  0  0
   -6.1446   12.5146   22.5705 C   0  0  0  0  0  0  0  0  0  0  0  0
   -5.8388   12.3188   21.2761 N   0  0  0  0  0  0  0  0  0  0  0  0
   -6.6409   11.5666   23.2115 O   0  0  0  0  0  0  0  0  0  0  0  0
   -5.4573   13.0736   20.7721 H   0  0  0  0  0  0  0  0  0  0  0  0
   -6.0318   11.0932   20.5931 C   0  0  0  0  0  0  0  0  0  0  0  0
   -7.2547   10.7083   20.0559 C   0  0  0  0  0  0  0  0  0  0  0  0
   -6.2507    8.6851   19.1566 C   0  0  0  0  0  0  0  0  0  0  0  0
   -5.0241    9.0850   19.6743 C   0  0  0  0  0  0  0  0  0  0  0  0
   -7.3564    9.5089   19.3602 C   0  0  0  0  0  0  0  0  0  0  0  0
   -4.9260   10.2690   20.3873 C   0  0  0  0  0  0  0  0  0  0  0  0
   -3.7335   10.6800   20.8845 F   0  0  0  0  0  0  0  0  0  0  0  0
   -6.3498    7.4771   18.4216 N   0  0  0  0  0  0  0  0  0  0  0  0
   -6.4149    6.2609   19.0122 C   0  0  0  0  0  0  0  0  0  0  0  0
   -6.4681    5.1706   16.8805 C   0  0  0  0  0  0  0  0  0  0  0  0
   -6.4314    6.3975   16.2839 C   0  0  0  0  0  0  0  0  0  0  0  0
   -6.4554    5.1156   18.2889 C   0  0  0  0  0  0  0  0  0  0  0  0
   -6.3554    7.5547   17.0649 C   0  0  0  0  0  0  0  0  0  0  0  0
   -6.2737    8.6383   16.5067 O   0  0  0  0  0  0  0  0  0  0  0  0
   -7.4685   16.7220   24.8096 C   0  0  0  0  0  0  0  0  0  0  0  0
   -7.2440   18.1728   24.3837 C   0  0  0  0  0  0  0  0  0  0  0  0
   -8.3972   18.6616   23.7573 F   0  0  0  0  0  0  0  0  0  0  0  0
   -6.1561   18.2292   23.5142 F   0  0  0  0  0  0  0  0  0  0  0  0
   -6.9497   18.9696   25.5000 F   0  0  0  0  0  0  0  0  0  0  0  0
  1  2  1  0  0  0
  1  5  1  0  0  0
  1  6  1  0  0  0
  2  3  1  0  0  0
  2 17  1  0  0  0
  3  4  1  0  0  0
  4  5  1  0  0  0
  4 35  1  0  0  0
  6  7  2  0  0  0
  6  8  1  0  0  0
 17 18  1  0  0  0
 17 19  2  0  0  0
 18 21  1  0  0  0
  8 10  1  0  0  0
 10 14  1  0  0  0
 10 16  2  0  0  0
 11 12  1  0  0  0
 11 13  2  0  0  0
 11 15  1  0  0  0
 12 14  2  0  0  0
 13 16  1  0  0  0
 21 22  1  0  0  0
 21 26  2  0  0  0
 22 25  2  0  0  0
 23 24  2  0  0  0
 23 25  1  0  0  0
 23 28  1  0  0  0
 24 26  1  0  0  0
 26 27  1  0  0  0
 28 29  1  0  0  0
 28 33  1  0  0  0
 29 32  2  0  0  0
 30 31  2  0  0  0
 30 32  1  0  0  0
 31 33  1  0  0  0
 33 34  2  0  0  0
 35 36  1  0  0  0
 36 37  1  0  0  0
 36 38  1  0  0  0
 36 39  1  0  0  0
 18 20  1  0  0  0
  8  9  1  0  0  0
M  END
> <minimizedAffinity>
-9.24191

$$$$
