5AD1_8LC_A_500


 36 37  0  0  0  0  0  0  0  0999 V2000
  -20.3662   18.7775  -26.4547 C   0  0  0  0  0  0  0  0  0  0  0  0
  -19.1835   19.7486  -26.4126 C   0  0  0  0  0  0  0  0  0  0  0  0
  -19.3127   20.8844  -25.4769 C   0  0  0  0  0  0  0  0  0  0  0  0
  -18.1528   20.9158  -24.4714 C   0  0  0  0  0  0  0  0  0  0  0  0
  -18.4713   18.8774  -23.1508 C   0  0  0  0  0  0  0  0  0  0  0  0
  -19.4818   19.3522  -22.5999 O   0  0  0  0  0  0  0  0  0  0  0  0
  -17.7799   19.5812  -24.0542 N   0  0  0  0  0  0  0  0  0  0  0  0
  -16.9791   19.1717  -24.4545 H   0  0  0  0  0  0  0  0  0  0  0  0
  -18.6938   16.3384  -22.9472 C   0  0  0  0  0  0  0  0  0  0  0  0
  -17.9348   17.5181  -22.8499 C   0  0  0  0  0  0  0  0  0  0  0  0
  -16.5737   17.3886  -22.4871 C   0  0  0  0  0  0  0  0  0  0  0  0
  -16.0274   16.1804  -22.1529 C   0  0  0  0  0  0  0  0  0  0  0  0
  -16.7701   15.0205  -22.2611 C   0  0  0  0  0  0  0  0  0  0  0  0
  -18.0874   15.0952  -22.6367 C   0  0  0  0  0  0  0  0  0  0  0  0
  -18.8752   13.9984  -22.8110 O   0  0  0  0  0  0  0  0  0  0  0  0
  -20.0046   16.3151  -23.2998 O   0  0  0  0  0  0  0  0  0  0  0  0
  -19.7703   14.1006  -23.0685 H   0  0  0  0  0  0  0  0  0  0  0  0
  -20.4466   17.1133  -23.5134 H   0  0  0  0  0  0  0  0  0  0  0  0
  -21.2386   18.8838  -27.7246 C   0  0  0  0  0  0  0  0  0  0  0  0
  -21.7712   17.5321  -28.1269 C   0  0  0  0  0  0  0  0  0  0  0  0
  -22.9668   17.0613  -27.2409 C   0  0  0  0  0  0  0  0  0  0  0  0
  -23.5717   15.7557  -27.7738 C   0  0  0  0  0  0  0  0  0  0  0  0
  -23.2790   14.6207  -26.9401 N   0  0  0  0  0  0  0  0  0  0  0  0
  -22.7394   13.4760  -27.4043 C   0  0  0  0  0  0  0  0  0  0  0  0
  -22.5921   13.2536  -28.6285 O   0  0  0  0  0  0  0  0  0  0  0  0
  -23.4837   14.6832  -25.9792 H   0  0  0  0  0  0  0  0  0  0  0  0
  -22.3689   12.4467  -26.3873 C   0  0  0  0  0  0  0  0  0  0  0  0
  -21.7997   12.7163  -25.1230 C   0  0  0  0  0  0  0  0  0  0  0  0
  -21.6096   11.7259  -24.1643 C   0  0  0  0  0  0  0  0  0  0  0  0
  -21.9117   10.3826  -24.5063 C   0  0  0  0  0  0  0  0  0  0  0  0
  -22.4284   10.1150  -25.7723 C   0  0  0  0  0  0  0  0  0  0  0  0
  -22.6872   11.1202  -26.6962 C   0  0  0  0  0  0  0  0  0  0  0  0
  -21.4301   13.9746  -24.7984 O   0  0  0  0  0  0  0  0  0  0  0  0
  -21.1437   12.0477  -22.9383 O   0  0  0  0  0  0  0  0  0  0  0  0
  -21.5417   14.6699  -25.4165 H   0  0  0  0  0  0  0  0  0  0  0  0
  -20.9495   12.9404  -22.7303 H   0  0  0  0  0  0  0  0  0  0  0  0
  9 10  1  0  0  0
  9 14  2  0  0  0
  9 16  1  0  0  0
 10 11  2  0  0  0
 10  5  1  0  0  0
 11 12  1  0  0  0
 12 13  2  0  0  0
 13 14  1  0  0  0
 14 15  1  0  0  0
  5  6  2  0  0  0
  5  7  1  0  0  0
  7  4  1  0  0  0
  4  3  1  0  0  0
  3  2  1  0  0  0
  2  1  1  0  0  0
  1 19  1  0  0  0
 19 20  1  0  0  0
 20 21  1  0  0  0
 21 22  1  0  0  0
 22 23  1  0  0  0
 23 24  1  0  0  0
 24 27  1  0  0  0
 24 25  2  0  0  0
 27 28  1  0  0  0
 27 32  2  0  0  0
 28 29  2  0  0  0
 28 33  1  0  0  0
 29 30  1  0  0  0
 29 34  1  0  0  0
 30 31  2  0  0  0
 31 32  1  0  0  0
  7  8  1  0  0  0
 23 26  1  0  0  0
 15 17  1  0  0  0
 33 35  1  0  0  0
 34 36  1  0  0  0
 16 18  1  0  0  0
M  END
> <minimizedAffinity>
-7.99753

$$$$
5AD1_8LC_A_500


 36 37  0  0  0  0  0  0  0  0999 V2000
  -22.0728   17.5921  -27.0450 C   0  0  0  0  0  0  0  0  0  0  0  0
  -23.1212   16.4841  -27.1727 C   0  0  0  0  0  0  0  0  0  0  0  0
  -23.3338   15.9489  -28.5331 C   0  0  0  0  0  0  0  0  0  0  0  0
  -24.1740   14.6641  -28.5041 C   0  0  0  0  0  0  0  0  0  0  0  0
  -22.8381   12.7566  -27.7444 C   0  0  0  0  0  0  0  0  0  0  0  0
  -22.4035   12.5601  -28.8945 O   0  0  0  0  0  0  0  0  0  0  0  0
  -23.7006   13.7470  -27.4898 N   0  0  0  0  0  0  0  0  0  0  0  0
  -24.0289   13.8571  -26.5682 H   0  0  0  0  0  0  0  0  0  0  0  0
  -21.9755   12.4352  -25.3590 C   0  0  0  0  0  0  0  0  0  0  0  0
  -22.4636   11.9149  -26.5707 C   0  0  0  0  0  0  0  0  0  0  0  0
  -22.6464   10.5145  -26.6514 C   0  0  0  0  0  0  0  0  0  0  0  0
  -22.2816    9.6789  -25.6324 C   0  0  0  0  0  0  0  0  0  0  0  0
  -21.8141   10.1917  -24.4377 C   0  0  0  0  0  0  0  0  0  0  0  0
  -21.6472   11.5467  -24.3042 C   0  0  0  0  0  0  0  0  0  0  0  0
  -21.2356   12.1357  -23.1476 O   0  0  0  0  0  0  0  0  0  0  0  0
  -21.7677   13.7586  -25.1388 O   0  0  0  0  0  0  0  0  0  0  0  0
  -21.1362   13.0665  -23.1054 H   0  0  0  0  0  0  0  0  0  0  0  0
  -21.9705   14.3824  -25.8080 H   0  0  0  0  0  0  0  0  0  0  0  0
  -21.5335   17.8031  -25.6133 C   0  0  0  0  0  0  0  0  0  0  0  0
  -21.0378   19.2146  -25.4270 C   0  0  0  0  0  0  0  0  0  0  0  0
  -19.5812   19.4214  -25.9481 C   0  0  0  0  0  0  0  0  0  0  0  0
  -18.6817   20.0188  -24.8580 C   0  0  0  0  0  0  0  0  0  0  0  0
  -17.8234   19.0428  -24.2419 N   0  0  0  0  0  0  0  0  0  0  0  0
  -18.1811   18.3087  -23.1694 C   0  0  0  0  0  0  0  0  0  0  0  0
  -19.2352   18.5289  -22.5290 O   0  0  0  0  0  0  0  0  0  0  0  0
  -16.9268   18.9034  -24.6238 H   0  0  0  0  0  0  0  0  0  0  0  0
  -17.2292   17.2420  -22.7373 C   0  0  0  0  0  0  0  0  0  0  0  0
  -17.5533   15.8771  -22.5711 C   0  0  0  0  0  0  0  0  0  0  0  0
  -16.5900   14.9091  -22.3050 C   0  0  0  0  0  0  0  0  0  0  0  0
  -15.2487   15.3237  -22.1002 C   0  0  0  0  0  0  0  0  0  0  0  0
  -14.9422   16.6778  -22.2179 C   0  0  0  0  0  0  0  0  0  0  0  0
  -15.8966   17.6280  -22.5599 C   0  0  0  0  0  0  0  0  0  0  0  0
  -18.8348   15.4643  -22.6837 O   0  0  0  0  0  0  0  0  0  0  0  0
  -16.9364   13.6053  -22.2421 O   0  0  0  0  0  0  0  0  0  0  0  0
  -19.5131   16.0855  -22.8624 H   0  0  0  0  0  0  0  0  0  0  0  0
  -17.8273   13.3501  -22.3801 H   0  0  0  0  0  0  0  0  0  0  0  0
  9 10  1  0  0  0
  9 14  2  0  0  0
  9 16  1  0  0  0
 10 11  2  0  0  0
 10  5  1  0  0  0
 11 12  1  0  0  0
 12 13  2  0  0  0
 13 14  1  0  0  0
 14 15  1  0  0  0
  5  6  2  0  0  0
  5  7  1  0  0  0
  7  4  1  0  0  0
  4  3  1  0  0  0
  3  2  1  0  0  0
  2  1  1  0  0  0
  1 19  1  0  0  0
 19 20  1  0  0  0
 20 21  1  0  0  0
 21 22  1  0  0  0
 22 23  1  0  0  0
 23 24  1  0  0  0
 24 27  1  0  0  0
 24 25  2  0  0  0
 27 28  1  0  0  0
 27 32  2  0  0  0
 28 29  2  0  0  0
 28 33  1  0  0  0
 29 30  1  0  0  0
 29 34  1  0  0  0
 30 31  2  0  0  0
 31 32  1  0  0  0
  7  8  1  0  0  0
 23 26  1  0  0  0
 15 17  1  0  0  0
 33 35  1  0  0  0
 34 36  1  0  0  0
 16 18  1  0  0  0
M  END
> <minimizedAffinity>
-7.66468

$$$$
5AD1_8LC_A_500


 36 37  0  0  0  0  0  0  0  0999 V2000
  -21.1594   18.5083  -28.2578 C   0  0  0  0  0  0  0  0  0  0  0  0
  -22.1679   18.1008  -27.1807 C   0  0  0  0  0  0  0  0  0  0  0  0
  -23.0665   16.9807  -27.5272 C   0  0  0  0  0  0  0  0  0  0  0  0
  -22.3020   15.8437  -28.2200 C   0  0  0  0  0  0  0  0  0  0  0  0
  -22.8049   13.5811  -27.4271 C   0  0  0  0  0  0  0  0  0  0  0  0
  -23.6848   13.4362  -28.2960 O   0  0  0  0  0  0  0  0  0  0  0  0
  -22.1084   14.7191  -27.3301 N   0  0  0  0  0  0  0  0  0  0  0  0
  -21.4316   14.7952  -26.6191 H   0  0  0  0  0  0  0  0  0  0  0  0
  -21.8870   12.8084  -25.1693 C   0  0  0  0  0  0  0  0  0  0  0  0
  -22.4636   12.5328  -26.4218 C   0  0  0  0  0  0  0  0  0  0  0  0
  -22.7728   11.1836  -26.7136 C   0  0  0  0  0  0  0  0  0  0  0  0
  -22.4463   10.1670  -25.8594 C   0  0  0  0  0  0  0  0  0  0  0  0
  -21.8915   10.4397  -24.6238 C   0  0  0  0  0  0  0  0  0  0  0  0
  -21.6002   11.7371  -24.2863 C   0  0  0  0  0  0  0  0  0  0  0  0
  -21.0957   12.0954  -23.0735 O   0  0  0  0  0  0  0  0  0  0  0  0
  -21.5546   14.0573  -24.7534 O   0  0  0  0  0  0  0  0  0  0  0  0
  -20.9126   12.9957  -22.8896 H   0  0  0  0  0  0  0  0  0  0  0  0
  -21.7257   14.7956  -25.3044 H   0  0  0  0  0  0  0  0  0  0  0  0
  -19.9304   19.2785  -27.7274 C   0  0  0  0  0  0  0  0  0  0  0  0
  -19.8600   19.2104  -26.2231 C   0  0  0  0  0  0  0  0  0  0  0  0
  -19.7214   20.6149  -25.5565 C   0  0  0  0  0  0  0  0  0  0  0  0
  -18.3861   20.7462  -24.8122 C   0  0  0  0  0  0  0  0  0  0  0  0
  -17.9232   19.4985  -24.2663 N   0  0  0  0  0  0  0  0  0  0  0  0
  -18.4759   18.9073  -23.1883 C   0  0  0  0  0  0  0  0  0  0  0  0
  -19.3405   19.4765  -22.4825 O   0  0  0  0  0  0  0  0  0  0  0  0
  -17.1621   19.0525  -24.7033 H   0  0  0  0  0  0  0  0  0  0  0  0
  -17.9688   17.5480  -22.8333 C   0  0  0  0  0  0  0  0  0  0  0  0
  -18.7177   16.3525  -22.9067 C   0  0  0  0  0  0  0  0  0  0  0  0
  -18.1464   15.1009  -22.6991 C   0  0  0  0  0  0  0  0  0  0  0  0
  -16.7846   15.0323  -22.3072 C   0  0  0  0  0  0  0  0  0  0  0  0
  -16.0622   16.2179  -22.1895 C   0  0  0  0  0  0  0  0  0  0  0  0
  -16.6201   17.4585  -22.4736 C   0  0  0  0  0  0  0  0  0  0  0  0
  -20.0354   16.3930  -23.2018 O   0  0  0  0  0  0  0  0  0  0  0  0
  -18.8832   13.9816  -22.8668 O   0  0  0  0  0  0  0  0  0  0  0  0
  -20.4575   17.2166  -23.3486 H   0  0  0  0  0  0  0  0  0  0  0  0
  -19.7813   14.0464  -23.1260 H   0  0  0  0  0  0  0  0  0  0  0  0
  9 10  1  0  0  0
  9 14  2  0  0  0
  9 16  1  0  0  0
 10 11  2  0  0  0
 10  5  1  0  0  0
 11 12  1  0  0  0
 12 13  2  0  0  0
 13 14  1  0  0  0
 14 15  1  0  0  0
  5  6  2  0  0  0
  5  7  1  0  0  0
  7  4  1  0  0  0
  4  3  1  0  0  0
  3  2  1  0  0  0
  2  1  1  0  0  0
  1 19  1  0  0  0
 19 20  1  0  0  0
 20 21  1  0  0  0
 21 22  1  0  0  0
 22 23  1  0  0  0
 23 24  1  0  0  0
 24 27  1  0  0  0
 24 25  2  0  0  0
 27 28  1  0  0  0
 27 32  2  0  0  0
 28 29  2  0  0  0
 28 33  1  0  0  0
 29 30  1  0  0  0
 29 34  1  0  0  0
 30 31  2  0  0  0
 31 32  1  0  0  0
  7  8  1  0  0  0
 23 26  1  0  0  0
 15 17  1  0  0  0
 33 35  1  0  0  0
 34 36  1  0  0  0
 16 18  1  0  0  0
M  END
> <minimizedAffinity>
-7.52214

$$$$
5AD1_8LC_A_500


 36 37  0  0  0  0  0  0  0  0999 V2000
  -21.8896   19.2942  -25.8288 C   0  0  0  0  0  0  0  0  0  0  0  0
  -20.3706   19.3868  -25.9945 C   0  0  0  0  0  0  0  0  0  0  0  0
  -19.6733   20.2981  -25.0642 C   0  0  0  0  0  0  0  0  0  0  0  0
  -19.8208   19.8323  -23.6086 C   0  0  0  0  0  0  0  0  0  0  0  0
  -18.9446   17.5897  -23.1573 C   0  0  0  0  0  0  0  0  0  0  0  0
  -20.0551   17.0740  -23.3830 O   0  0  0  0  0  0  0  0  0  0  0  0
  -18.7660   18.9129  -23.2394 N   0  0  0  0  0  0  0  0  0  0  0  0
  -17.8742   19.2788  -23.0391 H   0  0  0  0  0  0  0  0  0  0  0  0
  -17.7271   15.4032  -22.6331 C   0  0  0  0  0  0  0  0  0  0  0  0
  -17.7392   16.8032  -22.7639 C   0  0  0  0  0  0  0  0  0  0  0  0
  -16.5200   17.4878  -22.5497 C   0  0  0  0  0  0  0  0  0  0  0  0
  -15.3885   16.8370  -22.1422 C   0  0  0  0  0  0  0  0  0  0  0  0
  -15.3741   15.4604  -22.0264 C   0  0  0  0  0  0  0  0  0  0  0  0
  -16.5270   14.7520  -22.2520 C   0  0  0  0  0  0  0  0  0  0  0  0
  -16.5870   13.3926  -22.2035 O   0  0  0  0  0  0  0  0  0  0  0  0
  -18.8200   14.6211  -22.8253 O   0  0  0  0  0  0  0  0  0  0  0  0
  -17.3988   12.9534  -22.3650 H   0  0  0  0  0  0  0  0  0  0  0  0
  -19.6349   15.0085  -23.0779 H   0  0  0  0  0  0  0  0  0  0  0  0
  -22.5017   17.9457  -26.2668 C   0  0  0  0  0  0  0  0  0  0  0  0
  -21.7466   17.3657  -27.4356 C   0  0  0  0  0  0  0  0  0  0  0  0
  -22.2233   15.9287  -27.8149 C   0  0  0  0  0  0  0  0  0  0  0  0
  -22.9976   15.2785  -26.6607 C   0  0  0  0  0  0  0  0  0  0  0  0
  -22.8896   13.8442  -26.6506 N   0  0  0  0  0  0  0  0  0  0  0  0
  -22.1836   13.1577  -25.7301 C   0  0  0  0  0  0  0  0  0  0  0  0
  -21.4377   13.7253  -24.8987 O   0  0  0  0  0  0  0  0  0  0  0  0
  -23.3562   13.3369  -27.3535 H   0  0  0  0  0  0  0  0  0  0  0  0
  -22.2865   11.6684  -25.7777 C   0  0  0  0  0  0  0  0  0  0  0  0
  -21.9108   10.7906  -24.7367 C   0  0  0  0  0  0  0  0  0  0  0  0
  -22.1639    9.4233  -24.7865 C   0  0  0  0  0  0  0  0  0  0  0  0
  -22.7345    8.8807  -25.9667 C   0  0  0  0  0  0  0  0  0  0  0  0
  -23.0595    9.7445  -27.0105 C   0  0  0  0  0  0  0  0  0  0  0  0
  -22.8743   11.1188  -26.9217 C   0  0  0  0  0  0  0  0  0  0  0  0
  -21.2950   11.2689  -23.6334 O   0  0  0  0  0  0  0  0  0  0  0  0
  -21.8656    8.6382  -23.7290 O   0  0  0  0  0  0  0  0  0  0  0  0
  -21.1069   12.1839  -23.5614 H   0  0  0  0  0  0  0  0  0  0  0  0
  -21.4891    9.0143  -22.9577 H   0  0  0  0  0  0  0  0  0  0  0  0
  9 10  1  0  0  0
  9 14  2  0  0  0
  9 16  1  0  0  0
 10 11  2  0  0  0
 10  5  1  0  0  0
 11 12  1  0  0  0
 12 13  2  0  0  0
 13 14  1  0  0  0
 14 15  1  0  0  0
  5  6  2  0  0  0
  5  7  1  0  0  0
  7  4  1  0  0  0
  4  3  1  0  0  0
  3  2  1  0  0  0
  2  1  1  0  0  0
  1 19  1  0  0  0
 19 20  1  0  0  0
 20 21  1  0  0  0
 21 22  1  0  0  0
 22 23  1  0  0  0
 23 24  1  0  0  0
 24 27  1  0  0  0
 24 25  2  0  0  0
 27 28  1  0  0  0
 27 32  2  0  0  0
 28 29  2  0  0  0
 28 33  1  0  0  0
 29 30  1  0  0  0
 29 34  1  0  0  0
 30 31  2  0  0  0
 31 32  1  0  0  0
  7  8  1  0  0  0
 23 26  1  0  0  0
 15 17  1  0  0  0
 33 35  1  0  0  0
 34 36  1  0  0  0
 16 18  1  0  0  0
M  END
> <minimizedAffinity>
-7.38175

$$$$
5AD1_8LC_A_500


 36 37  0  0  0  0  0  0  0  0999 V2000
  -22.6434   17.3593  -26.1345 C   0  0  0  0  0  0  0  0  0  0  0  0
  -23.8161   16.7809  -26.9304 C   0  0  0  0  0  0  0  0  0  0  0  0
  -23.5255   15.5658  -27.7187 C   0  0  0  0  0  0  0  0  0  0  0  0
  -22.2197   14.9006  -27.2607 C   0  0  0  0  0  0  0  0  0  0  0  0
  -22.0789   12.8864  -25.8737 C   0  0  0  0  0  0  0  0  0  0  0  0
  -21.5766   13.5289  -24.9329 O   0  0  0  0  0  0  0  0  0  0  0  0
  -22.4033   13.4846  -27.0255 N   0  0  0  0  0  0  0  0  0  0  0  0
  -22.7852   12.9351  -27.7476 H   0  0  0  0  0  0  0  0  0  0  0  0
  -21.9582   10.5961  -24.7434 C   0  0  0  0  0  0  0  0  0  0  0  0
  -22.3431   11.4191  -25.8167 C   0  0  0  0  0  0  0  0  0  0  0  0
  -23.0601   10.8150  -26.8760 C   0  0  0  0  0  0  0  0  0  0  0  0
  -23.2971    9.4687  -26.9119 C   0  0  0  0  0  0  0  0  0  0  0  0
  -22.9300    8.6631  -25.8513 C   0  0  0  0  0  0  0  0  0  0  0  0
  -22.2570    9.2111  -24.7889 C   0  0  0  0  0  0  0  0  0  0  0  0
  -21.9001    8.4973  -23.6856 O   0  0  0  0  0  0  0  0  0  0  0  0
  -21.2806   11.0463  -23.6566 O   0  0  0  0  0  0  0  0  0  0  0  0
  -21.4407    8.9166  -22.9848 H   0  0  0  0  0  0  0  0  0  0  0  0
  -21.0616   11.9545  -23.5842 H   0  0  0  0  0  0  0  0  0  0  0  0
  -21.8282   18.4358  -26.8840 C   0  0  0  0  0  0  0  0  0  0  0  0
  -20.5082   18.6854  -26.1999 C   0  0  0  0  0  0  0  0  0  0  0  0
  -20.2858   20.1869  -25.8367 C   0  0  0  0  0  0  0  0  0  0  0  0
  -19.2479   20.3389  -24.7169 C   0  0  0  0  0  0  0  0  0  0  0  0
  -18.6974   19.0811  -24.2880 N   0  0  0  0  0  0  0  0  0  0  0  0
  -17.9101   18.9450  -23.2023 C   0  0  0  0  0  0  0  0  0  0  0  0
  -17.4692   19.9310  -22.5674 O   0  0  0  0  0  0  0  0  0  0  0  0
  -18.9067   18.2767  -24.8156 H   0  0  0  0  0  0  0  0  0  0  0  0
  -17.5356   17.5523  -22.8140 C   0  0  0  0  0  0  0  0  0  0  0  0
  -18.3949   16.4322  -22.8627 C   0  0  0  0  0  0  0  0  0  0  0  0
  -17.9459   15.1370  -22.6240 C   0  0  0  0  0  0  0  0  0  0  0  0
  -16.5975   14.9482  -22.2252 C   0  0  0  0  0  0  0  0  0  0  0  0
  -15.7656   16.0620  -22.1320 C   0  0  0  0  0  0  0  0  0  0  0  0
  -16.2022   17.3431  -22.4469 C   0  0  0  0  0  0  0  0  0  0  0  0
  -19.7022   16.5911  -23.1639 O   0  0  0  0  0  0  0  0  0  0  0  0
  -18.7857   14.0894  -22.7689 O   0  0  0  0  0  0  0  0  0  0  0  0
  -20.0436   17.4475  -23.3314 H   0  0  0  0  0  0  0  0  0  0  0  0
  -19.6731   14.2333  -23.0331 H   0  0  0  0  0  0  0  0  0  0  0  0
  9 10  1  0  0  0
  9 14  2  0  0  0
  9 16  1  0  0  0
 10 11  2  0  0  0
 10  5  1  0  0  0
 11 12  1  0  0  0
 12 13  2  0  0  0
 13 14  1  0  0  0
 14 15  1  0  0  0
  5  6  2  0  0  0
  5  7  1  0  0  0
  7  4  1  0  0  0
  4  3  1  0  0  0
  3  2  1  0  0  0
  2  1  1  0  0  0
  1 19  1  0  0  0
 19 20  1  0  0  0
 20 21  1  0  0  0
 21 22  1  0  0  0
 22 23  1  0  0  0
 23 24  1  0  0  0
 24 27  1  0  0  0
 24 25  2  0  0  0
 27 28  1  0  0  0
 27 32  2  0  0  0
 28 29  2  0  0  0
 28 33  1  0  0  0
 29 30  1  0  0  0
 29 34  1  0  0  0
 30 31  2  0  0  0
 31 32  1  0  0  0
  7  8  1  0  0  0
 23 26  1  0  0  0
 15 17  1  0  0  0
 33 35  1  0  0  0
 34 36  1  0  0  0
 16 18  1  0  0  0
M  END
> <minimizedAffinity>
-7.22215

$$$$
5AD1_8LC_A_500


 36 37  0  0  0  0  0  0  0  0999 V2000
  -22.2045   16.1213  -27.2967 C   0  0  0  0  0  0  0  0  0  0  0  0
  -22.4155   17.3591  -26.4211 C   0  0  0  0  0  0  0  0  0  0  0  0
  -21.1890   18.0342  -25.9497 C   0  0  0  0  0  0  0  0  0  0  0  0
  -21.1005   18.0277  -24.4169 C   0  0  0  0  0  0  0  0  0  0  0  0
  -18.9883   17.9751  -23.1774 C   0  0  0  0  0  0  0  0  0  0  0  0
  -19.1376   19.1545  -22.8072 O   0  0  0  0  0  0  0  0  0  0  0  0
  -19.8917   17.3757  -23.9611 N   0  0  0  0  0  0  0  0  0  0  0  0
  -19.7263   16.4465  -24.2410 H   0  0  0  0  0  0  0  0  0  0  0  0
  -17.8536   15.7466  -22.6447 C   0  0  0  0  0  0  0  0  0  0  0  0
  -17.8066   17.1424  -22.8082 C   0  0  0  0  0  0  0  0  0  0  0  0
  -16.5504   17.7742  -22.6538 C   0  0  0  0  0  0  0  0  0  0  0  0
  -15.4356   17.0808  -22.2713 C   0  0  0  0  0  0  0  0  0  0  0  0
  -15.4798   15.7079  -22.1233 C   0  0  0  0  0  0  0  0  0  0  0  0
  -16.6713   15.0490  -22.2909 C   0  0  0  0  0  0  0  0  0  0  0  0
  -16.7915   13.6952  -22.2080 O   0  0  0  0  0  0  0  0  0  0  0  0
  -18.9873   15.0120  -22.7793 O   0  0  0  0  0  0  0  0  0  0  0  0
  -17.6278   13.2907  -22.3301 H   0  0  0  0  0  0  0  0  0  0  0  0
  -19.7923   15.4312  -23.0121 H   0  0  0  0  0  0  0  0  0  0  0  0
  -23.4312   15.1882  -27.3949 C   0  0  0  0  0  0  0  0  0  0  0  0
  -23.2276   13.9421  -26.5712 C   0  0  0  0  0  0  0  0  0  0  0  0
  -22.0538   13.0545  -27.0912 C   0  0  0  0  0  0  0  0  0  0  0  0
  -22.5436   11.6482  -27.4610 C   0  0  0  0  0  0  0  0  0  0  0  0
  -22.3894   10.7009  -26.3896 N   0  0  0  0  0  0  0  0  0  0  0  0
  -22.8755    9.4443  -26.4318 C   0  0  0  0  0  0  0  0  0  0  0  0
  -23.6351    9.0508  -27.3471 O   0  0  0  0  0  0  0  0  0  0  0  0
  -21.9028   10.9854  -25.5825 H   0  0  0  0  0  0  0  0  0  0  0  0
  -22.5098    8.5438  -25.2977 C   0  0  0  0  0  0  0  0  0  0  0  0
  -21.1944    8.1696  -24.9439 C   0  0  0  0  0  0  0  0  0  0  0  0
  -20.9102    7.4436  -23.7914 C   0  0  0  0  0  0  0  0  0  0  0  0
  -21.9903    6.9831  -22.9950 C   0  0  0  0  0  0  0  0  0  0  0  0
  -23.2894    7.3142  -23.3744 C   0  0  0  0  0  0  0  0  0  0  0  0
  -23.5599    8.1049  -24.4846 C   0  0  0  0  0  0  0  0  0  0  0  0
  -20.1524    8.5279  -25.7255 O   0  0  0  0  0  0  0  0  0  0  0  0
  -19.6295    7.1858  -23.4495 O   0  0  0  0  0  0  0  0  0  0  0  0
  -20.3020    9.0175  -26.5103 H   0  0  0  0  0  0  0  0  0  0  0  0
  -18.9289    7.4980  -23.9877 H   0  0  0  0  0  0  0  0  0  0  0  0
  9 10  1  0  0  0
  9 14  2  0  0  0
  9 16  1  0  0  0
 10 11  2  0  0  0
 10  5  1  0  0  0
 11 12  1  0  0  0
 12 13  2  0  0  0
 13 14  1  0  0  0
 14 15  1  0  0  0
  5  6  2  0  0  0
  5  7  1  0  0  0
  7  4  1  0  0  0
  4  3  1  0  0  0
  3  2  1  0  0  0
  2  1  1  0  0  0
  1 19  1  0  0  0
 19 20  1  0  0  0
 20 21  1  0  0  0
 21 22  1  0  0  0
 22 23  1  0  0  0
 23 24  1  0  0  0
 24 27  1  0  0  0
 24 25  2  0  0  0
 27 28  1  0  0  0
 27 32  2  0  0  0
 28 29  2  0  0  0
 28 33  1  0  0  0
 29 30  1  0  0  0
 29 34  1  0  0  0
 30 31  2  0  0  0
 31 32  1  0  0  0
  7  8  1  0  0  0
 23 26  1  0  0  0
 15 17  1  0  0  0
 33 35  1  0  0  0
 34 36  1  0  0  0
 16 18  1  0  0  0
M  END
> <minimizedAffinity>
-7.20624

$$$$
5AD1_8LC_A_500


 36 37  0  0  0  0  0  0  0  0999 V2000
  -23.0633   18.0829  -26.5299 C   0  0  0  0  0  0  0  0  0  0  0  0
  -22.0017   19.0845  -26.0681 C   0  0  0  0  0  0  0  0  0  0  0  0
  -20.6690   18.5219  -25.7685 C   0  0  0  0  0  0  0  0  0  0  0  0
  -20.5903   18.0080  -24.3239 C   0  0  0  0  0  0  0  0  0  0  0  0
  -18.8410   16.9263  -22.9933 C   0  0  0  0  0  0  0  0  0  0  0  0
  -19.6728   16.1784  -22.4465 O   0  0  0  0  0  0  0  0  0  0  0  0
  -19.2177   17.8357  -23.8992 N   0  0  0  0  0  0  0  0  0  0  0  0
  -18.5281   18.4155  -24.2960 H   0  0  0  0  0  0  0  0  0  0  0  0
  -16.6584   15.7140  -22.4418 C   0  0  0  0  0  0  0  0  0  0  0  0
  -17.3816   16.8952  -22.6845 C   0  0  0  0  0  0  0  0  0  0  0  0
  -16.6619   18.1130  -22.6754 C   0  0  0  0  0  0  0  0  0  0  0  0
  -15.3335   18.1641  -22.3550 C   0  0  0  0  0  0  0  0  0  0  0  0
  -14.6210   17.0022  -22.1293 C   0  0  0  0  0  0  0  0  0  0  0  0
  -15.2724   15.7951  -22.1556 C   0  0  0  0  0  0  0  0  0  0  0  0
  -14.6369   14.6025  -21.9890 O   0  0  0  0  0  0  0  0  0  0  0  0
  -17.2188   14.4775  -22.4363 O   0  0  0  0  0  0  0  0  0  0  0  0
  -15.1257   13.8035  -22.0152 H   0  0  0  0  0  0  0  0  0  0  0  0
  -18.1320   14.3761  -22.6200 H   0  0  0  0  0  0  0  0  0  0  0  0
  -22.6061   17.1416  -27.6656 C   0  0  0  0  0  0  0  0  0  0  0  0
  -23.7701   16.7442  -28.5374 C   0  0  0  0  0  0  0  0  0  0  0  0
  -24.7520   15.7594  -27.8290 C   0  0  0  0  0  0  0  0  0  0  0  0
  -24.6040   14.3355  -28.3813 C   0  0  0  0  0  0  0  0  0  0  0  0
  -24.0608   13.4144  -27.4192 N   0  0  0  0  0  0  0  0  0  0  0  0
  -23.0236   12.5935  -27.6783 C   0  0  0  0  0  0  0  0  0  0  0  0
  -22.5484   12.4582  -28.8297 O   0  0  0  0  0  0  0  0  0  0  0  0
  -24.4684   13.3819  -26.5236 H   0  0  0  0  0  0  0  0  0  0  0  0
  -22.4917   11.7996  -26.5304 C   0  0  0  0  0  0  0  0  0  0  0  0
  -21.9573   12.3422  -25.3407 C   0  0  0  0  0  0  0  0  0  0  0  0
  -21.6102   11.5506  -24.2503 C   0  0  0  0  0  0  0  0  0  0  0  0
  -21.7089   10.1408  -24.3755 C   0  0  0  0  0  0  0  0  0  0  0  0
  -22.1916    9.6078  -25.5689 C   0  0  0  0  0  0  0  0  0  0  0  0
  -22.6086   10.4090  -26.6248 C   0  0  0  0  0  0  0  0  0  0  0  0
  -21.7792   13.6761  -25.2221 O   0  0  0  0  0  0  0  0  0  0  0  0
  -21.1862   12.1229  -23.1029 O   0  0  0  0  0  0  0  0  0  0  0  0
  -22.0009   14.2435  -25.9340 H   0  0  0  0  0  0  0  0  0  0  0  0
  -21.1274   13.0558  -23.0386 H   0  0  0  0  0  0  0  0  0  0  0  0
  9 10  1  0  0  0
  9 14  2  0  0  0
  9 16  1  0  0  0
 10 11  2  0  0  0
 10  5  1  0  0  0
 11 12  1  0  0  0
 12 13  2  0  0  0
 13 14  1  0  0  0
 14 15  1  0  0  0
  5  6  2  0  0  0
  5  7  1  0  0  0
  7  4  1  0  0  0
  4  3  1  0  0  0
  3  2  1  0  0  0
  2  1  1  0  0  0
  1 19  1  0  0  0
 19 20  1  0  0  0
 20 21  1  0  0  0
 21 22  1  0  0  0
 22 23  1  0  0  0
 23 24  1  0  0  0
 24 27  1  0  0  0
 24 25  2  0  0  0
 27 28  1  0  0  0
 27 32  2  0  0  0
 28 29  2  0  0  0
 28 33  1  0  0  0
 29 30  1  0  0  0
 29 34  1  0  0  0
 30 31  2  0  0  0
 31 32  1  0  0  0
  7  8  1  0  0  0
 23 26  1  0  0  0
 15 17  1  0  0  0
 33 35  1  0  0  0
 34 36  1  0  0  0
 16 18  1  0  0  0
M  END
> <minimizedAffinity>
-7.17407

$$$$
5AD1_8LC_A_500


 36 37  0  0  0  0  0  0  0  0999 V2000
  -22.8521   15.5014  -28.1016 C   0  0  0  0  0  0  0  0  0  0  0  0
  -23.3945   14.7570  -26.8788 C   0  0  0  0  0  0  0  0  0  0  0  0
  -23.2388   13.2880  -26.8948 C   0  0  0  0  0  0  0  0  0  0  0  0
  -22.1905   12.8253  -25.8729 C   0  0  0  0  0  0  0  0  0  0  0  0
  -21.8250   10.7662  -24.5973 C   0  0  0  0  0  0  0  0  0  0  0  0
  -21.4236   11.4096  -23.6098 O   0  0  0  0  0  0  0  0  0  0  0  0
  -22.2005   11.3861  -25.7216 N   0  0  0  0  0  0  0  0  0  0  0  0
  -22.4980   10.8369  -26.4827 H   0  0  0  0  0  0  0  0  0  0  0  0
  -23.0092    8.5428  -24.1592 C   0  0  0  0  0  0  0  0  0  0  0  0
  -21.9054    9.2767  -24.6288 C   0  0  0  0  0  0  0  0  0  0  0  0
  -20.8359    8.5493  -25.2016 C   0  0  0  0  0  0  0  0  0  0  0  0
  -20.8217    7.1821  -25.2219 C   0  0  0  0  0  0  0  0  0  0  0  0
  -21.9119    6.4623  -24.7721 C   0  0  0  0  0  0  0  0  0  0  0  0
  -22.9843    7.1274  -24.2339 C   0  0  0  0  0  0  0  0  0  0  0  0
  -24.1146    6.4975  -23.8103 O   0  0  0  0  0  0  0  0  0  0  0  0
  -24.1083    9.1126  -23.6020 O   0  0  0  0  0  0  0  0  0  0  0  0
  -24.8213    6.9957  -23.4492 H   0  0  0  0  0  0  0  0  0  0  0  0
  -24.1680   10.0450  -23.5318 H   0  0  0  0  0  0  0  0  0  0  0  0
  -21.8458   16.6260  -27.7737 C   0  0  0  0  0  0  0  0  0  0  0  0
  -21.9461   17.0333  -26.3256 C   0  0  0  0  0  0  0  0  0  0  0  0
  -21.1903   18.3628  -26.0141 C   0  0  0  0  0  0  0  0  0  0  0  0
  -20.8851   18.4894  -24.5157 C   0  0  0  0  0  0  0  0  0  0  0  0
  -19.6968   17.7802  -24.1235 N   0  0  0  0  0  0  0  0  0  0  0  0
  -18.8617   18.2061  -23.1549 C   0  0  0  0  0  0  0  0  0  0  0  0
  -18.9730   19.3354  -22.6240 O   0  0  0  0  0  0  0  0  0  0  0  0
  -19.4819   16.9387  -24.5872 H   0  0  0  0  0  0  0  0  0  0  0  0
  -17.7496   17.2849  -22.7732 C   0  0  0  0  0  0  0  0  0  0  0  0
  -17.8688   15.8876  -22.6039 C   0  0  0  0  0  0  0  0  0  0  0  0
  -16.7669   15.0660  -22.3879 C   0  0  0  0  0  0  0  0  0  0  0  0
  -15.4903   15.6669  -22.2387 C   0  0  0  0  0  0  0  0  0  0  0  0
  -15.3848   17.0510  -22.3590 C   0  0  0  0  0  0  0  0  0  0  0  0
  -16.4788   17.8564  -22.6514 C   0  0  0  0  0  0  0  0  0  0  0  0
  -19.0823   15.2968  -22.6635 O   0  0  0  0  0  0  0  0  0  0  0  0
  -16.9214   13.7261  -22.3202 O   0  0  0  0  0  0  0  0  0  0  0  0
  -19.8493   15.8155  -22.8075 H   0  0  0  0  0  0  0  0  0  0  0  0
  -17.7723   13.3469  -22.4210 H   0  0  0  0  0  0  0  0  0  0  0  0
  9 10  1  0  0  0
  9 14  2  0  0  0
  9 16  1  0  0  0
 10 11  2  0  0  0
 10  5  1  0  0  0
 11 12  1  0  0  0
 12 13  2  0  0  0
 13 14  1  0  0  0
 14 15  1  0  0  0
  5  6  2  0  0  0
  5  7  1  0  0  0
  7  4  1  0  0  0
  4  3  1  0  0  0
  3  2  1  0  0  0
  2  1  1  0  0  0
  1 19  1  0  0  0
 19 20  1  0  0  0
 20 21  1  0  0  0
 21 22  1  0  0  0
 22 23  1  0  0  0
 23 24  1  0  0  0
 24 27  1  0  0  0
 24 25  2  0  0  0
 27 28  1  0  0  0
 27 32  2  0  0  0
 28 29  2  0  0  0
 28 33  1  0  0  0
 29 30  1  0  0  0
 29 34  1  0  0  0
 30 31  2  0  0  0
 31 32  1  0  0  0
  7  8  1  0  0  0
 23 26  1  0  0  0
 15 17  1  0  0  0
 33 35  1  0  0  0
 34 36  1  0  0  0
 16 18  1  0  0  0
M  END
> <minimizedAffinity>
-7.09528

$$$$
5AD1_8LC_A_500


 36 37  0  0  0  0  0  0  0  0999 V2000
  -19.5330   20.8203  -26.2020 C   0  0  0  0  0  0  0  0  0  0  0  0
  -18.0258   20.9306  -26.4461 C   0  0  0  0  0  0  0  0  0  0  0  0
  -17.2286   21.4786  -25.3297 C   0  0  0  0  0  0  0  0  0  0  0  0
  -17.8075   21.0605  -23.9705 C   0  0  0  0  0  0  0  0  0  0  0  0
  -18.2805   18.8659  -22.9906 C   0  0  0  0  0  0  0  0  0  0  0  0
  -19.4017   19.2435  -22.6028 O   0  0  0  0  0  0  0  0  0  0  0  0
  -17.4597   19.6937  -23.6468 N   0  0  0  0  0  0  0  0  0  0  0  0
  -16.5767   19.3568  -23.9227 H   0  0  0  0  0  0  0  0  0  0  0  0
  -18.5313   16.3270  -22.8200 C   0  0  0  0  0  0  0  0  0  0  0  0
  -17.7483   17.4929  -22.7499 C   0  0  0  0  0  0  0  0  0  0  0  0
  -16.3691   17.3356  -22.4778 C   0  0  0  0  0  0  0  0  0  0  0  0
  -15.8225   16.1129  -22.2017 C   0  0  0  0  0  0  0  0  0  0  0  0
  -16.5897   14.9668  -22.2833 C   0  0  0  0  0  0  0  0  0  0  0  0
  -17.9269   15.0689  -22.5721 C   0  0  0  0  0  0  0  0  0  0  0  0
  -18.7421   13.9879  -22.7157 O   0  0  0  0  0  0  0  0  0  0  0  0
  -19.8622   16.3306  -23.0880 O   0  0  0  0  0  0  0  0  0  0  0  0
  -19.6501   14.1087  -22.9132 H   0  0  0  0  0  0  0  0  0  0  0  0
  -20.3037   17.1395  -23.2581 H   0  0  0  0  0  0  0  0  0  0  0  0
  -20.2035   19.6000  -26.8700 C   0  0  0  0  0  0  0  0  0  0  0  0
  -20.3318   18.4559  -25.8966 C   0  0  0  0  0  0  0  0  0  0  0  0
  -21.8068   18.1914  -25.4602 C   0  0  0  0  0  0  0  0  0  0  0  0
  -22.6247   17.5854  -26.6083 C   0  0  0  0  0  0  0  0  0  0  0  0
  -22.8241   16.1679  -26.4676 N   0  0  0  0  0  0  0  0  0  0  0  0
  -22.1979   15.2491  -27.2296 C   0  0  0  0  0  0  0  0  0  0  0  0
  -21.5071   15.5645  -28.2261 O   0  0  0  0  0  0  0  0  0  0  0  0
  -23.4515   15.8518  -25.7778 H   0  0  0  0  0  0  0  0  0  0  0  0
  -22.4086   13.8163  -26.8642 C   0  0  0  0  0  0  0  0  0  0  0  0
  -22.9118   12.8189  -27.7288 C   0  0  0  0  0  0  0  0  0  0  0  0
  -22.9505   11.4743  -27.3732 C   0  0  0  0  0  0  0  0  0  0  0  0
  -22.5579   11.1072  -26.0602 C   0  0  0  0  0  0  0  0  0  0  0  0
  -22.1072   12.1016  -25.1946 C   0  0  0  0  0  0  0  0  0  0  0  0
  -21.9990   13.4313  -25.5834 C   0  0  0  0  0  0  0  0  0  0  0  0
  -23.3654   13.1502  -28.9574 O   0  0  0  0  0  0  0  0  0  0  0  0
  -23.3582   10.5469  -28.2663 O   0  0  0  0  0  0  0  0  0  0  0  0
  -23.3561   14.0452  -29.2346 H   0  0  0  0  0  0  0  0  0  0  0  0
  -23.6138   10.8080  -29.1291 H   0  0  0  0  0  0  0  0  0  0  0  0
  9 10  1  0  0  0
  9 14  2  0  0  0
  9 16  1  0  0  0
 10 11  2  0  0  0
 10  5  1  0  0  0
 11 12  1  0  0  0
 12 13  2  0  0  0
 13 14  1  0  0  0
 14 15  1  0  0  0
  5  6  2  0  0  0
  5  7  1  0  0  0
  7  4  1  0  0  0
  4  3  1  0  0  0
  3  2  1  0  0  0
  2  1  1  0  0  0
  1 19  1  0  0  0
 19 20  1  0  0  0
 20 21  1  0  0  0
 21 22  1  0  0  0
 22 23  1  0  0  0
 23 24  1  0  0  0
 24 27  1  0  0  0
 24 25  2  0  0  0
 27 28  1  0  0  0
 27 32  2  0  0  0
 28 29  2  0  0  0
 28 33  1  0  0  0
 29 30  1  0  0  0
 29 34  1  0  0  0
 30 31  2  0  0  0
 31 32  1  0  0  0
  7  8  1  0  0  0
 23 26  1  0  0  0
 15 17  1  0  0  0
 33 35  1  0  0  0
 34 36  1  0  0  0
 16 18  1  0  0  0
M  END
> <minimizedAffinity>
-6.73978

$$$$
5AD1_8LC_A_500


 36 37  0  0  0  0  0  0  0  0999 V2000
  -21.5134   18.8841  -26.7215 C   0  0  0  0  0  0  0  0  0  0  0  0
  -21.8448   17.4953  -26.1695 C   0  0  0  0  0  0  0  0  0  0  0  0
  -23.0144   16.8228  -26.7711 C   0  0  0  0  0  0  0  0  0  0  0  0
  -22.6188   16.0233  -28.0208 C   0  0  0  0  0  0  0  0  0  0  0  0
  -22.1924   13.6238  -27.7745 C   0  0  0  0  0  0  0  0  0  0  0  0
  -20.9625   13.8127  -27.7315 O   0  0  0  0  0  0  0  0  0  0  0  0
  -23.0450   14.6440  -27.9216 N   0  0  0  0  0  0  0  0  0  0  0  0
  -24.0087   14.4470  -27.9645 H   0  0  0  0  0  0  0  0  0  0  0  0
  -23.7754   11.7936  -28.6005 C   0  0  0  0  0  0  0  0  0  0  0  0
  -22.8186   12.2722  -27.6880 C   0  0  0  0  0  0  0  0  0  0  0  0
  -22.4032   11.3942  -26.6596 C   0  0  0  0  0  0  0  0  0  0  0  0
  -22.9672   10.1598  -26.4926 C   0  0  0  0  0  0  0  0  0  0  0  0
  -23.8978    9.6854  -27.3969 C   0  0  0  0  0  0  0  0  0  0  0  0
  -24.3100   10.4922  -28.4270 C   0  0  0  0  0  0  0  0  0  0  0  0
  -25.1875   10.0857  -29.3855 O   0  0  0  0  0  0  0  0  0  0  0  0
  -24.2508   12.5226  -29.6424 O   0  0  0  0  0  0  0  0  0  0  0  0
  -25.4392   10.6739  -30.0700 H   0  0  0  0  0  0  0  0  0  0  0  0
  -23.9261   13.3882  -29.7954 H   0  0  0  0  0  0  0  0  0  0  0  0
  -21.7148   20.0389  -25.7160 C   0  0  0  0  0  0  0  0  0  0  0  0
  -20.9343   19.7930  -24.4499 C   0  0  0  0  0  0  0  0  0  0  0  0
  -19.9519   20.9559  -24.1055 C   0  0  0  0  0  0  0  0  0  0  0  0
  -19.1745   20.6617  -22.8158 C   0  0  0  0  0  0  0  0  0  0  0  0
  -18.8077   19.2769  -22.6855 N   0  0  0  0  0  0  0  0  0  0  0  0
  -17.6162   18.7828  -23.0769 C   0  0  0  0  0  0  0  0  0  0  0  0
  -16.7904   19.4640  -23.7278 O   0  0  0  0  0  0  0  0  0  0  0  0
  -19.4619   18.6569  -22.2893 H   0  0  0  0  0  0  0  0  0  0  0  0
  -17.3397   17.3531  -22.7450 C   0  0  0  0  0  0  0  0  0  0  0  0
  -18.2732   16.2973  -22.8418 C   0  0  0  0  0  0  0  0  0  0  0  0
  -17.9150   14.9658  -22.6552 C   0  0  0  0  0  0  0  0  0  0  0  0
  -16.5848   14.6691  -22.2609 C   0  0  0  0  0  0  0  0  0  0  0  0
  -15.6794   15.7187  -22.1199 C   0  0  0  0  0  0  0  0  0  0  0  0
  -16.0257   17.0384  -22.3832 C   0  0  0  0  0  0  0  0  0  0  0  0
  -19.5650   16.5575  -23.1397 O   0  0  0  0  0  0  0  0  0  0  0  0
  -18.8235   13.9849  -22.8451 O   0  0  0  0  0  0  0  0  0  0  0  0
  -19.8462   17.4413  -23.2729 H   0  0  0  0  0  0  0  0  0  0  0  0
  -19.6975   14.1999  -23.1055 H   0  0  0  0  0  0  0  0  0  0  0  0
  9 10  1  0  0  0
  9 14  2  0  0  0
  9 16  1  0  0  0
 10 11  2  0  0  0
 10  5  1  0  0  0
 11 12  1  0  0  0
 12 13  2  0  0  0
 13 14  1  0  0  0
 14 15  1  0  0  0
  5  6  2  0  0  0
  5  7  1  0  0  0
  7  4  1  0  0  0
  4  3  1  0  0  0
  3  2  1  0  0  0
  2  1  1  0  0  0
  1 19  1  0  0  0
 19 20  1  0  0  0
 20 21  1  0  0  0
 21 22  1  0  0  0
 22 23  1  0  0  0
 23 24  1  0  0  0
 24 27  1  0  0  0
 24 25  2  0  0  0
 27 28  1  0  0  0
 27 32  2  0  0  0
 28 29  2  0  0  0
 28 33  1  0  0  0
 29 30  1  0  0  0
 29 34  1  0  0  0
 30 31  2  0  0  0
 31 32  1  0  0  0
  7  8  1  0  0  0
 23 26  1  0  0  0
 15 17  1  0  0  0
 33 35  1  0  0  0
 34 36  1  0  0  0
 16 18  1  0  0  0
M  END
> <minimizedAffinity>
-6.25575

$$$$
