6FNJ_DWT_A_1001


 39 43  0  0  0  0  0  0  0  0999 V2000
    1.9647   11.6086  106.5018 C   0  0  0  0  0  0  0  0  0  0  0  0
    0.8670   11.7287  107.3543 C   0  0  0  0  0  0  0  0  0  0  0  0
    3.2428   11.7417  107.0602 C   0  0  0  0  0  0  0  0  0  0  0  0
    3.4029   11.9744  108.4422 C   0  0  0  0  0  0  0  0  0  0  0  0
    2.2914   12.0891  109.2896 C   0  0  0  0  0  0  0  0  0  0  0  0
    2.4457   12.3221  110.6978 C   0  0  0  0  0  0  0  0  0  0  0  0
    1.0191   11.9579  108.7193 C   0  0  0  0  0  0  0  0  0  0  0  0
    2.7983   11.4286  104.2876 N   0  0  0  0  0  0  0  0  0  0  0  0
    1.7206   11.4136  105.1217 C   0  0  0  0  0  0  0  0  0  0  0  0
    0.5527   11.3460  104.7417 O   0  0  0  0  0  0  0  0  0  0  0  0
    3.6946   11.4835  104.6912 H   0  0  0  0  0  0  0  0  0  0  0  0
    1.7389   12.0089  100.7308 C   0  0  0  0  0  0  0  0  0  0  0  0
    1.7582   12.0705  102.1429 C   0  0  0  0  0  0  0  0  0  0  0  0
    2.7158   11.2215  100.1233 C   0  0  0  0  0  0  0  0  0  0  0  0
    3.6802   10.5351  100.8700 C   0  0  0  0  0  0  0  0  0  0  0  0
    3.6826   10.6206  102.2688 C   0  0  0  0  0  0  0  0  0  0  0  0
    2.7098   11.3717  102.9181 C   0  0  0  0  0  0  0  0  0  0  0  0
    1.0351   12.6212   98.7224 F   0  0  0  0  0  0  0  0  0  0  0  0
    0.7330   12.7096   99.9632 C   0  0  0  0  0  0  0  0  0  0  0  0
   -0.2289   12.1822  100.2012 F   0  0  0  0  0  0  0  0  0  0  0  0
    0.7320   13.7886  100.3298 F   0  0  0  0  0  0  0  0  0  0  0  0
   -0.0381   12.0825  109.5445 N   0  0  0  0  0  0  0  0  0  0  0  0
   -0.2691   12.9885  109.8526 H   0  0  0  0  0  0  0  0  0  0  0  0
   -0.8079   11.0585  109.9833 C   0  0  0  0  0  0  0  0  0  0  0  0
   -0.2716    9.8412  109.9305 N   0  0  0  0  0  0  0  0  0  0  0  0
   -2.0508   11.2198  110.4718 C   0  0  0  0  0  0  0  0  0  0  0  0
   -2.8714   12.2461  110.6840 C   0  0  0  0  0  0  0  0  0  0  0  0
   -4.0025   11.7654  111.1921 N   0  0  0  0  0  0  0  0  0  0  0  0
   -5.1943   12.5541  111.5757 C   0  0  0  0  0  0  0  0  0  0  0  0
   -3.9299   10.5309  111.2963 N   0  0  0  0  0  0  0  0  0  0  0  0
   -2.7336   10.1393  110.8660 C   0  0  0  0  0  0  0  0  0  0  0  0
   -2.1933    8.9140  110.8026 N   0  0  0  0  0  0  0  0  0  0  0  0
   -0.9555    8.7669  110.3300 C   0  0  0  0  0  0  0  0  0  0  0  0
   -0.3651    7.5113  110.2607 C   0  0  0  0  0  0  0  0  0  0  0  0
    0.8630    7.3465  109.6217 C   0  0  0  0  0  0  0  0  0  0  0  0
    1.4181    6.0670  109.5533 C   0  0  0  0  0  0  0  0  0  0  0  0
    0.7429    4.9713  110.0935 C   0  0  0  0  0  0  0  0  0  0  0  0
   -0.4908    5.1346  110.7314 N   0  0  0  0  0  0  0  0  0  0  0  0
   -1.0399    6.4158  110.7900 C   0  0  0  0  0  0  0  0  0  0  0  0
 37 38  2  0  0  0
 37 36  1  0  0  0
 38 39  1  0  0  0
 36 35  2  0  0  0
 39 34  2  0  0  0
 35 34  1  0  0  0
 34 33  1  0  0  0
 25 33  1  0  0  0
 25 24  2  0  0  0
 33 32  2  0  0  0
 22 24  1  0  0  0
 22  7  1  0  0  0
 24 26  1  0  0  0
 32 31  1  0  0  0
  6  5  1  0  0  0
  7  5  2  0  0  0
  7  2  1  0  0  0
  5  4  1  0  0  0
 26 31  1  0  0  0
 26 27  2  0  0  0
 31 30  2  0  0  0
  2  1  2  0  0  0
  4  3  2  0  0  0
 30 28  1  0  0  0
 27 28  1  0  0  0
  1  3  1  0  0  0
  1  9  1  0  0  0
 10  9  2  0  0  0
 18 19  1  0  0  0
 28 29  1  0  0  0
  9  8  1  0  0  0
  8 17  1  0  0  0
 13 17  2  0  0  0
 13 12  1  0  0  0
 19 20  1  0  0  0
 19 21  1  0  0  0
 19 12  1  0  0  0
 17 16  1  0  0  0
 12 14  2  0  0  0
 16 15  2  0  0  0
 14 15  1  0  0  0
  8 11  1  0  0  0
 22 23  1  0  0  0
M  END
> <minimizedAffinity>
-13.94689

$$$$
6FNJ_DWT_A_1001


 39 43  0  0  0  0  0  0  0  0999 V2000
    2.0868   11.6306  106.3719 C   0  0  0  0  0  0  0  0  0  0  0  0
    1.0327   11.7682  107.2753 C   0  0  0  0  0  0  0  0  0  0  0  0
    3.3917   11.7470  106.8684 C   0  0  0  0  0  0  0  0  0  0  0  0
    3.6207   11.9806  108.2405 C   0  0  0  0  0  0  0  0  0  0  0  0
    2.5526   12.1129  109.1395 C   0  0  0  0  0  0  0  0  0  0  0  0
    2.7771   12.3470  110.5380 C   0  0  0  0  0  0  0  0  0  0  0  0
    1.2528   11.9984  108.6307 C   0  0  0  0  0  0  0  0  0  0  0  0
    2.8104   11.4429  104.1199 N   0  0  0  0  0  0  0  0  0  0  0  0
    1.7744   11.4360  105.0055 C   0  0  0  0  0  0  0  0  0  0  0  0
    0.5891   11.3758  104.6829 O   0  0  0  0  0  0  0  0  0  0  0  0
    3.7256   11.4922  104.4793 H   0  0  0  0  0  0  0  0  0  0  0  0
    1.5422   11.9780  100.6248 C   0  0  0  0  0  0  0  0  0  0  0  0
    1.6306   12.0366  102.0345 C   0  0  0  0  0  0  0  0  0  0  0  0
    2.5256   11.2432   99.9642 C   0  0  0  0  0  0  0  0  0  0  0  0
    3.5607   10.6050  100.6571 C   0  0  0  0  0  0  0  0  0  0  0  0
    3.6303   10.6867  102.0544 C   0  0  0  0  0  0  0  0  0  0  0  0
    2.6550   11.3853  102.7564 C   0  0  0  0  0  0  0  0  0  0  0  0
   -0.4990   11.7947   99.7861 F   0  0  0  0  0  0  0  0  0  0  0  0
    0.4641   12.6284   99.9132 C   0  0  0  0  0  0  0  0  0  0  0  0
    0.1817   13.5033  100.5573 F   0  0  0  0  0  0  0  0  0  0  0  0
    0.8850   12.9559   98.9063 F   0  0  0  0  0  0  0  0  0  0  0  0
    0.2380   12.1398  109.5050 N   0  0  0  0  0  0  0  0  0  0  0  0
    0.0567   13.0448  109.8474 H   0  0  0  0  0  0  0  0  0  0  0  0
   -0.5523   11.1340  109.9495 C   0  0  0  0  0  0  0  0  0  0  0  0
   -1.7562   11.4751  110.4039 N   0  0  0  0  0  0  0  0  0  0  0  0
   -0.1862    9.8398  109.9350 C   0  0  0  0  0  0  0  0  0  0  0  0
    0.8874    9.1517  109.5535 C   0  0  0  0  0  0  0  0  0  0  0  0
    0.6576    7.8658  109.8036 N   0  0  0  0  0  0  0  0  0  0  0  0
    1.5854    6.7437  109.5402 C   0  0  0  0  0  0  0  0  0  0  0  0
   -0.4663    7.7266  110.3111 N   0  0  0  0  0  0  0  0  0  0  0  0
   -1.0369    8.9241  110.4114 C   0  0  0  0  0  0  0  0  0  0  0  0
   -2.2448    9.2726  110.8767 N   0  0  0  0  0  0  0  0  0  0  0  0
   -2.6033   10.5567  110.8733 C   0  0  0  0  0  0  0  0  0  0  0  0
   -3.8518   10.9479  111.3402 C   0  0  0  0  0  0  0  0  0  0  0  0
   -4.2299   12.2891  111.2962 C   0  0  0  0  0  0  0  0  0  0  0  0
   -5.4844   12.6499  111.7923 C   0  0  0  0  0  0  0  0  0  0  0  0
   -6.3323   11.6879  112.3437 C   0  0  0  0  0  0  0  0  0  0  0  0
   -5.9528   10.3428  112.3919 N   0  0  0  0  0  0  0  0  0  0  0  0
   -4.6955    9.9930  111.8988 C   0  0  0  0  0  0  0  0  0  0  0  0
 37 38  2  0  0  0
 37 36  1  0  0  0
 38 39  1  0  0  0
 36 35  2  0  0  0
 39 34  2  0  0  0
 35 34  1  0  0  0
 34 33  1  0  0  0
 25 33  1  0  0  0
 25 24  2  0  0  0
 33 32  2  0  0  0
 22 24  1  0  0  0
 22  7  1  0  0  0
 24 26  1  0  0  0
 32 31  1  0  0  0
  6  5  1  0  0  0
  7  5  2  0  0  0
  7  2  1  0  0  0
  5  4  1  0  0  0
 26 31  1  0  0  0
 26 27  2  0  0  0
 31 30  2  0  0  0
  2  1  2  0  0  0
  4  3  2  0  0  0
 30 28  1  0  0  0
 27 28  1  0  0  0
  1  3  1  0  0  0
  1  9  1  0  0  0
 10  9  2  0  0  0
 18 19  1  0  0  0
 28 29  1  0  0  0
  9  8  1  0  0  0
  8 17  1  0  0  0
 13 17  2  0  0  0
 13 12  1  0  0  0
 19 20  1  0  0  0
 19 21  1  0  0  0
 19 12  1  0  0  0
 17 16  1  0  0  0
 12 14  2  0  0  0
 16 15  2  0  0  0
 14 15  1  0  0  0
  8 11  1  0  0  0
 22 23  1  0  0  0
M  END
> <minimizedAffinity>
-13.84681

$$$$
6FNJ_DWT_A_1001


 39 43  0  0  0  0  0  0  0  0999 V2000
   -3.3374   11.9214  110.9892 C   0  0  0  0  0  0  0  0  0  0  0  0
   -3.5362   10.6200  111.4508 C   0  0  0  0  0  0  0  0  0  0  0  0
   -4.3307   12.8706  111.2639 C   0  0  0  0  0  0  0  0  0  0  0  0
   -5.4823   12.5147  111.9967 C   0  0  0  0  0  0  0  0  0  0  0  0
   -5.6686   11.2038  112.4590 C   0  0  0  0  0  0  0  0  0  0  0  0
   -6.8359   10.8342  113.2086 C   0  0  0  0  0  0  0  0  0  0  0  0
   -4.6707   10.2632  112.1750 C   0  0  0  0  0  0  0  0  0  0  0  0
   -1.2354   11.2057  110.1531 N   0  0  0  0  0  0  0  0  0  0  0  0
   -2.1748   12.1902  110.2287 C   0  0  0  0  0  0  0  0  0  0  0  0
   -2.0296   13.3216  109.7688 O   0  0  0  0  0  0  0  0  0  0  0  0
   -1.4488   10.3313  110.5520 H   0  0  0  0  0  0  0  0  0  0  0  0
    1.4822   11.6545  107.5990 C   0  0  0  0  0  0  0  0  0  0  0  0
    0.2006   11.4540  108.1606 C   0  0  0  0  0  0  0  0  0  0  0  0
    2.5486   11.7617  108.4905 C   0  0  0  0  0  0  0  0  0  0  0  0
    2.3626   11.6898  109.8758 C   0  0  0  0  0  0  0  0  0  0  0  0
    1.0797   11.4997  110.4070 C   0  0  0  0  0  0  0  0  0  0  0  0
   -0.0089   11.3595  109.5542 C   0  0  0  0  0  0  0  0  0  0  0  0
    0.8898   10.8646  105.6169 F   0  0  0  0  0  0  0  0  0  0  0  0
    1.6721   11.7158  106.1665 C   0  0  0  0  0  0  0  0  0  0  0  0
    1.4099   12.7709  105.8870 F   0  0  0  0  0  0  0  0  0  0  0  0
    2.7697   11.4808  105.9699 F   0  0  0  0  0  0  0  0  0  0  0  0
   -4.8703    9.0062  112.6155 N   0  0  0  0  0  0  0  0  0  0  0  0
   -5.2567    8.8962  113.5144 H   0  0  0  0  0  0  0  0  0  0  0  0
   -4.5810    7.8819  111.9184 C   0  0  0  0  0  0  0  0  0  0  0  0
   -3.3136    7.7183  111.5457 N   0  0  0  0  0  0  0  0  0  0  0  0
   -5.4938    6.9429  111.6109 C   0  0  0  0  0  0  0  0  0  0  0  0
   -6.7958    6.7661  111.8233 C   0  0  0  0  0  0  0  0  0  0  0  0
   -7.1499    5.6183  111.2525 N   0  0  0  0  0  0  0  0  0  0  0  0
   -8.5076    5.0302  111.2385 C   0  0  0  0  0  0  0  0  0  0  0  0
   -6.1657    5.0938  110.7082 N   0  0  0  0  0  0  0  0  0  0  0  0
   -5.1069    5.8748  110.9048 C   0  0  0  0  0  0  0  0  0  0  0  0
   -3.8313    5.7183  110.5234 N   0  0  0  0  0  0  0  0  0  0  0  0
   -2.9318    6.6480  110.8456 C   0  0  0  0  0  0  0  0  0  0  0  0
   -1.6007    6.5094  110.4727 C   0  0  0  0  0  0  0  0  0  0  0  0
   -0.7987    7.6365  110.2987 C   0  0  0  0  0  0  0  0  0  0  0  0
    0.5293    7.4613  109.9042 C   0  0  0  0  0  0  0  0  0  0  0  0
    1.0353    6.1824  109.6656 C   0  0  0  0  0  0  0  0  0  0  0  0
    0.2309    5.0513  109.8362 N   0  0  0  0  0  0  0  0  0  0  0  0
   -1.0960    5.2368  110.2252 C   0  0  0  0  0  0  0  0  0  0  0  0
 37 38  2  0  0  0
 37 36  1  0  0  0
 38 39  1  0  0  0
 36 35  2  0  0  0
 39 34  2  0  0  0
 35 34  1  0  0  0
 34 33  1  0  0  0
 25 33  1  0  0  0
 25 24  2  0  0  0
 33 32  2  0  0  0
 22 24  1  0  0  0
 22  7  1  0  0  0
 24 26  1  0  0  0
 32 31  1  0  0  0
  6  5  1  0  0  0
  7  5  2  0  0  0
  7  2  1  0  0  0
  5  4  1  0  0  0
 26 31  1  0  0  0
 26 27  2  0  0  0
 31 30  2  0  0  0
  2  1  2  0  0  0
  4  3  2  0  0  0
 30 28  1  0  0  0
 27 28  1  0  0  0
  1  3  1  0  0  0
  1  9  1  0  0  0
 10  9  2  0  0  0
 18 19  1  0  0  0
 28 29  1  0  0  0
  9  8  1  0  0  0
  8 17  1  0  0  0
 13 17  2  0  0  0
 13 12  1  0  0  0
 19 20  1  0  0  0
 19 21  1  0  0  0
 19 12  1  0  0  0
 17 16  1  0  0  0
 12 14  2  0  0  0
 16 15  2  0  0  0
 14 15  1  0  0  0
  8 11  1  0  0  0
 22 23  1  0  0  0
M  END
> <minimizedAffinity>
-12.29526

$$$$
6FNJ_DWT_A_1001


 39 43  0  0  0  0  0  0  0  0999 V2000
    1.6429   11.0937  107.1442 C   0  0  0  0  0  0  0  0  0  0  0  0
    1.3374    9.9452  107.8749 C   0  0  0  0  0  0  0  0  0  0  0  0
    2.0266   12.2378  107.8561 C   0  0  0  0  0  0  0  0  0  0  0  0
    2.1122   12.2136  109.2639 C   0  0  0  0  0  0  0  0  0  0  0  0
    1.8065   11.0515  109.9869 C   0  0  0  0  0  0  0  0  0  0  0  0
    1.8948   11.0174  111.4194 C   0  0  0  0  0  0  0  0  0  0  0  0
    1.4207    9.9155  109.2645 C   0  0  0  0  0  0  0  0  0  0  0  0
    2.6012   11.3108  104.9845 N   0  0  0  0  0  0  0  0  0  0  0  0
    1.4958   11.0493  105.7376 C   0  0  0  0  0  0  0  0  0  0  0  0
    0.3681   10.8817  105.2759 O   0  0  0  0  0  0  0  0  0  0  0  0
    3.4608   11.4279  105.4500 H   0  0  0  0  0  0  0  0  0  0  0  0
    3.5115   11.0273  101.3511 C   0  0  0  0  0  0  0  0  0  0  0  0
    3.5955   10.9238  102.7584 C   0  0  0  0  0  0  0  0  0  0  0  0
    2.3742   11.6458  100.8338 C   0  0  0  0  0  0  0  0  0  0  0  0
    1.3552   12.1290  101.6627 C   0  0  0  0  0  0  0  0  0  0  0  0
    1.4591   12.0054  103.0547 C   0  0  0  0  0  0  0  0  0  0  0  0
    2.5888   11.4208  103.6154 C   0  0  0  0  0  0  0  0  0  0  0  0
    5.6949   10.8675  101.0179 F   0  0  0  0  0  0  0  0  0  0  0  0
    4.5723   10.5379  100.4984 C   0  0  0  0  0  0  0  0  0  0  0  0
    4.4302    9.4247  100.4736 F   0  0  0  0  0  0  0  0  0  0  0  0
    4.4165   11.0125   99.4742 F   0  0  0  0  0  0  0  0  0  0  0  0
    1.1190    8.8113  109.9743 N   0  0  0  0  0  0  0  0  0  0  0  0
    1.8687    8.2787  110.3259 H   0  0  0  0  0  0  0  0  0  0  0  0
   -0.1352    8.3767  110.2421 C   0  0  0  0  0  0  0  0  0  0  0  0
   -1.0347    9.3046  110.5617 N   0  0  0  0  0  0  0  0  0  0  0  0
   -0.5019    7.0839  110.1834 C   0  0  0  0  0  0  0  0  0  0  0  0
    0.0961    5.9303  109.8947 C   0  0  0  0  0  0  0  0  0  0  0  0
   -0.8052    4.9607  110.0220 N   0  0  0  0  0  0  0  0  0  0  0  0
   -0.5737    3.5161  109.8009 C   0  0  0  0  0  0  0  0  0  0  0  0
   -1.8962    5.4387  110.3705 N   0  0  0  0  0  0  0  0  0  0  0  0
   -1.7644    6.7578  110.4812 C   0  0  0  0  0  0  0  0  0  0  0  0
   -2.6649    7.6944  110.8117 N   0  0  0  0  0  0  0  0  0  0  0  0
   -2.2946    8.9744  110.8531 C   0  0  0  0  0  0  0  0  0  0  0  0
   -3.2072    9.9686  111.1829 C   0  0  0  0  0  0  0  0  0  0  0  0
   -4.4029    9.6412  111.8209 C   0  0  0  0  0  0  0  0  0  0  0  0
   -5.3062   10.6633  112.1200 C   0  0  0  0  0  0  0  0  0  0  0  0
   -5.0262   11.9836  111.7641 C   0  0  0  0  0  0  0  0  0  0  0  0
   -3.8289   12.3128  111.1208 N   0  0  0  0  0  0  0  0  0  0  0  0
   -2.9353   11.2842  110.8214 C   0  0  0  0  0  0  0  0  0  0  0  0
 37 38  2  0  0  0
 37 36  1  0  0  0
 38 39  1  0  0  0
 36 35  2  0  0  0
 39 34  2  0  0  0
 35 34  1  0  0  0
 34 33  1  0  0  0
 25 33  1  0  0  0
 25 24  2  0  0  0
 33 32  2  0  0  0
 22 24  1  0  0  0
 22  7  1  0  0  0
 24 26  1  0  0  0
 32 31  1  0  0  0
  6  5  1  0  0  0
  7  5  2  0  0  0
  7  2  1  0  0  0
  5  4  1  0  0  0
 26 31  1  0  0  0
 26 27  2  0  0  0
 31 30  2  0  0  0
  2  1  2  0  0  0
  4  3  2  0  0  0
 30 28  1  0  0  0
 27 28  1  0  0  0
  1  3  1  0  0  0
  1  9  1  0  0  0
 10  9  2  0  0  0
 18 19  1  0  0  0
 28 29  1  0  0  0
  9  8  1  0  0  0
  8 17  1  0  0  0
 13 17  2  0  0  0
 13 12  1  0  0  0
 19 20  1  0  0  0
 19 21  1  0  0  0
 19 12  1  0  0  0
 17 16  1  0  0  0
 12 14  2  0  0  0
 16 15  2  0  0  0
 14 15  1  0  0  0
  8 11  1  0  0  0
 22 23  1  0  0  0
M  END
> <minimizedAffinity>
-11.76583

$$$$
6FNJ_DWT_A_1001


 39 43  0  0  0  0  0  0  0  0999 V2000
   -0.3147    6.5760  110.1035 C   0  0  0  0  0  0  0  0  0  0  0  0
   -1.6419    6.9669  110.2821 C   0  0  0  0  0  0  0  0  0  0  0  0
   -0.0333    5.2035  110.0980 C   0  0  0  0  0  0  0  0  0  0  0  0
   -1.0675    4.2569  110.2538 C   0  0  0  0  0  0  0  0  0  0  0  0
   -2.3986    4.6625  110.4284 C   0  0  0  0  0  0  0  0  0  0  0  0
   -3.4574    3.7056  110.5837 C   0  0  0  0  0  0  0  0  0  0  0  0
   -2.6668    6.0370  110.4358 C   0  0  0  0  0  0  0  0  0  0  0  0
    0.2576    8.8786  110.1217 N   0  0  0  0  0  0  0  0  0  0  0  0
    0.6701    7.5861  109.9927 C   0  0  0  0  0  0  0  0  0  0  0  0
    1.8135    7.2522  109.6860 O   0  0  0  0  0  0  0  0  0  0  0  0
   -0.6802    9.0419  110.3730 H   0  0  0  0  0  0  0  0  0  0  0  0
    2.4126   11.5053  108.5196 C   0  0  0  0  0  0  0  0  0  0  0  0
    1.6145   10.3492  108.6760 C   0  0  0  0  0  0  0  0  0  0  0  0
    2.6420   12.2692  109.6630 C   0  0  0  0  0  0  0  0  0  0  0  0
    2.0985   11.9207  110.9048 C   0  0  0  0  0  0  0  0  0  0  0  0
    1.3028   10.7740  111.0305 C   0  0  0  0  0  0  0  0  0  0  0  0
    1.0710    9.9674  109.9224 C   0  0  0  0  0  0  0  0  0  0  0  0
    4.1505   12.3424  107.4320 F   0  0  0  0  0  0  0  0  0  0  0  0
    2.9828   11.8553  107.2373 C   0  0  0  0  0  0  0  0  0  0  0  0
    3.0190   10.8898  106.6660 F   0  0  0  0  0  0  0  0  0  0  0  0
    2.2763   12.6103  106.7583 F   0  0  0  0  0  0  0  0  0  0  0  0
   -3.9483    6.4102  110.6164 N   0  0  0  0  0  0  0  0  0  0  0  0
   -4.6274    5.9980  110.0350 H   0  0  0  0  0  0  0  0  0  0  0  0
   -4.3752    7.3084  111.5356 C   0  0  0  0  0  0  0  0  0  0  0  0
   -4.2481    8.5951  111.2190 N   0  0  0  0  0  0  0  0  0  0  0  0
   -4.9222    6.9619  112.7146 C   0  0  0  0  0  0  0  0  0  0  0  0
   -5.2124    5.8225  113.3385 C   0  0  0  0  0  0  0  0  0  0  0  0
   -5.7468    6.1278  114.5174 N   0  0  0  0  0  0  0  0  0  0  0  0
   -6.2137    5.1674  115.5417 C   0  0  0  0  0  0  0  0  0  0  0  0
   -5.7952    7.3602  114.6549 N   0  0  0  0  0  0  0  0  0  0  0  0
   -5.2985    7.9283  113.5593 C   0  0  0  0  0  0  0  0  0  0  0  0
   -5.1602    9.2231  113.2406 N   0  0  0  0  0  0  0  0  0  0  0  0
   -4.6300    9.5556  112.0635 C   0  0  0  0  0  0  0  0  0  0  0  0
   -4.4825   10.8885  111.7009 C   0  0  0  0  0  0  0  0  0  0  0  0
   -3.3353   11.3116  111.0308 C   0  0  0  0  0  0  0  0  0  0  0  0
   -3.2111   12.6623  110.6991 C   0  0  0  0  0  0  0  0  0  0  0  0
   -4.2066   13.5741  111.0541 C   0  0  0  0  0  0  0  0  0  0  0  0
   -5.3559   13.1517  111.7295 N   0  0  0  0  0  0  0  0  0  0  0  0
   -5.4684   11.8013  112.0614 C   0  0  0  0  0  0  0  0  0  0  0  0
 37 38  2  0  0  0
 37 36  1  0  0  0
 38 39  1  0  0  0
 36 35  2  0  0  0
 39 34  2  0  0  0
 35 34  1  0  0  0
 34 33  1  0  0  0
 25 33  1  0  0  0
 25 24  2  0  0  0
 33 32  2  0  0  0
 22 24  1  0  0  0
 22  7  1  0  0  0
 24 26  1  0  0  0
 32 31  1  0  0  0
  6  5  1  0  0  0
  7  5  2  0  0  0
  7  2  1  0  0  0
  5  4  1  0  0  0
 26 31  1  0  0  0
 26 27  2  0  0  0
 31 30  2  0  0  0
  2  1  2  0  0  0
  4  3  2  0  0  0
 30 28  1  0  0  0
 27 28  1  0  0  0
  1  3  1  0  0  0
  1  9  1  0  0  0
 10  9  2  0  0  0
 18 19  1  0  0  0
 28 29  1  0  0  0
  9  8  1  0  0  0
  8 17  1  0  0  0
 13 17  2  0  0  0
 13 12  1  0  0  0
 19 20  1  0  0  0
 19 21  1  0  0  0
 19 12  1  0  0  0
 17 16  1  0  0  0
 12 14  2  0  0  0
 16 15  2  0  0  0
 14 15  1  0  0  0
  8 11  1  0  0  0
 22 23  1  0  0  0
M  END
> <minimizedAffinity>
-11.35256

$$$$
6FNJ_DWT_A_1001


 39 43  0  0  0  0  0  0  0  0999 V2000
    0.7007    6.5910  109.8567 C   0  0  0  0  0  0  0  0  0  0  0  0
   -0.4143    6.9417  110.6182 C   0  0  0  0  0  0  0  0  0  0  0  0
    1.0971    5.2472  109.8596 C   0  0  0  0  0  0  0  0  0  0  0  0
    0.3764    4.2866  110.5996 C   0  0  0  0  0  0  0  0  0  0  0  0
   -0.7455    4.6510  111.3581 C   0  0  0  0  0  0  0  0  0  0  0  0
   -1.4867    3.6790  112.1110 C   0  0  0  0  0  0  0  0  0  0  0  0
   -1.1298    5.9977  111.3501 C   0  0  0  0  0  0  0  0  0  0  0  0
    1.0220    8.9037  109.4347 N   0  0  0  0  0  0  0  0  0  0  0  0
    1.3927    7.6186  109.1730 C   0  0  0  0  0  0  0  0  0  0  0  0
    2.2102    7.2962  108.3124 O   0  0  0  0  0  0  0  0  0  0  0  0
    0.3594    9.0581  110.1463 H   0  0  0  0  0  0  0  0  0  0  0  0
    1.7816   11.4440  106.7737 C   0  0  0  0  0  0  0  0  0  0  0  0
    1.2821   10.2805  107.4023 C   0  0  0  0  0  0  0  0  0  0  0  0
    2.5236   12.3172  107.5678 C   0  0  0  0  0  0  0  0  0  0  0  0
    2.7530   12.0661  108.9254 C   0  0  0  0  0  0  0  0  0  0  0  0
    2.2385   10.9093  109.5263 C   0  0  0  0  0  0  0  0  0  0  0  0
    1.5167    9.9967  108.7658 C   0  0  0  0  0  0  0  0  0  0  0  0
    2.6156   11.3871  104.7232 F   0  0  0  0  0  0  0  0  0  0  0  0
    1.5529   11.6938  105.3677 C   0  0  0  0  0  0  0  0  0  0  0  0
    0.6888   11.0311  105.0951 F   0  0  0  0  0  0  0  0  0  0  0  0
    1.2932   12.7988  105.2679 F   0  0  0  0  0  0  0  0  0  0  0  0
   -2.2020    6.3332  112.0930 N   0  0  0  0  0  0  0  0  0  0  0  0
   -2.1729    6.1209  113.0539 H   0  0  0  0  0  0  0  0  0  0  0  0
   -3.3168    6.9400  111.6211 C   0  0  0  0  0  0  0  0  0  0  0  0
   -3.3463    8.2695  111.6827 N   0  0  0  0  0  0  0  0  0  0  0  0
   -4.3585    6.2730  111.0926 C   0  0  0  0  0  0  0  0  0  0  0  0
   -4.6619    4.9979  110.8607 C   0  0  0  0  0  0  0  0  0  0  0  0
   -5.8725    4.9602  110.3116 N   0  0  0  0  0  0  0  0  0  0  0  0
   -6.6067    3.7451  109.8943 C   0  0  0  0  0  0  0  0  0  0  0  0
   -6.3241    6.1107  110.2007 N   0  0  0  0  0  0  0  0  0  0  0  0
   -5.4198    6.9673  110.6678 C   0  0  0  0  0  0  0  0  0  0  0  0
   -5.4494    8.3057  110.7401 N   0  0  0  0  0  0  0  0  0  0  0  0
   -4.4058    8.9579  111.2526 C   0  0  0  0  0  0  0  0  0  0  0  0
   -4.4030   10.3448  111.3322 C   0  0  0  0  0  0  0  0  0  0  0  0
   -5.5041   11.0208  111.8561 C   0  0  0  0  0  0  0  0  0  0  0  0
   -5.4756   12.4161  111.9028 C   0  0  0  0  0  0  0  0  0  0  0  0
   -4.3748   13.1197  111.4113 C   0  0  0  0  0  0  0  0  0  0  0  0
   -3.2713   12.4430  110.8821 N   0  0  0  0  0  0  0  0  0  0  0  0
   -3.3114   11.0493  110.8347 C   0  0  0  0  0  0  0  0  0  0  0  0
 37 38  2  0  0  0
 37 36  1  0  0  0
 38 39  1  0  0  0
 36 35  2  0  0  0
 39 34  2  0  0  0
 35 34  1  0  0  0
 34 33  1  0  0  0
 25 33  1  0  0  0
 25 24  2  0  0  0
 33 32  2  0  0  0
 22 24  1  0  0  0
 22  7  1  0  0  0
 24 26  1  0  0  0
 32 31  1  0  0  0
  6  5  1  0  0  0
  7  5  2  0  0  0
  7  2  1  0  0  0
  5  4  1  0  0  0
 26 31  1  0  0  0
 26 27  2  0  0  0
 31 30  2  0  0  0
  2  1  2  0  0  0
  4  3  2  0  0  0
 30 28  1  0  0  0
 27 28  1  0  0  0
  1  3  1  0  0  0
  1  9  1  0  0  0
 10  9  2  0  0  0
 18 19  1  0  0  0
 28 29  1  0  0  0
  9  8  1  0  0  0
  8 17  1  0  0  0
 13 17  2  0  0  0
 13 12  1  0  0  0
 19 20  1  0  0  0
 19 21  1  0  0  0
 19 12  1  0  0  0
 17 16  1  0  0  0
 12 14  2  0  0  0
 16 15  2  0  0  0
 14 15  1  0  0  0
  8 11  1  0  0  0
 22 23  1  0  0  0
M  END
> <minimizedAffinity>
-11.01838

$$$$
