1NL9_989_A_322


 43 45  0  0  0  0  0  0  0  0999 V2000
   37.1780   26.2326   19.9159 C   0  0  0  0  0  0  0  0  0  0  0  0
   36.6916   26.6762   18.6321 C   0  0  0  0  0  0  0  0  0  0  0  0
   35.9694   27.8691   18.4832 C   0  0  0  0  0  0  0  0  0  0  0  0
   35.6799   28.7071   19.5978 C   0  0  0  0  0  0  0  0  0  0  0  0
   36.1473   28.3044   20.9272 C   0  0  0  0  0  0  0  0  0  0  0  0
   36.8985   27.0596   21.0812 C   0  0  0  0  0  0  0  0  0  0  0  0
   37.3572   26.6719   22.3911 C   0  0  0  0  0  0  0  0  0  0  0  0
   37.0850   27.4820   23.5272 C   0  0  0  0  0  0  0  0  0  0  0  0
   36.3533   28.6939   23.3864 C   0  0  0  0  0  0  0  0  0  0  0  0
   35.8918   29.1024   22.1088 C   0  0  0  0  0  0  0  0  0  0  0  0
   39.3199   25.0384   19.8119 C   0  0  0  0  0  0  0  0  0  0  0  0
   40.0072   24.0240   19.8816 O   0  0  0  0  0  0  0  0  0  0  0  0
   37.9023   25.0110   19.9455 N   0  0  0  0  0  0  0  0  0  0  0  0
   37.1732   23.7678   20.1660 C   0  0  0  0  0  0  0  0  0  0  0  0
   36.3232   23.3152   19.0899 C   0  0  0  0  0  0  0  0  0  0  0  0
   35.5677   22.1291   19.1634 C   0  0  0  0  0  0  0  0  0  0  0  0
   35.6201   21.3306   20.3112 C   0  0  0  0  0  0  0  0  0  0  0  0
   36.4289   21.7203   21.3907 C   0  0  0  0  0  0  0  0  0  0  0  0
   37.2141   22.9146   21.3654 C   0  0  0  0  0  0  0  0  0  0  0  0
   38.0118   23.1702   22.5985 C   0  0  0  0  0  0  0  0  0  0  0  0
   37.5401   23.5924   23.6055 O   0  0  0  0  0  0  0  0  0  0  0  0
   39.3298   22.8833   22.5179 O   0  0  0  0  0  0  0  0  0  0  0  0
   39.6889   22.5511   21.7187 H   0  0  0  0  0  0  0  0  0  0  0  0
   40.3636   27.1433   20.6390 O   0  0  0  0  0  0  0  0  0  0  0  0
   40.0988   26.3649   19.5623 C   0  0  0  0  0  0  0  0  0  0  0  0
   40.4649   26.6620   18.4637 O   0  0  0  0  0  0  0  0  0  0  0  0
   40.0641   26.8855   21.4885 H   0  0  0  0  0  0  0  0  0  0  0  0
   34.8987   29.9904   19.3332 C   0  0  0  0  0  0  0  0  0  0  0  0
   33.6975   29.7524   18.3606 C   0  0  0  0  0  0  0  0  0  0  0  0
   33.2244   31.0560   17.8792 N   0  0  0  0  0  0  0  0  0  0  0  0
   32.8684   31.2347   16.5893 C   0  0  0  0  0  0  0  0  0  0  0  0
   32.8956   30.3681   15.7211 O   0  0  0  0  0  0  0  0  0  0  0  0
   32.4124   32.6495   16.2718 C   0  0  0  0  0  0  0  0  0  0  0  0
   33.1659   31.8121   18.5070 H   0  0  0  0  0  0  0  0  0  0  0  0
   32.5378   28.9310   18.9843 C   0  0  0  0  0  0  0  0  0  0  0  0
   31.7490   29.5134   19.7278 O   0  0  0  0  0  0  0  0  0  0  0  0
   32.4175   27.6079   18.6955 N   0  0  0  0  0  0  0  0  0  0  0  0
   33.0916   27.2195   18.0922 H   0  0  0  0  0  0  0  0  0  0  0  0
   31.3792   26.7074   19.1981 C   0  0  0  0  0  0  0  0  0  0  0  0
   31.9580   25.3994   19.7647 C   0  0  0  0  0  0  0  0  0  0  0  0
   33.4665   25.5040   20.0659 C   0  0  0  0  0  0  0  0  0  0  0  0
   33.7417   25.7989   21.5516 C   0  0  0  0  0  0  0  0  0  0  0  0
   34.2158   24.5663   22.3264 C   0  0  0  0  0  0  0  0  0  0  0  0
 24 25  1  0  0  0
 25 26  2  0  0  0
 25 11  1  0  0  0
 11 12  2  0  0  0
 11 13  1  0  0  0
 13 14  1  0  0  0
 13  1  1  0  0  0
 14 15  2  0  0  0
 14 19  1  0  0  0
 15 16  1  0  0  0
 16 17  2  0  0  0
 17 18  1  0  0  0
 18 19  2  0  0  0
 19 20  1  0  0  0
 20 21  2  0  0  0
 20 22  1  0  0  0
  1  2  2  0  0  0
  1  6  1  0  0  0
  2  3  1  0  0  0
  3  4  2  0  0  0
  4  5  1  0  0  0
  4 28  1  0  0  0
  5  6  2  0  0  0
  5 10  1  0  0  0
  6  7  1  0  0  0
  7  8  2  0  0  0
  8  9  1  0  0  0
  9 10  2  0  0  0
 28 29  1  0  0  0
 29 30  1  0  0  0
 29 35  1  0  0  0
 30 31  1  0  0  0
 31 32  2  0  0  0
 31 33  1  0  0  0
 35 36  2  0  0  0
 35 37  1  0  0  0
 37 39  1  0  0  0
 39 40  1  0  0  0
 40 41  1  0  0  0
 41 42  1  0  0  0
 42 43  1  0  0  0
 24 27  1  0  0  0
 22 23  1  0  0  0
 30 34  1  0  0  0
 37 38  1  0  0  0
M  END
> <minimizedAffinity>
-7.24409

$$$$
1NL9_989_A_322


 43 45  0  0  0  0  0  0  0  0999 V2000
   34.7109   27.9257   21.5179 C   0  0  0  0  0  0  0  0  0  0  0  0
   33.3579   28.3677   21.7538 C   0  0  0  0  0  0  0  0  0  0  0  0
   32.7623   29.3786   20.9857 C   0  0  0  0  0  0  0  0  0  0  0  0
   33.4669   30.0217   19.9281 C   0  0  0  0  0  0  0  0  0  0  0  0
   34.8462   29.6147   19.6454 C   0  0  0  0  0  0  0  0  0  0  0  0
   35.4664   28.5619   20.4482 C   0  0  0  0  0  0  0  0  0  0  0  0
   36.8219   28.1651   20.1622 C   0  0  0  0  0  0  0  0  0  0  0  0
   37.5571   28.7863   19.1158 C   0  0  0  0  0  0  0  0  0  0  0  0
   36.9616   29.8126   18.3310 C   0  0  0  0  0  0  0  0  0  0  0  0
   35.6278   30.2216   18.5876 C   0  0  0  0  0  0  0  0  0  0  0  0
   35.6677   27.2138   23.6632 C   0  0  0  0  0  0  0  0  0  0  0  0
   36.0592   26.3595   24.4526 O   0  0  0  0  0  0  0  0  0  0  0  0
   35.2076   26.8908   22.3547 N   0  0  0  0  0  0  0  0  0  0  0  0
   35.1809   25.5180   21.8645 C   0  0  0  0  0  0  0  0  0  0  0  0
   33.8878   24.8787   21.7971 C   0  0  0  0  0  0  0  0  0  0  0  0
   33.7135   23.5593   21.3370 C   0  0  0  0  0  0  0  0  0  0  0  0
   34.8170   22.8077   20.9185 C   0  0  0  0  0  0  0  0  0  0  0  0
   36.1000   23.3763   20.9621 C   0  0  0  0  0  0  0  0  0  0  0  0
   36.3296   24.7106   21.4207 C   0  0  0  0  0  0  0  0  0  0  0  0
   37.7545   25.1481   21.3978 C   0  0  0  0  0  0  0  0  0  0  0  0
   38.4478   25.0640   20.4350 O   0  0  0  0  0  0  0  0  0  0  0  0
   38.2305   25.6666   22.5512 O   0  0  0  0  0  0  0  0  0  0  0  0
   37.6739   25.7272   23.3025 H   0  0  0  0  0  0  0  0  0  0  0  0
   34.6944   29.0891   24.9823 O   0  0  0  0  0  0  0  0  0  0  0  0
   35.7098   28.6823   24.1831 C   0  0  0  0  0  0  0  0  0  0  0  0
   36.6196   29.4051   23.9018 O   0  0  0  0  0  0  0  0  0  0  0  0
   33.9940   28.5009   25.1860 H   0  0  0  0  0  0  0  0  0  0  0  0
   32.7299   31.1013   19.1416 C   0  0  0  0  0  0  0  0  0  0  0  0
   32.4046   30.6411   17.6829 C   0  0  0  0  0  0  0  0  0  0  0  0
   31.7652   31.7572   16.9755 N   0  0  0  0  0  0  0  0  0  0  0  0
   32.4206   32.4375   16.0111 C   0  0  0  0  0  0  0  0  0  0  0  0
   33.5654   32.2059   15.6352 O   0  0  0  0  0  0  0  0  0  0  0  0
   31.6054   33.5634   15.3961 C   0  0  0  0  0  0  0  0  0  0  0  0
   30.8436   32.0138   17.2082 H   0  0  0  0  0  0  0  0  0  0  0  0
   31.5341   29.3584   17.6086 C   0  0  0  0  0  0  0  0  0  0  0  0
   30.3618   29.4310   17.9757 O   0  0  0  0  0  0  0  0  0  0  0  0
   32.0758   28.2022   17.1416 N   0  0  0  0  0  0  0  0  0  0  0  0
   33.0214   28.2303   16.8692 H   0  0  0  0  0  0  0  0  0  0  0  0
   31.3839   26.9198   17.0061 C   0  0  0  0  0  0  0  0  0  0  0  0
   32.1692   25.7575   17.6380 C   0  0  0  0  0  0  0  0  0  0  0  0
   33.2896   26.2453   18.5782 C   0  0  0  0  0  0  0  0  0  0  0  0
   34.6716   25.7127   18.1579 C   0  0  0  0  0  0  0  0  0  0  0  0
   35.3364   26.5677   17.0756 C   0  0  0  0  0  0  0  0  0  0  0  0
 24 25  1  0  0  0
 25 26  2  0  0  0
 25 11  1  0  0  0
 11 12  2  0  0  0
 11 13  1  0  0  0
 13 14  1  0  0  0
 13  1  1  0  0  0
 14 15  2  0  0  0
 14 19  1  0  0  0
 15 16  1  0  0  0
 16 17  2  0  0  0
 17 18  1  0  0  0
 18 19  2  0  0  0
 19 20  1  0  0  0
 20 21  2  0  0  0
 20 22  1  0  0  0
  1  2  2  0  0  0
  1  6  1  0  0  0
  2  3  1  0  0  0
  3  4  2  0  0  0
  4  5  1  0  0  0
  4 28  1  0  0  0
  5  6  2  0  0  0
  5 10  1  0  0  0
  6  7  1  0  0  0
  7  8  2  0  0  0
  8  9  1  0  0  0
  9 10  2  0  0  0
 28 29  1  0  0  0
 29 30  1  0  0  0
 29 35  1  0  0  0
 30 31  1  0  0  0
 31 32  2  0  0  0
 31 33  1  0  0  0
 35 36  2  0  0  0
 35 37  1  0  0  0
 37 39  1  0  0  0
 39 40  1  0  0  0
 40 41  1  0  0  0
 41 42  1  0  0  0
 42 43  1  0  0  0
 24 27  1  0  0  0
 22 23  1  0  0  0
 30 34  1  0  0  0
 37 38  1  0  0  0
M  END
> <minimizedAffinity>
-7.08647

$$$$
1NL9_989_A_322


 43 45  0  0  0  0  0  0  0  0999 V2000
   34.6475   27.9948   21.4809 C   0  0  0  0  0  0  0  0  0  0  0  0
   33.3317   28.4939   21.7986 C   0  0  0  0  0  0  0  0  0  0  0  0
   32.7372   29.5359   21.0722 C   0  0  0  0  0  0  0  0  0  0  0  0
   33.4061   30.1556   19.9781 C   0  0  0  0  0  0  0  0  0  0  0  0
   34.7470   29.6906   19.6123 C   0  0  0  0  0  0  0  0  0  0  0  0
   35.3662   28.6054   20.3716 C   0  0  0  0  0  0  0  0  0  0  0  0
   36.6837   28.1517   20.0040 C   0  0  0  0  0  0  0  0  0  0  0  0
   37.3827   28.7480   18.9191 C   0  0  0  0  0  0  0  0  0  0  0  0
   36.7881   29.8055   18.1761 C   0  0  0  0  0  0  0  0  0  0  0  0
   35.4911   30.2707   18.5132 C   0  0  0  0  0  0  0  0  0  0  0  0
   35.6173   27.2134   23.5960 C   0  0  0  0  0  0  0  0  0  0  0  0
   36.0112   26.3337   24.3557 O   0  0  0  0  0  0  0  0  0  0  0  0
   35.1464   26.9327   22.2816 N   0  0  0  0  0  0  0  0  0  0  0  0
   35.1107   25.5758   21.7494 C   0  0  0  0  0  0  0  0  0  0  0  0
   33.8049   25.0072   21.5106 C   0  0  0  0  0  0  0  0  0  0  0  0
   33.6219   23.7106   20.9927 C   0  0  0  0  0  0  0  0  0  0  0  0
   34.7291   22.9128   20.6838 C   0  0  0  0  0  0  0  0  0  0  0  0
   36.0241   23.4119   20.8956 C   0  0  0  0  0  0  0  0  0  0  0  0
   36.2629   24.7205   21.4191 C   0  0  0  0  0  0  0  0  0  0  0  0
   37.7002   25.0830   21.5775 C   0  0  0  0  0  0  0  0  0  0  0  0
   38.4633   25.1397   20.6669 O   0  0  0  0  0  0  0  0  0  0  0  0
   38.1029   25.3598   22.8373 O   0  0  0  0  0  0  0  0  0  0  0  0
   37.4917   25.3114   23.5458 H   0  0  0  0  0  0  0  0  0  0  0  0
   34.6691   29.0456   24.9917 O   0  0  0  0  0  0  0  0  0  0  0  0
   35.6690   28.6650   24.1607 C   0  0  0  0  0  0  0  0  0  0  0  0
   36.5729   29.3970   23.8845 O   0  0  0  0  0  0  0  0  0  0  0  0
   33.9731   28.4506   25.1905 H   0  0  0  0  0  0  0  0  0  0  0  0
   32.6727   31.2725   19.2421 C   0  0  0  0  0  0  0  0  0  0  0  0
   32.2186   30.8294   17.8128 C   0  0  0  0  0  0  0  0  0  0  0  0
   31.8311   32.0265   17.0567 N   0  0  0  0  0  0  0  0  0  0  0  0
   32.5843   32.4762   16.0306 C   0  0  0  0  0  0  0  0  0  0  0  0
   33.6226   31.9565   15.6340 O   0  0  0  0  0  0  0  0  0  0  0  0
   32.0328   33.7301   15.3716 C   0  0  0  0  0  0  0  0  0  0  0  0
   31.0087   32.5090   17.3017 H   0  0  0  0  0  0  0  0  0  0  0  0
   31.0798   29.7748   17.8145 C   0  0  0  0  0  0  0  0  0  0  0  0
   31.0812   28.9183   16.9310 O   0  0  0  0  0  0  0  0  0  0  0  0
   30.1240   29.8164   18.7804 N   0  0  0  0  0  0  0  0  0  0  0  0
   30.1964   30.5350   19.4495 H   0  0  0  0  0  0  0  0  0  0  0  0
   28.9976   28.8924   18.9181 C   0  0  0  0  0  0  0  0  0  0  0  0
   27.9392   29.3984   19.9134 C   0  0  0  0  0  0  0  0  0  0  0  0
   28.5204   30.3958   20.9356 C   0  0  0  0  0  0  0  0  0  0  0  0
   27.5834   30.6041   22.1392 C   0  0  0  0  0  0  0  0  0  0  0  0
   26.4905   29.5361   22.2361 C   0  0  0  0  0  0  0  0  0  0  0  0
 24 25  1  0  0  0
 25 26  2  0  0  0
 25 11  1  0  0  0
 11 12  2  0  0  0
 11 13  1  0  0  0
 13 14  1  0  0  0
 13  1  1  0  0  0
 14 15  2  0  0  0
 14 19  1  0  0  0
 15 16  1  0  0  0
 16 17  2  0  0  0
 17 18  1  0  0  0
 18 19  2  0  0  0
 19 20  1  0  0  0
 20 21  2  0  0  0
 20 22  1  0  0  0
  1  2  2  0  0  0
  1  6  1  0  0  0
  2  3  1  0  0  0
  3  4  2  0  0  0
  4  5  1  0  0  0
  4 28  1  0  0  0
  5  6  2  0  0  0
  5 10  1  0  0  0
  6  7  1  0  0  0
  7  8  2  0  0  0
  8  9  1  0  0  0
  9 10  2  0  0  0
 28 29  1  0  0  0
 29 30  1  0  0  0
 29 35  1  0  0  0
 30 31  1  0  0  0
 31 32  2  0  0  0
 31 33  1  0  0  0
 35 36  2  0  0  0
 35 37  1  0  0  0
 37 39  1  0  0  0
 39 40  1  0  0  0
 40 41  1  0  0  0
 41 42  1  0  0  0
 42 43  1  0  0  0
 24 27  1  0  0  0
 22 23  1  0  0  0
 30 34  1  0  0  0
 37 38  1  0  0  0
M  END
> <minimizedAffinity>
-6.83109

$$$$
1NL9_989_A_322


 43 45  0  0  0  0  0  0  0  0999 V2000
   34.3471   27.7389   21.6490 C   0  0  0  0  0  0  0  0  0  0  0  0
   33.0051   27.8905   22.1563 C   0  0  0  0  0  0  0  0  0  0  0  0
   32.0930   28.7908   21.5867 C   0  0  0  0  0  0  0  0  0  0  0  0
   32.4479   29.6035   20.4723 C   0  0  0  0  0  0  0  0  0  0  0  0
   33.7998   29.4933   19.9170 C   0  0  0  0  0  0  0  0  0  0  0  0
   34.7501   28.5556   20.5130 C   0  0  0  0  0  0  0  0  0  0  0  0
   36.0764   28.4508   19.9595 C   0  0  0  0  0  0  0  0  0  0  0  0
   36.4670   29.2477   18.8489 C   0  0  0  0  0  0  0  0  0  0  0  0
   35.5490   30.1637   18.2640 C   0  0  0  0  0  0  0  0  0  0  0  0
   34.2356   30.2861   18.7857 C   0  0  0  0  0  0  0  0  0  0  0  0
   35.8540   27.1670   23.5002 C   0  0  0  0  0  0  0  0  0  0  0  0
   36.5464   26.3807   24.1393 O   0  0  0  0  0  0  0  0  0  0  0  0
   35.1816   26.7927   22.3019 N   0  0  0  0  0  0  0  0  0  0  0  0
   35.2812   25.4465   21.7509 C   0  0  0  0  0  0  0  0  0  0  0  0
   34.0973   24.6236   21.8318 C   0  0  0  0  0  0  0  0  0  0  0  0
   34.0493   23.3073   21.3340 C   0  0  0  0  0  0  0  0  0  0  0  0
   35.1765   22.7418   20.7280 C   0  0  0  0  0  0  0  0  0  0  0  0
   36.3572   23.4940   20.6214 C   0  0  0  0  0  0  0  0  0  0  0  0
   36.4571   24.8334   21.1109 C   0  0  0  0  0  0  0  0  0  0  0  0
   37.7858   25.4793   20.9119 C   0  0  0  0  0  0  0  0  0  0  0  0
   38.2181   25.7672   19.8419 O   0  0  0  0  0  0  0  0  0  0  0  0
   38.4903   25.7366   22.0359 O   0  0  0  0  0  0  0  0  0  0  0  0
   38.1384   25.5047   22.8728 H   0  0  0  0  0  0  0  0  0  0  0  0
   34.7275   28.8769   24.9184 O   0  0  0  0  0  0  0  0  0  0  0  0
   35.7594   28.6095   24.0823 C   0  0  0  0  0  0  0  0  0  0  0  0
   36.5841   29.4326   23.8147 O   0  0  0  0  0  0  0  0  0  0  0  0
   34.0956   28.2122   25.1104 H   0  0  0  0  0  0  0  0  0  0  0  0
   31.3831   30.5433   19.9152 C   0  0  0  0  0  0  0  0  0  0  0  0
   30.1947   29.7601   19.2675 C   0  0  0  0  0  0  0  0  0  0  0  0
   29.2228   29.4377   20.3193 N   0  0  0  0  0  0  0  0  0  0  0  0
   27.8952   29.4841   20.0788 C   0  0  0  0  0  0  0  0  0  0  0  0
   27.3805   29.7819   19.0056 O   0  0  0  0  0  0  0  0  0  0  0  0
   27.0429   29.1273   21.2858 C   0  0  0  0  0  0  0  0  0  0  0  0
   29.5442   29.1837   21.2145 H   0  0  0  0  0  0  0  0  0  0  0  0
   30.6290   28.4852   18.4962 C   0  0  0  0  0  0  0  0  0  0  0  0
   31.1579   28.6261   17.3941 O   0  0  0  0  0  0  0  0  0  0  0  0
   30.4240   27.2602   19.0491 N   0  0  0  0  0  0  0  0  0  0  0  0
   29.9937   27.2363   19.9342 H   0  0  0  0  0  0  0  0  0  0  0  0
   30.7833   25.9739   18.4507 C   0  0  0  0  0  0  0  0  0  0  0  0
   32.1292   25.4389   18.9694 C   0  0  0  0  0  0  0  0  0  0  0  0
   33.3351   26.1149   18.2867 C   0  0  0  0  0  0  0  0  0  0  0  0
   34.4493   25.1078   17.9487 C   0  0  0  0  0  0  0  0  0  0  0  0
   35.7031   25.7751   17.3770 C   0  0  0  0  0  0  0  0  0  0  0  0
 24 25  1  0  0  0
 25 26  2  0  0  0
 25 11  1  0  0  0
 11 12  2  0  0  0
 11 13  1  0  0  0
 13 14  1  0  0  0
 13  1  1  0  0  0
 14 15  2  0  0  0
 14 19  1  0  0  0
 15 16  1  0  0  0
 16 17  2  0  0  0
 17 18  1  0  0  0
 18 19  2  0  0  0
 19 20  1  0  0  0
 20 21  2  0  0  0
 20 22  1  0  0  0
  1  2  2  0  0  0
  1  6  1  0  0  0
  2  3  1  0  0  0
  3  4  2  0  0  0
  4  5  1  0  0  0
  4 28  1  0  0  0
  5  6  2  0  0  0
  5 10  1  0  0  0
  6  7  1  0  0  0
  7  8  2  0  0  0
  8  9  1  0  0  0
  9 10  2  0  0  0
 28 29  1  0  0  0
 29 30  1  0  0  0
 29 35  1  0  0  0
 30 31  1  0  0  0
 31 32  2  0  0  0
 31 33  1  0  0  0
 35 36  2  0  0  0
 35 37  1  0  0  0
 37 39  1  0  0  0
 39 40  1  0  0  0
 40 41  1  0  0  0
 41 42  1  0  0  0
 42 43  1  0  0  0
 24 27  1  0  0  0
 22 23  1  0  0  0
 30 34  1  0  0  0
 37 38  1  0  0  0
M  END
> <minimizedAffinity>
-6.72372

$$$$
1NL9_989_A_322


 43 45  0  0  0  0  0  0  0  0999 V2000
   35.5029   23.9915   21.2425 C   0  0  0  0  0  0  0  0  0  0  0  0
   34.1800   24.2124   21.7742 C   0  0  0  0  0  0  0  0  0  0  0  0
   33.0325   24.1188   20.9735 C   0  0  0  0  0  0  0  0  0  0  0  0
   33.1165   23.7981   19.5884 C   0  0  0  0  0  0  0  0  0  0  0  0
   34.4358   23.5661   18.9936 C   0  0  0  0  0  0  0  0  0  0  0  0
   35.6313   23.6658   19.8293 C   0  0  0  0  0  0  0  0  0  0  0  0
   36.9247   23.4334   19.2379 C   0  0  0  0  0  0  0  0  0  0  0  0
   37.0476   23.1134   17.8581 C   0  0  0  0  0  0  0  0  0  0  0  0
   35.8895   23.0160   17.0376 C   0  0  0  0  0  0  0  0  0  0  0  0
   34.6030   23.2365   17.5930 C   0  0  0  0  0  0  0  0  0  0  0  0
   37.1925   22.9265   22.6693 C   0  0  0  0  0  0  0  0  0  0  0  0
   38.1677   22.9581   23.4137 O   0  0  0  0  0  0  0  0  0  0  0  0
   36.5909   24.1076   22.1483 N   0  0  0  0  0  0  0  0  0  0  0  0
   37.0932   25.4367   22.4755 C   0  0  0  0  0  0  0  0  0  0  0  0
   36.5324   26.0719   23.6449 C   0  0  0  0  0  0  0  0  0  0  0  0
   36.9294   27.3505   24.0812 C   0  0  0  0  0  0  0  0  0  0  0  0
   37.9065   28.0631   23.3775 C   0  0  0  0  0  0  0  0  0  0  0  0
   38.4875   27.4964   22.2318 C   0  0  0  0  0  0  0  0  0  0  0  0
   38.1190   26.2026   21.7481 C   0  0  0  0  0  0  0  0  0  0  0  0
   38.8390   25.7609   20.5198 C   0  0  0  0  0  0  0  0  0  0  0  0
   39.5780   24.8292   20.4957 O   0  0  0  0  0  0  0  0  0  0  0  0
   38.5986   26.4836   19.4036 O   0  0  0  0  0  0  0  0  0  0  0  0
   38.0143   27.2153   19.4361 H   0  0  0  0  0  0  0  0  0  0  0  0
   37.3235   20.7843   21.4052 O   0  0  0  0  0  0  0  0  0  0  0  0
   36.6478   21.5061   22.3313 C   0  0  0  0  0  0  0  0  0  0  0  0
   35.6853   21.0708   22.8912 O   0  0  0  0  0  0  0  0  0  0  0  0
   38.0748   21.1511   20.9822 H   0  0  0  0  0  0  0  0  0  0  0  0
   31.8116   23.7075   18.8033 C   0  0  0  0  0  0  0  0  0  0  0  0
   30.8556   24.9037   19.1205 C   0  0  0  0  0  0  0  0  0  0  0  0
   29.7022   24.8290   18.2154 N   0  0  0  0  0  0  0  0  0  0  0  0
   28.4954   24.4162   18.6578 C   0  0  0  0  0  0  0  0  0  0  0  0
   28.2416   24.0788   19.8098 O   0  0  0  0  0  0  0  0  0  0  0  0
   27.4240   24.3953   17.5798 C   0  0  0  0  0  0  0  0  0  0  0  0
   29.8105   25.0841   17.2707 H   0  0  0  0  0  0  0  0  0  0  0  0
   31.5413   26.2937   19.0406 C   0  0  0  0  0  0  0  0  0  0  0  0
   32.2085   26.5547   18.0401 O   0  0  0  0  0  0  0  0  0  0  0  0
   31.3876   27.1807   20.0594 N   0  0  0  0  0  0  0  0  0  0  0  0
   30.8382   26.8920   20.8236 H   0  0  0  0  0  0  0  0  0  0  0  0
   31.9628   28.5248   20.1257 C   0  0  0  0  0  0  0  0  0  0  0  0
   32.6644   28.7994   21.4670 C   0  0  0  0  0  0  0  0  0  0  0  0
   33.8577   27.8544   21.7126 C   0  0  0  0  0  0  0  0  0  0  0  0
   35.0807   28.2308   20.8567 C   0  0  0  0  0  0  0  0  0  0  0  0
   35.2689   27.3100   19.6480 C   0  0  0  0  0  0  0  0  0  0  0  0
 24 25  1  0  0  0
 25 26  2  0  0  0
 25 11  1  0  0  0
 11 12  2  0  0  0
 11 13  1  0  0  0
 13 14  1  0  0  0
 13  1  1  0  0  0
 14 15  2  0  0  0
 14 19  1  0  0  0
 15 16  1  0  0  0
 16 17  2  0  0  0
 17 18  1  0  0  0
 18 19  2  0  0  0
 19 20  1  0  0  0
 20 21  2  0  0  0
 20 22  1  0  0  0
  1  2  2  0  0  0
  1  6  1  0  0  0
  2  3  1  0  0  0
  3  4  2  0  0  0
  4  5  1  0  0  0
  4 28  1  0  0  0
  5  6  2  0  0  0
  5 10  1  0  0  0
  6  7  1  0  0  0
  7  8  2  0  0  0
  8  9  1  0  0  0
  9 10  2  0  0  0
 28 29  1  0  0  0
 29 30  1  0  0  0
 29 35  1  0  0  0
 30 31  1  0  0  0
 31 32  2  0  0  0
 31 33  1  0  0  0
 35 36  2  0  0  0
 35 37  1  0  0  0
 37 39  1  0  0  0
 39 40  1  0  0  0
 40 41  1  0  0  0
 41 42  1  0  0  0
 42 43  1  0  0  0
 24 27  1  0  0  0
 22 23  1  0  0  0
 30 34  1  0  0  0
 37 38  1  0  0  0
M  END
> <minimizedAffinity>
-6.54485

$$$$
1NL9_989_A_322


 43 45  0  0  0  0  0  0  0  0999 V2000
   35.6236   25.1331   20.6773 C   0  0  0  0  0  0  0  0  0  0  0  0
   34.5251   25.2882   19.7549 C   0  0  0  0  0  0  0  0  0  0  0  0
   33.5195   26.2458   19.9517 C   0  0  0  0  0  0  0  0  0  0  0  0
   33.5337   27.1182   21.0774 C   0  0  0  0  0  0  0  0  0  0  0  0
   34.6249   27.0034   22.0491 C   0  0  0  0  0  0  0  0  0  0  0  0
   35.6715   26.0035   21.8435 C   0  0  0  0  0  0  0  0  0  0  0  0
   36.7427   25.8987   22.8017 C   0  0  0  0  0  0  0  0  0  0  0  0
   36.7885   26.7510   23.9386 C   0  0  0  0  0  0  0  0  0  0  0  0
   35.7733   27.7255   24.1470 C   0  0  0  0  0  0  0  0  0  0  0  0
   34.7083   27.8536   23.2188 C   0  0  0  0  0  0  0  0  0  0  0  0
   37.7815   24.5028   19.6919 C   0  0  0  0  0  0  0  0  0  0  0  0
   38.6746   23.6975   19.4469 O   0  0  0  0  0  0  0  0  0  0  0  0
   36.5864   24.1339   20.3731 N   0  0  0  0  0  0  0  0  0  0  0  0
   36.3434   22.7666   20.8170 C   0  0  0  0  0  0  0  0  0  0  0  0
   35.4333   21.9783   20.0198 C   0  0  0  0  0  0  0  0  0  0  0  0
   35.1128   20.6420   20.3274 C   0  0  0  0  0  0  0  0  0  0  0  0
   35.6827   20.0200   21.4437 C   0  0  0  0  0  0  0  0  0  0  0  0
   36.5746   20.7371   22.2570 C   0  0  0  0  0  0  0  0  0  0  0  0
   36.9319   22.0948   21.9877 C   0  0  0  0  0  0  0  0  0  0  0  0
   37.8917   22.6975   22.9561 C   0  0  0  0  0  0  0  0  0  0  0  0
   37.6327   22.8836   24.1020 O   0  0  0  0  0  0  0  0  0  0  0  0
   39.1051   23.0228   22.4584 O   0  0  0  0  0  0  0  0  0  0  0  0
   39.2964   22.8710   21.5538 H   0  0  0  0  0  0  0  0  0  0  0  0
   37.6596   26.2695   17.9404 O   0  0  0  0  0  0  0  0  0  0  0  0
   38.0360   25.9610   19.2047 C   0  0  0  0  0  0  0  0  0  0  0  0
   38.5220   26.7738   19.9344 O   0  0  0  0  0  0  0  0  0  0  0  0
   37.2812   25.6119   17.3906 H   0  0  0  0  0  0  0  0  0  0  0  0
   32.4026   28.1348   21.1981 C   0  0  0  0  0  0  0  0  0  0  0  0
   32.1428   28.8815   19.8489 C   0  0  0  0  0  0  0  0  0  0  0  0
   33.3644   29.6050   19.4759 N   0  0  0  0  0  0  0  0  0  0  0  0
   33.9155   29.4568   18.2525 C   0  0  0  0  0  0  0  0  0  0  0  0
   33.4748   28.7393   17.3601 O   0  0  0  0  0  0  0  0  0  0  0  0
   35.1793   30.2764   18.0483 C   0  0  0  0  0  0  0  0  0  0  0  0
   33.7885   30.2081   20.1283 H   0  0  0  0  0  0  0  0  0  0  0  0
   30.9168   29.8326   19.8836 C   0  0  0  0  0  0  0  0  0  0  0  0
   31.0445   30.9610   19.4096 O   0  0  0  0  0  0  0  0  0  0  0  0
   29.7454   29.4029   20.4234 N   0  0  0  0  0  0  0  0  0  0  0  0
   29.7286   28.4860   20.7816 H   0  0  0  0  0  0  0  0  0  0  0  0
   28.5070   30.1765   20.5216 C   0  0  0  0  0  0  0  0  0  0  0  0
   27.6091   29.7060   21.6789 C   0  0  0  0  0  0  0  0  0  0  0  0
   26.2239   29.2322   21.1953 C   0  0  0  0  0  0  0  0  0  0  0  0
   25.1302   29.4637   22.2538 C   0  0  0  0  0  0  0  0  0  0  0  0
   25.5829   30.3890   23.3866 C   0  0  0  0  0  0  0  0  0  0  0  0
 24 25  1  0  0  0
 25 26  2  0  0  0
 25 11  1  0  0  0
 11 12  2  0  0  0
 11 13  1  0  0  0
 13 14  1  0  0  0
 13  1  1  0  0  0
 14 15  2  0  0  0
 14 19  1  0  0  0
 15 16  1  0  0  0
 16 17  2  0  0  0
 17 18  1  0  0  0
 18 19  2  0  0  0
 19 20  1  0  0  0
 20 21  2  0  0  0
 20 22  1  0  0  0
  1  2  2  0  0  0
  1  6  1  0  0  0
  2  3  1  0  0  0
  3  4  2  0  0  0
  4  5  1  0  0  0
  4 28  1  0  0  0
  5  6  2  0  0  0
  5 10  1  0  0  0
  6  7  1  0  0  0
  7  8  2  0  0  0
  8  9  1  0  0  0
  9 10  2  0  0  0
 28 29  1  0  0  0
 29 30  1  0  0  0
 29 35  1  0  0  0
 30 31  1  0  0  0
 31 32  2  0  0  0
 31 33  1  0  0  0
 35 36  2  0  0  0
 35 37  1  0  0  0
 37 39  1  0  0  0
 39 40  1  0  0  0
 40 41  1  0  0  0
 41 42  1  0  0  0
 42 43  1  0  0  0
 24 27  1  0  0  0
 22 23  1  0  0  0
 30 34  1  0  0  0
 37 38  1  0  0  0
M  END
> <minimizedAffinity>
-6.54016

$$$$
1NL9_989_A_322


 43 45  0  0  0  0  0  0  0  0999 V2000
   36.8196   26.0839   20.3886 C   0  0  0  0  0  0  0  0  0  0  0  0
   36.3117   26.6847   19.1792 C   0  0  0  0  0  0  0  0  0  0  0  0
   35.5367   27.8533   19.1991 C   0  0  0  0  0  0  0  0  0  0  0  0
   35.2119   28.5094   20.4208 C   0  0  0  0  0  0  0  0  0  0  0  0
   35.6991   27.9417   21.6811 C   0  0  0  0  0  0  0  0  0  0  0  0
   36.5054   26.7223   21.6589 C   0  0  0  0  0  0  0  0  0  0  0  0
   36.9833   26.1718   22.9020 C   0  0  0  0  0  0  0  0  0  0  0  0
   36.6771   26.7980   24.1410 C   0  0  0  0  0  0  0  0  0  0  0  0
   35.8918   27.9838   24.1717 C   0  0  0  0  0  0  0  0  0  0  0  0
   35.4104   28.5502   22.9635 C   0  0  0  0  0  0  0  0  0  0  0  0
   38.9864   25.0169   19.9512 C   0  0  0  0  0  0  0  0  0  0  0  0
   39.7230   24.0389   19.8679 O   0  0  0  0  0  0  0  0  0  0  0  0
   37.5977   24.9040   20.2464 N   0  0  0  0  0  0  0  0  0  0  0  0
   36.9583   23.6113   20.4607 C   0  0  0  0  0  0  0  0  0  0  0  0
   35.9862   23.1978   19.4762 C   0  0  0  0  0  0  0  0  0  0  0  0
   35.2979   21.9718   19.5538 C   0  0  0  0  0  0  0  0  0  0  0  0
   35.5424   21.0925   20.6143 C   0  0  0  0  0  0  0  0  0  0  0  0
   36.4769   21.4410   21.6025 C   0  0  0  0  0  0  0  0  0  0  0  0
   37.2010   22.6731   21.5693 C   0  0  0  0  0  0  0  0  0  0  0  0
   38.1515   22.8758   22.6998 C   0  0  0  0  0  0  0  0  0  0  0  0
   37.8017   23.0790   23.8183 O   0  0  0  0  0  0  0  0  0  0  0  0
   39.4639   22.8072   22.3858 O   0  0  0  0  0  0  0  0  0  0  0  0
   39.7262   22.6466   21.5007 H   0  0  0  0  0  0  0  0  0  0  0  0
   40.1277   27.0642   20.7940 O   0  0  0  0  0  0  0  0  0  0  0  0
   39.6678   26.3972   19.7082 C   0  0  0  0  0  0  0  0  0  0  0  0
   39.7965   26.8295   18.6010 O   0  0  0  0  0  0  0  0  0  0  0  0
   40.0128   26.7012   21.6501 H   0  0  0  0  0  0  0  0  0  0  0  0
   34.3738   29.7814   20.3390 C   0  0  0  0  0  0  0  0  0  0  0  0
   33.0972   29.5834   19.4579 C   0  0  0  0  0  0  0  0  0  0  0  0
   33.0267   30.6835   18.4885 N   0  0  0  0  0  0  0  0  0  0  0  0
   33.1442   30.4528   17.1635 C   0  0  0  0  0  0  0  0  0  0  0  0
   33.3103   29.3514   16.6490 O   0  0  0  0  0  0  0  0  0  0  0  0
   33.0545   31.7103   16.3142 C   0  0  0  0  0  0  0  0  0  0  0  0
   32.8916   31.6042   18.8097 H   0  0  0  0  0  0  0  0  0  0  0  0
   31.7820   29.4709   20.2743 C   0  0  0  0  0  0  0  0  0  0  0  0
   31.7608   28.7050   21.2372 O   0  0  0  0  0  0  0  0  0  0  0  0
   30.7010   30.2137   19.9166 N   0  0  0  0  0  0  0  0  0  0  0  0
   30.8022   30.8007   19.1328 H   0  0  0  0  0  0  0  0  0  0  0  0
   29.4008   30.2217   20.5883 C   0  0  0  0  0  0  0  0  0  0  0  0
   28.3424   29.4002   19.8321 C   0  0  0  0  0  0  0  0  0  0  0  0
   27.0622   29.1806   20.6629 C   0  0  0  0  0  0  0  0  0  0  0  0
   25.9546   30.1853   20.2971 C   0  0  0  0  0  0  0  0  0  0  0  0
   24.7870   30.1726   21.2876 C   0  0  0  0  0  0  0  0  0  0  0  0
 24 25  1  0  0  0
 25 26  2  0  0  0
 25 11  1  0  0  0
 11 12  2  0  0  0
 11 13  1  0  0  0
 13 14  1  0  0  0
 13  1  1  0  0  0
 14 15  2  0  0  0
 14 19  1  0  0  0
 15 16  1  0  0  0
 16 17  2  0  0  0
 17 18  1  0  0  0
 18 19  2  0  0  0
 19 20  1  0  0  0
 20 21  2  0  0  0
 20 22  1  0  0  0
  1  2  2  0  0  0
  1  6  1  0  0  0
  2  3  1  0  0  0
  3  4  2  0  0  0
  4  5  1  0  0  0
  4 28  1  0  0  0
  5  6  2  0  0  0
  5 10  1  0  0  0
  6  7  1  0  0  0
  7  8  2  0  0  0
  8  9  1  0  0  0
  9 10  2  0  0  0
 28 29  1  0  0  0
 29 30  1  0  0  0
 29 35  1  0  0  0
 30 31  1  0  0  0
 31 32  2  0  0  0
 31 33  1  0  0  0
 35 36  2  0  0  0
 35 37  1  0  0  0
 37 39  1  0  0  0
 39 40  1  0  0  0
 40 41  1  0  0  0
 41 42  1  0  0  0
 42 43  1  0  0  0
 24 27  1  0  0  0
 22 23  1  0  0  0
 30 34  1  0  0  0
 37 38  1  0  0  0
M  END
> <minimizedAffinity>
-6.44934

$$$$
1NL9_989_A_322


 43 45  0  0  0  0  0  0  0  0999 V2000
   36.2298   27.4014   21.0036 C   0  0  0  0  0  0  0  0  0  0  0  0
   37.2916   27.6265   20.0531 C   0  0  0  0  0  0  0  0  0  0  0  0
   37.1908   28.5931   19.0420 C   0  0  0  0  0  0  0  0  0  0  0  0
   36.0295   29.4059   18.9035 C   0  0  0  0  0  0  0  0  0  0  0  0
   34.9178   29.2187   19.8401 C   0  0  0  0  0  0  0  0  0  0  0  0
   35.0236   28.2093   20.8925 C   0  0  0  0  0  0  0  0  0  0  0  0
   33.9276   28.0332   21.8115 C   0  0  0  0  0  0  0  0  0  0  0  0
   32.7517   28.8247   21.7024 C   0  0  0  0  0  0  0  0  0  0  0  0
   32.6400   29.8079   20.6803 C   0  0  0  0  0  0  0  0  0  0  0  0
   33.7041   30.0056   19.7634 C   0  0  0  0  0  0  0  0  0  0  0  0
   37.0607   26.7561   23.2213 C   0  0  0  0  0  0  0  0  0  0  0  0
   37.2267   25.9494   24.1310 O   0  0  0  0  0  0  0  0  0  0  0  0
   36.4450   26.3997   21.9875 N   0  0  0  0  0  0  0  0  0  0  0  0
   35.9785   25.0439   21.7227 C   0  0  0  0  0  0  0  0  0  0  0  0
   34.7293   24.6570   22.3350 C   0  0  0  0  0  0  0  0  0  0  0  0
   34.1576   23.3822   22.1592 C   0  0  0  0  0  0  0  0  0  0  0  0
   34.7987   22.4263   21.3635 C   0  0  0  0  0  0  0  0  0  0  0  0
   36.0170   22.7452   20.7429 C   0  0  0  0  0  0  0  0  0  0  0  0
   36.6382   24.0243   20.8901 C   0  0  0  0  0  0  0  0  0  0  0  0
   37.9276   24.1861   20.1597 C   0  0  0  0  0  0  0  0  0  0  0  0
   38.0090   24.1970   18.9731 O   0  0  0  0  0  0  0  0  0  0  0  0
   39.0275   24.3323   20.9310 O   0  0  0  0  0  0  0  0  0  0  0  0
   38.9498   24.3219   21.8647 H   0  0  0  0  0  0  0  0  0  0  0  0
   36.6448   29.1442   23.7944 O   0  0  0  0  0  0  0  0  0  0  0  0
   37.5722   28.2016   23.4998 C   0  0  0  0  0  0  0  0  0  0  0  0
   38.7409   28.4521   23.4763 O   0  0  0  0  0  0  0  0  0  0  0  0
   35.7353   28.9192   23.8055 H   0  0  0  0  0  0  0  0  0  0  0  0
   36.0189   30.4379   17.7801 C   0  0  0  0  0  0  0  0  0  0  0  0
   36.0859   29.7659   16.3697 C   0  0  0  0  0  0  0  0  0  0  0  0
   35.8903   30.8043   15.3507 N   0  0  0  0  0  0  0  0  0  0  0  0
   36.9381   31.4862   14.8412 C   0  0  0  0  0  0  0  0  0  0  0  0
   38.1121   31.3180   15.1555 O   0  0  0  0  0  0  0  0  0  0  0  0
   36.5444   32.5263   13.8050 C   0  0  0  0  0  0  0  0  0  0  0  0
   34.9804   31.0066   15.0337 H   0  0  0  0  0  0  0  0  0  0  0  0
   35.0794   28.5995   16.1814 C   0  0  0  0  0  0  0  0  0  0  0  0
   33.8846   28.8754   16.0782 O   0  0  0  0  0  0  0  0  0  0  0  0
   35.5334   27.3191   16.1299 N   0  0  0  0  0  0  0  0  0  0  0  0
   36.5045   27.1857   16.2216 H   0  0  0  0  0  0  0  0  0  0  0  0
   34.7127   26.1207   15.9508 C   0  0  0  0  0  0  0  0  0  0  0  0
   34.8348   25.1418   17.1314 C   0  0  0  0  0  0  0  0  0  0  0  0
   34.2324   25.7091   18.4323 C   0  0  0  0  0  0  0  0  0  0  0  0
   33.1038   24.8194   18.9845 C   0  0  0  0  0  0  0  0  0  0  0  0
   32.0818   25.5997   19.8158 C   0  0  0  0  0  0  0  0  0  0  0  0
 24 25  1  0  0  0
 25 26  2  0  0  0
 25 11  1  0  0  0
 11 12  2  0  0  0
 11 13  1  0  0  0
 13 14  1  0  0  0
 13  1  1  0  0  0
 14 15  2  0  0  0
 14 19  1  0  0  0
 15 16  1  0  0  0
 16 17  2  0  0  0
 17 18  1  0  0  0
 18 19  2  0  0  0
 19 20  1  0  0  0
 20 21  2  0  0  0
 20 22  1  0  0  0
  1  2  2  0  0  0
  1  6  1  0  0  0
  2  3  1  0  0  0
  3  4  2  0  0  0
  4  5  1  0  0  0
  4 28  1  0  0  0
  5  6  2  0  0  0
  5 10  1  0  0  0
  6  7  1  0  0  0
  7  8  2  0  0  0
  8  9  1  0  0  0
  9 10  2  0  0  0
 28 29  1  0  0  0
 29 30  1  0  0  0
 29 35  1  0  0  0
 30 31  1  0  0  0
 31 32  2  0  0  0
 31 33  1  0  0  0
 35 36  2  0  0  0
 35 37  1  0  0  0
 37 39  1  0  0  0
 39 40  1  0  0  0
 40 41  1  0  0  0
 41 42  1  0  0  0
 42 43  1  0  0  0
 24 27  1  0  0  0
 22 23  1  0  0  0
 30 34  1  0  0  0
 37 38  1  0  0  0
M  END
> <minimizedAffinity>
-6.25609

$$$$
1NL9_989_A_322


 43 45  0  0  0  0  0  0  0  0999 V2000
   35.5229   26.5538   21.4087 C   0  0  0  0  0  0  0  0  0  0  0  0
   34.1556   26.7360   21.8314 C   0  0  0  0  0  0  0  0  0  0  0  0
   33.4197   27.8807   21.4926 C   0  0  0  0  0  0  0  0  0  0  0  0
   33.9883   28.9252   20.7090 C   0  0  0  0  0  0  0  0  0  0  0  0
   35.3754   28.7948   20.2539 C   0  0  0  0  0  0  0  0  0  0  0  0
   36.1419   27.6017   20.6095 C   0  0  0  0  0  0  0  0  0  0  0  0
   37.5042   27.4794   20.1559 C   0  0  0  0  0  0  0  0  0  0  0  0
   38.1059   28.5029   19.3739 C   0  0  0  0  0  0  0  0  0  0  0  0
   37.3676   29.6678   19.0249 C   0  0  0  0  0  0  0  0  0  0  0  0
   36.0238   29.8141   19.4547 C   0  0  0  0  0  0  0  0  0  0  0  0
   36.8321   25.3021   23.0651 C   0  0  0  0  0  0  0  0  0  0  0  0
   37.3622   24.2797   23.4892 O   0  0  0  0  0  0  0  0  0  0  0  0
   36.1675   25.3521   21.8065 N   0  0  0  0  0  0  0  0  0  0  0  0
   36.0823   24.1875   20.9336 C   0  0  0  0  0  0  0  0  0  0  0  0
   34.7715   23.6100   20.7492 C   0  0  0  0  0  0  0  0  0  0  0  0
   34.5418   22.4889   19.9288 C   0  0  0  0  0  0  0  0  0  0  0  0
   35.6043   21.8849   19.2476 C   0  0  0  0  0  0  0  0  0  0  0  0
   36.9019   22.4020   19.3889 C   0  0  0  0  0  0  0  0  0  0  0  0
   37.1872   23.5372   20.2094 C   0  0  0  0  0  0  0  0  0  0  0  0
   38.6200   23.9476   20.2407 C   0  0  0  0  0  0  0  0  0  0  0  0
   39.1373   24.5791   19.3756 O   0  0  0  0  0  0  0  0  0  0  0  0
   39.3190   23.5651   21.3320 O   0  0  0  0  0  0  0  0  0  0  0  0
   38.8996   23.0679   22.0065 H   0  0  0  0  0  0  0  0  0  0  0  0
   38.0359   27.3306   23.8653 O   0  0  0  0  0  0  0  0  0  0  0  0
   36.9359   26.5501   23.9927 C   0  0  0  0  0  0  0  0  0  0  0  0
   36.0620   26.8128   24.7650 O   0  0  0  0  0  0  0  0  0  0  0  0
   38.7053   27.1002   23.2515 H   0  0  0  0  0  0  0  0  0  0  0  0
   33.1045   30.1250   20.3821 C   0  0  0  0  0  0  0  0  0  0  0  0
   32.2546   29.8890   19.0908 C   0  0  0  0  0  0  0  0  0  0  0  0
   32.2706   31.1209   18.2927 N   0  0  0  0  0  0  0  0  0  0  0  0
   32.2345   31.0775   16.9439 C   0  0  0  0  0  0  0  0  0  0  0  0
   32.1823   30.0535   16.2700 O   0  0  0  0  0  0  0  0  0  0  0  0
   32.2664   32.4481   16.2875 C   0  0  0  0  0  0  0  0  0  0  0  0
   32.3083   31.9928   18.7484 H   0  0  0  0  0  0  0  0  0  0  0  0
   30.8013   29.4225   19.3721 C   0  0  0  0  0  0  0  0  0  0  0  0
   30.2931   29.7268   20.4507 O   0  0  0  0  0  0  0  0  0  0  0  0
   30.1303   28.7039   18.4332 N   0  0  0  0  0  0  0  0  0  0  0  0
   30.6105   28.5025   17.5977 H   0  0  0  0  0  0  0  0  0  0  0  0
   28.7605   28.2020   18.5489 C   0  0  0  0  0  0  0  0  0  0  0  0
   28.6585   26.6957   18.2529 C   0  0  0  0  0  0  0  0  0  0  0  0
   30.0358   26.0494   18.0030 C   0  0  0  0  0  0  0  0  0  0  0  0
   30.2741   24.8257   18.9064 C   0  0  0  0  0  0  0  0  0  0  0  0
   31.5353   24.9547   19.7649 C   0  0  0  0  0  0  0  0  0  0  0  0
 24 25  1  0  0  0
 25 26  2  0  0  0
 25 11  1  0  0  0
 11 12  2  0  0  0
 11 13  1  0  0  0
 13 14  1  0  0  0
 13  1  1  0  0  0
 14 15  2  0  0  0
 14 19  1  0  0  0
 15 16  1  0  0  0
 16 17  2  0  0  0
 17 18  1  0  0  0
 18 19  2  0  0  0
 19 20  1  0  0  0
 20 21  2  0  0  0
 20 22  1  0  0  0
  1  2  2  0  0  0
  1  6  1  0  0  0
  2  3  1  0  0  0
  3  4  2  0  0  0
  4  5  1  0  0  0
  4 28  1  0  0  0
  5  6  2  0  0  0
  5 10  1  0  0  0
  6  7  1  0  0  0
  7  8  2  0  0  0
  8  9  1  0  0  0
  9 10  2  0  0  0
 28 29  1  0  0  0
 29 30  1  0  0  0
 29 35  1  0  0  0
 30 31  1  0  0  0
 31 32  2  0  0  0
 31 33  1  0  0  0
 35 36  2  0  0  0
 35 37  1  0  0  0
 37 39  1  0  0  0
 39 40  1  0  0  0
 40 41  1  0  0  0
 41 42  1  0  0  0
 42 43  1  0  0  0
 24 27  1  0  0  0
 22 23  1  0  0  0
 30 34  1  0  0  0
 37 38  1  0  0  0
M  END
> <minimizedAffinity>
-6.21075

$$$$
1NL9_989_A_322


 43 45  0  0  0  0  0  0  0  0999 V2000
   35.4685   26.4800   21.3477 C   0  0  0  0  0  0  0  0  0  0  0  0
   34.1181   26.3622   21.8416 C   0  0  0  0  0  0  0  0  0  0  0  0
   33.1800   27.3940   21.6923 C   0  0  0  0  0  0  0  0  0  0  0  0
   33.5154   28.6154   21.0411 C   0  0  0  0  0  0  0  0  0  0  0  0
   34.8746   28.7914   20.5217 C   0  0  0  0  0  0  0  0  0  0  0  0
   35.8520   27.7156   20.6796 C   0  0  0  0  0  0  0  0  0  0  0  0
   37.1855   27.8949   20.1637 C   0  0  0  0  0  0  0  0  0  0  0  0
   37.5571   29.1015   19.5099 C   0  0  0  0  0  0  0  0  0  0  0  0
   36.6126   30.1538   19.3534 C   0  0  0  0  0  0  0  0  0  0  0  0
   35.2917   30.0042   19.8485 C   0  0  0  0  0  0  0  0  0  0  0  0
   37.1968   25.3572   22.6807 C   0  0  0  0  0  0  0  0  0  0  0  0
   37.9262   24.4050   22.9406 O   0  0  0  0  0  0  0  0  0  0  0  0
   36.3300   25.3689   21.5508 N   0  0  0  0  0  0  0  0  0  0  0  0
   36.2606   24.2477   20.6214 C   0  0  0  0  0  0  0  0  0  0  0  0
   36.8197   24.4597   19.3069 C   0  0  0  0  0  0  0  0  0  0  0  0
   36.8274   23.4625   18.3127 C   0  0  0  0  0  0  0  0  0  0  0  0
   36.2805   22.2017   18.5753 C   0  0  0  0  0  0  0  0  0  0  0  0
   35.7216   21.9372   19.8358 C   0  0  0  0  0  0  0  0  0  0  0  0
   35.6891   22.9152   20.8780 C   0  0  0  0  0  0  0  0  0  0  0  0
   35.0580   22.4599   22.1495 C   0  0  0  0  0  0  0  0  0  0  0  0
   35.4422   21.5200   22.7691 O   0  0  0  0  0  0  0  0  0  0  0  0
   34.0063   23.1907   22.5803 O   0  0  0  0  0  0  0  0  0  0  0  0
   33.7136   23.9288   22.0829 H   0  0  0  0  0  0  0  0  0  0  0  0
   36.3106   26.6667   24.6052 O   0  0  0  0  0  0  0  0  0  0  0  0
   37.2820   26.5609   23.6668 C   0  0  0  0  0  0  0  0  0  0  0  0
   38.1865   27.3401   23.6044 O   0  0  0  0  0  0  0  0  0  0  0  0
   35.6134   26.0413   24.6304 H   0  0  0  0  0  0  0  0  0  0  0  0
   32.4233   29.6732   20.9167 C   0  0  0  0  0  0  0  0  0  0  0  0
   31.7155   29.6201   19.5233 C   0  0  0  0  0  0  0  0  0  0  0  0
   32.0249   28.3304   18.8941 N   0  0  0  0  0  0  0  0  0  0  0  0
   31.0414   27.4893   18.5098 C   0  0  0  0  0  0  0  0  0  0  0  0
   29.8395   27.7020   18.6342 O   0  0  0  0  0  0  0  0  0  0  0  0
   31.5496   26.1999   17.8854 C   0  0  0  0  0  0  0  0  0  0  0  0
   32.9646   28.0748   18.7501 H   0  0  0  0  0  0  0  0  0  0  0  0
   32.0822   30.8025   18.5873 C   0  0  0  0  0  0  0  0  0  0  0  0
   31.9071   31.9474   19.0032 O   0  0  0  0  0  0  0  0  0  0  0  0
   32.5862   30.5514   17.3498 N   0  0  0  0  0  0  0  0  0  0  0  0
   32.6940   29.6066   17.0950 H   0  0  0  0  0  0  0  0  0  0  0  0
   32.9835   31.5549   16.3615 C   0  0  0  0  0  0  0  0  0  0  0  0
   34.1328   31.0711   15.4605 C   0  0  0  0  0  0  0  0  0  0  0  0
   34.9258   29.9082   16.0899 C   0  0  0  0  0  0  0  0  0  0  0  0
   36.4109   29.9334   15.6848 C   0  0  0  0  0  0  0  0  0  0  0  0
   37.0428   31.3214   15.8211 C   0  0  0  0  0  0  0  0  0  0  0  0
 24 25  1  0  0  0
 25 26  2  0  0  0
 25 11  1  0  0  0
 11 12  2  0  0  0
 11 13  1  0  0  0
 13 14  1  0  0  0
 13  1  1  0  0  0
 14 15  2  0  0  0
 14 19  1  0  0  0
 15 16  1  0  0  0
 16 17  2  0  0  0
 17 18  1  0  0  0
 18 19  2  0  0  0
 19 20  1  0  0  0
 20 21  2  0  0  0
 20 22  1  0  0  0
  1  2  2  0  0  0
  1  6  1  0  0  0
  2  3  1  0  0  0
  3  4  2  0  0  0
  4  5  1  0  0  0
  4 28  1  0  0  0
  5  6  2  0  0  0
  5 10  1  0  0  0
  6  7  1  0  0  0
  7  8  2  0  0  0
  8  9  1  0  0  0
  9 10  2  0  0  0
 28 29  1  0  0  0
 29 30  1  0  0  0
 29 35  1  0  0  0
 30 31  1  0  0  0
 31 32  2  0  0  0
 31 33  1  0  0  0
 35 36  2  0  0  0
 35 37  1  0  0  0
 37 39  1  0  0  0
 39 40  1  0  0  0
 40 41  1  0  0  0
 41 42  1  0  0  0
 42 43  1  0  0  0
 24 27  1  0  0  0
 22 23  1  0  0  0
 30 34  1  0  0  0
 37 38  1  0  0  0
M  END
> <minimizedAffinity>
-5.97463

$$$$
