3IUB_FG2_A_302


 26 28  0  0  0  0  0  0  0  0999 V2000
   16.1439   11.1761    0.9424 O   0  0  0  0  0  0  0  0  0  0  0  0
   17.8313    9.9759    0.0623 N   0  0  0  0  0  0  0  0  0  0  0  0
   16.5977   10.5090    0.0132 C   0  0  0  0  0  0  0  0  0  0  0  0
   18.1836    9.4562   -0.6961 H   0  0  0  0  0  0  0  0  0  0  0  0
   14.4230    9.7009   -5.3210 C   0  0  0  0  0  0  0  0  0  0  0  0
   15.5770    9.9482   -4.5745 C   0  0  0  0  0  0  0  0  0  0  0  0
   13.1664    9.7280   -3.2516 C   0  0  0  0  0  0  0  0  0  0  0  0
   14.5452   10.1070   -1.2441 C   0  0  0  0  0  0  0  0  0  0  0  0
   16.4326   10.2544   -2.3101 N   0  0  0  0  0  0  0  0  0  0  0  0
   13.2015    9.5949   -4.6584 C   0  0  0  0  0  0  0  0  0  0  0  0
   15.8691   10.3039   -1.1121 C   0  0  0  0  0  0  0  0  0  0  0  0
   14.3069    9.9536   -2.5644 C   0  0  0  0  0  0  0  0  0  0  0  0
   15.4858   10.0446   -3.2222 C   0  0  0  0  0  0  0  0  0  0  0  0
   17.3941   10.3562   -2.4955 H   0  0  0  0  0  0  0  0  0  0  0  0
   10.7961    9.3721   -4.7709 C   0  0  0  0  0  0  0  0  0  0  0  0
   12.0904    9.3730   -5.4207 O   0  0  0  0  0  0  0  0  0  0  0  0
   17.9514    9.6279    2.6189 O   0  0  0  0  0  0  0  0  0  0  0  0
   19.0712   11.6822    1.7264 O   0  0  0  0  0  0  0  0  0  0  0  0
   18.7690   10.2158    1.4553 S   0  0  0  0  0  0  0  0  0  0  0  0
   23.8100    7.0403    1.2858 C   0  0  0  0  0  0  0  0  0  0  0  0
   22.3140    8.6337    0.2051 C   0  0  0  0  0  0  0  0  0  0  0  0
   21.1307    9.3806    0.2443 C   0  0  0  0  0  0  0  0  0  0  0  0
   21.7784    7.7257    2.3660 C   0  0  0  0  0  0  0  0  0  0  0  0
   20.5974    8.4736    2.3816 N   0  0  0  0  0  0  0  0  0  0  0  0
   22.6370    7.8038    1.2793 C   0  0  0  0  0  0  0  0  0  0  0  0
   20.2822    9.2846    1.3531 C   0  0  0  0  0  0  0  0  0  0  0  0
 15 16  1  0  0  0
 25 20  1  0  0  0
  3  1  2  0  0  0
 17 19  2  0  0  0
 18 19  2  0  0  0
 22 21  2  0  0  0
 21 25  1  0  0  0
 22 26  1  0  0  0
 10  5  2  0  0  0
  6  5  1  0  0  0
 13  6  2  0  0  0
 25 23  2  0  0  0
 24 23  1  0  0  0
 12  7  2  0  0  0
  7 10  1  0  0  0
 11  8  2  0  0  0
  8 12  1  0  0  0
 26 24  2  0  0  0
 19  2  1  0  0  0
  2  3  1  0  0  0
 11  9  1  0  0  0
  9 13  1  0  0  0
 10 16  1  0  0  0
  3 11  1  0  0  0
 19 26  1  0  0  0
 12 13  1  0  0  0
  2  4  1  0  0  0
  9 14  1  0  0  0
M  END
> <minimizedAffinity>
-9.81034

$$$$
3IUB_FG2_A_302


 26 28  0  0  0  0  0  0  0  0999 V2000
   18.1880   12.4490    0.2377 O   0  0  0  0  0  0  0  0  0  0  0  0
   18.9771   10.3420    0.2253 N   0  0  0  0  0  0  0  0  0  0  0  0
   18.0529   11.2687   -0.0833 C   0  0  0  0  0  0  0  0  0  0  0  0
   18.8593    9.4045   -0.0514 H   0  0  0  0  0  0  0  0  0  0  0  0
   12.8270   10.0072   -2.3049 C   0  0  0  0  0  0  0  0  0  0  0  0
   13.5128   10.6063   -1.2461 C   0  0  0  0  0  0  0  0  0  0  0  0
   14.9706    9.4167   -3.2633 C   0  0  0  0  0  0  0  0  0  0  0  0
   16.9062   10.1808   -1.9425 C   0  0  0  0  0  0  0  0  0  0  0  0
   15.7328   11.1286   -0.3789 N   0  0  0  0  0  0  0  0  0  0  0  0
   13.5585    9.3992   -3.3236 C   0  0  0  0  0  0  0  0  0  0  0  0
   16.9655   10.8622   -0.7845 C   0  0  0  0  0  0  0  0  0  0  0  0
   15.5966   10.0183   -2.2289 C   0  0  0  0  0  0  0  0  0  0  0  0
   14.8715   10.6121   -1.2528 C   0  0  0  0  0  0  0  0  0  0  0  0
   15.4929   11.6270    0.4355 H   0  0  0  0  0  0  0  0  0  0  0  0
   11.5464    9.3278   -4.6632 C   0  0  0  0  0  0  0  0  0  0  0  0
   12.8562    8.8053   -4.3330 O   0  0  0  0  0  0  0  0  0  0  0  0
   19.8622   11.0856    2.5352 O   0  0  0  0  0  0  0  0  0  0  0  0
   21.0113   12.0688    0.5393 O   0  0  0  0  0  0  0  0  0  0  0  0
   20.3499   10.8186    1.1004 S   0  0  0  0  0  0  0  0  0  0  0  0
   24.3379    6.4120    1.5502 C   0  0  0  0  0  0  0  0  0  0  0  0
   22.7135    7.6214    0.1924 C   0  0  0  0  0  0  0  0  0  0  0  0
   21.7773    8.6566    0.0854 C   0  0  0  0  0  0  0  0  0  0  0  0
   23.1237    8.2668    2.4718 C   0  0  0  0  0  0  0  0  0  0  0  0
   22.1789    9.2895    2.3467 N   0  0  0  0  0  0  0  0  0  0  0  0
   23.3918    7.4320    1.3970 C   0  0  0  0  0  0  0  0  0  0  0  0
   21.5261    9.4856    1.1846 C   0  0  0  0  0  0  0  0  0  0  0  0
 15 16  1  0  0  0
 25 20  1  0  0  0
  3  1  2  0  0  0
 17 19  2  0  0  0
 18 19  2  0  0  0
 22 21  2  0  0  0
 21 25  1  0  0  0
 22 26  1  0  0  0
 10  5  2  0  0  0
  6  5  1  0  0  0
 13  6  2  0  0  0
 25 23  2  0  0  0
 24 23  1  0  0  0
 12  7  2  0  0  0
  7 10  1  0  0  0
 11  8  2  0  0  0
  8 12  1  0  0  0
 26 24  2  0  0  0
 19  2  1  0  0  0
  2  3  1  0  0  0
 11  9  1  0  0  0
  9 13  1  0  0  0
 10 16  1  0  0  0
  3 11  1  0  0  0
 19 26  1  0  0  0
 12 13  1  0  0  0
  2  4  1  0  0  0
  9 14  1  0  0  0
M  END
> <minimizedAffinity>
-9.66763

$$$$
3IUB_FG2_A_302


 26 28  0  0  0  0  0  0  0  0999 V2000
   16.8892   11.7155    0.2658 O   0  0  0  0  0  0  0  0  0  0  0  0
   15.9085    9.9497    1.2568 N   0  0  0  0  0  0  0  0  0  0  0  0
   16.1191   10.7577    0.2028 C   0  0  0  0  0  0  0  0  0  0  0  0
   15.2992    9.1797    1.1847 H   0  0  0  0  0  0  0  0  0  0  0  0
   14.3015    9.5253   -5.1836 C   0  0  0  0  0  0  0  0  0  0  0  0
   15.4071    9.8114   -4.3798 C   0  0  0  0  0  0  0  0  0  0  0  0
   12.9040    9.7679   -3.2214 C   0  0  0  0  0  0  0  0  0  0  0  0
   14.1489   10.2931   -1.1601 C   0  0  0  0  0  0  0  0  0  0  0  0
   16.1102   10.2994   -2.0950 N   0  0  0  0  0  0  0  0  0  0  0  0
   13.0338    9.5082   -4.6048 C   0  0  0  0  0  0  0  0  0  0  0  0
   15.4656   10.4696   -0.9501 C   0  0  0  0  0  0  0  0  0  0  0  0
   13.9996   10.0273   -2.4756 C   0  0  0  0  0  0  0  0  0  0  0  0
   15.2240   10.0309   -3.0515 C   0  0  0  0  0  0  0  0  0  0  0  0
   17.0850   10.3614   -2.2182 H   0  0  0  0  0  0  0  0  0  0  0  0
   10.6349    9.4001   -4.8911 C   0  0  0  0  0  0  0  0  0  0  0  0
   11.9729    9.2450   -5.4234 O   0  0  0  0  0  0  0  0  0  0  0  0
   16.6889   11.8129    2.8666 O   0  0  0  0  0  0  0  0  0  0  0  0
   18.1499    9.7838    2.7288 O   0  0  0  0  0  0  0  0  0  0  0  0
   16.7123   10.2819    2.7132 S   0  0  0  0  0  0  0  0  0  0  0  0
   13.5404    8.0088    7.2184 C   0  0  0  0  0  0  0  0  0  0  0  0
   15.6612    8.8903    6.3999 C   0  0  0  0  0  0  0  0  0  0  0  0
   16.4068    9.4251    5.3427 C   0  0  0  0  0  0  0  0  0  0  0  0
   13.7589    8.7288    4.9385 C   0  0  0  0  0  0  0  0  0  0  0  0
   14.5234    9.2565    3.8938 N   0  0  0  0  0  0  0  0  0  0  0  0
   14.3256    8.5445    6.1910 C   0  0  0  0  0  0  0  0  0  0  0  0
   15.8109    9.6020    4.0889 C   0  0  0  0  0  0  0  0  0  0  0  0
 15 16  1  0  0  0
 25 20  1  0  0  0
  3  1  2  0  0  0
 17 19  2  0  0  0
 18 19  2  0  0  0
 22 21  2  0  0  0
 21 25  1  0  0  0
 22 26  1  0  0  0
 10  5  2  0  0  0
  6  5  1  0  0  0
 13  6  2  0  0  0
 25 23  2  0  0  0
 24 23  1  0  0  0
 12  7  2  0  0  0
  7 10  1  0  0  0
 11  8  2  0  0  0
  8 12  1  0  0  0
 26 24  2  0  0  0
 19  2  1  0  0  0
  2  3  1  0  0  0
 11  9  1  0  0  0
  9 13  1  0  0  0
 10 16  1  0  0  0
  3 11  1  0  0  0
 19 26  1  0  0  0
 12 13  1  0  0  0
  2  4  1  0  0  0
  9 14  1  0  0  0
M  END
> <minimizedAffinity>
-9.39189

$$$$
3IUB_FG2_A_302


 26 28  0  0  0  0  0  0  0  0999 V2000
   16.4288   11.2219    1.0608 O   0  0  0  0  0  0  0  0  0  0  0  0
   18.1992   11.0893   -0.3214 N   0  0  0  0  0  0  0  0  0  0  0  0
   16.8893   10.9543   -0.0486 C   0  0  0  0  0  0  0  0  0  0  0  0
   18.5484   10.8837   -1.2186 H   0  0  0  0  0  0  0  0  0  0  0  0
   14.2665    9.3300   -4.9799 C   0  0  0  0  0  0  0  0  0  0  0  0
   15.4362    9.8412   -4.4134 C   0  0  0  0  0  0  0  0  0  0  0  0
   13.2917    9.3031   -2.7638 C   0  0  0  0  0  0  0  0  0  0  0  0
   14.8106   10.0882   -0.9886 C   0  0  0  0  0  0  0  0  0  0  0  0
   16.4906   10.4824   -2.3087 N   0  0  0  0  0  0  0  0  0  0  0  0
   13.1778    9.0622   -4.1520 C   0  0  0  0  0  0  0  0  0  0  0  0
   16.0797   10.5293   -1.0501 C   0  0  0  0  0  0  0  0  0  0  0  0
   14.4449    9.7856   -2.2528 C   0  0  0  0  0  0  0  0  0  0  0  0
   15.4955   10.0314   -3.0693 C   0  0  0  0  0  0  0  0  0  0  0  0
   17.3855   10.7391   -2.6290 H   0  0  0  0  0  0  0  0  0  0  0  0
   10.9515    9.5014   -4.9880 C   0  0  0  0  0  0  0  0  0  0  0  0
   12.0433    8.5823   -4.7414 O   0  0  0  0  0  0  0  0  0  0  0  0
   18.5744   12.8726    1.5093 O   0  0  0  0  0  0  0  0  0  0  0  0
   20.6320   11.9670    0.4062 O   0  0  0  0  0  0  0  0  0  0  0  0
   19.2385   11.6207    0.9094 S   0  0  0  0  0  0  0  0  0  0  0  0
   19.4892    7.6715    5.3665 C   0  0  0  0  0  0  0  0  0  0  0  0
   20.0670    8.2644    3.0732 C   0  0  0  0  0  0  0  0  0  0  0  0
   20.0095    9.1916    2.0260 C   0  0  0  0  0  0  0  0  0  0  0  0
   18.7948    9.7761    4.4431 C   0  0  0  0  0  0  0  0  0  0  0  0
   18.7418   10.6846    3.3820 N   0  0  0  0  0  0  0  0  0  0  0  0
   19.4558    8.5662    4.2907 C   0  0  0  0  0  0  0  0  0  0  0  0
   19.3372   10.4056    2.2061 C   0  0  0  0  0  0  0  0  0  0  0  0
 15 16  1  0  0  0
 25 20  1  0  0  0
  3  1  2  0  0  0
 17 19  2  0  0  0
 18 19  2  0  0  0
 22 21  2  0  0  0
 21 25  1  0  0  0
 22 26  1  0  0  0
 10  5  2  0  0  0
  6  5  1  0  0  0
 13  6  2  0  0  0
 25 23  2  0  0  0
 24 23  1  0  0  0
 12  7  2  0  0  0
  7 10  1  0  0  0
 11  8  2  0  0  0
  8 12  1  0  0  0
 26 24  2  0  0  0
 19  2  1  0  0  0
  2  3  1  0  0  0
 11  9  1  0  0  0
  9 13  1  0  0  0
 10 16  1  0  0  0
  3 11  1  0  0  0
 19 26  1  0  0  0
 12 13  1  0  0  0
  2  4  1  0  0  0
  9 14  1  0  0  0
M  END
> <minimizedAffinity>
-9.30421

$$$$
3IUB_FG2_A_302


 26 28  0  0  0  0  0  0  0  0999 V2000
   14.8536   10.8878    1.8425 O   0  0  0  0  0  0  0  0  0  0  0  0
   16.8890   10.2180    1.1565 N   0  0  0  0  0  0  0  0  0  0  0  0
   15.5862   10.4750    0.9441 C   0  0  0  0  0  0  0  0  0  0  0  0
   17.4638    9.9012    0.4227 H   0  0  0  0  0  0  0  0  0  0  0  0
   14.5499    9.7525   -4.7339 C   0  0  0  0  0  0  0  0  0  0  0  0
   15.5238   10.0039   -3.7651 C   0  0  0  0  0  0  0  0  0  0  0  0
   12.9020    9.7068   -2.9606 C   0  0  0  0  0  0  0  0  0  0  0  0
   13.8389   10.0642   -0.7091 C   0  0  0  0  0  0  0  0  0  0  0  0
   15.8984   10.2725   -1.3692 N   0  0  0  0  0  0  0  0  0  0  0  0
   13.2228    9.6078   -4.3337 C   0  0  0  0  0  0  0  0  0  0  0  0
   15.1042   10.2828   -0.3089 C   0  0  0  0  0  0  0  0  0  0  0  0
   13.8751    9.9376   -2.0531 C   0  0  0  0  0  0  0  0  0  0  0  0
   15.1599   10.0664   -2.4575 C   0  0  0  0  0  0  0  0  0  0  0  0
   16.8749   10.3968   -1.3546 H   0  0  0  0  0  0  0  0  0  0  0  0
   10.8913    9.4229   -4.9486 C   0  0  0  0  0  0  0  0  0  0  0  0
   12.2935    9.3830   -5.3088 O   0  0  0  0  0  0  0  0  0  0  0  0
   16.7175    9.5214    3.6379 O   0  0  0  0  0  0  0  0  0  0  0  0
   17.4072   11.8879    3.1964 O   0  0  0  0  0  0  0  0  0  0  0  0
   17.5234   10.4500    2.7125 S   0  0  0  0  0  0  0  0  0  0  0  0
   23.2527    8.8125    2.8482 C   0  0  0  0  0  0  0  0  0  0  0  0
   20.9148    8.2498    3.2515 C   0  0  0  0  0  0  0  0  0  0  0  0
   19.5688    8.6331    3.2192 C   0  0  0  0  0  0  0  0  0  0  0  0
   21.5221   10.4161    2.4036 C   0  0  0  0  0  0  0  0  0  0  0  0
   20.1730   10.7819    2.3871 N   0  0  0  0  0  0  0  0  0  0  0  0
   21.8948    9.1518    2.8357 C   0  0  0  0  0  0  0  0  0  0  0  0
   19.2193    9.9143    2.7778 C   0  0  0  0  0  0  0  0  0  0  0  0
 15 16  1  0  0  0
 25 20  1  0  0  0
  3  1  2  0  0  0
 17 19  2  0  0  0
 18 19  2  0  0  0
 22 21  2  0  0  0
 21 25  1  0  0  0
 22 26  1  0  0  0
 10  5  2  0  0  0
  6  5  1  0  0  0
 13  6  2  0  0  0
 25 23  2  0  0  0
 24 23  1  0  0  0
 12  7  2  0  0  0
  7 10  1  0  0  0
 11  8  2  0  0  0
  8 12  1  0  0  0
 26 24  2  0  0  0
 19  2  1  0  0  0
  2  3  1  0  0  0
 11  9  1  0  0  0
  9 13  1  0  0  0
 10 16  1  0  0  0
  3 11  1  0  0  0
 19 26  1  0  0  0
 12 13  1  0  0  0
  2  4  1  0  0  0
  9 14  1  0  0  0
M  END
> <minimizedAffinity>
-9.24014

$$$$
3IUB_FG2_A_302


 26 28  0  0  0  0  0  0  0  0999 V2000
   18.8807   10.7970    3.2954 O   0  0  0  0  0  0  0  0  0  0  0  0
   18.6520   10.0979    1.1691 N   0  0  0  0  0  0  0  0  0  0  0  0
   19.1824   10.0069    2.4015 C   0  0  0  0  0  0  0  0  0  0  0  0
   18.8944    9.4488    0.4697 H   0  0  0  0  0  0  0  0  0  0  0  0
   23.3074    5.9058    2.4339 C   0  0  0  0  0  0  0  0  0  0  0  0
   22.7090    6.9298    1.6966 C   0  0  0  0  0  0  0  0  0  0  0  0
   21.7270    6.3609    4.2108 C   0  0  0  0  0  0  0  0  0  0  0  0
   20.1703    8.2082    3.7220 C   0  0  0  0  0  0  0  0  0  0  0  0
   20.9782    8.6485    1.7537 N   0  0  0  0  0  0  0  0  0  0  0  0
   22.8112    5.6100    3.7023 C   0  0  0  0  0  0  0  0  0  0  0  0
   20.0537    8.9947    2.6372 C   0  0  0  0  0  0  0  0  0  0  0  0
   21.1844    7.3524    3.4717 C   0  0  0  0  0  0  0  0  0  0  0  0
   21.6842    7.6328    2.2459 C   0  0  0  0  0  0  0  0  0  0  0  0
   21.1199    9.0729    0.8768 H   0  0  0  0  0  0  0  0  0  0  0  0
   24.1459    4.9058    5.5919 C   0  0  0  0  0  0  0  0  0  0  0  0
   23.4064    4.5896    4.3875 O   0  0  0  0  0  0  0  0  0  0  0  0
   18.4028   12.5166    0.2976 O   0  0  0  0  0  0  0  0  0  0  0  0
   16.7853   11.8060    2.0724 O   0  0  0  0  0  0  0  0  0  0  0  0
   17.5574   11.3519    0.8424 S   0  0  0  0  0  0  0  0  0  0  0  0
   13.6430    9.7994   -3.3756 C   0  0  0  0  0  0  0  0  0  0  0  0
   15.9489    9.8342   -2.5843 C   0  0  0  0  0  0  0  0  0  0  0  0
   16.8690   10.1976   -1.5939 C   0  0  0  0  0  0  0  0  0  0  0  0
   14.1905   10.8143   -1.2698 C   0  0  0  0  0  0  0  0  0  0  0  0
   15.1268   11.1757   -0.2966 N   0  0  0  0  0  0  0  0  0  0  0  0
   14.5993   10.1447   -2.4137 C   0  0  0  0  0  0  0  0  0  0  0  0
   16.4304   10.8716   -0.4486 C   0  0  0  0  0  0  0  0  0  0  0  0
 15 16  1  0  0  0
 25 20  1  0  0  0
  3  1  2  0  0  0
 17 19  2  0  0  0
 18 19  2  0  0  0
 22 21  2  0  0  0
 21 25  1  0  0  0
 22 26  1  0  0  0
 10  5  2  0  0  0
  6  5  1  0  0  0
 13  6  2  0  0  0
 25 23  2  0  0  0
 24 23  1  0  0  0
 12  7  2  0  0  0
  7 10  1  0  0  0
 11  8  2  0  0  0
  8 12  1  0  0  0
 26 24  2  0  0  0
 19  2  1  0  0  0
  2  3  1  0  0  0
 11  9  1  0  0  0
  9 13  1  0  0  0
 10 16  1  0  0  0
  3 11  1  0  0  0
 19 26  1  0  0  0
 12 13  1  0  0  0
  2  4  1  0  0  0
  9 14  1  0  0  0
M  END
> <minimizedAffinity>
-9.18774

$$$$
3IUB_FG2_A_302


 26 28  0  0  0  0  0  0  0  0999 V2000
   17.7888   11.9128    1.5550 O   0  0  0  0  0  0  0  0  0  0  0  0
   18.3643    9.7394    1.4694 N   0  0  0  0  0  0  0  0  0  0  0  0
   17.6275   10.7922    1.0729 C   0  0  0  0  0  0  0  0  0  0  0  0
   18.2310    8.8526    1.0632 H   0  0  0  0  0  0  0  0  0  0  0  0
   12.9523   10.0802   -2.3141 C   0  0  0  0  0  0  0  0  0  0  0  0
   13.4059   10.3420   -1.0195 C   0  0  0  0  0  0  0  0  0  0  0  0
   15.2647    9.9130   -3.0120 C   0  0  0  0  0  0  0  0  0  0  0  0
   16.8911   10.3007   -1.2011 C   0  0  0  0  0  0  0  0  0  0  0  0
   15.4050   10.6558    0.3435 N   0  0  0  0  0  0  0  0  0  0  0  0
   13.8871    9.8564   -3.3234 C   0  0  0  0  0  0  0  0  0  0  0  0
   16.7054   10.5831    0.1007 C   0  0  0  0  0  0  0  0  0  0  0  0
   15.6630   10.1825   -1.7501 C   0  0  0  0  0  0  0  0  0  0  0  0
   14.7425   10.4064   -0.7839 C   0  0  0  0  0  0  0  0  0  0  0  0
   14.9957   10.8607    1.2151 H   0  0  0  0  0  0  0  0  0  0  0  0
   12.0706    9.0444   -4.6979 C   0  0  0  0  0  0  0  0  0  0  0  0
   13.4091    9.5833   -4.5731 O   0  0  0  0  0  0  0  0  0  0  0  0
   18.7639   10.5227    3.8982 O   0  0  0  0  0  0  0  0  0  0  0  0
   20.6285   10.9377    2.2789 O   0  0  0  0  0  0  0  0  0  0  0  0
   19.5275    9.9682    2.6826 S   0  0  0  0  0  0  0  0  0  0  0  0
   21.9989    4.7540    4.1755 C   0  0  0  0  0  0  0  0  0  0  0  0
   20.2577    6.4184    4.5532 C   0  0  0  0  0  0  0  0  0  0  0  0
   19.6760    7.6425    4.2028 C   0  0  0  0  0  0  0  0  0  0  0  0
   21.9156    6.7499    2.8438 C   0  0  0  0  0  0  0  0  0  0  0  0
   21.3244    7.9733    2.5151 N   0  0  0  0  0  0  0  0  0  0  0  0
   21.3847    5.9719    3.8620 C   0  0  0  0  0  0  0  0  0  0  0  0
   20.2306    8.4078    3.1707 C   0  0  0  0  0  0  0  0  0  0  0  0
 15 16  1  0  0  0
 25 20  1  0  0  0
  3  1  2  0  0  0
 17 19  2  0  0  0
 18 19  2  0  0  0
 22 21  2  0  0  0
 21 25  1  0  0  0
 22 26  1  0  0  0
 10  5  2  0  0  0
  6  5  1  0  0  0
 13  6  2  0  0  0
 25 23  2  0  0  0
 24 23  1  0  0  0
 12  7  2  0  0  0
  7 10  1  0  0  0
 11  8  2  0  0  0
  8 12  1  0  0  0
 26 24  2  0  0  0
 19  2  1  0  0  0
  2  3  1  0  0  0
 11  9  1  0  0  0
  9 13  1  0  0  0
 10 16  1  0  0  0
  3 11  1  0  0  0
 19 26  1  0  0  0
 12 13  1  0  0  0
  2  4  1  0  0  0
  9 14  1  0  0  0
M  END
> <minimizedAffinity>
-9.09931

$$$$
3IUB_FG2_A_302


 26 28  0  0  0  0  0  0  0  0999 V2000
   18.1277   11.4976    1.4560 O   0  0  0  0  0  0  0  0  0  0  0  0
   17.3157    9.6093    2.3709 N   0  0  0  0  0  0  0  0  0  0  0  0
   17.3486   10.5464    1.4070 C   0  0  0  0  0  0  0  0  0  0  0  0
   16.6952    8.8475    2.3087 H   0  0  0  0  0  0  0  0  0  0  0  0
   12.9400   10.0237   -2.3516 C   0  0  0  0  0  0  0  0  0  0  0  0
   13.2955   10.1917   -1.0116 C   0  0  0  0  0  0  0  0  0  0  0  0
   15.2988    9.9485   -2.8923 C   0  0  0  0  0  0  0  0  0  0  0  0
   16.7849   10.2208   -0.9449 C   0  0  0  0  0  0  0  0  0  0  0  0
   15.1865   10.4311    0.5115 N   0  0  0  0  0  0  0  0  0  0  0  0
   13.9481    9.8940   -3.3052 C   0  0  0  0  0  0  0  0  0  0  0  0
   16.5020   10.3984    0.3579 C   0  0  0  0  0  0  0  0  0  0  0  0
   15.6014   10.1257   -1.5881 C   0  0  0  0  0  0  0  0  0  0  0  0
   14.6105   10.2592   -0.6763 C   0  0  0  0  0  0  0  0  0  0  0  0
   14.7125   10.5612    1.3645 H   0  0  0  0  0  0  0  0  0  0  0  0
   12.1920    9.3372   -4.8719 C   0  0  0  0  0  0  0  0  0  0  0  0
   13.5653    9.7108   -4.6031 O   0  0  0  0  0  0  0  0  0  0  0  0
   17.8590    8.7638    4.7504 O   0  0  0  0  0  0  0  0  0  0  0  0
   18.3796   11.1682    4.2829 O   0  0  0  0  0  0  0  0  0  0  0  0
   18.3634    9.7646    3.6959 S   0  0  0  0  0  0  0  0  0  0  0  0
   23.8358    7.9239    2.2160 C   0  0  0  0  0  0  0  0  0  0  0  0
   22.3073    9.7716    2.6570 C   0  0  0  0  0  0  0  0  0  0  0  0
   21.0226   10.2050    3.0053 C   0  0  0  0  0  0  0  0  0  0  0  0
   21.5471    7.4952    2.8008 C   0  0  0  0  0  0  0  0  0  0  0  0
   20.2689    7.9491    3.1392 N   0  0  0  0  0  0  0  0  0  0  0  0
   22.5666    8.4041    2.5589 C   0  0  0  0  0  0  0  0  0  0  0  0
   20.0119    9.2673    3.2454 C   0  0  0  0  0  0  0  0  0  0  0  0
 15 16  1  0  0  0
 25 20  1  0  0  0
  3  1  2  0  0  0
 17 19  2  0  0  0
 18 19  2  0  0  0
 22 21  2  0  0  0
 21 25  1  0  0  0
 22 26  1  0  0  0
 10  5  2  0  0  0
  6  5  1  0  0  0
 13  6  2  0  0  0
 25 23  2  0  0  0
 24 23  1  0  0  0
 12  7  2  0  0  0
  7 10  1  0  0  0
 11  8  2  0  0  0
  8 12  1  0  0  0
 26 24  2  0  0  0
 19  2  1  0  0  0
  2  3  1  0  0  0
 11  9  1  0  0  0
  9 13  1  0  0  0
 10 16  1  0  0  0
  3 11  1  0  0  0
 19 26  1  0  0  0
 12 13  1  0  0  0
  2  4  1  0  0  0
  9 14  1  0  0  0
M  END
> <minimizedAffinity>
-8.82316

$$$$
3IUB_FG2_A_302


 26 28  0  0  0  0  0  0  0  0999 V2000
   15.8447   11.3979    2.7339 O   0  0  0  0  0  0  0  0  0  0  0  0
   16.9182    9.4396    2.4609 N   0  0  0  0  0  0  0  0  0  0  0  0
   16.0990   10.4173    2.0353 C   0  0  0  0  0  0  0  0  0  0  0  0
   17.1215    8.6686    1.8834 H   0  0  0  0  0  0  0  0  0  0  0  0
   12.8878    9.9606   -2.7934 C   0  0  0  0  0  0  0  0  0  0  0  0
   12.8629   10.0719   -1.4015 C   0  0  0  0  0  0  0  0  0  0  0  0
   15.3062    9.9768   -2.6785 C   0  0  0  0  0  0  0  0  0  0  0  0
   16.2019   10.1931   -0.3925 C   0  0  0  0  0  0  0  0  0  0  0  0
   14.2636   10.2873    0.5846 N   0  0  0  0  0  0  0  0  0  0  0  0
   14.1195    9.9058   -3.4432 C   0  0  0  0  0  0  0  0  0  0  0  0
   15.5722   10.2983    0.7912 C   0  0  0  0  0  0  0  0  0  0  0  0
   15.2396   10.0976   -1.3351 C   0  0  0  0  0  0  0  0  0  0  0  0
   14.0356   10.1587   -0.7207 C   0  0  0  0  0  0  0  0  0  0  0  0
   13.5729   10.3622    1.2821 H   0  0  0  0  0  0  0  0  0  0  0  0
   15.3724    9.7806   -5.5078 C   0  0  0  0  0  0  0  0  0  0  0  0
   14.1074    9.7766   -4.8026 O   0  0  0  0  0  0  0  0  0  0  0  0
   17.9602   11.0428    4.1976 O   0  0  0  0  0  0  0  0  0  0  0  0
   18.8352    8.6965    4.1904 O   0  0  0  0  0  0  0  0  0  0  0  0
   17.5949    9.5596    4.0118 S   0  0  0  0  0  0  0  0  0  0  0  0
   13.4016    8.2396    8.0366 C   0  0  0  0  0  0  0  0  0  0  0  0
   15.7527    8.6447    7.5335 C   0  0  0  0  0  0  0  0  0  0  0  0
   16.7382    8.9555    6.5892 C   0  0  0  0  0  0  0  0  0  0  0  0
   14.0949    8.7496    5.7953 C   0  0  0  0  0  0  0  0  0  0  0  0
   15.0955    9.0508    4.8666 N   0  0  0  0  0  0  0  0  0  0  0  0
   14.4212    8.5458    7.1280 C   0  0  0  0  0  0  0  0  0  0  0  0
   16.3823    9.1576    5.2510 C   0  0  0  0  0  0  0  0  0  0  0  0
 15 16  1  0  0  0
 25 20  1  0  0  0
  3  1  2  0  0  0
 17 19  2  0  0  0
 18 19  2  0  0  0
 22 21  2  0  0  0
 21 25  1  0  0  0
 22 26  1  0  0  0
 10  5  2  0  0  0
  6  5  1  0  0  0
 13  6  2  0  0  0
 25 23  2  0  0  0
 24 23  1  0  0  0
 12  7  2  0  0  0
  7 10  1  0  0  0
 11  8  2  0  0  0
  8 12  1  0  0  0
 26 24  2  0  0  0
 19  2  1  0  0  0
  2  3  1  0  0  0
 11  9  1  0  0  0
  9 13  1  0  0  0
 10 16  1  0  0  0
  3 11  1  0  0  0
 19 26  1  0  0  0
 12 13  1  0  0  0
  2  4  1  0  0  0
  9 14  1  0  0  0
M  END
> <minimizedAffinity>
-8.81512

$$$$
3IUB_FG2_A_302


 26 28  0  0  0  0  0  0  0  0999 V2000
   16.6677    8.3492    3.6943 O   0  0  0  0  0  0  0  0  0  0  0  0
   17.6877   10.3527    3.6068 N   0  0  0  0  0  0  0  0  0  0  0  0
   17.7050    9.0083    3.6334 C   0  0  0  0  0  0  0  0  0  0  0  0
   18.5268   10.8639    3.5442 H   0  0  0  0  0  0  0  0  0  0  0  0
   23.0114    6.9402    2.4496 C   0  0  0  0  0  0  0  0  0  0  0  0
   21.9780    7.7731    2.0152 C   0  0  0  0  0  0  0  0  0  0  0  0
   21.6475    6.3699    4.3671 C   0  0  0  0  0  0  0  0  0  0  0  0
   19.4659    7.5154    4.4244 C   0  0  0  0  0  0  0  0  0  0  0  0
   19.7624    8.6247    2.5800 N   0  0  0  0  0  0  0  0  0  0  0  0
   22.8472    6.2241    3.6340 C   0  0  0  0  0  0  0  0  0  0  0  0
   18.9126    8.3943    3.5699 C   0  0  0  0  0  0  0  0  0  0  0  0
   20.6771    7.1959    3.9200 C   0  0  0  0  0  0  0  0  0  0  0  0
   20.8563    7.8910    2.7730 C   0  0  0  0  0  0  0  0  0  0  0  0
   19.6099    9.2380    1.8251 H   0  0  0  0  0  0  0  0  0  0  0  0
   23.8331    4.8346    5.3502 C   0  0  0  0  0  0  0  0  0  0  0  0
   23.8688    5.4038    4.0189 O   0  0  0  0  0  0  0  0  0  0  0  0
   16.5179   12.6551    3.6580 O   0  0  0  0  0  0  0  0  0  0  0  0
   15.4001   10.8154    4.9375 O   0  0  0  0  0  0  0  0  0  0  0  0
   16.1930   11.1511    3.6830 S   0  0  0  0  0  0  0  0  0  0  0  0
   13.0914   10.0341   -1.2825 C   0  0  0  0  0  0  0  0  0  0  0  0
   13.1738   10.0931    1.1536 C   0  0  0  0  0  0  0  0  0  0  0  0
   13.9011   10.3560    2.3204 C   0  0  0  0  0  0  0  0  0  0  0  0
   15.0943   10.7196   -0.1501 C   0  0  0  0  0  0  0  0  0  0  0  0
   15.8058   10.9683    1.0273 N   0  0  0  0  0  0  0  0  0  0  0  0
   13.7796   10.2817   -0.0892 C   0  0  0  0  0  0  0  0  0  0  0  0
   15.2259   10.7981    2.2313 C   0  0  0  0  0  0  0  0  0  0  0  0
 15 16  1  0  0  0
 25 20  1  0  0  0
  3  1  2  0  0  0
 17 19  2  0  0  0
 18 19  2  0  0  0
 22 21  2  0  0  0
 21 25  1  0  0  0
 22 26  1  0  0  0
 10  5  2  0  0  0
  6  5  1  0  0  0
 13  6  2  0  0  0
 25 23  2  0  0  0
 24 23  1  0  0  0
 12  7  2  0  0  0
  7 10  1  0  0  0
 11  8  2  0  0  0
  8 12  1  0  0  0
 26 24  2  0  0  0
 19  2  1  0  0  0
  2  3  1  0  0  0
 11  9  1  0  0  0
  9 13  1  0  0  0
 10 16  1  0  0  0
  3 11  1  0  0  0
 19 26  1  0  0  0
 12 13  1  0  0  0
  2  4  1  0  0  0
  9 14  1  0  0  0
M  END
> <minimizedAffinity>
-8.36869

$$$$
