4LY9_1YY_A_714


 36 39  0  0  0  0  0  0  0  0999 V2000
   37.5808  -23.9028   15.7841 C   0  0  0  0  0  0  0  0  0  0  0  0
   38.4003  -25.1372   15.2692 C   0  0  0  0  0  0  0  0  0  0  0  0
   39.8514  -24.8341   15.2257 N   0  0  0  0  0  0  0  0  0  0  0  0
   40.2328  -24.8280   16.6159 C   0  0  0  0  0  0  0  0  0  0  0  0
   39.4145  -23.8204   17.4381 C   0  0  0  0  0  0  0  0  0  0  0  0
   38.0274  -23.6212   17.0970 N   0  0  0  0  0  0  0  0  0  0  0  0
   37.2434  -22.8471   17.9442 C   0  0  0  0  0  0  0  0  0  0  0  0
   37.6664  -22.5969   19.2423 C   0  0  0  0  0  0  0  0  0  0  0  0
   36.9195  -21.8368   20.1093 C   0  0  0  0  0  0  0  0  0  0  0  0
   36.0439  -22.3157   17.5500 C   0  0  0  0  0  0  0  0  0  0  0  0
   35.2689  -21.5394   18.3977 C   0  0  0  0  0  0  0  0  0  0  0  0
   35.7064  -21.3065   19.6772 C   0  0  0  0  0  0  0  0  0  0  0  0
   34.9105  -20.4503   20.6173 C   0  0  0  0  0  0  0  0  0  0  0  0
   35.9570  -19.5982   21.3303 C   0  0  0  0  0  0  0  0  0  0  0  0
   34.0048  -19.6840   19.8704 O   0  0  0  0  0  0  0  0  0  0  0  0
   34.4846  -19.1940   19.1844 H   0  0  0  0  0  0  0  0  0  0  0  0
   34.1769  -21.2084   21.6769 C   0  0  0  0  0  0  0  0  0  0  0  0
   35.0467  -21.7682   22.5401 F   0  0  0  0  0  0  0  0  0  0  0  0
   33.4234  -22.1660   21.0693 F   0  0  0  0  0  0  0  0  0  0  0  0
   33.4940  -20.3283   22.3481 F   0  0  0  0  0  0  0  0  0  0  0  0
   40.6663  -25.9550   14.4136 S   0  0  0  0  0  0  0  0  0  0  0  0
   42.0988  -25.9024   14.8037 O   0  0  0  0  0  0  0  0  0  0  0  0
   40.3452  -25.7306   12.9767 O   0  0  0  0  0  0  0  0  0  0  0  0
   40.0902  -27.5544   14.7930 C   0  0  0  0  0  0  0  0  0  0  0  0
   39.0835  -28.2171   14.2003 C   0  0  0  0  0  0  0  0  0  0  0  0
   38.8525  -29.4152   14.7668 C   0  0  0  0  0  0  0  0  0  0  0  0
   39.6562  -29.7759   15.8032 C   0  0  0  0  0  0  0  0  0  0  0  0
   40.7597  -28.4839   16.0130 S   0  0  0  0  0  0  0  0  0  0  0  0
   37.9941  -22.6372   15.0040 C   0  0  0  0  0  0  0  0  0  0  0  0
   38.3904  -20.1378   13.4518 C   0  0  0  0  0  0  0  0  0  0  0  0
   37.0072  -20.7517   13.8495 C   0  0  0  0  0  0  0  0  0  0  0  0
   35.9226  -20.3893   12.8236 C   0  0  0  0  0  0  0  0  0  0  0  0
   36.1112  -21.0514   11.5479 O   0  0  0  0  0  0  0  0  0  0  0  0
   36.3564  -22.4813   11.6005 C   0  0  0  0  0  0  0  0  0  0  0  0
   37.4594  -22.7463   12.6453 C   0  0  0  0  0  0  0  0  0  0  0  0
   37.0475  -22.2198   13.9523 N   0  0  0  0  0  0  0  0  0  0  0  0
 34 33  1  0  0  0
 34 35  1  0  0  0
 33 32  1  0  0  0
 35 36  1  0  0  0
 23 21  2  0  0  0
 32 31  1  0  0  0
 30 31  1  0  0  0
 31 36  1  0  0  0
 36 29  1  0  0  0
 25 24  2  0  0  0
 25 26  1  0  0  0
 21 22  2  0  0  0
 21 24  1  0  0  0
 21  3  1  0  0  0
 24 28  1  0  0  0
 26 27  2  0  0  0
 29  1  1  0  0  0
  3  2  1  0  0  0
  3  4  1  0  0  0
  2  1  1  0  0  0
  1  6  1  0  0  0
 27 28  1  0  0  0
  4  5  1  0  0  0
  6  5  1  0  0  0
  6  7  1  0  0  0
 10  7  2  0  0  0
 10 11  1  0  0  0
  7  8  1  0  0  0
 11 12  2  0  0  0
  8  9  2  0  0  0
 12  9  1  0  0  0
 12 13  1  0  0  0
 15 13  1  0  0  0
 13 14  1  0  0  0
 13 17  1  0  0  0
 20 17  1  0  0  0
 17 18  1  0  0  0
 17 19  1  0  0  0
 15 16  1  0  0  0
M  END
> <minimizedAffinity>
-12.22373

$$$$
4LY9_1YY_A_714


 36 39  0  0  0  0  0  0  0  0999 V2000
   37.7039  -23.6611   15.5446 C   0  0  0  0  0  0  0  0  0  0  0  0
   38.2244  -24.8673   14.6876 C   0  0  0  0  0  0  0  0  0  0  0  0
   39.7011  -24.8303   14.5553 N   0  0  0  0  0  0  0  0  0  0  0  0
   40.1633  -25.2201   15.8640 C   0  0  0  0  0  0  0  0  0  0  0  0
   39.6178  -24.3028   16.9694 C   0  0  0  0  0  0  0  0  0  0  0  0
   38.2802  -23.7814   16.8314 N   0  0  0  0  0  0  0  0  0  0  0  0
   37.7230  -23.0992   17.9065 C   0  0  0  0  0  0  0  0  0  0  0  0
   36.3801  -22.7489   17.8828 C   0  0  0  0  0  0  0  0  0  0  0  0
   35.7932  -22.0744   18.9258 C   0  0  0  0  0  0  0  0  0  0  0  0
   38.4564  -22.7429   19.0072 C   0  0  0  0  0  0  0  0  0  0  0  0
   37.8937  -22.0674   20.0791 C   0  0  0  0  0  0  0  0  0  0  0  0
   36.5645  -21.7302   20.0332 C   0  0  0  0  0  0  0  0  0  0  0  0
   35.9112  -21.0225   21.1833 C   0  0  0  0  0  0  0  0  0  0  0  0
   34.4611  -21.4970   21.1445 C   0  0  0  0  0  0  0  0  0  0  0  0
   36.5689  -21.3857   22.3669 O   0  0  0  0  0  0  0  0  0  0  0  0
   36.5863  -22.3525   22.4436 H   0  0  0  0  0  0  0  0  0  0  0  0
   35.8810  -19.5328   21.0590 C   0  0  0  0  0  0  0  0  0  0  0  0
   35.4311  -19.1730   19.8412 F   0  0  0  0  0  0  0  0  0  0  0  0
   37.1437  -19.0643   21.2596 F   0  0  0  0  0  0  0  0  0  0  0  0
   35.0049  -19.1126   21.9235 F   0  0  0  0  0  0  0  0  0  0  0  0
   40.2211  -25.8575   13.4353 S   0  0  0  0  0  0  0  0  0  0  0  0
   41.3638  -26.6383   13.9752 O   0  0  0  0  0  0  0  0  0  0  0  0
   40.4736  -25.0382   12.2174 O   0  0  0  0  0  0  0  0  0  0  0  0
   38.9800  -26.9996   13.0002 C   0  0  0  0  0  0  0  0  0  0  0  0
   38.5932  -28.0825   13.6941 C   0  0  0  0  0  0  0  0  0  0  0  0
   37.6442  -28.7906   13.0555 C   0  0  0  0  0  0  0  0  0  0  0  0
   37.2158  -28.3123   11.8564 C   0  0  0  0  0  0  0  0  0  0  0  0
   38.0951  -26.8685   11.5858 S   0  0  0  0  0  0  0  0  0  0  0  0
   38.3127  -22.3440   15.0196 C   0  0  0  0  0  0  0  0  0  0  0  0
   38.6747  -21.6409   12.1581 C   0  0  0  0  0  0  0  0  0  0  0  0
   38.0567  -20.7089   13.2523 C   0  0  0  0  0  0  0  0  0  0  0  0
   37.0410  -19.7316   12.6411 C   0  0  0  0  0  0  0  0  0  0  0  0
   35.8314  -20.3886   12.1868 O   0  0  0  0  0  0  0  0  0  0  0  0
   35.2100  -21.3039   13.1270 C   0  0  0  0  0  0  0  0  0  0  0  0
   36.2993  -22.2460   13.6787 C   0  0  0  0  0  0  0  0  0  0  0  0
   37.3656  -21.4611   14.3127 N   0  0  0  0  0  0  0  0  0  0  0  0
 34 33  1  0  0  0
 34 35  1  0  0  0
 33 32  1  0  0  0
 35 36  1  0  0  0
 23 21  2  0  0  0
 32 31  1  0  0  0
 30 31  1  0  0  0
 31 36  1  0  0  0
 36 29  1  0  0  0
 25 24  2  0  0  0
 25 26  1  0  0  0
 21 22  2  0  0  0
 21 24  1  0  0  0
 21  3  1  0  0  0
 24 28  1  0  0  0
 26 27  2  0  0  0
 29  1  1  0  0  0
  3  2  1  0  0  0
  3  4  1  0  0  0
  2  1  1  0  0  0
  1  6  1  0  0  0
 27 28  1  0  0  0
  4  5  1  0  0  0
  6  5  1  0  0  0
  6  7  1  0  0  0
 10  7  2  0  0  0
 10 11  1  0  0  0
  7  8  1  0  0  0
 11 12  2  0  0  0
  8  9  2  0  0  0
 12  9  1  0  0  0
 12 13  1  0  0  0
 15 13  1  0  0  0
 13 14  1  0  0  0
 13 17  1  0  0  0
 20 17  1  0  0  0
 17 18  1  0  0  0
 17 19  1  0  0  0
 15 16  1  0  0  0
M  END
> <minimizedAffinity>
-12.20912

$$$$
4LY9_1YY_A_714


 36 39  0  0  0  0  0  0  0  0999 V2000
   37.6705  -23.3271   15.4887 C   0  0  0  0  0  0  0  0  0  0  0  0
   37.5924  -23.3534   13.9224 C   0  0  0  0  0  0  0  0  0  0  0  0
   36.6231  -24.3731   13.4532 N   0  0  0  0  0  0  0  0  0  0  0  0
   35.3440  -23.7882   13.7694 C   0  0  0  0  0  0  0  0  0  0  0  0
   35.2131  -23.4508   15.2627 C   0  0  0  0  0  0  0  0  0  0  0  0
   36.3829  -22.9866   15.9671 N   0  0  0  0  0  0  0  0  0  0  0  0
   36.2286  -22.5157   17.2655 C   0  0  0  0  0  0  0  0  0  0  0  0
   35.1735  -21.6681   17.5734 C   0  0  0  0  0  0  0  0  0  0  0  0
   34.9876  -21.1818   18.8448 C   0  0  0  0  0  0  0  0  0  0  0  0
   37.0932  -22.8511   18.2738 C   0  0  0  0  0  0  0  0  0  0  0  0
   36.9308  -22.3828   19.5685 C   0  0  0  0  0  0  0  0  0  0  0  0
   35.8813  -21.5449   19.8494 C   0  0  0  0  0  0  0  0  0  0  0  0
   35.6552  -21.0372   21.2428 C   0  0  0  0  0  0  0  0  0  0  0  0
   34.1666  -21.2655   21.4912 C   0  0  0  0  0  0  0  0  0  0  0  0
   36.4693  -21.7631   22.1235 O   0  0  0  0  0  0  0  0  0  0  0  0
   36.3061  -22.7121   22.0070 H   0  0  0  0  0  0  0  0  0  0  0  0
   35.9020  -19.5729   21.4174 C   0  0  0  0  0  0  0  0  0  0  0  0
   35.9751  -18.9634   20.2182 F   0  0  0  0  0  0  0  0  0  0  0  0
   37.0674  -19.4177   22.1043 F   0  0  0  0  0  0  0  0  0  0  0  0
   34.8524  -19.0956   22.0191 F   0  0  0  0  0  0  0  0  0  0  0  0
   36.7577  -24.6357   11.8743 S   0  0  0  0  0  0  0  0  0  0  0  0
   37.8937  -25.5597   11.6235 O   0  0  0  0  0  0  0  0  0  0  0  0
   36.8255  -23.2890   11.2420 O   0  0  0  0  0  0  0  0  0  0  0  0
   35.3272  -25.3975   11.2361 C   0  0  0  0  0  0  0  0  0  0  0  0
   34.4225  -24.8578   10.4029 C   0  0  0  0  0  0  0  0  0  0  0  0
   33.4008  -25.6932   10.1422 C   0  0  0  0  0  0  0  0  0  0  0  0
   33.4431  -26.9235   10.7209 C   0  0  0  0  0  0  0  0  0  0  0  0
   34.8970  -26.9676   11.6238 S   0  0  0  0  0  0  0  0  0  0  0  0
   37.8672  -24.7596   16.0276 C   0  0  0  0  0  0  0  0  0  0  0  0
   40.6849  -24.9231   16.9481 C   0  0  0  0  0  0  0  0  0  0  0  0
   40.2112  -24.9666   15.4576 C   0  0  0  0  0  0  0  0  0  0  0  0
   41.1815  -25.7822   14.5895 C   0  0  0  0  0  0  0  0  0  0  0  0
   41.1445  -27.2007   14.8854 O   0  0  0  0  0  0  0  0  0  0  0  0
   39.8264  -27.8063   14.9464 C   0  0  0  0  0  0  0  0  0  0  0  0
   38.9296  -26.9270   15.8415 C   0  0  0  0  0  0  0  0  0  0  0  0
   38.8730  -25.5615   15.3055 N   0  0  0  0  0  0  0  0  0  0  0  0
 34 33  1  0  0  0
 34 35  1  0  0  0
 33 32  1  0  0  0
 35 36  1  0  0  0
 23 21  2  0  0  0
 32 31  1  0  0  0
 30 31  1  0  0  0
 31 36  1  0  0  0
 36 29  1  0  0  0
 25 24  2  0  0  0
 25 26  1  0  0  0
 21 22  2  0  0  0
 21 24  1  0  0  0
 21  3  1  0  0  0
 24 28  1  0  0  0
 26 27  2  0  0  0
 29  1  1  0  0  0
  3  2  1  0  0  0
  3  4  1  0  0  0
  2  1  1  0  0  0
  1  6  1  0  0  0
 27 28  1  0  0  0
  4  5  1  0  0  0
  6  5  1  0  0  0
  6  7  1  0  0  0
 10  7  2  0  0  0
 10 11  1  0  0  0
  7  8  1  0  0  0
 11 12  2  0  0  0
  8  9  2  0  0  0
 12  9  1  0  0  0
 12 13  1  0  0  0
 15 13  1  0  0  0
 13 14  1  0  0  0
 13 17  1  0  0  0
 20 17  1  0  0  0
 17 18  1  0  0  0
 17 19  1  0  0  0
 15 16  1  0  0  0
M  END
> <minimizedAffinity>
-10.82782

$$$$
4LY9_1YY_A_714


 36 39  0  0  0  0  0  0  0  0999 V2000
   37.0277  -23.7720   15.2195 C   0  0  0  0  0  0  0  0  0  0  0  0
   37.3549  -25.0411   14.3578 C   0  0  0  0  0  0  0  0  0  0  0  0
   38.8191  -25.2509   14.2509 N   0  0  0  0  0  0  0  0  0  0  0  0
   39.1852  -25.7236   15.5627 C   0  0  0  0  0  0  0  0  0  0  0  0
   38.7804  -24.7373   16.6691 C   0  0  0  0  0  0  0  0  0  0  0  0
   37.5517  -23.9980   16.5145 N   0  0  0  0  0  0  0  0  0  0  0  0
   37.0967  -23.2412   17.5876 C   0  0  0  0  0  0  0  0  0  0  0  0
   35.8282  -22.6789   17.5494 C   0  0  0  0  0  0  0  0  0  0  0  0
   35.3430  -21.9247   18.5901 C   0  0  0  0  0  0  0  0  0  0  0  0
   37.8623  -23.0142   18.7006 C   0  0  0  0  0  0  0  0  0  0  0  0
   37.4008  -22.2631   19.7706 C   0  0  0  0  0  0  0  0  0  0  0  0
   36.1441  -21.7157   19.7101 C   0  0  0  0  0  0  0  0  0  0  0  0
   35.5972  -20.9187   20.8574 C   0  0  0  0  0  0  0  0  0  0  0  0
   34.4761  -20.0874   20.2396 C   0  0  0  0  0  0  0  0  0  0  0  0
   35.1362  -21.8047   21.8412 O   0  0  0  0  0  0  0  0  0  0  0  0
   34.5076  -22.4285   21.4455 H   0  0  0  0  0  0  0  0  0  0  0  0
   36.5671  -19.9540   21.4609 C   0  0  0  0  0  0  0  0  0  0  0  0
   35.9122  -18.9130   22.0109 F   0  0  0  0  0  0  0  0  0  0  0  0
   37.4067  -19.5253   20.4785 F   0  0  0  0  0  0  0  0  0  0  0  0
   37.1529  -20.5871   22.4343 F   0  0  0  0  0  0  0  0  0  0  0  0
   39.1806  -26.3412   13.1282 S   0  0  0  0  0  0  0  0  0  0  0  0
   39.8308  -27.5126   13.7701 O   0  0  0  0  0  0  0  0  0  0  0  0
   39.9639  -25.6135   12.0914 O   0  0  0  0  0  0  0  0  0  0  0  0
   37.7471  -26.9248   12.3292 C   0  0  0  0  0  0  0  0  0  0  0  0
   37.1255  -28.0983   12.5307 C   0  0  0  0  0  0  0  0  0  0  0  0
   36.0729  -28.2701   11.7108 C   0  0  0  0  0  0  0  0  0  0  0  0
   35.7895  -27.2591   10.8460 C   0  0  0  0  0  0  0  0  0  0  0  0
   36.9531  -26.0409   11.1507 S   0  0  0  0  0  0  0  0  0  0  0  0
   37.8580  -22.5711   14.7200 C   0  0  0  0  0  0  0  0  0  0  0  0
   38.3025  -21.7795   11.8934 C   0  0  0  0  0  0  0  0  0  0  0  0
   37.8733  -20.8176   13.0505 C   0  0  0  0  0  0  0  0  0  0  0  0
   37.0391  -19.6432   12.5165 C   0  0  0  0  0  0  0  0  0  0  0  0
   35.7265  -20.0496   12.0548 O   0  0  0  0  0  0  0  0  0  0  0  0
   34.9649  -20.8937   12.9576 C   0  0  0  0  0  0  0  0  0  0  0  0
   35.8769  -22.0431   13.4325 C   0  0  0  0  0  0  0  0  0  0  0  0
   37.0734  -21.4960   14.0838 N   0  0  0  0  0  0  0  0  0  0  0  0
 34 33  1  0  0  0
 34 35  1  0  0  0
 33 32  1  0  0  0
 35 36  1  0  0  0
 23 21  2  0  0  0
 32 31  1  0  0  0
 30 31  1  0  0  0
 31 36  1  0  0  0
 36 29  1  0  0  0
 25 24  2  0  0  0
 25 26  1  0  0  0
 21 22  2  0  0  0
 21 24  1  0  0  0
 21  3  1  0  0  0
 24 28  1  0  0  0
 26 27  2  0  0  0
 29  1  1  0  0  0
  3  2  1  0  0  0
  3  4  1  0  0  0
  2  1  1  0  0  0
  1  6  1  0  0  0
 27 28  1  0  0  0
  4  5  1  0  0  0
  6  5  1  0  0  0
  6  7  1  0  0  0
 10  7  2  0  0  0
 10 11  1  0  0  0
  7  8  1  0  0  0
 11 12  2  0  0  0
  8  9  2  0  0  0
 12  9  1  0  0  0
 12 13  1  0  0  0
 15 13  1  0  0  0
 13 14  1  0  0  0
 13 17  1  0  0  0
 20 17  1  0  0  0
 17 18  1  0  0  0
 17 19  1  0  0  0
 15 16  1  0  0  0
M  END
> <minimizedAffinity>
-10.37972

$$$$
4LY9_1YY_A_714


 36 39  0  0  0  0  0  0  0  0999 V2000
   37.2108  -23.2423   15.4356 C   0  0  0  0  0  0  0  0  0  0  0  0
   37.0475  -23.2365   13.8756 C   0  0  0  0  0  0  0  0  0  0  0  0
   35.9257  -24.1096   13.4531 N   0  0  0  0  0  0  0  0  0  0  0  0
   34.7560  -23.3619   13.8416 C   0  0  0  0  0  0  0  0  0  0  0  0
   34.7509  -23.0303   15.3419 C   0  0  0  0  0  0  0  0  0  0  0  0
   36.0083  -22.7378   15.9850 N   0  0  0  0  0  0  0  0  0  0  0  0
   35.9878  -22.2681   17.2929 C   0  0  0  0  0  0  0  0  0  0  0  0
   35.0895  -21.2747   17.6574 C   0  0  0  0  0  0  0  0  0  0  0  0
   35.0390  -20.7846   18.9398 C   0  0  0  0  0  0  0  0  0  0  0  0
   36.8368  -22.7458   18.2559 C   0  0  0  0  0  0  0  0  0  0  0  0
   36.8078  -22.2774   19.5604 C   0  0  0  0  0  0  0  0  0  0  0  0
   35.9124  -21.2940   19.8976 C   0  0  0  0  0  0  0  0  0  0  0  0
   35.8310  -20.7785   21.3041 C   0  0  0  0  0  0  0  0  0  0  0  0
   34.5257  -19.9883   21.3420 C   0  0  0  0  0  0  0  0  0  0  0  0
   35.8296  -21.8701   22.1838 O   0  0  0  0  0  0  0  0  0  0  0  0
   35.1208  -22.4841   21.9360 H   0  0  0  0  0  0  0  0  0  0  0  0
   36.9217  -19.8278   21.6806 C   0  0  0  0  0  0  0  0  0  0  0  0
   37.7496  -20.3959   22.5788 F   0  0  0  0  0  0  0  0  0  0  0  0
   36.3480  -18.7079   22.2010 F   0  0  0  0  0  0  0  0  0  0  0  0
   37.6185  -19.6263   20.6011 F   0  0  0  0  0  0  0  0  0  0  0  0
   35.9402  -24.3665   11.8675 S   0  0  0  0  0  0  0  0  0  0  0  0
   37.0633  -23.6103   11.2560 O   0  0  0  0  0  0  0  0  0  0  0  0
   34.5663  -24.0455   11.3906 O   0  0  0  0  0  0  0  0  0  0  0  0
   36.1971  -26.0501   11.5023 C   0  0  0  0  0  0  0  0  0  0  0  0
   36.1914  -27.0787   12.3660 C   0  0  0  0  0  0  0  0  0  0  0  0
   36.4791  -28.2508   11.7717 C   0  0  0  0  0  0  0  0  0  0  0  0
   36.7032  -28.2269   10.4303 C   0  0  0  0  0  0  0  0  0  0  0  0
   36.5072  -26.5951    9.9508 S   0  0  0  0  0  0  0  0  0  0  0  0
   37.2399  -24.6954   15.9540 C   0  0  0  0  0  0  0  0  0  0  0  0
   39.1798  -25.9433   14.0849 C   0  0  0  0  0  0  0  0  0  0  0  0
   39.0093  -26.3089   15.5967 C   0  0  0  0  0  0  0  0  0  0  0  0
   40.3290  -26.8158   16.1982 C   0  0  0  0  0  0  0  0  0  0  0  0
   41.3274  -25.7724   16.3238 O   0  0  0  0  0  0  0  0  0  0  0  0
   40.8849  -24.5362   16.9431 C   0  0  0  0  0  0  0  0  0  0  0  0
   39.5655  -24.1028   16.2724 C   0  0  0  0  0  0  0  0  0  0  0  0
   38.5620  -25.1655   16.4092 N   0  0  0  0  0  0  0  0  0  0  0  0
 34 33  1  0  0  0
 34 35  1  0  0  0
 33 32  1  0  0  0
 35 36  1  0  0  0
 23 21  2  0  0  0
 32 31  1  0  0  0
 30 31  1  0  0  0
 31 36  1  0  0  0
 36 29  1  0  0  0
 25 24  2  0  0  0
 25 26  1  0  0  0
 21 22  2  0  0  0
 21 24  1  0  0  0
 21  3  1  0  0  0
 24 28  1  0  0  0
 26 27  2  0  0  0
 29  1  1  0  0  0
  3  2  1  0  0  0
  3  4  1  0  0  0
  2  1  1  0  0  0
  1  6  1  0  0  0
 27 28  1  0  0  0
  4  5  1  0  0  0
  6  5  1  0  0  0
  6  7  1  0  0  0
 10  7  2  0  0  0
 10 11  1  0  0  0
  7  8  1  0  0  0
 11 12  2  0  0  0
  8  9  2  0  0  0
 12  9  1  0  0  0
 12 13  1  0  0  0
 15 13  1  0  0  0
 13 14  1  0  0  0
 13 17  1  0  0  0
 20 17  1  0  0  0
 17 18  1  0  0  0
 17 19  1  0  0  0
 15 16  1  0  0  0
M  END
> <minimizedAffinity>
-10.33211

$$$$
4LY9_1YY_A_714


 36 39  0  0  0  0  0  0  0  0999 V2000
   37.7880  -23.8830   15.1811 C   0  0  0  0  0  0  0  0  0  0  0  0
   37.6037  -23.8928   13.6235 C   0  0  0  0  0  0  0  0  0  0  0  0
   36.4742  -24.7674   13.2250 N   0  0  0  0  0  0  0  0  0  0  0  0
   35.3117  -24.0127   13.6214 C   0  0  0  0  0  0  0  0  0  0  0  0
   35.3276  -23.6656   15.1181 C   0  0  0  0  0  0  0  0  0  0  0  0
   36.5941  -23.3697   15.7413 N   0  0  0  0  0  0  0  0  0  0  0  0
   36.5923  -22.8865   17.0444 C   0  0  0  0  0  0  0  0  0  0  0  0
   37.6666  -23.1519   17.8824 C   0  0  0  0  0  0  0  0  0  0  0  0
   37.7014  -22.6918   19.1764 C   0  0  0  0  0  0  0  0  0  0  0  0
   35.5533  -22.1519   17.5516 C   0  0  0  0  0  0  0  0  0  0  0  0
   35.5597  -21.6676   18.8505 C   0  0  0  0  0  0  0  0  0  0  0  0
   36.6316  -21.9436   19.6614 C   0  0  0  0  0  0  0  0  0  0  0  0
   36.6894  -21.4161   21.0645 C   0  0  0  0  0  0  0  0  0  0  0  0
   35.2263  -21.2635   21.4715 C   0  0  0  0  0  0  0  0  0  0  0  0
   37.3809  -22.3377   21.8632 O   0  0  0  0  0  0  0  0  0  0  0  0
   36.9711  -23.2125   21.7762 H   0  0  0  0  0  0  0  0  0  0  0  0
   37.3163  -20.0649   21.1942 C   0  0  0  0  0  0  0  0  0  0  0  0
   36.5328  -19.1280   20.6256 F   0  0  0  0  0  0  0  0  0  0  0  0
   38.5345  -20.1020   20.5870 F   0  0  0  0  0  0  0  0  0  0  0  0
   37.3547  -19.8017   22.4673 F   0  0  0  0  0  0  0  0  0  0  0  0
   36.4668  -25.0407   11.6422 S   0  0  0  0  0  0  0  0  0  0  0  0
   37.5792  -25.9625   11.2960 O   0  0  0  0  0  0  0  0  0  0  0  0
   36.4719  -23.6982   10.9974 O   0  0  0  0  0  0  0  0  0  0  0  0
   34.9875  -25.8116   11.1409 C   0  0  0  0  0  0  0  0  0  0  0  0
   34.5139  -27.0015   11.5457 C   0  0  0  0  0  0  0  0  0  0  0  0
   33.3686  -27.3373   10.9251 C   0  0  0  0  0  0  0  0  0  0  0  0
   32.8652  -26.4465   10.0288 C   0  0  0  0  0  0  0  0  0  0  0  0
   33.9453  -25.1182   10.0301 S   0  0  0  0  0  0  0  0  0  0  0  0
   37.8204  -25.3307   15.7140 C   0  0  0  0  0  0  0  0  0  0  0  0
   38.7462  -27.6512   14.1103 C   0  0  0  0  0  0  0  0  0  0  0  0
   39.1622  -27.3420   15.5866 C   0  0  0  0  0  0  0  0  0  0  0  0
   40.5657  -27.8860   15.8941 C   0  0  0  0  0  0  0  0  0  0  0  0
   41.6137  -27.1620   15.2021 O   0  0  0  0  0  0  0  0  0  0  0  0
   41.5576  -25.7142   15.2938 C   0  0  0  0  0  0  0  0  0  0  0  0
   40.1207  -25.2625   14.9623 C   0  0  0  0  0  0  0  0  0  0  0  0
   39.1710  -25.8998   15.8825 N   0  0  0  0  0  0  0  0  0  0  0  0
 34 33  1  0  0  0
 34 35  1  0  0  0
 33 32  1  0  0  0
 35 36  1  0  0  0
 23 21  2  0  0  0
 32 31  1  0  0  0
 30 31  1  0  0  0
 31 36  1  0  0  0
 36 29  1  0  0  0
 25 24  2  0  0  0
 25 26  1  0  0  0
 21 22  2  0  0  0
 21 24  1  0  0  0
 21  3  1  0  0  0
 24 28  1  0  0  0
 26 27  2  0  0  0
 29  1  1  0  0  0
  3  2  1  0  0  0
  3  4  1  0  0  0
  2  1  1  0  0  0
  1  6  1  0  0  0
 27 28  1  0  0  0
  4  5  1  0  0  0
  6  5  1  0  0  0
  6  7  1  0  0  0
 10  7  2  0  0  0
 10 11  1  0  0  0
  7  8  1  0  0  0
 11 12  2  0  0  0
  8  9  2  0  0  0
 12  9  1  0  0  0
 12 13  1  0  0  0
 15 13  1  0  0  0
 13 14  1  0  0  0
 13 17  1  0  0  0
 20 17  1  0  0  0
 17 18  1  0  0  0
 17 19  1  0  0  0
 15 16  1  0  0  0
M  END
> <minimizedAffinity>
-10.32517

$$$$
4LY9_1YY_A_714


 36 39  0  0  0  0  0  0  0  0999 V2000
   35.2734  -26.3036   11.9057 C   0  0  0  0  0  0  0  0  0  0  0  0
   34.1576  -26.8242   10.9340 C   0  0  0  0  0  0  0  0  0  0  0  0
   34.4022  -26.3647    9.5453 N   0  0  0  0  0  0  0  0  0  0  0  0
   35.5183  -27.1712    9.1185 C   0  0  0  0  0  0  0  0  0  0  0  0
   36.7343  -27.0162   10.0449 C   0  0  0  0  0  0  0  0  0  0  0  0
   36.5036  -26.8405   11.4577 N   0  0  0  0  0  0  0  0  0  0  0  0
   37.5969  -26.8765   12.3150 C   0  0  0  0  0  0  0  0  0  0  0  0
   38.5521  -25.8709   12.2610 C   0  0  0  0  0  0  0  0  0  0  0  0
   39.6464  -25.8716   13.0915 C   0  0  0  0  0  0  0  0  0  0  0  0
   37.7818  -27.8846   13.2239 C   0  0  0  0  0  0  0  0  0  0  0  0
   38.8715  -27.9121   14.0805 C   0  0  0  0  0  0  0  0  0  0  0  0
   39.8039  -26.9081   14.0083 C   0  0  0  0  0  0  0  0  0  0  0  0
   40.9833  -26.8869   14.9351 C   0  0  0  0  0  0  0  0  0  0  0  0
   41.1135  -28.3301   15.4143 C   0  0  0  0  0  0  0  0  0  0  0  0
   42.1080  -26.4490   14.2217 O   0  0  0  0  0  0  0  0  0  0  0  0
   42.2240  -26.9993   13.4314 H   0  0  0  0  0  0  0  0  0  0  0  0
   40.7988  -26.0424   16.1550 C   0  0  0  0  0  0  0  0  0  0  0  0
   39.5203  -25.6285   16.2498 F   0  0  0  0  0  0  0  0  0  0  0  0
   41.6409  -24.9761   16.0647 F   0  0  0  0  0  0  0  0  0  0  0  0
   41.0193  -26.8204   17.1736 F   0  0  0  0  0  0  0  0  0  0  0  0
   33.1236  -26.6138    8.6054 S   0  0  0  0  0  0  0  0  0  0  0  0
   33.4939  -27.5408    7.5052 O   0  0  0  0  0  0  0  0  0  0  0  0
   32.6335  -25.2618    8.2182 O   0  0  0  0  0  0  0  0  0  0  0  0
   31.8244  -27.3631    9.4913 C   0  0  0  0  0  0  0  0  0  0  0  0
   31.9306  -28.2565   10.4886 C   0  0  0  0  0  0  0  0  0  0  0  0
   30.7323  -28.6844   10.9253 C   0  0  0  0  0  0  0  0  0  0  0  0
   29.6302  -28.1532   10.3309 C   0  0  0  0  0  0  0  0  0  0  0  0
   30.2144  -27.0402    9.1687 S   0  0  0  0  0  0  0  0  0  0  0  0
   35.4719  -24.7858   11.7104 C   0  0  0  0  0  0  0  0  0  0  0  0
   36.1936  -21.9068   11.7746 C   0  0  0  0  0  0  0  0  0  0  0  0
   36.3405  -22.9081   12.9680 C   0  0  0  0  0  0  0  0  0  0  0  0
   36.2091  -22.1868   14.3181 C   0  0  0  0  0  0  0  0  0  0  0  0
   34.8625  -21.7160   14.5756 O   0  0  0  0  0  0  0  0  0  0  0  0
   33.7977  -22.6805   14.3664 C   0  0  0  0  0  0  0  0  0  0  0  0
   34.0075  -23.3439   12.9901 C   0  0  0  0  0  0  0  0  0  0  0  0
   35.3302  -23.9786   12.9370 N   0  0  0  0  0  0  0  0  0  0  0  0
 34 33  1  0  0  0
 34 35  1  0  0  0
 33 32  1  0  0  0
 35 36  1  0  0  0
 23 21  2  0  0  0
 32 31  1  0  0  0
 30 31  1  0  0  0
 31 36  1  0  0  0
 36 29  1  0  0  0
 25 24  2  0  0  0
 25 26  1  0  0  0
 21 22  2  0  0  0
 21 24  1  0  0  0
 21  3  1  0  0  0
 24 28  1  0  0  0
 26 27  2  0  0  0
 29  1  1  0  0  0
  3  2  1  0  0  0
  3  4  1  0  0  0
  2  1  1  0  0  0
  1  6  1  0  0  0
 27 28  1  0  0  0
  4  5  1  0  0  0
  6  5  1  0  0  0
  6  7  1  0  0  0
 10  7  2  0  0  0
 10 11  1  0  0  0
  7  8  1  0  0  0
 11 12  2  0  0  0
  8  9  2  0  0  0
 12  9  1  0  0  0
 12 13  1  0  0  0
 15 13  1  0  0  0
 13 14  1  0  0  0
 13 17  1  0  0  0
 20 17  1  0  0  0
 17 18  1  0  0  0
 17 19  1  0  0  0
 15 16  1  0  0  0
M  END
> <minimizedAffinity>
-9.32589

$$$$
