7UPJ_INU_A_100


 36 40  0  0  0  0  0  0  0  0999 V2000
   11.9185   24.9446    4.9668 C   0  0  0  0  0  0  0  0  0  0  0  0
   12.8903   24.0027    5.6548 C   0  0  0  0  0  0  0  0  0  0  0  0
   12.4210   22.8673    6.3853 C   0  0  0  0  0  0  0  0  0  0  0  0
   11.2538   22.6643    6.4740 O   0  0  0  0  0  0  0  0  0  0  0  0
   13.2387   22.0176    7.0404 O   0  0  0  0  0  0  0  0  0  0  0  0
   14.6113   22.3348    6.9678 C   0  0  0  0  0  0  0  0  0  0  0  0
   15.1493   23.4349    6.2835 C   0  0  0  0  0  0  0  0  0  0  0  0
   14.2643   24.2799    5.6160 C   0  0  0  0  0  0  0  0  0  0  0  0
   14.7722   25.3566    4.9436 O   0  0  0  0  0  0  0  0  0  0  0  0
   15.4622   21.3451    7.7488 C   0  0  0  0  0  0  0  0  0  0  0  0
   15.6655   21.7047    9.2050 C   0  0  0  0  0  0  0  0  0  0  0  0
   16.0022   23.1637    9.4669 C   0  0  0  0  0  0  0  0  0  0  0  0
   17.3339   23.6593    8.8582 C   0  0  0  0  0  0  0  0  0  0  0  0
   17.2323   24.4673    7.5437 C   0  0  0  0  0  0  0  0  0  0  0  0
   16.6397   23.7128    6.2845 C   0  0  0  0  0  0  0  0  0  0  0  0
   14.1964   25.9384    4.4877 H   0  0  0  0  0  0  0  0  0  0  0  0
   11.1726   25.7957    5.9621 C   0  0  0  0  0  0  0  0  0  0  0  0
   11.8374   26.2750    7.1195 C   0  0  0  0  0  0  0  0  0  0  0  0
   11.1550   27.1244    8.0088 C   0  0  0  0  0  0  0  0  0  0  0  0
    9.8300   27.5177    7.7889 C   0  0  0  0  0  0  0  0  0  0  0  0
    9.1465   27.0555    6.6323 C   0  0  0  0  0  0  0  0  0  0  0  0
    9.8265   26.1867    5.7280 C   0  0  0  0  0  0  0  0  0  0  0  0
    7.8321   27.5525    6.3499 N   0  0  0  0  0  0  0  0  0  0  0  0
    7.0409   27.2341    6.8416 H   0  0  0  0  0  0  0  0  0  0  0  0
    7.7140   28.6980    5.1450 S   0  0  0  0  0  0  0  0  0  0  0  0
    6.4492   29.3462    5.4174 O   0  0  0  0  0  0  0  0  0  0  0  0
    8.8852   29.5213    5.2529 O   0  0  0  0  0  0  0  0  0  0  0  0
    7.6080   27.7773    3.6695 C   0  0  0  0  0  0  0  0  0  0  0  0
    6.7734   26.6222    3.6499 C   0  0  0  0  0  0  0  0  0  0  0  0
    6.6873   25.8565    2.4913 C   0  0  0  0  0  0  0  0  0  0  0  0
    7.4203   26.2203    1.3414 C   0  0  0  0  0  0  0  0  0  0  0  0
    8.2523   27.3596    1.3537 C   0  0  0  0  0  0  0  0  0  0  0  0
    8.3551   28.1437    2.5105 C   0  0  0  0  0  0  0  0  0  0  0  0
   11.0509   24.2562    3.8909 C   0  0  0  0  0  0  0  0  0  0  0  0
   11.7525   23.6204    2.7014 C   0  0  0  0  0  0  0  0  0  0  0  0
   10.8784   24.8564    2.5091 C   0  0  0  0  0  0  0  0  0  0  0  0
  2  3  1  0  0  0
  2  8  2  0  0  0
  2  1  1  0  0  0
  3  4  2  0  0  0
  3  5  1  0  0  0
  5  6  1  0  0  0
  6  7  2  0  0  0
  6 10  1  0  0  0
  7  8  1  0  0  0
  7 15  1  0  0  0
  8  9  1  0  0  0
 17 18  2  0  0  0
 17 22  1  0  0  0
 17  1  1  0  0  0
 18 19  1  0  0  0
 19 20  2  0  0  0
 20 21  1  0  0  0
 21 22  2  0  0  0
 21 23  1  0  0  0
  1 34  1  0  0  0
 34 35  1  0  0  0
 34 36  1  0  0  0
 35 36  1  0  0  0
 10 11  1  0  0  0
 11 12  1  0  0  0
 12 13  1  0  0  0
 13 14  1  0  0  0
 14 15  1  0  0  0
 23 25  1  0  0  0
 25 26  2  0  0  0
 25 27  2  0  0  0
 25 28  1  0  0  0
 28 29  2  0  0  0
 28 33  1  0  0  0
 29 30  1  0  0  0
 30 31  2  0  0  0
 31 32  1  0  0  0
 32 33  2  0  0  0
  9 16  1  0  0  0
 23 24  1  0  0  0
M  END
> <minimizedAffinity>
-10.55041

$$$$
7UPJ_INU_A_100


 36 40  0  0  0  0  0  0  0  0999 V2000
   11.7719   24.9424    5.3286 C   0  0  0  0  0  0  0  0  0  0  0  0
   12.8265   23.9881    5.8596 C   0  0  0  0  0  0  0  0  0  0  0  0
   12.4556   22.8020    6.5659 C   0  0  0  0  0  0  0  0  0  0  0  0
   11.3077   22.5651    6.7590 O   0  0  0  0  0  0  0  0  0  0  0  0
   13.3519   21.9377    7.0850 O   0  0  0  0  0  0  0  0  0  0  0  0
   14.7037   22.2928    6.8940 C   0  0  0  0  0  0  0  0  0  0  0  0
   15.1481   23.4428    6.2247 C   0  0  0  0  0  0  0  0  0  0  0  0
   14.1838   24.3014    5.6998 C   0  0  0  0  0  0  0  0  0  0  0  0
   14.6000   25.4266    5.0439 O   0  0  0  0  0  0  0  0  0  0  0  0
   15.6483   21.2824    7.5266 C   0  0  0  0  0  0  0  0  0  0  0  0
   15.9912   21.5647    8.9736 C   0  0  0  0  0  0  0  0  0  0  0  0
   16.3245   23.0146    9.2853 C   0  0  0  0  0  0  0  0  0  0  0  0
   17.5778   23.5769    8.5764 C   0  0  0  0  0  0  0  0  0  0  0  0
   17.3278   24.4547    7.3281 C   0  0  0  0  0  0  0  0  0  0  0  0
   16.6253   23.7574    6.0927 C   0  0  0  0  0  0  0  0  0  0  0  0
   13.9698   26.0185    4.6827 H   0  0  0  0  0  0  0  0  0  0  0  0
   11.1907   25.7940    6.4281 C   0  0  0  0  0  0  0  0  0  0  0  0
   12.0473   26.3821    7.3932 C   0  0  0  0  0  0  0  0  0  0  0  0
   11.5054   27.2304    8.3754 C   0  0  0  0  0  0  0  0  0  0  0  0
   10.1370   27.5178    8.4338 C   0  0  0  0  0  0  0  0  0  0  0  0
    9.2609   26.9453    7.4728 C   0  0  0  0  0  0  0  0  0  0  0  0
    9.7988   26.0768    6.4773 C   0  0  0  0  0  0  0  0  0  0  0  0
    7.8812   27.3333    7.4638 N   0  0  0  0  0  0  0  0  0  0  0  0
    7.2268   26.9348    8.0821 H   0  0  0  0  0  0  0  0  0  0  0  0
    7.4431   28.4945    6.3515 S   0  0  0  0  0  0  0  0  0  0  0  0
    8.4365   29.5306    6.5351 O   0  0  0  0  0  0  0  0  0  0  0  0
    7.4328   27.8451    5.0711 O   0  0  0  0  0  0  0  0  0  0  0  0
    5.8853   29.0578    6.8917 C   0  0  0  0  0  0  0  0  0  0  0  0
    4.8086   28.1255    6.9450 C   0  0  0  0  0  0  0  0  0  0  0  0
    3.5487   28.5536    7.3519 C   0  0  0  0  0  0  0  0  0  0  0  0
    3.3366   29.9019    7.7110 C   0  0  0  0  0  0  0  0  0  0  0  0
    4.3957   30.8323    7.6567 C   0  0  0  0  0  0  0  0  0  0  0  0
    5.6720   30.4229    7.2479 C   0  0  0  0  0  0  0  0  0  0  0  0
   10.7472   24.2681    4.3909 C   0  0  0  0  0  0  0  0  0  0  0  0
   11.2613   23.6076    3.1218 C   0  0  0  0  0  0  0  0  0  0  0  0
   10.3976   24.8630    3.0407 C   0  0  0  0  0  0  0  0  0  0  0  0
  2  3  1  0  0  0
  2  8  2  0  0  0
  2  1  1  0  0  0
  3  4  2  0  0  0
  3  5  1  0  0  0
  5  6  1  0  0  0
  6  7  2  0  0  0
  6 10  1  0  0  0
  7  8  1  0  0  0
  7 15  1  0  0  0
  8  9  1  0  0  0
 17 18  2  0  0  0
 17 22  1  0  0  0
 17  1  1  0  0  0
 18 19  1  0  0  0
 19 20  2  0  0  0
 20 21  1  0  0  0
 21 22  2  0  0  0
 21 23  1  0  0  0
  1 34  1  0  0  0
 34 35  1  0  0  0
 34 36  1  0  0  0
 35 36  1  0  0  0
 10 11  1  0  0  0
 11 12  1  0  0  0
 12 13  1  0  0  0
 13 14  1  0  0  0
 14 15  1  0  0  0
 23 25  1  0  0  0
 25 26  2  0  0  0
 25 27  2  0  0  0
 25 28  1  0  0  0
 28 29  2  0  0  0
 28 33  1  0  0  0
 29 30  1  0  0  0
 30 31  2  0  0  0
 31 32  1  0  0  0
 32 33  2  0  0  0
  9 16  1  0  0  0
 23 24  1  0  0  0
M  END
> <minimizedAffinity>
-9.83297

$$$$
7UPJ_INU_A_100


 36 40  0  0  0  0  0  0  0  0999 V2000
   11.4875   24.8151    5.7740 C   0  0  0  0  0  0  0  0  0  0  0  0
   12.6564   23.8861    6.0487 C   0  0  0  0  0  0  0  0  0  0  0  0
   12.4475   22.5883    6.6102 C   0  0  0  0  0  0  0  0  0  0  0  0
   11.3472   22.2347    6.8852 O   0  0  0  0  0  0  0  0  0  0  0  0
   13.4522   21.7368    6.9027 O   0  0  0  0  0  0  0  0  0  0  0  0
   14.7469   22.2234    6.6258 C   0  0  0  0  0  0  0  0  0  0  0  0
   15.0353   23.4865    6.0877 C   0  0  0  0  0  0  0  0  0  0  0  0
   13.9629   24.3276    5.7958 C   0  0  0  0  0  0  0  0  0  0  0  0
   14.2265   25.5620    5.2703 O   0  0  0  0  0  0  0  0  0  0  0  0
   15.8221   21.2161    7.0037 C   0  0  0  0  0  0  0  0  0  0  0  0
   16.3089   21.3247    8.4328 C   0  0  0  0  0  0  0  0  0  0  0  0
   16.5796   22.7406    8.9150 C   0  0  0  0  0  0  0  0  0  0  0  0
   17.7039   23.4946    8.1688 C   0  0  0  0  0  0  0  0  0  0  0  0
   17.2556   24.5117    7.0937 C   0  0  0  0  0  0  0  0  0  0  0  0
   16.4638   23.9353    5.8500 C   0  0  0  0  0  0  0  0  0  0  0  0
   13.5215   26.1446    5.0662 H   0  0  0  0  0  0  0  0  0  0  0  0
   10.9600   24.6432    4.3727 C   0  0  0  0  0  0  0  0  0  0  0  0
   11.6568   23.8197    3.4521 C   0  0  0  0  0  0  0  0  0  0  0  0
   11.1227   23.6096    2.1682 C   0  0  0  0  0  0  0  0  0  0  0  0
    9.9151   24.1899    1.7635 C   0  0  0  0  0  0  0  0  0  0  0  0
    9.1963   25.0130    2.6715 C   0  0  0  0  0  0  0  0  0  0  0  0
    9.7333   25.2395    3.9735 C   0  0  0  0  0  0  0  0  0  0  0  0
    7.9055   25.5096    2.2956 N   0  0  0  0  0  0  0  0  0  0  0  0
    7.1272   24.9136    2.2046 H   0  0  0  0  0  0  0  0  0  0  0  0
    7.7915   27.1494    2.0206 S   0  0  0  0  0  0  0  0  0  0  0  0
    9.1324   27.5196    1.6217 O   0  0  0  0  0  0  0  0  0  0  0  0
    6.7647   27.3238    1.0324 O   0  0  0  0  0  0  0  0  0  0  0  0
    7.4215   27.8338    3.5796 C   0  0  0  0  0  0  0  0  0  0  0  0
    8.3936   28.6711    4.2003 C   0  0  0  0  0  0  0  0  0  0  0  0
    8.1329   29.2132    5.4550 C   0  0  0  0  0  0  0  0  0  0  0  0
    6.9136   28.9376    6.1102 C   0  0  0  0  0  0  0  0  0  0  0  0
    5.9478   28.1061    5.5050 C   0  0  0  0  0  0  0  0  0  0  0  0
    6.1908   27.5483    4.2427 C   0  0  0  0  0  0  0  0  0  0  0  0
   11.7401   26.2714    6.2207 C   0  0  0  0  0  0  0  0  0  0  0  0
   11.9175   26.5466    7.7053 C   0  0  0  0  0  0  0  0  0  0  0  0
   10.6861   27.0649    6.9681 C   0  0  0  0  0  0  0  0  0  0  0  0
  2  3  1  0  0  0
  2  8  2  0  0  0
  2  1  1  0  0  0
  3  4  2  0  0  0
  3  5  1  0  0  0
  5  6  1  0  0  0
  6  7  2  0  0  0
  6 10  1  0  0  0
  7  8  1  0  0  0
  7 15  1  0  0  0
  8  9  1  0  0  0
 17 18  2  0  0  0
 17 22  1  0  0  0
 17  1  1  0  0  0
 18 19  1  0  0  0
 19 20  2  0  0  0
 20 21  1  0  0  0
 21 22  2  0  0  0
 21 23  1  0  0  0
  1 34  1  0  0  0
 34 35  1  0  0  0
 34 36  1  0  0  0
 35 36  1  0  0  0
 10 11  1  0  0  0
 11 12  1  0  0  0
 12 13  1  0  0  0
 13 14  1  0  0  0
 14 15  1  0  0  0
 23 25  1  0  0  0
 25 26  2  0  0  0
 25 27  2  0  0  0
 25 28  1  0  0  0
 28 29  2  0  0  0
 28 33  1  0  0  0
 29 30  1  0  0  0
 30 31  2  0  0  0
 31 32  1  0  0  0
 32 33  2  0  0  0
  9 16  1  0  0  0
 23 24  1  0  0  0
M  END
> <minimizedAffinity>
-9.43728

$$$$
7UPJ_INU_A_100


 36 40  0  0  0  0  0  0  0  0999 V2000
   11.5384   24.9711    5.8936 C   0  0  0  0  0  0  0  0  0  0  0  0
   12.6743   23.9844    6.0966 C   0  0  0  0  0  0  0  0  0  0  0  0
   12.4282   22.6784    6.6228 C   0  0  0  0  0  0  0  0  0  0  0  0
   11.3235   22.3627    6.9248 O   0  0  0  0  0  0  0  0  0  0  0  0
   13.4041   21.7756    6.8519 O   0  0  0  0  0  0  0  0  0  0  0  0
   14.7087   22.2159    6.5454 C   0  0  0  0  0  0  0  0  0  0  0  0
   15.0335   23.4831    6.0387 C   0  0  0  0  0  0  0  0  0  0  0  0
   13.9896   24.3784    5.8122 C   0  0  0  0  0  0  0  0  0  0  0  0
   14.2888   25.6177    5.3180 O   0  0  0  0  0  0  0  0  0  0  0  0
   15.7511   21.1517    6.8523 C   0  0  0  0  0  0  0  0  0  0  0  0
   16.2903   21.1910    8.2662 C   0  0  0  0  0  0  0  0  0  0  0  0
   16.6386   22.5770    8.7841 C   0  0  0  0  0  0  0  0  0  0  0  0
   17.7688   23.3075    8.0235 C   0  0  0  0  0  0  0  0  0  0  0  0
   17.3292   24.3785    6.9984 C   0  0  0  0  0  0  0  0  0  0  0  0
   16.4714   23.8787    5.7654 C   0  0  0  0  0  0  0  0  0  0  0  0
   13.6034   26.2362    5.1578 H   0  0  0  0  0  0  0  0  0  0  0  0
   11.0822   25.0035    4.4575 C   0  0  0  0  0  0  0  0  0  0  0  0
   10.9688   23.7943    3.7253 C   0  0  0  0  0  0  0  0  0  0  0  0
   10.4777   23.8254    2.4078 C   0  0  0  0  0  0  0  0  0  0  0  0
   10.0925   25.0197    1.7882 C   0  0  0  0  0  0  0  0  0  0  0  0
   10.1908   26.2424    2.5051 C   0  0  0  0  0  0  0  0  0  0  0  0
   10.6956   26.2233    3.8391 C   0  0  0  0  0  0  0  0  0  0  0  0
    9.6870   27.4454    1.9108 N   0  0  0  0  0  0  0  0  0  0  0  0
   10.0565   27.8028    1.0712 H   0  0  0  0  0  0  0  0  0  0  0  0
    8.4425   28.2073    2.7161 S   0  0  0  0  0  0  0  0  0  0  0  0
    8.8749   28.1940    4.0970 O   0  0  0  0  0  0  0  0  0  0  0  0
    8.2988   29.5001    2.1086 O   0  0  0  0  0  0  0  0  0  0  0  0
    7.0715   27.1521    2.5091 C   0  0  0  0  0  0  0  0  0  0  0  0
    6.7580   26.6979    1.1951 C   0  0  0  0  0  0  0  0  0  0  0  0
    5.6556   25.8720    0.9984 C   0  0  0  0  0  0  0  0  0  0  0  0
    4.8522   25.4846    2.0921 C   0  0  0  0  0  0  0  0  0  0  0  0
    5.1527   25.9334    3.3955 C   0  0  0  0  0  0  0  0  0  0  0  0
    6.2570   26.7673    3.6156 C   0  0  0  0  0  0  0  0  0  0  0  0
   11.7935   26.3468    6.5466 C   0  0  0  0  0  0  0  0  0  0  0  0
   12.0680   26.3923    8.0412 C   0  0  0  0  0  0  0  0  0  0  0  0
   10.7788   26.9823    7.4771 C   0  0  0  0  0  0  0  0  0  0  0  0
  2  3  1  0  0  0
  2  8  2  0  0  0
  2  1  1  0  0  0
  3  4  2  0  0  0
  3  5  1  0  0  0
  5  6  1  0  0  0
  6  7  2  0  0  0
  6 10  1  0  0  0
  7  8  1  0  0  0
  7 15  1  0  0  0
  8  9  1  0  0  0
 17 18  2  0  0  0
 17 22  1  0  0  0
 17  1  1  0  0  0
 18 19  1  0  0  0
 19 20  2  0  0  0
 20 21  1  0  0  0
 21 22  2  0  0  0
 21 23  1  0  0  0
  1 34  1  0  0  0
 34 35  1  0  0  0
 34 36  1  0  0  0
 35 36  1  0  0  0
 10 11  1  0  0  0
 11 12  1  0  0  0
 12 13  1  0  0  0
 13 14  1  0  0  0
 14 15  1  0  0  0
 23 25  1  0  0  0
 25 26  2  0  0  0
 25 27  2  0  0  0
 25 28  1  0  0  0
 28 29  2  0  0  0
 28 33  1  0  0  0
 29 30  1  0  0  0
 30 31  2  0  0  0
 31 32  1  0  0  0
 32 33  2  0  0  0
  9 16  1  0  0  0
 23 24  1  0  0  0
M  END
> <minimizedAffinity>
-9.03218

$$$$
7UPJ_INU_A_100


 36 40  0  0  0  0  0  0  0  0999 V2000
   15.2189   22.7864    6.4584 C   0  0  0  0  0  0  0  0  0  0  0  0
   13.8481   23.2543    6.0039 C   0  0  0  0  0  0  0  0  0  0  0  0
   12.6988   22.4179    6.1541 C   0  0  0  0  0  0  0  0  0  0  0  0
   12.8162   21.3328    6.6233 O   0  0  0  0  0  0  0  0  0  0  0  0
   11.4650   22.7720    5.7391 O   0  0  0  0  0  0  0  0  0  0  0  0
   11.3826   24.0389    5.1243 C   0  0  0  0  0  0  0  0  0  0  0  0
   12.4632   24.9118    4.9288 C   0  0  0  0  0  0  0  0  0  0  0  0
   13.7169   24.5038    5.3812 C   0  0  0  0  0  0  0  0  0  0  0  0
   14.7809   25.3429    5.1990 O   0  0  0  0  0  0  0  0  0  0  0  0
    9.9670   24.3534    4.6653 C   0  0  0  0  0  0  0  0  0  0  0  0
    9.6417   23.8795    3.2650 C   0  0  0  0  0  0  0  0  0  0  0  0
   10.7143   24.1596    2.2251 C   0  0  0  0  0  0  0  0  0  0  0  0
   11.0132   25.6533    1.9624 C   0  0  0  0  0  0  0  0  0  0  0  0
   12.2716   26.2351    2.6474 C   0  0  0  0  0  0  0  0  0  0  0  0
   12.2838   26.2454    4.2303 C   0  0  0  0  0  0  0  0  0  0  0  0
   15.6332   25.0899    5.4949 H   0  0  0  0  0  0  0  0  0  0  0  0
   15.8013   21.7712    5.5088 C   0  0  0  0  0  0  0  0  0  0  0  0
   15.6377   21.9377    4.1100 C   0  0  0  0  0  0  0  0  0  0  0  0
   16.2416   21.0237    3.2281 C   0  0  0  0  0  0  0  0  0  0  0  0
   17.0066   19.9454    3.6871 C   0  0  0  0  0  0  0  0  0  0  0  0
   17.1898   19.7630    5.0842 C   0  0  0  0  0  0  0  0  0  0  0  0
   16.5747   20.6793    5.9878 C   0  0  0  0  0  0  0  0  0  0  0  0
   18.0679   18.7288    5.5464 N   0  0  0  0  0  0  0  0  0  0  0  0
   17.8268   17.7765    5.4809 H   0  0  0  0  0  0  0  0  0  0  0  0
   19.5187   19.2234    6.2007 S   0  0  0  0  0  0  0  0  0  0  0  0
   20.3885   18.0855    5.9940 O   0  0  0  0  0  0  0  0  0  0  0  0
   19.8810   20.4317    5.5150 O   0  0  0  0  0  0  0  0  0  0  0  0
   19.1910   19.4242    7.9001 C   0  0  0  0  0  0  0  0  0  0  0  0
   19.0033   18.2574    8.6967 C   0  0  0  0  0  0  0  0  0  0  0  0
   18.7188   18.3895   10.0523 C   0  0  0  0  0  0  0  0  0  0  0  0
   18.6173   19.6700   10.6370 C   0  0  0  0  0  0  0  0  0  0  0  0
   18.7971   20.8302    9.8548 C   0  0  0  0  0  0  0  0  0  0  0  0
   19.0825   20.7201    8.4874 C   0  0  0  0  0  0  0  0  0  0  0  0
   15.2774   22.4139    7.9557 C   0  0  0  0  0  0  0  0  0  0  0  0
   14.5779   23.3262    8.9505 C   0  0  0  0  0  0  0  0  0  0  0  0
   16.1002   23.2208    8.9412 C   0  0  0  0  0  0  0  0  0  0  0  0
  2  3  1  0  0  0
  2  8  2  0  0  0
  2  1  1  0  0  0
  3  4  2  0  0  0
  3  5  1  0  0  0
  5  6  1  0  0  0
  6  7  2  0  0  0
  6 10  1  0  0  0
  7  8  1  0  0  0
  7 15  1  0  0  0
  8  9  1  0  0  0
 17 18  2  0  0  0
 17 22  1  0  0  0
 17  1  1  0  0  0
 18 19  1  0  0  0
 19 20  2  0  0  0
 20 21  1  0  0  0
 21 22  2  0  0  0
 21 23  1  0  0  0
  1 34  1  0  0  0
 34 35  1  0  0  0
 34 36  1  0  0  0
 35 36  1  0  0  0
 10 11  1  0  0  0
 11 12  1  0  0  0
 12 13  1  0  0  0
 13 14  1  0  0  0
 14 15  1  0  0  0
 23 25  1  0  0  0
 25 26  2  0  0  0
 25 27  2  0  0  0
 25 28  1  0  0  0
 28 29  2  0  0  0
 28 33  1  0  0  0
 29 30  1  0  0  0
 30 31  2  0  0  0
 31 32  1  0  0  0
 32 33  2  0  0  0
  9 16  1  0  0  0
 23 24  1  0  0  0
M  END
> <minimizedAffinity>
-8.79402

$$$$
7UPJ_INU_A_100


 36 40  0  0  0  0  0  0  0  0999 V2000
    6.8185   29.2190    6.1344 C   0  0  0  0  0  0  0  0  0  0  0  0
    6.5909   28.3255    4.9283 C   0  0  0  0  0  0  0  0  0  0  0  0
    7.2218   28.6055    3.6766 C   0  0  0  0  0  0  0  0  0  0  0  0
    7.9199   29.5606    3.5686 O   0  0  0  0  0  0  0  0  0  0  0  0
    7.0291   27.8629    2.5670 O   0  0  0  0  0  0  0  0  0  0  0  0
    6.1385   26.7799    2.7205 C   0  0  0  0  0  0  0  0  0  0  0  0
    5.4717   26.4469    3.9091 C   0  0  0  0  0  0  0  0  0  0  0  0
    5.7090   27.2403    5.0302 C   0  0  0  0  0  0  0  0  0  0  0  0
    5.0674   26.9292    6.1969 O   0  0  0  0  0  0  0  0  0  0  0  0
    5.9577   26.0083    1.4223 C   0  0  0  0  0  0  0  0  0  0  0  0
    4.8491   26.5284    0.5326 C   0  0  0  0  0  0  0  0  0  0  0  0
    3.5508   26.8614    1.2495 C   0  0  0  0  0  0  0  0  0  0  0  0
    2.8404   25.6682    1.9288 C   0  0  0  0  0  0  0  0  0  0  0  0
    3.0326   25.5309    3.4569 C   0  0  0  0  0  0  0  0  0  0  0  0
    4.5079   25.2783    3.9722 C   0  0  0  0  0  0  0  0  0  0  0  0
    5.2114   27.4483    6.9636 H   0  0  0  0  0  0  0  0  0  0  0  0
    7.9636   28.7260    6.9815 C   0  0  0  0  0  0  0  0  0  0  0  0
    7.9148   28.8760    8.3908 C   0  0  0  0  0  0  0  0  0  0  0  0
    8.9548   28.3528    9.1797 C   0  0  0  0  0  0  0  0  0  0  0  0
   10.0468   27.6821    8.6171 C   0  0  0  0  0  0  0  0  0  0  0  0
   10.1132   27.5140    7.2079 C   0  0  0  0  0  0  0  0  0  0  0  0
    9.0677   28.0481    6.3976 C   0  0  0  0  0  0  0  0  0  0  0  0
   11.1706   26.7267    6.6454 N   0  0  0  0  0  0  0  0  0  0  0  0
   12.0041   27.1363    6.3185 H   0  0  0  0  0  0  0  0  0  0  0  0
   10.9147   25.0815    6.5739 S   0  0  0  0  0  0  0  0  0  0  0  0
   12.1850   24.5234    6.9851 O   0  0  0  0  0  0  0  0  0  0  0  0
    9.7948   24.8084    7.4297 O   0  0  0  0  0  0  0  0  0  0  0  0
   10.6354   24.7511    4.8861 C   0  0  0  0  0  0  0  0  0  0  0  0
   11.5717   23.9309    4.1919 C   0  0  0  0  0  0  0  0  0  0  0  0
   11.3845   23.6690    2.8382 C   0  0  0  0  0  0  0  0  0  0  0  0
   10.2744   24.2103    2.1553 C   0  0  0  0  0  0  0  0  0  0  0  0
    9.3452   25.0269    2.8337 C   0  0  0  0  0  0  0  0  0  0  0  0
    9.5158   25.3049    4.1964 C   0  0  0  0  0  0  0  0  0  0  0  0
    5.5217   29.5660    6.8973 C   0  0  0  0  0  0  0  0  0  0  0  0
    4.4621   30.3844    6.1772 C   0  0  0  0  0  0  0  0  0  0  0  0
    5.2266   30.9811    7.3553 C   0  0  0  0  0  0  0  0  0  0  0  0
  2  3  1  0  0  0
  2  8  2  0  0  0
  2  1  1  0  0  0
  3  4  2  0  0  0
  3  5  1  0  0  0
  5  6  1  0  0  0
  6  7  2  0  0  0
  6 10  1  0  0  0
  7  8  1  0  0  0
  7 15  1  0  0  0
  8  9  1  0  0  0
 17 18  2  0  0  0
 17 22  1  0  0  0
 17  1  1  0  0  0
 18 19  1  0  0  0
 19 20  2  0  0  0
 20 21  1  0  0  0
 21 22  2  0  0  0
 21 23  1  0  0  0
  1 34  1  0  0  0
 34 35  1  0  0  0
 34 36  1  0  0  0
 35 36  1  0  0  0
 10 11  1  0  0  0
 11 12  1  0  0  0
 12 13  1  0  0  0
 13 14  1  0  0  0
 14 15  1  0  0  0
 23 25  1  0  0  0
 25 26  2  0  0  0
 25 27  2  0  0  0
 25 28  1  0  0  0
 28 29  2  0  0  0
 28 33  1  0  0  0
 29 30  1  0  0  0
 30 31  2  0  0  0
 31 32  1  0  0  0
 32 33  2  0  0  0
  9 16  1  0  0  0
 23 24  1  0  0  0
M  END
> <minimizedAffinity>
-8.67280

$$$$
7UPJ_INU_A_100


 36 40  0  0  0  0  0  0  0  0999 V2000
    8.8960   27.0418    3.1445 C   0  0  0  0  0  0  0  0  0  0  0  0
    7.6817   26.7926    2.2681 C   0  0  0  0  0  0  0  0  0  0  0  0
    7.5778   27.3836    0.9708 C   0  0  0  0  0  0  0  0  0  0  0  0
    8.4427   28.0960    0.5762 O   0  0  0  0  0  0  0  0  0  0  0  0
    6.5080   27.2203    0.1654 O   0  0  0  0  0  0  0  0  0  0  0  0
    5.4735   26.4246    0.7008 C   0  0  0  0  0  0  0  0  0  0  0  0
    5.4939   25.8211    1.9670 C   0  0  0  0  0  0  0  0  0  0  0  0
    6.6244   26.0135    2.7593 C   0  0  0  0  0  0  0  0  0  0  0  0
    6.6608   25.4317    3.9961 O   0  0  0  0  0  0  0  0  0  0  0  0
    4.2970   26.3082   -0.2561 C   0  0  0  0  0  0  0  0  0  0  0  0
    3.2575   27.3984   -0.1078 C   0  0  0  0  0  0  0  0  0  0  0  0
    2.8698   27.7278    1.3246 C   0  0  0  0  0  0  0  0  0  0  0  0
    2.1993   26.5800    2.1137 C   0  0  0  0  0  0  0  0  0  0  0  0
    3.1030   25.7998    3.0964 C   0  0  0  0  0  0  0  0  0  0  0  0
    4.3202   25.0043    2.4707 C   0  0  0  0  0  0  0  0  0  0  0  0
    7.4104   25.5472    4.5463 H   0  0  0  0  0  0  0  0  0  0  0  0
    9.8782   25.9011    3.0684 C   0  0  0  0  0  0  0  0  0  0  0  0
    9.6245   24.8076    2.2017 C   0  0  0  0  0  0  0  0  0  0  0  0
   10.5777   23.7802    2.0851 C   0  0  0  0  0  0  0  0  0  0  0  0
   11.7802   23.7997    2.8009 C   0  0  0  0  0  0  0  0  0  0  0  0
   12.0587   24.8888    3.6698 C   0  0  0  0  0  0  0  0  0  0  0  0
   11.0950   25.9321    3.8020 C   0  0  0  0  0  0  0  0  0  0  0  0
   13.3387   24.9642    4.3104 N   0  0  0  0  0  0  0  0  0  0  0  0
   14.1280   25.3304    3.8499 H   0  0  0  0  0  0  0  0  0  0  0  0
   13.4203   24.3991    5.8762 S   0  0  0  0  0  0  0  0  0  0  0  0
   13.1762   22.9796    5.7368 O   0  0  0  0  0  0  0  0  0  0  0  0
   14.7130   24.7747    6.3753 O   0  0  0  0  0  0  0  0  0  0  0  0
   12.0799   25.1587    6.6900 C   0  0  0  0  0  0  0  0  0  0  0  0
   12.2353   26.5005    7.1449 C   0  0  0  0  0  0  0  0  0  0  0  0
   11.1884   27.1237    7.8170 C   0  0  0  0  0  0  0  0  0  0  0  0
    9.9791   26.4335    8.0470 C   0  0  0  0  0  0  0  0  0  0  0  0
    9.8184   25.1037    7.6042 C   0  0  0  0  0  0  0  0  0  0  0  0
   10.8606   24.4565    6.9271 C   0  0  0  0  0  0  0  0  0  0  0  0
    8.5401   27.5255    4.5671 C   0  0  0  0  0  0  0  0  0  0  0  0
    7.7274   28.8025    4.7089 C   0  0  0  0  0  0  0  0  0  0  0  0
    9.1823   28.7609    5.1675 C   0  0  0  0  0  0  0  0  0  0  0  0
  2  3  1  0  0  0
  2  8  2  0  0  0
  2  1  1  0  0  0
  3  4  2  0  0  0
  3  5  1  0  0  0
  5  6  1  0  0  0
  6  7  2  0  0  0
  6 10  1  0  0  0
  7  8  1  0  0  0
  7 15  1  0  0  0
  8  9  1  0  0  0
 17 18  2  0  0  0
 17 22  1  0  0  0
 17  1  1  0  0  0
 18 19  1  0  0  0
 19 20  2  0  0  0
 20 21  1  0  0  0
 21 22  2  0  0  0
 21 23  1  0  0  0
  1 34  1  0  0  0
 34 35  1  0  0  0
 34 36  1  0  0  0
 35 36  1  0  0  0
 10 11  1  0  0  0
 11 12  1  0  0  0
 12 13  1  0  0  0
 13 14  1  0  0  0
 14 15  1  0  0  0
 23 25  1  0  0  0
 25 26  2  0  0  0
 25 27  2  0  0  0
 25 28  1  0  0  0
 28 29  2  0  0  0
 28 33  1  0  0  0
 29 30  1  0  0  0
 30 31  2  0  0  0
 31 32  1  0  0  0
 32 33  2  0  0  0
  9 16  1  0  0  0
 23 24  1  0  0  0
M  END
> <minimizedAffinity>
-8.60397

$$$$
7UPJ_INU_A_100


 36 40  0  0  0  0  0  0  0  0999 V2000
    8.8542   28.3936    7.0405 C   0  0  0  0  0  0  0  0  0  0  0  0
    7.5425   28.4515    6.2784 C   0  0  0  0  0  0  0  0  0  0  0  0
    7.4446   29.1512    5.0359 C   0  0  0  0  0  0  0  0  0  0  0  0
    8.3956   29.7130    4.5988 O   0  0  0  0  0  0  0  0  0  0  0  0
    6.2971   29.2598    4.3348 O   0  0  0  0  0  0  0  0  0  0  0  0
    5.1763   28.6380    4.9239 C   0  0  0  0  0  0  0  0  0  0  0  0
    5.1876   27.9444    6.1433 C   0  0  0  0  0  0  0  0  0  0  0  0
    6.3989   27.8537    6.8270 C   0  0  0  0  0  0  0  0  0  0  0  0
    6.4274   27.1807    8.0168 O   0  0  0  0  0  0  0  0  0  0  0  0
    3.9209   28.8248    4.0859 C   0  0  0  0  0  0  0  0  0  0  0  0
    3.1355   30.0791    4.4036 C   0  0  0  0  0  0  0  0  0  0  0  0
    2.9481   30.3636    5.8850 C   0  0  0  0  0  0  0  0  0  0  0  0
    2.1350   29.3076    6.6681 C   0  0  0  0  0  0  0  0  0  0  0  0
    2.9485   28.2939    7.5060 C   0  0  0  0  0  0  0  0  0  0  0  0
    3.9239   27.3311    6.7138 C   0  0  0  0  0  0  0  0  0  0  0  0
    7.2304   27.1067    8.4941 H   0  0  0  0  0  0  0  0  0  0  0  0
    9.5992   27.1126    6.7655 C   0  0  0  0  0  0  0  0  0  0  0  0
    9.6255   26.0870    7.7446 C   0  0  0  0  0  0  0  0  0  0  0  0
   10.2647   24.8684    7.4546 C   0  0  0  0  0  0  0  0  0  0  0  0
   10.8812   24.6297    6.2210 C   0  0  0  0  0  0  0  0  0  0  0  0
   10.8612   25.6403    5.2225 C   0  0  0  0  0  0  0  0  0  0  0  0
   10.2229   26.8833    5.5092 C   0  0  0  0  0  0  0  0  0  0  0  0
   11.3899   25.3507    3.9221 N   0  0  0  0  0  0  0  0  0  0  0  0
   12.2633   25.6977    3.6288 H   0  0  0  0  0  0  0  0  0  0  0  0
   10.4481   24.3957    2.9329 S   0  0  0  0  0  0  0  0  0  0  0  0
   11.2456   24.2619    1.7329 O   0  0  0  0  0  0  0  0  0  0  0  0
   10.1919   23.1861    3.6626 O   0  0  0  0  0  0  0  0  0  0  0  0
    9.0335   25.3590    2.6060 C   0  0  0  0  0  0  0  0  0  0  0  0
    9.1479   26.4402    1.6844 C   0  0  0  0  0  0  0  0  0  0  0  0
    8.0394   27.2390    1.4214 C   0  0  0  0  0  0  0  0  0  0  0  0
    6.8083   26.9813    2.0616 C   0  0  0  0  0  0  0  0  0  0  0  0
    6.6875   25.9160    2.9786 C   0  0  0  0  0  0  0  0  0  0  0  0
    7.7917   25.1004    3.2594 C   0  0  0  0  0  0  0  0  0  0  0  0
    8.7199   28.7842    8.5283 C   0  0  0  0  0  0  0  0  0  0  0  0
    8.1737   30.1631    8.8622 C   0  0  0  0  0  0  0  0  0  0  0  0
    9.6300   29.8189    9.1610 C   0  0  0  0  0  0  0  0  0  0  0  0
  2  3  1  0  0  0
  2  8  2  0  0  0
  2  1  1  0  0  0
  3  4  2  0  0  0
  3  5  1  0  0  0
  5  6  1  0  0  0
  6  7  2  0  0  0
  6 10  1  0  0  0
  7  8  1  0  0  0
  7 15  1  0  0  0
  8  9  1  0  0  0
 17 18  2  0  0  0
 17 22  1  0  0  0
 17  1  1  0  0  0
 18 19  1  0  0  0
 19 20  2  0  0  0
 20 21  1  0  0  0
 21 22  2  0  0  0
 21 23  1  0  0  0
  1 34  1  0  0  0
 34 35  1  0  0  0
 34 36  1  0  0  0
 35 36  1  0  0  0
 10 11  1  0  0  0
 11 12  1  0  0  0
 12 13  1  0  0  0
 13 14  1  0  0  0
 14 15  1  0  0  0
 23 25  1  0  0  0
 25 26  2  0  0  0
 25 27  2  0  0  0
 25 28  1  0  0  0
 28 29  2  0  0  0
 28 33  1  0  0  0
 29 30  1  0  0  0
 30 31  2  0  0  0
 31 32  1  0  0  0
 32 33  2  0  0  0
  9 16  1  0  0  0
 23 24  1  0  0  0
M  END
> <minimizedAffinity>
-8.60246

$$$$
7UPJ_INU_A_100


 36 40  0  0  0  0  0  0  0  0999 V2000
   10.4125   25.0866    5.9910 C   0  0  0  0  0  0  0  0  0  0  0  0
   11.9003   24.8152    6.1234 C   0  0  0  0  0  0  0  0  0  0  0  0
   12.8641   25.7890    5.7161 C   0  0  0  0  0  0  0  0  0  0  0  0
   12.5007   26.8191    5.2490 O   0  0  0  0  0  0  0  0  0  0  0  0
   14.1962   25.5865    5.7830 O   0  0  0  0  0  0  0  0  0  0  0  0
   14.5841   24.3237    6.2778 C   0  0  0  0  0  0  0  0  0  0  0  0
   13.7018   23.3122    6.6856 C   0  0  0  0  0  0  0  0  0  0  0  0
   12.3348   23.5718    6.6041 C   0  0  0  0  0  0  0  0  0  0  0  0
   11.4611   22.5966    6.9981 O   0  0  0  0  0  0  0  0  0  0  0  0
   16.0966   24.1658    6.3002 C   0  0  0  0  0  0  0  0  0  0  0  0
   16.6893   23.6184    5.0195 C   0  0  0  0  0  0  0  0  0  0  0  0
   15.9448   22.4370    4.4189 C   0  0  0  0  0  0  0  0  0  0  0  0
   15.9091   21.1602    5.2896 C   0  0  0  0  0  0  0  0  0  0  0  0
   14.6058   20.9019    6.0807 C   0  0  0  0  0  0  0  0  0  0  0  0
   14.2116   21.9721    7.1785 C   0  0  0  0  0  0  0  0  0  0  0  0
   10.5376   22.7486    6.9523 H   0  0  0  0  0  0  0  0  0  0  0  0
    9.9607   25.0110    4.5551 C   0  0  0  0  0  0  0  0  0  0  0  0
   10.7737   24.3600    3.5926 C   0  0  0  0  0  0  0  0  0  0  0  0
   10.3146   24.2337    2.2693 C   0  0  0  0  0  0  0  0  0  0  0  0
    9.0710   24.7324    1.8652 C   0  0  0  0  0  0  0  0  0  0  0  0
    8.2366   25.3821    2.8141 C   0  0  0  0  0  0  0  0  0  0  0  0
    8.6961   25.5230    4.1571 C   0  0  0  0  0  0  0  0  0  0  0  0
    6.9176   25.7868    2.4261 N   0  0  0  0  0  0  0  0  0  0  0  0
    6.2100   25.1302    2.2323 H   0  0  0  0  0  0  0  0  0  0  0  0
    6.6447   27.4275    2.3203 S   0  0  0  0  0  0  0  0  0  0  0  0
    7.7528   27.9039    1.5208 O   0  0  0  0  0  0  0  0  0  0  0  0
    5.3367   27.5843    1.7495 O   0  0  0  0  0  0  0  0  0  0  0  0
    6.7961   28.0066    3.9567 C   0  0  0  0  0  0  0  0  0  0  0  0
    5.7671   27.6828    4.8882 C   0  0  0  0  0  0  0  0  0  0  0  0
    5.8521   28.1507    6.1958 C   0  0  0  0  0  0  0  0  0  0  0  0
    6.9501   28.9403    6.5995 C   0  0  0  0  0  0  0  0  0  0  0  0
    7.9707   29.2692    5.6827 C   0  0  0  0  0  0  0  0  0  0  0  0
    7.9039   28.8101    4.3605 C   0  0  0  0  0  0  0  0  0  0  0  0
    9.9406   26.3289    6.7772 C   0  0  0  0  0  0  0  0  0  0  0  0
   10.6092   26.6330    8.1082 C   0  0  0  0  0  0  0  0  0  0  0  0
    9.1471   26.1985    8.0628 C   0  0  0  0  0  0  0  0  0  0  0  0
  2  3  1  0  0  0
  2  8  2  0  0  0
  2  1  1  0  0  0
  3  4  2  0  0  0
  3  5  1  0  0  0
  5  6  1  0  0  0
  6  7  2  0  0  0
  6 10  1  0  0  0
  7  8  1  0  0  0
  7 15  1  0  0  0
  8  9  1  0  0  0
 17 18  2  0  0  0
 17 22  1  0  0  0
 17  1  1  0  0  0
 18 19  1  0  0  0
 19 20  2  0  0  0
 20 21  1  0  0  0
 21 22  2  0  0  0
 21 23  1  0  0  0
  1 34  1  0  0  0
 34 35  1  0  0  0
 34 36  1  0  0  0
 35 36  1  0  0  0
 10 11  1  0  0  0
 11 12  1  0  0  0
 12 13  1  0  0  0
 13 14  1  0  0  0
 14 15  1  0  0  0
 23 25  1  0  0  0
 25 26  2  0  0  0
 25 27  2  0  0  0
 25 28  1  0  0  0
 28 29  2  0  0  0
 28 33  1  0  0  0
 29 30  1  0  0  0
 30 31  2  0  0  0
 31 32  1  0  0  0
 32 33  2  0  0  0
  9 16  1  0  0  0
 23 24  1  0  0  0
M  END
> <minimizedAffinity>
-8.54997

$$$$
7UPJ_INU_A_100


 36 40  0  0  0  0  0  0  0  0999 V2000
    7.9412   28.3372    8.0572 C   0  0  0  0  0  0  0  0  0  0  0  0
    8.7818   27.1681    7.5759 C   0  0  0  0  0  0  0  0  0  0  0  0
    8.8338   25.9463    8.3159 C   0  0  0  0  0  0  0  0  0  0  0  0
    8.2275   25.8462    9.3325 O   0  0  0  0  0  0  0  0  0  0  0  0
    9.5881   24.8896    7.9497 O   0  0  0  0  0  0  0  0  0  0  0  0
   10.3465   25.0758    6.7749 C   0  0  0  0  0  0  0  0  0  0  0  0
   10.3596   26.2458    6.0010 C   0  0  0  0  0  0  0  0  0  0  0  0
    9.5580   27.3076    6.4166 C   0  0  0  0  0  0  0  0  0  0  0  0
    9.5588   28.4552    5.6733 O   0  0  0  0  0  0  0  0  0  0  0  0
   11.1848   23.8508    6.4432 C   0  0  0  0  0  0  0  0  0  0  0  0
   12.5570   23.8380    7.0822 C   0  0  0  0  0  0  0  0  0  0  0  0
   13.3139   25.1540    7.0083 C   0  0  0  0  0  0  0  0  0  0  0  0
   13.6632   25.6422    5.5838 C   0  0  0  0  0  0  0  0  0  0  0  0
   12.7520   26.7411    4.9892 C   0  0  0  0  0  0  0  0  0  0  0  0
   11.2307   26.3649    4.7658 C   0  0  0  0  0  0  0  0  0  0  0  0
    9.0278   29.1821    5.9333 H   0  0  0  0  0  0  0  0  0  0  0  0
    6.7183   28.5318    7.1980 C   0  0  0  0  0  0  0  0  0  0  0  0
    6.1551   29.8254    7.0542 C   0  0  0  0  0  0  0  0  0  0  0  0
    5.0556   30.0110    6.1972 C   0  0  0  0  0  0  0  0  0  0  0  0
    4.4927   28.9536    5.4736 C   0  0  0  0  0  0  0  0  0  0  0  0
    5.0450   27.6503    5.5967 C   0  0  0  0  0  0  0  0  0  0  0  0
    6.1551   27.4492    6.4697 C   0  0  0  0  0  0  0  0  0  0  0  0
    4.5420   26.5951    4.7674 N   0  0  0  0  0  0  0  0  0  0  0  0
    4.1343   25.7848    5.1500 H   0  0  0  0  0  0  0  0  0  0  0  0
    4.6836   26.8123    3.1211 S   0  0  0  0  0  0  0  0  0  0  0  0
    3.8350   25.7782    2.5692 O   0  0  0  0  0  0  0  0  0  0  0  0
    4.2877   28.1666    2.8559 O   0  0  0  0  0  0  0  0  0  0  0  0
    6.3547   26.4635    2.7720 C   0  0  0  0  0  0  0  0  0  0  0  0
    7.0497   27.3154    1.8651 C   0  0  0  0  0  0  0  0  0  0  0  0
    8.3786   27.0471    1.5519 C   0  0  0  0  0  0  0  0  0  0  0  0
    9.0362   25.9392    2.1282 C   0  0  0  0  0  0  0  0  0  0  0  0
    8.3543   25.0882    3.0233 C   0  0  0  0  0  0  0  0  0  0  0  0
    7.0152   25.3391    3.3510 C   0  0  0  0  0  0  0  0  0  0  0  0
    8.7655   29.6102    8.3475 C   0  0  0  0  0  0  0  0  0  0  0  0
   10.0230   29.4746    9.1910 C   0  0  0  0  0  0  0  0  0  0  0  0
    8.8103   30.2263    9.7322 C   0  0  0  0  0  0  0  0  0  0  0  0
  2  3  1  0  0  0
  2  8  2  0  0  0
  2  1  1  0  0  0
  3  4  2  0  0  0
  3  5  1  0  0  0
  5  6  1  0  0  0
  6  7  2  0  0  0
  6 10  1  0  0  0
  7  8  1  0  0  0
  7 15  1  0  0  0
  8  9  1  0  0  0
 17 18  2  0  0  0
 17 22  1  0  0  0
 17  1  1  0  0  0
 18 19  1  0  0  0
 19 20  2  0  0  0
 20 21  1  0  0  0
 21 22  2  0  0  0
 21 23  1  0  0  0
  1 34  1  0  0  0
 34 35  1  0  0  0
 34 36  1  0  0  0
 35 36  1  0  0  0
 10 11  1  0  0  0
 11 12  1  0  0  0
 12 13  1  0  0  0
 13 14  1  0  0  0
 14 15  1  0  0  0
 23 25  1  0  0  0
 25 26  2  0  0  0
 25 27  2  0  0  0
 25 28  1  0  0  0
 28 29  2  0  0  0
 28 33  1  0  0  0
 29 30  1  0  0  0
 30 31  2  0  0  0
 31 32  1  0  0  0
 32 33  2  0  0  0
  9 16  1  0  0  0
 23 24  1  0  0  0
M  END
> <minimizedAffinity>
-8.48977

$$$$
