1SL3_170_A_1001


 39 42  0  0  0  0  0  0  0  0999 V2000
   18.0394  -15.5070   22.6830 C   0  0  0  0  0  0  0  0  0  0  0  0
   17.5575  -14.2084   22.1803 C   0  0  0  0  0  0  0  0  0  0  0  0
   18.3029  -13.5204   21.2520 N   0  0  0  0  0  0  0  0  0  0  0  0
   19.5921  -13.9323   20.7451 C   0  0  0  0  0  0  0  0  0  0  0  0
   20.0623  -15.1498   21.2787 C   0  0  0  0  0  0  0  0  0  0  0  0
   19.3049  -15.9119   22.1616 N   0  0  0  0  0  0  0  0  0  0  0  0
   16.4950  -13.7476   22.5870 O   0  0  0  0  0  0  0  0  0  0  0  0
   20.4710  -13.0051   19.6359 Cl  0  0  0  0  0  0  0  0  0  0  0  0
   17.3115  -16.2444   23.6554 N   0  0  0  0  0  0  0  0  0  0  0  0
   16.3449  -16.1061   23.7812 H   0  0  0  0  0  0  0  0  0  0  0  0
   18.0540  -17.2230   24.4688 C   0  0  0  0  0  0  0  0  0  0  0  0
   18.5227  -16.6375   25.7874 C   0  0  0  0  0  0  0  0  0  0  0  0
   18.7658  -17.7142   26.5531 F   0  0  0  0  0  0  0  0  0  0  0  0
   17.5177  -15.9457   26.3505 F   0  0  0  0  0  0  0  0  0  0  0  0
   19.8131  -14.3735   25.8876 C   0  0  0  0  0  0  0  0  0  0  0  0
   19.7906  -15.7996   25.6230 C   0  0  0  0  0  0  0  0  0  0  0  0
   20.9278  -16.4345   25.1086 N   0  0  0  0  0  0  0  0  0  0  0  0
   22.1240  -15.8051   24.8028 C   0  0  0  0  0  0  0  0  0  0  0  0
   22.1941  -14.3923   25.0435 C   0  0  0  0  0  0  0  0  0  0  0  0
   21.0428  -13.7016   25.5904 C   0  0  0  0  0  0  0  0  0  0  0  0
   20.8642  -17.7632   24.8767 O   0  0  0  0  0  0  0  0  0  0  0  0
   17.8090  -12.2201   20.7565 C   0  0  0  0  0  0  0  0  0  0  0  0
   16.3919  -12.3381   20.2179 C   0  0  0  0  0  0  0  0  0  0  0  0
   15.5162  -11.4616   20.7272 N   0  0  0  0  0  0  0  0  0  0  0  0
   16.1170  -13.1657   19.3550 O   0  0  0  0  0  0  0  0  0  0  0  0
   15.8011  -10.8061   21.4043 H   0  0  0  0  0  0  0  0  0  0  0  0
   14.1232  -11.4941   20.2588 C   0  0  0  0  0  0  0  0  0  0  0  0
   13.1292  -11.5158   21.4125 C   0  0  0  0  0  0  0  0  0  0  0  0
   13.0548  -10.3481   22.2491 C   0  0  0  0  0  0  0  0  0  0  0  0
   12.1131  -10.3995   23.3343 C   0  0  0  0  0  0  0  0  0  0  0  0
   11.2682  -11.5339   23.6083 C   0  0  0  0  0  0  0  0  0  0  0  0
   12.2945  -12.6500   21.6766 C   0  0  0  0  0  0  0  0  0  0  0  0
   11.3397  -12.6926   22.7726 C   0  0  0  0  0  0  0  0  0  0  0  0
   11.9858   -8.9931   24.3619 Cl  0  0  0  0  0  0  0  0  0  0  0  0
   13.2597  -15.8421   20.3328 N   0  0  0  0  0  0  0  0  0  0  0  0
   12.5372  -15.3117   19.5001 N   0  0  0  0  0  0  0  0  0  0  0  0
   12.1097  -14.1798   19.8813 N   0  0  0  0  0  0  0  0  0  0  0  0
   12.4872  -13.8018   20.9718 N   0  0  0  0  0  0  0  0  0  0  0  0
   13.2652  -14.9066   21.4156 C   0  0  0  0  0  0  0  0  0  0  0  0
 15 16  1  0  0  0
 15 20  2  0  0  0
 16 17  2  0  0  0
 16 12  1  0  0  0
 17 18  1  0  0  0
 17 21  1  0  0  0
 18 19  2  0  0  0
 19 20  1  0  0  0
 12 11  1  0  0  0
 12 13  1  0  0  0
 12 14  1  0  0  0
 11  9  1  0  0  0
  9  1  1  0  0  0
  1  2  1  0  0  0
  1  6  2  0  0  0
  2  3  1  0  0  0
  2  7  2  0  0  0
  3  4  1  0  0  0
  3 22  1  0  0  0
  4  5  2  0  0  0
  4  8  1  0  0  0
  5  6  1  0  0  0
 22 23  1  0  0  0
 23 24  1  0  0  0
 23 25  2  0  0  0
 24 27  1  0  0  0
 27 28  1  0  0  0
 28 29  2  0  0  0
 28 32  1  0  0  0
 29 30  1  0  0  0
 30 31  2  0  0  0
 30 34  1  0  0  0
 31 33  1  0  0  0
 32 33  2  0  0  0
 32 38  1  0  0  0
 35 36  1  0  0  0
 35 39  2  0  0  0
 36 37  2  0  0  0
 37 38  1  0  0  0
 38 39  1  0  0  0
  9 10  1  0  0  0
 24 26  1  0  0  0
M  CHG 1  17   1
M  CHG 1  21  -1
M  END
> <minimizedAffinity>
-10.47381

$$$$
1SL3_170_A_1001


 39 42  0  0  0  0  0  0  0  0999 V2000
   17.9434  -15.5711   22.6047 C   0  0  0  0  0  0  0  0  0  0  0  0
   17.4905  -14.2516   22.1301 C   0  0  0  0  0  0  0  0  0  0  0  0
   18.2798  -13.5343   21.2624 N   0  0  0  0  0  0  0  0  0  0  0  0
   19.5885  -13.9351   20.7982 C   0  0  0  0  0  0  0  0  0  0  0  0
   20.0287  -15.1747   21.3062 C   0  0  0  0  0  0  0  0  0  0  0  0
   19.2290  -15.9643   22.1253 N   0  0  0  0  0  0  0  0  0  0  0  0
   16.4130  -13.7995   22.5061 O   0  0  0  0  0  0  0  0  0  0  0  0
   20.5204  -12.9729   19.7647 Cl  0  0  0  0  0  0  0  0  0  0  0  0
   17.1693  -16.3395   23.5154 N   0  0  0  0  0  0  0  0  0  0  0  0
   16.4840  -15.9185   24.0831 H   0  0  0  0  0  0  0  0  0  0  0  0
   17.4282  -17.7885   23.5803 C   0  0  0  0  0  0  0  0  0  0  0  0
   16.1568  -18.6062   23.4536 C   0  0  0  0  0  0  0  0  0  0  0  0
   16.3306  -19.3038   22.3187 F   0  0  0  0  0  0  0  0  0  0  0  0
   15.1112  -17.7807   23.2777 F   0  0  0  0  0  0  0  0  0  0  0  0
   17.0004  -19.7678   25.6308 C   0  0  0  0  0  0  0  0  0  0  0  0
   15.9638  -19.5515   24.6393 C   0  0  0  0  0  0  0  0  0  0  0  0
   14.7762  -20.2914   24.6948 N   0  0  0  0  0  0  0  0  0  0  0  0
   14.4839  -21.2623   25.6395 C   0  0  0  0  0  0  0  0  0  0  0  0
   15.4810  -21.5157   26.6398 C   0  0  0  0  0  0  0  0  0  0  0  0
   16.7173  -20.7588   26.6255 C   0  0  0  0  0  0  0  0  0  0  0  0
   13.8374  -20.0588   23.7526 O   0  0  0  0  0  0  0  0  0  0  0  0
   17.8147  -12.2133   20.7944 C   0  0  0  0  0  0  0  0  0  0  0  0
   16.4034  -12.2930   20.2340 C   0  0  0  0  0  0  0  0  0  0  0  0
   15.5102  -11.4914   20.8290 N   0  0  0  0  0  0  0  0  0  0  0  0
   16.1478  -13.0249   19.2831 O   0  0  0  0  0  0  0  0  0  0  0  0
   15.7798  -10.9101   21.5765 H   0  0  0  0  0  0  0  0  0  0  0  0
   14.1212  -11.4936   20.3481 C   0  0  0  0  0  0  0  0  0  0  0  0
   13.1164  -11.4842   21.4926 C   0  0  0  0  0  0  0  0  0  0  0  0
   13.0637  -10.3105   22.3224 C   0  0  0  0  0  0  0  0  0  0  0  0
   12.1111  -10.3326   23.3991 C   0  0  0  0  0  0  0  0  0  0  0  0
   11.2356  -11.4440   23.6712 C   0  0  0  0  0  0  0  0  0  0  0  0
   12.2512  -12.5958   21.7548 C   0  0  0  0  0  0  0  0  0  0  0  0
   11.2857  -12.6086   22.8423 C   0  0  0  0  0  0  0  0  0  0  0  0
   12.0097   -8.9179   24.4182 Cl  0  0  0  0  0  0  0  0  0  0  0  0
   13.0990  -15.8439   20.4673 N   0  0  0  0  0  0  0  0  0  0  0  0
   12.4905  -15.2600   19.5811 N   0  0  0  0  0  0  0  0  0  0  0  0
   12.1133  -14.1018   19.9354 N   0  0  0  0  0  0  0  0  0  0  0  0
   12.4215  -13.7558   21.0579 N   0  0  0  0  0  0  0  0  0  0  0  0
   13.0778  -14.9153   21.5558 C   0  0  0  0  0  0  0  0  0  0  0  0
 15 16  1  0  0  0
 15 20  2  0  0  0
 16 17  2  0  0  0
 16 12  1  0  0  0
 17 18  1  0  0  0
 17 21  1  0  0  0
 18 19  2  0  0  0
 19 20  1  0  0  0
 12 11  1  0  0  0
 12 13  1  0  0  0
 12 14  1  0  0  0
 11  9  1  0  0  0
  9  1  1  0  0  0
  1  2  1  0  0  0
  1  6  2  0  0  0
  2  3  1  0  0  0
  2  7  2  0  0  0
  3  4  1  0  0  0
  3 22  1  0  0  0
  4  5  2  0  0  0
  4  8  1  0  0  0
  5  6  1  0  0  0
 22 23  1  0  0  0
 23 24  1  0  0  0
 23 25  2  0  0  0
 24 27  1  0  0  0
 27 28  1  0  0  0
 28 29  2  0  0  0
 28 32  1  0  0  0
 29 30  1  0  0  0
 30 31  2  0  0  0
 30 34  1  0  0  0
 31 33  1  0  0  0
 32 33  2  0  0  0
 32 38  1  0  0  0
 35 36  1  0  0  0
 35 39  2  0  0  0
 36 37  2  0  0  0
 37 38  1  0  0  0
 38 39  1  0  0  0
  9 10  1  0  0  0
 24 26  1  0  0  0
M  CHG 1  17   1
M  CHG 1  21  -1
M  END
> <minimizedAffinity>
-9.68994

$$$$
1SL3_170_A_1001


 39 42  0  0  0  0  0  0  0  0999 V2000
   16.3342  -17.6655   22.1939 C   0  0  0  0  0  0  0  0  0  0  0  0
   14.9263  -17.6009   21.7640 C   0  0  0  0  0  0  0  0  0  0  0  0
   14.5462  -18.2062   20.5894 N   0  0  0  0  0  0  0  0  0  0  0  0
   15.4370  -18.8744   19.6680 C   0  0  0  0  0  0  0  0  0  0  0  0
   16.7888  -18.8783   20.0691 C   0  0  0  0  0  0  0  0  0  0  0  0
   17.2010  -18.3436   21.2849 N   0  0  0  0  0  0  0  0  0  0  0  0
   14.0990  -17.0126   22.4542 O   0  0  0  0  0  0  0  0  0  0  0  0
   14.8985  -19.5559   18.2161 Cl  0  0  0  0  0  0  0  0  0  0  0  0
   16.7757  -17.0397   23.3908 N   0  0  0  0  0  0  0  0  0  0  0  0
   16.1360  -16.7567   24.0836 H   0  0  0  0  0  0  0  0  0  0  0  0
   18.2242  -16.8292   23.5587 C   0  0  0  0  0  0  0  0  0  0  0  0
   18.5692  -15.3725   23.8032 C   0  0  0  0  0  0  0  0  0  0  0  0
   19.6995  -15.4232   24.5276 F   0  0  0  0  0  0  0  0  0  0  0  0
   17.6142  -14.8093   24.5626 F   0  0  0  0  0  0  0  0  0  0  0  0
   20.1102  -14.5361   21.8727 C   0  0  0  0  0  0  0  0  0  0  0  0
   18.8033  -14.6128   22.4975 C   0  0  0  0  0  0  0  0  0  0  0  0
   17.7263  -13.8983   21.9585 N   0  0  0  0  0  0  0  0  0  0  0  0
   17.7903  -13.0788   20.8428 C   0  0  0  0  0  0  0  0  0  0  0  0
   19.0641  -12.9670   20.1918 C   0  0  0  0  0  0  0  0  0  0  0  0
   20.1997  -13.7038   20.7103 C   0  0  0  0  0  0  0  0  0  0  0  0
   16.5270  -13.9976   22.5710 O   0  0  0  0  0  0  0  0  0  0  0  0
   13.1324  -18.1340   20.1697 C   0  0  0  0  0  0  0  0  0  0  0  0
   12.8523  -16.8557   19.3952 C   0  0  0  0  0  0  0  0  0  0  0  0
   12.6706  -15.7635   20.1492 N   0  0  0  0  0  0  0  0  0  0  0  0
   12.8359  -16.8578   18.1685 O   0  0  0  0  0  0  0  0  0  0  0  0
   12.7153  -15.8204   21.1310 H   0  0  0  0  0  0  0  0  0  0  0  0
   12.4034  -14.4786   19.4871 C   0  0  0  0  0  0  0  0  0  0  0  0
   12.6215  -13.2947   20.4200 C   0  0  0  0  0  0  0  0  0  0  0  0
   11.8743  -13.2690   21.6488 C   0  0  0  0  0  0  0  0  0  0  0  0
   12.0951  -12.1363   22.5064 C   0  0  0  0  0  0  0  0  0  0  0  0
   13.0044  -11.0626   22.1966 C   0  0  0  0  0  0  0  0  0  0  0  0
   13.5277  -12.2316   20.1013 C   0  0  0  0  0  0  0  0  0  0  0  0
   13.7505  -11.0918   20.9766 C   0  0  0  0  0  0  0  0  0  0  0  0
   11.2151  -12.0797   24.0139 Cl  0  0  0  0  0  0  0  0  0  0  0  0
   15.6013  -12.4483   17.1723 N   0  0  0  0  0  0  0  0  0  0  0  0
   14.6180  -11.7901   16.8615 N   0  0  0  0  0  0  0  0  0  0  0  0
   13.7943  -11.6697   17.8187 N   0  0  0  0  0  0  0  0  0  0  0  0
   14.1086  -12.1941   18.8678 N   0  0  0  0  0  0  0  0  0  0  0  0
   15.3406  -12.8192   18.5295 C   0  0  0  0  0  0  0  0  0  0  0  0
 15 16  1  0  0  0
 15 20  2  0  0  0
 16 17  2  0  0  0
 16 12  1  0  0  0
 17 18  1  0  0  0
 17 21  1  0  0  0
 18 19  2  0  0  0
 19 20  1  0  0  0
 12 11  1  0  0  0
 12 13  1  0  0  0
 12 14  1  0  0  0
 11  9  1  0  0  0
  9  1  1  0  0  0
  1  2  1  0  0  0
  1  6  2  0  0  0
  2  3  1  0  0  0
  2  7  2  0  0  0
  3  4  1  0  0  0
  3 22  1  0  0  0
  4  5  2  0  0  0
  4  8  1  0  0  0
  5  6  1  0  0  0
 22 23  1  0  0  0
 23 24  1  0  0  0
 23 25  2  0  0  0
 24 27  1  0  0  0
 27 28  1  0  0  0
 28 29  2  0  0  0
 28 32  1  0  0  0
 29 30  1  0  0  0
 30 31  2  0  0  0
 30 34  1  0  0  0
 31 33  1  0  0  0
 32 33  2  0  0  0
 32 38  1  0  0  0
 35 36  1  0  0  0
 35 39  2  0  0  0
 36 37  2  0  0  0
 37 38  1  0  0  0
 38 39  1  0  0  0
  9 10  1  0  0  0
 24 26  1  0  0  0
M  CHG 1  17   1
M  CHG 1  21  -1
M  END
> <minimizedAffinity>
-9.54495

$$$$
1SL3_170_A_1001


 39 42  0  0  0  0  0  0  0  0999 V2000
   18.5224  -17.9535   22.1563 C   0  0  0  0  0  0  0  0  0  0  0  0
   17.1121  -17.5895   22.3796 C   0  0  0  0  0  0  0  0  0  0  0  0
   16.1162  -18.4350   21.9508 N   0  0  0  0  0  0  0  0  0  0  0  0
   16.3221  -19.6652   21.2207 C   0  0  0  0  0  0  0  0  0  0  0  0
   17.6756  -19.9694   20.9683 C   0  0  0  0  0  0  0  0  0  0  0  0
   18.7135  -19.1794   21.4506 N   0  0  0  0  0  0  0  0  0  0  0  0
   16.8310  -16.5387   22.9484 O   0  0  0  0  0  0  0  0  0  0  0  0
   15.0395  -20.6300   20.6855 Cl  0  0  0  0  0  0  0  0  0  0  0  0
   19.5839  -17.1025   22.5663 N   0  0  0  0  0  0  0  0  0  0  0  0
   20.0101  -17.2079   23.4475 H   0  0  0  0  0  0  0  0  0  0  0  0
   20.0243  -16.0568   21.6264 C   0  0  0  0  0  0  0  0  0  0  0  0
   19.9068  -14.6650   22.2182 C   0  0  0  0  0  0  0  0  0  0  0  0
   18.6296  -14.3195   21.9853 F   0  0  0  0  0  0  0  0  0  0  0  0
   20.6969  -13.8210   21.5333 F   0  0  0  0  0  0  0  0  0  0  0  0
   19.1482  -14.7700   24.7111 C   0  0  0  0  0  0  0  0  0  0  0  0
   20.1997  -14.6544   23.7184 C   0  0  0  0  0  0  0  0  0  0  0  0
   21.5218  -14.4296   24.1215 N   0  0  0  0  0  0  0  0  0  0  0  0
   21.9433  -14.2890   25.4343 C   0  0  0  0  0  0  0  0  0  0  0  0
   20.9381  -14.3914   26.4531 C   0  0  0  0  0  0  0  0  0  0  0  0
   19.5604  -14.6396   26.0767 C   0  0  0  0  0  0  0  0  0  0  0  0
   22.4698  -14.3284   23.1653 O   0  0  0  0  0  0  0  0  0  0  0  0
   14.7070  -18.0585   22.1804 C   0  0  0  0  0  0  0  0  0  0  0  0
   14.2093  -17.1057   21.1049 C   0  0  0  0  0  0  0  0  0  0  0  0
   14.1607  -15.8168   21.4666 N   0  0  0  0  0  0  0  0  0  0  0  0
   13.9155  -17.5204   19.9882 O   0  0  0  0  0  0  0  0  0  0  0  0
   14.4289  -15.5412   22.3729 H   0  0  0  0  0  0  0  0  0  0  0  0
   13.7007  -14.8205   20.4886 C   0  0  0  0  0  0  0  0  0  0  0  0
   13.4249  -13.4679   21.1321 C   0  0  0  0  0  0  0  0  0  0  0  0
   12.4484  -13.4194   22.1871 C   0  0  0  0  0  0  0  0  0  0  0  0
   12.2035  -12.1286   22.7710 C   0  0  0  0  0  0  0  0  0  0  0  0
   12.8744  -10.9224   22.3577 C   0  0  0  0  0  0  0  0  0  0  0  0
   14.0972  -12.2742   20.7123 C   0  0  0  0  0  0  0  0  0  0  0  0
   13.8487  -10.9729   21.3118 C   0  0  0  0  0  0  0  0  0  0  0  0
   11.0343  -12.0351   24.0649 Cl  0  0  0  0  0  0  0  0  0  0  0  0
   16.7446  -12.3341   18.2803 N   0  0  0  0  0  0  0  0  0  0  0  0
   15.6943  -12.2561   17.6579 N   0  0  0  0  0  0  0  0  0  0  0  0
   14.6797  -12.2551   18.4193 N   0  0  0  0  0  0  0  0  0  0  0  0
   14.9022  -12.3109   19.6118 N   0  0  0  0  0  0  0  0  0  0  0  0
   16.3199  -12.4206   19.6440 C   0  0  0  0  0  0  0  0  0  0  0  0
 15 16  1  0  0  0
 15 20  2  0  0  0
 16 17  2  0  0  0
 16 12  1  0  0  0
 17 18  1  0  0  0
 17 21  1  0  0  0
 18 19  2  0  0  0
 19 20  1  0  0  0
 12 11  1  0  0  0
 12 13  1  0  0  0
 12 14  1  0  0  0
 11  9  1  0  0  0
  9  1  1  0  0  0
  1  2  1  0  0  0
  1  6  2  0  0  0
  2  3  1  0  0  0
  2  7  2  0  0  0
  3  4  1  0  0  0
  3 22  1  0  0  0
  4  5  2  0  0  0
  4  8  1  0  0  0
  5  6  1  0  0  0
 22 23  1  0  0  0
 23 24  1  0  0  0
 23 25  2  0  0  0
 24 27  1  0  0  0
 27 28  1  0  0  0
 28 29  2  0  0  0
 28 32  1  0  0  0
 29 30  1  0  0  0
 30 31  2  0  0  0
 30 34  1  0  0  0
 31 33  1  0  0  0
 32 33  2  0  0  0
 32 38  1  0  0  0
 35 36  1  0  0  0
 35 39  2  0  0  0
 36 37  2  0  0  0
 37 38  1  0  0  0
 38 39  1  0  0  0
  9 10  1  0  0  0
 24 26  1  0  0  0
M  CHG 1  17   1
M  CHG 1  21  -1
M  END
> <minimizedAffinity>
-9.49964

$$$$
1SL3_170_A_1001


 39 42  0  0  0  0  0  0  0  0999 V2000
   17.9755  -15.4471   22.7697 C   0  0  0  0  0  0  0  0  0  0  0  0
   17.3587  -14.2527   22.1663 C   0  0  0  0  0  0  0  0  0  0  0  0
   18.0427  -13.5475   21.2042 N   0  0  0  0  0  0  0  0  0  0  0  0
   19.3840  -13.8382   20.7513 C   0  0  0  0  0  0  0  0  0  0  0  0
   19.9790  -14.9516   21.3794 C   0  0  0  0  0  0  0  0  0  0  0  0
   19.2928  -15.7348   22.3013 N   0  0  0  0  0  0  0  0  0  0  0  0
   16.2394  -13.8936   22.5197 O   0  0  0  0  0  0  0  0  0  0  0  0
   20.1773  -12.8929   19.5939 Cl  0  0  0  0  0  0  0  0  0  0  0  0
   17.3135  -16.1961   23.7795 N   0  0  0  0  0  0  0  0  0  0  0  0
   16.3623  -16.0459   23.9843 H   0  0  0  0  0  0  0  0  0  0  0  0
   18.1004  -17.2054   24.5095 C   0  0  0  0  0  0  0  0  0  0  0  0
   18.6225  -16.6804   25.8335 C   0  0  0  0  0  0  0  0  0  0  0  0
   18.9289  -17.7905   26.5253 F   0  0  0  0  0  0  0  0  0  0  0  0
   17.6321  -16.0461   26.4835 F   0  0  0  0  0  0  0  0  0  0  0  0
   19.8403  -14.3757   25.9125 C   0  0  0  0  0  0  0  0  0  0  0  0
   19.8609  -15.8028   25.6529 C   0  0  0  0  0  0  0  0  0  0  0  0
   21.0126  -16.4027   25.1288 N   0  0  0  0  0  0  0  0  0  0  0  0
   22.1847  -15.7362   24.8083 C   0  0  0  0  0  0  0  0  0  0  0  0
   22.2117  -14.3210   25.0435 C   0  0  0  0  0  0  0  0  0  0  0  0
   21.0445  -13.6658   25.6001 C   0  0  0  0  0  0  0  0  0  0  0  0
   20.9894  -17.7336   24.9021 O   0  0  0  0  0  0  0  0  0  0  0  0
   17.4136  -12.3522   20.6076 C   0  0  0  0  0  0  0  0  0  0  0  0
   16.6600  -12.7039   19.3346 C   0  0  0  0  0  0  0  0  0  0  0  0
   15.6845  -13.6097   19.4842 N   0  0  0  0  0  0  0  0  0  0  0  0
   16.9317  -12.1516   18.2733 O   0  0  0  0  0  0  0  0  0  0  0  0
   15.4995  -14.0042   20.3670 H   0  0  0  0  0  0  0  0  0  0  0  0
   14.8948  -14.0052   18.3092 C   0  0  0  0  0  0  0  0  0  0  0  0
   14.1130  -15.2903   18.5479 C   0  0  0  0  0  0  0  0  0  0  0  0
   14.3437  -16.3871   17.6464 C   0  0  0  0  0  0  0  0  0  0  0  0
   13.5869  -17.5847   17.8916 C   0  0  0  0  0  0  0  0  0  0  0  0
   12.6396  -17.7271   18.9678 C   0  0  0  0  0  0  0  0  0  0  0  0
   13.1723  -15.4206   19.6209 C   0  0  0  0  0  0  0  0  0  0  0  0
   12.4147  -16.6373   19.8665 C   0  0  0  0  0  0  0  0  0  0  0  0
   13.8526  -18.9417   16.8249 Cl  0  0  0  0  0  0  0  0  0  0  0  0
   12.3844  -12.9760   22.1367 N   0  0  0  0  0  0  0  0  0  0  0  0
   12.2165  -12.4345   21.0527 N   0  0  0  0  0  0  0  0  0  0  0  0
   12.4935  -13.2013   20.0809 N   0  0  0  0  0  0  0  0  0  0  0  0
   12.8531  -14.3251   20.3681 N   0  0  0  0  0  0  0  0  0  0  0  0
   12.8659  -14.2780   21.7896 C   0  0  0  0  0  0  0  0  0  0  0  0
 15 16  1  0  0  0
 15 20  2  0  0  0
 16 17  2  0  0  0
 16 12  1  0  0  0
 17 18  1  0  0  0
 17 21  1  0  0  0
 18 19  2  0  0  0
 19 20  1  0  0  0
 12 11  1  0  0  0
 12 13  1  0  0  0
 12 14  1  0  0  0
 11  9  1  0  0  0
  9  1  1  0  0  0
  1  2  1  0  0  0
  1  6  2  0  0  0
  2  3  1  0  0  0
  2  7  2  0  0  0
  3  4  1  0  0  0
  3 22  1  0  0  0
  4  5  2  0  0  0
  4  8  1  0  0  0
  5  6  1  0  0  0
 22 23  1  0  0  0
 23 24  1  0  0  0
 23 25  2  0  0  0
 24 27  1  0  0  0
 27 28  1  0  0  0
 28 29  2  0  0  0
 28 32  1  0  0  0
 29 30  1  0  0  0
 30 31  2  0  0  0
 30 34  1  0  0  0
 31 33  1  0  0  0
 32 33  2  0  0  0
 32 38  1  0  0  0
 35 36  1  0  0  0
 35 39  2  0  0  0
 36 37  2  0  0  0
 37 38  1  0  0  0
 38 39  1  0  0  0
  9 10  1  0  0  0
 24 26  1  0  0  0
M  CHG 1  17   1
M  CHG 1  21  -1
M  END
> <minimizedAffinity>
-9.48133

$$$$
1SL3_170_A_1001


 39 42  0  0  0  0  0  0  0  0999 V2000
   16.1307  -17.4449   22.4367 C   0  0  0  0  0  0  0  0  0  0  0  0
   15.8928  -17.0255   21.0443 C   0  0  0  0  0  0  0  0  0  0  0  0
   15.0491  -17.7630   20.2475 N   0  0  0  0  0  0  0  0  0  0  0  0
   14.3936  -18.9907   20.6370 C   0  0  0  0  0  0  0  0  0  0  0  0
   14.6766  -19.4058   21.9545 C   0  0  0  0  0  0  0  0  0  0  0  0
   15.4636  -18.6486   22.8154 N   0  0  0  0  0  0  0  0  0  0  0  0
   16.4431  -16.0213   20.6021 O   0  0  0  0  0  0  0  0  0  0  0  0
   13.4043  -19.8674   19.5809 Cl  0  0  0  0  0  0  0  0  0  0  0  0
   17.0080  -16.7239   23.2908 N   0  0  0  0  0  0  0  0  0  0  0  0
   16.7509  -15.8504   23.6652 H   0  0  0  0  0  0  0  0  0  0  0  0
   18.3160  -17.3293   23.5966 C   0  0  0  0  0  0  0  0  0  0  0  0
   19.4720  -16.4234   23.2169 C   0  0  0  0  0  0  0  0  0  0  0  0
   18.9592  -15.6222   22.2682 F   0  0  0  0  0  0  0  0  0  0  0  0
   20.4487  -17.1573   22.6573 F   0  0  0  0  0  0  0  0  0  0  0  0
   19.3557  -15.6917   25.7173 C   0  0  0  0  0  0  0  0  0  0  0  0
   19.9666  -15.5984   24.4049 C   0  0  0  0  0  0  0  0  0  0  0  0
   20.9804  -14.6615   24.1692 N   0  0  0  0  0  0  0  0  0  0  0  0
   21.4730  -13.7658   25.1050 C   0  0  0  0  0  0  0  0  0  0  0  0
   20.8968  -13.8166   26.4181 C   0  0  0  0  0  0  0  0  0  0  0  0
   19.8559  -14.7837   26.7059 C   0  0  0  0  0  0  0  0  0  0  0  0
   21.5219  -14.6078   22.9335 O   0  0  0  0  0  0  0  0  0  0  0  0
   14.8193  -17.3322   18.8539 C   0  0  0  0  0  0  0  0  0  0  0  0
   13.5979  -16.4324   18.7499 C   0  0  0  0  0  0  0  0  0  0  0  0
   13.5942  -15.3820   19.5812 N   0  0  0  0  0  0  0  0  0  0  0  0
   12.7171  -16.6651   17.9282 O   0  0  0  0  0  0  0  0  0  0  0  0
   14.3408  -15.2362   20.2062 H   0  0  0  0  0  0  0  0  0  0  0  0
   12.4575  -14.4507   19.5454 C   0  0  0  0  0  0  0  0  0  0  0  0
   12.6604  -13.2600   20.4731 C   0  0  0  0  0  0  0  0  0  0  0  0
   11.8842  -13.2192   21.6834 C   0  0  0  0  0  0  0  0  0  0  0  0
   12.0912  -12.0804   22.5362 C   0  0  0  0  0  0  0  0  0  0  0  0
   13.0141  -11.0147   22.2391 C   0  0  0  0  0  0  0  0  0  0  0  0
   13.5802  -12.2049   20.1670 C   0  0  0  0  0  0  0  0  0  0  0  0
   13.7889  -11.0588   21.0375 C   0  0  0  0  0  0  0  0  0  0  0  0
   11.1759  -12.0055   24.0217 Cl  0  0  0  0  0  0  0  0  0  0  0  0
   15.7621  -12.3425   17.3127 N   0  0  0  0  0  0  0  0  0  0  0  0
   14.7009  -11.8737   16.9244 N   0  0  0  0  0  0  0  0  0  0  0  0
   13.8360  -11.8026   17.8497 N   0  0  0  0  0  0  0  0  0  0  0  0
   14.1906  -12.1816   18.9475 N   0  0  0  0  0  0  0  0  0  0  0  0
   15.5146  -12.6338   18.6917 C   0  0  0  0  0  0  0  0  0  0  0  0
 15 16  1  0  0  0
 15 20  2  0  0  0
 16 17  2  0  0  0
 16 12  1  0  0  0
 17 18  1  0  0  0
 17 21  1  0  0  0
 18 19  2  0  0  0
 19 20  1  0  0  0
 12 11  1  0  0  0
 12 13  1  0  0  0
 12 14  1  0  0  0
 11  9  1  0  0  0
  9  1  1  0  0  0
  1  2  1  0  0  0
  1  6  2  0  0  0
  2  3  1  0  0  0
  2  7  2  0  0  0
  3  4  1  0  0  0
  3 22  1  0  0  0
  4  5  2  0  0  0
  4  8  1  0  0  0
  5  6  1  0  0  0
 22 23  1  0  0  0
 23 24  1  0  0  0
 23 25  2  0  0  0
 24 27  1  0  0  0
 27 28  1  0  0  0
 28 29  2  0  0  0
 28 32  1  0  0  0
 29 30  1  0  0  0
 30 31  2  0  0  0
 30 34  1  0  0  0
 31 33  1  0  0  0
 32 33  2  0  0  0
 32 38  1  0  0  0
 35 36  1  0  0  0
 35 39  2  0  0  0
 36 37  2  0  0  0
 37 38  1  0  0  0
 38 39  1  0  0  0
  9 10  1  0  0  0
 24 26  1  0  0  0
M  CHG 1  17   1
M  CHG 1  21  -1
M  END
> <minimizedAffinity>
-9.45308

$$$$
1SL3_170_A_1001


 39 42  0  0  0  0  0  0  0  0999 V2000
   17.8941  -15.6211   22.6131 C   0  0  0  0  0  0  0  0  0  0  0  0
   17.4463  -14.2999   22.1387 C   0  0  0  0  0  0  0  0  0  0  0  0
   18.2456  -13.5784   21.2837 N   0  0  0  0  0  0  0  0  0  0  0  0
   19.5601  -13.9766   20.8337 C   0  0  0  0  0  0  0  0  0  0  0  0
   19.9949  -15.2180   21.3417 C   0  0  0  0  0  0  0  0  0  0  0  0
   19.1857  -16.0116   22.1476 N   0  0  0  0  0  0  0  0  0  0  0  0
   16.3640  -13.8500   22.5035 O   0  0  0  0  0  0  0  0  0  0  0  0
   20.5039  -13.0093   19.8158 Cl  0  0  0  0  0  0  0  0  0  0  0  0
   17.1095  -16.3939   23.5110 N   0  0  0  0  0  0  0  0  0  0  0  0
   16.6456  -15.9756   24.2719 H   0  0  0  0  0  0  0  0  0  0  0  0
   17.0147  -17.8432   23.2635 C   0  0  0  0  0  0  0  0  0  0  0  0
   15.6237  -18.2624   22.8271 C   0  0  0  0  0  0  0  0  0  0  0  0
   14.9219  -17.1168   22.8334 F   0  0  0  0  0  0  0  0  0  0  0  0
   15.0931  -19.0795   23.7527 F   0  0  0  0  0  0  0  0  0  0  0  0
   16.8394  -19.0262   20.6501 C   0  0  0  0  0  0  0  0  0  0  0  0
   15.6247  -18.8824   21.4299 C   0  0  0  0  0  0  0  0  0  0  0  0
   14.3882  -19.2272   20.8703 N   0  0  0  0  0  0  0  0  0  0  0  0
   14.1997  -19.7034   19.5825 C   0  0  0  0  0  0  0  0  0  0  0  0
   15.3720  -19.8590   18.7699 C   0  0  0  0  0  0  0  0  0  0  0  0
   16.6722  -19.5278   19.3188 C   0  0  0  0  0  0  0  0  0  0  0  0
   13.2823  -19.0780   21.6305 O   0  0  0  0  0  0  0  0  0  0  0  0
   17.7855  -12.2557   20.8158 C   0  0  0  0  0  0  0  0  0  0  0  0
   16.3742  -12.3303   20.2546 C   0  0  0  0  0  0  0  0  0  0  0  0
   15.4972  -11.4832   20.8092 N   0  0  0  0  0  0  0  0  0  0  0  0
   16.1051  -13.0991   19.3371 O   0  0  0  0  0  0  0  0  0  0  0  0
   15.7774  -10.8743   21.5303 H   0  0  0  0  0  0  0  0  0  0  0  0
   14.1096  -11.4772   20.3239 C   0  0  0  0  0  0  0  0  0  0  0  0
   13.1013  -11.4790   21.4653 C   0  0  0  0  0  0  0  0  0  0  0  0
   13.0506  -10.3163   22.3105 C   0  0  0  0  0  0  0  0  0  0  0  0
   12.0945  -10.3488   23.3838 C   0  0  0  0  0  0  0  0  0  0  0  0
   11.2138  -11.4602   23.6383 C   0  0  0  0  0  0  0  0  0  0  0  0
   12.2308  -12.5905   21.7099 C   0  0  0  0  0  0  0  0  0  0  0  0
   11.2618  -12.6138   22.7940 C   0  0  0  0  0  0  0  0  0  0  0  0
   11.9956   -8.9474   24.4213 Cl  0  0  0  0  0  0  0  0  0  0  0  0
   12.9711  -15.8660   20.4258 N   0  0  0  0  0  0  0  0  0  0  0  0
   12.5490  -15.2052   19.4868 N   0  0  0  0  0  0  0  0  0  0  0  0
   12.2263  -14.0275   19.8305 N   0  0  0  0  0  0  0  0  0  0  0  0
   12.3987  -13.7417   20.9981 N   0  0  0  0  0  0  0  0  0  0  0  0
   12.8740  -14.9693   21.5366 C   0  0  0  0  0  0  0  0  0  0  0  0
 15 16  1  0  0  0
 15 20  2  0  0  0
 16 17  2  0  0  0
 16 12  1  0  0  0
 17 18  1  0  0  0
 17 21  1  0  0  0
 18 19  2  0  0  0
 19 20  1  0  0  0
 12 11  1  0  0  0
 12 13  1  0  0  0
 12 14  1  0  0  0
 11  9  1  0  0  0
  9  1  1  0  0  0
  1  2  1  0  0  0
  1  6  2  0  0  0
  2  3  1  0  0  0
  2  7  2  0  0  0
  3  4  1  0  0  0
  3 22  1  0  0  0
  4  5  2  0  0  0
  4  8  1  0  0  0
  5  6  1  0  0  0
 22 23  1  0  0  0
 23 24  1  0  0  0
 23 25  2  0  0  0
 24 27  1  0  0  0
 27 28  1  0  0  0
 28 29  2  0  0  0
 28 32  1  0  0  0
 29 30  1  0  0  0
 30 31  2  0  0  0
 30 34  1  0  0  0
 31 33  1  0  0  0
 32 33  2  0  0  0
 32 38  1  0  0  0
 35 36  1  0  0  0
 35 39  2  0  0  0
 36 37  2  0  0  0
 37 38  1  0  0  0
 38 39  1  0  0  0
  9 10  1  0  0  0
 24 26  1  0  0  0
M  CHG 1  17   1
M  CHG 1  21  -1
M  END
> <minimizedAffinity>
-9.37415

$$$$
1SL3_170_A_1001


 39 42  0  0  0  0  0  0  0  0999 V2000
   17.9940  -15.5321   23.9360 C   0  0  0  0  0  0  0  0  0  0  0  0
   17.3825  -15.7719   22.6170 C   0  0  0  0  0  0  0  0  0  0  0  0
   16.6379  -16.9092   22.4101 N   0  0  0  0  0  0  0  0  0  0  0  0
   16.4374  -17.9635   23.3780 C   0  0  0  0  0  0  0  0  0  0  0  0
   17.0755  -17.7426   24.6158 C   0  0  0  0  0  0  0  0  0  0  0  0
   17.7738  -16.5715   24.8892 N   0  0  0  0  0  0  0  0  0  0  0  0
   17.5357  -14.9579   21.7111 O   0  0  0  0  0  0  0  0  0  0  0  0
   15.5439  -19.3578   23.0311 Cl  0  0  0  0  0  0  0  0  0  0  0  0
   18.7860  -14.3800   24.1900 N   0  0  0  0  0  0  0  0  0  0  0  0
   18.6491  -13.5462   23.6848 H   0  0  0  0  0  0  0  0  0  0  0  0
   19.8191  -14.4771   25.2359 C   0  0  0  0  0  0  0  0  0  0  0  0
   21.2217  -14.4992   24.6586 C   0  0  0  0  0  0  0  0  0  0  0  0
   21.8834  -13.5764   25.3766 F   0  0  0  0  0  0  0  0  0  0  0  0
   21.1849  -14.0835   23.3813 F   0  0  0  0  0  0  0  0  0  0  0  0
   21.2480  -16.9556   25.5340 C   0  0  0  0  0  0  0  0  0  0  0  0
   21.8813  -15.8698   24.8099 C   0  0  0  0  0  0  0  0  0  0  0  0
   23.1784  -16.0267   24.3059 N   0  0  0  0  0  0  0  0  0  0  0  0
   23.9572  -17.1644   24.4462 C   0  0  0  0  0  0  0  0  0  0  0  0
   23.3755  -18.2653   25.1593 C   0  0  0  0  0  0  0  0  0  0  0  0
   22.0288  -18.1473   25.6826 C   0  0  0  0  0  0  0  0  0  0  0  0
   23.7307  -14.9913   23.6380 O   0  0  0  0  0  0  0  0  0  0  0  0
   16.0307  -17.1378   21.0837 C   0  0  0  0  0  0  0  0  0  0  0  0
   14.6357  -16.5376   21.0057 C   0  0  0  0  0  0  0  0  0  0  0  0
   14.5501  -15.3868   20.3254 N   0  0  0  0  0  0  0  0  0  0  0  0
   13.6775  -17.1126   21.5121 O   0  0  0  0  0  0  0  0  0  0  0  0
   15.3527  -14.9826   19.9233 H   0  0  0  0  0  0  0  0  0  0  0  0
   13.2386  -14.7370   20.1891 C   0  0  0  0  0  0  0  0  0  0  0  0
   13.1696  -13.4169   20.9456 C   0  0  0  0  0  0  0  0  0  0  0  0
   12.2561  -13.3315   22.0533 C   0  0  0  0  0  0  0  0  0  0  0  0
   12.2069  -12.0715   22.7442 C   0  0  0  0  0  0  0  0  0  0  0  0
   13.0091  -10.9298   22.3855 C   0  0  0  0  0  0  0  0  0  0  0  0
   13.9713  -12.2872   20.5794 C   0  0  0  0  0  0  0  0  0  0  0  0
   13.9207  -11.0176   21.2868 C   0  0  0  0  0  0  0  0  0  0  0  0
   11.1191  -11.9367   24.1037 Cl  0  0  0  0  0  0  0  0  0  0  0  0
   16.4807  -12.3752   18.0062 N   0  0  0  0  0  0  0  0  0  0  0  0
   15.3979  -12.3004   17.4418 N   0  0  0  0  0  0  0  0  0  0  0  0
   14.4267  -12.2901   18.2578 N   0  0  0  0  0  0  0  0  0  0  0  0
   14.7144  -12.3357   19.4367 N   0  0  0  0  0  0  0  0  0  0  0  0
   16.1315  -12.4484   19.3919 C   0  0  0  0  0  0  0  0  0  0  0  0
 15 16  1  0  0  0
 15 20  2  0  0  0
 16 17  2  0  0  0
 16 12  1  0  0  0
 17 18  1  0  0  0
 17 21  1  0  0  0
 18 19  2  0  0  0
 19 20  1  0  0  0
 12 11  1  0  0  0
 12 13  1  0  0  0
 12 14  1  0  0  0
 11  9  1  0  0  0
  9  1  1  0  0  0
  1  2  1  0  0  0
  1  6  2  0  0  0
  2  3  1  0  0  0
  2  7  2  0  0  0
  3  4  1  0  0  0
  3 22  1  0  0  0
  4  5  2  0  0  0
  4  8  1  0  0  0
  5  6  1  0  0  0
 22 23  1  0  0  0
 23 24  1  0  0  0
 23 25  2  0  0  0
 24 27  1  0  0  0
 27 28  1  0  0  0
 28 29  2  0  0  0
 28 32  1  0  0  0
 29 30  1  0  0  0
 30 31  2  0  0  0
 30 34  1  0  0  0
 31 33  1  0  0  0
 32 33  2  0  0  0
 32 38  1  0  0  0
 35 36  1  0  0  0
 35 39  2  0  0  0
 36 37  2  0  0  0
 37 38  1  0  0  0
 38 39  1  0  0  0
  9 10  1  0  0  0
 24 26  1  0  0  0
M  CHG 1  17   1
M  CHG 1  21  -1
M  END
> <minimizedAffinity>
-9.12912

$$$$
1SL3_170_A_1001


 39 42  0  0  0  0  0  0  0  0999 V2000
   14.0008  -17.4905   20.2752 C   0  0  0  0  0  0  0  0  0  0  0  0
   14.6869  -17.9454   21.4974 C   0  0  0  0  0  0  0  0  0  0  0  0
   15.8862  -18.6101   21.3957 N   0  0  0  0  0  0  0  0  0  0  0  0
   16.5368  -18.9743   20.1576 C   0  0  0  0  0  0  0  0  0  0  0  0
   15.8383  -18.5791   18.9982 C   0  0  0  0  0  0  0  0  0  0  0  0
   14.6620  -17.8399   19.0594 N   0  0  0  0  0  0  0  0  0  0  0  0
   14.1902  -17.7276   22.5985 O   0  0  0  0  0  0  0  0  0  0  0  0
   17.9924  -19.8355   20.1149 Cl  0  0  0  0  0  0  0  0  0  0  0  0
   12.7516  -16.8158   20.3311 N   0  0  0  0  0  0  0  0  0  0  0  0
   11.9601  -17.1696   19.8646 H   0  0  0  0  0  0  0  0  0  0  0  0
   12.6823  -15.5680   21.1115 C   0  0  0  0  0  0  0  0  0  0  0  0
   12.9407  -14.3408   20.2583 C   0  0  0  0  0  0  0  0  0  0  0  0
   12.0692  -14.4613   19.2430 F   0  0  0  0  0  0  0  0  0  0  0  0
   14.1827  -14.4048   19.7493 F   0  0  0  0  0  0  0  0  0  0  0  0
   12.0941  -13.0362   22.3517 C   0  0  0  0  0  0  0  0  0  0  0  0
   12.6895  -13.0447   21.0289 C   0  0  0  0  0  0  0  0  0  0  0  0
   12.9640  -11.8364   20.3766 N   0  0  0  0  0  0  0  0  0  0  0  0
   12.7012  -10.5754   20.8880 C   0  0  0  0  0  0  0  0  0  0  0  0
   12.1079  -10.5150   22.1930 C   0  0  0  0  0  0  0  0  0  0  0  0
   11.8232  -11.7440   22.9072 C   0  0  0  0  0  0  0  0  0  0  0  0
   13.5184  -11.8894   19.1465 O   0  0  0  0  0  0  0  0  0  0  0  0
   16.5634  -19.0609   22.6280 C   0  0  0  0  0  0  0  0  0  0  0  0
   17.5270  -18.0042   23.1450 C   0  0  0  0  0  0  0  0  0  0  0  0
   17.0790  -16.7438   23.0734 N   0  0  0  0  0  0  0  0  0  0  0  0
   18.6129  -18.3247   23.6175 O   0  0  0  0  0  0  0  0  0  0  0  0
   16.1883  -16.5500   22.7015 H   0  0  0  0  0  0  0  0  0  0  0  0
   17.9386  -15.6548   23.5590 C   0  0  0  0  0  0  0  0  0  0  0  0
   18.4095  -14.7471   22.4303 C   0  0  0  0  0  0  0  0  0  0  0  0
   17.4036  -14.0646   21.6613 C   0  0  0  0  0  0  0  0  0  0  0  0
   17.8768  -13.2204   20.5981 C   0  0  0  0  0  0  0  0  0  0  0  0
   19.2703  -13.0350   20.2825 C   0  0  0  0  0  0  0  0  0  0  0  0
   19.7982  -14.5710   22.1244 C   0  0  0  0  0  0  0  0  0  0  0  0
   20.2697  -13.7105   21.0511 C   0  0  0  0  0  0  0  0  0  0  0  0
   16.6833  -12.3646   19.6529 Cl  0  0  0  0  0  0  0  0  0  0  0  0
   22.4202  -16.0024   24.1250 N   0  0  0  0  0  0  0  0  0  0  0  0
   22.0464  -16.8760   23.3544 N   0  0  0  0  0  0  0  0  0  0  0  0
   21.0949  -16.4894   22.6098 N   0  0  0  0  0  0  0  0  0  0  0  0
   20.7268  -15.3420   22.7598 N   0  0  0  0  0  0  0  0  0  0  0  0
   21.5495  -14.9047   23.8344 C   0  0  0  0  0  0  0  0  0  0  0  0
 15 16  1  0  0  0
 15 20  2  0  0  0
 16 17  2  0  0  0
 16 12  1  0  0  0
 17 18  1  0  0  0
 17 21  1  0  0  0
 18 19  2  0  0  0
 19 20  1  0  0  0
 12 11  1  0  0  0
 12 13  1  0  0  0
 12 14  1  0  0  0
 11  9  1  0  0  0
  9  1  1  0  0  0
  1  2  1  0  0  0
  1  6  2  0  0  0
  2  3  1  0  0  0
  2  7  2  0  0  0
  3  4  1  0  0  0
  3 22  1  0  0  0
  4  5  2  0  0  0
  4  8  1  0  0  0
  5  6  1  0  0  0
 22 23  1  0  0  0
 23 24  1  0  0  0
 23 25  2  0  0  0
 24 27  1  0  0  0
 27 28  1  0  0  0
 28 29  2  0  0  0
 28 32  1  0  0  0
 29 30  1  0  0  0
 30 31  2  0  0  0
 30 34  1  0  0  0
 31 33  1  0  0  0
 32 33  2  0  0  0
 32 38  1  0  0  0
 35 36  1  0  0  0
 35 39  2  0  0  0
 36 37  2  0  0  0
 37 38  1  0  0  0
 38 39  1  0  0  0
  9 10  1  0  0  0
 24 26  1  0  0  0
M  CHG 1  17   1
M  CHG 1  21  -1
M  END
> <minimizedAffinity>
-9.11300

$$$$
1SL3_170_A_1001


 39 42  0  0  0  0  0  0  0  0999 V2000
   16.1708  -13.4841   21.4457 C   0  0  0  0  0  0  0  0  0  0  0  0
   17.3496  -13.9040   22.2237 C   0  0  0  0  0  0  0  0  0  0  0  0
   18.6097  -13.6877   21.7177 N   0  0  0  0  0  0  0  0  0  0  0  0
   18.9029  -13.1215   20.4207 C   0  0  0  0  0  0  0  0  0  0  0  0
   17.7616  -12.7765   19.6678 C   0  0  0  0  0  0  0  0  0  0  0  0
   16.4734  -12.9097   20.1745 N   0  0  0  0  0  0  0  0  0  0  0  0
   17.2047  -14.4402   23.3183 O   0  0  0  0  0  0  0  0  0  0  0  0
   20.4837  -12.9299   19.8489 Cl  0  0  0  0  0  0  0  0  0  0  0  0
   14.8497  -13.7034   21.9208 N   0  0  0  0  0  0  0  0  0  0  0  0
   14.6064  -13.5134   22.8556 H   0  0  0  0  0  0  0  0  0  0  0  0
   13.8568  -14.2250   20.9653 C   0  0  0  0  0  0  0  0  0  0  0  0
   12.8136  -13.1875   20.5960 C   0  0  0  0  0  0  0  0  0  0  0  0
   11.7346  -13.9154   20.2635 F   0  0  0  0  0  0  0  0  0  0  0  0
   13.2169  -12.5191   19.5022 F   0  0  0  0  0  0  0  0  0  0  0  0
   11.5157  -12.6025   22.7810 C   0  0  0  0  0  0  0  0  0  0  0  0
   12.4926  -12.2572   21.7657 C   0  0  0  0  0  0  0  0  0  0  0  0
   13.1048  -10.9979   21.7824 N   0  0  0  0  0  0  0  0  0  0  0  0
   12.8503   -9.9987   22.7084 C   0  0  0  0  0  0  0  0  0  0  0  0
   11.8874  -10.2914   23.7310 C   0  0  0  0  0  0  0  0  0  0  0  0
   11.2435  -11.5899   23.7570 C   0  0  0  0  0  0  0  0  0  0  0  0
   14.0083  -10.7173   20.8190 O   0  0  0  0  0  0  0  0  0  0  0  0
   19.7827  -14.1134   22.5071 C   0  0  0  0  0  0  0  0  0  0  0  0
   20.0097  -15.6126   22.3917 C   0  0  0  0  0  0  0  0  0  0  0  0
   19.7657  -16.3112   23.5083 N   0  0  0  0  0  0  0  0  0  0  0  0
   20.3579  -16.1130   21.3271 O   0  0  0  0  0  0  0  0  0  0  0  0
   19.4685  -15.8552   24.3287 H   0  0  0  0  0  0  0  0  0  0  0  0
   19.9487  -17.7696   23.4891 C   0  0  0  0  0  0  0  0  0  0  0  0
   18.9554  -18.4857   24.3946 C   0  0  0  0  0  0  0  0  0  0  0  0
   19.4238  -18.9230   25.6823 C   0  0  0  0  0  0  0  0  0  0  0  0
   18.4665  -19.6022   26.5127 C   0  0  0  0  0  0  0  0  0  0  0  0
   17.1028  -19.8533   26.1217 C   0  0  0  0  0  0  0  0  0  0  0  0
   17.6014  -18.7313   23.9950 C   0  0  0  0  0  0  0  0  0  0  0  0
   16.6369  -19.4137   24.8428 C   0  0  0  0  0  0  0  0  0  0  0  0
   18.9970  -20.1342   28.0893 Cl  0  0  0  0  0  0  0  0  0  0  0  0
   16.8520  -18.6285   20.4801 N   0  0  0  0  0  0  0  0  0  0  0  0
   16.5950  -17.5199   20.9291 N   0  0  0  0  0  0  0  0  0  0  0  0
   16.7971  -17.4455   22.1792 N   0  0  0  0  0  0  0  0  0  0  0  0
   17.2191  -18.4494   22.7164 N   0  0  0  0  0  0  0  0  0  0  0  0
   17.2544  -19.3721   21.6346 C   0  0  0  0  0  0  0  0  0  0  0  0
 15 16  1  0  0  0
 15 20  2  0  0  0
 16 17  2  0  0  0
 16 12  1  0  0  0
 17 18  1  0  0  0
 17 21  1  0  0  0
 18 19  2  0  0  0
 19 20  1  0  0  0
 12 11  1  0  0  0
 12 13  1  0  0  0
 12 14  1  0  0  0
 11  9  1  0  0  0
  9  1  1  0  0  0
  1  2  1  0  0  0
  1  6  2  0  0  0
  2  3  1  0  0  0
  2  7  2  0  0  0
  3  4  1  0  0  0
  3 22  1  0  0  0
  4  5  2  0  0  0
  4  8  1  0  0  0
  5  6  1  0  0  0
 22 23  1  0  0  0
 23 24  1  0  0  0
 23 25  2  0  0  0
 24 27  1  0  0  0
 27 28  1  0  0  0
 28 29  2  0  0  0
 28 32  1  0  0  0
 29 30  1  0  0  0
 30 31  2  0  0  0
 30 34  1  0  0  0
 31 33  1  0  0  0
 32 33  2  0  0  0
 32 38  1  0  0  0
 35 36  1  0  0  0
 35 39  2  0  0  0
 36 37  2  0  0  0
 37 38  1  0  0  0
 38 39  1  0  0  0
  9 10  1  0  0  0
 24 26  1  0  0  0
M  CHG 1  17   1
M  CHG 1  21  -1
M  END
> <minimizedAffinity>
-9.08882

$$$$
