1D7I_DSS_A_301


  6  5  0  0  0  0  0  0  0  0999 V2000
   60.9795   -5.9392   -0.2029 S   0  0  0  0  0  0  0  0  0  0  0  0
   59.7736   -6.2474    0.6439 O   0  0  0  0  0  0  0  0  0  0  0  0
   60.5377   -6.1790   -1.9181 C   0  0  0  0  0  0  0  0  0  0  0  0
   61.1557   -4.2294   -0.2618 C   0  0  0  0  0  0  0  0  0  0  0  0
   60.4874   -3.4989   -1.7619 S   0  0  0  0  0  0  0  0  0  0  0  0
   58.9016   -2.8597   -1.0568 C   0  0  0  0  0  0  0  0  0  0  0  0
  1  2  2  0  0  0
  1  3  1  0  0  0
  1  4  1  0  0  0
  4  5  1  0  0  0
  5  6  1  0  0  0
M  END
> <minimizedAffinity>
-2.87424

$$$$
1D7I_DSS_A_301


  6  5  0  0  0  0  0  0  0  0999 V2000
   58.9933   -3.5452   -1.5102 S   0  0  0  0  0  0  0  0  0  0  0  0
   59.1729   -2.0550   -1.3957 O   0  0  0  0  0  0  0  0  0  0  0  0
   58.2090   -3.8979   -3.0770 C   0  0  0  0  0  0  0  0  0  0  0  0
   60.5271   -4.2316   -1.8765 C   0  0  0  0  0  0  0  0  0  0  0  0
   60.6388   -5.9779   -1.4657 S   0  0  0  0  0  0  0  0  0  0  0  0
   60.0349   -5.8746    0.2794 C   0  0  0  0  0  0  0  0  0  0  0  0
  1  2  2  0  0  0
  1  3  1  0  0  0
  1  4  1  0  0  0
  4  5  1  0  0  0
  5  6  1  0  0  0
M  END
> <minimizedAffinity>
-2.85360

$$$$
1D7I_DSS_A_301


  6  5  0  0  0  0  0  0  0  0999 V2000
   58.9620   -3.6516   -2.4080 S   0  0  0  0  0  0  0  0  0  0  0  0
   58.4625   -4.9622   -2.9545 O   0  0  0  0  0  0  0  0  0  0  0  0
   58.3617   -3.4757   -0.7337 C   0  0  0  0  0  0  0  0  0  0  0  0
   60.6268   -3.8449   -2.0219 C   0  0  0  0  0  0  0  0  0  0  0  0
   60.9125   -4.2353   -0.2908 S   0  0  0  0  0  0  0  0  0  0  0  0
   61.0453   -6.0727   -0.4561 C   0  0  0  0  0  0  0  0  0  0  0  0
  1  2  2  0  0  0
  1  3  1  0  0  0
  1  4  1  0  0  0
  4  5  1  0  0  0
  5  6  1  0  0  0
M  END
> <minimizedAffinity>
-2.75165

$$$$
1D7I_DSS_A_301


  6  5  0  0  0  0  0  0  0  0999 V2000
   60.6582   -5.9770   -1.3060 S   0  0  0  0  0  0  0  0  0  0  0  0
   59.6120   -6.7273   -2.0861 O   0  0  0  0  0  0  0  0  0  0  0  0
   60.6252   -4.2664   -1.8228 C   0  0  0  0  0  0  0  0  0  0  0  0
   60.0521   -5.7341    0.2851 C   0  0  0  0  0  0  0  0  0  0  0  0
   59.1601   -4.1853    0.4754 S   0  0  0  0  0  0  0  0  0  0  0  0
   59.3505   -3.9977    2.3055 C   0  0  0  0  0  0  0  0  0  0  0  0
  1  2  2  0  0  0
  1  3  1  0  0  0
  1  4  1  0  0  0
  4  5  1  0  0  0
  5  6  1  0  0  0
M  END
> <minimizedAffinity>
-2.62415

$$$$
1D7I_DSS_A_301


  6  5  0  0  0  0  0  0  0  0999 V2000
   58.7931   -2.7982   -0.7966 S   0  0  0  0  0  0  0  0  0  0  0  0
   58.6197   -1.3029   -0.8008 O   0  0  0  0  0  0  0  0  0  0  0  0
   59.6041   -3.2740   -2.3166 C   0  0  0  0  0  0  0  0  0  0  0  0
   60.0912   -3.1726    0.2677 C   0  0  0  0  0  0  0  0  0  0  0  0
   61.1055   -4.5414   -0.3051 S   0  0  0  0  0  0  0  0  0  0  0  0
   60.0359   -5.9268    0.2926 C   0  0  0  0  0  0  0  0  0  0  0  0
  1  2  2  0  0  0
  1  3  1  0  0  0
  1  4  1  0  0  0
  4  5  1  0  0  0
  5  6  1  0  0  0
M  END
> <minimizedAffinity>
-2.54707

$$$$
1D7I_DSS_A_301


  6  5  0  0  0  0  0  0  0  0999 V2000
   58.6891   -2.5960   -0.5600 S   0  0  0  0  0  0  0  0  0  0  0  0
   59.3658   -2.4508   -1.8968 O   0  0  0  0  0  0  0  0  0  0  0  0
   57.0286   -3.1979   -0.8333 C   0  0  0  0  0  0  0  0  0  0  0  0
   59.3117   -4.0121    0.1917 C   0  0  0  0  0  0  0  0  0  0  0  0
   61.0648   -4.2650   -0.1141 S   0  0  0  0  0  0  0  0  0  0  0  0
   61.0023   -6.0696   -0.5143 C   0  0  0  0  0  0  0  0  0  0  0  0
  1  2  2  0  0  0
  1  3  1  0  0  0
  1  4  1  0  0  0
  4  5  1  0  0  0
  5  6  1  0  0  0
M  END
> <minimizedAffinity>
-2.52367

$$$$
1D7I_DSS_A_301


  6  5  0  0  0  0  0  0  0  0999 V2000
   59.0845   -4.2879    0.4937 S   0  0  0  0  0  0  0  0  0  0  0  0
   57.6160   -4.6189    0.4844 O   0  0  0  0  0  0  0  0  0  0  0  0
   59.5607   -3.8924    2.1704 C   0  0  0  0  0  0  0  0  0  0  0  0
   59.9558   -5.7649    0.3638 C   0  0  0  0  0  0  0  0  0  0  0  0
   60.6801   -6.0204   -1.2612 S   0  0  0  0  0  0  0  0  0  0  0  0
   60.5030   -4.2939   -1.9003 C   0  0  0  0  0  0  0  0  0  0  0  0
  1  2  2  0  0  0
  1  3  1  0  0  0
  1  4  1  0  0  0
  4  5  1  0  0  0
  5  6  1  0  0  0
M  END
> <minimizedAffinity>
-2.46968

$$$$
1D7I_DSS_A_301


  6  5  0  0  0  0  0  0  0  0999 V2000
   58.9406   -3.8827   -2.2690 S   0  0  0  0  0  0  0  0  0  0  0  0
   58.4931   -3.1189   -3.4866 O   0  0  0  0  0  0  0  0  0  0  0  0
   60.6806   -3.5638   -2.0139 C   0  0  0  0  0  0  0  0  0  0  0  0
   58.3615   -3.0455   -0.8828 C   0  0  0  0  0  0  0  0  0  0  0  0
   59.6767   -2.3541    0.1288 S   0  0  0  0  0  0  0  0  0  0  0  0
   59.5676   -3.5394    1.5444 C   0  0  0  0  0  0  0  0  0  0  0  0
  1  2  2  0  0  0
  1  3  1  0  0  0
  1  4  1  0  0  0
  4  5  1  0  0  0
  5  6  1  0  0  0
M  END
> <minimizedAffinity>
-2.30198

$$$$
1D7I_DSS_A_301


  6  5  0  0  0  0  0  0  0  0999 V2000
   59.1401   -3.8916   -2.4680 S   0  0  0  0  0  0  0  0  0  0  0  0
   58.9292   -3.0861   -3.7221 O   0  0  0  0  0  0  0  0  0  0  0  0
   60.6065   -3.2813   -1.6483 C   0  0  0  0  0  0  0  0  0  0  0  0
   57.9988   -3.3520   -1.3000 C   0  0  0  0  0  0  0  0  0  0  0  0
   56.3253   -3.2351   -1.9452 S   0  0  0  0  0  0  0  0  0  0  0  0
   55.7642   -1.7787   -0.9529 C   0  0  0  0  0  0  0  0  0  0  0  0
  1  2  2  0  0  0
  1  3  1  0  0  0
  1  4  1  0  0  0
  4  5  1  0  0  0
  5  6  1  0  0  0
M  END
> <minimizedAffinity>
-2.27158

$$$$
1D7I_DSS_A_301


  6  5  0  0  0  0  0  0  0  0999 V2000
   59.6356   -4.5764   -0.5147 S   0  0  0  0  0  0  0  0  0  0  0  0
   59.8327   -5.7850   -1.3902 O   0  0  0  0  0  0  0  0  0  0  0  0
   61.2415   -4.0005    0.0180 C   0  0  0  0  0  0  0  0  0  0  0  0
   59.2562   -3.2455   -1.5359 C   0  0  0  0  0  0  0  0  0  0  0  0
   58.6753   -3.7428   -3.1625 S   0  0  0  0  0  0  0  0  0  0  0  0
   56.8591   -3.5871   -2.8499 C   0  0  0  0  0  0  0  0  0  0  0  0
  1  2  2  0  0  0
  1  3  1  0  0  0
  1  4  1  0  0  0
  4  5  1  0  0  0
  5  6  1  0  0  0
M  END
> <minimizedAffinity>
-2.26423

$$$$
