5TEF_GTG_A_801


 42 44  0  0  0  0  0  0  0  0999 V2000
   35.7063   65.0884   30.2269 C   0  0  0  0  0  0  0  0  0  0  0  0
   36.3168   66.2403   29.5975 O   0  0  0  0  0  0  0  0  0  0  0  0
   35.8484   65.3042   31.7248 C   0  0  0  0  0  0  0  0  0  0  0  0
   35.8789   64.0769   32.4603 O   0  0  0  0  0  0  0  0  0  0  0  0
   37.1761   66.0258   31.8081 C   0  0  0  0  0  0  0  0  0  0  0  0
   38.2096   65.0603   31.7631 O   0  0  0  0  0  0  0  0  0  0  0  0
   37.1466   66.9005   30.5395 C   0  0  0  0  0  0  0  0  0  0  0  0
   36.6058   63.5231   32.1351 H   0  0  0  0  0  0  0  0  0  0  0  0
   38.1039   64.5104   30.9711 H   0  0  0  0  0  0  0  0  0  0  0  0
   36.6366   68.2808   30.7502 N   0  0  0  0  0  0  0  0  0  0  0  0
   36.9535   69.3510   30.0128 C   0  0  0  0  0  0  0  0  0  0  0  0
   36.4023   70.4384   30.5257 N   0  0  0  0  0  0  0  0  0  0  0  0
   36.5628   71.7949   29.9957 C   0  0  0  0  0  0  0  0  0  0  0  0
   35.6619   70.0663   31.6378 C   0  0  0  0  0  0  0  0  0  0  0  0
   34.8399   70.7915   32.5365 C   0  0  0  0  0  0  0  0  0  0  0  0
   34.6670   72.0128   32.6051 O   0  0  0  0  0  0  0  0  0  0  0  0
   34.2881   69.9440   33.4785 N   0  0  0  0  0  0  0  0  0  0  0  0
   34.5392   68.5958   33.5932 C   0  0  0  0  0  0  0  0  0  0  0  0
   33.9983   67.9606   34.6421 N   0  0  0  0  0  0  0  0  0  0  0  0
   35.3108   67.9225   32.7437 N   0  0  0  0  0  0  0  0  0  0  0  0
   35.8285   68.7026   31.7779 C   0  0  0  0  0  0  0  0  0  0  0  0
   33.6598   70.3398   34.1248 H   0  0  0  0  0  0  0  0  0  0  0  0
   33.4265   68.4530   35.2744 H   0  0  0  0  0  0  0  0  0  0  0  0
   34.1729   67.0016   34.7803 H   0  0  0  0  0  0  0  0  0  0  0  0
   34.2899   64.9886   29.7806 C   0  0  0  0  0  0  0  0  0  0  0  0
   33.5193   64.8055   30.9707 O   0  0  0  0  0  0  0  0  0  0  0  0
   32.5075   63.5938   31.0906 P   0  0  0  0  0  0  0  0  0  0  0  0
   33.1726   62.3592   30.6283 O   0  0  0  0  0  0  0  0  0  0  0  0
   31.3138   63.8966   30.0844 O   0  0  0  0  0  0  0  0  0  0  0  0
   30.6661   63.1757   30.1249 H   0  0  0  0  0  0  0  0  0  0  0  0
   32.0153   63.3724   32.6001 O   0  0  0  0  0  0  0  0  0  0  0  0
   32.5503   63.6703   34.0813 P   0  0  0  0  0  0  0  0  0  0  0  0
   33.4704   64.8256   34.1019 O   0  0  0  0  0  0  0  0  0  0  0  0
   33.1896   62.4383   34.7348 O   0  0  0  0  0  0  0  0  0  0  0  0
   33.9645   62.1645   34.2195 H   0  0  0  0  0  0  0  0  0  0  0  0
   31.2942   64.0748   34.9589 O   0  0  0  0  0  0  0  0  0  0  0  0
   31.3945   64.8644   36.3339 P   0  0  0  0  0  0  0  0  0  0  0  0
   30.1417   64.6447   37.0999 O   0  0  0  0  0  0  0  0  0  0  0  0
   31.6049   66.3695   35.9935 O   0  0  0  0  0  0  0  0  0  0  0  0
   32.7566   64.3370   37.0075 O   0  0  0  0  0  0  0  0  0  0  0  0
   30.8003   66.7239   35.5836 H   0  0  0  0  0  0  0  0  0  0  0  0
   32.6629   63.3985   37.2342 H   0  0  0  0  0  0  0  0  0  0  0  0
 27 28  2  0  0  0
 27 29  1  0  0  0
 27 31  1  0  0  0
 27 26  1  0  0  0
 31 32  1  0  0  0
 32 33  2  0  0  0
 32 34  1  0  0  0
 32 36  1  0  0  0
 36 37  1  0  0  0
 10 11  1  0  0  0
 10 21  1  0  0  0
 10  7  1  0  0  0
 11 12  2  0  0  0
 12 13  1  0  0  0
 12 14  1  0  0  0
 14 15  1  0  0  0
 14 21  2  0  0  0
 15 16  2  0  0  0
 15 17  1  0  0  0
 17 18  1  0  0  0
 18 19  1  0  0  0
 18 20  2  0  0  0
 20 21  1  0  0  0
 26 25  1  0  0  0
 25  1  1  0  0  0
  1  2  1  0  0  0
  1  3  1  0  0  0
  2  7  1  0  0  0
  3  4  1  0  0  0
  3  5  1  0  0  0
  5  6  1  0  0  0
  5  7  1  0  0  0
 37 38  2  0  0  0
 37 39  1  0  0  0
 37 40  1  0  0  0
 29 30  1  0  0  0
 34 35  1  0  0  0
 17 22  1  0  0  0
 19 23  1  0  0  0
 19 24  1  0  0  0
  4  8  1  0  0  0
  6  9  1  0  0  0
 39 41  1  0  0  0
 40 42  1  0  0  0
M  CHG 1  12   1
M  END
> <minimizedAffinity>
-9.85116

$$$$
5TEF_GTG_A_801


 42 44  0  0  0  0  0  0  0  0999 V2000
   35.5448   64.8630   29.5479 C   0  0  0  0  0  0  0  0  0  0  0  0
   35.9604   66.2316   29.3244 O   0  0  0  0  0  0  0  0  0  0  0  0
   35.9262   64.5376   30.9829 C   0  0  0  0  0  0  0  0  0  0  0  0
   36.1637   63.1416   31.1893 O   0  0  0  0  0  0  0  0  0  0  0  0
   37.1975   65.3408   31.1540 C   0  0  0  0  0  0  0  0  0  0  0  0
   38.2700   64.5952   30.6099 O   0  0  0  0  0  0  0  0  0  0  0  0
   36.8932   66.6044   30.3257 C   0  0  0  0  0  0  0  0  0  0  0  0
   36.8596   62.8392   30.5850 H   0  0  0  0  0  0  0  0  0  0  0  0
   38.0674   64.3609   29.6907 H   0  0  0  0  0  0  0  0  0  0  0  0
   36.3359   67.7388   31.1082 N   0  0  0  0  0  0  0  0  0  0  0  0
   35.6668   67.6369   32.2621 C   0  0  0  0  0  0  0  0  0  0  0  0
   35.2291   68.8256   32.6426 N   0  0  0  0  0  0  0  0  0  0  0  0
   34.4308   69.0850   33.8435 C   0  0  0  0  0  0  0  0  0  0  0  0
   35.6535   69.7624   31.7122 C   0  0  0  0  0  0  0  0  0  0  0  0
   35.5182   71.1711   31.6308 C   0  0  0  0  0  0  0  0  0  0  0  0
   34.8608   71.9235   32.3574 O   0  0  0  0  0  0  0  0  0  0  0  0
   36.1549   71.6537   30.5030 N   0  0  0  0  0  0  0  0  0  0  0  0
   36.7790   70.8906   29.5427 C   0  0  0  0  0  0  0  0  0  0  0  0
   37.2429   71.5303   28.4602 N   0  0  0  0  0  0  0  0  0  0  0  0
   36.9031   69.5686   29.6283 N   0  0  0  0  0  0  0  0  0  0  0  0
   36.3402   69.0622   30.7401 C   0  0  0  0  0  0  0  0  0  0  0  0
   36.1628   72.6298   30.3753 H   0  0  0  0  0  0  0  0  0  0  0  0
   37.1542   72.5083   28.3907 H   0  0  0  0  0  0  0  0  0  0  0  0
   37.6724   71.0221   27.7346 H   0  0  0  0  0  0  0  0  0  0  0  0
   34.0828   64.7546   29.2908 C   0  0  0  0  0  0  0  0  0  0  0  0
   33.4648   64.6967   30.5786 O   0  0  0  0  0  0  0  0  0  0  0  0
   32.4398   63.5405   30.9235 P   0  0  0  0  0  0  0  0  0  0  0  0
   33.0910   62.2336   30.7031 O   0  0  0  0  0  0  0  0  0  0  0  0
   31.2488   63.6613   29.8766 O   0  0  0  0  0  0  0  0  0  0  0  0
   30.5932   62.9680   30.0514 H   0  0  0  0  0  0  0  0  0  0  0  0
   31.9463   63.6131   32.4470 O   0  0  0  0  0  0  0  0  0  0  0  0
   32.5884   63.8597   33.8947 P   0  0  0  0  0  0  0  0  0  0  0  0
   33.3079   65.1483   33.9548 O   0  0  0  0  0  0  0  0  0  0  0  0
   33.4858   62.7001   34.3457 O   0  0  0  0  0  0  0  0  0  0  0  0
   34.2322   62.6115   33.7325 H   0  0  0  0  0  0  0  0  0  0  0  0
   31.3894   63.9608   34.9261 O   0  0  0  0  0  0  0  0  0  0  0  0
   31.5025   64.6645   36.3460 P   0  0  0  0  0  0  0  0  0  0  0  0
   30.3094   64.3019   37.1519 O   0  0  0  0  0  0  0  0  0  0  0  0
   31.5864   66.2002   36.1003 O   0  0  0  0  0  0  0  0  0  0  0  0
   32.9316   64.1984   36.9184 O   0  0  0  0  0  0  0  0  0  0  0  0
   30.7386   66.5189   35.7532 H   0  0  0  0  0  0  0  0  0  0  0  0
   32.9174   63.2428   37.0843 H   0  0  0  0  0  0  0  0  0  0  0  0
 27 28  2  0  0  0
 27 29  1  0  0  0
 27 31  1  0  0  0
 27 26  1  0  0  0
 31 32  1  0  0  0
 32 33  2  0  0  0
 32 34  1  0  0  0
 32 36  1  0  0  0
 36 37  1  0  0  0
 10 11  1  0  0  0
 10 21  1  0  0  0
 10  7  1  0  0  0
 11 12  2  0  0  0
 12 13  1  0  0  0
 12 14  1  0  0  0
 14 15  1  0  0  0
 14 21  2  0  0  0
 15 16  2  0  0  0
 15 17  1  0  0  0
 17 18  1  0  0  0
 18 19  1  0  0  0
 18 20  2  0  0  0
 20 21  1  0  0  0
 26 25  1  0  0  0
 25  1  1  0  0  0
  1  2  1  0  0  0
  1  3  1  0  0  0
  2  7  1  0  0  0
  3  4  1  0  0  0
  3  5  1  0  0  0
  5  6  1  0  0  0
  5  7  1  0  0  0
 37 38  2  0  0  0
 37 39  1  0  0  0
 37 40  1  0  0  0
 29 30  1  0  0  0
 34 35  1  0  0  0
 17 22  1  0  0  0
 19 23  1  0  0  0
 19 24  1  0  0  0
  4  8  1  0  0  0
  6  9  1  0  0  0
 39 41  1  0  0  0
 40 42  1  0  0  0
M  CHG 1  12   1
M  END
> <minimizedAffinity>
-9.76592

$$$$
5TEF_GTG_A_801


 42 44  0  0  0  0  0  0  0  0999 V2000
   36.1079   64.1436   31.2209 C   0  0  0  0  0  0  0  0  0  0  0  0
   36.6272   63.8601   29.8996 O   0  0  0  0  0  0  0  0  0  0  0  0
   35.7054   65.6093   31.2079 C   0  0  0  0  0  0  0  0  0  0  0  0
   35.7581   66.2090   32.5062 O   0  0  0  0  0  0  0  0  0  0  0  0
   36.7461   66.2070   30.2858 C   0  0  0  0  0  0  0  0  0  0  0  0
   37.9199   66.4479   31.0383 O   0  0  0  0  0  0  0  0  0  0  0  0
   36.9434   65.0815   29.2516 C   0  0  0  0  0  0  0  0  0  0  0  0
   36.6523   66.1143   32.8701 H   0  0  0  0  0  0  0  0  0  0  0  0
   38.1982   65.6275   31.4747 H   0  0  0  0  0  0  0  0  0  0  0  0
   36.1086   65.2107   28.0284 N   0  0  0  0  0  0  0  0  0  0  0  0
   34.9026   65.7860   27.9637 C   0  0  0  0  0  0  0  0  0  0  0  0
   34.3953   65.6479   26.7501 N   0  0  0  0  0  0  0  0  0  0  0  0
   33.0768   66.1277   26.3280 C   0  0  0  0  0  0  0  0  0  0  0  0
   35.3213   64.9755   25.9666 C   0  0  0  0  0  0  0  0  0  0  0  0
   35.3356   64.5963   24.6009 C   0  0  0  0  0  0  0  0  0  0  0  0
   34.4279   64.6883   23.7680 O   0  0  0  0  0  0  0  0  0  0  0  0
   36.5220   63.9599   24.2881 N   0  0  0  0  0  0  0  0  0  0  0  0
   37.5328   63.6618   25.1730 C   0  0  0  0  0  0  0  0  0  0  0  0
   38.5600   62.9385   24.7062 N   0  0  0  0  0  0  0  0  0  0  0  0
   37.5120   64.0234   26.4533 N   0  0  0  0  0  0  0  0  0  0  0  0
   36.3942   64.6923   26.7887 C   0  0  0  0  0  0  0  0  0  0  0  0
   36.6558   63.6966   23.3489 H   0  0  0  0  0  0  0  0  0  0  0  0
   38.5815   62.6677   23.7599 H   0  0  0  0  0  0  0  0  0  0  0  0
   39.2930   62.6779   25.3095 H   0  0  0  0  0  0  0  0  0  0  0  0
   34.9699   63.2255   31.4993 C   0  0  0  0  0  0  0  0  0  0  0  0
   34.6465   63.4144   32.8789 O   0  0  0  0  0  0  0  0  0  0  0  0
   33.1570   63.7236   33.3169 P   0  0  0  0  0  0  0  0  0  0  0  0
   32.2464   63.4021   32.1997 O   0  0  0  0  0  0  0  0  0  0  0  0
   33.0718   65.2922   33.5639 O   0  0  0  0  0  0  0  0  0  0  0  0
   32.1711   65.5283   33.8358 H   0  0  0  0  0  0  0  0  0  0  0  0
   32.7181   62.8619   34.5955 O   0  0  0  0  0  0  0  0  0  0  0  0
   31.3685   62.2662   35.2220 P   0  0  0  0  0  0  0  0  0  0  0  0
   31.6544   61.2543   36.2593 O   0  0  0  0  0  0  0  0  0  0  0  0
   30.4175   61.7132   34.1528 O   0  0  0  0  0  0  0  0  0  0  0  0
   30.8458   60.9769   33.6887 H   0  0  0  0  0  0  0  0  0  0  0  0
   30.6230   63.4618   35.9475 O   0  0  0  0  0  0  0  0  0  0  0  0
   31.3417   64.4879   36.9246 P   0  0  0  0  0  0  0  0  0  0  0  0
   30.4541   64.7359   38.0888 O   0  0  0  0  0  0  0  0  0  0  0  0
   31.6097   65.7922   36.1166 O   0  0  0  0  0  0  0  0  0  0  0  0
   32.7723   63.8211   37.2342 O   0  0  0  0  0  0  0  0  0  0  0  0
   30.7660   66.2241   35.9106 H   0  0  0  0  0  0  0  0  0  0  0  0
   32.6450   63.0024   37.7387 H   0  0  0  0  0  0  0  0  0  0  0  0
 27 28  2  0  0  0
 27 29  1  0  0  0
 27 31  1  0  0  0
 27 26  1  0  0  0
 31 32  1  0  0  0
 32 33  2  0  0  0
 32 34  1  0  0  0
 32 36  1  0  0  0
 36 37  1  0  0  0
 10 11  1  0  0  0
 10 21  1  0  0  0
 10  7  1  0  0  0
 11 12  2  0  0  0
 12 13  1  0  0  0
 12 14  1  0  0  0
 14 15  1  0  0  0
 14 21  2  0  0  0
 15 16  2  0  0  0
 15 17  1  0  0  0
 17 18  1  0  0  0
 18 19  1  0  0  0
 18 20  2  0  0  0
 20 21  1  0  0  0
 26 25  1  0  0  0
 25  1  1  0  0  0
  1  2  1  0  0  0
  1  3  1  0  0  0
  2  7  1  0  0  0
  3  4  1  0  0  0
  3  5  1  0  0  0
  5  6  1  0  0  0
  5  7  1  0  0  0
 37 38  2  0  0  0
 37 39  1  0  0  0
 37 40  1  0  0  0
 29 30  1  0  0  0
 34 35  1  0  0  0
 17 22  1  0  0  0
 19 23  1  0  0  0
 19 24  1  0  0  0
  4  8  1  0  0  0
  6  9  1  0  0  0
 39 41  1  0  0  0
 40 42  1  0  0  0
M  CHG 1  12   1
M  END
> <minimizedAffinity>
-9.42980

$$$$
5TEF_GTG_A_801


 42 44  0  0  0  0  0  0  0  0999 V2000
   35.4399   64.1277   31.4383 C   0  0  0  0  0  0  0  0  0  0  0  0
   35.6461   63.4624   30.1692 O   0  0  0  0  0  0  0  0  0  0  0  0
   35.8530   65.5750   31.2253 C   0  0  0  0  0  0  0  0  0  0  0  0
   36.2967   66.2067   32.4303 O   0  0  0  0  0  0  0  0  0  0  0  0
   36.9868   65.4296   30.2335 C   0  0  0  0  0  0  0  0  0  0  0  0
   38.1645   65.1096   30.9496 O   0  0  0  0  0  0  0  0  0  0  0  0
   36.5028   64.2540   29.3622 C   0  0  0  0  0  0  0  0  0  0  0  0
   37.0357   65.7033   32.8062 H   0  0  0  0  0  0  0  0  0  0  0  0
   38.0080   64.3222   31.4941 H   0  0  0  0  0  0  0  0  0  0  0  0
   35.7735   64.6549   28.1305 N   0  0  0  0  0  0  0  0  0  0  0  0
   34.5999   65.2959   28.0920 C   0  0  0  0  0  0  0  0  0  0  0  0
   34.1856   65.4152   26.8417 N   0  0  0  0  0  0  0  0  0  0  0  0
   32.9246   66.0356   26.4272 C   0  0  0  0  0  0  0  0  0  0  0  0
   35.1438   64.8530   26.0115 C   0  0  0  0  0  0  0  0  0  0  0  0
   35.2516   64.7365   24.6029 C   0  0  0  0  0  0  0  0  0  0  0  0
   34.4171   65.0316   23.7411 O   0  0  0  0  0  0  0  0  0  0  0  0
   36.4332   64.1074   24.2587 N   0  0  0  0  0  0  0  0  0  0  0  0
   37.3581   63.5948   25.1395 C   0  0  0  0  0  0  0  0  0  0  0  0
   38.3898   62.9179   24.6167 N   0  0  0  0  0  0  0  0  0  0  0  0
   37.2498   63.7105   26.4605 N   0  0  0  0  0  0  0  0  0  0  0  0
   36.1360   64.3636   26.8379 C   0  0  0  0  0  0  0  0  0  0  0  0
   36.6306   64.0181   23.2984 H   0  0  0  0  0  0  0  0  0  0  0  0
   38.4758   62.8286   23.6400 H   0  0  0  0  0  0  0  0  0  0  0  0
   39.0619   62.5099   25.2093 H   0  0  0  0  0  0  0  0  0  0  0  0
   34.0134   63.9775   31.8356 C   0  0  0  0  0  0  0  0  0  0  0  0
   33.6243   65.2434   32.3739 O   0  0  0  0  0  0  0  0  0  0  0  0
   33.3922   65.4141   33.9306 P   0  0  0  0  0  0  0  0  0  0  0  0
   33.0902   66.8296   34.2235 O   0  0  0  0  0  0  0  0  0  0  0  0
   34.7736   65.0663   34.6374 O   0  0  0  0  0  0  0  0  0  0  0  0
   34.6774   65.1582   35.5982 H   0  0  0  0  0  0  0  0  0  0  0  0
   32.1740   64.5143   34.4562 O   0  0  0  0  0  0  0  0  0  0  0  0
   31.6023   63.9880   35.8580 P   0  0  0  0  0  0  0  0  0  0  0  0
   31.1274   65.1037   36.7015 O   0  0  0  0  0  0  0  0  0  0  0  0
   32.6096   63.1104   36.6120 O   0  0  0  0  0  0  0  0  0  0  0  0
   33.3992   63.6328   36.8232 H   0  0  0  0  0  0  0  0  0  0  0  0
   30.3364   63.0898   35.5383 O   0  0  0  0  0  0  0  0  0  0  0  0
   30.3395   61.9023   34.4828 P   0  0  0  0  0  0  0  0  0  0  0  0
   29.4368   60.8299   34.9722 O   0  0  0  0  0  0  0  0  0  0  0  0
   31.8082   61.4019   34.3478 O   0  0  0  0  0  0  0  0  0  0  0  0
   29.9467   62.5979   33.0867 O   0  0  0  0  0  0  0  0  0  0  0  0
   32.0815   60.9746   35.1746 H   0  0  0  0  0  0  0  0  0  0  0  0
   29.0342   62.9235   33.1332 H   0  0  0  0  0  0  0  0  0  0  0  0
 27 28  2  0  0  0
 27 29  1  0  0  0
 27 31  1  0  0  0
 27 26  1  0  0  0
 31 32  1  0  0  0
 32 33  2  0  0  0
 32 34  1  0  0  0
 32 36  1  0  0  0
 36 37  1  0  0  0
 10 11  1  0  0  0
 10 21  1  0  0  0
 10  7  1  0  0  0
 11 12  2  0  0  0
 12 13  1  0  0  0
 12 14  1  0  0  0
 14 15  1  0  0  0
 14 21  2  0  0  0
 15 16  2  0  0  0
 15 17  1  0  0  0
 17 18  1  0  0  0
 18 19  1  0  0  0
 18 20  2  0  0  0
 20 21  1  0  0  0
 26 25  1  0  0  0
 25  1  1  0  0  0
  1  2  1  0  0  0
  1  3  1  0  0  0
  2  7  1  0  0  0
  3  4  1  0  0  0
  3  5  1  0  0  0
  5  6  1  0  0  0
  5  7  1  0  0  0
 37 38  2  0  0  0
 37 39  1  0  0  0
 37 40  1  0  0  0
 29 30  1  0  0  0
 34 35  1  0  0  0
 17 22  1  0  0  0
 19 23  1  0  0  0
 19 24  1  0  0  0
  4  8  1  0  0  0
  6  9  1  0  0  0
 39 41  1  0  0  0
 40 42  1  0  0  0
M  CHG 1  12   1
M  END
> <minimizedAffinity>
-9.24076

$$$$
5TEF_GTG_A_801


 42 44  0  0  0  0  0  0  0  0999 V2000
   37.0983   65.2723   29.1874 C   0  0  0  0  0  0  0  0  0  0  0  0
   37.6277   66.1635   30.1980 O   0  0  0  0  0  0  0  0  0  0  0  0
   35.5858   65.3310   29.3269 C   0  0  0  0  0  0  0  0  0  0  0  0
   34.9423   64.1326   28.8822 O   0  0  0  0  0  0  0  0  0  0  0  0
   35.4206   65.5200   30.8194 C   0  0  0  0  0  0  0  0  0  0  0  0
   35.5141   64.2520   31.4403 O   0  0  0  0  0  0  0  0  0  0  0  0
   36.6218   66.4222   31.1638 C   0  0  0  0  0  0  0  0  0  0  0  0
   35.2914   63.3752   29.3775 H   0  0  0  0  0  0  0  0  0  0  0  0
   36.3465   63.8262   31.1823 H   0  0  0  0  0  0  0  0  0  0  0  0
   36.3211   67.8780   31.1716 N   0  0  0  0  0  0  0  0  0  0  0  0
   36.7819   68.7748   30.2924 C   0  0  0  0  0  0  0  0  0  0  0  0
   36.4014   69.9927   30.6405 N   0  0  0  0  0  0  0  0  0  0  0  0
   36.7517   71.2221   29.9245 C   0  0  0  0  0  0  0  0  0  0  0  0
   35.6280   69.8944   31.7875 C   0  0  0  0  0  0  0  0  0  0  0  0
   34.9314   70.8522   32.5666 C   0  0  0  0  0  0  0  0  0  0  0  0
   34.9394   72.0828   32.4593 O   0  0  0  0  0  0  0  0  0  0  0  0
   34.2733   70.2367   33.6146 N   0  0  0  0  0  0  0  0  0  0  0  0
   34.3263   68.8964   33.9220 C   0  0  0  0  0  0  0  0  0  0  0  0
   33.7112   68.5024   35.0456 N   0  0  0  0  0  0  0  0  0  0  0  0
   34.9812   68.0039   33.1838 N   0  0  0  0  0  0  0  0  0  0  0  0
   35.5956   68.5549   32.1216 C   0  0  0  0  0  0  0  0  0  0  0  0
   33.7172   70.8078   34.1923 H   0  0  0  0  0  0  0  0  0  0  0  0
   33.2249   69.1578   35.5963 H   0  0  0  0  0  0  0  0  0  0  0  0
   33.7456   67.5576   35.3203 H   0  0  0  0  0  0  0  0  0  0  0  0
   37.5816   65.7163   27.8515 C   0  0  0  0  0  0  0  0  0  0  0  0
   36.5455   65.3716   26.9289 O   0  0  0  0  0  0  0  0  0  0  0  0
   36.8194   64.3269   25.7713 P   0  0  0  0  0  0  0  0  0  0  0  0
   36.1972   63.0356   26.1264 O   0  0  0  0  0  0  0  0  0  0  0  0
   38.3927   64.1004   25.7258 O   0  0  0  0  0  0  0  0  0  0  0  0
   38.6076   63.4635   25.0266 H   0  0  0  0  0  0  0  0  0  0  0  0
   36.2145   64.8151   24.3692 O   0  0  0  0  0  0  0  0  0  0  0  0
   34.8351   65.4115   23.8121 P   0  0  0  0  0  0  0  0  0  0  0  0
   34.3492   64.6496   22.6437 O   0  0  0  0  0  0  0  0  0  0  0  0
   34.9258   66.9108   23.4999 O   0  0  0  0  0  0  0  0  0  0  0  0
   35.5828   67.0564   22.8013 H   0  0  0  0  0  0  0  0  0  0  0  0
   33.7523   65.2295   24.9549 O   0  0  0  0  0  0  0  0  0  0  0  0
   33.2459   66.4111   25.8884 P   0  0  0  0  0  0  0  0  0  0  0  0
   32.2603   67.2243   25.1323 O   0  0  0  0  0  0  0  0  0  0  0  0
   34.4928   67.2505   26.2965 O   0  0  0  0  0  0  0  0  0  0  0  0
   32.7127   65.6794   27.2179 O   0  0  0  0  0  0  0  0  0  0  0  0
   34.8436   67.7084   25.5167 H   0  0  0  0  0  0  0  0  0  0  0  0
   31.9328   65.1446   27.0019 H   0  0  0  0  0  0  0  0  0  0  0  0
 27 28  2  0  0  0
 27 29  1  0  0  0
 27 31  1  0  0  0
 27 26  1  0  0  0
 31 32  1  0  0  0
 32 33  2  0  0  0
 32 34  1  0  0  0
 32 36  1  0  0  0
 36 37  1  0  0  0
 10 11  1  0  0  0
 10 21  1  0  0  0
 10  7  1  0  0  0
 11 12  2  0  0  0
 12 13  1  0  0  0
 12 14  1  0  0  0
 14 15  1  0  0  0
 14 21  2  0  0  0
 15 16  2  0  0  0
 15 17  1  0  0  0
 17 18  1  0  0  0
 18 19  1  0  0  0
 18 20  2  0  0  0
 20 21  1  0  0  0
 26 25  1  0  0  0
 25  1  1  0  0  0
  1  2  1  0  0  0
  1  3  1  0  0  0
  2  7  1  0  0  0
  3  4  1  0  0  0
  3  5  1  0  0  0
  5  6  1  0  0  0
  5  7  1  0  0  0
 37 38  2  0  0  0
 37 39  1  0  0  0
 37 40  1  0  0  0
 29 30  1  0  0  0
 34 35  1  0  0  0
 17 22  1  0  0  0
 19 23  1  0  0  0
 19 24  1  0  0  0
  4  8  1  0  0  0
  6  9  1  0  0  0
 39 41  1  0  0  0
 40 42  1  0  0  0
M  CHG 1  12   1
M  END
> <minimizedAffinity>
-9.01901

$$$$
5TEF_GTG_A_801


 42 44  0  0  0  0  0  0  0  0999 V2000
   34.8454   63.3485   30.7971 C   0  0  0  0  0  0  0  0  0  0  0  0
   35.9325   64.1708   31.2849 O   0  0  0  0  0  0  0  0  0  0  0  0
   33.5790   63.9163   31.4170 C   0  0  0  0  0  0  0  0  0  0  0  0
   32.5462   62.9363   31.5616 O   0  0  0  0  0  0  0  0  0  0  0  0
   34.0797   64.3874   32.7653 C   0  0  0  0  0  0  0  0  0  0  0  0
   34.1113   63.2757   33.6401 O   0  0  0  0  0  0  0  0  0  0  0  0
   35.4944   64.8943   32.4235 C   0  0  0  0  0  0  0  0  0  0  0  0
   32.8745   62.1972   32.0972 H   0  0  0  0  0  0  0  0  0  0  0  0
   34.6418   62.5671   33.2434 H   0  0  0  0  0  0  0  0  0  0  0  0
   35.5778   66.3499   32.1335 N   0  0  0  0  0  0  0  0  0  0  0  0
   36.2771   66.9089   31.1394 C   0  0  0  0  0  0  0  0  0  0  0  0
   36.2130   68.2274   31.2213 N   0  0  0  0  0  0  0  0  0  0  0  0
   36.8866   69.1618   30.3158 C   0  0  0  0  0  0  0  0  0  0  0  0
   35.4096   68.5565   32.3028 C   0  0  0  0  0  0  0  0  0  0  0  0
   34.9617   69.7933   32.8311 C   0  0  0  0  0  0  0  0  0  0  0  0
   35.2885   70.9362   32.4948 O   0  0  0  0  0  0  0  0  0  0  0  0
   34.1395   69.5837   33.9221 N   0  0  0  0  0  0  0  0  0  0  0  0
   33.8381   68.3622   34.4797 C   0  0  0  0  0  0  0  0  0  0  0  0
   33.1123   68.3673   35.6064 N   0  0  0  0  0  0  0  0  0  0  0  0
   34.2614   67.2058   33.9759 N   0  0  0  0  0  0  0  0  0  0  0  0
   35.0251   67.3622   32.8797 C   0  0  0  0  0  0  0  0  0  0  0  0
   33.7334   70.3788   34.3370 H   0  0  0  0  0  0  0  0  0  0  0  0
   32.7960   69.2195   35.9843 H   0  0  0  0  0  0  0  0  0  0  0  0
   32.8954   67.5187   36.0560 H   0  0  0  0  0  0  0  0  0  0  0  0
   34.8393   63.3895   29.3093 C   0  0  0  0  0  0  0  0  0  0  0  0
   36.0534   64.0441   28.9335 O   0  0  0  0  0  0  0  0  0  0  0  0
   36.2461   64.5885   27.4594 P   0  0  0  0  0  0  0  0  0  0  0  0
   37.0183   63.6035   26.6758 O   0  0  0  0  0  0  0  0  0  0  0  0
   37.1308   65.9051   27.5728 O   0  0  0  0  0  0  0  0  0  0  0  0
   37.2749   66.2750   26.6878 H   0  0  0  0  0  0  0  0  0  0  0  0
   34.8429   64.8362   26.7248 O   0  0  0  0  0  0  0  0  0  0  0  0
   33.9895   66.0779   26.1782 P   0  0  0  0  0  0  0  0  0  0  0  0
   34.7229   67.3501   26.3375 O   0  0  0  0  0  0  0  0  0  0  0  0
   32.5943   66.1571   26.8110 O   0  0  0  0  0  0  0  0  0  0  0  0
   32.6804   66.2911   27.7679 H   0  0  0  0  0  0  0  0  0  0  0  0
   33.7925   65.8595   24.6209 O   0  0  0  0  0  0  0  0  0  0  0  0
   34.9449   65.3648   23.6454 P   0  0  0  0  0  0  0  0  0  0  0  0
   34.4901   65.5452   22.2436 O   0  0  0  0  0  0  0  0  0  0  0  0
   35.2226   63.8676   23.9727 O   0  0  0  0  0  0  0  0  0  0  0  0
   36.2453   66.1967   24.0972 O   0  0  0  0  0  0  0  0  0  0  0  0
   34.4565   63.3324   23.7128 H   0  0  0  0  0  0  0  0  0  0  0  0
   36.1087   67.1382   23.9079 H   0  0  0  0  0  0  0  0  0  0  0  0
 27 28  2  0  0  0
 27 29  1  0  0  0
 27 31  1  0  0  0
 27 26  1  0  0  0
 31 32  1  0  0  0
 32 33  2  0  0  0
 32 34  1  0  0  0
 32 36  1  0  0  0
 36 37  1  0  0  0
 10 11  1  0  0  0
 10 21  1  0  0  0
 10  7  1  0  0  0
 11 12  2  0  0  0
 12 13  1  0  0  0
 12 14  1  0  0  0
 14 15  1  0  0  0
 14 21  2  0  0  0
 15 16  2  0  0  0
 15 17  1  0  0  0
 17 18  1  0  0  0
 18 19  1  0  0  0
 18 20  2  0  0  0
 20 21  1  0  0  0
 26 25  1  0  0  0
 25  1  1  0  0  0
  1  2  1  0  0  0
  1  3  1  0  0  0
  2  7  1  0  0  0
  3  4  1  0  0  0
  3  5  1  0  0  0
  5  6  1  0  0  0
  5  7  1  0  0  0
 37 38  2  0  0  0
 37 39  1  0  0  0
 37 40  1  0  0  0
 29 30  1  0  0  0
 34 35  1  0  0  0
 17 22  1  0  0  0
 19 23  1  0  0  0
 19 24  1  0  0  0
  4  8  1  0  0  0
  6  9  1  0  0  0
 39 41  1  0  0  0
 40 42  1  0  0  0
M  CHG 1  12   1
M  END
> <minimizedAffinity>
-8.96061

$$$$
5TEF_GTG_A_801


 42 44  0  0  0  0  0  0  0  0999 V2000
   35.4612   63.7935   30.3838 C   0  0  0  0  0  0  0  0  0  0  0  0
   36.4169   64.6916   30.9968 O   0  0  0  0  0  0  0  0  0  0  0  0
   34.0985   64.2017   30.9193 C   0  0  0  0  0  0  0  0  0  0  0  0
   33.1626   63.1191   30.9334 O   0  0  0  0  0  0  0  0  0  0  0  0
   34.4402   64.6487   32.3243 C   0  0  0  0  0  0  0  0  0  0  0  0
   34.5154   63.5014   33.1491 O   0  0  0  0  0  0  0  0  0  0  0  0
   35.8187   65.3087   32.1251 C   0  0  0  0  0  0  0  0  0  0  0  0
   33.5209   62.3888   31.4619 H   0  0  0  0  0  0  0  0  0  0  0  0
   35.1450   62.8697   32.7677 H   0  0  0  0  0  0  0  0  0  0  0  0
   35.7762   66.7786   31.9072 N   0  0  0  0  0  0  0  0  0  0  0  0
   36.3922   67.4395   30.9206 C   0  0  0  0  0  0  0  0  0  0  0  0
   36.2274   68.7430   31.0718 N   0  0  0  0  0  0  0  0  0  0  0  0
   36.7914   69.7713   30.1936 C   0  0  0  0  0  0  0  0  0  0  0  0
   35.4407   68.9536   32.1944 C   0  0  0  0  0  0  0  0  0  0  0  0
   34.9163   70.1233   32.7995 C   0  0  0  0  0  0  0  0  0  0  0  0
   35.1393   71.3037   32.5115 O   0  0  0  0  0  0  0  0  0  0  0  0
   34.1538   69.7957   33.9047 N   0  0  0  0  0  0  0  0  0  0  0  0
   33.9704   68.5284   34.4088 C   0  0  0  0  0  0  0  0  0  0  0  0
   33.2883   68.4205   35.5574 N   0  0  0  0  0  0  0  0  0  0  0  0
   34.4649   67.4355   33.8331 N   0  0  0  0  0  0  0  0  0  0  0  0
   35.1731   67.7057   32.7219 C   0  0  0  0  0  0  0  0  0  0  0  0
   33.7017   70.5344   34.3728 H   0  0  0  0  0  0  0  0  0  0  0  0
   32.9199   69.2252   35.9886 H   0  0  0  0  0  0  0  0  0  0  0  0
   33.1557   67.5365   35.9700 H   0  0  0  0  0  0  0  0  0  0  0  0
   35.5689   63.9111   28.9040 C   0  0  0  0  0  0  0  0  0  0  0  0
   34.6294   64.9196   28.5247 O   0  0  0  0  0  0  0  0  0  0  0  0
   34.8126   65.7147   27.1680 P   0  0  0  0  0  0  0  0  0  0  0  0
   33.4834   66.0513   26.6199 O   0  0  0  0  0  0  0  0  0  0  0  0
   35.5096   64.7156   26.1458 O   0  0  0  0  0  0  0  0  0  0  0  0
   35.6421   65.1633   25.2955 H   0  0  0  0  0  0  0  0  0  0  0  0
   35.6361   67.0741   27.3776 O   0  0  0  0  0  0  0  0  0  0  0  0
   36.8200   67.8718   26.6490 P   0  0  0  0  0  0  0  0  0  0  0  0
   36.5511   69.3237   26.6121 O   0  0  0  0  0  0  0  0  0  0  0  0
   37.1217   67.3262   25.2473 O   0  0  0  0  0  0  0  0  0  0  0  0
   36.3395   67.4328   24.6836 H   0  0  0  0  0  0  0  0  0  0  0  0
   38.1250   67.6741   27.5262 O   0  0  0  0  0  0  0  0  0  0  0  0
   38.8980   66.2925   27.6609 P   0  0  0  0  0  0  0  0  0  0  0  0
   40.3470   66.5366   27.4482 O   0  0  0  0  0  0  0  0  0  0  0  0
   38.3136   65.3245   26.5898 O   0  0  0  0  0  0  0  0  0  0  0  0
   38.4637   65.7222   29.1008 O   0  0  0  0  0  0  0  0  0  0  0  0
   38.5562   65.6377   25.7044 H   0  0  0  0  0  0  0  0  0  0  0  0
   38.8114   66.3020   29.7965 H   0  0  0  0  0  0  0  0  0  0  0  0
 27 28  2  0  0  0
 27 29  1  0  0  0
 27 31  1  0  0  0
 27 26  1  0  0  0
 31 32  1  0  0  0
 32 33  2  0  0  0
 32 34  1  0  0  0
 32 36  1  0  0  0
 36 37  1  0  0  0
 10 11  1  0  0  0
 10 21  1  0  0  0
 10  7  1  0  0  0
 11 12  2  0  0  0
 12 13  1  0  0  0
 12 14  1  0  0  0
 14 15  1  0  0  0
 14 21  2  0  0  0
 15 16  2  0  0  0
 15 17  1  0  0  0
 17 18  1  0  0  0
 18 19  1  0  0  0
 18 20  2  0  0  0
 20 21  1  0  0  0
 26 25  1  0  0  0
 25  1  1  0  0  0
  1  2  1  0  0  0
  1  3  1  0  0  0
  2  7  1  0  0  0
  3  4  1  0  0  0
  3  5  1  0  0  0
  5  6  1  0  0  0
  5  7  1  0  0  0
 37 38  2  0  0  0
 37 39  1  0  0  0
 37 40  1  0  0  0
 29 30  1  0  0  0
 34 35  1  0  0  0
 17 22  1  0  0  0
 19 23  1  0  0  0
 19 24  1  0  0  0
  4  8  1  0  0  0
  6  9  1  0  0  0
 39 41  1  0  0  0
 40 42  1  0  0  0
M  CHG 1  12   1
M  END
> <minimizedAffinity>
-8.82924

$$$$
5TEF_GTG_A_801


 42 44  0  0  0  0  0  0  0  0999 V2000
   35.7964   63.7794   30.4657 C   0  0  0  0  0  0  0  0  0  0  0  0
   36.6590   64.7187   31.1510 O   0  0  0  0  0  0  0  0  0  0  0  0
   34.3766   64.1419   30.8696 C   0  0  0  0  0  0  0  0  0  0  0  0
   33.4831   63.0253   30.8130 O   0  0  0  0  0  0  0  0  0  0  0  0
   34.5721   64.6154   32.2937 C   0  0  0  0  0  0  0  0  0  0  0  0
   34.6131   63.4800   33.1372 O   0  0  0  0  0  0  0  0  0  0  0  0
   35.9382   65.3242   32.2119 C   0  0  0  0  0  0  0  0  0  0  0  0
   33.8179   62.3143   31.3816 H   0  0  0  0  0  0  0  0  0  0  0  0
   35.2974   62.8684   32.8231 H   0  0  0  0  0  0  0  0  0  0  0  0
   35.8626   66.7893   31.9714 N   0  0  0  0  0  0  0  0  0  0  0  0
   36.4839   67.4521   30.9894 C   0  0  0  0  0  0  0  0  0  0  0  0
   36.2818   68.7528   31.1175 N   0  0  0  0  0  0  0  0  0  0  0  0
   36.8390   69.7831   30.2373 C   0  0  0  0  0  0  0  0  0  0  0  0
   35.4642   68.9586   32.2188 C   0  0  0  0  0  0  0  0  0  0  0  0
   34.8958   70.1225   32.7945 C   0  0  0  0  0  0  0  0  0  0  0  0
   35.0946   71.3042   32.4942 O   0  0  0  0  0  0  0  0  0  0  0  0
   34.1167   69.7906   33.8868 N   0  0  0  0  0  0  0  0  0  0  0  0
   33.9547   68.5262   34.4053 C   0  0  0  0  0  0  0  0  0  0  0  0
   33.2493   68.4167   35.5395 N   0  0  0  0  0  0  0  0  0  0  0  0
   34.4905   67.4387   33.8571 N   0  0  0  0  0  0  0  0  0  0  0  0
   35.2170   67.7117   32.7584 C   0  0  0  0  0  0  0  0  0  0  0  0
   33.6349   70.5238   34.3335 H   0  0  0  0  0  0  0  0  0  0  0  0
   32.8502   69.2175   35.9503 H   0  0  0  0  0  0  0  0  0  0  0  0
   33.1302   67.5354   35.9620 H   0  0  0  0  0  0  0  0  0  0  0  0
   36.0346   63.8861   29.0004 C   0  0  0  0  0  0  0  0  0  0  0  0
   34.8606   64.4964   28.4591 O   0  0  0  0  0  0  0  0  0  0  0  0
   34.9710   65.5094   27.2475 P   0  0  0  0  0  0  0  0  0  0  0  0
   35.5353   66.7851   27.7320 O   0  0  0  0  0  0  0  0  0  0  0  0
   33.4852   65.8005   26.7611 O   0  0  0  0  0  0  0  0  0  0  0  0
   33.5048   66.4205   26.0153 H   0  0  0  0  0  0  0  0  0  0  0  0
   35.9147   64.9459   26.0805 O   0  0  0  0  0  0  0  0  0  0  0  0
   35.9299   64.9060   24.4783 P   0  0  0  0  0  0  0  0  0  0  0  0
   36.5000   66.1453   23.9119 O   0  0  0  0  0  0  0  0  0  0  0  0
   34.5475   64.6074   23.8840 O   0  0  0  0  0  0  0  0  0  0  0  0
   33.9306   65.3146   24.1290 H   0  0  0  0  0  0  0  0  0  0  0  0
   36.8958   63.7248   24.0499 O   0  0  0  0  0  0  0  0  0  0  0  0
   38.1262   63.2286   24.9241 P   0  0  0  0  0  0  0  0  0  0  0  0
   39.0076   62.3919   24.0712 O   0  0  0  0  0  0  0  0  0  0  0  0
   37.5500   62.4202   26.1242 O   0  0  0  0  0  0  0  0  0  0  0  0
   38.7674   64.5755   25.5255 O   0  0  0  0  0  0  0  0  0  0  0  0
   37.1530   61.5971   25.7988 H   0  0  0  0  0  0  0  0  0  0  0  0
   39.1382   65.1073   24.8040 H   0  0  0  0  0  0  0  0  0  0  0  0
 27 28  2  0  0  0
 27 29  1  0  0  0
 27 31  1  0  0  0
 27 26  1  0  0  0
 31 32  1  0  0  0
 32 33  2  0  0  0
 32 34  1  0  0  0
 32 36  1  0  0  0
 36 37  1  0  0  0
 10 11  1  0  0  0
 10 21  1  0  0  0
 10  7  1  0  0  0
 11 12  2  0  0  0
 12 13  1  0  0  0
 12 14  1  0  0  0
 14 15  1  0  0  0
 14 21  2  0  0  0
 15 16  2  0  0  0
 15 17  1  0  0  0
 17 18  1  0  0  0
 18 19  1  0  0  0
 18 20  2  0  0  0
 20 21  1  0  0  0
 26 25  1  0  0  0
 25  1  1  0  0  0
  1  2  1  0  0  0
  1  3  1  0  0  0
  2  7  1  0  0  0
  3  4  1  0  0  0
  3  5  1  0  0  0
  5  6  1  0  0  0
  5  7  1  0  0  0
 37 38  2  0  0  0
 37 39  1  0  0  0
 37 40  1  0  0  0
 29 30  1  0  0  0
 34 35  1  0  0  0
 17 22  1  0  0  0
 19 23  1  0  0  0
 19 24  1  0  0  0
  4  8  1  0  0  0
  6  9  1  0  0  0
 39 41  1  0  0  0
 40 42  1  0  0  0
M  CHG 1  12   1
M  END
> <minimizedAffinity>
-8.79475

$$$$
5TEF_GTG_A_801


 42 44  0  0  0  0  0  0  0  0999 V2000
   36.2794   65.5311   29.6711 C   0  0  0  0  0  0  0  0  0  0  0  0
   35.1945   66.1440   30.4081 O   0  0  0  0  0  0  0  0  0  0  0  0
   37.1162   64.7860   30.6983 C   0  0  0  0  0  0  0  0  0  0  0  0
   38.4855   64.6519   30.3043 O   0  0  0  0  0  0  0  0  0  0  0  0
   36.9806   65.6786   31.9130 C   0  0  0  0  0  0  0  0  0  0  0  0
   37.9140   66.7353   31.7935 O   0  0  0  0  0  0  0  0  0  0  0  0
   35.5268   66.1744   31.7866 C   0  0  0  0  0  0  0  0  0  0  0  0
   38.8634   65.5307   30.1440 H   0  0  0  0  0  0  0  0  0  0  0  0
   37.7804   67.1907   30.9476 H   0  0  0  0  0  0  0  0  0  0  0  0
   34.5303   65.3712   32.5426 N   0  0  0  0  0  0  0  0  0  0  0  0
   34.2203   64.0911   32.3086 C   0  0  0  0  0  0  0  0  0  0  0  0
   33.2302   63.7093   33.0980 N   0  0  0  0  0  0  0  0  0  0  0  0
   32.6124   62.3807   33.0929 C   0  0  0  0  0  0  0  0  0  0  0  0
   32.8886   64.7780   33.9133 C   0  0  0  0  0  0  0  0  0  0  0  0
   31.9454   64.9297   34.9606 C   0  0  0  0  0  0  0  0  0  0  0  0
   31.0843   64.1300   35.3414 O   0  0  0  0  0  0  0  0  0  0  0  0
   32.0109   66.2051   35.4892 N   0  0  0  0  0  0  0  0  0  0  0  0
   32.8183   67.2234   35.0364 C   0  0  0  0  0  0  0  0  0  0  0  0
   32.6603   68.4270   35.6044 N   0  0  0  0  0  0  0  0  0  0  0  0
   33.7024   67.0715   34.0538 N   0  0  0  0  0  0  0  0  0  0  0  0
   33.7075   65.8267   33.5439 C   0  0  0  0  0  0  0  0  0  0  0  0
   31.4283   66.4025   36.2579 H   0  0  0  0  0  0  0  0  0  0  0  0
   32.0078   68.5461   36.3320 H   0  0  0  0  0  0  0  0  0  0  0  0
   33.1967   69.1920   35.2942 H   0  0  0  0  0  0  0  0  0  0  0  0
   35.7089   64.6416   28.6230 C   0  0  0  0  0  0  0  0  0  0  0  0
   36.8208   64.1995   27.8407 O   0  0  0  0  0  0  0  0  0  0  0  0
   37.0435   64.7608   26.3773 P   0  0  0  0  0  0  0  0  0  0  0  0
   38.2786   64.1769   25.8168 O   0  0  0  0  0  0  0  0  0  0  0  0
   37.2803   66.3266   26.5217 O   0  0  0  0  0  0  0  0  0  0  0  0
   37.4220   66.7145   25.6440 H   0  0  0  0  0  0  0  0  0  0  0  0
   35.8218   64.3976   25.4048 O   0  0  0  0  0  0  0  0  0  0  0  0
   35.0329   65.0718   24.1834 P   0  0  0  0  0  0  0  0  0  0  0  0
   34.9160   64.1462   23.0383 O   0  0  0  0  0  0  0  0  0  0  0  0
   35.6454   66.4116   23.7553 O   0  0  0  0  0  0  0  0  0  0  0  0
   36.5521   66.2673   23.4422 H   0  0  0  0  0  0  0  0  0  0  0  0
   33.5578   65.3628   24.6842 O   0  0  0  0  0  0  0  0  0  0  0  0
   33.1837   66.5222   25.7041 P   0  0  0  0  0  0  0  0  0  0  0  0
   32.2463   67.4591   25.0347 O   0  0  0  0  0  0  0  0  0  0  0  0
   34.5097   67.2290   26.1139 O   0  0  0  0  0  0  0  0  0  0  0  0
   32.6339   65.7561   27.0071 O   0  0  0  0  0  0  0  0  0  0  0  0
   34.8725   67.7039   25.3498 H   0  0  0  0  0  0  0  0  0  0  0  0
   31.8050   65.3019   26.7894 H   0  0  0  0  0  0  0  0  0  0  0  0
 27 28  2  0  0  0
 27 29  1  0  0  0
 27 31  1  0  0  0
 27 26  1  0  0  0
 31 32  1  0  0  0
 32 33  2  0  0  0
 32 34  1  0  0  0
 32 36  1  0  0  0
 36 37  1  0  0  0
 10 11  1  0  0  0
 10 21  1  0  0  0
 10  7  1  0  0  0
 11 12  2  0  0  0
 12 13  1  0  0  0
 12 14  1  0  0  0
 14 15  1  0  0  0
 14 21  2  0  0  0
 15 16  2  0  0  0
 15 17  1  0  0  0
 17 18  1  0  0  0
 18 19  1  0  0  0
 18 20  2  0  0  0
 20 21  1  0  0  0
 26 25  1  0  0  0
 25  1  1  0  0  0
  1  2  1  0  0  0
  1  3  1  0  0  0
  2  7  1  0  0  0
  3  4  1  0  0  0
  3  5  1  0  0  0
  5  6  1  0  0  0
  5  7  1  0  0  0
 37 38  2  0  0  0
 37 39  1  0  0  0
 37 40  1  0  0  0
 29 30  1  0  0  0
 34 35  1  0  0  0
 17 22  1  0  0  0
 19 23  1  0  0  0
 19 24  1  0  0  0
  4  8  1  0  0  0
  6  9  1  0  0  0
 39 41  1  0  0  0
 40 42  1  0  0  0
M  CHG 1  12   1
M  END
> <minimizedAffinity>
-8.74429

$$$$
5TEF_GTG_A_801


 42 44  0  0  0  0  0  0  0  0999 V2000
   33.1423   64.6445   32.1862 C   0  0  0  0  0  0  0  0  0  0  0  0
   31.9414   64.6924   32.9933 O   0  0  0  0  0  0  0  0  0  0  0  0
   34.2369   64.1075   33.0940 C   0  0  0  0  0  0  0  0  0  0  0  0
   35.5422   64.5492   32.7078 O   0  0  0  0  0  0  0  0  0  0  0  0
   33.8374   64.6855   34.4345 C   0  0  0  0  0  0  0  0  0  0  0  0
   34.3144   66.0159   34.5040 O   0  0  0  0  0  0  0  0  0  0  0  0
   32.2989   64.6261   34.3643 C   0  0  0  0  0  0  0  0  0  0  0  0
   35.5659   65.5188   32.6984 H   0  0  0  0  0  0  0  0  0  0  0  0
   33.9874   66.5170   33.7406 H   0  0  0  0  0  0  0  0  0  0  0  0
   31.6980   63.4052   34.9627 N   0  0  0  0  0  0  0  0  0  0  0  0
   31.2251   62.3545   34.2829 C   0  0  0  0  0  0  0  0  0  0  0  0
   30.6752   61.4838   35.1128 N   0  0  0  0  0  0  0  0  0  0  0  0
   30.0289   60.2310   34.7133 C   0  0  0  0  0  0  0  0  0  0  0  0
   30.8170   61.9668   36.4051 C   0  0  0  0  0  0  0  0  0  0  0  0
   30.4636   61.4444   37.6746 C   0  0  0  0  0  0  0  0  0  0  0  0
   29.8136   60.4262   37.9329 O   0  0  0  0  0  0  0  0  0  0  0  0
   30.8522   62.3106   38.6791 N   0  0  0  0  0  0  0  0  0  0  0  0
   31.4376   63.5427   38.4973 C   0  0  0  0  0  0  0  0  0  0  0  0
   31.6403   64.2902   39.5911 N   0  0  0  0  0  0  0  0  0  0  0  0
   31.7677   64.0245   37.3018 N   0  0  0  0  0  0  0  0  0  0  0  0
   31.4526   63.1880   36.2966 C   0  0  0  0  0  0  0  0  0  0  0  0
   30.6965   62.0204   39.6068 H   0  0  0  0  0  0  0  0  0  0  0  0
   31.3982   63.9396   40.4787 H   0  0  0  0  0  0  0  0  0  0  0  0
   32.0312   65.1898   39.5071 H   0  0  0  0  0  0  0  0  0  0  0  0
   32.8912   63.7839   30.9981 C   0  0  0  0  0  0  0  0  0  0  0  0
   34.1774   63.5110   30.4369 O   0  0  0  0  0  0  0  0  0  0  0  0
   34.6863   64.3163   29.1725 P   0  0  0  0  0  0  0  0  0  0  0  0
   33.5375   64.9838   28.5281 O   0  0  0  0  0  0  0  0  0  0  0  0
   35.2496   63.2412   28.1449 O   0  0  0  0  0  0  0  0  0  0  0  0
   35.5743   63.6927   27.3502 H   0  0  0  0  0  0  0  0  0  0  0  0
   35.7669   65.4322   29.5690 O   0  0  0  0  0  0  0  0  0  0  0  0
   37.3131   65.4954   29.9862 P   0  0  0  0  0  0  0  0  0  0  0  0
   38.1641   65.8995   28.8485 O   0  0  0  0  0  0  0  0  0  0  0  0
   37.8074   64.1853   30.6129 O   0  0  0  0  0  0  0  0  0  0  0  0
   37.7337   63.4684   29.9637 H   0  0  0  0  0  0  0  0  0  0  0  0
   37.4544   66.6296   31.0841 O   0  0  0  0  0  0  0  0  0  0  0  0
   37.3605   68.1834   30.7662 P   0  0  0  0  0  0  0  0  0  0  0  0
   38.7345   68.7451   30.7333 O   0  0  0  0  0  0  0  0  0  0  0  0
   36.4977   68.8374   31.8859 O   0  0  0  0  0  0  0  0  0  0  0  0
   36.5106   68.2692   29.4033 O   0  0  0  0  0  0  0  0  0  0  0  0
   36.9799   68.8040   32.7268 H   0  0  0  0  0  0  0  0  0  0  0  0
   37.0184   67.8697   28.6799 H   0  0  0  0  0  0  0  0  0  0  0  0
 27 28  2  0  0  0
 27 29  1  0  0  0
 27 31  1  0  0  0
 27 26  1  0  0  0
 31 32  1  0  0  0
 32 33  2  0  0  0
 32 34  1  0  0  0
 32 36  1  0  0  0
 36 37  1  0  0  0
 10 11  1  0  0  0
 10 21  1  0  0  0
 10  7  1  0  0  0
 11 12  2  0  0  0
 12 13  1  0  0  0
 12 14  1  0  0  0
 14 15  1  0  0  0
 14 21  2  0  0  0
 15 16  2  0  0  0
 15 17  1  0  0  0
 17 18  1  0  0  0
 18 19  1  0  0  0
 18 20  2  0  0  0
 20 21  1  0  0  0
 26 25  1  0  0  0
 25  1  1  0  0  0
  1  2  1  0  0  0
  1  3  1  0  0  0
  2  7  1  0  0  0
  3  4  1  0  0  0
  3  5  1  0  0  0
  5  6  1  0  0  0
  5  7  1  0  0  0
 37 38  2  0  0  0
 37 39  1  0  0  0
 37 40  1  0  0  0
 29 30  1  0  0  0
 34 35  1  0  0  0
 17 22  1  0  0  0
 19 23  1  0  0  0
 19 24  1  0  0  0
  4  8  1  0  0  0
  6  9  1  0  0  0
 39 41  1  0  0  0
 40 42  1  0  0  0
M  CHG 1  12   1
M  END
> <minimizedAffinity>
-8.46818

$$$$
