4PUM_2WU_A_404


 22 24  0  0  0  0  0  0  0  0999 V2000
  106.2931   17.9794   18.0704 N   0  0  0  0  0  0  0  0  0  0  0  0
  108.2821   18.7253   18.7740 N   0  0  0  0  0  0  0  0  0  0  0  0
  107.4448   18.5286   17.7310 C   0  0  0  0  0  0  0  0  0  0  0  0
  107.6173   18.2904   19.9027 C   0  0  0  0  0  0  0  0  0  0  0  0
  107.9255   18.3154   21.2468 C   0  0  0  0  0  0  0  0  0  0  0  0
  106.9908   17.8967   22.1837 C   0  0  0  0  0  0  0  0  0  0  0  0
  104.9879   17.2384   23.9620 C   0  0  0  0  0  0  0  0  0  0  0  0
  105.7464   17.4046   21.7580 C   0  0  0  0  0  0  0  0  0  0  0  0
  105.4498   17.3517   20.3860 C   0  0  0  0  0  0  0  0  0  0  0  0
  106.3827   17.8205   19.4556 C   0  0  0  0  0  0  0  0  0  0  0  0
  107.2374   18.0563   23.6226 C   0  0  0  0  0  0  0  0  0  0  0  0
  108.3014   18.4439   24.0941 O   0  0  0  0  0  0  0  0  0  0  0  0
  106.1805   17.7169   24.4297 N   0  0  0  0  0  0  0  0  0  0  0  0
  104.0286   17.0035   24.8616 N   0  0  0  0  0  0  0  0  0  0  0  0
  104.7465   17.0541   22.6653 N   0  0  0  0  0  0  0  0  0  0  0  0
  105.5422   17.7372   17.4816 H   0  0  0  0  0  0  0  0  0  0  0  0
  106.2872   17.8242   25.4024 H   0  0  0  0  0  0  0  0  0  0  0  0
  103.1539   16.6586   24.5698 H   0  0  0  0  0  0  0  0  0  0  0  0
  104.1964   17.1754   25.8163 H   0  0  0  0  0  0  0  0  0  0  0  0
  106.8996   18.9270   15.3685 C   0  0  0  0  0  0  0  0  0  0  0  0
  107.7995   18.9169   16.5066 N   0  0  0  0  0  0  0  0  0  0  0  0
  108.7273   19.2147   16.3659 H   0  0  0  0  0  0  0  0  0  0  0  0
 20 21  1  0  0  0
 21  3  1  0  0  0
  3  1  1  0  0  0
  3  2  2  0  0  0
  1 10  1  0  0  0
  2  4  1  0  0  0
 10  4  2  0  0  0
 10  9  1  0  0  0
  4  5  1  0  0  0
  9  8  2  0  0  0
  5  6  2  0  0  0
  8  6  1  0  0  0
  8 15  1  0  0  0
  6 11  1  0  0  0
 15  7  2  0  0  0
 11 12  2  0  0  0
 11 13  1  0  0  0
  7 13  1  0  0  0
  7 14  1  0  0  0
  1 16  1  0  0  0
 21 22  1  0  0  0
 13 17  1  0  0  0
 14 18  1  0  0  0
 14 19  1  0  0  0
M  END
> <minimizedAffinity>
-8.27708

$$$$
4PUM_2WU_A_404


 22 24  0  0  0  0  0  0  0  0999 V2000
  104.6878   17.8128   16.9119 N   0  0  0  0  0  0  0  0  0  0  0  0
  106.7791   18.5238   16.5540 N   0  0  0  0  0  0  0  0  0  0  0  0
  105.5516   18.2934   16.0366 C   0  0  0  0  0  0  0  0  0  0  0  0
  106.7143   18.1888   17.8914 C   0  0  0  0  0  0  0  0  0  0  0  0
  107.6130   18.2881   18.9329 C   0  0  0  0  0  0  0  0  0  0  0  0
  107.2200   17.9674   20.2250 C   0  0  0  0  0  0  0  0  0  0  0  0
  106.2724   17.5037   22.7733 C   0  0  0  0  0  0  0  0  0  0  0  0
  105.9182   17.4980   20.4636 C   0  0  0  0  0  0  0  0  0  0  0  0
  105.0166   17.3687   19.3941 C   0  0  0  0  0  0  0  0  0  0  0  0
  105.4113   17.7398   18.1049 C   0  0  0  0  0  0  0  0  0  0  0  0
  108.1090   18.2094   21.3686 C   0  0  0  0  0  0  0  0  0  0  0  0
  109.2720   18.5846   21.2620 O   0  0  0  0  0  0  0  0  0  0  0  0
  107.5478   17.9642   22.5968 N   0  0  0  0  0  0  0  0  0  0  0  0
  105.8412   17.3649   24.0301 N   0  0  0  0  0  0  0  0  0  0  0  0
  105.4541   17.2461   21.7546 N   0  0  0  0  0  0  0  0  0  0  0  0
  103.7479   17.5627   16.7587 H   0  0  0  0  0  0  0  0  0  0  0  0
  108.0957   18.1296   23.3979 H   0  0  0  0  0  0  0  0  0  0  0  0
  104.9296   17.0365   24.2043 H   0  0  0  0  0  0  0  0  0  0  0  0
  106.4350   17.5911   24.7821 H   0  0  0  0  0  0  0  0  0  0  0  0
  105.8036   17.8229   13.6382 C   0  0  0  0  0  0  0  0  0  0  0  0
  105.2972   18.5881   14.7622 N   0  0  0  0  0  0  0  0  0  0  0  0
  104.7322   19.3715   14.5719 H   0  0  0  0  0  0  0  0  0  0  0  0
 20 21  1  0  0  0
 21  3  1  0  0  0
  3  1  1  0  0  0
  3  2  2  0  0  0
  1 10  1  0  0  0
  2  4  1  0  0  0
 10  4  2  0  0  0
 10  9  1  0  0  0
  4  5  1  0  0  0
  9  8  2  0  0  0
  5  6  2  0  0  0
  8  6  1  0  0  0
  8 15  1  0  0  0
  6 11  1  0  0  0
 15  7  2  0  0  0
 11 12  2  0  0  0
 11 13  1  0  0  0
  7 13  1  0  0  0
  7 14  1  0  0  0
  1 16  1  0  0  0
 21 22  1  0  0  0
 13 17  1  0  0  0
 14 18  1  0  0  0
 14 19  1  0  0  0
M  END
> <minimizedAffinity>
-7.70702

$$$$
4PUM_2WU_A_404


 22 24  0  0  0  0  0  0  0  0999 V2000
  108.1626   18.2650   20.7675 N   0  0  0  0  0  0  0  0  0  0  0  0
  106.1824   17.3508   21.2679 N   0  0  0  0  0  0  0  0  0  0  0  0
  107.3868   17.7717   21.7151 C   0  0  0  0  0  0  0  0  0  0  0  0
  106.1508   17.6097   19.9125 C   0  0  0  0  0  0  0  0  0  0  0  0
  105.1717   17.4783   18.9502 C   0  0  0  0  0  0  0  0  0  0  0  0
  105.3982   17.9352   17.6591 C   0  0  0  0  0  0  0  0  0  0  0  0
  105.8812   19.0627   15.1888 C   0  0  0  0  0  0  0  0  0  0  0  0
  106.6432   18.4908   17.3225 C   0  0  0  0  0  0  0  0  0  0  0  0
  107.6480   18.5932   18.2988 C   0  0  0  0  0  0  0  0  0  0  0  0
  107.3900   18.1719   19.6071 C   0  0  0  0  0  0  0  0  0  0  0  0
  104.3218   17.9456   16.6601 C   0  0  0  0  0  0  0  0  0  0  0  0
  103.2133   17.4544   16.8456 O   0  0  0  0  0  0  0  0  0  0  0  0
  104.6492   18.5384   15.4663 N   0  0  0  0  0  0  0  0  0  0  0  0
  106.0385   19.6599   14.0042 N   0  0  0  0  0  0  0  0  0  0  0  0
  106.8853   19.0400   16.0634 N   0  0  0  0  0  0  0  0  0  0  0  0
  109.0772   18.6181   20.8580 H   0  0  0  0  0  0  0  0  0  0  0  0
  103.9563   18.5890   14.7688 H   0  0  0  0  0  0  0  0  0  0  0  0
  106.9087   20.0516   13.7621 H   0  0  0  0  0  0  0  0  0  0  0  0
  105.2843   19.7084   13.3734 H   0  0  0  0  0  0  0  0  0  0  0  0
  106.6826   17.7046   24.0682 C   0  0  0  0  0  0  0  0  0  0  0  0
  107.6790   17.7033   23.0135 N   0  0  0  0  0  0  0  0  0  0  0  0
  108.6272   17.6486   23.2724 H   0  0  0  0  0  0  0  0  0  0  0  0
 20 21  1  0  0  0
 21  3  1  0  0  0
  3  1  1  0  0  0
  3  2  2  0  0  0
  1 10  1  0  0  0
  2  4  1  0  0  0
 10  4  2  0  0  0
 10  9  1  0  0  0
  4  5  1  0  0  0
  9  8  2  0  0  0
  5  6  2  0  0  0
  8  6  1  0  0  0
  8 15  1  0  0  0
  6 11  1  0  0  0
 15  7  2  0  0  0
 11 12  2  0  0  0
 11 13  1  0  0  0
  7 13  1  0  0  0
  7 14  1  0  0  0
  1 16  1  0  0  0
 21 22  1  0  0  0
 13 17  1  0  0  0
 14 18  1  0  0  0
 14 19  1  0  0  0
M  END
> <minimizedAffinity>
-7.51122

$$$$
4PUM_2WU_A_404


 22 24  0  0  0  0  0  0  0  0999 V2000
  106.6635   18.4561   17.7705 N   0  0  0  0  0  0  0  0  0  0  0  0
  106.2534   17.1308   19.5262 N   0  0  0  0  0  0  0  0  0  0  0  0
  107.0755   18.0382   18.9532 C   0  0  0  0  0  0  0  0  0  0  0  0
  105.1954   16.9513   18.6582 C   0  0  0  0  0  0  0  0  0  0  0  0
  104.0253   16.2253   18.7353 C   0  0  0  0  0  0  0  0  0  0  0  0
  103.0746   16.3275   17.7291 C   0  0  0  0  0  0  0  0  0  0  0  0
  101.1728   16.7665   15.7803 C   0  0  0  0  0  0  0  0  0  0  0  0
  103.3258   17.1371   16.6095 C   0  0  0  0  0  0  0  0  0  0  0  0
  104.5332   17.8497   16.5211 C   0  0  0  0  0  0  0  0  0  0  0  0
  105.4617   17.7740   17.5640 C   0  0  0  0  0  0  0  0  0  0  0  0
  101.7604   15.6857   17.8615 C   0  0  0  0  0  0  0  0  0  0  0  0
  101.4571   14.9341   18.7823 O   0  0  0  0  0  0  0  0  0  0  0  0
  100.8750   15.9717   16.8525 N   0  0  0  0  0  0  0  0  0  0  0  0
  100.1926   17.0031   14.9040 N   0  0  0  0  0  0  0  0  0  0  0  0
  102.3653   17.3366   15.6179 N   0  0  0  0  0  0  0  0  0  0  0  0
  107.1029   19.1014   17.1707 H   0  0  0  0  0  0  0  0  0  0  0  0
   99.9724   15.5818   16.9037 H   0  0  0  0  0  0  0  0  0  0  0  0
  100.3621   17.5698   14.1171 H   0  0  0  0  0  0  0  0  0  0  0  0
   99.3008   16.6107   15.0452 H   0  0  0  0  0  0  0  0  0  0  0  0
  108.3802   18.2715   21.0222 C   0  0  0  0  0  0  0  0  0  0  0  0
  108.1626   18.4576   19.5998 N   0  0  0  0  0  0  0  0  0  0  0  0
  108.8594   18.9214   19.0816 H   0  0  0  0  0  0  0  0  0  0  0  0
 20 21  1  0  0  0
 21  3  1  0  0  0
  3  1  1  0  0  0
  3  2  2  0  0  0
  1 10  1  0  0  0
  2  4  1  0  0  0
 10  4  2  0  0  0
 10  9  1  0  0  0
  4  5  1  0  0  0
  9  8  2  0  0  0
  5  6  2  0  0  0
  8  6  1  0  0  0
  8 15  1  0  0  0
  6 11  1  0  0  0
 15  7  2  0  0  0
 11 12  2  0  0  0
 11 13  1  0  0  0
  7 13  1  0  0  0
  7 14  1  0  0  0
  1 16  1  0  0  0
 21 22  1  0  0  0
 13 17  1  0  0  0
 14 18  1  0  0  0
 14 19  1  0  0  0
M  END
> <minimizedAffinity>
-7.43700

$$$$
4PUM_2WU_A_404


 22 24  0  0  0  0  0  0  0  0999 V2000
  108.0384   19.0599   15.0328 N   0  0  0  0  0  0  0  0  0  0  0  0
  106.1089   18.5550   14.0182 N   0  0  0  0  0  0  0  0  0  0  0  0
  107.4006   18.9305   13.8840 C   0  0  0  0  0  0  0  0  0  0  0  0
  105.8801   18.4003   15.3706 C   0  0  0  0  0  0  0  0  0  0  0  0
  104.7952   17.9587   16.0988 C   0  0  0  0  0  0  0  0  0  0  0  0
  104.8972   17.8007   17.4741 C   0  0  0  0  0  0  0  0  0  0  0  0
  105.2768   17.3280   20.1647 C   0  0  0  0  0  0  0  0  0  0  0  0
  106.0935   18.1346   18.1293 C   0  0  0  0  0  0  0  0  0  0  0  0
  107.1851   18.6140   17.3865 C   0  0  0  0  0  0  0  0  0  0  0  0
  107.0838   18.7238   15.9961 C   0  0  0  0  0  0  0  0  0  0  0  0
  103.8094   17.1896   18.2485 C   0  0  0  0  0  0  0  0  0  0  0  0
  102.7163   16.8955   17.7759 O   0  0  0  0  0  0  0  0  0  0  0  0
  104.0931   16.9803   19.5749 N   0  0  0  0  0  0  0  0  0  0  0  0
  105.4339   17.0113   21.4530 N   0  0  0  0  0  0  0  0  0  0  0  0
  106.2692   17.9113   19.4950 N   0  0  0  0  0  0  0  0  0  0  0  0
  108.9736   19.3315   15.1776 H   0  0  0  0  0  0  0  0  0  0  0  0
  103.4039   16.5548   20.1346 H   0  0  0  0  0  0  0  0  0  0  0  0
  106.2702   17.2424   21.9183 H   0  0  0  0  0  0  0  0  0  0  0  0
  104.7134   16.5468   21.9371 H   0  0  0  0  0  0  0  0  0  0  0  0
  109.3345   18.9210   12.3682 C   0  0  0  0  0  0  0  0  0  0  0  0
  107.9262   19.0956   12.6706 N   0  0  0  0  0  0  0  0  0  0  0  0
  107.3230   19.3512   11.9357 H   0  0  0  0  0  0  0  0  0  0  0  0
 20 21  1  0  0  0
 21  3  1  0  0  0
  3  1  1  0  0  0
  3  2  2  0  0  0
  1 10  1  0  0  0
  2  4  1  0  0  0
 10  4  2  0  0  0
 10  9  1  0  0  0
  4  5  1  0  0  0
  9  8  2  0  0  0
  5  6  2  0  0  0
  8  6  1  0  0  0
  8 15  1  0  0  0
  6 11  1  0  0  0
 15  7  2  0  0  0
 11 12  2  0  0  0
 11 13  1  0  0  0
  7 13  1  0  0  0
  7 14  1  0  0  0
  1 16  1  0  0  0
 21 22  1  0  0  0
 13 17  1  0  0  0
 14 18  1  0  0  0
 14 19  1  0  0  0
M  END
> <minimizedAffinity>
-7.11628

$$$$
4PUM_2WU_A_404


 22 24  0  0  0  0  0  0  0  0999 V2000
  108.4163   18.6672   18.4534 N   0  0  0  0  0  0  0  0  0  0  0  0
  106.7063   17.7094   19.5332 N   0  0  0  0  0  0  0  0  0  0  0  0
  107.9753   18.1715   19.5949 C   0  0  0  0  0  0  0  0  0  0  0  0
  106.2627   17.9411   18.2469 C   0  0  0  0  0  0  0  0  0  0  0  0
  105.0452   17.7647   17.6233 C   0  0  0  0  0  0  0  0  0  0  0  0
  104.8608   18.2025   16.3191 C   0  0  0  0  0  0  0  0  0  0  0  0
  104.5471   19.2947   13.8060 C   0  0  0  0  0  0  0  0  0  0  0  0
  105.9299   18.7851   15.6194 C   0  0  0  0  0  0  0  0  0  0  0  0
  107.1769   18.9336   16.2489 C   0  0  0  0  0  0  0  0  0  0  0  0
  107.3354   18.5307   17.5786 C   0  0  0  0  0  0  0  0  0  0  0  0
  103.5352   18.1643   15.6882 C   0  0  0  0  0  0  0  0  0  0  0  0
  102.5489   17.6469   16.2022 O   0  0  0  0  0  0  0  0  0  0  0  0
  103.4716   18.7426   14.4451 N   0  0  0  0  0  0  0  0  0  0  0  0
  104.3239   19.8729   12.6225 N   0  0  0  0  0  0  0  0  0  0  0  0
  105.7669   19.3162   14.3399 N   0  0  0  0  0  0  0  0  0  0  0  0
  109.3044   19.0466   18.2622 H   0  0  0  0  0  0  0  0  0  0  0  0
  102.6006   18.7609   13.9866 H   0  0  0  0  0  0  0  0  0  0  0  0
  105.0690   20.2833   12.1269 H   0  0  0  0  0  0  0  0  0  0  0  0
  103.4144   19.8887   12.2461 H   0  0  0  0  0  0  0  0  0  0  0  0
  108.0420   17.7965   22.0223 C   0  0  0  0  0  0  0  0  0  0  0  0
  108.6444   18.1361   20.7468 N   0  0  0  0  0  0  0  0  0  0  0  0
  109.6045   18.3533   20.7314 H   0  0  0  0  0  0  0  0  0  0  0  0
 20 21  1  0  0  0
 21  3  1  0  0  0
  3  1  1  0  0  0
  3  2  2  0  0  0
  1 10  1  0  0  0
  2  4  1  0  0  0
 10  4  2  0  0  0
 10  9  1  0  0  0
  4  5  1  0  0  0
  9  8  2  0  0  0
  5  6  2  0  0  0
  8  6  1  0  0  0
  8 15  1  0  0  0
  6 11  1  0  0  0
 15  7  2  0  0  0
 11 12  2  0  0  0
 11 13  1  0  0  0
  7 13  1  0  0  0
  7 14  1  0  0  0
  1 16  1  0  0  0
 21 22  1  0  0  0
 13 17  1  0  0  0
 14 18  1  0  0  0
 14 19  1  0  0  0
M  END
> <minimizedAffinity>
-7.00612

$$$$
4PUM_2WU_A_404


 22 24  0  0  0  0  0  0  0  0999 V2000
  107.3145   19.2835   16.5516 N   0  0  0  0  0  0  0  0  0  0  0  0
  105.6766   19.6936   15.0831 N   0  0  0  0  0  0  0  0  0  0  0  0
  106.9518   19.9345   15.4618 C   0  0  0  0  0  0  0  0  0  0  0  0
  105.1597   18.7874   15.9869 C   0  0  0  0  0  0  0  0  0  0  0  0
  103.9570   18.1171   16.0670 C   0  0  0  0  0  0  0  0  0  0  0  0
  103.7576   17.1594   17.0518 C   0  0  0  0  0  0  0  0  0  0  0  0
  103.5488   15.1364   18.9148 C   0  0  0  0  0  0  0  0  0  0  0  0
  104.7666   16.9060   17.9950 C   0  0  0  0  0  0  0  0  0  0  0  0
  105.9777   17.6143   17.9280 C   0  0  0  0  0  0  0  0  0  0  0  0
  106.1829   18.5427   16.9025 C   0  0  0  0  0  0  0  0  0  0  0  0
  102.5477   16.3271   17.0642 C   0  0  0  0  0  0  0  0  0  0  0  0
  101.5976   16.4920   16.3061 O   0  0  0  0  0  0  0  0  0  0  0  0
  102.5381   15.3383   18.0160 N   0  0  0  0  0  0  0  0  0  0  0  0
  103.4280   14.0985   19.7472 N   0  0  0  0  0  0  0  0  0  0  0  0
  104.6434   15.8943   18.9474 N   0  0  0  0  0  0  0  0  0  0  0  0
  108.1841   19.3131   17.0122 H   0  0  0  0  0  0  0  0  0  0  0  0
  101.7577   14.7393   18.0540 H   0  0  0  0  0  0  0  0  0  0  0  0
  104.1317   13.9152   20.4108 H   0  0  0  0  0  0  0  0  0  0  0  0
  102.6352   13.5170   19.6971 H   0  0  0  0  0  0  0  0  0  0  0  0
  108.2536   20.3785   13.4257 C   0  0  0  0  0  0  0  0  0  0  0  0
  107.7267   20.7343   14.7299 N   0  0  0  0  0  0  0  0  0  0  0  0
  107.9552   21.6193   15.0959 H   0  0  0  0  0  0  0  0  0  0  0  0
 20 21  1  0  0  0
 21  3  1  0  0  0
  3  1  1  0  0  0
  3  2  2  0  0  0
  1 10  1  0  0  0
  2  4  1  0  0  0
 10  4  2  0  0  0
 10  9  1  0  0  0
  4  5  1  0  0  0
  9  8  2  0  0  0
  5  6  2  0  0  0
  8  6  1  0  0  0
  8 15  1  0  0  0
  6 11  1  0  0  0
 15  7  2  0  0  0
 11 12  2  0  0  0
 11 13  1  0  0  0
  7 13  1  0  0  0
  7 14  1  0  0  0
  1 16  1  0  0  0
 21 22  1  0  0  0
 13 17  1  0  0  0
 14 18  1  0  0  0
 14 19  1  0  0  0
M  END
> <minimizedAffinity>
-6.93861

$$$$
4PUM_2WU_A_404


 22 24  0  0  0  0  0  0  0  0999 V2000
  106.9298   17.9635   19.2796 N   0  0  0  0  0  0  0  0  0  0  0  0
  104.9056   17.1518   19.7811 N   0  0  0  0  0  0  0  0  0  0  0  0
  106.1452   17.4674   20.2186 C   0  0  0  0  0  0  0  0  0  0  0  0
  104.8597   17.4902   18.4437 C   0  0  0  0  0  0  0  0  0  0  0  0
  103.8519   17.4784   17.5022 C   0  0  0  0  0  0  0  0  0  0  0  0
  104.0781   17.9936   16.2333 C   0  0  0  0  0  0  0  0  0  0  0  0
  104.5771   19.2286   13.8181 C   0  0  0  0  0  0  0  0  0  0  0  0
  105.3489   18.4861   15.8950 C   0  0  0  0  0  0  0  0  0  0  0  0
  106.3807   18.4666   16.8480 C   0  0  0  0  0  0  0  0  0  0  0  0
  106.1259   17.9878   18.1370 C   0  0  0  0  0  0  0  0  0  0  0  0
  102.9819   18.1314   15.2659 C   0  0  0  0  0  0  0  0  0  0  0  0
  101.8479   17.7030   15.4533 O   0  0  0  0  0  0  0  0  0  0  0  0
  103.3198   18.7698   14.0989 N   0  0  0  0  0  0  0  0  0  0  0  0
  104.7459   19.8819   12.6652 N   0  0  0  0  0  0  0  0  0  0  0  0
  105.5975   19.0904   14.6627 N   0  0  0  0  0  0  0  0  0  0  0  0
  107.8675   18.2508   19.3651 H   0  0  0  0  0  0  0  0  0  0  0  0
  102.6158   18.9055   13.4242 H   0  0  0  0  0  0  0  0  0  0  0  0
  105.6343   20.2298   12.4220 H   0  0  0  0  0  0  0  0  0  0  0  0
  103.9821   20.0155   12.0586 H   0  0  0  0  0  0  0  0  0  0  0  0
  107.5241   18.0331   22.1721 C   0  0  0  0  0  0  0  0  0  0  0  0
  106.4624   17.3052   21.5026 N   0  0  0  0  0  0  0  0  0  0  0  0
  105.9455   16.6527   22.0283 H   0  0  0  0  0  0  0  0  0  0  0  0
 20 21  1  0  0  0
 21  3  1  0  0  0
  3  1  1  0  0  0
  3  2  2  0  0  0
  1 10  1  0  0  0
  2  4  1  0  0  0
 10  4  2  0  0  0
 10  9  1  0  0  0
  4  5  1  0  0  0
  9  8  2  0  0  0
  5  6  2  0  0  0
  8  6  1  0  0  0
  8 15  1  0  0  0
  6 11  1  0  0  0
 15  7  2  0  0  0
 11 12  2  0  0  0
 11 13  1  0  0  0
  7 13  1  0  0  0
  7 14  1  0  0  0
  1 16  1  0  0  0
 21 22  1  0  0  0
 13 17  1  0  0  0
 14 18  1  0  0  0
 14 19  1  0  0  0
M  END
> <minimizedAffinity>
-6.52203

$$$$
4PUM_2WU_A_404


 22 24  0  0  0  0  0  0  0  0999 V2000
  106.1594   19.2558   14.5009 N   0  0  0  0  0  0  0  0  0  0  0  0
  107.5719   19.6851   16.1826 N   0  0  0  0  0  0  0  0  0  0  0  0
  107.2153   19.9386   14.9034 C   0  0  0  0  0  0  0  0  0  0  0  0
  106.6591   18.7742   16.6748 C   0  0  0  0  0  0  0  0  0  0  0  0
  106.4628   18.2154   17.9204 C   0  0  0  0  0  0  0  0  0  0  0  0
  105.3678   17.3939   18.1505 C   0  0  0  0  0  0  0  0  0  0  0  0
  103.0521   15.9492   18.5473 C   0  0  0  0  0  0  0  0  0  0  0  0
  104.4843   17.0961   17.1003 C   0  0  0  0  0  0  0  0  0  0  0  0
  104.7069   17.6426   15.8256 C   0  0  0  0  0  0  0  0  0  0  0  0
  105.7875   18.5060   15.6197 C   0  0  0  0  0  0  0  0  0  0  0  0
  105.0538   16.9119   19.5017 C   0  0  0  0  0  0  0  0  0  0  0  0
  105.7783   17.0894   20.4755 O   0  0  0  0  0  0  0  0  0  0  0  0
  103.8763   16.2145   19.6057 N   0  0  0  0  0  0  0  0  0  0  0  0
  101.9094   15.3083   18.8083 N   0  0  0  0  0  0  0  0  0  0  0  0
  103.3260   16.3467   17.3061 N   0  0  0  0  0  0  0  0  0  0  0  0
  105.7316   19.2713   13.6143 H   0  0  0  0  0  0  0  0  0  0  0  0
  103.6094   15.8859   20.4946 H   0  0  0  0  0  0  0  0  0  0  0  0
  101.2856   15.0965   18.0767 H   0  0  0  0  0  0  0  0  0  0  0  0
  101.6911   15.0477   19.7323 H   0  0  0  0  0  0  0  0  0  0  0  0
  107.6100   22.2627   14.2106 C   0  0  0  0  0  0  0  0  0  0  0  0
  107.8884   20.8389   14.1878 N   0  0  0  0  0  0  0  0  0  0  0  0
  108.6179   20.5190   13.6092 H   0  0  0  0  0  0  0  0  0  0  0  0
 20 21  1  0  0  0
 21  3  1  0  0  0
  3  1  1  0  0  0
  3  2  2  0  0  0
  1 10  1  0  0  0
  2  4  1  0  0  0
 10  4  2  0  0  0
 10  9  1  0  0  0
  4  5  1  0  0  0
  9  8  2  0  0  0
  5  6  2  0  0  0
  8  6  1  0  0  0
  8 15  1  0  0  0
  6 11  1  0  0  0
 15  7  2  0  0  0
 11 12  2  0  0  0
 11 13  1  0  0  0
  7 13  1  0  0  0
  7 14  1  0  0  0
  1 16  1  0  0  0
 21 22  1  0  0  0
 13 17  1  0  0  0
 14 18  1  0  0  0
 14 19  1  0  0  0
M  END
> <minimizedAffinity>
-6.39758

$$$$
4PUM_2WU_A_404


 22 24  0  0  0  0  0  0  0  0999 V2000
  107.9439   19.5492   14.9315 N   0  0  0  0  0  0  0  0  0  0  0  0
  107.0595   18.6688   13.0740 N   0  0  0  0  0  0  0  0  0  0  0  0
  108.0715   19.3725   13.6293 C   0  0  0  0  0  0  0  0  0  0  0  0
  106.2016   18.3315   14.1014 C   0  0  0  0  0  0  0  0  0  0  0  0
  105.0600   17.5598   14.1614 C   0  0  0  0  0  0  0  0  0  0  0  0
  104.4575   17.3016   15.3850 C   0  0  0  0  0  0  0  0  0  0  0  0
  103.4675   16.6847   17.8843 C   0  0  0  0  0  0  0  0  0  0  0  0
  104.9865   17.8649   16.5575 C   0  0  0  0  0  0  0  0  0  0  0  0
  106.1311   18.6761   16.4866 C   0  0  0  0  0  0  0  0  0  0  0  0
  106.7550   18.8896   15.2534 C   0  0  0  0  0  0  0  0  0  0  0  0
  103.3343   16.3616   15.4921 C   0  0  0  0  0  0  0  0  0  0  0  0
  102.7814   15.8453   14.5265 O   0  0  0  0  0  0  0  0  0  0  0  0
  102.9178   16.1050   16.7745 N   0  0  0  0  0  0  0  0  0  0  0  0
  102.9976   16.2962   19.0729 N   0  0  0  0  0  0  0  0  0  0  0  0
  104.4658   17.5635   17.8160 N   0  0  0  0  0  0  0  0  0  0  0  0
  108.5488   20.0351   15.5376 H   0  0  0  0  0  0  0  0  0  0  0  0
  102.1799   15.4660   16.9028 H   0  0  0  0  0  0  0  0  0  0  0  0
  103.3642   16.6871   19.8988 H   0  0  0  0  0  0  0  0  0  0  0  0
  102.2848   15.6190   19.1230 H   0  0  0  0  0  0  0  0  0  0  0  0
  110.2352   18.9529   12.5431 C   0  0  0  0  0  0  0  0  0  0  0  0
  109.0924   19.7821   12.8770 N   0  0  0  0  0  0  0  0  0  0  0  0
  109.0698   20.7020   12.5271 H   0  0  0  0  0  0  0  0  0  0  0  0
 20 21  1  0  0  0
 21  3  1  0  0  0
  3  1  1  0  0  0
  3  2  2  0  0  0
  1 10  1  0  0  0
  2  4  1  0  0  0
 10  4  2  0  0  0
 10  9  1  0  0  0
  4  5  1  0  0  0
  9  8  2  0  0  0
  5  6  2  0  0  0
  8  6  1  0  0  0
  8 15  1  0  0  0
  6 11  1  0  0  0
 15  7  2  0  0  0
 11 12  2  0  0  0
 11 13  1  0  0  0
  7 13  1  0  0  0
  7 14  1  0  0  0
  1 16  1  0  0  0
 21 22  1  0  0  0
 13 17  1  0  0  0
 14 18  1  0  0  0
 14 19  1  0  0  0
M  END
> <minimizedAffinity>
-6.03096

$$$$
