2OXD_K32_A_338


 16 17  0  0  0  0  0  0  0  0999 V2000
   24.0345    4.1472   20.5031 Br  0  0  0  0  0  0  0  0  0  0  0  0
   23.4634    5.6193   19.4521 C   0  0  0  0  0  0  0  0  0  0  0  0
   23.8391    5.7481   18.1130 C   0  0  0  0  0  0  0  0  0  0  0  0
   24.9442    4.4316   17.3406 Br  0  0  0  0  0  0  0  0  0  0  0  0
   22.6645    6.5688   20.0616 C   0  0  0  0  0  0  0  0  0  0  0  0
   22.1900    6.6600   21.3145 N   0  0  0  0  0  0  0  0  0  0  0  0
   21.4810    7.7955   21.2939 C   0  0  0  0  0  0  0  0  0  0  0  0
   20.8707    8.2027   22.3562 O   0  0  0  0  0  0  0  0  0  0  0  0
   21.4534    8.4504   20.1130 N   0  0  0  0  0  0  0  0  0  0  0  0
   22.2173    7.6660   19.3168 C   0  0  0  0  0  0  0  0  0  0  0  0
   22.6076    7.7714   17.9839 C   0  0  0  0  0  0  0  0  0  0  0  0
   21.9634    9.2485   17.0434 Br  0  0  0  0  0  0  0  0  0  0  0  0
   23.4222    6.8327   17.3455 C   0  0  0  0  0  0  0  0  0  0  0  0
   23.9583    7.0176   15.4986 Br  0  0  0  0  0  0  0  0  0  0  0  0
   22.3298    6.0409   22.0671 H   0  0  0  0  0  0  0  0  0  0  0  0
   20.9919    9.2902   19.8871 H   0  0  0  0  0  0  0  0  0  0  0  0
  1  2  1  0  0  0
  2  5  1  0  0  0
  2  3  2  0  0  0
  3 13  1  0  0  0
  3  4  1  0  0  0
  5 10  2  0  0  0
  5  6  1  0  0  0
  6  7  1  0  0  0
  7  9  1  0  0  0
  7  8  2  0  0  0
  9 10  1  0  0  0
 10 11  1  0  0  0
 11 12  1  0  0  0
 11 13  2  0  0  0
 13 14  1  0  0  0
  6 15  1  0  0  0
  9 16  1  0  0  0
M  END
> <minimizedAffinity>
-6.81024

$$$$
2OXD_K32_A_338


 16 17  0  0  0  0  0  0  0  0999 V2000
   21.9837    9.2859   17.0323 Br  0  0  0  0  0  0  0  0  0  0  0  0
   22.6029    7.7837   18.0109 C   0  0  0  0  0  0  0  0  0  0  0  0
   23.4265    6.8205   17.4240 C   0  0  0  0  0  0  0  0  0  0  0  0
   23.9244    7.0184   15.6173 Br  0  0  0  0  0  0  0  0  0  0  0  0
   22.2033    7.6704   19.3297 C   0  0  0  0  0  0  0  0  0  0  0  0
   21.4230    8.4527   20.0927 N   0  0  0  0  0  0  0  0  0  0  0  0
   21.4125    7.8206   21.2728 C   0  0  0  0  0  0  0  0  0  0  0  0
   20.7440    8.3042   22.2658 O   0  0  0  0  0  0  0  0  0  0  0  0
   22.1368    6.6824   21.3369 N   0  0  0  0  0  0  0  0  0  0  0  0
   22.6453    6.5794   20.0865 C   0  0  0  0  0  0  0  0  0  0  0  0
   23.4647    5.6324   19.4767 C   0  0  0  0  0  0  0  0  0  0  0  0
   24.0320    4.2123   20.5457 Br  0  0  0  0  0  0  0  0  0  0  0  0
   23.8754    5.7161   18.1438 C   0  0  0  0  0  0  0  0  0  0  0  0
   24.9999    4.3760   17.3241 Br  0  0  0  0  0  0  0  0  0  0  0  0
   20.9682    9.2897   19.8441 H   0  0  0  0  0  0  0  0  0  0  0  0
   22.2635    6.0775   22.1032 H   0  0  0  0  0  0  0  0  0  0  0  0
  1  2  1  0  0  0
  2  5  1  0  0  0
  2  3  2  0  0  0
  3 13  1  0  0  0
  3  4  1  0  0  0
  5 10  2  0  0  0
  5  6  1  0  0  0
  6  7  1  0  0  0
  7  9  1  0  0  0
  7  8  2  0  0  0
  9 10  1  0  0  0
 10 11  1  0  0  0
 11 12  1  0  0  0
 11 13  2  0  0  0
 13 14  1  0  0  0
  6 15  1  0  0  0
  9 16  1  0  0  0
M  END
> <minimizedAffinity>
-6.80802

$$$$
2OXD_K32_A_338


 16 17  0  0  0  0  0  0  0  0999 V2000
   23.0991    5.3068   21.3200 Br  0  0  0  0  0  0  0  0  0  0  0  0
   23.3309    5.8491   19.5172 C   0  0  0  0  0  0  0  0  0  0  0  0
   22.7824    7.0410   19.0383 C   0  0  0  0  0  0  0  0  0  0  0  0
   21.7843    8.1268   20.2113 Br  0  0  0  0  0  0  0  0  0  0  0  0
   24.0589    5.0167   18.6874 C   0  0  0  0  0  0  0  0  0  0  0  0
   24.6638    3.8401   18.9169 N   0  0  0  0  0  0  0  0  0  0  0  0
   25.2018    3.5332   17.7300 C   0  0  0  0  0  0  0  0  0  0  0  0
   25.8737    2.4408   17.5813 O   0  0  0  0  0  0  0  0  0  0  0  0
   24.9964    4.4302   16.7414 N   0  0  0  0  0  0  0  0  0  0  0  0
   24.2575    5.3861   17.3522 C   0  0  0  0  0  0  0  0  0  0  0  0
   23.6986    6.5789   16.8996 C   0  0  0  0  0  0  0  0  0  0  0  0
   24.0149    7.0205   15.1146 Br  0  0  0  0  0  0  0  0  0  0  0  0
   22.9502    7.4338   17.7129 C   0  0  0  0  0  0  0  0  0  0  0  0
   22.1751    9.0741   17.0486 Br  0  0  0  0  0  0  0  0  0  0  0  0
   24.7024    3.3267   19.7560 H   0  0  0  0  0  0  0  0  0  0  0  0
   25.3070    4.3971   15.8078 H   0  0  0  0  0  0  0  0  0  0  0  0
  1  2  1  0  0  0
  2  5  1  0  0  0
  2  3  2  0  0  0
  3 13  1  0  0  0
  3  4  1  0  0  0
  5 10  2  0  0  0
  5  6  1  0  0  0
  6  7  1  0  0  0
  7  9  1  0  0  0
  7  8  2  0  0  0
  9 10  1  0  0  0
 10 11  1  0  0  0
 11 12  1  0  0  0
 11 13  2  0  0  0
 13 14  1  0  0  0
  6 15  1  0  0  0
  9 16  1  0  0  0
M  END
> <minimizedAffinity>
-6.70527

$$$$
2OXD_K32_A_338


 16 17  0  0  0  0  0  0  0  0999 V2000
   23.3181    5.4868   21.2297 Br  0  0  0  0  0  0  0  0  0  0  0  0
   22.3489    6.8803   20.3832 C   0  0  0  0  0  0  0  0  0  0  0  0
   22.5726    7.2156   19.0459 C   0  0  0  0  0  0  0  0  0  0  0  0
   23.8724    6.2645   18.0678 Br  0  0  0  0  0  0  0  0  0  0  0  0
   21.4140    7.5610   21.1408 C   0  0  0  0  0  0  0  0  0  0  0  0
   21.0383    7.4243   22.4227 N   0  0  0  0  0  0  0  0  0  0  0  0
   20.0965    8.3643   22.5700 C   0  0  0  0  0  0  0  0  0  0  0  0
   19.5030    8.5206   23.7059 O   0  0  0  0  0  0  0  0  0  0  0  0
   19.8252    9.1024   21.4719 N   0  0  0  0  0  0  0  0  0  0  0  0
   20.6739    8.5910   20.5494 C   0  0  0  0  0  0  0  0  0  0  0  0
   20.9174    8.9064   19.2148 C   0  0  0  0  0  0  0  0  0  0  0  0
   19.8854   10.2777   18.4829 Br  0  0  0  0  0  0  0  0  0  0  0  0
   21.8628    8.2425   18.4287 C   0  0  0  0  0  0  0  0  0  0  0  0
   22.1870    8.7160   16.5840 Br  0  0  0  0  0  0  0  0  0  0  0  0
   21.3746    6.7864   23.0929 H   0  0  0  0  0  0  0  0  0  0  0  0
   19.1720    9.8316   21.3681 H   0  0  0  0  0  0  0  0  0  0  0  0
  1  2  1  0  0  0
  2  5  1  0  0  0
  2  3  2  0  0  0
  3 13  1  0  0  0
  3  4  1  0  0  0
  5 10  2  0  0  0
  5  6  1  0  0  0
  6  7  1  0  0  0
  7  9  1  0  0  0
  7  8  2  0  0  0
  9 10  1  0  0  0
 10 11  1  0  0  0
 11 12  1  0  0  0
 11 13  2  0  0  0
 13 14  1  0  0  0
  6 15  1  0  0  0
  9 16  1  0  0  0
M  END
> <minimizedAffinity>
-6.58015

$$$$
2OXD_K32_A_338


 16 17  0  0  0  0  0  0  0  0999 V2000
   20.9739    9.8780   17.4068 Br  0  0  0  0  0  0  0  0  0  0  0  0
   21.9069    8.3503   18.0339 C   0  0  0  0  0  0  0  0  0  0  0  0
   21.7578    7.8925   19.3450 C   0  0  0  0  0  0  0  0  0  0  0  0
   20.6090    8.8212   20.5149 Br  0  0  0  0  0  0  0  0  0  0  0  0
   22.7494    7.7064   17.1467 C   0  0  0  0  0  0  0  0  0  0  0  0
   23.0538    7.9626   15.8642 N   0  0  0  0  0  0  0  0  0  0  0  0
   23.9200    6.9905   15.5527 C   0  0  0  0  0  0  0  0  0  0  0  0
   24.4310    6.9270   14.3687 O   0  0  0  0  0  0  0  0  0  0  0  0
   24.1988    6.1123   16.5402 N   0  0  0  0  0  0  0  0  0  0  0  0
   23.4498    6.5713   17.5703 C   0  0  0  0  0  0  0  0  0  0  0  0
   23.2843    6.1365   18.8831 C   0  0  0  0  0  0  0  0  0  0  0  0
   24.2335    4.6084   19.3786 Br  0  0  0  0  0  0  0  0  0  0  0  0
   22.4481    6.7734   19.8038 C   0  0  0  0  0  0  0  0  0  0  0  0
   22.2538    6.1530   21.6230 Br  0  0  0  0  0  0  0  0  0  0  0  0
   22.7202    8.6902   15.2909 H   0  0  0  0  0  0  0  0  0  0  0  0
   24.7982    5.3317   16.5167 H   0  0  0  0  0  0  0  0  0  0  0  0
  1  2  1  0  0  0
  2  5  1  0  0  0
  2  3  2  0  0  0
  3 13  1  0  0  0
  3  4  1  0  0  0
  5 10  2  0  0  0
  5  6  1  0  0  0
  6  7  1  0  0  0
  7  9  1  0  0  0
  7  8  2  0  0  0
  9 10  1  0  0  0
 10 11  1  0  0  0
 11 12  1  0  0  0
 11 13  2  0  0  0
 13 14  1  0  0  0
  6 15  1  0  0  0
  9 16  1  0  0  0
M  END
> <minimizedAffinity>
-6.46284

$$$$
2OXD_K32_A_338


 16 17  0  0  0  0  0  0  0  0999 V2000
   23.9213    7.0206   15.4161 Br  0  0  0  0  0  0  0  0  0  0  0  0
   23.3772    6.8556   17.2257 C   0  0  0  0  0  0  0  0  0  0  0  0
   23.8606    5.8303   18.0416 C   0  0  0  0  0  0  0  0  0  0  0  0
   25.0740    4.5812   17.3216 Br  0  0  0  0  0  0  0  0  0  0  0  0
   22.4757    7.7854   17.7099 C   0  0  0  0  0  0  0  0  0  0  0  0
   21.8782    8.8345   17.1221 N   0  0  0  0  0  0  0  0  0  0  0  0
   21.1218    9.3467   18.1007 C   0  0  0  0  0  0  0  0  0  0  0  0
   20.3927   10.3899   17.8834 O   0  0  0  0  0  0  0  0  0  0  0  0
   21.1875    8.7097   19.2898 N   0  0  0  0  0  0  0  0  0  0  0  0
   22.0558    7.7009   19.0422 C   0  0  0  0  0  0  0  0  0  0  0  0
   22.5519    6.6680   19.8340 C   0  0  0  0  0  0  0  0  0  0  0  0
   21.9651    6.6224   21.6045 Br  0  0  0  0  0  0  0  0  0  0  0  0
   23.4553    5.7090   19.3684 C   0  0  0  0  0  0  0  0  0  0  0  0
   24.1117    4.2791   20.4894 Br  0  0  0  0  0  0  0  0  0  0  0  0
   21.9735    9.1508   16.1947 H   0  0  0  0  0  0  0  0  0  0  0  0
   20.7199    8.9254   20.1288 H   0  0  0  0  0  0  0  0  0  0  0  0
  1  2  1  0  0  0
  2  5  1  0  0  0
  2  3  2  0  0  0
  3 13  1  0  0  0
  3  4  1  0  0  0
  5 10  2  0  0  0
  5  6  1  0  0  0
  6  7  1  0  0  0
  7  9  1  0  0  0
  7  8  2  0  0  0
  9 10  1  0  0  0
 10 11  1  0  0  0
 11 12  1  0  0  0
 11 13  2  0  0  0
 13 14  1  0  0  0
  6 15  1  0  0  0
  9 16  1  0  0  0
M  END
> <minimizedAffinity>
-6.45765

$$$$
2OXD_K32_A_338


 16 17  0  0  0  0  0  0  0  0999 V2000
   24.3095    4.6773   19.1864 Br  0  0  0  0  0  0  0  0  0  0  0  0
   23.3132    6.2164   18.7005 C   0  0  0  0  0  0  0  0  0  0  0  0
   22.4744    6.8598   19.6133 C   0  0  0  0  0  0  0  0  0  0  0  0
   22.3269    6.1750   21.3626 Br  0  0  0  0  0  0  0  0  0  0  0  0
   23.4407    6.6778   17.4034 C   0  0  0  0  0  0  0  0  0  0  0  0
   24.1663    6.2281   16.3670 N   0  0  0  0  0  0  0  0  0  0  0  0
   23.8732    7.0922   15.3873 C   0  0  0  0  0  0  0  0  0  0  0  0
   24.4069    6.9594   14.2192 O   0  0  0  0  0  0  0  0  0  0  0  0
   23.0112    8.0797   15.7123 N   0  0  0  0  0  0  0  0  0  0  0  0
   22.7268    7.8151   17.0092 C   0  0  0  0  0  0  0  0  0  0  0  0
   21.8962    8.4370   17.9384 C   0  0  0  0  0  0  0  0  0  0  0  0
   20.9862    9.9572   17.3537 Br  0  0  0  0  0  0  0  0  0  0  0  0
   21.7403    7.9867   19.2520 C   0  0  0  0  0  0  0  0  0  0  0  0
   20.5670    8.8639   20.5114 Br  0  0  0  0  0  0  0  0  0  0  0  0
   24.7689    5.4502   16.3352 H   0  0  0  0  0  0  0  0  0  0  0  0
   22.6732    8.8110   15.1463 H   0  0  0  0  0  0  0  0  0  0  0  0
  1  2  1  0  0  0
  2  5  1  0  0  0
  2  3  2  0  0  0
  3 13  1  0  0  0
  3  4  1  0  0  0
  5 10  2  0  0  0
  5  6  1  0  0  0
  6  7  1  0  0  0
  7  9  1  0  0  0
  7  8  2  0  0  0
  9 10  1  0  0  0
 10 11  1  0  0  0
 11 12  1  0  0  0
 11 13  2  0  0  0
 13 14  1  0  0  0
  6 15  1  0  0  0
  9 16  1  0  0  0
M  END
> <minimizedAffinity>
-6.41424

$$$$
2OXD_K32_A_338


 16 17  0  0  0  0  0  0  0  0999 V2000
   23.6734    7.6970   17.1819 Br  0  0  0  0  0  0  0  0  0  0  0  0
   23.6465    6.2918   18.4556 C   0  0  0  0  0  0  0  0  0  0  0  0
   22.8839    6.3802   19.6225 C   0  0  0  0  0  0  0  0  0  0  0  0
   21.8673    7.9353   19.9371 Br  0  0  0  0  0  0  0  0  0  0  0  0
   24.4168    5.1744   18.1919 C   0  0  0  0  0  0  0  0  0  0  0  0
   25.2220    4.8728   17.1604 N   0  0  0  0  0  0  0  0  0  0  0  0
   25.6832    3.6560   17.4748 C   0  0  0  0  0  0  0  0  0  0  0  0
   26.5037    3.0457   16.6866 O   0  0  0  0  0  0  0  0  0  0  0  0
   25.2310    3.1376   18.6371 N   0  0  0  0  0  0  0  0  0  0  0  0
   24.4176    4.1136   19.1046 C   0  0  0  0  0  0  0  0  0  0  0  0
   23.6496    4.2278   20.2610 C   0  0  0  0  0  0  0  0  0  0  0  0
   23.6818    2.7719   21.4274 Br  0  0  0  0  0  0  0  0  0  0  0  0
   22.8702    5.3488   20.5581 C   0  0  0  0  0  0  0  0  0  0  0  0
   21.8286    5.4815   22.1797 Br  0  0  0  0  0  0  0  0  0  0  0  0
   25.4244    5.4158   16.3646 H   0  0  0  0  0  0  0  0  0  0  0  0
   25.4409    2.2659   19.0437 H   0  0  0  0  0  0  0  0  0  0  0  0
  1  2  1  0  0  0
  2  5  1  0  0  0
  2  3  2  0  0  0
  3 13  1  0  0  0
  3  4  1  0  0  0
  5 10  2  0  0  0
  5  6  1  0  0  0
  6  7  1  0  0  0
  7  9  1  0  0  0
  7  8  2  0  0  0
  9 10  1  0  0  0
 10 11  1  0  0  0
 11 12  1  0  0  0
 11 13  2  0  0  0
 13 14  1  0  0  0
  6 15  1  0  0  0
  9 16  1  0  0  0
M  END
> <minimizedAffinity>
-6.22529

$$$$
2OXD_K32_A_338


 16 17  0  0  0  0  0  0  0  0999 V2000
   24.2879    5.8570   17.4277 Br  0  0  0  0  0  0  0  0  0  0  0  0
   22.9885    6.9141   18.3175 C   0  0  0  0  0  0  0  0  0  0  0  0
   22.3392    7.9681   17.6708 C   0  0  0  0  0  0  0  0  0  0  0  0
   22.7729    8.3490   15.8770 Br  0  0  0  0  0  0  0  0  0  0  0  0
   22.7098    6.6088   19.6368 C   0  0  0  0  0  0  0  0  0  0  0  0
   23.2031    5.6648   20.4544 N   0  0  0  0  0  0  0  0  0  0  0  0
   22.5410    5.8717   21.5995 C   0  0  0  0  0  0  0  0  0  0  0  0
   22.7696    5.1268   22.6289 O   0  0  0  0  0  0  0  0  0  0  0  0
   21.6442    6.8815   21.5862 N   0  0  0  0  0  0  0  0  0  0  0  0
   21.7517    7.3618   20.3250 C   0  0  0  0  0  0  0  0  0  0  0  0
   21.1199    8.4083   19.6574 C   0  0  0  0  0  0  0  0  0  0  0  0
   19.8417    9.3613   20.6265 Br  0  0  0  0  0  0  0  0  0  0  0  0
   21.3892    8.7455   18.3284 C   0  0  0  0  0  0  0  0  0  0  0  0
   20.5057   10.2142   17.4369 Br  0  0  0  0  0  0  0  0  0  0  0  0
   23.8870    4.9842   20.2589 H   0  0  0  0  0  0  0  0  0  0  0  0
   21.0575    7.1915   22.3135 H   0  0  0  0  0  0  0  0  0  0  0  0
  1  2  1  0  0  0
  2  5  1  0  0  0
  2  3  2  0  0  0
  3 13  1  0  0  0
  3  4  1  0  0  0
  5 10  2  0  0  0
  5  6  1  0  0  0
  6  7  1  0  0  0
  7  9  1  0  0  0
  7  8  2  0  0  0
  9 10  1  0  0  0
 10 11  1  0  0  0
 11 12  1  0  0  0
 11 13  2  0  0  0
 13 14  1  0  0  0
  6 15  1  0  0  0
  9 16  1  0  0  0
M  END
> <minimizedAffinity>
-6.21375

$$$$
2OXD_K32_A_338


 16 17  0  0  0  0  0  0  0  0999 V2000
   23.7180    1.9538   22.0184 Br  0  0  0  0  0  0  0  0  0  0  0  0
   23.8860    3.2096   20.6069 C   0  0  0  0  0  0  0  0  0  0  0  0
   23.2374    4.4458   20.6501 C   0  0  0  0  0  0  0  0  0  0  0  0
   22.1666    4.8672   22.1424 Br  0  0  0  0  0  0  0  0  0  0  0  0
   24.6706    2.8550   19.5252 C   0  0  0  0  0  0  0  0  0  0  0  0
   25.3717    1.7403   19.2626 N   0  0  0  0  0  0  0  0  0  0  0  0
   25.9204    1.9952   18.0683 C   0  0  0  0  0  0  0  0  0  0  0  0
   26.6773    1.1185   17.4979 O   0  0  0  0  0  0  0  0  0  0  0  0
   25.6323    3.2016   17.5340 N   0  0  0  0  0  0  0  0  0  0  0  0
   24.8245    3.7580   18.4671 C   0  0  0  0  0  0  0  0  0  0  0  0
   24.1657    4.9834   18.5344 C   0  0  0  0  0  0  0  0  0  0  0  0
   24.4263    6.1472   17.0995 Br  0  0  0  0  0  0  0  0  0  0  0  0
   23.3587    5.3637   19.6099 C   0  0  0  0  0  0  0  0  0  0  0  0
   22.4459    7.0654   19.6641 Br  0  0  0  0  0  0  0  0  0  0  0  0
   25.4607    0.9305   19.8153 H   0  0  0  0  0  0  0  0  0  0  0  0
   25.9348    3.5822   16.6779 H   0  0  0  0  0  0  0  0  0  0  0  0
  1  2  1  0  0  0
  2  5  1  0  0  0
  2  3  2  0  0  0
  3 13  1  0  0  0
  3  4  1  0  0  0
  5 10  2  0  0  0
  5  6  1  0  0  0
  6  7  1  0  0  0
  7  9  1  0  0  0
  7  8  2  0  0  0
  9 10  1  0  0  0
 10 11  1  0  0  0
 11 12  1  0  0  0
 11 13  2  0  0  0
 13 14  1  0  0  0
  6 15  1  0  0  0
  9 16  1  0  0  0
M  END
> <minimizedAffinity>
-6.10987

$$$$
