5IKB_KAI_A_301


 18 18  0  0  0  0  0  0  0  0999 V2000
   15.7230   20.6304   62.2594 N   0  0  0  0  0  0  0  0  0  0  0  0
   16.8670   21.5788   62.1372 C   0  0  0  0  0  0  0  0  0  0  0  0
   15.2527   20.5404   63.6417 C   0  0  0  0  0  0  0  0  0  0  0  0
   16.3789   21.2044   64.4308 C   0  0  0  0  0  0  0  0  0  0  0  0
   16.8515   22.2887   63.4780 C   0  0  0  0  0  0  0  0  0  0  0  0
   16.0232   19.7060   61.9497 H   0  0  0  0  0  0  0  0  0  0  0  0
   13.9440   21.2824   63.7419 C   0  0  0  0  0  0  0  0  0  0  0  0
   13.4665   21.4469   64.9185 O   0  0  0  0  0  0  0  0  0  0  0  0
   13.3828   21.5558   62.6538 O   0  0  0  0  0  0  0  0  0  0  0  0
   13.8262   21.3939   61.8443 H   0  0  0  0  0  0  0  0  0  0  0  0
   19.2436   22.9318   63.2570 C   0  0  0  0  0  0  0  0  0  0  0  0
   18.0871   23.7695   65.2437 C   0  0  0  0  0  0  0  0  0  0  0  0
   18.1355   22.9728   63.9704 C   0  0  0  0  0  0  0  0  0  0  0  0
   17.5172   20.2252   64.8021 C   0  0  0  0  0  0  0  0  0  0  0  0
   17.2461   19.2133   65.9221 C   0  0  0  0  0  0  0  0  0  0  0  0
   18.0072   19.1972   66.9074 O   0  0  0  0  0  0  0  0  0  0  0  0
   16.2830   18.4573   65.8298 O   0  0  0  0  0  0  0  0  0  0  0  0
   18.7339   19.7874   66.9478 H   0  0  0  0  0  0  0  0  0  0  0  0
  1  2  1  0  0  0
  1  3  1  0  0  0
  2  5  1  0  0  0
 11 13  2  0  0  0
 12 13  1  0  0  0
  3  4  1  0  0  0
  3  7  1  0  0  0
  4 14  1  0  0  0
  4  5  1  0  0  0
 14 15  1  0  0  0
  5 13  1  0  0  0
 15 16  1  0  0  0
 15 17  2  0  0  0
  7  8  2  0  0  0
  7  9  1  0  0  0
  1  6  1  0  0  0
 16 18  1  0  0  0
  9 10  1  0  0  0
M  END
> <minimizedAffinity>
-8.62755

$$$$
5IKB_KAI_A_301


 18 18  0  0  0  0  0  0  0  0999 V2000
   15.8917   21.1290   65.5727 N   0  0  0  0  0  0  0  0  0  0  0  0
   17.0057   20.2001   65.9182 C   0  0  0  0  0  0  0  0  0  0  0  0
   16.0051   21.6053   64.1941 C   0  0  0  0  0  0  0  0  0  0  0  0
   17.4295   21.2099   63.8111 C   0  0  0  0  0  0  0  0  0  0  0  0
   17.6205   19.9042   64.5631 C   0  0  0  0  0  0  0  0  0  0  0  0
   15.9187   21.9296   66.2042 H   0  0  0  0  0  0  0  0  0  0  0  0
   14.9554   20.9063   63.3678 C   0  0  0  0  0  0  0  0  0  0  0  0
   13.8397   20.6608   63.9460 O   0  0  0  0  0  0  0  0  0  0  0  0
   15.3198   20.5167   62.2324 O   0  0  0  0  0  0  0  0  0  0  0  0
   16.1638   20.7563   61.9034 H   0  0  0  0  0  0  0  0  0  0  0  0
   19.6801   19.2305   63.3429 C   0  0  0  0  0  0  0  0  0  0  0  0
   19.8239   19.2052   65.7852 C   0  0  0  0  0  0  0  0  0  0  0  0
   19.0723   19.4065   64.4996 C   0  0  0  0  0  0  0  0  0  0  0  0
   18.4816   22.2690   64.2157 C   0  0  0  0  0  0  0  0  0  0  0  0
   19.2159   23.0066   63.0893 C   0  0  0  0  0  0  0  0  0  0  0  0
   18.9961   22.6661   61.9120 O   0  0  0  0  0  0  0  0  0  0  0  0
   19.9873   23.9195   63.3708 O   0  0  0  0  0  0  0  0  0  0  0  0
   18.4015   21.9651   61.7303 H   0  0  0  0  0  0  0  0  0  0  0  0
  1  2  1  0  0  0
  1  3  1  0  0  0
  2  5  1  0  0  0
 11 13  2  0  0  0
 12 13  1  0  0  0
  3  4  1  0  0  0
  3  7  1  0  0  0
  4 14  1  0  0  0
  4  5  1  0  0  0
 14 15  1  0  0  0
  5 13  1  0  0  0
 15 16  1  0  0  0
 15 17  2  0  0  0
  7  8  2  0  0  0
  7  9  1  0  0  0
  1  6  1  0  0  0
 16 18  1  0  0  0
  9 10  1  0  0  0
M  END
> <minimizedAffinity>
-7.12894

$$$$
5IKB_KAI_A_301


 18 18  0  0  0  0  0  0  0  0999 V2000
   16.7151   18.9221   65.8791 N   0  0  0  0  0  0  0  0  0  0  0  0
   16.1888   20.0432   65.0489 C   0  0  0  0  0  0  0  0  0  0  0  0
   18.1512   19.0665   66.1181 C   0  0  0  0  0  0  0  0  0  0  0  0
   18.5611   20.1351   65.1071 C   0  0  0  0  0  0  0  0  0  0  0  0
   17.3376   21.0342   65.0666 C   0  0  0  0  0  0  0  0  0  0  0  0
   16.5459   18.0412   65.3936 H   0  0  0  0  0  0  0  0  0  0  0  0
   18.3482   19.4999   67.5486 C   0  0  0  0  0  0  0  0  0  0  0  0
   19.5149   19.9224   67.8644 O   0  0  0  0  0  0  0  0  0  0  0  0
   17.3867   19.2849   68.3251 O   0  0  0  0  0  0  0  0  0  0  0  0
   16.5707   18.9741   67.9854 H   0  0  0  0  0  0  0  0  0  0  0  0
   18.3393   23.0376   63.9862 C   0  0  0  0  0  0  0  0  0  0  0  0
   16.5137   21.9604   62.7644 C   0  0  0  0  0  0  0  0  0  0  0  0
   17.4281   22.0854   63.9503 C   0  0  0  0  0  0  0  0  0  0  0  0
   18.8972   19.5537   63.7138 C   0  0  0  0  0  0  0  0  0  0  0  0
   20.3765   19.4664   63.3191 C   0  0  0  0  0  0  0  0  0  0  0  0
   21.0681   20.5006   63.3679 O   0  0  0  0  0  0  0  0  0  0  0  0
   20.8460   18.3835   62.9804 O   0  0  0  0  0  0  0  0  0  0  0  0
   20.6798   21.3119   63.6305 H   0  0  0  0  0  0  0  0  0  0  0  0
  1  2  1  0  0  0
  1  3  1  0  0  0
  2  5  1  0  0  0
 11 13  2  0  0  0
 12 13  1  0  0  0
  3  4  1  0  0  0
  3  7  1  0  0  0
  4 14  1  0  0  0
  4  5  1  0  0  0
 14 15  1  0  0  0
  5 13  1  0  0  0
 15 16  1  0  0  0
 15 17  2  0  0  0
  7  8  2  0  0  0
  7  9  1  0  0  0
  1  6  1  0  0  0
 16 18  1  0  0  0
  9 10  1  0  0  0
M  END
> <minimizedAffinity>
-7.12756

$$$$
5IKB_KAI_A_301


 18 18  0  0  0  0  0  0  0  0999 V2000
   17.4352   18.6692   65.5530 N   0  0  0  0  0  0  0  0  0  0  0  0
   16.2941   19.6161   65.3969 C   0  0  0  0  0  0  0  0  0  0  0  0
   18.7078   19.3832   65.6571 C   0  0  0  0  0  0  0  0  0  0  0  0
   18.3458   20.7964   65.2053 C   0  0  0  0  0  0  0  0  0  0  0  0
   16.9283   20.9542   65.7275 C   0  0  0  0  0  0  0  0  0  0  0  0
   17.4667   18.0503   64.7428 H   0  0  0  0  0  0  0  0  0  0  0  0
   19.1656   19.3208   67.0923 C   0  0  0  0  0  0  0  0  0  0  0  0
   18.2688   19.4984   67.9887 O   0  0  0  0  0  0  0  0  0  0  0  0
   20.4039   19.2287   67.2703 O   0  0  0  0  0  0  0  0  0  0  0  0
   20.9741   19.0983   66.5382 H   0  0  0  0  0  0  0  0  0  0  0  0
   15.1603   22.1898   64.4898 C   0  0  0  0  0  0  0  0  0  0  0  0
   16.8367   23.5653   65.6230 C   0  0  0  0  0  0  0  0  0  0  0  0
   16.2614   22.2388   65.2133 C   0  0  0  0  0  0  0  0  0  0  0  0
   18.4202   20.9796   63.6713 C   0  0  0  0  0  0  0  0  0  0  0  0
   19.7097   21.5708   63.0887 C   0  0  0  0  0  0  0  0  0  0  0  0
   20.7299   20.8578   63.0553 O   0  0  0  0  0  0  0  0  0  0  0  0
   19.7035   22.7206   62.6579 O   0  0  0  0  0  0  0  0  0  0  0  0
   20.7021   19.9840   63.3924 H   0  0  0  0  0  0  0  0  0  0  0  0
  1  2  1  0  0  0
  1  3  1  0  0  0
  2  5  1  0  0  0
 11 13  2  0  0  0
 12 13  1  0  0  0
  3  4  1  0  0  0
  3  7  1  0  0  0
  4 14  1  0  0  0
  4  5  1  0  0  0
 14 15  1  0  0  0
  5 13  1  0  0  0
 15 16  1  0  0  0
 15 17  2  0  0  0
  7  8  2  0  0  0
  7  9  1  0  0  0
  1  6  1  0  0  0
 16 18  1  0  0  0
  9 10  1  0  0  0
M  END
> <minimizedAffinity>
-6.87252

$$$$
5IKB_KAI_A_301


 18 18  0  0  0  0  0  0  0  0999 V2000
   17.6425   19.9054   65.4843 N   0  0  0  0  0  0  0  0  0  0  0  0
   17.4744   21.1391   66.3047 C   0  0  0  0  0  0  0  0  0  0  0  0
   18.0159   20.2297   64.1075 C   0  0  0  0  0  0  0  0  0  0  0  0
   17.7282   21.7267   64.0179 C   0  0  0  0  0  0  0  0  0  0  0  0
   18.0752   22.2112   65.4149 C   0  0  0  0  0  0  0  0  0  0  0  0
   16.7631   19.3887   65.4772 H   0  0  0  0  0  0  0  0  0  0  0  0
   19.4751   19.8965   63.9255 C   0  0  0  0  0  0  0  0  0  0  0  0
   20.2000   20.7859   63.3573 O   0  0  0  0  0  0  0  0  0  0  0  0
   19.8140   18.7282   64.2318 O   0  0  0  0  0  0  0  0  0  0  0  0
   19.1997   18.1560   64.6478 H   0  0  0  0  0  0  0  0  0  0  0  0
   16.5510   23.9806   66.2697 C   0  0  0  0  0  0  0  0  0  0  0  0
   18.6084   24.7620   65.2006 C   0  0  0  0  0  0  0  0  0  0  0  0
   17.6673   23.6752   65.6381 C   0  0  0  0  0  0  0  0  0  0  0  0
   16.2600   22.0402   63.6456 C   0  0  0  0  0  0  0  0  0  0  0  0
   15.3350   20.8543   63.3460 C   0  0  0  0  0  0  0  0  0  0  0  0
   15.3139   20.3925   62.1899 O   0  0  0  0  0  0  0  0  0  0  0  0
   14.6519   20.3807   64.2498 O   0  0  0  0  0  0  0  0  0  0  0  0
   15.8473   20.7766   61.5222 H   0  0  0  0  0  0  0  0  0  0  0  0
  1  2  1  0  0  0
  1  3  1  0  0  0
  2  5  1  0  0  0
 11 13  2  0  0  0
 12 13  1  0  0  0
  3  4  1  0  0  0
  3  7  1  0  0  0
  4 14  1  0  0  0
  4  5  1  0  0  0
 14 15  1  0  0  0
  5 13  1  0  0  0
 15 16  1  0  0  0
 15 17  2  0  0  0
  7  8  2  0  0  0
  7  9  1  0  0  0
  1  6  1  0  0  0
 16 18  1  0  0  0
  9 10  1  0  0  0
M  END
> <minimizedAffinity>
-6.84055

$$$$
5IKB_KAI_A_301


 18 18  0  0  0  0  0  0  0  0999 V2000
   15.3703   20.3192   65.2423 N   0  0  0  0  0  0  0  0  0  0  0  0
   16.5863   19.4822   65.4522 C   0  0  0  0  0  0  0  0  0  0  0  0
   15.6673   21.4901   64.4171 C   0  0  0  0  0  0  0  0  0  0  0  0
   17.1938   21.5314   64.4174 C   0  0  0  0  0  0  0  0  0  0  0  0
   17.5613   20.0579   64.4424 C   0  0  0  0  0  0  0  0  0  0  0  0
   15.0212   20.6312   66.1485 H   0  0  0  0  0  0  0  0  0  0  0  0
   15.0827   21.2596   63.0466 C   0  0  0  0  0  0  0  0  0  0  0  0
   13.8083   21.1583   62.9762 O   0  0  0  0  0  0  0  0  0  0  0  0
   15.9086   21.0607   62.1236 O   0  0  0  0  0  0  0  0  0  0  0  0
   16.8258   21.1639   62.2852 H   0  0  0  0  0  0  0  0  0  0  0  0
   19.9444   20.2245   63.7511 C   0  0  0  0  0  0  0  0  0  0  0  0
   19.5339   19.2578   65.9609 C   0  0  0  0  0  0  0  0  0  0  0  0
   19.0666   19.8400   64.6567 C   0  0  0  0  0  0  0  0  0  0  0  0
   17.7790   22.2934   65.6295 C   0  0  0  0  0  0  0  0  0  0  0  0
   17.5580   23.8098   65.6887 C   0  0  0  0  0  0  0  0  0  0  0  0
   16.5094   24.2393   66.2046 O   0  0  0  0  0  0  0  0  0  0  0  0
   18.4204   24.5614   65.2426 O   0  0  0  0  0  0  0  0  0  0  0  0
   15.8704   23.6394   66.5360 H   0  0  0  0  0  0  0  0  0  0  0  0
  1  2  1  0  0  0
  1  3  1  0  0  0
  2  5  1  0  0  0
 11 13  2  0  0  0
 12 13  1  0  0  0
  3  4  1  0  0  0
  3  7  1  0  0  0
  4 14  1  0  0  0
  4  5  1  0  0  0
 14 15  1  0  0  0
  5 13  1  0  0  0
 15 16  1  0  0  0
 15 17  2  0  0  0
  7  8  2  0  0  0
  7  9  1  0  0  0
  1  6  1  0  0  0
 16 18  1  0  0  0
  9 10  1  0  0  0
M  END
> <minimizedAffinity>
-6.75037

$$$$
5IKB_KAI_A_301


 18 18  0  0  0  0  0  0  0  0999 V2000
   19.1860   20.0521   65.3398 N   0  0  0  0  0  0  0  0  0  0  0  0
   18.5737   20.1435   63.9833 C   0  0  0  0  0  0  0  0  0  0  0  0
   18.3662   20.7360   66.3399 C   0  0  0  0  0  0  0  0  0  0  0  0
   17.4001   21.5567   65.4882 C   0  0  0  0  0  0  0  0  0  0  0  0
   17.1781   20.6564   64.2853 C   0  0  0  0  0  0  0  0  0  0  0  0
   20.1103   20.4829   65.3168 H   0  0  0  0  0  0  0  0  0  0  0  0
   17.6741   19.6892   67.1757 C   0  0  0  0  0  0  0  0  0  0  0  0
   16.7220   19.0436   66.6135 O   0  0  0  0  0  0  0  0  0  0  0  0
   18.0113   19.6391   68.3830 O   0  0  0  0  0  0  0  0  0  0  0  0
   18.7285   20.1574   68.6910 H   0  0  0  0  0  0  0  0  0  0  0  0
   16.9450   21.6178   62.0036 C   0  0  0  0  0  0  0  0  0  0  0  0
   14.9393   21.6798   63.4035 C   0  0  0  0  0  0  0  0  0  0  0  0
   16.3897   21.3618   63.1717 C   0  0  0  0  0  0  0  0  0  0  0  0
   17.9723   22.9347   65.0809 C   0  0  0  0  0  0  0  0  0  0  0  0
   17.3557   24.1795   65.7305 C   0  0  0  0  0  0  0  0  0  0  0  0
   16.1907   24.1100   66.1642 O   0  0  0  0  0  0  0  0  0  0  0  0
   18.0249   25.2050   65.8210 O   0  0  0  0  0  0  0  0  0  0  0  0
   15.7061   23.3124   66.0797 H   0  0  0  0  0  0  0  0  0  0  0  0
  1  2  1  0  0  0
  1  3  1  0  0  0
  2  5  1  0  0  0
 11 13  2  0  0  0
 12 13  1  0  0  0
  3  4  1  0  0  0
  3  7  1  0  0  0
  4 14  1  0  0  0
  4  5  1  0  0  0
 14 15  1  0  0  0
  5 13  1  0  0  0
 15 16  1  0  0  0
 15 17  2  0  0  0
  7  8  2  0  0  0
  7  9  1  0  0  0
  1  6  1  0  0  0
 16 18  1  0  0  0
  9 10  1  0  0  0
M  END
> <minimizedAffinity>
-6.58358

$$$$
5IKB_KAI_A_301


 18 18  0  0  0  0  0  0  0  0999 V2000
   15.7067   20.1645   65.1349 N   0  0  0  0  0  0  0  0  0  0  0  0
   17.1101   19.8169   64.7706 C   0  0  0  0  0  0  0  0  0  0  0  0
   15.3681   21.5227   64.7094 C   0  0  0  0  0  0  0  0  0  0  0  0
   16.7307   22.1284   64.3802 C   0  0  0  0  0  0  0  0  0  0  0  0
   17.4921   20.9383   63.8227 C   0  0  0  0  0  0  0  0  0  0  0  0
   15.5996   20.0970   66.1471 H   0  0  0  0  0  0  0  0  0  0  0  0
   14.4590   21.4265   63.5104 C   0  0  0  0  0  0  0  0  0  0  0  0
   13.3626   22.0852   63.5675 O   0  0  0  0  0  0  0  0  0  0  0  0
   14.8035   20.6081   62.6242 O   0  0  0  0  0  0  0  0  0  0  0  0
   15.6345   20.1788   62.6804 H   0  0  0  0  0  0  0  0  0  0  0  0
   19.9125   20.3757   63.9225 C   0  0  0  0  0  0  0  0  0  0  0  0
   19.3559   22.5478   62.9436 C   0  0  0  0  0  0  0  0  0  0  0  0
   18.9800   21.2526   63.6064 C   0  0  0  0  0  0  0  0  0  0  0  0
   17.4360   22.7392   65.6138 C   0  0  0  0  0  0  0  0  0  0  0  0
   17.1368   24.2055   65.9488 C   0  0  0  0  0  0  0  0  0  0  0  0
   16.0225   24.4925   66.4245 O   0  0  0  0  0  0  0  0  0  0  0  0
   18.0017   25.0555   65.7558 O   0  0  0  0  0  0  0  0  0  0  0  0
   15.3837   23.8204   66.5598 H   0  0  0  0  0  0  0  0  0  0  0  0
  1  2  1  0  0  0
  1  3  1  0  0  0
  2  5  1  0  0  0
 11 13  2  0  0  0
 12 13  1  0  0  0
  3  4  1  0  0  0
  3  7  1  0  0  0
  4 14  1  0  0  0
  4  5  1  0  0  0
 14 15  1  0  0  0
  5 13  1  0  0  0
 15 16  1  0  0  0
 15 17  2  0  0  0
  7  8  2  0  0  0
  7  9  1  0  0  0
  1  6  1  0  0  0
 16 18  1  0  0  0
  9 10  1  0  0  0
M  END
> <minimizedAffinity>
-6.47991

$$$$
5IKB_KAI_A_301


 18 18  0  0  0  0  0  0  0  0999 V2000
   17.4264   21.7053   66.4448 N   0  0  0  0  0  0  0  0  0  0  0  0
   18.2086   22.3252   65.3371 C   0  0  0  0  0  0  0  0  0  0  0  0
   16.5227   20.6702   65.9427 C   0  0  0  0  0  0  0  0  0  0  0  0
   16.5213   20.9181   64.4358 C   0  0  0  0  0  0  0  0  0  0  0  0
   17.9447   21.3815   64.1787 C   0  0  0  0  0  0  0  0  0  0  0  0
   16.8776   22.4287   66.9094 H   0  0  0  0  0  0  0  0  0  0  0  0
   17.0921   19.3261   66.3198 C   0  0  0  0  0  0  0  0  0  0  0  0
   16.7866   18.3405   65.5616 O   0  0  0  0  0  0  0  0  0  0  0  0
   17.7060   19.2766   67.4126 O   0  0  0  0  0  0  0  0  0  0  0  0
   17.8783   20.0647   67.8893 H   0  0  0  0  0  0  0  0  0  0  0  0
   17.2960   21.5609   61.7846 C   0  0  0  0  0  0  0  0  0  0  0  0
   19.2516   22.8636   62.4663 C   0  0  0  0  0  0  0  0  0  0  0  0
   18.1360   21.8959   62.7441 C   0  0  0  0  0  0  0  0  0  0  0  0
   15.4812   21.9755   63.9969 C   0  0  0  0  0  0  0  0  0  0  0  0
   14.0364   21.5058   63.7877 C   0  0  0  0  0  0  0  0  0  0  0  0
   13.6009   21.4188   62.6245 O   0  0  0  0  0  0  0  0  0  0  0  0
   13.3512   21.2141   64.7639 O   0  0  0  0  0  0  0  0  0  0  0  0
   14.1492   21.6491   61.9004 H   0  0  0  0  0  0  0  0  0  0  0  0
  1  2  1  0  0  0
  1  3  1  0  0  0
  2  5  1  0  0  0
 11 13  2  0  0  0
 12 13  1  0  0  0
  3  4  1  0  0  0
  3  7  1  0  0  0
  4 14  1  0  0  0
  4  5  1  0  0  0
 14 15  1  0  0  0
  5 13  1  0  0  0
 15 16  1  0  0  0
 15 17  2  0  0  0
  7  8  2  0  0  0
  7  9  1  0  0  0
  1  6  1  0  0  0
 16 18  1  0  0  0
  9 10  1  0  0  0
M  END
> <minimizedAffinity>
-6.29238

$$$$
5IKB_KAI_A_301


 18 18  0  0  0  0  0  0  0  0999 V2000
   15.7864   20.3053   64.1817 N   0  0  0  0  0  0  0  0  0  0  0  0
   15.2919   21.5922   64.7497 C   0  0  0  0  0  0  0  0  0  0  0  0
   17.2301   20.1616   64.3695 C   0  0  0  0  0  0  0  0  0  0  0  0
   17.6665   21.5710   64.7635 C   0  0  0  0  0  0  0  0  0  0  0  0
   16.4778   22.0692   65.5670 C   0  0  0  0  0  0  0  0  0  0  0  0
   15.5770   20.2802   63.1838 H   0  0  0  0  0  0  0  0  0  0  0  0
   17.4635   19.1448   65.4580 C   0  0  0  0  0  0  0  0  0  0  0  0
   18.5887   18.5340   65.4408 O   0  0  0  0  0  0  0  0  0  0  0  0
   16.4828   18.9012   66.2014 O   0  0  0  0  0  0  0  0  0  0  0  0
   15.7019   19.4140   66.1299 H   0  0  0  0  0  0  0  0  0  0  0  0
   17.7447   24.1964   65.8015 C   0  0  0  0  0  0  0  0  0  0  0  0
   15.3475   24.3182   66.2754 C   0  0  0  0  0  0  0  0  0  0  0  0
   16.5930   23.5631   65.9055 C   0  0  0  0  0  0  0  0  0  0  0  0
   17.9608   22.4768   63.5449 C   0  0  0  0  0  0  0  0  0  0  0  0
   19.4282   22.6755   63.1459 C   0  0  0  0  0  0  0  0  0  0  0  0
   19.8823   23.8341   63.1033 O   0  0  0  0  0  0  0  0  0  0  0  0
   20.1213   21.6939   62.8937 O   0  0  0  0  0  0  0  0  0  0  0  0
   19.3271   24.5625   63.3013 H   0  0  0  0  0  0  0  0  0  0  0  0
  1  2  1  0  0  0
  1  3  1  0  0  0
  2  5  1  0  0  0
 11 13  2  0  0  0
 12 13  1  0  0  0
  3  4  1  0  0  0
  3  7  1  0  0  0
  4 14  1  0  0  0
  4  5  1  0  0  0
 14 15  1  0  0  0
  5 13  1  0  0  0
 15 16  1  0  0  0
 15 17  2  0  0  0
  7  8  2  0  0  0
  7  9  1  0  0  0
  1  6  1  0  0  0
 16 18  1  0  0  0
  9 10  1  0  0  0
M  END
> <minimizedAffinity>
-6.23278

$$$$
