4U6Z_Q07_A_404


 15 14  0  0  0  0  0  0  0  0999 V2000
   22.6251   -4.0412    9.7271 C   0  0  0  0  0  0  0  0  0  0  0  0
   23.6098   -3.4375    8.8767 N   0  0  0  0  0  0  0  0  0  0  0  0
   24.3529   -3.0361    9.4486 H   0  0  0  0  0  0  0  0  0  0  0  0
   23.1738   -2.7019    8.3206 H   0  0  0  0  0  0  0  0  0  0  0  0
   21.2565   -1.7302    9.9415 O   0  0  0  0  0  0  0  0  0  0  0  0
   21.7649   -2.8548   10.8152 P   0  0  0  0  0  0  0  0  0  0  0  0
   22.8218   -2.2753   11.7981 O   0  0  0  0  0  0  0  0  0  0  0  0
   20.8083   -3.5097   11.5252 O   0  0  0  0  0  0  0  0  0  0  0  0
   20.5952   -2.0759    9.3217 H   0  0  0  0  0  0  0  0  0  0  0  0
   23.1583   -2.9855   12.3666 H   0  0  0  0  0  0  0  0  0  0  0  0
   23.2523   -5.1466   10.5402 C   0  0  0  0  0  0  0  0  0  0  0  0
   24.7399   -5.2150   10.3666 C   0  0  0  0  0  0  0  0  0  0  0  0
   22.6073   -6.4888   10.3461 C   0  0  0  0  0  0  0  0  0  0  0  0
   23.6051   -7.5228    9.8593 C   0  0  0  0  0  0  0  0  0  0  0  0
   23.6393   -8.7828   10.6809 C   0  0  0  0  0  0  0  0  0  0  0  0
  2  1  1  0  0  0
 13 14  1  0  0  0
 13 11  1  0  0  0
  1 11  1  0  0  0
  1  6  1  0  0  0
  8  6  2  0  0  0
 15 14  1  0  0  0
 11 12  1  0  0  0
  6  7  1  0  0  0
  6  5  1  0  0  0
  5  9  1  0  0  0
  7 10  1  0  0  0
  2  3  1  0  0  0
  2  4  1  0  0  0
M  END
> <minimizedAffinity>
-7.10751

$$$$
4U6Z_Q07_A_404


 15 14  0  0  0  0  0  0  0  0999 V2000
   22.3440   -3.9465    9.7987 C   0  0  0  0  0  0  0  0  0  0  0  0
   23.5564   -3.2594    9.4595 N   0  0  0  0  0  0  0  0  0  0  0  0
   23.9619   -2.8498   10.3010 H   0  0  0  0  0  0  0  0  0  0  0  0
   23.3518   -2.5208    8.7864 H   0  0  0  0  0  0  0  0  0  0  0  0
   20.4823   -3.4987   11.6943 O   0  0  0  0  0  0  0  0  0  0  0  0
   21.0332   -2.8521   10.4433 P   0  0  0  0  0  0  0  0  0  0  0  0
   19.9028   -2.8026    9.3761 O   0  0  0  0  0  0  0  0  0  0  0  0
   21.5377   -1.6016   10.6160 O   0  0  0  0  0  0  0  0  0  0  0  0
   21.1764   -3.5371   12.3709 H   0  0  0  0  0  0  0  0  0  0  0  0
   20.2408   -2.3898    8.5660 H   0  0  0  0  0  0  0  0  0  0  0  0
   22.6356   -5.0567   10.7778 C   0  0  0  0  0  0  0  0  0  0  0  0
   23.9226   -4.8472   11.5180 C   0  0  0  0  0  0  0  0  0  0  0  0
   22.5541   -6.4330   10.1825 C   0  0  0  0  0  0  0  0  0  0  0  0
   23.8532   -7.1963   10.3602 C   0  0  0  0  0  0  0  0  0  0  0  0
   23.6790   -8.6812   10.5285 C   0  0  0  0  0  0  0  0  0  0  0  0
  2  1  1  0  0  0
 13 14  1  0  0  0
 13 11  1  0  0  0
  1 11  1  0  0  0
  1  6  1  0  0  0
  8  6  2  0  0  0
 15 14  1  0  0  0
 11 12  1  0  0  0
  6  7  1  0  0  0
  6  5  1  0  0  0
  5  9  1  0  0  0
  7 10  1  0  0  0
  2  3  1  0  0  0
  2  4  1  0  0  0
M  END
> <minimizedAffinity>
-6.85264

$$$$
4U6Z_Q07_A_404


 15 14  0  0  0  0  0  0  0  0999 V2000
   23.3787   -5.3345   10.8196 C   0  0  0  0  0  0  0  0  0  0  0  0
   23.6567   -4.7855   12.1151 N   0  0  0  0  0  0  0  0  0  0  0  0
   22.8657   -4.2188   12.4211 H   0  0  0  0  0  0  0  0  0  0  0  0
   24.4929   -4.2034   12.0655 H   0  0  0  0  0  0  0  0  0  0  0  0
   23.5243   -2.7349   10.1263 O   0  0  0  0  0  0  0  0  0  0  0  0
   23.1934   -4.0759    9.5107 P   0  0  0  0  0  0  0  0  0  0  0  0
   21.6978   -4.0661    9.0841 O   0  0  0  0  0  0  0  0  0  0  0  0
   23.9591   -4.4236    8.4426 O   0  0  0  0  0  0  0  0  0  0  0  0
   24.4554   -2.7249   10.3981 H   0  0  0  0  0  0  0  0  0  0  0  0
   21.4694   -4.9210    8.6866 H   0  0  0  0  0  0  0  0  0  0  0  0
   22.1558   -6.2159   10.8833 C   0  0  0  0  0  0  0  0  0  0  0  0
   21.7425   -6.5249   12.2910 C   0  0  0  0  0  0  0  0  0  0  0  0
   22.2549   -7.4593   10.0471 C   0  0  0  0  0  0  0  0  0  0  0  0
   23.6911   -7.9299    9.9139 C   0  0  0  0  0  0  0  0  0  0  0  0
   24.0539   -9.0715   10.8243 C   0  0  0  0  0  0  0  0  0  0  0  0
  2  1  1  0  0  0
 13 14  1  0  0  0
 13 11  1  0  0  0
  1 11  1  0  0  0
  1  6  1  0  0  0
  8  6  2  0  0  0
 15 14  1  0  0  0
 11 12  1  0  0  0
  6  7  1  0  0  0
  6  5  1  0  0  0
  5  9  1  0  0  0
  7 10  1  0  0  0
  2  3  1  0  0  0
  2  4  1  0  0  0
M  END
> <minimizedAffinity>
-6.64967

$$$$
4U6Z_Q07_A_404


 15 14  0  0  0  0  0  0  0  0999 V2000
   22.6854   -3.8202    9.7233 C   0  0  0  0  0  0  0  0  0  0  0  0
   23.7239   -3.1755    8.9729 N   0  0  0  0  0  0  0  0  0  0  0  0
   24.4618   -2.8696    9.6070 H   0  0  0  0  0  0  0  0  0  0  0  0
   23.3386   -2.3672    8.4843 H   0  0  0  0  0  0  0  0  0  0  0  0
   22.8708   -2.2403   11.8980 O   0  0  0  0  0  0  0  0  0  0  0  0
   21.8362   -2.7167   10.9034 P   0  0  0  0  0  0  0  0  0  0  0  0
   20.7812   -3.5715   11.6619 O   0  0  0  0  0  0  0  0  0  0  0  0
   21.2004   -1.7304   10.2172 O   0  0  0  0  0  0  0  0  0  0  0  0
   23.5373   -1.7047   11.4398 H   0  0  0  0  0  0  0  0  0  0  0  0
   20.1092   -3.8852   11.0367 H   0  0  0  0  0  0  0  0  0  0  0  0
   23.2372   -5.0313   10.4341 C   0  0  0  0  0  0  0  0  0  0  0  0
   24.7059   -5.2176   10.1972 C   0  0  0  0  0  0  0  0  0  0  0  0
   22.4675   -6.2945   10.1755 C   0  0  0  0  0  0  0  0  0  0  0  0
   22.5038   -7.2258   11.3727 C   0  0  0  0  0  0  0  0  0  0  0  0
   21.5820   -6.8275   12.4931 C   0  0  0  0  0  0  0  0  0  0  0  0
  2  1  1  0  0  0
 13 14  1  0  0  0
 13 11  1  0  0  0
  1 11  1  0  0  0
  1  6  1  0  0  0
  8  6  2  0  0  0
 15 14  1  0  0  0
 11 12  1  0  0  0
  6  7  1  0  0  0
  6  5  1  0  0  0
  5  9  1  0  0  0
  7 10  1  0  0  0
  2  3  1  0  0  0
  2  4  1  0  0  0
M  END
> <minimizedAffinity>
-6.28136

$$$$
4U6Z_Q07_A_404


 15 14  0  0  0  0  0  0  0  0999 V2000
   22.8606   -4.7391   11.2996 C   0  0  0  0  0  0  0  0  0  0  0  0
   21.7638   -5.6626   11.3372 N   0  0  0  0  0  0  0  0  0  0  0  0
   21.4772   -5.8889   10.3848 H   0  0  0  0  0  0  0  0  0  0  0  0
   20.9810   -5.2405   11.8366 H   0  0  0  0  0  0  0  0  0  0  0  0
   23.6593   -2.6402    9.8108 O   0  0  0  0  0  0  0  0  0  0  0  0
   22.4386   -3.1244   10.5605 P   0  0  0  0  0  0  0  0  0  0  0  0
   22.1555   -2.1382   11.7294 O   0  0  0  0  0  0  0  0  0  0  0  0
   21.3149   -3.2561    9.8069 O   0  0  0  0  0  0  0  0  0  0  0  0
   23.8494   -3.2457    9.0772 H   0  0  0  0  0  0  0  0  0  0  0  0
   21.3740   -2.4354   12.2211 H   0  0  0  0  0  0  0  0  0  0  0  0
   24.0340   -5.3592   10.5821 C   0  0  0  0  0  0  0  0  0  0  0  0
   23.8142   -5.4621    9.1025 C   0  0  0  0  0  0  0  0  0  0  0  0
   24.4882   -6.6647   11.1690 C   0  0  0  0  0  0  0  0  0  0  0  0
   24.2806   -7.8146   10.2013 C   0  0  0  0  0  0  0  0  0  0  0  0
   23.3949   -8.9115   10.7266 C   0  0  0  0  0  0  0  0  0  0  0  0
  2  1  1  0  0  0
 13 14  1  0  0  0
 13 11  1  0  0  0
  1 11  1  0  0  0
  1  6  1  0  0  0
  8  6  2  0  0  0
 15 14  1  0  0  0
 11 12  1  0  0  0
  6  7  1  0  0  0
  6  5  1  0  0  0
  5  9  1  0  0  0
  7 10  1  0  0  0
  2  3  1  0  0  0
  2  4  1  0  0  0
M  END
> <minimizedAffinity>
-6.14913

$$$$
4U6Z_Q07_A_404


 15 14  0  0  0  0  0  0  0  0999 V2000
   23.1458   -3.3603   10.6966 C   0  0  0  0  0  0  0  0  0  0  0  0
   23.7462   -2.8172   11.8806 N   0  0  0  0  0  0  0  0  0  0  0  0
   23.2502   -3.1623   12.7023 H   0  0  0  0  0  0  0  0  0  0  0  0
   23.6915   -1.7990   11.8532 H   0  0  0  0  0  0  0  0  0  0  0  0
   21.4297   -1.3247   10.2830 O   0  0  0  0  0  0  0  0  0  0  0  0
   21.4191   -2.8290   10.4365 P   0  0  0  0  0  0  0  0  0  0  0  0
   20.6240   -3.1868   11.7245 O   0  0  0  0  0  0  0  0  0  0  0  0
   20.8936   -3.5113    9.3847 O   0  0  0  0  0  0  0  0  0  0  0  0
   21.9227   -1.0848    9.4828 H   0  0  0  0  0  0  0  0  0  0  0  0
   20.6080   -4.1501   11.8374 H   0  0  0  0  0  0  0  0  0  0  0  0
   23.2395   -4.8660   10.7137 C   0  0  0  0  0  0  0  0  0  0  0  0
   23.7030   -5.3983   12.0366 C   0  0  0  0  0  0  0  0  0  0  0  0
   24.0307   -5.4417    9.5745 C   0  0  0  0  0  0  0  0  0  0  0  0
   23.8369   -4.6423    8.2997 C   0  0  0  0  0  0  0  0  0  0  0  0
   25.0300   -4.6428    7.3831 C   0  0  0  0  0  0  0  0  0  0  0  0
  2  1  1  0  0  0
 13 14  1  0  0  0
 13 11  1  0  0  0
  1 11  1  0  0  0
  1  6  1  0  0  0
  8  6  2  0  0  0
 15 14  1  0  0  0
 11 12  1  0  0  0
  6  7  1  0  0  0
  6  5  1  0  0  0
  5  9  1  0  0  0
  7 10  1  0  0  0
  2  3  1  0  0  0
  2  4  1  0  0  0
M  END
> <minimizedAffinity>
-5.44381

$$$$
4U6Z_Q07_A_404


 15 14  0  0  0  0  0  0  0  0999 V2000
   21.2218   -2.8909   10.3526 C   0  0  0  0  0  0  0  0  0  0  0  0
   21.7900   -1.6092   10.0502 N   0  0  0  0  0  0  0  0  0  0  0  0
   22.3014   -1.2638   10.8623 H   0  0  0  0  0  0  0  0  0  0  0  0
   21.0447   -0.9541    9.8139 H   0  0  0  0  0  0  0  0  0  0  0  0
   20.0114   -4.1911   12.3785 O   0  0  0  0  0  0  0  0  0  0  0  0
   19.9751   -2.8478   11.6850 P   0  0  0  0  0  0  0  0  0  0  0  0
   18.5827   -2.6781   11.0131 O   0  0  0  0  0  0  0  0  0  0  0  0
   20.2149   -1.7782   12.4891 O   0  0  0  0  0  0  0  0  0  0  0  0
   20.8749   -4.3124   12.8033 H   0  0  0  0  0  0  0  0  0  0  0  0
   18.5433   -1.8196   10.5631 H   0  0  0  0  0  0  0  0  0  0  0  0
   22.3156   -3.8762   10.6828 C   0  0  0  0  0  0  0  0  0  0  0  0
   23.5809   -3.2039   11.1246 C   0  0  0  0  0  0  0  0  0  0  0  0
   22.5714   -4.8890    9.6039 C   0  0  0  0  0  0  0  0  0  0  0  0
   23.9253   -5.5531    9.7708 C   0  0  0  0  0  0  0  0  0  0  0  0
   23.8807   -6.8741   10.4896 C   0  0  0  0  0  0  0  0  0  0  0  0
  2  1  1  0  0  0
 13 14  1  0  0  0
 13 11  1  0  0  0
  1 11  1  0  0  0
  1  6  1  0  0  0
  8  6  2  0  0  0
 15 14  1  0  0  0
 11 12  1  0  0  0
  6  7  1  0  0  0
  6  5  1  0  0  0
  5  9  1  0  0  0
  7 10  1  0  0  0
  2  3  1  0  0  0
  2  4  1  0  0  0
M  END
> <minimizedAffinity>
-5.36976

$$$$
4U6Z_Q07_A_404


 15 14  0  0  0  0  0  0  0  0999 V2000
   19.8927   -2.3640   10.4404 C   0  0  0  0  0  0  0  0  0  0  0  0
   19.4705   -2.5540    9.0829 N   0  0  0  0  0  0  0  0  0  0  0  0
   19.3225   -3.5480    8.9088 H   0  0  0  0  0  0  0  0  0  0  0  0
   20.1891   -2.2014    8.4507 H   0  0  0  0  0  0  0  0  0  0  0  0
   21.2203   -4.4207   11.5660 O   0  0  0  0  0  0  0  0  0  0  0  0
   21.5027   -3.1331   10.8252 P   0  0  0  0  0  0  0  0  0  0  0  0
   22.2604   -2.1700   11.7829 O   0  0  0  0  0  0  0  0  0  0  0  0
   22.2180   -3.2741    9.6777 O   0  0  0  0  0  0  0  0  0  0  0  0
   20.7472   -5.0331   10.9812 H   0  0  0  0  0  0  0  0  0  0  0  0
   22.4493   -1.3378   11.3217 H   0  0  0  0  0  0  0  0  0  0  0  0
   18.8286   -2.8617   11.3870 C   0  0  0  0  0  0  0  0  0  0  0  0
   17.4414   -2.5963   10.8837 C   0  0  0  0  0  0  0  0  0  0  0  0
   19.0049   -2.3955   12.8036 C   0  0  0  0  0  0  0  0  0  0  0  0
   18.4778   -3.4142   13.7966 C   0  0  0  0  0  0  0  0  0  0  0  0
   17.3004   -2.9382   14.6035 C   0  0  0  0  0  0  0  0  0  0  0  0
  2  1  1  0  0  0
 13 14  1  0  0  0
 13 11  1  0  0  0
  1 11  1  0  0  0
  1  6  1  0  0  0
  8  6  2  0  0  0
 15 14  1  0  0  0
 11 12  1  0  0  0
  6  7  1  0  0  0
  6  5  1  0  0  0
  5  9  1  0  0  0
  7 10  1  0  0  0
  2  3  1  0  0  0
  2  4  1  0  0  0
M  END
> <minimizedAffinity>
-4.78785

$$$$
4U6Z_Q07_A_404


 15 14  0  0  0  0  0  0  0  0999 V2000
   23.8038   -5.6174   10.8550 C   0  0  0  0  0  0  0  0  0  0  0  0
   25.1635   -6.0024   10.6100 N   0  0  0  0  0  0  0  0  0  0  0  0
   25.2232   -6.4892    9.7157 H   0  0  0  0  0  0  0  0  0  0  0  0
   25.4813   -6.6213   11.3559 H   0  0  0  0  0  0  0  0  0  0  0  0
   21.9349   -6.8562   12.3491 O   0  0  0  0  0  0  0  0  0  0  0  0
   22.6597   -7.0283   11.0332 P   0  0  0  0  0  0  0  0  0  0  0  0
   23.5233   -8.3195   11.1120 O   0  0  0  0  0  0  0  0  0  0  0  0
   21.8568   -7.0957    9.9383 O   0  0  0  0  0  0  0  0  0  0  0  0
   21.3909   -6.0538   12.3160 H   0  0  0  0  0  0  0  0  0  0  0  0
   23.9955   -8.4443   10.2740 H   0  0  0  0  0  0  0  0  0  0  0  0
   23.3276   -4.6835    9.7699 C   0  0  0  0  0  0  0  0  0  0  0  0
   24.1334   -4.8059    8.5114 C   0  0  0  0  0  0  0  0  0  0  0  0
   23.1959   -3.2536   10.2091 C   0  0  0  0  0  0  0  0  0  0  0  0
   21.9807   -3.0509   11.0946 C   0  0  0  0  0  0  0  0  0  0  0  0
   20.7470   -2.6052   10.3577 C   0  0  0  0  0  0  0  0  0  0  0  0
  2  1  1  0  0  0
 13 14  1  0  0  0
 13 11  1  0  0  0
  1 11  1  0  0  0
  1  6  1  0  0  0
  8  6  2  0  0  0
 15 14  1  0  0  0
 11 12  1  0  0  0
  6  7  1  0  0  0
  6  5  1  0  0  0
  5  9  1  0  0  0
  7 10  1  0  0  0
  2  3  1  0  0  0
  2  4  1  0  0  0
M  END
> <minimizedAffinity>
-4.31049

$$$$
4U6Z_Q07_A_404


 15 14  0  0  0  0  0  0  0  0999 V2000
   18.0054   -3.2122   15.0158 C   0  0  0  0  0  0  0  0  0  0  0  0
   17.1293   -2.2340   15.5928 N   0  0  0  0  0  0  0  0  0  0  0  0
   16.2272   -2.2632   15.1177 H   0  0  0  0  0  0  0  0  0  0  0  0
   17.5393   -1.3060   15.4872 H   0  0  0  0  0  0  0  0  0  0  0  0
   19.4811   -3.8857   12.8644 O   0  0  0  0  0  0  0  0  0  0  0  0
   18.4087   -2.8972   13.2638 P   0  0  0  0  0  0  0  0  0  0  0  0
   19.0034   -1.4628   13.1746 O   0  0  0  0  0  0  0  0  0  0  0  0
   17.2694   -2.9538   12.5242 O   0  0  0  0  0  0  0  0  0  0  0  0
   19.1253   -4.7867   12.9149 H   0  0  0  0  0  0  0  0  0  0  0  0
   18.3266   -0.8159   13.4282 H   0  0  0  0  0  0  0  0  0  0  0  0
   17.4211   -4.5929   15.1846 C   0  0  0  0  0  0  0  0  0  0  0  0
   16.1581   -4.5879   15.9926 C   0  0  0  0  0  0  0  0  0  0  0  0
   18.4005   -5.6130   15.6898 C   0  0  0  0  0  0  0  0  0  0  0  0
   18.4886   -6.8102   14.7621 C   0  0  0  0  0  0  0  0  0  0  0  0
   19.8493   -7.4497   14.7066 C   0  0  0  0  0  0  0  0  0  0  0  0
  2  1  1  0  0  0
 13 14  1  0  0  0
 13 11  1  0  0  0
  1 11  1  0  0  0
  1  6  1  0  0  0
  8  6  2  0  0  0
 15 14  1  0  0  0
 11 12  1  0  0  0
  6  7  1  0  0  0
  6  5  1  0  0  0
  5  9  1  0  0  0
  7 10  1  0  0  0
  2  3  1  0  0  0
  2  4  1  0  0  0
M  END
> <minimizedAffinity>
-4.16634

$$$$
