1OBA_CHT_A_1340


  8  7  0  0  0  0  0  0  0  0999 V2000
   33.2590   22.2175   11.4366 C   0  0  0  0  0  0  0  0  0  0  0  0
   34.3326   20.0607   12.0528 C   0  0  0  0  0  0  0  0  0  0  0  0
   34.8073   20.9389    9.8675 C   0  0  0  0  0  0  0  0  0  0  0  0
   35.6871   22.0190   11.8525 C   0  0  0  0  0  0  0  0  0  0  0  0
   34.5069   21.3125   11.3003 N   0  0  0  0  0  0  0  0  0  0  0  0
   32.6772   23.0241   10.2012 C   0  0  0  0  0  0  0  0  0  0  0  0
   33.3579   24.2498   10.1611 O   0  0  0  0  0  0  0  0  0  0  0  0
   33.2211   24.7231   10.9966 H   0  0  0  0  0  0  0  0  0  0  0  0
  6  1  1  0  0  0
  6  7  1  0  0  0
  1  5  1  0  0  0
  2  5  1  0  0  0
  3  5  1  0  0  0
  4  5  1  0  0  0
  7  8  1  0  0  0
M  CHG 1   5   1
M  END
> <minimizedAffinity>
-2.96265

$$$$
1OBA_CHT_A_1340


  8  7  0  0  0  0  0  0  0  0999 V2000
   33.2361   22.2113   11.3763 C   0  0  0  0  0  0  0  0  0  0  0  0
   35.6679   21.9945   11.8489 C   0  0  0  0  0  0  0  0  0  0  0  0
   34.3319   20.0063   12.0331 C   0  0  0  0  0  0  0  0  0  0  0  0
   34.7751   21.0024    9.8670 C   0  0  0  0  0  0  0  0  0  0  0  0
   34.4920   21.3113   11.2887 N   0  0  0  0  0  0  0  0  0  0  0  0
   32.6960   23.0109   10.1176 C   0  0  0  0  0  0  0  0  0  0  0  0
   33.3217   24.2660   10.1363 O   0  0  0  0  0  0  0  0  0  0  0  0
   33.1121   24.7194   10.9677 H   0  0  0  0  0  0  0  0  0  0  0  0
  6  1  1  0  0  0
  6  7  1  0  0  0
  1  5  1  0  0  0
  2  5  1  0  0  0
  3  5  1  0  0  0
  4  5  1  0  0  0
  7  8  1  0  0  0
M  CHG 1   5   1
M  END
> <minimizedAffinity>
-2.94870

$$$$
1OBA_CHT_A_1340


  8  7  0  0  0  0  0  0  0  0999 V2000
   34.1050   21.7648   10.6222 C   0  0  0  0  0  0  0  0  0  0  0  0
   35.2382   21.4634   12.8151 C   0  0  0  0  0  0  0  0  0  0  0  0
   32.8393   21.5940   12.8274 C   0  0  0  0  0  0  0  0  0  0  0  0
   33.9679   19.6563   11.9041 C   0  0  0  0  0  0  0  0  0  0  0  0
   34.0379   21.1312   12.0325 N   0  0  0  0  0  0  0  0  0  0  0  0
   34.4643   20.9041    9.3395 C   0  0  0  0  0  0  0  0  0  0  0  0
   35.8336   21.0884    9.0987 O   0  0  0  0  0  0  0  0  0  0  0  0
   36.0137   22.0315    8.9612 H   0  0  0  0  0  0  0  0  0  0  0  0
  6  1  1  0  0  0
  6  7  1  0  0  0
  1  5  1  0  0  0
  2  5  1  0  0  0
  3  5  1  0  0  0
  4  5  1  0  0  0
  7  8  1  0  0  0
M  CHG 1   5   1
M  END
> <minimizedAffinity>
-2.92761

$$$$
1OBA_CHT_A_1340


  8  7  0  0  0  0  0  0  0  0999 V2000
   34.0442   21.6949   10.5915 C   0  0  0  0  0  0  0  0  0  0  0  0
   34.0667   19.5550   11.8579 C   0  0  0  0  0  0  0  0  0  0  0  0
   35.2162   21.4232   12.8380 C   0  0  0  0  0  0  0  0  0  0  0  0
   32.7951   21.3932   12.7025 C   0  0  0  0  0  0  0  0  0  0  0  0
   34.0367   21.0201   11.9841 N   0  0  0  0  0  0  0  0  0  0  0  0
   34.4307   20.8917    9.2797 C   0  0  0  0  0  0  0  0  0  0  0  0
   35.8057   21.0816    9.0790 O   0  0  0  0  0  0  0  0  0  0  0  0
   35.9914   22.0293    8.9884 H   0  0  0  0  0  0  0  0  0  0  0  0
  6  1  1  0  0  0
  6  7  1  0  0  0
  1  5  1  0  0  0
  2  5  1  0  0  0
  3  5  1  0  0  0
  4  5  1  0  0  0
  7  8  1  0  0  0
M  CHG 1   5   1
M  END
> <minimizedAffinity>
-2.92213

$$$$
1OBA_CHT_A_1340


  8  7  0  0  0  0  0  0  0  0999 V2000
   33.9325   22.4319   10.9901 C   0  0  0  0  0  0  0  0  0  0  0  0
   33.5639   22.5991   13.4437 C   0  0  0  0  0  0  0  0  0  0  0  0
   32.6474   20.6814   12.3236 C   0  0  0  0  0  0  0  0  0  0  0  0
   35.0443   20.9233   12.6013 C   0  0  0  0  0  0  0  0  0  0  0  0
   33.7920   21.6677   12.3284 N   0  0  0  0  0  0  0  0  0  0  0  0
   32.7440   23.2997   10.3987 C   0  0  0  0  0  0  0  0  0  0  0  0
   33.3107   24.4907    9.9217 O   0  0  0  0  0  0  0  0  0  0  0  0
   33.7627   24.9474   10.6483 H   0  0  0  0  0  0  0  0  0  0  0  0
  6  1  1  0  0  0
  6  7  1  0  0  0
  1  5  1  0  0  0
  2  5  1  0  0  0
  3  5  1  0  0  0
  4  5  1  0  0  0
  7  8  1  0  0  0
M  CHG 1   5   1
M  END
> <minimizedAffinity>
-2.85001

$$$$
1OBA_CHT_A_1340


  8  7  0  0  0  0  0  0  0  0999 V2000
   33.4704   21.4460   12.9022 C   0  0  0  0  0  0  0  0  0  0  0  0
   35.6042   21.9700   11.7377 C   0  0  0  0  0  0  0  0  0  0  0  0
   34.3724   20.0574   10.9652 C   0  0  0  0  0  0  0  0  0  0  0  0
   33.5378   22.3023   10.5849 C   0  0  0  0  0  0  0  0  0  0  0  0
   34.2436   21.4395   11.5618 N   0  0  0  0  0  0  0  0  0  0  0  0
   32.6326   22.7075   13.3736 C   0  0  0  0  0  0  0  0  0  0  0  0
   33.4671   23.4557   14.2168 O   0  0  0  0  0  0  0  0  0  0  0  0
   33.7443   22.9070   14.9671 H   0  0  0  0  0  0  0  0  0  0  0  0
  6  1  1  0  0  0
  6  7  1  0  0  0
  1  5  1  0  0  0
  2  5  1  0  0  0
  3  5  1  0  0  0
  4  5  1  0  0  0
  7  8  1  0  0  0
M  CHG 1   5   1
M  END
> <minimizedAffinity>
-2.72783

$$$$
1OBA_CHT_A_1340


  8  7  0  0  0  0  0  0  0  0999 V2000
   34.3726   22.2366   10.9673 C   0  0  0  0  0  0  0  0  0  0  0  0
   32.4732   23.5534   10.0497 C   0  0  0  0  0  0  0  0  0  0  0  0
   32.0541   21.2496   10.5871 C   0  0  0  0  0  0  0  0  0  0  0  0
   32.4229   22.8818   12.3422 C   0  0  0  0  0  0  0  0  0  0  0  0
   32.8438   22.4762   10.9802 N   0  0  0  0  0  0  0  0  0  0  0  0
   34.9951   20.8608   10.4828 C   0  0  0  0  0  0  0  0  0  0  0  0
   35.6408   21.1153    9.2640 O   0  0  0  0  0  0  0  0  0  0  0  0
   34.9998   21.4650    8.6254 H   0  0  0  0  0  0  0  0  0  0  0  0
  6  1  1  0  0  0
  6  7  1  0  0  0
  1  5  1  0  0  0
  2  5  1  0  0  0
  3  5  1  0  0  0
  4  5  1  0  0  0
  7  8  1  0  0  0
M  CHG 1   5   1
M  END
> <minimizedAffinity>
-2.56688

$$$$
1OBA_CHT_A_1340


  8  7  0  0  0  0  0  0  0  0999 V2000
   33.3534   21.4231    8.4070 C   0  0  0  0  0  0  0  0  0  0  0  0
   35.0795   21.1192   10.1711 C   0  0  0  0  0  0  0  0  0  0  0  0
   32.8305   20.4699   10.7118 C   0  0  0  0  0  0  0  0  0  0  0  0
   34.1384   19.1908    9.1199 C   0  0  0  0  0  0  0  0  0  0  0  0
   33.8450   20.5634    9.5961 N   0  0  0  0  0  0  0  0  0  0  0  0
   33.7582   21.0840    6.9115 C   0  0  0  0  0  0  0  0  0  0  0  0
   34.9933   21.7053    6.6755 O   0  0  0  0  0  0  0  0  0  0  0  0
   34.9068   22.6610    6.8171 H   0  0  0  0  0  0  0  0  0  0  0  0
  6  1  1  0  0  0
  6  7  1  0  0  0
  1  5  1  0  0  0
  2  5  1  0  0  0
  3  5  1  0  0  0
  4  5  1  0  0  0
  7  8  1  0  0  0
M  CHG 1   5   1
M  END
> <minimizedAffinity>
-2.54126

$$$$
1OBA_CHT_A_1340


  8  7  0  0  0  0  0  0  0  0999 V2000
   32.6733   21.9297    9.7964 C   0  0  0  0  0  0  0  0  0  0  0  0
   34.9853   21.0143    9.8259 C   0  0  0  0  0  0  0  0  0  0  0  0
   33.1873   19.4475    9.5350 C   0  0  0  0  0  0  0  0  0  0  0  0
   33.7601   21.0138    7.7745 C   0  0  0  0  0  0  0  0  0  0  0  0
   33.6435   20.8581    9.2439 N   0  0  0  0  0  0  0  0  0  0  0  0
   33.1639   23.0616   10.7931 C   0  0  0  0  0  0  0  0  0  0  0  0
   33.2609   24.2447   10.0462 O   0  0  0  0  0  0  0  0  0  0  0  0
   33.8841   24.1149    9.3143 H   0  0  0  0  0  0  0  0  0  0  0  0
  6  1  1  0  0  0
  6  7  1  0  0  0
  1  5  1  0  0  0
  2  5  1  0  0  0
  3  5  1  0  0  0
  4  5  1  0  0  0
  7  8  1  0  0  0
M  CHG 1   5   1
M  END
> <minimizedAffinity>
-2.48932

$$$$
1OBA_CHT_A_1340


  8  7  0  0  0  0  0  0  0  0999 V2000
   32.5799   22.1139    9.5236 C   0  0  0  0  0  0  0  0  0  0  0  0
   33.7166   21.0012    7.6121 C   0  0  0  0  0  0  0  0  0  0  0  0
   34.8316   20.9403    9.7393 C   0  0  0  0  0  0  0  0  0  0  0  0
   32.8074   19.6580    9.3666 C   0  0  0  0  0  0  0  0  0  0  0  0
   33.4807   20.9429    9.0628 N   0  0  0  0  0  0  0  0  0  0  0  0
   33.0334   23.1111   10.6704 C   0  0  0  0  0  0  0  0  0  0  0  0
   33.3021   24.3419   10.0539 O   0  0  0  0  0  0  0  0  0  0  0  0
   33.9946   24.2240    9.3849 H   0  0  0  0  0  0  0  0  0  0  0  0
  6  1  1  0  0  0
  6  7  1  0  0  0
  1  5  1  0  0  0
  2  5  1  0  0  0
  3  5  1  0  0  0
  4  5  1  0  0  0
  7  8  1  0  0  0
M  CHG 1   5   1
M  END
> <minimizedAffinity>
-2.48614

$$$$
