2BVD_ISX_A_1284


 28 29  0  0  0  0  0  0  0  0999 V2000
   21.5504   33.7370   16.5715 C   0  0  0  0  0  0  0  0  0  0  0  0
   22.5976   34.7004   17.1225 C   0  0  0  0  0  0  0  0  0  0  0  0
   22.6608   35.8982   16.3326 O   0  0  0  0  0  0  0  0  0  0  0  0
   23.9734   34.0412   17.2220 C   0  0  0  0  0  0  0  0  0  0  0  0
   24.8683   34.9328   17.8957 O   0  0  0  0  0  0  0  0  0  0  0  0
   23.8915   32.6997   17.9551 C   0  0  0  0  0  0  0  0  0  0  0  0
   25.1707   32.0538   17.9652 O   0  0  0  0  0  0  0  0  0  0  0  0
   22.8416   31.8313   17.2484 C   0  0  0  0  0  0  0  0  0  0  0  0
   21.5972   32.5184   17.3187 O   0  0  0  0  0  0  0  0  0  0  0  0
   22.9333   35.6755   15.4287 H   0  0  0  0  0  0  0  0  0  0  0  0
   24.5352   35.1113   18.7890 H   0  0  0  0  0  0  0  0  0  0  0  0
   25.4620   31.8990   17.0531 H   0  0  0  0  0  0  0  0  0  0  0  0
   22.6570   30.4733   17.9071 C   0  0  0  0  0  0  0  0  0  0  0  0
   22.6718   30.6505   19.3290 O   0  0  0  0  0  0  0  0  0  0  0  0
   23.5178   31.0419   19.5973 H   0  0  0  0  0  0  0  0  0  0  0  0
   20.2766   34.3330   16.7598 O   0  0  0  0  0  0  0  0  0  0  0  0
   19.1011   34.4671   14.6628 C   0  0  0  0  0  0  0  0  0  0  0  0
   17.8578   34.1544   13.9667 N   0  0  0  0  0  0  0  0  0  0  0  0
   19.2537   33.6972   15.9786 C   0  0  0  0  0  0  0  0  0  0  0  0
   17.9848   33.6999   16.8203 C   0  0  0  0  0  0  0  0  0  0  0  0
   18.1946   32.8690   17.9742 O   0  0  0  0  0  0  0  0  0  0  0  0
   16.8116   33.2219   15.9570 C   0  0  0  0  0  0  0  0  0  0  0  0
   16.6235   34.1434   14.7533 C   0  0  0  0  0  0  0  0  0  0  0  0
   17.9644   33.2278   13.5536 H   0  0  0  0  0  0  0  0  0  0  0  0
   18.4111   31.9676   17.6886 H   0  0  0  0  0  0  0  0  0  0  0  0
   15.4992   31.8863   17.5244 O   0  0  0  0  0  0  0  0  0  0  0  0
   15.4924   33.0724   16.7231 C   0  0  0  0  0  0  0  0  0  0  0  0
   14.6567   31.8120   17.9992 H   0  0  0  0  0  0  0  0  0  0  0  0
 26 27  1  0  0  0
 17 18  1  0  0  0
 17 19  1  0  0  0
 18 23  1  0  0  0
 19 16  1  0  0  0
 19 20  1  0  0  0
 16  1  1  0  0  0
 20 21  1  0  0  0
 20 22  1  0  0  0
 22 23  1  0  0  0
 22 27  1  0  0  0
  1  2  1  0  0  0
  1  9  1  0  0  0
  2  3  1  0  0  0
  2  4  1  0  0  0
  4  5  1  0  0  0
  4  6  1  0  0  0
  6  7  1  0  0  0
  6  8  1  0  0  0
  8 13  1  0  0  0
  8  9  1  0  0  0
 13 14  1  0  0  0
 26 28  1  0  0  0
 18 24  1  0  0  0
 21 25  1  0  0  0
  3 10  1  0  0  0
  5 11  1  0  0  0
  7 12  1  0  0  0
 14 15  1  0  0  0
M  END
> <minimizedAffinity>
-8.87016

$$$$
2BVD_ISX_A_1284


 28 29  0  0  0  0  0  0  0  0999 V2000
   14.9341   35.3918   14.7080 C   0  0  0  0  0  0  0  0  0  0  0  0
   14.8778   36.8547   15.1385 C   0  0  0  0  0  0  0  0  0  0  0  0
   15.7275   37.0902   16.2722 O   0  0  0  0  0  0  0  0  0  0  0  0
   13.4453   37.3020   15.4301 C   0  0  0  0  0  0  0  0  0  0  0  0
   13.4380   38.7143   15.6646 O   0  0  0  0  0  0  0  0  0  0  0  0
   12.5076   36.9398   14.2754 C   0  0  0  0  0  0  0  0  0  0  0  0
   11.1553   37.2869   14.5986 O   0  0  0  0  0  0  0  0  0  0  0  0
   12.6403   35.4348   14.0049 C   0  0  0  0  0  0  0  0  0  0  0  0
   13.9948   35.1794   13.6504 O   0  0  0  0  0  0  0  0  0  0  0  0
   15.4151   36.5645   17.0252 H   0  0  0  0  0  0  0  0  0  0  0  0
   13.7610   39.1749   14.8744 H   0  0  0  0  0  0  0  0  0  0  0  0
   10.8791   36.8051   15.3939 H   0  0  0  0  0  0  0  0  0  0  0  0
   11.7651   34.9611   12.8553 C   0  0  0  0  0  0  0  0  0  0  0  0
   11.3072   36.1080   12.1283 O   0  0  0  0  0  0  0  0  0  0  0  0
   10.8006   36.6853   12.7207 H   0  0  0  0  0  0  0  0  0  0  0  0
   16.2387   35.1402   14.2100 O   0  0  0  0  0  0  0  0  0  0  0  0
   16.0841   33.6448   16.0908 C   0  0  0  0  0  0  0  0  0  0  0  0
   16.8204   32.7245   16.9505 N   0  0  0  0  0  0  0  0  0  0  0  0
   16.8307   33.9694   14.7928 C   0  0  0  0  0  0  0  0  0  0  0  0
   18.3045   34.2803   15.0159 C   0  0  0  0  0  0  0  0  0  0  0  0
   18.9359   34.4653   13.7380 O   0  0  0  0  0  0  0  0  0  0  0  0
   18.9381   33.1430   15.8255 C   0  0  0  0  0  0  0  0  0  0  0  0
   18.2408   32.9960   17.1767 C   0  0  0  0  0  0  0  0  0  0  0  0
   16.7499   31.7959   16.5343 H   0  0  0  0  0  0  0  0  0  0  0  0
   18.8350   33.6594   13.2078 H   0  0  0  0  0  0  0  0  0  0  0  0
   20.8144   34.6521   16.2315 O   0  0  0  0  0  0  0  0  0  0  0  0
   20.4519   33.2834   16.0213 C   0  0  0  0  0  0  0  0  0  0  0  0
   21.7746   34.7173   16.3527 H   0  0  0  0  0  0  0  0  0  0  0  0
 26 27  1  0  0  0
 17 18  1  0  0  0
 17 19  1  0  0  0
 18 23  1  0  0  0
 19 16  1  0  0  0
 19 20  1  0  0  0
 16  1  1  0  0  0
 20 21  1  0  0  0
 20 22  1  0  0  0
 22 23  1  0  0  0
 22 27  1  0  0  0
  1  2  1  0  0  0
  1  9  1  0  0  0
  2  3  1  0  0  0
  2  4  1  0  0  0
  4  5  1  0  0  0
  4  6  1  0  0  0
  6  7  1  0  0  0
  6  8  1  0  0  0
  8 13  1  0  0  0
  8  9  1  0  0  0
 13 14  1  0  0  0
 26 28  1  0  0  0
 18 24  1  0  0  0
 21 25  1  0  0  0
  3 10  1  0  0  0
  5 11  1  0  0  0
  7 12  1  0  0  0
 14 15  1  0  0  0
M  END
> <minimizedAffinity>
-8.26080

$$$$
2BVD_ISX_A_1284


 28 29  0  0  0  0  0  0  0  0999 V2000
   20.4956   34.3974   16.8596 C   0  0  0  0  0  0  0  0  0  0  0  0
   21.8052   33.7892   16.3663 C   0  0  0  0  0  0  0  0  0  0  0  0
   21.7129   32.3577   16.2954 O   0  0  0  0  0  0  0  0  0  0  0  0
   22.9879   34.2156   17.2361 C   0  0  0  0  0  0  0  0  0  0  0  0
   24.2003   33.7537   16.6309 O   0  0  0  0  0  0  0  0  0  0  0  0
   23.0190   35.7351   17.4199 C   0  0  0  0  0  0  0  0  0  0  0  0
   24.0801   36.1125   18.3061 O   0  0  0  0  0  0  0  0  0  0  0  0
   21.6570   36.1787   17.9712 C   0  0  0  0  0  0  0  0  0  0  0  0
   20.6663   35.8085   17.0188 O   0  0  0  0  0  0  0  0  0  0  0  0
   21.5546   31.9995   17.1828 H   0  0  0  0  0  0  0  0  0  0  0  0
   24.2933   34.1497   15.7502 H   0  0  0  0  0  0  0  0  0  0  0  0
   23.9451   35.6918   19.1696 H   0  0  0  0  0  0  0  0  0  0  0  0
   21.5626   37.6826   18.1747 C   0  0  0  0  0  0  0  0  0  0  0  0
   22.1345   38.0071   19.4479 O   0  0  0  0  0  0  0  0  0  0  0  0
   21.6500   37.5422   20.1479 H   0  0  0  0  0  0  0  0  0  0  0  0
   19.5135   34.1716   15.8606 O   0  0  0  0  0  0  0  0  0  0  0  0
   17.5319   33.0876   16.6946 C   0  0  0  0  0  0  0  0  0  0  0  0
   16.0817   33.1805   16.8219 N   0  0  0  0  0  0  0  0  0  0  0  0
   18.1825   34.4270   16.3338 C   0  0  0  0  0  0  0  0  0  0  0  0
   17.4489   35.1644   15.2218 C   0  0  0  0  0  0  0  0  0  0  0  0
   18.0688   36.4471   15.0313 O   0  0  0  0  0  0  0  0  0  0  0  0
   15.9653   35.2775   15.5912 C   0  0  0  0  0  0  0  0  0  0  0  0
   15.3518   33.8900   15.7700 C   0  0  0  0  0  0  0  0  0  0  0  0
   15.8826   33.6536   17.7034 H   0  0  0  0  0  0  0  0  0  0  0  0
   18.0279   36.9521   15.8585 H   0  0  0  0  0  0  0  0  0  0  0  0
   15.4766   35.7704   13.2500 O   0  0  0  0  0  0  0  0  0  0  0  0
   15.1357   36.1016   14.6003 C   0  0  0  0  0  0  0  0  0  0  0  0
   14.9407   36.3026   12.6414 H   0  0  0  0  0  0  0  0  0  0  0  0
 26 27  1  0  0  0
 17 18  1  0  0  0
 17 19  1  0  0  0
 18 23  1  0  0  0
 19 16  1  0  0  0
 19 20  1  0  0  0
 16  1  1  0  0  0
 20 21  1  0  0  0
 20 22  1  0  0  0
 22 23  1  0  0  0
 22 27  1  0  0  0
  1  2  1  0  0  0
  1  9  1  0  0  0
  2  3  1  0  0  0
  2  4  1  0  0  0
  4  5  1  0  0  0
  4  6  1  0  0  0
  6  7  1  0  0  0
  6  8  1  0  0  0
  8 13  1  0  0  0
  8  9  1  0  0  0
 13 14  1  0  0  0
 26 28  1  0  0  0
 18 24  1  0  0  0
 21 25  1  0  0  0
  3 10  1  0  0  0
  5 11  1  0  0  0
  7 12  1  0  0  0
 14 15  1  0  0  0
M  END
> <minimizedAffinity>
-7.48074

$$$$
2BVD_ISX_A_1284


 28 29  0  0  0  0  0  0  0  0999 V2000
   16.0978   36.1144   15.8370 C   0  0  0  0  0  0  0  0  0  0  0  0
   17.6094   35.9090   15.8034 C   0  0  0  0  0  0  0  0  0  0  0  0
   18.2418   36.8805   14.9554 O   0  0  0  0  0  0  0  0  0  0  0  0
   17.9761   34.4891   15.3714 C   0  0  0  0  0  0  0  0  0  0  0  0
   19.3885   34.3084   15.5193 O   0  0  0  0  0  0  0  0  0  0  0  0
   17.2082   33.4472   16.1891 C   0  0  0  0  0  0  0  0  0  0  0  0
   17.4963   32.1255   15.7163 O   0  0  0  0  0  0  0  0  0  0  0  0
   15.7096   33.7586   16.0749 C   0  0  0  0  0  0  0  0  0  0  0  0
   15.5002   35.0640   16.6019 O   0  0  0  0  0  0  0  0  0  0  0  0
   17.9240   36.7711   14.0455 H   0  0  0  0  0  0  0  0  0  0  0  0
   19.6347   34.4320   16.4494 H   0  0  0  0  0  0  0  0  0  0  0  0
   17.2361   32.0515   14.7848 H   0  0  0  0  0  0  0  0  0  0  0  0
   14.8430   32.7951   16.8705 C   0  0  0  0  0  0  0  0  0  0  0  0
   15.6995   31.9237   17.6193 O   0  0  0  0  0  0  0  0  0  0  0  0
   16.2747   31.4342   17.0107 H   0  0  0  0  0  0  0  0  0  0  0  0
   15.8460   37.3482   16.4911 O   0  0  0  0  0  0  0  0  0  0  0  0
   13.8040   38.5489   16.0604 C   0  0  0  0  0  0  0  0  0  0  0  0
   12.5527   39.0264   16.6388 N   0  0  0  0  0  0  0  0  0  0  0  0
   14.4808   37.4736   16.9167 C   0  0  0  0  0  0  0  0  0  0  0  0
   14.5069   37.8223   18.3986 C   0  0  0  0  0  0  0  0  0  0  0  0
   15.0615   36.7125   19.1243 O   0  0  0  0  0  0  0  0  0  0  0  0
   13.0857   38.1719   18.8549 C   0  0  0  0  0  0  0  0  0  0  0  0
   12.5479   39.3625   18.0634 C   0  0  0  0  0  0  0  0  0  0  0  0
   11.8530   38.2983   16.4949 H   0  0  0  0  0  0  0  0  0  0  0  0
   14.5200   35.9226   18.9705 H   0  0  0  0  0  0  0  0  0  0  0  0
   12.8430   37.2040   21.0836 O   0  0  0  0  0  0  0  0  0  0  0  0
   12.9592   38.4335   20.3599 C   0  0  0  0  0  0  0  0  0  0  0  0
   12.7643   37.3931   22.0317 H   0  0  0  0  0  0  0  0  0  0  0  0
 26 27  1  0  0  0
 17 18  1  0  0  0
 17 19  1  0  0  0
 18 23  1  0  0  0
 19 16  1  0  0  0
 19 20  1  0  0  0
 16  1  1  0  0  0
 20 21  1  0  0  0
 20 22  1  0  0  0
 22 23  1  0  0  0
 22 27  1  0  0  0
  1  2  1  0  0  0
  1  9  1  0  0  0
  2  3  1  0  0  0
  2  4  1  0  0  0
  4  5  1  0  0  0
  4  6  1  0  0  0
  6  7  1  0  0  0
  6  8  1  0  0  0
  8 13  1  0  0  0
  8  9  1  0  0  0
 13 14  1  0  0  0
 26 28  1  0  0  0
 18 24  1  0  0  0
 21 25  1  0  0  0
  3 10  1  0  0  0
  5 11  1  0  0  0
  7 12  1  0  0  0
 14 15  1  0  0  0
M  END
> <minimizedAffinity>
-7.30094

$$$$
2BVD_ISX_A_1284


 28 29  0  0  0  0  0  0  0  0999 V2000
   15.9996   36.9031   15.9262 C   0  0  0  0  0  0  0  0  0  0  0  0
   16.6087   37.5316   17.1762 C   0  0  0  0  0  0  0  0  0  0  0  0
   16.1167   38.8666   17.3725 O   0  0  0  0  0  0  0  0  0  0  0  0
   18.1366   37.5167   17.1275 C   0  0  0  0  0  0  0  0  0  0  0  0
   18.6462   37.9626   18.3889 O   0  0  0  0  0  0  0  0  0  0  0  0
   18.6651   36.1193   16.7934 C   0  0  0  0  0  0  0  0  0  0  0  0
   20.0924   36.1389   16.6663 O   0  0  0  0  0  0  0  0  0  0  0  0
   18.0024   35.6561   15.4887 C   0  0  0  0  0  0  0  0  0  0  0  0
   16.5967   35.6217   15.7090 O   0  0  0  0  0  0  0  0  0  0  0  0
   16.3809   39.4221   16.6226 H   0  0  0  0  0  0  0  0  0  0  0  0
   18.3438   37.3639   19.0897 H   0  0  0  0  0  0  0  0  0  0  0  0
   20.3455   36.7510   15.9577 H   0  0  0  0  0  0  0  0  0  0  0  0
   18.4378   34.2617   15.0668 C   0  0  0  0  0  0  0  0  0  0  0  0
   19.0287   34.3434   13.7638 O   0  0  0  0  0  0  0  0  0  0  0  0
   18.3794   34.6972   13.1359 H   0  0  0  0  0  0  0  0  0  0  0  0
   14.6137   36.7196   16.1691 O   0  0  0  0  0  0  0  0  0  0  0  0
   12.8575   38.2826   15.6494 C   0  0  0  0  0  0  0  0  0  0  0  0
   11.7447   38.5764   14.7529 N   0  0  0  0  0  0  0  0  0  0  0  0
   13.7998   37.2102   15.0931 C   0  0  0  0  0  0  0  0  0  0  0  0
   13.0609   36.0122   14.5122 C   0  0  0  0  0  0  0  0  0  0  0  0
   14.0210   35.1183   13.9247 O   0  0  0  0  0  0  0  0  0  0  0  0
   12.0228   36.5084   13.4993 C   0  0  0  0  0  0  0  0  0  0  0  0
   11.0210   37.4429   14.1749 C   0  0  0  0  0  0  0  0  0  0  0  0
   12.1142   39.1288   13.9791 H   0  0  0  0  0  0  0  0  0  0  0  0
   14.5131   35.5835   13.2302 H   0  0  0  0  0  0  0  0  0  0  0  0
   12.1909   34.6360   11.9409 O   0  0  0  0  0  0  0  0  0  0  0  0
   11.2867   35.3865   12.7584 C   0  0  0  0  0  0  0  0  0  0  0  0
   11.7046   33.9329   11.4824 H   0  0  0  0  0  0  0  0  0  0  0  0
 26 27  1  0  0  0
 17 18  1  0  0  0
 17 19  1  0  0  0
 18 23  1  0  0  0
 19 16  1  0  0  0
 19 20  1  0  0  0
 16  1  1  0  0  0
 20 21  1  0  0  0
 20 22  1  0  0  0
 22 23  1  0  0  0
 22 27  1  0  0  0
  1  2  1  0  0  0
  1  9  1  0  0  0
  2  3  1  0  0  0
  2  4  1  0  0  0
  4  5  1  0  0  0
  4  6  1  0  0  0
  6  7  1  0  0  0
  6  8  1  0  0  0
  8 13  1  0  0  0
  8  9  1  0  0  0
 13 14  1  0  0  0
 26 28  1  0  0  0
 18 24  1  0  0  0
 21 25  1  0  0  0
  3 10  1  0  0  0
  5 11  1  0  0  0
  7 12  1  0  0  0
 14 15  1  0  0  0
M  END
> <minimizedAffinity>
-7.15336

$$$$
2BVD_ISX_A_1284


 28 29  0  0  0  0  0  0  0  0999 V2000
   17.7113   35.5374   15.8446 C   0  0  0  0  0  0  0  0  0  0  0  0
   18.2811   34.4115   14.9865 C   0  0  0  0  0  0  0  0  0  0  0  0
   17.2366   33.5474   14.5121 O   0  0  0  0  0  0  0  0  0  0  0  0
   19.3474   33.6142   15.7379 C   0  0  0  0  0  0  0  0  0  0  0  0
   19.9578   32.6873   14.8336 O   0  0  0  0  0  0  0  0  0  0  0  0
   20.3981   34.5413   16.3545 C   0  0  0  0  0  0  0  0  0  0  0  0
   21.3415   33.7881   17.1267 O   0  0  0  0  0  0  0  0  0  0  0  0
   19.6721   35.5744   17.2271 C   0  0  0  0  0  0  0  0  0  0  0  0
   18.7903   36.3064   16.3832 O   0  0  0  0  0  0  0  0  0  0  0  0
   16.7957   33.1282   15.2676 H   0  0  0  0  0  0  0  0  0  0  0  0
   20.3770   33.1735   14.1064 H   0  0  0  0  0  0  0  0  0  0  0  0
   20.8767   33.3193   17.8374 H   0  0  0  0  0  0  0  0  0  0  0  0
   20.6200   36.5693   17.8781 C   0  0  0  0  0  0  0  0  0  0  0  0
   21.1851   35.9626   19.0470 O   0  0  0  0  0  0  0  0  0  0  0  0
   20.4748   35.7230   19.6625 H   0  0  0  0  0  0  0  0  0  0  0  0
   16.9393   36.3745   14.9980 O   0  0  0  0  0  0  0  0  0  0  0  0
   14.8194   35.8021   14.0102 C   0  0  0  0  0  0  0  0  0  0  0  0
   13.3798   36.0347   14.0501 N   0  0  0  0  0  0  0  0  0  0  0  0
   15.5336   36.2871   15.2760 C   0  0  0  0  0  0  0  0  0  0  0  0
   15.0813   37.6712   15.7211 C   0  0  0  0  0  0  0  0  0  0  0  0
   15.7257   37.9893   16.9659 O   0  0  0  0  0  0  0  0  0  0  0  0
   13.5522   37.6862   15.8300 C   0  0  0  0  0  0  0  0  0  0  0  0
   12.9170   37.3548   14.4809 C   0  0  0  0  0  0  0  0  0  0  0  0
   12.9774   35.3475   14.6875 H   0  0  0  0  0  0  0  0  0  0  0  0
   15.4897   37.3242   17.6314 H   0  0  0  0  0  0  0  0  0  0  0  0
   13.0864   39.0419   17.8069 O   0  0  0  0  0  0  0  0  0  0  0  0
   12.9778   38.9964   16.3803 C   0  0  0  0  0  0  0  0  0  0  0  0
   12.7176   39.8777   18.1328 H   0  0  0  0  0  0  0  0  0  0  0  0
 26 27  1  0  0  0
 17 18  1  0  0  0
 17 19  1  0  0  0
 18 23  1  0  0  0
 19 16  1  0  0  0
 19 20  1  0  0  0
 16  1  1  0  0  0
 20 21  1  0  0  0
 20 22  1  0  0  0
 22 23  1  0  0  0
 22 27  1  0  0  0
  1  2  1  0  0  0
  1  9  1  0  0  0
  2  3  1  0  0  0
  2  4  1  0  0  0
  4  5  1  0  0  0
  4  6  1  0  0  0
  6  7  1  0  0  0
  6  8  1  0  0  0
  8 13  1  0  0  0
  8  9  1  0  0  0
 13 14  1  0  0  0
 26 28  1  0  0  0
 18 24  1  0  0  0
 21 25  1  0  0  0
  3 10  1  0  0  0
  5 11  1  0  0  0
  7 12  1  0  0  0
 14 15  1  0  0  0
M  END
> <minimizedAffinity>
-6.98927

$$$$
2BVD_ISX_A_1284


 28 29  0  0  0  0  0  0  0  0999 V2000
   19.3047   35.9807   17.2909 C   0  0  0  0  0  0  0  0  0  0  0  0
   18.2899   36.7799   16.4785 C   0  0  0  0  0  0  0  0  0  0  0  0
   17.5106   37.6362   17.3282 O   0  0  0  0  0  0  0  0  0  0  0  0
   17.3859   35.8667   15.6502 C   0  0  0  0  0  0  0  0  0  0  0  0
   16.5738   36.6729   14.7899 O   0  0  0  0  0  0  0  0  0  0  0  0
   18.2093   34.8654   14.8359 C   0  0  0  0  0  0  0  0  0  0  0  0
   17.3483   33.9614   14.1322 O   0  0  0  0  0  0  0  0  0  0  0  0
   19.1327   34.1083   15.8003 C   0  0  0  0  0  0  0  0  0  0  0  0
   19.9810   35.0658   16.4242 O   0  0  0  0  0  0  0  0  0  0  0  0
   17.0044   37.0959   17.9549 H   0  0  0  0  0  0  0  0  0  0  0  0
   17.1430   37.1839   14.1934 H   0  0  0  0  0  0  0  0  0  0  0  0
   16.7992   33.4768   14.7683 H   0  0  0  0  0  0  0  0  0  0  0  0
   20.0204   33.0946   15.0958 C   0  0  0  0  0  0  0  0  0  0  0  0
   20.4952   33.6751   13.8747 O   0  0  0  0  0  0  0  0  0  0  0  0
   19.7399   33.9085   13.3126 H   0  0  0  0  0  0  0  0  0  0  0  0
   20.2558   36.8963   17.8110 O   0  0  0  0  0  0  0  0  0  0  0  0
   20.9974   36.8908   20.1017 C   0  0  0  0  0  0  0  0  0  0  0  0
   22.1171   36.6156   20.9955 N   0  0  0  0  0  0  0  0  0  0  0  0
   21.1814   36.2709   18.7127 C   0  0  0  0  0  0  0  0  0  0  0  0
   22.5759   36.4917   18.1425 C   0  0  0  0  0  0  0  0  0  0  0  0
   22.6811   35.7871   16.8941 O   0  0  0  0  0  0  0  0  0  0  0  0
   23.6150   36.0268   19.1693 C   0  0  0  0  0  0  0  0  0  0  0  0
   23.4692   36.8131   20.4708 C   0  0  0  0  0  0  0  0  0  0  0  0
   22.0423   35.6408   21.2866 H   0  0  0  0  0  0  0  0  0  0  0  0
   22.5199   34.8420   17.0417 H   0  0  0  0  0  0  0  0  0  0  0  0
   25.3926   34.9255   17.9084 O   0  0  0  0  0  0  0  0  0  0  0  0
   25.0620   36.0929   18.6679 C   0  0  0  0  0  0  0  0  0  0  0  0
   26.3107   34.9885   17.6017 H   0  0  0  0  0  0  0  0  0  0  0  0
 26 27  1  0  0  0
 17 18  1  0  0  0
 17 19  1  0  0  0
 18 23  1  0  0  0
 19 16  1  0  0  0
 19 20  1  0  0  0
 16  1  1  0  0  0
 20 21  1  0  0  0
 20 22  1  0  0  0
 22 23  1  0  0  0
 22 27  1  0  0  0
  1  2  1  0  0  0
  1  9  1  0  0  0
  2  3  1  0  0  0
  2  4  1  0  0  0
  4  5  1  0  0  0
  4  6  1  0  0  0
  6  7  1  0  0  0
  6  8  1  0  0  0
  8 13  1  0  0  0
  8  9  1  0  0  0
 13 14  1  0  0  0
 26 28  1  0  0  0
 18 24  1  0  0  0
 21 25  1  0  0  0
  3 10  1  0  0  0
  5 11  1  0  0  0
  7 12  1  0  0  0
 14 15  1  0  0  0
M  END
> <minimizedAffinity>
-6.74595

$$$$
2BVD_ISX_A_1284


 28 29  0  0  0  0  0  0  0  0999 V2000
   14.5275   36.4114   14.9377 C   0  0  0  0  0  0  0  0  0  0  0  0
   13.5008   35.8011   13.9880 C   0  0  0  0  0  0  0  0  0  0  0  0
   14.1457   35.1604   12.8761 O   0  0  0  0  0  0  0  0  0  0  0  0
   12.4907   36.8420   13.5051 C   0  0  0  0  0  0  0  0  0  0  0  0
   11.4638   36.1813   12.7576 O   0  0  0  0  0  0  0  0  0  0  0  0
   11.8909   37.6171   14.6812 C   0  0  0  0  0  0  0  0  0  0  0  0
   11.0120   38.6458   14.2092 O   0  0  0  0  0  0  0  0  0  0  0  0
   13.0445   38.2116   15.5008 C   0  0  0  0  0  0  0  0  0  0  0  0
   13.8427   37.1297   15.9676 O   0  0  0  0  0  0  0  0  0  0  0  0
   14.6416   35.8199   12.3661 H   0  0  0  0  0  0  0  0  0  0  0  0
   11.0119   35.5390   13.3269 H   0  0  0  0  0  0  0  0  0  0  0  0
   11.5069   39.2600   13.6446 H   0  0  0  0  0  0  0  0  0  0  0  0
   12.5665   38.9905   16.7161 C   0  0  0  0  0  0  0  0  0  0  0  0
   11.3164   38.4391   17.1483 O   0  0  0  0  0  0  0  0  0  0  0  0
   10.6680   38.5058   16.4299 H   0  0  0  0  0  0  0  0  0  0  0  0
   15.2485   35.3448   15.5344 O   0  0  0  0  0  0  0  0  0  0  0  0
   17.1692   34.2047   14.6353 C   0  0  0  0  0  0  0  0  0  0  0  0
   18.6165   34.0456   14.7264 N   0  0  0  0  0  0  0  0  0  0  0  0
   16.6659   35.4673   15.3425 C   0  0  0  0  0  0  0  0  0  0  0  0
   17.2857   35.6655   16.7191 C   0  0  0  0  0  0  0  0  0  0  0  0
   16.8347   36.9219   17.2518 O   0  0  0  0  0  0  0  0  0  0  0  0
   18.8120   35.5934   16.5950 C   0  0  0  0  0  0  0  0  0  0  0  0
   19.2394   34.2372   16.0371 C   0  0  0  0  0  0  0  0  0  0  0  0
   19.0381   34.7192   14.0870 H   0  0  0  0  0  0  0  0  0  0  0  0
   17.0974   37.6395   16.6543 H   0  0  0  0  0  0  0  0  0  0  0  0
   18.7708   35.5217   19.0355 O   0  0  0  0  0  0  0  0  0  0  0  0
   19.5598   35.8909   17.8995 C   0  0  0  0  0  0  0  0  0  0  0  0
   19.2624   35.7183   19.8482 H   0  0  0  0  0  0  0  0  0  0  0  0
 26 27  1  0  0  0
 17 18  1  0  0  0
 17 19  1  0  0  0
 18 23  1  0  0  0
 19 16  1  0  0  0
 19 20  1  0  0  0
 16  1  1  0  0  0
 20 21  1  0  0  0
 20 22  1  0  0  0
 22 23  1  0  0  0
 22 27  1  0  0  0
  1  2  1  0  0  0
  1  9  1  0  0  0
  2  3  1  0  0  0
  2  4  1  0  0  0
  4  5  1  0  0  0
  4  6  1  0  0  0
  6  7  1  0  0  0
  6  8  1  0  0  0
  8 13  1  0  0  0
  8  9  1  0  0  0
 13 14  1  0  0  0
 26 28  1  0  0  0
 18 24  1  0  0  0
 21 25  1  0  0  0
  3 10  1  0  0  0
  5 11  1  0  0  0
  7 12  1  0  0  0
 14 15  1  0  0  0
M  END
> <minimizedAffinity>
-6.73661

$$$$
2BVD_ISX_A_1284


 28 29  0  0  0  0  0  0  0  0999 V2000
   20.5497   34.8454   16.9187 C   0  0  0  0  0  0  0  0  0  0  0  0
   20.2761   35.9615   17.9227 C   0  0  0  0  0  0  0  0  0  0  0  0
   21.1247   35.8364   19.0747 O   0  0  0  0  0  0  0  0  0  0  0  0
   18.8041   36.0023   18.3333 C   0  0  0  0  0  0  0  0  0  0  0  0
   18.5786   37.1636   19.1397 O   0  0  0  0  0  0  0  0  0  0  0  0
   17.8883   36.0086   17.1065 C   0  0  0  0  0  0  0  0  0  0  0  0
   16.5129   35.9599   17.5059 O   0  0  0  0  0  0  0  0  0  0  0  0
   18.2510   34.8004   16.2321 C   0  0  0  0  0  0  0  0  0  0  0  0
   19.6124   34.9443   15.8429 O   0  0  0  0  0  0  0  0  0  0  0  0
   20.9344   34.9998   19.5272 H   0  0  0  0  0  0  0  0  0  0  0  0
   18.7883   37.9594   18.6263 H   0  0  0  0  0  0  0  0  0  0  0  0
   16.3529   35.1508   18.0164 H   0  0  0  0  0  0  0  0  0  0  0  0
   17.4151   34.7152   14.9648 C   0  0  0  0  0  0  0  0  0  0  0  0
   18.2446   34.2261   13.9036 O   0  0  0  0  0  0  0  0  0  0  0  0
   18.9923   34.8302   13.7731 H   0  0  0  0  0  0  0  0  0  0  0  0
   21.8551   35.0446   16.3995 O   0  0  0  0  0  0  0  0  0  0  0  0
   21.7210   32.6514   16.6274 C   0  0  0  0  0  0  0  0  0  0  0  0
   22.4209   31.4516   17.0732 N   0  0  0  0  0  0  0  0  0  0  0  0
   22.6551   33.8541   16.4578 C   0  0  0  0  0  0  0  0  0  0  0  0
   23.6227   34.0248   17.6210 C   0  0  0  0  0  0  0  0  0  0  0  0
   24.5199   35.1066   17.3202 O   0  0  0  0  0  0  0  0  0  0  0  0
   24.3572   32.7003   17.8585 C   0  0  0  0  0  0  0  0  0  0  0  0
   23.3622   31.5884   18.1857 C   0  0  0  0  0  0  0  0  0  0  0  0
   22.9425   31.0887   16.2753 H   0  0  0  0  0  0  0  0  0  0  0  0
   25.0029   34.9082   16.5027 H   0  0  0  0  0  0  0  0  0  0  0  0
   26.6665   33.2869   18.3932 O   0  0  0  0  0  0  0  0  0  0  0  0
   25.4453   32.7736   18.9356 C   0  0  0  0  0  0  0  0  0  0  0  0
   27.3395   33.3246   19.0908 H   0  0  0  0  0  0  0  0  0  0  0  0
 26 27  1  0  0  0
 17 18  1  0  0  0
 17 19  1  0  0  0
 18 23  1  0  0  0
 19 16  1  0  0  0
 19 20  1  0  0  0
 16  1  1  0  0  0
 20 21  1  0  0  0
 20 22  1  0  0  0
 22 23  1  0  0  0
 22 27  1  0  0  0
  1  2  1  0  0  0
  1  9  1  0  0  0
  2  3  1  0  0  0
  2  4  1  0  0  0
  4  5  1  0  0  0
  4  6  1  0  0  0
  6  7  1  0  0  0
  6  8  1  0  0  0
  8 13  1  0  0  0
  8  9  1  0  0  0
 13 14  1  0  0  0
 26 28  1  0  0  0
 18 24  1  0  0  0
 21 25  1  0  0  0
  3 10  1  0  0  0
  5 11  1  0  0  0
  7 12  1  0  0  0
 14 15  1  0  0  0
M  END
> <minimizedAffinity>
-6.73555

$$$$
2BVD_ISX_A_1284


 28 29  0  0  0  0  0  0  0  0999 V2000
   20.4703   34.0679   16.4927 C   0  0  0  0  0  0  0  0  0  0  0  0
   19.4761   33.6603   15.4093 C   0  0  0  0  0  0  0  0  0  0  0  0
   20.1571   33.1554   14.2499 O   0  0  0  0  0  0  0  0  0  0  0  0
   18.5461   34.8142   15.0343 C   0  0  0  0  0  0  0  0  0  0  0  0
   17.5372   34.3272   14.1430 O   0  0  0  0  0  0  0  0  0  0  0  0
   17.9124   35.4400   16.2796 C   0  0  0  0  0  0  0  0  0  0  0  0
   17.1119   36.5731   15.9205 O   0  0  0  0  0  0  0  0  0  0  0  0
   19.0402   35.8442   17.2390 C   0  0  0  0  0  0  0  0  0  0  0  0
   19.7580   34.6636   17.5805 O   0  0  0  0  0  0  0  0  0  0  0  0
   20.7128   33.8545   13.8713 H   0  0  0  0  0  0  0  0  0  0  0  0
   17.0225   33.6339   14.5850 H   0  0  0  0  0  0  0  0  0  0  0  0
   17.6678   37.2355   15.4812 H   0  0  0  0  0  0  0  0  0  0  0  0
   18.5257   36.4613   18.5299 C   0  0  0  0  0  0  0  0  0  0  0  0
   18.2510   37.8479   18.2945 O   0  0  0  0  0  0  0  0  0  0  0  0
   19.0633   38.2945   18.0088 H   0  0  0  0  0  0  0  0  0  0  0  0
   21.1040   32.8878   16.9607 O   0  0  0  0  0  0  0  0  0  0  0  0
   23.0756   34.2689   16.9089 C   0  0  0  0  0  0  0  0  0  0  0  0
   24.4780   34.3662   17.2987 N   0  0  0  0  0  0  0  0  0  0  0  0
   22.3267   33.1636   17.6606 C   0  0  0  0  0  0  0  0  0  0  0  0
   23.1053   31.8568   17.7278 C   0  0  0  0  0  0  0  0  0  0  0  0
   22.3715   30.9234   18.5379 O   0  0  0  0  0  0  0  0  0  0  0  0
   24.5077   32.1385   18.2794 C   0  0  0  0  0  0  0  0  0  0  0  0
   25.2486   33.1242   17.3779 C   0  0  0  0  0  0  0  0  0  0  0  0
   24.5088   34.8034   18.2198 H   0  0  0  0  0  0  0  0  0  0  0  0
   22.2497   31.2926   19.4266 H   0  0  0  0  0  0  0  0  0  0  0  0
   25.1580   30.3591   19.8201 O   0  0  0  0  0  0  0  0  0  0  0  0
   25.3557   30.8812   18.5020 C   0  0  0  0  0  0  0  0  0  0  0  0
   25.7031   29.5656   19.9387 H   0  0  0  0  0  0  0  0  0  0  0  0
 26 27  1  0  0  0
 17 18  1  0  0  0
 17 19  1  0  0  0
 18 23  1  0  0  0
 19 16  1  0  0  0
 19 20  1  0  0  0
 16  1  1  0  0  0
 20 21  1  0  0  0
 20 22  1  0  0  0
 22 23  1  0  0  0
 22 27  1  0  0  0
  1  2  1  0  0  0
  1  9  1  0  0  0
  2  3  1  0  0  0
  2  4  1  0  0  0
  4  5  1  0  0  0
  4  6  1  0  0  0
  6  7  1  0  0  0
  6  8  1  0  0  0
  8 13  1  0  0  0
  8  9  1  0  0  0
 13 14  1  0  0  0
 26 28  1  0  0  0
 18 24  1  0  0  0
 21 25  1  0  0  0
  3 10  1  0  0  0
  5 11  1  0  0  0
  7 12  1  0  0  0
 14 15  1  0  0  0
M  END
> <minimizedAffinity>
-6.57230

$$$$
