5CBM_4ZN_A_704


 20 20  0  0  0  0  0  0  0  0999 V2000
  174.3448   13.9669   85.0862 P   0  0  0  0  0  0  0  0  0  0  0  0
  174.4891   14.4886   86.5636 O   0  0  0  0  0  0  0  0  0  0  0  0
  175.0191   12.6576   85.0018 O   0  0  0  0  0  0  0  0  0  0  0  0
  175.4273   14.6272   86.7674 H   0  0  0  0  0  0  0  0  0  0  0  0
  171.9984   12.9542   85.6838 N   0  0  0  0  0  0  0  0  0  0  0  0
  172.6155   13.6758   84.6079 C   0  0  0  0  0  0  0  0  0  0  0  0
  172.5471   12.1202   85.8926 H   0  0  0  0  0  0  0  0  0  0  0  0
  171.0540   12.6807   85.4121 H   0  0  0  0  0  0  0  0  0  0  0  0
  171.8298   14.9307   84.2610 C   0  0  0  0  0  0  0  0  0  0  0  0
  171.2812   17.2425   84.6461 C   0  0  0  0  0  0  0  0  0  0  0  0
  170.1629   16.0139   82.9210 C   0  0  0  0  0  0  0  0  0  0  0  0
  172.0142   16.1057   84.9695 C   0  0  0  0  0  0  0  0  0  0  0  0
  170.3473   17.1889   83.6214 C   0  0  0  0  0  0  0  0  0  0  0  0
  170.8953   14.8871   83.2423 C   0  0  0  0  0  0  0  0  0  0  0  0
  175.1177   15.0993   83.9292 C   0  0  0  0  0  0  0  0  0  0  0  0
  176.4931   15.4916   84.4228 C   0  0  0  0  0  0  0  0  0  0  0  0
  177.4876   14.8232   83.5214 C   0  0  0  0  0  0  0  0  0  0  0  0
  177.7234   13.5953   83.6367 O   0  0  0  0  0  0  0  0  0  0  0  0
  178.0821   15.5223   82.6670 O   0  0  0  0  0  0  0  0  0  0  0  0
  177.2688   13.0894   84.2813 H   0  0  0  0  0  0  0  0  0  0  0  0
  3  1  2  0  0  0
  2  1  1  0  0  0
 15 16  1  0  0  0
 15  1  1  0  0  0
 16 17  1  0  0  0
  1  6  1  0  0  0
 17 19  2  0  0  0
 17 18  1  0  0  0
  5  6  1  0  0  0
  6  9  1  0  0  0
 12  9  2  0  0  0
 12 10  1  0  0  0
  9 14  1  0  0  0
 10 13  2  0  0  0
 14 11  2  0  0  0
 13 11  1  0  0  0
  5  7  1  0  0  0
  5  8  1  0  0  0
  2  4  1  0  0  0
 18 20  1  0  0  0
M  END
> <minimizedAffinity>
-7.53631

$$$$
5CBM_4ZN_A_704


 20 20  0  0  0  0  0  0  0  0999 V2000
  174.4624   13.9546   85.0457 P   0  0  0  0  0  0  0  0  0  0  0  0
  174.4074   14.4338   86.5434 O   0  0  0  0  0  0  0  0  0  0  0  0
  175.1114   12.6303   85.0188 O   0  0  0  0  0  0  0  0  0  0  0  0
  175.3101   14.5417   86.8817 H   0  0  0  0  0  0  0  0  0  0  0  0
  172.1524   12.7095   85.0918 N   0  0  0  0  0  0  0  0  0  0  0  0
  172.8123   13.7229   84.3193 C   0  0  0  0  0  0  0  0  0  0  0  0
  172.7399   11.8767   85.1326 H   0  0  0  0  0  0  0  0  0  0  0  0
  171.2609   12.4756   84.6549 H   0  0  0  0  0  0  0  0  0  0  0  0
  171.9711   14.9866   84.2310 C   0  0  0  0  0  0  0  0  0  0  0  0
  170.0798   16.1980   83.3656 C   0  0  0  0  0  0  0  0  0  0  0  0
  171.6221   17.2772   84.8464 C   0  0  0  0  0  0  0  0  0  0  0  0
  170.8335   15.0319   83.4433 C   0  0  0  0  0  0  0  0  0  0  0  0
  170.4844   17.3252   84.0663 C   0  0  0  0  0  0  0  0  0  0  0  0
  172.3669   16.1160   84.9243 C   0  0  0  0  0  0  0  0  0  0  0  0
  175.4176   15.0954   84.0433 C   0  0  0  0  0  0  0  0  0  0  0  0
  176.8818   15.0181   84.4169 C   0  0  0  0  0  0  0  0  0  0  0  0
  177.1882   16.2356   85.2366 C   0  0  0  0  0  0  0  0  0  0  0  0
  176.8252   16.3001   86.4370 O   0  0  0  0  0  0  0  0  0  0  0  0
  177.7985   17.1846   84.6898 O   0  0  0  0  0  0  0  0  0  0  0  0
  176.3701   15.5805   86.8281 H   0  0  0  0  0  0  0  0  0  0  0  0
  3  1  2  0  0  0
  2  1  1  0  0  0
 15 16  1  0  0  0
 15  1  1  0  0  0
 16 17  1  0  0  0
  1  6  1  0  0  0
 17 19  2  0  0  0
 17 18  1  0  0  0
  5  6  1  0  0  0
  6  9  1  0  0  0
 12  9  2  0  0  0
 12 10  1  0  0  0
  9 14  1  0  0  0
 10 13  2  0  0  0
 14 11  2  0  0  0
 13 11  1  0  0  0
  5  7  1  0  0  0
  5  8  1  0  0  0
  2  4  1  0  0  0
 18 20  1  0  0  0
M  END
> <minimizedAffinity>
-6.93849

$$$$
5CBM_4ZN_A_704


 20 20  0  0  0  0  0  0  0  0999 V2000
  173.1141   13.9846   84.4968 P   0  0  0  0  0  0  0  0  0  0  0  0
  173.7686   12.6113   84.0949 O   0  0  0  0  0  0  0  0  0  0  0  0
  172.0957   13.7145   85.5292 O   0  0  0  0  0  0  0  0  0  0  0  0
  173.0952   12.0353   83.7003 H   0  0  0  0  0  0  0  0  0  0  0  0
  174.6668   14.5911   86.5239 N   0  0  0  0  0  0  0  0  0  0  0  0
  174.3015   15.1375   85.2483 C   0  0  0  0  0  0  0  0  0  0  0  0
  173.8243   14.4050   87.0680 H   0  0  0  0  0  0  0  0  0  0  0  0
  175.2539   15.2586   87.0241 H   0  0  0  0  0  0  0  0  0  0  0  0
  175.5291   15.4316   84.4005 C   0  0  0  0  0  0  0  0  0  0  0  0
  176.7145   16.8091   82.8223 C   0  0  0  0  0  0  0  0  0  0  0  0
  177.7073   14.7865   83.6344 C   0  0  0  0  0  0  0  0  0  0  0  0
  175.5885   16.5589   83.5991 C   0  0  0  0  0  0  0  0  0  0  0  0
  177.7727   15.9118   82.8379 C   0  0  0  0  0  0  0  0  0  0  0  0
  176.5885   14.5425   84.4078 C   0  0  0  0  0  0  0  0  0  0  0  0
  172.3241   14.7552   83.0824 C   0  0  0  0  0  0  0  0  0  0  0  0
  170.8214   14.6073   83.1792 C   0  0  0  0  0  0  0  0  0  0  0  0
  170.2368   15.9797   83.0272 C   0  0  0  0  0  0  0  0  0  0  0  0
  169.4030   16.2170   82.1188 O   0  0  0  0  0  0  0  0  0  0  0  0
  170.6122   16.8785   83.8166 O   0  0  0  0  0  0  0  0  0  0  0  0
  169.1347   15.5320   81.5385 H   0  0  0  0  0  0  0  0  0  0  0  0
  3  1  2  0  0  0
  2  1  1  0  0  0
 15 16  1  0  0  0
 15  1  1  0  0  0
 16 17  1  0  0  0
  1  6  1  0  0  0
 17 19  2  0  0  0
 17 18  1  0  0  0
  5  6  1  0  0  0
  6  9  1  0  0  0
 12  9  2  0  0  0
 12 10  1  0  0  0
  9 14  1  0  0  0
 10 13  2  0  0  0
 14 11  2  0  0  0
 13 11  1  0  0  0
  5  7  1  0  0  0
  5  8  1  0  0  0
  2  4  1  0  0  0
 18 20  1  0  0  0
M  END
> <minimizedAffinity>
-6.80996

$$$$
5CBM_4ZN_A_704


 20 20  0  0  0  0  0  0  0  0999 V2000
  176.2433   15.5293   84.3731 P   0  0  0  0  0  0  0  0  0  0  0  0
  175.8568   16.3847   83.1103 O   0  0  0  0  0  0  0  0  0  0  0  0
  176.7779   16.4489   85.3951 O   0  0  0  0  0  0  0  0  0  0  0  0
  176.6536   16.7997   82.7447 H   0  0  0  0  0  0  0  0  0  0  0  0
  174.8842   14.9569   86.5441 N   0  0  0  0  0  0  0  0  0  0  0  0
  174.8108   14.7079   85.1328 C   0  0  0  0  0  0  0  0  0  0  0  0
  175.7979   14.6677   86.8933 H   0  0  0  0  0  0  0  0  0  0  0  0
  174.1547   14.4272   87.0212 H   0  0  0  0  0  0  0  0  0  0  0  0
  173.4623   15.1248   84.5670 C   0  0  0  0  0  0  0  0  0  0  0  0
  171.5829   14.7433   83.1124 C   0  0  0  0  0  0  0  0  0  0  0  0
  171.6748   16.7189   84.4632 C   0  0  0  0  0  0  0  0  0  0  0  0
  172.8115   14.3438   83.6273 C   0  0  0  0  0  0  0  0  0  0  0  0
  171.0200   15.9408   83.5299 C   0  0  0  0  0  0  0  0  0  0  0  0
  172.8936   16.3175   84.9755 C   0  0  0  0  0  0  0  0  0  0  0  0
  177.4990   14.3151   83.9637 C   0  0  0  0  0  0  0  0  0  0  0  0
  177.0304   12.9293   84.3499 C   0  0  0  0  0  0  0  0  0  0  0  0
  177.7555   11.9606   83.4643 C   0  0  0  0  0  0  0  0  0  0  0  0
  178.1111   12.3009   82.3090 O   0  0  0  0  0  0  0  0  0  0  0  0
  177.9812   10.8072   83.9010 O   0  0  0  0  0  0  0  0  0  0  0  0
  177.9334   13.1676   82.0004 H   0  0  0  0  0  0  0  0  0  0  0  0
  3  1  2  0  0  0
  2  1  1  0  0  0
 15 16  1  0  0  0
 15  1  1  0  0  0
 16 17  1  0  0  0
  1  6  1  0  0  0
 17 19  2  0  0  0
 17 18  1  0  0  0
  5  6  1  0  0  0
  6  9  1  0  0  0
 12  9  2  0  0  0
 12 10  1  0  0  0
  9 14  1  0  0  0
 10 13  2  0  0  0
 14 11  2  0  0  0
 13 11  1  0  0  0
  5  7  1  0  0  0
  5  8  1  0  0  0
  2  4  1  0  0  0
 18 20  1  0  0  0
M  END
> <minimizedAffinity>
-6.68727

$$$$
5CBM_4ZN_A_704


 20 20  0  0  0  0  0  0  0  0999 V2000
  173.8648   16.6058   84.8743 P   0  0  0  0  0  0  0  0  0  0  0  0
  172.5842   17.0950   85.6467 O   0  0  0  0  0  0  0  0  0  0  0  0
  174.3988   17.7516   84.1140 O   0  0  0  0  0  0  0  0  0  0  0  0
  171.9059   17.3665   85.0087 H   0  0  0  0  0  0  0  0  0  0  0  0
  174.8423   14.7727   86.4782 N   0  0  0  0  0  0  0  0  0  0  0  0
  175.1988   16.0736   85.9884 C   0  0  0  0  0  0  0  0  0  0  0  0
  173.9092   14.8079   86.8887 H   0  0  0  0  0  0  0  0  0  0  0  0
  175.5149   14.4803   87.1871 H   0  0  0  0  0  0  0  0  0  0  0  0
  176.5862   16.0693   85.3659 C   0  0  0  0  0  0  0  0  0  0  0  0
  178.2054   15.1457   83.8433 C   0  0  0  0  0  0  0  0  0  0  0  0
  178.7971   16.9892   85.2531 C   0  0  0  0  0  0  0  0  0  0  0  0
  176.9294   15.1426   84.3964 C   0  0  0  0  0  0  0  0  0  0  0  0
  179.1420   16.0703   84.2825 C   0  0  0  0  0  0  0  0  0  0  0  0
  177.5275   16.9858   85.7981 C   0  0  0  0  0  0  0  0  0  0  0  0
  173.4573   15.2839   83.7321 C   0  0  0  0  0  0  0  0  0  0  0  0
  172.1645   14.6159   84.1467 C   0  0  0  0  0  0  0  0  0  0  0  0
  172.5362   13.3520   84.8628 C   0  0  0  0  0  0  0  0  0  0  0  0
  171.7961   12.8947   85.7683 O   0  0  0  0  0  0  0  0  0  0  0  0
  173.6047   12.7784   84.5444 O   0  0  0  0  0  0  0  0  0  0  0  0
  171.0013   13.3377   85.9920 H   0  0  0  0  0  0  0  0  0  0  0  0
  3  1  2  0  0  0
  2  1  1  0  0  0
 15 16  1  0  0  0
 15  1  1  0  0  0
 16 17  1  0  0  0
  1  6  1  0  0  0
 17 19  2  0  0  0
 17 18  1  0  0  0
  5  6  1  0  0  0
  6  9  1  0  0  0
 12  9  2  0  0  0
 12 10  1  0  0  0
  9 14  1  0  0  0
 10 13  2  0  0  0
 14 11  2  0  0  0
 13 11  1  0  0  0
  5  7  1  0  0  0
  5  8  1  0  0  0
  2  4  1  0  0  0
 18 20  1  0  0  0
M  END
> <minimizedAffinity>
-6.55975

$$$$
5CBM_4ZN_A_704


 20 20  0  0  0  0  0  0  0  0999 V2000
  174.7277   13.9472   85.1027 P   0  0  0  0  0  0  0  0  0  0  0  0
  174.6175   14.6453   86.5085 O   0  0  0  0  0  0  0  0  0  0  0  0
  174.8565   12.4952   85.3284 O   0  0  0  0  0  0  0  0  0  0  0  0
  175.4354   14.4966   87.0083 H   0  0  0  0  0  0  0  0  0  0  0  0
  172.3912   13.0362   84.3289 N   0  0  0  0  0  0  0  0  0  0  0  0
  173.2368   14.1700   84.0870 C   0  0  0  0  0  0  0  0  0  0  0  0
  172.9170   12.1782   84.1625 H   0  0  0  0  0  0  0  0  0  0  0  0
  171.5886   13.0704   83.7003 H   0  0  0  0  0  0  0  0  0  0  0  0
  172.4932   15.4752   84.3232 C   0  0  0  0  0  0  0  0  0  0  0  0
  172.4228   17.7372   85.1428 C   0  0  0  0  0  0  0  0  0  0  0  0
  170.4671   16.7483   84.1767 C   0  0  0  0  0  0  0  0  0  0  0  0
  173.1192   16.5533   84.9252 C   0  0  0  0  0  0  0  0  0  0  0  0
  171.0888   17.8273   84.7719 C   0  0  0  0  0  0  0  0  0  0  0  0
  171.1627   15.5745   83.9586 C   0  0  0  0  0  0  0  0  0  0  0  0
  176.1698   14.5312   84.2095 C   0  0  0  0  0  0  0  0  0  0  0  0
  176.6697   15.8249   84.8143 C   0  0  0  0  0  0  0  0  0  0  0  0
  178.1655   15.7340   84.8646 C   0  0  0  0  0  0  0  0  0  0  0  0
  178.7816   15.9946   85.9273 O   0  0  0  0  0  0  0  0  0  0  0  0
  178.7786   15.4078   83.8207 O   0  0  0  0  0  0  0  0  0  0  0  0
  178.3058   16.2365   86.6974 H   0  0  0  0  0  0  0  0  0  0  0  0
  3  1  2  0  0  0
  2  1  1  0  0  0
 15 16  1  0  0  0
 15  1  1  0  0  0
 16 17  1  0  0  0
  1  6  1  0  0  0
 17 19  2  0  0  0
 17 18  1  0  0  0
  5  6  1  0  0  0
  6  9  1  0  0  0
 12  9  2  0  0  0
 12 10  1  0  0  0
  9 14  1  0  0  0
 10 13  2  0  0  0
 14 11  2  0  0  0
 13 11  1  0  0  0
  5  7  1  0  0  0
  5  8  1  0  0  0
  2  4  1  0  0  0
 18 20  1  0  0  0
M  END
> <minimizedAffinity>
-6.43295

$$$$
5CBM_4ZN_A_704


 20 20  0  0  0  0  0  0  0  0999 V2000
  175.9467   15.6308   84.2986 P   0  0  0  0  0  0  0  0  0  0  0  0
  177.0288   14.7275   83.5994 O   0  0  0  0  0  0  0  0  0  0  0  0
  175.4052   16.5542   83.2837 O   0  0  0  0  0  0  0  0  0  0  0  0
  177.7602   15.2825   83.2866 H   0  0  0  0  0  0  0  0  0  0  0  0
  174.5889   14.7261   86.3543 N   0  0  0  0  0  0  0  0  0  0  0  0
  174.5297   14.6779   84.9214 C   0  0  0  0  0  0  0  0  0  0  0  0
  175.5072   14.4112   86.6675 H   0  0  0  0  0  0  0  0  0  0  0  0
  173.8694   14.1178   86.7451 H   0  0  0  0  0  0  0  0  0  0  0  0
  173.1750   15.1400   84.4079 C   0  0  0  0  0  0  0  0  0  0  0  0
  171.2889   16.6327   84.4984 C   0  0  0  0  0  0  0  0  0  0  0  0
  171.3273   14.8406   82.9100 C   0  0  0  0  0  0  0  0  0  0  0  0
  172.5319   16.2279   84.9731 C   0  0  0  0  0  0  0  0  0  0  0  0
  170.6849   15.9278   83.4672 C   0  0  0  0  0  0  0  0  0  0  0  0
  172.5638   14.4431   83.3814 C   0  0  0  0  0  0  0  0  0  0  0  0
  176.6747   16.5865   85.6309 C   0  0  0  0  0  0  0  0  0  0  0  0
  176.3955   18.0598   85.4292 C   0  0  0  0  0  0  0  0  0  0  0  0
  175.1268   18.3688   86.1663 C   0  0  0  0  0  0  0  0  0  0  0  0
  174.8107   17.7112   87.1882 O   0  0  0  0  0  0  0  0  0  0  0  0
  174.3904   19.2841   85.7283 O   0  0  0  0  0  0  0  0  0  0  0  0
  175.3742   17.0307   87.5004 H   0  0  0  0  0  0  0  0  0  0  0  0
  3  1  2  0  0  0
  2  1  1  0  0  0
 15 16  1  0  0  0
 15  1  1  0  0  0
 16 17  1  0  0  0
  1  6  1  0  0  0
 17 19  2  0  0  0
 17 18  1  0  0  0
  5  6  1  0  0  0
  6  9  1  0  0  0
 12  9  2  0  0  0
 12 10  1  0  0  0
  9 14  1  0  0  0
 10 13  2  0  0  0
 14 11  2  0  0  0
 13 11  1  0  0  0
  5  7  1  0  0  0
  5  8  1  0  0  0
  2  4  1  0  0  0
 18 20  1  0  0  0
M  END
> <minimizedAffinity>
-6.35003

$$$$
5CBM_4ZN_A_704


 20 20  0  0  0  0  0  0  0  0999 V2000
  172.7934   13.9355   84.9322 P   0  0  0  0  0  0  0  0  0  0  0  0
  172.4555   12.4694   84.4715 O   0  0  0  0  0  0  0  0  0  0  0  0
  171.8396   14.3062   85.9945 O   0  0  0  0  0  0  0  0  0  0  0  0
  171.5649   12.4483   84.0877 H   0  0  0  0  0  0  0  0  0  0  0  0
  175.0436   12.7731   85.6206 N   0  0  0  0  0  0  0  0  0  0  0  0
  174.4493   14.0784   85.6682 C   0  0  0  0  0  0  0  0  0  0  0  0
  174.4187   12.0987   86.0623 H   0  0  0  0  0  0  0  0  0  0  0  0
  175.9345   12.7869   86.1171 H   0  0  0  0  0  0  0  0  0  0  0  0
  175.3481   15.1194   85.0194 C   0  0  0  0  0  0  0  0  0  0  0  0
  177.1680   15.7106   83.5594 C   0  0  0  0  0  0  0  0  0  0  0  0
  175.9977   17.4136   84.7702 C   0  0  0  0  0  0  0  0  0  0  0  0
  176.3482   14.7473   84.1374 C   0  0  0  0  0  0  0  0  0  0  0  0
  176.9927   17.0475   83.8864 C   0  0  0  0  0  0  0  0  0  0  0  0
  175.1824   16.4545   85.3401 C   0  0  0  0  0  0  0  0  0  0  0  0
  172.6283   15.0891   83.5682 C   0  0  0  0  0  0  0  0  0  0  0  0
  171.1825   15.1763   83.1307 C   0  0  0  0  0  0  0  0  0  0  0  0
  170.6193   16.4294   83.7315 C   0  0  0  0  0  0  0  0  0  0  0  0
  171.3810   17.2817   84.2512 O   0  0  0  0  0  0  0  0  0  0  0  0
  169.3764   16.5931   83.7132 O   0  0  0  0  0  0  0  0  0  0  0  0
  172.3075   17.1416   84.2551 H   0  0  0  0  0  0  0  0  0  0  0  0
  3  1  2  0  0  0
  2  1  1  0  0  0
 15 16  1  0  0  0
 15  1  1  0  0  0
 16 17  1  0  0  0
  1  6  1  0  0  0
 17 19  2  0  0  0
 17 18  1  0  0  0
  5  6  1  0  0  0
  6  9  1  0  0  0
 12  9  2  0  0  0
 12 10  1  0  0  0
  9 14  1  0  0  0
 10 13  2  0  0  0
 14 11  2  0  0  0
 13 11  1  0  0  0
  5  7  1  0  0  0
  5  8  1  0  0  0
  2  4  1  0  0  0
 18 20  1  0  0  0
M  END
> <minimizedAffinity>
-6.34441

$$$$
5CBM_4ZN_A_704


 20 20  0  0  0  0  0  0  0  0999 V2000
  174.8205   14.9538   85.0580 P   0  0  0  0  0  0  0  0  0  0  0  0
  175.8906   13.9126   84.5613 O   0  0  0  0  0  0  0  0  0  0  0  0
  174.3939   14.5520   86.4117 O   0  0  0  0  0  0  0  0  0  0  0  0
  175.4812   13.0359   84.4927 H   0  0  0  0  0  0  0  0  0  0  0  0
  175.1903   17.0827   86.5476 N   0  0  0  0  0  0  0  0  0  0  0  0
  175.4945   16.6341   85.2190 C   0  0  0  0  0  0  0  0  0  0  0  0
  174.1890   16.9884   86.7174 H   0  0  0  0  0  0  0  0  0  0  0  0
  175.4613   18.0610   86.6466 H   0  0  0  0  0  0  0  0  0  0  0  0
  176.9805   16.7567   84.9204 C   0  0  0  0  0  0  0  0  0  0  0  0
  178.8025   16.9645   83.3614 C   0  0  0  0  0  0  0  0  0  0  0  0
  179.2424   16.8285   85.7117 C   0  0  0  0  0  0  0  0  0  0  0  0
  177.4396   16.8625   83.6187 C   0  0  0  0  0  0  0  0  0  0  0  0
  179.7042   16.9393   84.4157 C   0  0  0  0  0  0  0  0  0  0  0  0
  177.8875   16.7309   85.9643 C   0  0  0  0  0  0  0  0  0  0  0  0
  173.3911   14.9689   83.9739 C   0  0  0  0  0  0  0  0  0  0  0  0
  172.1204   15.0817   84.7875 C   0  0  0  0  0  0  0  0  0  0  0  0
  171.5187   13.7096   84.8500 C   0  0  0  0  0  0  0  0  0  0  0  0
  171.9097   12.8840   85.7115 O   0  0  0  0  0  0  0  0  0  0  0  0
  170.6327   13.4085   84.0155 O   0  0  0  0  0  0  0  0  0  0  0  0
  172.5730   13.1277   86.3269 H   0  0  0  0  0  0  0  0  0  0  0  0
  3  1  2  0  0  0
  2  1  1  0  0  0
 15 16  1  0  0  0
 15  1  1  0  0  0
 16 17  1  0  0  0
  1  6  1  0  0  0
 17 19  2  0  0  0
 17 18  1  0  0  0
  5  6  1  0  0  0
  6  9  1  0  0  0
 12  9  2  0  0  0
 12 10  1  0  0  0
  9 14  1  0  0  0
 10 13  2  0  0  0
 14 11  2  0  0  0
 13 11  1  0  0  0
  5  7  1  0  0  0
  5  8  1  0  0  0
  2  4  1  0  0  0
 18 20  1  0  0  0
M  END
> <minimizedAffinity>
-6.27956

$$$$
5CBM_4ZN_A_704


 20 20  0  0  0  0  0  0  0  0999 V2000
  175.8788   15.7668   84.5628 P   0  0  0  0  0  0  0  0  0  0  0  0
  175.5573   16.7595   83.3851 O   0  0  0  0  0  0  0  0  0  0  0  0
  176.1197   16.5693   85.7769 O   0  0  0  0  0  0  0  0  0  0  0  0
  176.3290   17.3227   83.2172 H   0  0  0  0  0  0  0  0  0  0  0  0
  174.4677   14.5041   86.3801 N   0  0  0  0  0  0  0  0  0  0  0  0
  174.4876   14.6644   84.9543 C   0  0  0  0  0  0  0  0  0  0  0  0
  175.3846   14.1918   86.7000 H   0  0  0  0  0  0  0  0  0  0  0  0
  173.7645   13.8104   86.6345 H   0  0  0  0  0  0  0  0  0  0  0  0
  173.1379   15.1301   84.4312 C   0  0  0  0  0  0  0  0  0  0  0  0
  171.2998   16.6841   84.4432 C   0  0  0  0  0  0  0  0  0  0  0  0
  171.2536   14.7802   82.9909 C   0  0  0  0  0  0  0  0  0  0  0  0
  172.5388   16.2762   84.9253 C   0  0  0  0  0  0  0  0  0  0  0  0
  170.6551   15.9250   83.4772 C   0  0  0  0  0  0  0  0  0  0  0  0
  172.4864   14.3795   83.4694 C   0  0  0  0  0  0  0  0  0  0  0  0
  177.3446   14.7978   84.2010 C   0  0  0  0  0  0  0  0  0  0  0  0
  178.5866   15.5555   84.6165 C   0  0  0  0  0  0  0  0  0  0  0  0
  178.9177   16.4979   83.4982 C   0  0  0  0  0  0  0  0  0  0  0  0
  178.8961   16.1015   82.3070 O   0  0  0  0  0  0  0  0  0  0  0  0
  179.2283   17.6783   83.7854 O   0  0  0  0  0  0  0  0  0  0  0  0
  178.6614   15.2155   82.1123 H   0  0  0  0  0  0  0  0  0  0  0  0
  3  1  2  0  0  0
  2  1  1  0  0  0
 15 16  1  0  0  0
 15  1  1  0  0  0
 16 17  1  0  0  0
  1  6  1  0  0  0
 17 19  2  0  0  0
 17 18  1  0  0  0
  5  6  1  0  0  0
  6  9  1  0  0  0
 12  9  2  0  0  0
 12 10  1  0  0  0
  9 14  1  0  0  0
 10 13  2  0  0  0
 14 11  2  0  0  0
 13 11  1  0  0  0
  5  7  1  0  0  0
  5  8  1  0  0  0
  2  4  1  0  0  0
 18 20  1  0  0  0
M  END
> <minimizedAffinity>
-6.23657

$$$$
