3DJQ_UDP_A_125


 31 32  0  0  0  0  0  0  0  0999 V2000
   30.8264   38.9146    7.2477 C   0  0  0  0  0  0  0  0  0  0  0  0
   29.5654   38.1914    6.7842 C   0  0  0  0  0  0  0  0  0  0  0  0
   29.9275   37.0499    6.0295 O   0  0  0  0  0  0  0  0  0  0  0  0
   28.8130   39.2082    5.9413 C   0  0  0  0  0  0  0  0  0  0  0  0
   29.8061   40.3298    5.6831 C   0  0  0  0  0  0  0  0  0  0  0  0
   30.8745   40.1729    6.6026 O   0  0  0  0  0  0  0  0  0  0  0  0
   28.3804   38.6651    4.7155 O   0  0  0  0  0  0  0  0  0  0  0  0
   30.4815   37.3199    5.2804 H   0  0  0  0  0  0  0  0  0  0  0  0
   29.1475   38.3480    4.2136 H   0  0  0  0  0  0  0  0  0  0  0  0
   30.8999   39.0978    8.7217 N   0  0  0  0  0  0  0  0  0  0  0  0
   31.8181   38.3690    9.4616 C   0  0  0  0  0  0  0  0  0  0  0  0
   31.9067   38.5409   10.8322 N   0  0  0  0  0  0  0  0  0  0  0  0
   31.0893   39.4365   11.4888 C   0  0  0  0  0  0  0  0  0  0  0  0
   30.1707   40.1810   10.7492 C   0  0  0  0  0  0  0  0  0  0  0  0
   30.1339   40.0448    9.3597 C   0  0  0  0  0  0  0  0  0  0  0  0
   32.5492   37.5562    8.9070 O   0  0  0  0  0  0  0  0  0  0  0  0
   31.1896   39.5689   12.7115 O   0  0  0  0  0  0  0  0  0  0  0  0
   32.5627   38.0162   11.3456 H   0  0  0  0  0  0  0  0  0  0  0  0
   29.1468   41.7061    5.7905 C   0  0  0  0  0  0  0  0  0  0  0  0
   29.5570   42.5872    4.7640 O   0  0  0  0  0  0  0  0  0  0  0  0
   28.8288   42.5876    3.3209 P   0  0  0  0  0  0  0  0  0  0  0  0
   29.2634   43.7535    2.5165 O   0  0  0  0  0  0  0  0  0  0  0  0
   27.3506   42.6025    3.4582 O   0  0  0  0  0  0  0  0  0  0  0  0
   27.0754   43.4196    3.9027 H   0  0  0  0  0  0  0  0  0  0  0  0
   29.3562   41.2544    2.5887 O   0  0  0  0  0  0  0  0  0  0  0  0
   28.4539   40.4128    1.5517 P   0  0  0  0  0  0  0  0  0  0  0  0
   27.9899   41.3301    0.4838 O   0  0  0  0  0  0  0  0  0  0  0  0
   27.2888   39.8713    2.2893 O   0  0  0  0  0  0  0  0  0  0  0  0
   29.2326   39.3059    0.9519 O   0  0  0  0  0  0  0  0  0  0  0  0
   26.7844   40.6026    2.6788 H   0  0  0  0  0  0  0  0  0  0  0  0
   29.9930   39.6689    0.4713 H   0  0  0  0  0  0  0  0  0  0  0  0
 10 11  1  0  0  0
 10 15  1  0  0  0
 10  1  1  0  0  0
 11 12  1  0  0  0
 11 16  2  0  0  0
 12 13  1  0  0  0
 13 14  1  0  0  0
 13 17  2  0  0  0
 14 15  2  0  0  0
  1  2  1  0  0  0
  1  6  1  0  0  0
  2  3  1  0  0  0
  2  4  1  0  0  0
  4  5  1  0  0  0
  4  7  1  0  0  0
  5  6  1  0  0  0
  5 19  1  0  0  0
 19 20  1  0  0  0
 20 21  1  0  0  0
 21 22  2  0  0  0
 21 23  1  0  0  0
 21 25  1  0  0  0
 25 26  1  0  0  0
 26 27  2  0  0  0
 26 28  1  0  0  0
 26 29  1  0  0  0
 12 18  1  0  0  0
  3  8  1  0  0  0
  7  9  1  0  0  0
 23 24  1  0  0  0
 28 30  1  0  0  0
 29 31  1  0  0  0
M  END
> <minimizedAffinity>
-8.02332

$$$$
3DJQ_UDP_A_125


 31 32  0  0  0  0  0  0  0  0999 V2000
   30.8016   40.2344    6.9341 C   0  0  0  0  0  0  0  0  0  0  0  0
   29.4814   39.4702    6.9047 C   0  0  0  0  0  0  0  0  0  0  0  0
   29.7281   38.0946    7.1294 O   0  0  0  0  0  0  0  0  0  0  0  0
   28.9098   39.7206    5.5185 C   0  0  0  0  0  0  0  0  0  0  0  0
   30.0519   40.3220    4.7156 C   0  0  0  0  0  0  0  0  0  0  0  0
   31.0446   40.7435    5.6366 O   0  0  0  0  0  0  0  0  0  0  0  0
   28.4705   38.5320    4.9031 O   0  0  0  0  0  0  0  0  0  0  0  0
   30.3485   37.7640    6.4610 H   0  0  0  0  0  0  0  0  0  0  0  0
   29.2134   37.9127    4.8288 H   0  0  0  0  0  0  0  0  0  0  0  0
   30.8263   41.3423    7.9259 N   0  0  0  0  0  0  0  0  0  0  0  0
   31.6240   41.2388    9.0548 C   0  0  0  0  0  0  0  0  0  0  0  0
   31.6673   42.2690    9.9782 N   0  0  0  0  0  0  0  0  0  0  0  0
   30.9231   43.4155    9.7967 C   0  0  0  0  0  0  0  0  0  0  0  0
   30.1265   43.5310    8.6577 C   0  0  0  0  0  0  0  0  0  0  0  0
   30.1395   42.5123    7.7024 C   0  0  0  0  0  0  0  0  0  0  0  0
   32.2869   40.2260    9.2494 O   0  0  0  0  0  0  0  0  0  0  0  0
   30.9804   44.3178   10.6364 O   0  0  0  0  0  0  0  0  0  0  0  0
   32.2375   42.1819   10.7760 H   0  0  0  0  0  0  0  0  0  0  0  0
   29.5731   41.4638    3.8169 C   0  0  0  0  0  0  0  0  0  0  0  0
   29.7674   41.1930    2.4433 O   0  0  0  0  0  0  0  0  0  0  0  0
   28.6604   40.3870    1.5843 P   0  0  0  0  0  0  0  0  0  0  0  0
   27.4998   40.0288    2.4328 O   0  0  0  0  0  0  0  0  0  0  0  0
   29.2316   39.1572    0.9797 O   0  0  0  0  0  0  0  0  0  0  0  0
   29.5218   38.5558    1.6832 H   0  0  0  0  0  0  0  0  0  0  0  0
   28.1567   41.4332    0.4692 O   0  0  0  0  0  0  0  0  0  0  0  0
   28.7443   42.9290    0.3469 P   0  0  0  0  0  0  0  0  0  0  0  0
   28.1947   43.5485   -0.8825 O   0  0  0  0  0  0  0  0  0  0  0  0
   30.2196   42.8374    0.2462 O   0  0  0  0  0  0  0  0  0  0  0  0
   28.3667   43.7425    1.5246 O   0  0  0  0  0  0  0  0  0  0  0  0
   30.4583   42.3031   -0.5274 H   0  0  0  0  0  0  0  0  0  0  0  0
   27.4000   43.7974    1.5830 H   0  0  0  0  0  0  0  0  0  0  0  0
 10 11  1  0  0  0
 10 15  1  0  0  0
 10  1  1  0  0  0
 11 12  1  0  0  0
 11 16  2  0  0  0
 12 13  1  0  0  0
 13 14  1  0  0  0
 13 17  2  0  0  0
 14 15  2  0  0  0
  1  2  1  0  0  0
  1  6  1  0  0  0
  2  3  1  0  0  0
  2  4  1  0  0  0
  4  5  1  0  0  0
  4  7  1  0  0  0
  5  6  1  0  0  0
  5 19  1  0  0  0
 19 20  1  0  0  0
 20 21  1  0  0  0
 21 22  2  0  0  0
 21 23  1  0  0  0
 21 25  1  0  0  0
 25 26  1  0  0  0
 26 27  2  0  0  0
 26 28  1  0  0  0
 26 29  1  0  0  0
 12 18  1  0  0  0
  3  8  1  0  0  0
  7  9  1  0  0  0
 23 24  1  0  0  0
 28 30  1  0  0  0
 29 31  1  0  0  0
M  END
> <minimizedAffinity>
-7.69406

$$$$
3DJQ_UDP_A_125


 31 32  0  0  0  0  0  0  0  0999 V2000
   30.5124   39.7825    7.9143 C   0  0  0  0  0  0  0  0  0  0  0  0
   29.2755   39.0271    7.4374 C   0  0  0  0  0  0  0  0  0  0  0  0
   29.5262   37.6348    7.4852 O   0  0  0  0  0  0  0  0  0  0  0  0
   29.0417   39.5086    6.0146 C   0  0  0  0  0  0  0  0  0  0  0  0
   30.3130   40.2455    5.6257 C   0  0  0  0  0  0  0  0  0  0  0  0
   31.0349   40.5083    6.8180 O   0  0  0  0  0  0  0  0  0  0  0  0
   28.8196   38.4409    5.1229 O   0  0  0  0  0  0  0  0  0  0  0  0
   30.3037   37.4275    6.9434 H   0  0  0  0  0  0  0  0  0  0  0  0
   29.5872   37.8479    5.1311 H   0  0  0  0  0  0  0  0  0  0  0  0
   30.2459   40.7036    9.0511 N   0  0  0  0  0  0  0  0  0  0  0  0
   31.2437   40.9600    9.9785 C   0  0  0  0  0  0  0  0  0  0  0  0
   31.0133   41.8268   11.0328 N   0  0  0  0  0  0  0  0  0  0  0  0
   29.7937   42.4521   11.1831 C   0  0  0  0  0  0  0  0  0  0  0  0
   28.7887   42.2071   10.2476 C   0  0  0  0  0  0  0  0  0  0  0  0
   29.0533   41.3801    9.1537 C   0  0  0  0  0  0  0  0  0  0  0  0
   32.3340   40.4088    9.8779 O   0  0  0  0  0  0  0  0  0  0  0  0
   29.6159   43.2195   12.1329 O   0  0  0  0  0  0  0  0  0  0  0  0
   31.7306   41.9992   11.6848 H   0  0  0  0  0  0  0  0  0  0  0  0
   30.0099   41.5220    4.8387 C   0  0  0  0  0  0  0  0  0  0  0  0
   28.7337   41.4964    4.2314 O   0  0  0  0  0  0  0  0  0  0  0  0
   28.1878   42.7557    3.3776 P   0  0  0  0  0  0  0  0  0  0  0  0
   29.1389   43.8893    3.4521 O   0  0  0  0  0  0  0  0  0  0  0  0
   26.8521   43.1963    3.8528 O   0  0  0  0  0  0  0  0  0  0  0  0
   26.9195   43.4987    4.7720 H   0  0  0  0  0  0  0  0  0  0  0  0
   28.1490   42.2390    1.8533 O   0  0  0  0  0  0  0  0  0  0  0  0
   28.3682   40.6942    1.4493 P   0  0  0  0  0  0  0  0  0  0  0  0
   27.8393   40.4893    0.0798 O   0  0  0  0  0  0  0  0  0  0  0  0
   27.6133   39.8556    2.4094 O   0  0  0  0  0  0  0  0  0  0  0  0
   29.8044   40.3377    1.4856 O   0  0  0  0  0  0  0  0  0  0  0  0
   26.6739   40.0955    2.3793 H   0  0  0  0  0  0  0  0  0  0  0  0
   30.2909   40.8910    0.8546 H   0  0  0  0  0  0  0  0  0  0  0  0
 10 11  1  0  0  0
 10 15  1  0  0  0
 10  1  1  0  0  0
 11 12  1  0  0  0
 11 16  2  0  0  0
 12 13  1  0  0  0
 13 14  1  0  0  0
 13 17  2  0  0  0
 14 15  2  0  0  0
  1  2  1  0  0  0
  1  6  1  0  0  0
  2  3  1  0  0  0
  2  4  1  0  0  0
  4  5  1  0  0  0
  4  7  1  0  0  0
  5  6  1  0  0  0
  5 19  1  0  0  0
 19 20  1  0  0  0
 20 21  1  0  0  0
 21 22  2  0  0  0
 21 23  1  0  0  0
 21 25  1  0  0  0
 25 26  1  0  0  0
 26 27  2  0  0  0
 26 28  1  0  0  0
 26 29  1  0  0  0
 12 18  1  0  0  0
  3  8  1  0  0  0
  7  9  1  0  0  0
 23 24  1  0  0  0
 28 30  1  0  0  0
 29 31  1  0  0  0
M  END
> <minimizedAffinity>
-7.30186

$$$$
3DJQ_UDP_A_125


 31 32  0  0  0  0  0  0  0  0999 V2000
   29.2974   40.8342    7.6594 C   0  0  0  0  0  0  0  0  0  0  0  0
   29.9532   42.1266    7.1821 C   0  0  0  0  0  0  0  0  0  0  0  0
   29.1778   43.2326    7.6057 O   0  0  0  0  0  0  0  0  0  0  0  0
   29.9929   42.0142    5.6667 C   0  0  0  0  0  0  0  0  0  0  0  0
   29.0794   40.8479    5.3262 C   0  0  0  0  0  0  0  0  0  0  0  0
   28.8565   40.1181    6.5217 O   0  0  0  0  0  0  0  0  0  0  0  0
   29.5258   43.1837    5.0355 O   0  0  0  0  0  0  0  0  0  0  0  0
   28.2737   43.1428    7.2658 H   0  0  0  0  0  0  0  0  0  0  0  0
   28.6129   43.3584    5.3131 H   0  0  0  0  0  0  0  0  0  0  0  0
   30.1955   39.9787    8.4799 N   0  0  0  0  0  0  0  0  0  0  0  0
   30.3208   40.2168    9.8398 C   0  0  0  0  0  0  0  0  0  0  0  0
   31.1419   39.4187   10.6173 N   0  0  0  0  0  0  0  0  0  0  0  0
   31.8490   38.3740   10.0605 C   0  0  0  0  0  0  0  0  0  0  0  0
   31.7194   38.1220    8.6949 C   0  0  0  0  0  0  0  0  0  0  0  0
   30.8399   38.8942    7.9329 C   0  0  0  0  0  0  0  0  0  0  0  0
   29.7143   41.1463   10.3604 O   0  0  0  0  0  0  0  0  0  0  0  0
   32.5741   37.6791   10.7774 O   0  0  0  0  0  0  0  0  0  0  0  0
   31.2223   39.5994   11.5818 H   0  0  0  0  0  0  0  0  0  0  0  0
   29.6657   39.9747    4.2152 C   0  0  0  0  0  0  0  0  0  0  0  0
   29.7381   40.6486    2.9747 O   0  0  0  0  0  0  0  0  0  0  0  0
   28.7119   40.3045    1.7741 P   0  0  0  0  0  0  0  0  0  0  0  0
   27.3631   40.0051    2.3092 O   0  0  0  0  0  0  0  0  0  0  0  0
   29.1901   39.1568    0.9628 O   0  0  0  0  0  0  0  0  0  0  0  0
   29.2345   38.3636    1.5194 H   0  0  0  0  0  0  0  0  0  0  0  0
   28.6141   41.6591    0.9097 O   0  0  0  0  0  0  0  0  0  0  0  0
   28.6245   43.1250    1.5797 P   0  0  0  0  0  0  0  0  0  0  0  0
   28.1412   44.1020    0.5751 O   0  0  0  0  0  0  0  0  0  0  0  0
   30.0192   43.4466    1.9619 O   0  0  0  0  0  0  0  0  0  0  0  0
   27.7500   43.1661    2.7733 O   0  0  0  0  0  0  0  0  0  0  0  0
   30.5852   43.4175    1.1746 H   0  0  0  0  0  0  0  0  0  0  0  0
   26.8394   42.9545    2.5144 H   0  0  0  0  0  0  0  0  0  0  0  0
 10 11  1  0  0  0
 10 15  1  0  0  0
 10  1  1  0  0  0
 11 12  1  0  0  0
 11 16  2  0  0  0
 12 13  1  0  0  0
 13 14  1  0  0  0
 13 17  2  0  0  0
 14 15  2  0  0  0
  1  2  1  0  0  0
  1  6  1  0  0  0
  2  3  1  0  0  0
  2  4  1  0  0  0
  4  5  1  0  0  0
  4  7  1  0  0  0
  5  6  1  0  0  0
  5 19  1  0  0  0
 19 20  1  0  0  0
 20 21  1  0  0  0
 21 22  2  0  0  0
 21 23  1  0  0  0
 21 25  1  0  0  0
 25 26  1  0  0  0
 26 27  2  0  0  0
 26 28  1  0  0  0
 26 29  1  0  0  0
 12 18  1  0  0  0
  3  8  1  0  0  0
  7  9  1  0  0  0
 23 24  1  0  0  0
 28 30  1  0  0  0
 29 31  1  0  0  0
M  END
> <minimizedAffinity>
-7.29079

$$$$
3DJQ_UDP_A_125


 31 32  0  0  0  0  0  0  0  0999 V2000
   30.8948   41.8191    7.0721 C   0  0  0  0  0  0  0  0  0  0  0  0
   30.8262   40.5007    7.8370 C   0  0  0  0  0  0  0  0  0  0  0  0
   32.0824   40.2362    8.4334 O   0  0  0  0  0  0  0  0  0  0  0  0
   30.4674   39.4555    6.7932 C   0  0  0  0  0  0  0  0  0  0  0  0
   30.6707   40.1410    5.4517 C   0  0  0  0  0  0  0  0  0  0  0  0
   30.7478   41.5364    5.6936 O   0  0  0  0  0  0  0  0  0  0  0  0
   31.2939   38.3177    6.8756 O   0  0  0  0  0  0  0  0  0  0  0  0
   32.7683   40.2174    7.7478 H   0  0  0  0  0  0  0  0  0  0  0  0
   32.2192   38.5806    6.7508 H   0  0  0  0  0  0  0  0  0  0  0  0
   29.8698   42.8087    7.4985 N   0  0  0  0  0  0  0  0  0  0  0  0
   30.1280   44.1650    7.3743 C   0  0  0  0  0  0  0  0  0  0  0  0
   29.1768   45.0961    7.7537 N   0  0  0  0  0  0  0  0  0  0  0  0
   27.9574   44.6982    8.2599 C   0  0  0  0  0  0  0  0  0  0  0  0
   27.6867   43.3351    8.3775 C   0  0  0  0  0  0  0  0  0  0  0  0
   28.6292   42.4053    7.9330 C   0  0  0  0  0  0  0  0  0  0  0  0
   31.2081   44.5487    6.9395 O   0  0  0  0  0  0  0  0  0  0  0  0
   27.1284   45.5502    8.5908 O   0  0  0  0  0  0  0  0  0  0  0  0
   29.3736   46.0563    7.6609 H   0  0  0  0  0  0  0  0  0  0  0  0
   29.5616   39.7854    4.4598 C   0  0  0  0  0  0  0  0  0  0  0  0
   29.0813   40.9120    3.7540 O   0  0  0  0  0  0  0  0  0  0  0  0
   28.7085   40.8196    2.1839 P   0  0  0  0  0  0  0  0  0  0  0  0
   27.5381   39.9353    1.9758 O   0  0  0  0  0  0  0  0  0  0  0  0
   29.8548   40.3228    1.3817 O   0  0  0  0  0  0  0  0  0  0  0  0
   30.0794   39.4218    1.6622 H   0  0  0  0  0  0  0  0  0  0  0  0
   28.2813   42.3153    1.7692 O   0  0  0  0  0  0  0  0  0  0  0  0
   28.5908   42.9405    0.3162 P   0  0  0  0  0  0  0  0  0  0  0  0
   27.7613   42.2294   -0.6855 O   0  0  0  0  0  0  0  0  0  0  0  0
   30.0269   42.7284    0.0201 O   0  0  0  0  0  0  0  0  0  0  0  0
   28.2756   44.3865    0.2857 O   0  0  0  0  0  0  0  0  0  0  0  0
   30.2248   41.7791    0.0422 H   0  0  0  0  0  0  0  0  0  0  0  0
   27.3343   44.5164    0.4804 H   0  0  0  0  0  0  0  0  0  0  0  0
 10 11  1  0  0  0
 10 15  1  0  0  0
 10  1  1  0  0  0
 11 12  1  0  0  0
 11 16  2  0  0  0
 12 13  1  0  0  0
 13 14  1  0  0  0
 13 17  2  0  0  0
 14 15  2  0  0  0
  1  2  1  0  0  0
  1  6  1  0  0  0
  2  3  1  0  0  0
  2  4  1  0  0  0
  4  5  1  0  0  0
  4  7  1  0  0  0
  5  6  1  0  0  0
  5 19  1  0  0  0
 19 20  1  0  0  0
 20 21  1  0  0  0
 21 22  2  0  0  0
 21 23  1  0  0  0
 21 25  1  0  0  0
 25 26  1  0  0  0
 26 27  2  0  0  0
 26 28  1  0  0  0
 26 29  1  0  0  0
 12 18  1  0  0  0
  3  8  1  0  0  0
  7  9  1  0  0  0
 23 24  1  0  0  0
 28 30  1  0  0  0
 29 31  1  0  0  0
M  END
> <minimizedAffinity>
-7.21746

$$$$
3DJQ_UDP_A_125


 31 32  0  0  0  0  0  0  0  0999 V2000
   29.4370   39.7482    7.2093 C   0  0  0  0  0  0  0  0  0  0  0  0
   30.2218   38.4833    7.5442 C   0  0  0  0  0  0  0  0  0  0  0  0
   29.3366   37.4979    8.0432 O   0  0  0  0  0  0  0  0  0  0  0  0
   31.2355   38.9123    8.5926 C   0  0  0  0  0  0  0  0  0  0  0  0
   30.7816   40.2887    9.0509 C   0  0  0  0  0  0  0  0  0  0  0  0
   29.8510   40.7706    8.0953 O   0  0  0  0  0  0  0  0  0  0  0  0
   31.2669   38.0318    9.6918 O   0  0  0  0  0  0  0  0  0  0  0  0
   28.8696   37.8457    8.8190 H   0  0  0  0  0  0  0  0  0  0  0  0
   30.3886   37.9949   10.1017 H   0  0  0  0  0  0  0  0  0  0  0  0
   29.6055   40.1982    5.8020 N   0  0  0  0  0  0  0  0  0  0  0  0
   29.0822   39.4375    4.7680 C   0  0  0  0  0  0  0  0  0  0  0  0
   29.2193   39.8528    3.4547 N   0  0  0  0  0  0  0  0  0  0  0  0
   29.8746   41.0263    3.1469 C   0  0  0  0  0  0  0  0  0  0  0  0
   30.3942   41.8021    4.1829 C   0  0  0  0  0  0  0  0  0  0  0  0
   30.1949   41.4050    5.5070 C   0  0  0  0  0  0  0  0  0  0  0  0
   28.5056   38.3832    5.0103 O   0  0  0  0  0  0  0  0  0  0  0  0
   29.9827   41.3718    1.9673 O   0  0  0  0  0  0  0  0  0  0  0  0
   28.8436   39.3024    2.7301 H   0  0  0  0  0  0  0  0  0  0  0  0
   31.9637   41.2413    9.2400 C   0  0  0  0  0  0  0  0  0  0  0  0
   31.6322   42.5842    8.9483 O   0  0  0  0  0  0  0  0  0  0  0  0
   32.5325   43.4679    7.9378 P   0  0  0  0  0  0  0  0  0  0  0  0
   31.6780   44.1538    6.9404 O   0  0  0  0  0  0  0  0  0  0  0  0
   33.5410   42.6334    7.2373 O   0  0  0  0  0  0  0  0  0  0  0  0
   33.0895   41.9706    6.6917 H   0  0  0  0  0  0  0  0  0  0  0  0
   33.2151   44.5932    8.8649 O   0  0  0  0  0  0  0  0  0  0  0  0
   34.6135   44.3618    9.6321 P   0  0  0  0  0  0  0  0  0  0  0  0
   34.7739   45.4318   10.6453 O   0  0  0  0  0  0  0  0  0  0  0  0
   35.7056   44.4475    8.6346 O   0  0  0  0  0  0  0  0  0  0  0  0
   34.6381   43.0398   10.2976 O   0  0  0  0  0  0  0  0  0  0  0  0
   35.6823   45.3161    8.2035 H   0  0  0  0  0  0  0  0  0  0  0  0
   33.9205   42.9922   10.9486 H   0  0  0  0  0  0  0  0  0  0  0  0
 10 11  1  0  0  0
 10 15  1  0  0  0
 10  1  1  0  0  0
 11 12  1  0  0  0
 11 16  2  0  0  0
 12 13  1  0  0  0
 13 14  1  0  0  0
 13 17  2  0  0  0
 14 15  2  0  0  0
  1  2  1  0  0  0
  1  6  1  0  0  0
  2  3  1  0  0  0
  2  4  1  0  0  0
  4  5  1  0  0  0
  4  7  1  0  0  0
  5  6  1  0  0  0
  5 19  1  0  0  0
 19 20  1  0  0  0
 20 21  1  0  0  0
 21 22  2  0  0  0
 21 23  1  0  0  0
 21 25  1  0  0  0
 25 26  1  0  0  0
 26 27  2  0  0  0
 26 28  1  0  0  0
 26 29  1  0  0  0
 12 18  1  0  0  0
  3  8  1  0  0  0
  7  9  1  0  0  0
 23 24  1  0  0  0
 28 30  1  0  0  0
 29 31  1  0  0  0
M  END
> <minimizedAffinity>
-7.14984

$$$$
3DJQ_UDP_A_125


 31 32  0  0  0  0  0  0  0  0999 V2000
   29.4748   39.7219    7.2052 C   0  0  0  0  0  0  0  0  0  0  0  0
   30.2485   38.4485    7.5338 C   0  0  0  0  0  0  0  0  0  0  0  0
   29.3564   37.4724    8.0388 O   0  0  0  0  0  0  0  0  0  0  0  0
   31.2742   38.8661    8.5750 C   0  0  0  0  0  0  0  0  0  0  0  0
   30.8384   40.2471    9.0372 C   0  0  0  0  0  0  0  0  0  0  0  0
   29.9061   40.7394    8.0885 O   0  0  0  0  0  0  0  0  0  0  0  0
   31.3042   37.9848    9.6736 O   0  0  0  0  0  0  0  0  0  0  0  0
   28.8988   37.8248    8.8181 H   0  0  0  0  0  0  0  0  0  0  0  0
   30.4284   37.9570   10.0898 H   0  0  0  0  0  0  0  0  0  0  0  0
   29.6380   40.1709    5.7968 N   0  0  0  0  0  0  0  0  0  0  0  0
   29.0859   39.4246    4.7674 C   0  0  0  0  0  0  0  0  0  0  0  0
   29.2179   39.8392    3.4534 N   0  0  0  0  0  0  0  0  0  0  0  0
   29.8967   40.9979    3.1404 C   0  0  0  0  0  0  0  0  0  0  0  0
   30.4455   41.7595    4.1720 C   0  0  0  0  0  0  0  0  0  0  0  0
   30.2518   41.3643    5.4974 C   0  0  0  0  0  0  0  0  0  0  0  0
   28.4878   38.3833    5.0142 O   0  0  0  0  0  0  0  0  0  0  0  0
   29.9995   41.3433    1.9603 O   0  0  0  0  0  0  0  0  0  0  0  0
   28.8215   39.2992    2.7320 H   0  0  0  0  0  0  0  0  0  0  0  0
   32.0319   41.1869    9.2182 C   0  0  0  0  0  0  0  0  0  0  0  0
   32.4118   41.8219    8.0137 O   0  0  0  0  0  0  0  0  0  0  0  0
   32.8838   43.3678    7.9953 P   0  0  0  0  0  0  0  0  0  0  0  0
   34.2702   43.4848    7.4862 O   0  0  0  0  0  0  0  0  0  0  0  0
   32.7976   43.9782    9.3459 O   0  0  0  0  0  0  0  0  0  0  0  0
   33.4009   43.5161    9.9487 H   0  0  0  0  0  0  0  0  0  0  0  0
   31.9045   44.0890    6.9404 O   0  0  0  0  0  0  0  0  0  0  0  0
   30.4496   44.6529    7.3441 P   0  0  0  0  0  0  0  0  0  0  0  0
   29.6711   44.8709    6.1017 O   0  0  0  0  0  0  0  0  0  0  0  0
   30.6353   45.9407    8.0525 O   0  0  0  0  0  0  0  0  0  0  0  0
   29.7350   43.6937    8.2162 O   0  0  0  0  0  0  0  0  0  0  0  0
   31.1040   46.5630    7.4745 H   0  0  0  0  0  0  0  0  0  0  0  0
   29.6177   42.8539    7.7451 H   0  0  0  0  0  0  0  0  0  0  0  0
 10 11  1  0  0  0
 10 15  1  0  0  0
 10  1  1  0  0  0
 11 12  1  0  0  0
 11 16  2  0  0  0
 12 13  1  0  0  0
 13 14  1  0  0  0
 13 17  2  0  0  0
 14 15  2  0  0  0
  1  2  1  0  0  0
  1  6  1  0  0  0
  2  3  1  0  0  0
  2  4  1  0  0  0
  4  5  1  0  0  0
  4  7  1  0  0  0
  5  6  1  0  0  0
  5 19  1  0  0  0
 19 20  1  0  0  0
 20 21  1  0  0  0
 21 22  2  0  0  0
 21 23  1  0  0  0
 21 25  1  0  0  0
 25 26  1  0  0  0
 26 27  2  0  0  0
 26 28  1  0  0  0
 26 29  1  0  0  0
 12 18  1  0  0  0
  3  8  1  0  0  0
  7  9  1  0  0  0
 23 24  1  0  0  0
 28 30  1  0  0  0
 29 31  1  0  0  0
M  END
> <minimizedAffinity>
-7.09573

$$$$
3DJQ_UDP_A_125


 31 32  0  0  0  0  0  0  0  0999 V2000
   29.9579   38.9162    8.4194 C   0  0  0  0  0  0  0  0  0  0  0  0
   31.4323   38.7174    8.7580 C   0  0  0  0  0  0  0  0  0  0  0  0
   31.6563   37.3651    9.1114 O   0  0  0  0  0  0  0  0  0  0  0  0
   31.7010   39.6558    9.9232 C   0  0  0  0  0  0  0  0  0  0  0  0
   30.3294   40.0930   10.4116 C   0  0  0  0  0  0  0  0  0  0  0  0
   29.3925   39.7674    9.3978 O   0  0  0  0  0  0  0  0  0  0  0  0
   32.3965   39.0176   10.9689 O   0  0  0  0  0  0  0  0  0  0  0  0
   31.0823   37.1262    9.8559 H   0  0  0  0  0  0  0  0  0  0  0  0
   31.8786   38.2620   11.2879 H   0  0  0  0  0  0  0  0  0  0  0  0
   29.7296   39.4815    7.0629 N   0  0  0  0  0  0  0  0  0  0  0  0
   29.5336   38.6309    5.9860 C   0  0  0  0  0  0  0  0  0  0  0  0
   29.3055   39.1443    4.7211 N   0  0  0  0  0  0  0  0  0  0  0  0
   29.2669   40.5055    4.5047 C   0  0  0  0  0  0  0  0  0  0  0  0
   29.4525   41.3673    5.5855 C   0  0  0  0  0  0  0  0  0  0  0  0
   29.6192   40.8380    6.8671 C   0  0  0  0  0  0  0  0  0  0  0  0
   29.5751   37.4161    6.1457 O   0  0  0  0  0  0  0  0  0  0  0  0
   29.0623   40.9355    3.3663 O   0  0  0  0  0  0  0  0  0  0  0  0
   29.1687   38.5288    3.9650 H   0  0  0  0  0  0  0  0  0  0  0  0
   30.3028   41.5803   10.7691 C   0  0  0  0  0  0  0  0  0  0  0  0
   31.5048   42.0164   11.3716 O   0  0  0  0  0  0  0  0  0  0  0  0
   32.4846   43.0620   10.6235 P   0  0  0  0  0  0  0  0  0  0  0  0
   33.8141   42.4533   10.3847 O   0  0  0  0  0  0  0  0  0  0  0  0
   32.6448   44.3127   11.4073 O   0  0  0  0  0  0  0  0  0  0  0  0
   33.0622   44.1093   12.2589 H   0  0  0  0  0  0  0  0  0  0  0  0
   31.7953   43.3272    9.1930 O   0  0  0  0  0  0  0  0  0  0  0  0
   32.6127   43.2655    7.8052 P   0  0  0  0  0  0  0  0  0  0  0  0
   31.7484   43.8058    6.7288 O   0  0  0  0  0  0  0  0  0  0  0  0
   32.9368   41.8475    7.5243 O   0  0  0  0  0  0  0  0  0  0  0  0
   33.8573   44.0624    7.8898 O   0  0  0  0  0  0  0  0  0  0  0  0
   32.1163   41.3328    7.4706 H   0  0  0  0  0  0  0  0  0  0  0  0
   33.6363   44.9887    8.0738 H   0  0  0  0  0  0  0  0  0  0  0  0
 10 11  1  0  0  0
 10 15  1  0  0  0
 10  1  1  0  0  0
 11 12  1  0  0  0
 11 16  2  0  0  0
 12 13  1  0  0  0
 13 14  1  0  0  0
 13 17  2  0  0  0
 14 15  2  0  0  0
  1  2  1  0  0  0
  1  6  1  0  0  0
  2  3  1  0  0  0
  2  4  1  0  0  0
  4  5  1  0  0  0
  4  7  1  0  0  0
  5  6  1  0  0  0
  5 19  1  0  0  0
 19 20  1  0  0  0
 20 21  1  0  0  0
 21 22  2  0  0  0
 21 23  1  0  0  0
 21 25  1  0  0  0
 25 26  1  0  0  0
 26 27  2  0  0  0
 26 28  1  0  0  0
 26 29  1  0  0  0
 12 18  1  0  0  0
  3  8  1  0  0  0
  7  9  1  0  0  0
 23 24  1  0  0  0
 28 30  1  0  0  0
 29 31  1  0  0  0
M  END
> <minimizedAffinity>
-6.91664

$$$$
3DJQ_UDP_A_125


 31 32  0  0  0  0  0  0  0  0999 V2000
   30.1134   40.1600    9.7857 C   0  0  0  0  0  0  0  0  0  0  0  0
   30.7410   41.4997    9.4125 C   0  0  0  0  0  0  0  0  0  0  0  0
   30.0676   42.5416   10.0942 O   0  0  0  0  0  0  0  0  0  0  0  0
   30.5708   41.6106    7.9060 C   0  0  0  0  0  0  0  0  0  0  0  0
   29.5811   40.5190    7.5320 C   0  0  0  0  0  0  0  0  0  0  0  0
   29.4984   39.6246    8.6295 O   0  0  0  0  0  0  0  0  0  0  0  0
   30.0614   42.8662    7.5206 O   0  0  0  0  0  0  0  0  0  0  0  0
   29.1233   42.5145    9.8742 H   0  0  0  0  0  0  0  0  0  0  0  0
   29.2010   43.0101    7.9447 H   0  0  0  0  0  0  0  0  0  0  0  0
   31.0857   39.1815   10.3417 N   0  0  0  0  0  0  0  0  0  0  0  0
   31.2374   39.0653   11.7147 C   0  0  0  0  0  0  0  0  0  0  0  0
   32.1281   38.1482   12.2452 N   0  0  0  0  0  0  0  0  0  0  0  0
   32.8795   37.3333   11.4251 C   0  0  0  0  0  0  0  0  0  0  0  0
   32.7240   37.4373   10.0430 C   0  0  0  0  0  0  0  0  0  0  0  0
   31.7772   38.3216    9.5214 C   0  0  0  0  0  0  0  0  0  0  0  0
   30.5922   39.7853   12.4684 O   0  0  0  0  0  0  0  0  0  0  0  0
   33.6664   36.5252   11.9254 O   0  0  0  0  0  0  0  0  0  0  0  0
   32.2265   38.0767   13.2222 H   0  0  0  0  0  0  0  0  0  0  0  0
   29.9816   39.8108    6.2364 C   0  0  0  0  0  0  0  0  0  0  0  0
   29.1064   40.1012    5.1649 O   0  0  0  0  0  0  0  0  0  0  0  0
   29.4094   41.3161    4.1426 P   0  0  0  0  0  0  0  0  0  0  0  0
   30.6065   42.0754    4.5734 O   0  0  0  0  0  0  0  0  0  0  0  0
   28.2499   42.2369    4.0341 O   0  0  0  0  0  0  0  0  0  0  0  0
   28.0782   42.6437    4.8978 H   0  0  0  0  0  0  0  0  0  0  0  0
   29.7512   40.6037    2.7399 O   0  0  0  0  0  0  0  0  0  0  0  0
   28.6258   40.2594    1.6387 P   0  0  0  0  0  0  0  0  0  0  0  0
   28.3861   41.4716    0.8198 O   0  0  0  0  0  0  0  0  0  0  0  0
   27.3835   39.8821    2.3522 O   0  0  0  0  0  0  0  0  0  0  0  0
   29.0650   39.1484    0.7646 O   0  0  0  0  0  0  0  0  0  0  0  0
   27.1028   40.6150    2.9223 H   0  0  0  0  0  0  0  0  0  0  0  0
   29.8783   39.4035    0.3015 H   0  0  0  0  0  0  0  0  0  0  0  0
 10 11  1  0  0  0
 10 15  1  0  0  0
 10  1  1  0  0  0
 11 12  1  0  0  0
 11 16  2  0  0  0
 12 13  1  0  0  0
 13 14  1  0  0  0
 13 17  2  0  0  0
 14 15  2  0  0  0
  1  2  1  0  0  0
  1  6  1  0  0  0
  2  3  1  0  0  0
  2  4  1  0  0  0
  4  5  1  0  0  0
  4  7  1  0  0  0
  5  6  1  0  0  0
  5 19  1  0  0  0
 19 20  1  0  0  0
 20 21  1  0  0  0
 21 22  2  0  0  0
 21 23  1  0  0  0
 21 25  1  0  0  0
 25 26  1  0  0  0
 26 27  2  0  0  0
 26 28  1  0  0  0
 26 29  1  0  0  0
 12 18  1  0  0  0
  3  8  1  0  0  0
  7  9  1  0  0  0
 23 24  1  0  0  0
 28 30  1  0  0  0
 29 31  1  0  0  0
M  END
> <minimizedAffinity>
-6.57008

$$$$
3DJQ_UDP_A_125


 31 32  0  0  0  0  0  0  0  0999 V2000
   30.9635   42.1876    8.5340 C   0  0  0  0  0  0  0  0  0  0  0  0
   31.3014   41.2246    7.3998 C   0  0  0  0  0  0  0  0  0  0  0  0
   32.6538   41.3997    7.0203 O   0  0  0  0  0  0  0  0  0  0  0  0
   30.3487   41.5900    6.2731 C   0  0  0  0  0  0  0  0  0  0  0  0
   29.7502   42.9294    6.6713 C   0  0  0  0  0  0  0  0  0  0  0  0
   30.0178   43.1224    8.0507 O   0  0  0  0  0  0  0  0  0  0  0  0
   31.0121   41.7147    5.0367 O   0  0  0  0  0  0  0  0  0  0  0  0
   32.8002   42.3231    6.7618 H   0  0  0  0  0  0  0  0  0  0  0  0
   31.6954   42.3999    5.1040 H   0  0  0  0  0  0  0  0  0  0  0  0
   30.4344   41.5136    9.7495 N   0  0  0  0  0  0  0  0  0  0  0  0
   31.3133   40.9946   10.6873 C   0  0  0  0  0  0  0  0  0  0  0  0
   30.8338   40.3780   11.8300 N   0  0  0  0  0  0  0  0  0  0  0  0
   29.4789   40.2676   12.0607 C   0  0  0  0  0  0  0  0  0  0  0  0
   28.5888   40.7972   11.1266 C   0  0  0  0  0  0  0  0  0  0  0  0
   29.0847   41.4722   10.0090 C   0  0  0  0  0  0  0  0  0  0  0  0
   32.5231   41.0667   10.5031 O   0  0  0  0  0  0  0  0  0  0  0  0
   29.0794   39.7123   13.0877 O   0  0  0  0  0  0  0  0  0  0  0  0
   31.4692   40.0130   12.4874 H   0  0  0  0  0  0  0  0  0  0  0  0
   28.2548   42.9981    6.3561 C   0  0  0  0  0  0  0  0  0  0  0  0
   27.9676   43.8484    5.2640 O   0  0  0  0  0  0  0  0  0  0  0  0
   28.0506   43.3122    3.7414 P   0  0  0  0  0  0  0  0  0  0  0  0
   29.3581   43.6579    3.1362 O   0  0  0  0  0  0  0  0  0  0  0  0
   26.9552   43.8696    2.9086 O   0  0  0  0  0  0  0  0  0  0  0  0
   27.0426   44.8346    2.8630 H   0  0  0  0  0  0  0  0  0  0  0  0
   27.9663   41.7089    3.8600 O   0  0  0  0  0  0  0  0  0  0  0  0
   28.2874   40.7241    2.6252 P   0  0  0  0  0  0  0  0  0  0  0  0
   27.1783   39.7480    2.5046 O   0  0  0  0  0  0  0  0  0  0  0  0
   29.5525   40.0121    2.9211 O   0  0  0  0  0  0  0  0  0  0  0  0
   28.4183   41.4857    1.3627 O   0  0  0  0  0  0  0  0  0  0  0  0
   29.4582   39.5159    3.7492 H   0  0  0  0  0  0  0  0  0  0  0  0
   27.5863   41.9485    1.1766 H   0  0  0  0  0  0  0  0  0  0  0  0
 10 11  1  0  0  0
 10 15  1  0  0  0
 10  1  1  0  0  0
 11 12  1  0  0  0
 11 16  2  0  0  0
 12 13  1  0  0  0
 13 14  1  0  0  0
 13 17  2  0  0  0
 14 15  2  0  0  0
  1  2  1  0  0  0
  1  6  1  0  0  0
  2  3  1  0  0  0
  2  4  1  0  0  0
  4  5  1  0  0  0
  4  7  1  0  0  0
  5  6  1  0  0  0
  5 19  1  0  0  0
 19 20  1  0  0  0
 20 21  1  0  0  0
 21 22  2  0  0  0
 21 23  1  0  0  0
 21 25  1  0  0  0
 25 26  1  0  0  0
 26 27  2  0  0  0
 26 28  1  0  0  0
 26 29  1  0  0  0
 12 18  1  0  0  0
  3  8  1  0  0  0
  7  9  1  0  0  0
 23 24  1  0  0  0
 28 30  1  0  0  0
 29 31  1  0  0  0
M  END
> <minimizedAffinity>
-6.47669

$$$$
