4AZB_OAN_A_1606


 30 31  0  0  0  0  0  0  0  0999 V2000
   37.1870   16.3204  -20.7520 C   0  0  0  0  0  0  0  0  0  0  0  0
   36.3260   17.5614  -20.9248 C   0  0  0  0  0  0  0  0  0  0  0  0
   37.1562   18.7066  -20.7878 O   0  0  0  0  0  0  0  0  0  0  0  0
   35.6882   17.5316  -22.3063 C   0  0  0  0  0  0  0  0  0  0  0  0
   35.0113   18.7527  -22.5632 O   0  0  0  0  0  0  0  0  0  0  0  0
   34.6871   16.3877  -22.3356 C   0  0  0  0  0  0  0  0  0  0  0  0
   35.3754   15.1473  -22.1322 O   0  0  0  0  0  0  0  0  0  0  0  0
   36.6277   15.1661  -21.5994 C   0  0  0  0  0  0  0  0  0  0  0  0
   37.3565   14.0919  -21.8623 N   0  0  0  0  0  0  0  0  0  0  0  0
   37.8583   18.6789  -21.4565 H   0  0  0  0  0  0  0  0  0  0  0  0
   34.3227   18.8877  -21.8935 H   0  0  0  0  0  0  0  0  0  0  0  0
   36.3911   15.4317  -17.1215 C   0  0  0  0  0  0  0  0  0  0  0  0
   36.1449   15.7425  -18.6065 C   0  0  0  0  0  0  0  0  0  0  0  0
   35.0094   15.7461  -19.0719 O   0  0  0  0  0  0  0  0  0  0  0  0
   37.2374   15.9809  -19.3224 N   0  0  0  0  0  0  0  0  0  0  0  0
   38.1148   15.9283  -18.8790 H   0  0  0  0  0  0  0  0  0  0  0  0
   33.9151   16.3092  -23.6744 C   0  0  0  0  0  0  0  0  0  0  0  0
   34.8212   15.9562  -24.7230 O   0  0  0  0  0  0  0  0  0  0  0  0
   35.5180   16.6279  -24.7880 H   0  0  0  0  0  0  0  0  0  0  0  0
   36.7102   13.1641  -22.6201 O   0  0  0  0  0  0  0  0  0  0  0  0
   37.5471   12.3772  -23.3395 C   0  0  0  0  0  0  0  0  0  0  0  0
   38.7690   12.3657  -23.1542 O   0  0  0  0  0  0  0  0  0  0  0  0
   36.9500   11.5994  -24.2389 N   0  0  0  0  0  0  0  0  0  0  0  0
   37.4923   10.9723  -24.7697 H   0  0  0  0  0  0  0  0  0  0  0  0
   35.6210   11.6520  -24.4379 C   0  0  0  0  0  0  0  0  0  0  0  0
   35.0682   12.5780  -25.3126 C   0  0  0  0  0  0  0  0  0  0  0  0
   33.6946   12.6312  -25.4982 C   0  0  0  0  0  0  0  0  0  0  0  0
   32.8541   11.7509  -24.8190 C   0  0  0  0  0  0  0  0  0  0  0  0
   33.3991   10.8237  -23.9427 C   0  0  0  0  0  0  0  0  0  0  0  0
   34.7784   10.7806  -23.7530 C   0  0  0  0  0  0  0  0  0  0  0  0
 12 13  1  0  0  0
 13 14  2  0  0  0
 13 15  1  0  0  0
 15  1  1  0  0  0
  1  2  1  0  0  0
  1  8  1  0  0  0
  2  3  1  0  0  0
  2  4  1  0  0  0
  4  5  1  0  0  0
  4  6  1  0  0  0
  6 17  1  0  0  0
  6  7  1  0  0  0
 17 18  1  0  0  0
  7  8  1  0  0  0
  8  9  2  0  0  0
  9 20  1  0  0  0
 20 21  1  0  0  0
 21 22  2  0  0  0
 21 23  1  0  0  0
 23 25  1  0  0  0
 25 26  2  0  0  0
 25 30  1  0  0  0
 26 27  1  0  0  0
 27 28  2  0  0  0
 28 29  1  0  0  0
 29 30  2  0  0  0
 15 16  1  0  0  0
  3 10  1  0  0  0
  5 11  1  0  0  0
 18 19  1  0  0  0
 23 24  1  0  0  0
M  END
> <minimizedAffinity>
-9.15127

$$$$
4AZB_OAN_A_1606


 30 31  0  0  0  0  0  0  0  0999 V2000
   34.8234    9.9241  -23.8760 C   0  0  0  0  0  0  0  0  0  0  0  0
   33.5028    9.8164  -24.6215 C   0  0  0  0  0  0  0  0  0  0  0  0
   32.7588    8.7417  -24.0638 O   0  0  0  0  0  0  0  0  0  0  0  0
   32.7406   11.1245  -24.4676 C   0  0  0  0  0  0  0  0  0  0  0  0
   31.4348   11.0011  -25.0108 O   0  0  0  0  0  0  0  0  0  0  0  0
   33.4995   12.2012  -25.2267 C   0  0  0  0  0  0  0  0  0  0  0  0
   34.7988   12.3677  -24.6453 O   0  0  0  0  0  0  0  0  0  0  0  0
   35.2931   11.3875  -23.8406 C   0  0  0  0  0  0  0  0  0  0  0  0
   36.2367   11.7853  -23.0008 N   0  0  0  0  0  0  0  0  0  0  0  0
   32.6088    8.9078  -23.1199 H   0  0  0  0  0  0  0  0  0  0  0  0
   31.4963   10.7730  -25.9516 H   0  0  0  0  0  0  0  0  0  0  0  0
   37.7283    7.5892  -24.7205 C   0  0  0  0  0  0  0  0  0  0  0  0
   36.7827    8.4463  -23.8640 C   0  0  0  0  0  0  0  0  0  0  0  0
   36.9369    8.5369  -22.6499 O   0  0  0  0  0  0  0  0  0  0  0  0
   35.8038    9.0460  -24.5311 N   0  0  0  0  0  0  0  0  0  0  0  0
   35.7318    8.8969  -25.5016 H   0  0  0  0  0  0  0  0  0  0  0  0
   32.7717   13.5665  -25.2062 C   0  0  0  0  0  0  0  0  0  0  0  0
   33.6384   14.5562  -24.6455 O   0  0  0  0  0  0  0  0  0  0  0  0
   33.8777   14.3013  -23.7407 H   0  0  0  0  0  0  0  0  0  0  0  0
   36.5374   13.1090  -23.1025 O   0  0  0  0  0  0  0  0  0  0  0  0
   37.8634   13.3705  -22.9993 C   0  0  0  0  0  0  0  0  0  0  0  0
   38.7277   12.5751  -23.3837 O   0  0  0  0  0  0  0  0  0  0  0  0
   38.1613   14.5586  -22.4797 N   0  0  0  0  0  0  0  0  0  0  0  0
   39.1045   14.8323  -22.4119 H   0  0  0  0  0  0  0  0  0  0  0  0
   37.2007   15.3935  -22.0451 C   0  0  0  0  0  0  0  0  0  0  0  0
   36.7449   16.4326  -22.8454 C   0  0  0  0  0  0  0  0  0  0  0  0
   35.7636   17.2953  -22.3797 C   0  0  0  0  0  0  0  0  0  0  0  0
   35.2157   17.1242  -21.1095 C   0  0  0  0  0  0  0  0  0  0  0  0
   35.6668   16.0888  -20.3039 C   0  0  0  0  0  0  0  0  0  0  0  0
   36.6590   15.2310  -20.7728 C   0  0  0  0  0  0  0  0  0  0  0  0
 12 13  1  0  0  0
 13 14  2  0  0  0
 13 15  1  0  0  0
 15  1  1  0  0  0
  1  2  1  0  0  0
  1  8  1  0  0  0
  2  3  1  0  0  0
  2  4  1  0  0  0
  4  5  1  0  0  0
  4  6  1  0  0  0
  6 17  1  0  0  0
  6  7  1  0  0  0
 17 18  1  0  0  0
  7  8  1  0  0  0
  8  9  2  0  0  0
  9 20  1  0  0  0
 20 21  1  0  0  0
 21 22  2  0  0  0
 21 23  1  0  0  0
 23 25  1  0  0  0
 25 26  2  0  0  0
 25 30  1  0  0  0
 26 27  1  0  0  0
 27 28  2  0  0  0
 28 29  1  0  0  0
 29 30  2  0  0  0
 15 16  1  0  0  0
  3 10  1  0  0  0
  5 11  1  0  0  0
 18 19  1  0  0  0
 23 24  1  0  0  0
M  END
> <minimizedAffinity>
-8.74992

$$$$
4AZB_OAN_A_1606


 30 31  0  0  0  0  0  0  0  0999 V2000
   40.0805   18.0518  -24.3516 C   0  0  0  0  0  0  0  0  0  0  0  0
   40.7963   17.0668  -25.2620 C   0  0  0  0  0  0  0  0  0  0  0  0
   42.0959   17.5720  -25.5366 O   0  0  0  0  0  0  0  0  0  0  0  0
   40.8890   15.7209  -24.5578 C   0  0  0  0  0  0  0  0  0  0  0  0
   41.6946   14.8258  -25.3093 O   0  0  0  0  0  0  0  0  0  0  0  0
   39.4829   15.1542  -24.4433 C   0  0  0  0  0  0  0  0  0  0  0  0
   38.6814   16.0278  -23.6381 O   0  0  0  0  0  0  0  0  0  0  0  0
   39.1012   17.3058  -23.4308 C   0  0  0  0  0  0  0  0  0  0  0  0
   38.5944   17.8862  -22.3537 N   0  0  0  0  0  0  0  0  0  0  0  0
   42.5808   17.6866  -24.7044 H   0  0  0  0  0  0  0  0  0  0  0  0
   41.3062   14.7025  -26.1895 H   0  0  0  0  0  0  0  0  0  0  0  0
   38.7527   21.2504  -25.9669 C   0  0  0  0  0  0  0  0  0  0  0  0
   39.5691   20.3574  -25.0191 C   0  0  0  0  0  0  0  0  0  0  0  0
   40.3284   20.8458  -24.1879 O   0  0  0  0  0  0  0  0  0  0  0  0
   39.3991   19.0514  -25.1871 N   0  0  0  0  0  0  0  0  0  0  0  0
   38.7935   18.7405  -25.8983 H   0  0  0  0  0  0  0  0  0  0  0  0
   39.4619   13.7425  -23.8098 C   0  0  0  0  0  0  0  0  0  0  0  0
   40.6231   13.5736  -22.9923 O   0  0  0  0  0  0  0  0  0  0  0  0
   41.4194   13.6742  -23.5370 H   0  0  0  0  0  0  0  0  0  0  0  0
   37.7419   17.0897  -21.6526 O   0  0  0  0  0  0  0  0  0  0  0  0
   36.7208   17.7688  -21.0751 C   0  0  0  0  0  0  0  0  0  0  0  0
   36.9054   18.7533  -20.3510 O   0  0  0  0  0  0  0  0  0  0  0  0
   35.5065   17.3120  -21.3700 N   0  0  0  0  0  0  0  0  0  0  0  0
   34.7161   17.7816  -21.0176 H   0  0  0  0  0  0  0  0  0  0  0  0
   35.3361   16.2222  -22.1392 C   0  0  0  0  0  0  0  0  0  0  0  0
   35.9386   15.0157  -21.8082 C   0  0  0  0  0  0  0  0  0  0  0  0
   35.7664   13.9026  -22.6178 C   0  0  0  0  0  0  0  0  0  0  0  0
   34.9793   13.9776  -23.7657 C   0  0  0  0  0  0  0  0  0  0  0  0
   34.3749   15.1797  -24.1034 C   0  0  0  0  0  0  0  0  0  0  0  0
   34.5587   16.2969  -23.2918 C   0  0  0  0  0  0  0  0  0  0  0  0
 12 13  1  0  0  0
 13 14  2  0  0  0
 13 15  1  0  0  0
 15  1  1  0  0  0
  1  2  1  0  0  0
  1  8  1  0  0  0
  2  3  1  0  0  0
  2  4  1  0  0  0
  4  5  1  0  0  0
  4  6  1  0  0  0
  6 17  1  0  0  0
  6  7  1  0  0  0
 17 18  1  0  0  0
  7  8  1  0  0  0
  8  9  2  0  0  0
  9 20  1  0  0  0
 20 21  1  0  0  0
 21 22  2  0  0  0
 21 23  1  0  0  0
 23 25  1  0  0  0
 25 26  2  0  0  0
 25 30  1  0  0  0
 26 27  1  0  0  0
 27 28  2  0  0  0
 28 29  1  0  0  0
 29 30  2  0  0  0
 15 16  1  0  0  0
  3 10  1  0  0  0
  5 11  1  0  0  0
 18 19  1  0  0  0
 23 24  1  0  0  0
M  END
> <minimizedAffinity>
-8.63955

$$$$
4AZB_OAN_A_1606


 30 31  0  0  0  0  0  0  0  0999 V2000
   36.0188   16.1218  -23.4317 C   0  0  0  0  0  0  0  0  0  0  0  0
   34.6097   15.5844  -23.6246 C   0  0  0  0  0  0  0  0  0  0  0  0
   33.7553   16.6718  -23.9518 O   0  0  0  0  0  0  0  0  0  0  0  0
   34.6210   14.5618  -24.7516 C   0  0  0  0  0  0  0  0  0  0  0  0
   33.2961   14.1623  -25.0681 O   0  0  0  0  0  0  0  0  0  0  0  0
   35.4099   13.3514  -24.2781 C   0  0  0  0  0  0  0  0  0  0  0  0
   36.7633   13.7399  -24.0110 O   0  0  0  0  0  0  0  0  0  0  0  0
   37.0511   15.0596  -23.8434 C   0  0  0  0  0  0  0  0  0  0  0  0
   38.3173   15.3811  -24.0606 N   0  0  0  0  0  0  0  0  0  0  0  0
   34.0739   17.1011  -24.7613 H   0  0  0  0  0  0  0  0  0  0  0  0
   32.8799   13.7722  -24.2835 H   0  0  0  0  0  0  0  0  0  0  0  0
   36.1677   18.0108  -20.1132 C   0  0  0  0  0  0  0  0  0  0  0  0
   35.9180   17.7623  -21.6093 C   0  0  0  0  0  0  0  0  0  0  0  0
   35.4936   18.6553  -22.3363 O   0  0  0  0  0  0  0  0  0  0  0  0
   36.1764   16.5292  -22.0279 N   0  0  0  0  0  0  0  0  0  0  0  0
   36.4855   15.8620  -21.3733 H   0  0  0  0  0  0  0  0  0  0  0  0
   35.4221   12.2068  -25.3193 C   0  0  0  0  0  0  0  0  0  0  0  0
   34.1469   11.5596  -25.3257 O   0  0  0  0  0  0  0  0  0  0  0  0
   33.9641   11.1965  -24.4450 H   0  0  0  0  0  0  0  0  0  0  0  0
   39.0982   14.3229  -24.4118 O   0  0  0  0  0  0  0  0  0  0  0  0
   40.2787   14.2794  -23.7470 C   0  0  0  0  0  0  0  0  0  0  0  0
   40.9671   15.2871  -23.5521 O   0  0  0  0  0  0  0  0  0  0  0  0
   40.6243   13.0757  -23.2974 N   0  0  0  0  0  0  0  0  0  0  0  0
   41.4501   12.9768  -22.7706 H   0  0  0  0  0  0  0  0  0  0  0  0
   39.8690   11.9915  -23.5473 C   0  0  0  0  0  0  0  0  0  0  0  0
   38.7129   11.7457  -22.8185 C   0  0  0  0  0  0  0  0  0  0  0  0
   37.9503   10.6161  -23.0768 C   0  0  0  0  0  0  0  0  0  0  0  0
   38.3277    9.7210  -24.0763 C   0  0  0  0  0  0  0  0  0  0  0  0
   39.4819    9.9594  -24.8079 C   0  0  0  0  0  0  0  0  0  0  0  0
   40.2491   11.0904  -24.5382 C   0  0  0  0  0  0  0  0  0  0  0  0
 12 13  1  0  0  0
 13 14  2  0  0  0
 13 15  1  0  0  0
 15  1  1  0  0  0
  1  2  1  0  0  0
  1  8  1  0  0  0
  2  3  1  0  0  0
  2  4  1  0  0  0
  4  5  1  0  0  0
  4  6  1  0  0  0
  6 17  1  0  0  0
  6  7  1  0  0  0
 17 18  1  0  0  0
  7  8  1  0  0  0
  8  9  2  0  0  0
  9 20  1  0  0  0
 20 21  1  0  0  0
 21 22  2  0  0  0
 21 23  1  0  0  0
 23 25  1  0  0  0
 25 26  2  0  0  0
 25 30  1  0  0  0
 26 27  1  0  0  0
 27 28  2  0  0  0
 28 29  1  0  0  0
 29 30  2  0  0  0
 15 16  1  0  0  0
  3 10  1  0  0  0
  5 11  1  0  0  0
 18 19  1  0  0  0
 23 24  1  0  0  0
M  END
> <minimizedAffinity>
-8.50913

$$$$
4AZB_OAN_A_1606


 30 31  0  0  0  0  0  0  0  0999 V2000
   38.7822   15.4937  -23.7103 C   0  0  0  0  0  0  0  0  0  0  0  0
   38.7313   16.5565  -22.6243 C   0  0  0  0  0  0  0  0  0  0  0  0
   39.6973   17.5540  -22.9266 O   0  0  0  0  0  0  0  0  0  0  0  0
   37.3359   17.1629  -22.5917 C   0  0  0  0  0  0  0  0  0  0  0  0
   37.3001   18.2699  -21.7037 O   0  0  0  0  0  0  0  0  0  0  0  0
   36.3721   16.0947  -22.1002 C   0  0  0  0  0  0  0  0  0  0  0  0
   36.3639   14.9993  -23.0242 O   0  0  0  0  0  0  0  0  0  0  0  0
   37.3893   14.8748  -23.9106 C   0  0  0  0  0  0  0  0  0  0  0  0
   37.1039   14.1614  -24.9893 N   0  0  0  0  0  0  0  0  0  0  0  0
   39.5028   17.9397  -23.7952 H   0  0  0  0  0  0  0  0  0  0  0  0
   37.5448   17.9770  -20.8119 H   0  0  0  0  0  0  0  0  0  0  0  0
   41.9443   13.3950  -23.2633 C   0  0  0  0  0  0  0  0  0  0  0  0
   41.0484   14.5522  -23.7331 C   0  0  0  0  0  0  0  0  0  0  0  0
   41.5020   15.4665  -24.4146 O   0  0  0  0  0  0  0  0  0  0  0  0
   39.7842   14.4863  -23.3329 N   0  0  0  0  0  0  0  0  0  0  0  0
   39.5072   13.7339  -22.7615 H   0  0  0  0  0  0  0  0  0  0  0  0
   34.9258   16.6241  -21.9505 C   0  0  0  0  0  0  0  0  0  0  0  0
   34.6370   17.5218  -23.0255 O   0  0  0  0  0  0  0  0  0  0  0  0
   35.2597   18.2651  -23.0022 H   0  0  0  0  0  0  0  0  0  0  0  0
   35.8299   13.6824  -25.0075 O   0  0  0  0  0  0  0  0  0  0  0  0
   35.1461   14.0103  -26.1310 C   0  0  0  0  0  0  0  0  0  0  0  0
   35.3560   15.0577  -26.7526 O   0  0  0  0  0  0  0  0  0  0  0  0
   34.2538   13.1065  -26.5275 N   0  0  0  0  0  0  0  0  0  0  0  0
   33.7489   13.2601  -27.3586 H   0  0  0  0  0  0  0  0  0  0  0  0
   34.0272   11.9876  -25.8168 C   0  0  0  0  0  0  0  0  0  0  0  0
   34.7710   10.8372  -26.0435 C   0  0  0  0  0  0  0  0  0  0  0  0
   34.5177    9.6854  -25.3132 C   0  0  0  0  0  0  0  0  0  0  0  0
   33.5231    9.6710  -24.3369 C   0  0  0  0  0  0  0  0  0  0  0  0
   32.7752   10.8163  -24.1054 C   0  0  0  0  0  0  0  0  0  0  0  0
   33.0274   11.9674  -24.8480 C   0  0  0  0  0  0  0  0  0  0  0  0
 12 13  1  0  0  0
 13 14  2  0  0  0
 13 15  1  0  0  0
 15  1  1  0  0  0
  1  2  1  0  0  0
  1  8  1  0  0  0
  2  3  1  0  0  0
  2  4  1  0  0  0
  4  5  1  0  0  0
  4  6  1  0  0  0
  6 17  1  0  0  0
  6  7  1  0  0  0
 17 18  1  0  0  0
  7  8  1  0  0  0
  8  9  2  0  0  0
  9 20  1  0  0  0
 20 21  1  0  0  0
 21 22  2  0  0  0
 21 23  1  0  0  0
 23 25  1  0  0  0
 25 26  2  0  0  0
 25 30  1  0  0  0
 26 27  1  0  0  0
 27 28  2  0  0  0
 28 29  1  0  0  0
 29 30  2  0  0  0
 15 16  1  0  0  0
  3 10  1  0  0  0
  5 11  1  0  0  0
 18 19  1  0  0  0
 23 24  1  0  0  0
M  END
> <minimizedAffinity>
-8.11311

$$$$
4AZB_OAN_A_1606


 30 31  0  0  0  0  0  0  0  0999 V2000
   36.5722   10.2826  -25.5055 C   0  0  0  0  0  0  0  0  0  0  0  0
   35.4570    9.2558  -25.6220 C   0  0  0  0  0  0  0  0  0  0  0  0
   35.9372    8.0133  -25.1269 O   0  0  0  0  0  0  0  0  0  0  0  0
   34.2641    9.7272  -24.8030 C   0  0  0  0  0  0  0  0  0  0  0  0
   33.2684    8.7165  -24.7557 O   0  0  0  0  0  0  0  0  0  0  0  0
   33.6917   10.9635  -25.4777 C   0  0  0  0  0  0  0  0  0  0  0  0
   34.6761   12.0051  -25.4773 O   0  0  0  0  0  0  0  0  0  0  0  0
   35.9808   11.6810  -25.2648 C   0  0  0  0  0  0  0  0  0  0  0  0
   36.7339   12.6786  -24.8269 N   0  0  0  0  0  0  0  0  0  0  0  0
   36.2132    8.1183  -24.2030 H   0  0  0  0  0  0  0  0  0  0  0  0
   32.9775    8.5067  -25.6570 H   0  0  0  0  0  0  0  0  0  0  0  0
   39.3805   10.0029  -28.0820 C   0  0  0  0  0  0  0  0  0  0  0  0
   38.6913    9.9899  -26.7083 C   0  0  0  0  0  0  0  0  0  0  0  0
   39.3259    9.7538  -25.6848 O   0  0  0  0  0  0  0  0  0  0  0  0
   37.3858   10.2310  -26.7289 N   0  0  0  0  0  0  0  0  0  0  0  0
   36.9458   10.3810  -27.5968 H   0  0  0  0  0  0  0  0  0  0  0  0
   32.4184   11.4885  -24.7723 C   0  0  0  0  0  0  0  0  0  0  0  0
   31.2979   10.6906  -25.1635 O   0  0  0  0  0  0  0  0  0  0  0  0
   31.1828   10.7442  -26.1252 H   0  0  0  0  0  0  0  0  0  0  0  0
   36.0562   13.8489  -24.6723 O   0  0  0  0  0  0  0  0  0  0  0  0
   36.6832   14.9133  -25.2302 C   0  0  0  0  0  0  0  0  0  0  0  0
   37.0645   14.9165  -26.4058 O   0  0  0  0  0  0  0  0  0  0  0  0
   36.8308   15.9620  -24.4247 N   0  0  0  0  0  0  0  0  0  0  0  0
   37.2418   16.7850  -24.7753 H   0  0  0  0  0  0  0  0  0  0  0  0
   36.4302   15.9212  -23.1416 C   0  0  0  0  0  0  0  0  0  0  0  0
   35.2595   16.5511  -22.7407 C   0  0  0  0  0  0  0  0  0  0  0  0
   34.8648   16.5134  -21.4115 C   0  0  0  0  0  0  0  0  0  0  0  0
   35.6308   15.8350  -20.4650 C   0  0  0  0  0  0  0  0  0  0  0  0
   36.8021   15.2041  -20.8578 C   0  0  0  0  0  0  0  0  0  0  0  0
   37.1987   15.2529  -22.1922 C   0  0  0  0  0  0  0  0  0  0  0  0
 12 13  1  0  0  0
 13 14  2  0  0  0
 13 15  1  0  0  0
 15  1  1  0  0  0
  1  2  1  0  0  0
  1  8  1  0  0  0
  2  3  1  0  0  0
  2  4  1  0  0  0
  4  5  1  0  0  0
  4  6  1  0  0  0
  6 17  1  0  0  0
  6  7  1  0  0  0
 17 18  1  0  0  0
  7  8  1  0  0  0
  8  9  2  0  0  0
  9 20  1  0  0  0
 20 21  1  0  0  0
 21 22  2  0  0  0
 21 23  1  0  0  0
 23 25  1  0  0  0
 25 26  2  0  0  0
 25 30  1  0  0  0
 26 27  1  0  0  0
 27 28  2  0  0  0
 28 29  1  0  0  0
 29 30  2  0  0  0
 15 16  1  0  0  0
  3 10  1  0  0  0
  5 11  1  0  0  0
 18 19  1  0  0  0
 23 24  1  0  0  0
M  END
> <minimizedAffinity>
-7.82616

$$$$
4AZB_OAN_A_1606


 30 31  0  0  0  0  0  0  0  0999 V2000
   39.5392   17.2122  -24.9747 C   0  0  0  0  0  0  0  0  0  0  0  0
   40.8523   16.5275  -25.3183 C   0  0  0  0  0  0  0  0  0  0  0  0
   41.9085   17.4579  -25.1228 O   0  0  0  0  0  0  0  0  0  0  0  0
   41.0334   15.3214  -24.4080 C   0  0  0  0  0  0  0  0  0  0  0  0
   42.3231   14.7565  -24.5889 O   0  0  0  0  0  0  0  0  0  0  0  0
   39.9785   14.2915  -24.7793 C   0  0  0  0  0  0  0  0  0  0  0  0
   38.6751   14.8391  -24.5447 O   0  0  0  0  0  0  0  0  0  0  0  0
   38.5379   16.1873  -24.4177 C   0  0  0  0  0  0  0  0  0  0  0  0
   37.4512   16.5733  -23.7665 N   0  0  0  0  0  0  0  0  0  0  0  0
   41.9080   17.7585  -24.2006 H   0  0  0  0  0  0  0  0  0  0  0  0
   42.4288   14.4811  -25.5130 H   0  0  0  0  0  0  0  0  0  0  0  0
   38.7130   19.6671  -27.7844 C   0  0  0  0  0  0  0  0  0  0  0  0
   39.3653   19.1248  -26.5027 C   0  0  0  0  0  0  0  0  0  0  0  0
   40.1491   19.8104  -25.8534 O   0  0  0  0  0  0  0  0  0  0  0  0
   39.0302   17.8810  -26.1810 N   0  0  0  0  0  0  0  0  0  0  0  0
   38.4175   17.3877  -26.7730 H   0  0  0  0  0  0  0  0  0  0  0  0
   40.1163   12.9817  -23.9669 C   0  0  0  0  0  0  0  0  0  0  0  0
   40.8663   13.2398  -22.7769 O   0  0  0  0  0  0  0  0  0  0  0  0
   41.7470   13.5694  -23.0149 H   0  0  0  0  0  0  0  0  0  0  0  0
   36.6700   15.5414  -23.3451 O   0  0  0  0  0  0  0  0  0  0  0  0
   35.3523   15.7198  -23.6080 C   0  0  0  0  0  0  0  0  0  0  0  0
   34.8364   15.3717  -24.6758 O   0  0  0  0  0  0  0  0  0  0  0  0
   34.6535   16.2715  -22.6192 N   0  0  0  0  0  0  0  0  0  0  0  0
   33.6824   16.3940  -22.7252 H   0  0  0  0  0  0  0  0  0  0  0  0
   35.2460   16.6652  -21.4780 C   0  0  0  0  0  0  0  0  0  0  0  0
   35.3571   15.7995  -20.3980 C   0  0  0  0  0  0  0  0  0  0  0  0
   35.9580   16.2226  -19.2215 C   0  0  0  0  0  0  0  0  0  0  0  0
   36.4666   17.5156  -19.1120 C   0  0  0  0  0  0  0  0  0  0  0  0
   36.3585   18.3865  -20.1864 C   0  0  0  0  0  0  0  0  0  0  0  0
   35.7459   17.9595  -21.3623 C   0  0  0  0  0  0  0  0  0  0  0  0
 12 13  1  0  0  0
 13 14  2  0  0  0
 13 15  1  0  0  0
 15  1  1  0  0  0
  1  2  1  0  0  0
  1  8  1  0  0  0
  2  3  1  0  0  0
  2  4  1  0  0  0
  4  5  1  0  0  0
  4  6  1  0  0  0
  6 17  1  0  0  0
  6  7  1  0  0  0
 17 18  1  0  0  0
  7  8  1  0  0  0
  8  9  2  0  0  0
  9 20  1  0  0  0
 20 21  1  0  0  0
 21 22  2  0  0  0
 21 23  1  0  0  0
 23 25  1  0  0  0
 25 26  2  0  0  0
 25 30  1  0  0  0
 26 27  1  0  0  0
 27 28  2  0  0  0
 28 29  1  0  0  0
 29 30  2  0  0  0
 15 16  1  0  0  0
  3 10  1  0  0  0
  5 11  1  0  0  0
 18 19  1  0  0  0
 23 24  1  0  0  0
M  END
> <minimizedAffinity>
-7.76617

$$$$
4AZB_OAN_A_1606


 30 31  0  0  0  0  0  0  0  0999 V2000
   35.1991   14.0032  -24.5999 C   0  0  0  0  0  0  0  0  0  0  0  0
   33.9245   13.1768  -24.6620 C   0  0  0  0  0  0  0  0  0  0  0  0
   32.8842   13.9942  -25.1808 O   0  0  0  0  0  0  0  0  0  0  0  0
   34.1575   11.9768  -25.5685 C   0  0  0  0  0  0  0  0  0  0  0  0
   32.9416   11.2753  -25.7799 O   0  0  0  0  0  0  0  0  0  0  0  0
   35.1539   11.0568  -24.8813 C   0  0  0  0  0  0  0  0  0  0  0  0
   36.4009   11.7436  -24.7165 O   0  0  0  0  0  0  0  0  0  0  0  0
   36.4254   13.1010  -24.8135 C   0  0  0  0  0  0  0  0  0  0  0  0
   37.6106   13.6127  -25.1094 N   0  0  0  0  0  0  0  0  0  0  0  0
   33.1320   14.3115  -26.0633 H   0  0  0  0  0  0  0  0  0  0  0  0
   32.5910   10.9719  -24.9279 H   0  0  0  0  0  0  0  0  0  0  0  0
   34.8596   16.4708  -21.7019 C   0  0  0  0  0  0  0  0  0  0  0  0
   34.6864   15.8872  -23.1132 C   0  0  0  0  0  0  0  0  0  0  0  0
   34.0576   16.4933  -23.9752 O   0  0  0  0  0  0  0  0  0  0  0  0
   35.2442   14.6977  -23.3049 N   0  0  0  0  0  0  0  0  0  0  0  0
   35.7057   14.2642  -22.5511 H   0  0  0  0  0  0  0  0  0  0  0  0
   35.4093    9.7563  -25.6799 C   0  0  0  0  0  0  0  0  0  0  0  0
   34.4685    8.7590  -25.2732 O   0  0  0  0  0  0  0  0  0  0  0  0
   34.5723    8.5842  -24.3248 H   0  0  0  0  0  0  0  0  0  0  0  0
   38.5882   12.6776  -25.2604 O   0  0  0  0  0  0  0  0  0  0  0  0
   39.7217   12.9666  -24.5756 C   0  0  0  0  0  0  0  0  0  0  0  0
   40.0646   14.1263  -24.3207 O   0  0  0  0  0  0  0  0  0  0  0  0
   40.4201   11.9071  -24.1757 N   0  0  0  0  0  0  0  0  0  0  0  0
   41.2340   12.0411  -23.6382 H   0  0  0  0  0  0  0  0  0  0  0  0
   40.0375   10.6568  -24.4903 C   0  0  0  0  0  0  0  0  0  0  0  0
   38.8735   10.1143  -23.9621 C   0  0  0  0  0  0  0  0  0  0  0  0
   38.4974    8.8184  -24.2836 C   0  0  0  0  0  0  0  0  0  0  0  0
   39.2753    8.0495  -25.1475 C   0  0  0  0  0  0  0  0  0  0  0  0
   40.4401    8.5845  -25.6784 C   0  0  0  0  0  0  0  0  0  0  0  0
   40.8180    9.8830  -25.3450 C   0  0  0  0  0  0  0  0  0  0  0  0
 12 13  1  0  0  0
 13 14  2  0  0  0
 13 15  1  0  0  0
 15  1  1  0  0  0
  1  2  1  0  0  0
  1  8  1  0  0  0
  2  3  1  0  0  0
  2  4  1  0  0  0
  4  5  1  0  0  0
  4  6  1  0  0  0
  6 17  1  0  0  0
  6  7  1  0  0  0
 17 18  1  0  0  0
  7  8  1  0  0  0
  8  9  2  0  0  0
  9 20  1  0  0  0
 20 21  1  0  0  0
 21 22  2  0  0  0
 21 23  1  0  0  0
 23 25  1  0  0  0
 25 26  2  0  0  0
 25 30  1  0  0  0
 26 27  1  0  0  0
 27 28  2  0  0  0
 28 29  1  0  0  0
 29 30  2  0  0  0
 15 16  1  0  0  0
  3 10  1  0  0  0
  5 11  1  0  0  0
 18 19  1  0  0  0
 23 24  1  0  0  0
M  END
> <minimizedAffinity>
-7.69955

$$$$
4AZB_OAN_A_1606


 30 31  0  0  0  0  0  0  0  0999 V2000
   36.1182   16.2392  -23.3980 C   0  0  0  0  0  0  0  0  0  0  0  0
   36.4263   17.2818  -22.3351 C   0  0  0  0  0  0  0  0  0  0  0  0
   35.8372   18.5132  -22.7300 O   0  0  0  0  0  0  0  0  0  0  0  0
   35.8463   16.8189  -21.0065 C   0  0  0  0  0  0  0  0  0  0  0  0
   35.9715   17.8423  -20.0307 O   0  0  0  0  0  0  0  0  0  0  0  0
   36.6287   15.5964  -20.5540 C   0  0  0  0  0  0  0  0  0  0  0  0
   36.4590   14.5419  -21.5095 O   0  0  0  0  0  0  0  0  0  0  0  0
   36.0063   14.8467  -22.7564 C   0  0  0  0  0  0  0  0  0  0  0  0
   35.4487   13.8352  -23.4046 N   0  0  0  0  0  0  0  0  0  0  0  0
   34.8795   18.3961  -22.8300 H   0  0  0  0  0  0  0  0  0  0  0  0
   36.9085   18.0640  -19.9131 H   0  0  0  0  0  0  0  0  0  0  0  0
   39.4171   16.3308  -25.3246 C   0  0  0  0  0  0  0  0  0  0  0  0
   38.4625   16.2336  -24.1239 C   0  0  0  0  0  0  0  0  0  0  0  0
   38.8934   16.0962  -22.9831 O   0  0  0  0  0  0  0  0  0  0  0  0
   37.1704   16.2910  -24.4235 N   0  0  0  0  0  0  0  0  0  0  0  0
   36.9067   16.3714  -25.3687 H   0  0  0  0  0  0  0  0  0  0  0  0
   36.1757   15.0821  -19.1667 C   0  0  0  0  0  0  0  0  0  0  0  0
   37.0097   15.6532  -18.1550 O   0  0  0  0  0  0  0  0  0  0  0  0
   37.9315   15.3958  -18.3125 H   0  0  0  0  0  0  0  0  0  0  0  0
   35.4347   12.6726  -22.6968 O   0  0  0  0  0  0  0  0  0  0  0  0
   35.0766   11.5948  -23.4365 C   0  0  0  0  0  0  0  0  0  0  0  0
   33.9283   11.1378  -23.4290 O   0  0  0  0  0  0  0  0  0  0  0  0
   36.0471   11.0856  -24.1909 N   0  0  0  0  0  0  0  0  0  0  0  0
   35.8478   10.3261  -24.7847 H   0  0  0  0  0  0  0  0  0  0  0  0
   37.2947   11.5867  -24.1590 C   0  0  0  0  0  0  0  0  0  0  0  0
   37.8286   12.2384  -25.2628 C   0  0  0  0  0  0  0  0  0  0  0  0
   39.1218   12.7383  -25.2218 C   0  0  0  0  0  0  0  0  0  0  0  0
   39.8966   12.6030  -24.0711 C   0  0  0  0  0  0  0  0  0  0  0  0
   39.3704   11.9522  -22.9648 C   0  0  0  0  0  0  0  0  0  0  0  0
   38.0744   11.4439  -23.0145 C   0  0  0  0  0  0  0  0  0  0  0  0
 12 13  1  0  0  0
 13 14  2  0  0  0
 13 15  1  0  0  0
 15  1  1  0  0  0
  1  2  1  0  0  0
  1  8  1  0  0  0
  2  3  1  0  0  0
  2  4  1  0  0  0
  4  5  1  0  0  0
  4  6  1  0  0  0
  6 17  1  0  0  0
  6  7  1  0  0  0
 17 18  1  0  0  0
  7  8  1  0  0  0
  8  9  2  0  0  0
  9 20  1  0  0  0
 20 21  1  0  0  0
 21 22  2  0  0  0
 21 23  1  0  0  0
 23 25  1  0  0  0
 25 26  2  0  0  0
 25 30  1  0  0  0
 26 27  1  0  0  0
 27 28  2  0  0  0
 28 29  1  0  0  0
 29 30  2  0  0  0
 15 16  1  0  0  0
  3 10  1  0  0  0
  5 11  1  0  0  0
 18 19  1  0  0  0
 23 24  1  0  0  0
M  END
> <minimizedAffinity>
-7.59498

$$$$
4AZB_OAN_A_1606


 30 31  0  0  0  0  0  0  0  0999 V2000
   39.1372   13.7493  -25.2454 C   0  0  0  0  0  0  0  0  0  0  0  0
   40.3780   14.5737  -25.5485 C   0  0  0  0  0  0  0  0  0  0  0  0
   40.7722   14.3155  -26.8892 O   0  0  0  0  0  0  0  0  0  0  0  0
   40.0475   16.0482  -25.3681 C   0  0  0  0  0  0  0  0  0  0  0  0
   41.1334   16.8534  -25.8014 O   0  0  0  0  0  0  0  0  0  0  0  0
   39.7996   16.2953  -23.8885 C   0  0  0  0  0  0  0  0  0  0  0  0
   38.6687   15.5262  -23.4604 O   0  0  0  0  0  0  0  0  0  0  0  0
   38.2483   14.4849  -24.2295 C   0  0  0  0  0  0  0  0  0  0  0  0
   36.9861   14.1316  -24.0394 N   0  0  0  0  0  0  0  0  0  0  0  0
   40.0478   14.5501  -27.4901 H   0  0  0  0  0  0  0  0  0  0  0  0
   41.9244   16.6351  -25.2842 H   0  0  0  0  0  0  0  0  0  0  0  0
   39.5556   10.0193  -24.5273 C   0  0  0  0  0  0  0  0  0  0  0  0
   39.0029   11.2998  -25.1732 C   0  0  0  0  0  0  0  0  0  0  0  0
   38.1210   11.2484  -26.0249 O   0  0  0  0  0  0  0  0  0  0  0  0
   39.5603   12.4297  -24.7542 N   0  0  0  0  0  0  0  0  0  0  0  0
   40.2846   12.3821  -24.0891 H   0  0  0  0  0  0  0  0  0  0  0  0
   39.5300   17.7859  -23.5729 C   0  0  0  0  0  0  0  0  0  0  0  0
   40.7711   18.4959  -23.5465 O   0  0  0  0  0  0  0  0  0  0  0  0
   41.3457   18.1172  -22.8629 H   0  0  0  0  0  0  0  0  0  0  0  0
   36.3430   14.8810  -23.1027 O   0  0  0  0  0  0  0  0  0  0  0  0
   35.0991   15.2653  -23.4800 C   0  0  0  0  0  0  0  0  0  0  0  0
   34.5429   14.8136  -24.4870 O   0  0  0  0  0  0  0  0  0  0  0  0
   34.5138   16.1428  -22.6690 N   0  0  0  0  0  0  0  0  0  0  0  0
   33.5934   16.4358  -22.8596 H   0  0  0  0  0  0  0  0  0  0  0  0
   35.1531   16.6378  -21.5944 C   0  0  0  0  0  0  0  0  0  0  0  0
   35.2585   15.8970  -20.4248 C   0  0  0  0  0  0  0  0  0  0  0  0
   35.9083   16.4248  -19.3187 C   0  0  0  0  0  0  0  0  0  0  0  0
   36.4722   17.6984  -19.3705 C   0  0  0  0  0  0  0  0  0  0  0  0
   36.3702   18.4449  -20.5353 C   0  0  0  0  0  0  0  0  0  0  0  0
   35.7084   17.9137  -21.6400 C   0  0  0  0  0  0  0  0  0  0  0  0
 12 13  1  0  0  0
 13 14  2  0  0  0
 13 15  1  0  0  0
 15  1  1  0  0  0
  1  2  1  0  0  0
  1  8  1  0  0  0
  2  3  1  0  0  0
  2  4  1  0  0  0
  4  5  1  0  0  0
  4  6  1  0  0  0
  6 17  1  0  0  0
  6  7  1  0  0  0
 17 18  1  0  0  0
  7  8  1  0  0  0
  8  9  2  0  0  0
  9 20  1  0  0  0
 20 21  1  0  0  0
 21 22  2  0  0  0
 21 23  1  0  0  0
 23 25  1  0  0  0
 25 26  2  0  0  0
 25 30  1  0  0  0
 26 27  1  0  0  0
 27 28  2  0  0  0
 28 29  1  0  0  0
 29 30  2  0  0  0
 15 16  1  0  0  0
  3 10  1  0  0  0
  5 11  1  0  0  0
 18 19  1  0  0  0
 23 24  1  0  0  0
M  END
> <minimizedAffinity>
-7.54202

$$$$
