5MEH_DMJ_A_506


 16 16  0  0  0  0  0  0  0  0999 V2000
   27.6868   18.2071   46.1401 C   0  0  0  0  0  0  0  0  0  0  0  0
   28.5767   18.9734   45.2831 O   0  0  0  0  0  0  0  0  0  0  0  0
   28.3671   16.8815   46.5858 C   0  0  0  0  0  0  0  0  0  0  0  0
   27.4469   16.1159   47.3883 O   0  0  0  0  0  0  0  0  0  0  0  0
   29.6725   17.1986   47.3928 C   0  0  0  0  0  0  0  0  0  0  0  0
   29.9914   16.0429   48.2222 O   0  0  0  0  0  0  0  0  0  0  0  0
   29.5799   18.4711   48.2953 C   0  0  0  0  0  0  0  0  0  0  0  0
   28.1107   18.6726   48.5861 N   0  0  0  0  0  0  0  0  0  0  0  0
   27.2388   19.0511   47.3731 C   0  0  0  0  0  0  0  0  0  0  0  0
   29.3784   19.2075   45.7765 H   0  0  0  0  0  0  0  0  0  0  0  0
   27.1985   16.6287   48.1733 H   0  0  0  0  0  0  0  0  0  0  0  0
   29.2735   15.8924   48.8569 H   0  0  0  0  0  0  0  0  0  0  0  0
   28.0268   19.4175   49.2778 H   0  0  0  0  0  0  0  0  0  0  0  0
   25.7821   18.8068   47.7772 C   0  0  0  0  0  0  0  0  0  0  0  0
   25.7519   17.9370   48.9198 O   0  0  0  0  0  0  0  0  0  0  0  0
   26.1772   17.0943   48.6961 H   0  0  0  0  0  0  0  0  0  0  0  0
  1  2  1  0  0  0
  1  3  1  0  0  0
  1  9  1  0  0  0
  3  4  1  0  0  0
  3  5  1  0  0  0
  5  6  1  0  0  0
  5  7  1  0  0  0
  7  8  1  0  0  0
  8  9  1  0  0  0
  9 14  1  0  0  0
 14 15  1  0  0  0
  2 10  1  0  0  0
  4 11  1  0  0  0
  6 12  1  0  0  0
  8 13  1  0  0  0
 15 16  1  0  0  0
M  END
> <minimizedAffinity>
-6.35737

$$$$
5MEH_DMJ_A_506


 16 16  0  0  0  0  0  0  0  0999 V2000
   27.2488   19.0509   46.9685 C   0  0  0  0  0  0  0  0  0  0  0  0
   26.6163   19.3065   45.6847 O   0  0  0  0  0  0  0  0  0  0  0  0
   26.1746   18.8097   48.0670 C   0  0  0  0  0  0  0  0  0  0  0  0
   26.8240   18.6128   49.3383 O   0  0  0  0  0  0  0  0  0  0  0  0
   25.3019   17.5629   47.6932 C   0  0  0  0  0  0  0  0  0  0  0  0
   24.6928   17.0467   48.9129 O   0  0  0  0  0  0  0  0  0  0  0  0
   26.0888   16.4140   46.9837 C   0  0  0  0  0  0  0  0  0  0  0  0
   27.5331   16.5781   47.3970 N   0  0  0  0  0  0  0  0  0  0  0  0
   28.2347   17.8459   46.8725 C   0  0  0  0  0  0  0  0  0  0  0  0
   26.0963   18.5314   45.4204 H   0  0  0  0  0  0  0  0  0  0  0  0
   27.4087   17.8406   49.2865 H   0  0  0  0  0  0  0  0  0  0  0  0
   25.3882   16.7561   49.5236 H   0  0  0  0  0  0  0  0  0  0  0  0
   28.0512   15.7684   47.0557 H   0  0  0  0  0  0  0  0  0  0  0  0
   29.5029   18.0329   47.7102 C   0  0  0  0  0  0  0  0  0  0  0  0
   29.6118   19.4127   48.0945 O   0  0  0  0  0  0  0  0  0  0  0  0
   29.6576   19.9670   47.2998 H   0  0  0  0  0  0  0  0  0  0  0  0
  1  2  1  0  0  0
  1  3  1  0  0  0
  1  9  1  0  0  0
  3  4  1  0  0  0
  3  5  1  0  0  0
  5  6  1  0  0  0
  5  7  1  0  0  0
  7  8  1  0  0  0
  8  9  1  0  0  0
  9 14  1  0  0  0
 14 15  1  0  0  0
  2 10  1  0  0  0
  4 11  1  0  0  0
  6 12  1  0  0  0
  8 13  1  0  0  0
 15 16  1  0  0  0
M  END
> <minimizedAffinity>
-6.29690

$$$$
5MEH_DMJ_A_506


 16 16  0  0  0  0  0  0  0  0999 V2000
   25.7005   18.0075   46.3183 C   0  0  0  0  0  0  0  0  0  0  0  0
   25.8839   18.1769   44.8861 O   0  0  0  0  0  0  0  0  0  0  0  0
   26.5466   16.8107   46.8384 C   0  0  0  0  0  0  0  0  0  0  0  0
   26.3065   16.6297   48.2478 O   0  0  0  0  0  0  0  0  0  0  0  0
   28.0670   17.0761   46.5665 C   0  0  0  0  0  0  0  0  0  0  0  0
   28.8474   16.2572   47.4860 O   0  0  0  0  0  0  0  0  0  0  0  0
   28.4976   18.5710   46.7151 C   0  0  0  0  0  0  0  0  0  0  0  0
   27.4867   19.2084   47.6400 N   0  0  0  0  0  0  0  0  0  0  0  0
   26.0541   19.3203   47.0833 C   0  0  0  0  0  0  0  0  0  0  0  0
   26.8152   18.3745   44.7005 H   0  0  0  0  0  0  0  0  0  0  0  0
   26.5617   17.4345   48.7253 H   0  0  0  0  0  0  0  0  0  0  0  0
   28.6536   16.5219   48.3989 H   0  0  0  0  0  0  0  0  0  0  0  0
   27.8123   20.1495   47.8604 H   0  0  0  0  0  0  0  0  0  0  0  0
   25.1323   19.5935   48.2752 C   0  0  0  0  0  0  0  0  0  0  0  0
   25.8386   19.3004   49.4911 O   0  0  0  0  0  0  0  0  0  0  0  0
   26.1094   18.3689   49.4912 H   0  0  0  0  0  0  0  0  0  0  0  0
  1  2  1  0  0  0
  1  3  1  0  0  0
  1  9  1  0  0  0
  3  4  1  0  0  0
  3  5  1  0  0  0
  5  6  1  0  0  0
  5  7  1  0  0  0
  7  8  1  0  0  0
  8  9  1  0  0  0
  9 14  1  0  0  0
 14 15  1  0  0  0
  2 10  1  0  0  0
  4 11  1  0  0  0
  6 12  1  0  0  0
  8 13  1  0  0  0
 15 16  1  0  0  0
M  END
> <minimizedAffinity>
-5.99137

$$$$
5MEH_DMJ_A_506


 16 16  0  0  0  0  0  0  0  0999 V2000
   26.6738   18.2210   45.8742 C   0  0  0  0  0  0  0  0  0  0  0  0
   25.4301   18.1998   45.1215 O   0  0  0  0  0  0  0  0  0  0  0  0
   26.5918   19.2546   47.0334 C   0  0  0  0  0  0  0  0  0  0  0  0
   27.8528   19.2959   47.7297 O   0  0  0  0  0  0  0  0  0  0  0  0
   25.4322   18.8648   48.0128 C   0  0  0  0  0  0  0  0  0  0  0  0
   25.6948   19.4859   49.3053 O   0  0  0  0  0  0  0  0  0  0  0  0
   25.2436   17.3258   48.2091 C   0  0  0  0  0  0  0  0  0  0  0  0
   26.5781   16.6953   47.8848 N   0  0  0  0  0  0  0  0  0  0  0  0
   27.0221   16.7990   46.4127 C   0  0  0  0  0  0  0  0  0  0  0  0
   24.7039   17.9286   45.7045 H   0  0  0  0  0  0  0  0  0  0  0  0
   28.0493   18.4191   48.0950 H   0  0  0  0  0  0  0  0  0  0  0  0
   26.5251   19.1393   49.6677 H   0  0  0  0  0  0  0  0  0  0  0  0
   26.5255   15.7062   48.1280 H   0  0  0  0  0  0  0  0  0  0  0  0
   28.5211   16.4880   46.3759 C   0  0  0  0  0  0  0  0  0  0  0  0
   29.0497   16.5687   47.7090 O   0  0  0  0  0  0  0  0  0  0  0  0
   28.9074   17.4618   48.0598 H   0  0  0  0  0  0  0  0  0  0  0  0
  1  2  1  0  0  0
  1  3  1  0  0  0
  1  9  1  0  0  0
  3  4  1  0  0  0
  3  5  1  0  0  0
  5  6  1  0  0  0
  5  7  1  0  0  0
  7  8  1  0  0  0
  8  9  1  0  0  0
  9 14  1  0  0  0
 14 15  1  0  0  0
  2 10  1  0  0  0
  4 11  1  0  0  0
  6 12  1  0  0  0
  8 13  1  0  0  0
 15 16  1  0  0  0
M  END
> <minimizedAffinity>
-5.98039

$$$$
5MEH_DMJ_A_506


 16 16  0  0  0  0  0  0  0  0999 V2000
   25.3970   19.7521   47.1838 C   0  0  0  0  0  0  0  0  0  0  0  0
   25.4065   20.9311   46.3332 O   0  0  0  0  0  0  0  0  0  0  0  0
   23.9380   19.2849   47.4516 C   0  0  0  0  0  0  0  0  0  0  0  0
   23.9528   18.1498   48.3393 O   0  0  0  0  0  0  0  0  0  0  0  0
   23.2396   18.9185   46.0974 C   0  0  0  0  0  0  0  0  0  0  0  0
   22.1275   18.0201   46.3830 O   0  0  0  0  0  0  0  0  0  0  0  0
   24.1831   18.2525   45.0445 C   0  0  0  0  0  0  0  0  0  0  0  0
   25.3089   17.6212   45.8306 N   0  0  0  0  0  0  0  0  0  0  0  0
   26.2476   18.6057   46.5547 C   0  0  0  0  0  0  0  0  0  0  0  0
   25.0066   20.7148   45.4763 H   0  0  0  0  0  0  0  0  0  0  0  0
   24.4514   17.4255   47.9297 H   0  0  0  0  0  0  0  0  0  0  0  0
   22.4663   17.2019   46.7788 H   0  0  0  0  0  0  0  0  0  0  0  0
   25.8718   17.0684   45.1842 H   0  0  0  0  0  0  0  0  0  0  0  0
   27.0313   17.7948   47.5907 C   0  0  0  0  0  0  0  0  0  0  0  0
   26.2848   16.6137   47.9241 O   0  0  0  0  0  0  0  0  0  0  0  0
   25.4228   16.8683   48.2889 H   0  0  0  0  0  0  0  0  0  0  0  0
  1  2  1  0  0  0
  1  3  1  0  0  0
  1  9  1  0  0  0
  3  4  1  0  0  0
  3  5  1  0  0  0
  5  6  1  0  0  0
  5  7  1  0  0  0
  7  8  1  0  0  0
  8  9  1  0  0  0
  9 14  1  0  0  0
 14 15  1  0  0  0
  2 10  1  0  0  0
  4 11  1  0  0  0
  6 12  1  0  0  0
  8 13  1  0  0  0
 15 16  1  0  0  0
M  END
> <minimizedAffinity>
-5.88881

$$$$
5MEH_DMJ_A_506


 16 16  0  0  0  0  0  0  0  0999 V2000
   24.8748   17.8081   47.9158 C   0  0  0  0  0  0  0  0  0  0  0  0
   25.1524   16.4359   48.3080 O   0  0  0  0  0  0  0  0  0  0  0  0
   26.0677   18.7336   48.2888 C   0  0  0  0  0  0  0  0  0  0  0  0
   25.7467   20.0945   47.9399 O   0  0  0  0  0  0  0  0  0  0  0  0
   27.3614   18.2617   47.5407 C   0  0  0  0  0  0  0  0  0  0  0  0
   28.2870   19.3858   47.4711 O   0  0  0  0  0  0  0  0  0  0  0  0
   27.1089   17.7118   46.0997 C   0  0  0  0  0  0  0  0  0  0  0  0
   25.8156   18.3385   45.6326 N   0  0  0  0  0  0  0  0  0  0  0  0
   24.5500   17.8962   46.3925 C   0  0  0  0  0  0  0  0  0  0  0  0
   25.9328   16.1146   47.8298 H   0  0  0  0  0  0  0  0  0  0  0  0
   25.5812   20.1533   46.9860 H   0  0  0  0  0  0  0  0  0  0  0  0
   27.8859   20.1036   46.9566 H   0  0  0  0  0  0  0  0  0  0  0  0
   25.6896   18.1021   44.6484 H   0  0  0  0  0  0  0  0  0  0  0  0
   23.4541   18.9144   46.0650 C   0  0  0  0  0  0  0  0  0  0  0  0
   22.1705   18.2924   46.2342 O   0  0  0  0  0  0  0  0  0  0  0  0
   22.0997   17.5298   45.6390 H   0  0  0  0  0  0  0  0  0  0  0  0
  1  2  1  0  0  0
  1  3  1  0  0  0
  1  9  1  0  0  0
  3  4  1  0  0  0
  3  5  1  0  0  0
  5  6  1  0  0  0
  5  7  1  0  0  0
  7  8  1  0  0  0
  8  9  1  0  0  0
  9 14  1  0  0  0
 14 15  1  0  0  0
  2 10  1  0  0  0
  4 11  1  0  0  0
  6 12  1  0  0  0
  8 13  1  0  0  0
 15 16  1  0  0  0
M  END
> <minimizedAffinity>
-5.40897

$$$$
5MEH_DMJ_A_506


 16 16  0  0  0  0  0  0  0  0999 V2000
   24.8957   17.5776   46.3965 C   0  0  0  0  0  0  0  0  0  0  0  0
   26.0229   17.0232   45.6646 O   0  0  0  0  0  0  0  0  0  0  0  0
   25.1693   17.5425   47.9271 C   0  0  0  0  0  0  0  0  0  0  0  0
   24.0178   18.0463   48.6321 O   0  0  0  0  0  0  0  0  0  0  0  0
   26.4393   18.3980   48.2604 C   0  0  0  0  0  0  0  0  0  0  0  0
   26.3767   18.7845   49.6647 O   0  0  0  0  0  0  0  0  0  0  0  0
   26.6036   19.6788   47.3801 C   0  0  0  0  0  0  0  0  0  0  0  0
   25.2176   20.0331   46.8930 N   0  0  0  0  0  0  0  0  0  0  0  0
   24.5792   19.0274   45.9153 C   0  0  0  0  0  0  0  0  0  0  0  0
   26.8132   17.5598   45.8330 H   0  0  0  0  0  0  0  0  0  0  0  0
   23.8453   18.9606   48.3580 H   0  0  0  0  0  0  0  0  0  0  0  0
   25.5933   19.3368   49.8134 H   0  0  0  0  0  0  0  0  0  0  0  0
   25.2713   20.9368   46.4231 H   0  0  0  0  0  0  0  0  0  0  0  0
   23.0801   19.3373   45.8721 C   0  0  0  0  0  0  0  0  0  0  0  0
   22.3441   18.1283   46.1168 O   0  0  0  0  0  0  0  0  0  0  0  0
   22.5644   17.4724   45.4370 H   0  0  0  0  0  0  0  0  0  0  0  0
  1  2  1  0  0  0
  1  3  1  0  0  0
  1  9  1  0  0  0
  3  4  1  0  0  0
  3  5  1  0  0  0
  5  6  1  0  0  0
  5  7  1  0  0  0
  7  8  1  0  0  0
  8  9  1  0  0  0
  9 14  1  0  0  0
 14 15  1  0  0  0
  2 10  1  0  0  0
  4 11  1  0  0  0
  6 12  1  0  0  0
  8 13  1  0  0  0
 15 16  1  0  0  0
M  END
> <minimizedAffinity>
-5.35722

$$$$
5MEH_DMJ_A_506


 16 16  0  0  0  0  0  0  0  0999 V2000
   25.6881   17.9278   48.1637 C   0  0  0  0  0  0  0  0  0  0  0  0
   25.1006   16.6010   48.0743 O   0  0  0  0  0  0  0  0  0  0  0  0
   27.1201   17.9318   47.5571 C   0  0  0  0  0  0  0  0  0  0  0  0
   27.7008   19.2423   47.7062 O   0  0  0  0  0  0  0  0  0  0  0  0
   27.0588   17.5232   46.0454 C   0  0  0  0  0  0  0  0  0  0  0  0
   28.2571   18.0264   45.3850 O   0  0  0  0  0  0  0  0  0  0  0  0
   25.7952   18.0438   45.2872 C   0  0  0  0  0  0  0  0  0  0  0  0
   25.3205   19.2595   46.0492 N   0  0  0  0  0  0  0  0  0  0  0  0
   24.7792   18.9865   47.4660 C   0  0  0  0  0  0  0  0  0  0  0  0
   25.0243   16.3432   47.1423 H   0  0  0  0  0  0  0  0  0  0  0  0
   27.1533   19.8935   47.2403 H   0  0  0  0  0  0  0  0  0  0  0  0
   28.2715   18.9950   45.4354 H   0  0  0  0  0  0  0  0  0  0  0  0
   24.5759   19.6984   45.5077 H   0  0  0  0  0  0  0  0  0  0  0  0
   24.7451   20.3314   48.1974 C   0  0  0  0  0  0  0  0  0  0  0  0
   25.3329   20.1727   49.4984 O   0  0  0  0  0  0  0  0  0  0  0  0
   24.8316   19.5118   50.0012 H   0  0  0  0  0  0  0  0  0  0  0  0
  1  2  1  0  0  0
  1  3  1  0  0  0
  1  9  1  0  0  0
  3  4  1  0  0  0
  3  5  1  0  0  0
  5  6  1  0  0  0
  5  7  1  0  0  0
  7  8  1  0  0  0
  8  9  1  0  0  0
  9 14  1  0  0  0
 14 15  1  0  0  0
  2 10  1  0  0  0
  4 11  1  0  0  0
  6 12  1  0  0  0
  8 13  1  0  0  0
 15 16  1  0  0  0
M  END
> <minimizedAffinity>
-5.32207

$$$$
5MEH_DMJ_A_506


 16 16  0  0  0  0  0  0  0  0999 V2000
   25.3573   20.1504   46.6130 C   0  0  0  0  0  0  0  0  0  0  0  0
   25.6974   21.1324   47.6297 O   0  0  0  0  0  0  0  0  0  0  0  0
   26.5481   19.1792   46.3733 C   0  0  0  0  0  0  0  0  0  0  0  0
   26.2069   18.2510   45.3251 O   0  0  0  0  0  0  0  0  0  0  0  0
   26.8870   18.4155   47.6991 C   0  0  0  0  0  0  0  0  0  0  0  0
   27.5973   17.1900   47.3541 O   0  0  0  0  0  0  0  0  0  0  0  0
   25.6425   18.0608   48.5754 C   0  0  0  0  0  0  0  0  0  0  0  0
   24.4634   18.0188   47.6311 N   0  0  0  0  0  0  0  0  0  0  0  0
   24.0651   19.3692   47.0046 C   0  0  0  0  0  0  0  0  0  0  0  0
   25.8793   20.6800   48.4682 H   0  0  0  0  0  0  0  0  0  0  0  0
   25.4246   17.7408   45.5870 H   0  0  0  0  0  0  0  0  0  0  0  0
   27.0215   16.6227   46.8179 H   0  0  0  0  0  0  0  0  0  0  0  0
   23.6593   17.6634   48.1484 H   0  0  0  0  0  0  0  0  0  0  0  0
   23.1606   19.0569   45.8090 C   0  0  0  0  0  0  0  0  0  0  0  0
   22.1872   18.0761   46.2010 O   0  0  0  0  0  0  0  0  0  0  0  0
   22.6402   17.2688   46.4908 H   0  0  0  0  0  0  0  0  0  0  0  0
  1  2  1  0  0  0
  1  3  1  0  0  0
  1  9  1  0  0  0
  3  4  1  0  0  0
  3  5  1  0  0  0
  5  6  1  0  0  0
  5  7  1  0  0  0
  7  8  1  0  0  0
  8  9  1  0  0  0
  9 14  1  0  0  0
 14 15  1  0  0  0
  2 10  1  0  0  0
  4 11  1  0  0  0
  6 12  1  0  0  0
  8 13  1  0  0  0
 15 16  1  0  0  0
M  END
> <minimizedAffinity>
-5.27492

$$$$
5MEH_DMJ_A_506


 16 16  0  0  0  0  0  0  0  0999 V2000
   25.5464   17.4613   47.6749 C   0  0  0  0  0  0  0  0  0  0  0  0
   24.8410   17.0730   48.8853 O   0  0  0  0  0  0  0  0  0  0  0  0
   24.5397   17.9084   46.5769 C   0  0  0  0  0  0  0  0  0  0  0  0
   25.2584   18.2360   45.3715 O   0  0  0  0  0  0  0  0  0  0  0  0
   23.7153   19.1419   47.0815 C   0  0  0  0  0  0  0  0  0  0  0  0
   23.1924   19.8506   45.9197 O   0  0  0  0  0  0  0  0  0  0  0  0
   24.5252   20.1386   47.9719 C   0  0  0  0  0  0  0  0  0  0  0  0
   25.9773   19.9489   47.5989 N   0  0  0  0  0  0  0  0  0  0  0  0
   26.5872   18.5842   47.9738 C   0  0  0  0  0  0  0  0  0  0  0  0
   24.3494   17.8342   49.2314 H   0  0  0  0  0  0  0  0  0  0  0  0
   25.8788   18.9596   45.5516 H   0  0  0  0  0  0  0  0  0  0  0  0
   23.9302   20.1800   45.3829 H   0  0  0  0  0  0  0  0  0  0  0  0
   26.5194   20.6745   48.0679 H   0  0  0  0  0  0  0  0  0  0  0  0
   27.8827   18.4386   47.1704 C   0  0  0  0  0  0  0  0  0  0  0  0
   28.8919   19.2794   47.7515 O   0  0  0  0  0  0  0  0  0  0  0  0
   28.5944   20.2024   47.7318 H   0  0  0  0  0  0  0  0  0  0  0  0
  1  2  1  0  0  0
  1  3  1  0  0  0
  1  9  1  0  0  0
  3  4  1  0  0  0
  3  5  1  0  0  0
  5  6  1  0  0  0
  5  7  1  0  0  0
  7  8  1  0  0  0
  8  9  1  0  0  0
  9 14  1  0  0  0
 14 15  1  0  0  0
  2 10  1  0  0  0
  4 11  1  0  0  0
  6 12  1  0  0  0
  8 13  1  0  0  0
 15 16  1  0  0  0
M  END
> <minimizedAffinity>
-5.27272

$$$$
