2ZDL_45U_A_501


 31 33  0  0  0  0  0  0  0  0999 V2000
  -26.9962    1.4996   14.2806 C   0  0  0  0  0  0  0  0  0  0  0  0
  -27.3865    2.5593   13.8378 O   0  0  0  0  0  0  0  0  0  0  0  0
  -25.7255    1.2115   14.2747 N   0  0  0  0  0  0  0  0  0  0  0  0
  -25.4482    0.4245   14.7972 H   0  0  0  0  0  0  0  0  0  0  0  0
  -26.8356    1.4568   17.0934 O   0  0  0  0  0  0  0  0  0  0  0  0
  -28.0554    1.3868   17.0505 C   0  0  0  0  0  0  0  0  0  0  0  0
  -28.6488    1.0271   15.8977 N   0  0  0  0  0  0  0  0  0  0  0  0
  -27.8936    0.4177   14.8171 C   0  0  0  0  0  0  0  0  0  0  0  0
  -28.9746    0.1125   13.7858 C   0  0  0  0  0  0  0  0  0  0  0  0
  -30.2956    0.7093   14.2459 C   0  0  0  0  0  0  0  0  0  0  0  0
  -30.1722    0.9062   15.7455 C   0  0  0  0  0  0  0  0  0  0  0  0
  -28.6765    1.7484   18.3919 C   0  0  0  0  0  0  0  0  0  0  0  0
  -28.7771    0.6671   19.2570 O   0  0  0  0  0  0  0  0  0  0  0  0
  -29.5989   -0.4719   19.3048 C   0  0  0  0  0  0  0  0  0  0  0  0
  -29.2748   -1.1223   20.6722 C   0  0  0  0  0  0  0  0  0  0  0  0
  -29.5506   -2.6209   20.5731 C   0  0  0  0  0  0  0  0  0  0  0  0
  -29.6055   -2.9683   19.1135 C   0  0  0  0  0  0  0  0  0  0  0  0
  -29.1186   -1.6774   18.3878 C   0  0  0  0  0  0  0  0  0  0  0  0
  -24.6671    1.9394   13.5698 C   0  0  0  0  0  0  0  0  0  0  0  0
  -23.4487    1.7192   14.4901 C   0  0  0  0  0  0  0  0  0  0  0  0
  -22.2688    1.0471   14.1913 C   0  0  0  0  0  0  0  0  0  0  0  0
  -21.1716    0.8825   15.1072 C   0  0  0  0  0  0  0  0  0  0  0  0
  -21.0975    1.3432   16.3916 C   0  0  0  0  0  0  0  0  0  0  0  0
  -22.2828    2.0120   16.6708 C   0  0  0  0  0  0  0  0  0  0  0  0
  -23.3783    2.1881   15.7888 C   0  0  0  0  0  0  0  0  0  0  0  0
  -19.9522    1.1885   17.3893 C   0  0  0  0  0  0  0  0  0  0  0  0
  -19.8216    1.9861   18.4419 N   0  0  0  0  0  0  0  0  0  0  0  0
  -19.1121    0.1927   17.1075 N   0  0  0  0  0  0  0  0  0  0  0  0
  -20.4748    2.7058   18.5983 H   0  0  0  0  0  0  0  0  0  0  0  0
  -19.2608   -0.3663   16.3109 H   0  0  0  0  0  0  0  0  0  0  0  0
  -18.3429    0.0162   17.6961 H   0  0  0  0  0  0  0  0  0  0  0  0
  9 10  1  0  0  0
  9  8  1  0  0  0
 19  3  1  0  0  0
 19 20  1  0  0  0
 10 11  1  0  0  0
  3  1  1  0  0  0
 25 20  2  0  0  0
 25 24  1  0  0  0
  1  8  1  0  0  0
  1  2  2  0  0  0
 20 21  1  0  0  0
  8  7  1  0  0  0
 11  7  1  0  0  0
 24 23  2  0  0  0
  7  6  1  0  0  0
 21 22  2  0  0  0
 23 22  1  0  0  0
 23 26  1  0  0  0
  6  5  2  0  0  0
  6 12  1  0  0  0
 28 26  1  0  0  0
 26 27  2  0  0  0
 12 13  1  0  0  0
 13 14  1  0  0  0
 18 14  1  0  0  0
 18 17  1  0  0  0
 14 15  1  0  0  0
 15 16  1  0  0  0
 17 16  1  0  0  0
  3  4  1  0  0  0
 27 29  1  0  0  0
 28 30  1  0  0  0
 28 31  1  0  0  0
M  END
> <minimizedAffinity>
-8.80346

$$$$
2ZDL_45U_A_501


 31 33  0  0  0  0  0  0  0  0999 V2000
  -27.0290    1.4911   14.2540 C   0  0  0  0  0  0  0  0  0  0  0  0
  -27.3467    2.5960   13.8673 O   0  0  0  0  0  0  0  0  0  0  0  0
  -25.7837    1.1103   14.2078 N   0  0  0  0  0  0  0  0  0  0  0  0
  -25.5567    0.2817   14.6886 H   0  0  0  0  0  0  0  0  0  0  0  0
  -27.1099    1.5819   17.0690 O   0  0  0  0  0  0  0  0  0  0  0  0
  -28.3229    1.5347   16.9243 C   0  0  0  0  0  0  0  0  0  0  0  0
  -28.8244    1.1315   15.7426 N   0  0  0  0  0  0  0  0  0  0  0  0
  -27.9950    0.4551   14.7609 C   0  0  0  0  0  0  0  0  0  0  0  0
  -28.9913    0.1220   13.6555 C   0  0  0  0  0  0  0  0  0  0  0  0
  -30.3317    0.7673   13.9715 C   0  0  0  0  0  0  0  0  0  0  0  0
  -30.3318    1.0344   15.4653 C   0  0  0  0  0  0  0  0  0  0  0  0
  -29.0471    1.9737   18.1886 C   0  0  0  0  0  0  0  0  0  0  0  0
  -28.8697    1.0988   19.2520 O   0  0  0  0  0  0  0  0  0  0  0  0
  -28.8931    1.2433   20.6497 C   0  0  0  0  0  0  0  0  0  0  0  0
  -27.5025    1.8279   20.9989 C   0  0  0  0  0  0  0  0  0  0  0  0
  -27.1499    1.4187   22.4271 C   0  0  0  0  0  0  0  0  0  0  0  0
  -28.0459    0.2719   22.7961 C   0  0  0  0  0  0  0  0  0  0  0  0
  -28.7516   -0.1154   21.4612 C   0  0  0  0  0  0  0  0  0  0  0  0
  -24.6868    1.7895   13.5133 C   0  0  0  0  0  0  0  0  0  0  0  0
  -23.5359    1.6829   14.5352 C   0  0  0  0  0  0  0  0  0  0  0  0
  -23.5177    2.1470   15.8458 C   0  0  0  0  0  0  0  0  0  0  0  0
  -22.4011    2.0093   16.7424 C   0  0  0  0  0  0  0  0  0  0  0  0
  -21.1995    1.4167   16.4731 C   0  0  0  0  0  0  0  0  0  0  0  0
  -21.2374    0.9588   15.1621 C   0  0  0  0  0  0  0  0  0  0  0  0
  -22.3223    1.0816   14.2581 C   0  0  0  0  0  0  0  0  0  0  0  0
  -19.9958    1.2521   17.3978 C   0  0  0  0  0  0  0  0  0  0  0  0
  -19.8017    2.0383   18.4492 N   0  0  0  0  0  0  0  0  0  0  0  0
  -19.1742    0.2601   17.0548 N   0  0  0  0  0  0  0  0  0  0  0  0
  -20.4443    2.7558   18.6527 H   0  0  0  0  0  0  0  0  0  0  0  0
  -19.3709   -0.2904   16.2626 H   0  0  0  0  0  0  0  0  0  0  0  0
  -18.3707    0.0778   17.5937 H   0  0  0  0  0  0  0  0  0  0  0  0
  9 10  1  0  0  0
  9  8  1  0  0  0
 19  3  1  0  0  0
 19 20  1  0  0  0
 10 11  1  0  0  0
  3  1  1  0  0  0
 25 20  2  0  0  0
 25 24  1  0  0  0
  1  8  1  0  0  0
  1  2  2  0  0  0
 20 21  1  0  0  0
  8  7  1  0  0  0
 11  7  1  0  0  0
 24 23  2  0  0  0
  7  6  1  0  0  0
 21 22  2  0  0  0
 23 22  1  0  0  0
 23 26  1  0  0  0
  6  5  2  0  0  0
  6 12  1  0  0  0
 28 26  1  0  0  0
 26 27  2  0  0  0
 12 13  1  0  0  0
 13 14  1  0  0  0
 18 14  1  0  0  0
 18 17  1  0  0  0
 14 15  1  0  0  0
 15 16  1  0  0  0
 17 16  1  0  0  0
  3  4  1  0  0  0
 27 29  1  0  0  0
 28 30  1  0  0  0
 28 31  1  0  0  0
M  END
> <minimizedAffinity>
-7.66361

$$$$
2ZDL_45U_A_501


 31 33  0  0  0  0  0  0  0  0999 V2000
  -27.4384    2.9679   14.8099 C   0  0  0  0  0  0  0  0  0  0  0  0
  -27.8682    3.0777   13.6810 O   0  0  0  0  0  0  0  0  0  0  0  0
  -26.2643    2.4431   15.0192 N   0  0  0  0  0  0  0  0  0  0  0  0
  -25.8941    2.5356   15.9268 H   0  0  0  0  0  0  0  0  0  0  0  0
  -28.8953    0.7494   15.7558 O   0  0  0  0  0  0  0  0  0  0  0  0
  -28.4524    1.0665   16.8503 C   0  0  0  0  0  0  0  0  0  0  0  0
  -27.9443    2.3013   17.0164 N   0  0  0  0  0  0  0  0  0  0  0  0
  -28.1940    3.3574   16.0512 C   0  0  0  0  0  0  0  0  0  0  0  0
  -27.5113    4.5617   16.6908 C   0  0  0  0  0  0  0  0  0  0  0  0
  -26.7500    4.1131   17.9286 C   0  0  0  0  0  0  0  0  0  0  0  0
  -27.3695    2.7943   18.3525 C   0  0  0  0  0  0  0  0  0  0  0  0
  -28.5752   -0.0763   17.8476 C   0  0  0  0  0  0  0  0  0  0  0  0
  -29.7123   -0.8496   17.6557 O   0  0  0  0  0  0  0  0  0  0  0  0
  -30.3716   -1.8240   18.4243 C   0  0  0  0  0  0  0  0  0  0  0  0
  -30.7662   -1.0843   19.7261 C   0  0  0  0  0  0  0  0  0  0  0  0
  -30.8626   -2.1083   20.8547 C   0  0  0  0  0  0  0  0  0  0  0  0
  -30.1323   -3.3398   20.4026 C   0  0  0  0  0  0  0  0  0  0  0  0
  -29.4160   -2.9064   19.0876 C   0  0  0  0  0  0  0  0  0  0  0  0
  -25.4387    1.7292   14.0416 C   0  0  0  0  0  0  0  0  0  0  0  0
  -24.0960    1.5870   14.7880 C   0  0  0  0  0  0  0  0  0  0  0  0
  -22.9236    1.0015   14.3233 C   0  0  0  0  0  0  0  0  0  0  0  0
  -21.7052    0.9063   15.0823 C   0  0  0  0  0  0  0  0  0  0  0  0
  -21.4916    1.3603   16.3534 C   0  0  0  0  0  0  0  0  0  0  0  0
  -22.6716    1.9424   16.7992 C   0  0  0  0  0  0  0  0  0  0  0  0
  -23.8847    2.0489   16.0738 C   0  0  0  0  0  0  0  0  0  0  0  0
  -20.2153    1.2777   17.1872 C   0  0  0  0  0  0  0  0  0  0  0  0
  -19.7945    2.2906   17.9345 N   0  0  0  0  0  0  0  0  0  0  0  0
  -19.5764    0.1115   17.0954 N   0  0  0  0  0  0  0  0  0  0  0  0
  -20.3097    3.1291   17.9623 H   0  0  0  0  0  0  0  0  0  0  0  0
  -19.9376   -0.6040   16.5237 H   0  0  0  0  0  0  0  0  0  0  0  0
  -18.7433   -0.0345   17.5993 H   0  0  0  0  0  0  0  0  0  0  0  0
  9 10  1  0  0  0
  9  8  1  0  0  0
 19  3  1  0  0  0
 19 20  1  0  0  0
 10 11  1  0  0  0
  3  1  1  0  0  0
 25 20  2  0  0  0
 25 24  1  0  0  0
  1  8  1  0  0  0
  1  2  2  0  0  0
 20 21  1  0  0  0
  8  7  1  0  0  0
 11  7  1  0  0  0
 24 23  2  0  0  0
  7  6  1  0  0  0
 21 22  2  0  0  0
 23 22  1  0  0  0
 23 26  1  0  0  0
  6  5  2  0  0  0
  6 12  1  0  0  0
 28 26  1  0  0  0
 26 27  2  0  0  0
 12 13  1  0  0  0
 13 14  1  0  0  0
 18 14  1  0  0  0
 18 17  1  0  0  0
 14 15  1  0  0  0
 15 16  1  0  0  0
 17 16  1  0  0  0
  3  4  1  0  0  0
 27 29  1  0  0  0
 28 30  1  0  0  0
 28 31  1  0  0  0
M  END
> <minimizedAffinity>
-7.62354

$$$$
2ZDL_45U_A_501


 31 33  0  0  0  0  0  0  0  0999 V2000
  -27.1130    1.2777   14.8055 C   0  0  0  0  0  0  0  0  0  0  0  0
  -27.3165    0.2532   14.1887 O   0  0  0  0  0  0  0  0  0  0  0  0
  -26.1089    2.0466   14.4918 N   0  0  0  0  0  0  0  0  0  0  0  0
  -26.0912    2.9406   14.9036 H   0  0  0  0  0  0  0  0  0  0  0  0
  -28.8442    3.3505   14.0019 O   0  0  0  0  0  0  0  0  0  0  0  0
  -29.6926    2.7344   14.6306 C   0  0  0  0  0  0  0  0  0  0  0  0
  -29.2993    1.8049   15.5205 N   0  0  0  0  0  0  0  0  0  0  0  0
  -27.9250    1.7377   15.9855 C   0  0  0  0  0  0  0  0  0  0  0  0
  -27.9774    0.6178   17.0191 C   0  0  0  0  0  0  0  0  0  0  0  0
  -29.3525   -0.0313   16.9924 C   0  0  0  0  0  0  0  0  0  0  0  0
  -30.2877    0.9832   16.3607 C   0  0  0  0  0  0  0  0  0  0  0  0
  -31.0962    3.1765   14.2430 C   0  0  0  0  0  0  0  0  0  0  0  0
  -31.6558    2.4000   13.2372 O   0  0  0  0  0  0  0  0  0  0  0  0
  -31.5874    1.0365   12.9040 C   0  0  0  0  0  0  0  0  0  0  0  0
  -32.1147    0.9694   11.4497 C   0  0  0  0  0  0  0  0  0  0  0  0
  -32.7089   -0.4172   11.2135 C   0  0  0  0  0  0  0  0  0  0  0  0
  -32.9572   -1.0310   12.5611 C   0  0  0  0  0  0  0  0  0  0  0  0
  -32.7118    0.1321   13.5694 C   0  0  0  0  0  0  0  0  0  0  0  0
  -25.0034    1.7162   13.5887 C   0  0  0  0  0  0  0  0  0  0  0  0
  -23.8069    1.6175   14.5575 C   0  0  0  0  0  0  0  0  0  0  0  0
  -23.7525    2.0277   15.8850 C   0  0  0  0  0  0  0  0  0  0  0  0
  -22.5942    1.9015   16.7289 C   0  0  0  0  0  0  0  0  0  0  0  0
  -21.3816    1.3729   16.3860 C   0  0  0  0  0  0  0  0  0  0  0  0
  -21.4559    0.9680   15.0591 C   0  0  0  0  0  0  0  0  0  0  0  0
  -22.5822    1.0808   14.2060 C   0  0  0  0  0  0  0  0  0  0  0  0
  -20.1340    1.2224   17.2532 C   0  0  0  0  0  0  0  0  0  0  0  0
  -19.7147    2.1899   18.0591 N   0  0  0  0  0  0  0  0  0  0  0  0
  -19.5183    0.0470   17.1266 N   0  0  0  0  0  0  0  0  0  0  0  0
  -20.2120    3.0380   18.1103 H   0  0  0  0  0  0  0  0  0  0  0  0
  -19.8771   -0.6329   16.5116 H   0  0  0  0  0  0  0  0  0  0  0  0
  -18.7048   -0.1412   17.6481 H   0  0  0  0  0  0  0  0  0  0  0  0
  9 10  1  0  0  0
  9  8  1  0  0  0
 19  3  1  0  0  0
 19 20  1  0  0  0
 10 11  1  0  0  0
  3  1  1  0  0  0
 25 20  2  0  0  0
 25 24  1  0  0  0
  1  8  1  0  0  0
  1  2  2  0  0  0
 20 21  1  0  0  0
  8  7  1  0  0  0
 11  7  1  0  0  0
 24 23  2  0  0  0
  7  6  1  0  0  0
 21 22  2  0  0  0
 23 22  1  0  0  0
 23 26  1  0  0  0
  6  5  2  0  0  0
  6 12  1  0  0  0
 28 26  1  0  0  0
 26 27  2  0  0  0
 12 13  1  0  0  0
 13 14  1  0  0  0
 18 14  1  0  0  0
 18 17  1  0  0  0
 14 15  1  0  0  0
 15 16  1  0  0  0
 17 16  1  0  0  0
  3  4  1  0  0  0
 27 29  1  0  0  0
 28 30  1  0  0  0
 28 31  1  0  0  0
M  END
> <minimizedAffinity>
-7.23424

$$$$
2ZDL_45U_A_501


 31 33  0  0  0  0  0  0  0  0999 V2000
  -29.4144    1.3994   13.6258 C   0  0  0  0  0  0  0  0  0  0  0  0
  -29.5023    0.5467   12.7676 O   0  0  0  0  0  0  0  0  0  0  0  0
  -30.0364    1.2566   14.7619 N   0  0  0  0  0  0  0  0  0  0  0  0
  -29.7949    1.8850   15.4801 H   0  0  0  0  0  0  0  0  0  0  0  0
  -26.9105    1.1726   14.8979 O   0  0  0  0  0  0  0  0  0  0  0  0
  -26.4709    1.6811   13.8768 C   0  0  0  0  0  0  0  0  0  0  0  0
  -27.3183    2.3151   13.0458 N   0  0  0  0  0  0  0  0  0  0  0  0
  -28.6556    2.6892   13.4712 C   0  0  0  0  0  0  0  0  0  0  0  0
  -29.1937    3.4396   12.2576 C   0  0  0  0  0  0  0  0  0  0  0  0
  -28.1998    3.3272   11.1120 C   0  0  0  0  0  0  0  0  0  0  0  0
  -26.8620    2.9885   11.7431 C   0  0  0  0  0  0  0  0  0  0  0  0
  -24.9686    1.4696   13.7574 C   0  0  0  0  0  0  0  0  0  0  0  0
  -24.2623    1.9309   14.8601 O   0  0  0  0  0  0  0  0  0  0  0  0
  -22.8990    2.1424   15.1278 C   0  0  0  0  0  0  0  0  0  0  0  0
  -22.2263    0.7901   14.7868 C   0  0  0  0  0  0  0  0  0  0  0  0
  -20.9549    0.6575   15.6221 C   0  0  0  0  0  0  0  0  0  0  0  0
  -21.0571    1.6445   16.7489 C   0  0  0  0  0  0  0  0  0  0  0  0
  -22.5213    2.1736   16.6709 C   0  0  0  0  0  0  0  0  0  0  0  0
  -31.0587    0.2561   15.0793 C   0  0  0  0  0  0  0  0  0  0  0  0
  -30.5959   -0.2595   16.4578 C   0  0  0  0  0  0  0  0  0  0  0  0
  -29.3662   -0.0531   17.0729 C   0  0  0  0  0  0  0  0  0  0  0  0
  -29.0068   -0.5690   18.3669 C   0  0  0  0  0  0  0  0  0  0  0  0
  -29.7858   -1.3286   19.1938 C   0  0  0  0  0  0  0  0  0  0  0  0
  -31.0086   -1.5225   18.5637 C   0  0  0  0  0  0  0  0  0  0  0  0
  -31.3883   -1.0270   17.2911 C   0  0  0  0  0  0  0  0  0  0  0  0
  -29.4387   -1.8912   20.5700 C   0  0  0  0  0  0  0  0  0  0  0  0
  -29.4688   -3.1927   20.8277 N   0  0  0  0  0  0  0  0  0  0  0  0
  -29.1072   -0.9666   21.4712 N   0  0  0  0  0  0  0  0  0  0  0  0
  -29.7219   -3.8289   20.1203 H   0  0  0  0  0  0  0  0  0  0  0  0
  -29.1029   -0.0145   21.2209 H   0  0  0  0  0  0  0  0  0  0  0  0
  -28.8667   -1.2359   22.3871 H   0  0  0  0  0  0  0  0  0  0  0  0
  9 10  1  0  0  0
  9  8  1  0  0  0
 19  3  1  0  0  0
 19 20  1  0  0  0
 10 11  1  0  0  0
  3  1  1  0  0  0
 25 20  2  0  0  0
 25 24  1  0  0  0
  1  8  1  0  0  0
  1  2  2  0  0  0
 20 21  1  0  0  0
  8  7  1  0  0  0
 11  7  1  0  0  0
 24 23  2  0  0  0
  7  6  1  0  0  0
 21 22  2  0  0  0
 23 22  1  0  0  0
 23 26  1  0  0  0
  6  5  2  0  0  0
  6 12  1  0  0  0
 28 26  1  0  0  0
 26 27  2  0  0  0
 12 13  1  0  0  0
 13 14  1  0  0  0
 18 14  1  0  0  0
 18 17  1  0  0  0
 14 15  1  0  0  0
 15 16  1  0  0  0
 17 16  1  0  0  0
  3  4  1  0  0  0
 27 29  1  0  0  0
 28 30  1  0  0  0
 28 31  1  0  0  0
M  END
> <minimizedAffinity>
-7.22484

$$$$
2ZDL_45U_A_501


 31 33  0  0  0  0  0  0  0  0999 V2000
  -27.0478    1.5189   14.1131 C   0  0  0  0  0  0  0  0  0  0  0  0
  -27.4455    2.5717   13.6605 O   0  0  0  0  0  0  0  0  0  0  0  0
  -25.7722    1.2542   14.1408 N   0  0  0  0  0  0  0  0  0  0  0  0
  -25.4945    0.4720   14.6702 H   0  0  0  0  0  0  0  0  0  0  0  0
  -26.8017    1.3402   16.9143 O   0  0  0  0  0  0  0  0  0  0  0  0
  -28.0228    1.2827   16.9060 C   0  0  0  0  0  0  0  0  0  0  0  0
  -28.6547    0.9836   15.7562 N   0  0  0  0  0  0  0  0  0  0  0  0
  -27.9390    0.4203   14.6250 C   0  0  0  0  0  0  0  0  0  0  0  0
  -29.0541    0.1739   13.6143 C   0  0  0  0  0  0  0  0  0  0  0  0
  -30.3543    0.7593   14.1431 C   0  0  0  0  0  0  0  0  0  0  0  0
  -30.1832    0.8831   15.6459 C   0  0  0  0  0  0  0  0  0  0  0  0
  -28.5991    1.5849   18.2816 C   0  0  0  0  0  0  0  0  0  0  0  0
  -28.9872    2.9094   18.4327 O   0  0  0  0  0  0  0  0  0  0  0  0
  -28.5398    3.9725   19.2355 C   0  0  0  0  0  0  0  0  0  0  0  0
  -28.6405    5.2157   18.3180 C   0  0  0  0  0  0  0  0  0  0  0  0
  -27.6146    6.2460   18.7843 C   0  0  0  0  0  0  0  0  0  0  0  0
  -26.6190    5.5249   19.6463 C   0  0  0  0  0  0  0  0  0  0  0  0
  -26.9681    4.0166   19.4652 C   0  0  0  0  0  0  0  0  0  0  0  0
  -24.7091    2.0020   13.4645 C   0  0  0  0  0  0  0  0  0  0  0  0
  -23.4985    1.7599   14.3897 C   0  0  0  0  0  0  0  0  0  0  0  0
  -22.2805    1.1759   14.0599 C   0  0  0  0  0  0  0  0  0  0  0  0
  -21.1937    0.9837   14.9827 C   0  0  0  0  0  0  0  0  0  0  0  0
  -21.1672    1.3303   16.3043 C   0  0  0  0  0  0  0  0  0  0  0  0
  -22.3899    1.9125   16.6142 C   0  0  0  0  0  0  0  0  0  0  0  0
  -23.4763    2.1133   15.7261 C   0  0  0  0  0  0  0  0  0  0  0  0
  -20.0344    1.1429   17.3106 C   0  0  0  0  0  0  0  0  0  0  0  0
  -19.7427    2.0614   18.2230 N   0  0  0  0  0  0  0  0  0  0  0  0
  -19.3792   -0.0114   17.1880 N   0  0  0  0  0  0  0  0  0  0  0  0
  -20.2630    2.8962   18.2650 H   0  0  0  0  0  0  0  0  0  0  0  0
  -19.6417   -0.6548   16.4905 H   0  0  0  0  0  0  0  0  0  0  0  0
  -18.6327   -0.2206   17.7949 H   0  0  0  0  0  0  0  0  0  0  0  0
  9 10  1  0  0  0
  9  8  1  0  0  0
 19  3  1  0  0  0
 19 20  1  0  0  0
 10 11  1  0  0  0
  3  1  1  0  0  0
 25 20  2  0  0  0
 25 24  1  0  0  0
  1  8  1  0  0  0
  1  2  2  0  0  0
 20 21  1  0  0  0
  8  7  1  0  0  0
 11  7  1  0  0  0
 24 23  2  0  0  0
  7  6  1  0  0  0
 21 22  2  0  0  0
 23 22  1  0  0  0
 23 26  1  0  0  0
  6  5  2  0  0  0
  6 12  1  0  0  0
 28 26  1  0  0  0
 26 27  2  0  0  0
 12 13  1  0  0  0
 13 14  1  0  0  0
 18 14  1  0  0  0
 18 17  1  0  0  0
 14 15  1  0  0  0
 15 16  1  0  0  0
 17 16  1  0  0  0
  3  4  1  0  0  0
 27 29  1  0  0  0
 28 30  1  0  0  0
 28 31  1  0  0  0
M  END
> <minimizedAffinity>
-7.14558

$$$$
2ZDL_45U_A_501


 31 33  0  0  0  0  0  0  0  0999 V2000
  -28.5803    3.7494   15.9561 C   0  0  0  0  0  0  0  0  0  0  0  0
  -29.4236    3.4821   15.1262 O   0  0  0  0  0  0  0  0  0  0  0  0
  -27.4021    3.1957   15.8994 N   0  0  0  0  0  0  0  0  0  0  0  0
  -26.7075    3.5735   16.4860 H   0  0  0  0  0  0  0  0  0  0  0  0
  -30.0476    2.4006   17.9478 O   0  0  0  0  0  0  0  0  0  0  0  0
  -29.2186    2.8660   18.7163 C   0  0  0  0  0  0  0  0  0  0  0  0
  -28.4554    3.8963   18.3080 N   0  0  0  0  0  0  0  0  0  0  0  0
  -28.7979    4.6688   17.1268 C   0  0  0  0  0  0  0  0  0  0  0  0
  -27.7244    5.7518   17.1141 C   0  0  0  0  0  0  0  0  0  0  0  0
  -26.7020    5.4633   18.2024 C   0  0  0  0  0  0  0  0  0  0  0  0
  -27.3915    4.5517   19.2007 C   0  0  0  0  0  0  0  0  0  0  0  0
  -29.2269    2.1308   20.0487 C   0  0  0  0  0  0  0  0  0  0  0  0
  -28.9131    0.7834   19.9315 O   0  0  0  0  0  0  0  0  0  0  0  0
  -29.6631   -0.3741   19.6621 C   0  0  0  0  0  0  0  0  0  0  0  0
  -29.3734   -1.3078   20.8628 C   0  0  0  0  0  0  0  0  0  0  0  0
  -29.5489   -2.7539   20.4050 C   0  0  0  0  0  0  0  0  0  0  0  0
  -29.5029   -2.7549   18.9043 C   0  0  0  0  0  0  0  0  0  0  0  0
  -29.0594   -1.3088   18.5278 C   0  0  0  0  0  0  0  0  0  0  0  0
  -27.0056    2.0683   15.0517 C   0  0  0  0  0  0  0  0  0  0  0  0
  -25.4981    1.9444   15.3550 C   0  0  0  0  0  0  0  0  0  0  0  0
  -24.8491    2.2043   16.5569 C   0  0  0  0  0  0  0  0  0  0  0  0
  -23.4322    2.0647   16.7636 C   0  0  0  0  0  0  0  0  0  0  0  0
  -22.5035    1.6645   15.8444 C   0  0  0  0  0  0  0  0  0  0  0  0
  -23.1700    1.4083   14.6527 C   0  0  0  0  0  0  0  0  0  0  0  0
  -24.5625    1.5381   14.4218 C   0  0  0  0  0  0  0  0  0  0  0  0
  -20.9963    1.5044   16.0281 C   0  0  0  0  0  0  0  0  0  0  0  0
  -20.2583    0.7769   15.1990 N   0  0  0  0  0  0  0  0  0  0  0  0
  -20.5015    2.1549   17.0811 N   0  0  0  0  0  0  0  0  0  0  0  0
  -20.6809    0.3186   14.4370 H   0  0  0  0  0  0  0  0  0  0  0  0
  -21.0994    2.6794   17.6612 H   0  0  0  0  0  0  0  0  0  0  0  0
  -19.5380    2.1107   17.2788 H   0  0  0  0  0  0  0  0  0  0  0  0
  9 10  1  0  0  0
  9  8  1  0  0  0
 19  3  1  0  0  0
 19 20  1  0  0  0
 10 11  1  0  0  0
  3  1  1  0  0  0
 25 20  2  0  0  0
 25 24  1  0  0  0
  1  8  1  0  0  0
  1  2  2  0  0  0
 20 21  1  0  0  0
  8  7  1  0  0  0
 11  7  1  0  0  0
 24 23  2  0  0  0
  7  6  1  0  0  0
 21 22  2  0  0  0
 23 22  1  0  0  0
 23 26  1  0  0  0
  6  5  2  0  0  0
  6 12  1  0  0  0
 28 26  1  0  0  0
 26 27  2  0  0  0
 12 13  1  0  0  0
 13 14  1  0  0  0
 18 14  1  0  0  0
 18 17  1  0  0  0
 14 15  1  0  0  0
 15 16  1  0  0  0
 17 16  1  0  0  0
  3  4  1  0  0  0
 27 29  1  0  0  0
 28 30  1  0  0  0
 28 31  1  0  0  0
M  END
> <minimizedAffinity>
-6.52545

$$$$
2ZDL_45U_A_501


 31 33  0  0  0  0  0  0  0  0999 V2000
  -28.7232    2.6124   14.6358 C   0  0  0  0  0  0  0  0  0  0  0  0
  -29.5262    3.1977   13.9401 O   0  0  0  0  0  0  0  0  0  0  0  0
  -29.0545    1.5021   15.2319 N   0  0  0  0  0  0  0  0  0  0  0  0
  -28.3230    0.9830   15.6378 H   0  0  0  0  0  0  0  0  0  0  0  0
  -28.7342    4.1319   17.0085 O   0  0  0  0  0  0  0  0  0  0  0  0
  -27.7423    3.4792   17.2991 C   0  0  0  0  0  0  0  0  0  0  0  0
  -27.0906    2.8141   16.3277 N   0  0  0  0  0  0  0  0  0  0  0  0
  -27.3297    3.1007   14.9242 C   0  0  0  0  0  0  0  0  0  0  0  0
  -26.3288    2.1889   14.2226 C   0  0  0  0  0  0  0  0  0  0  0  0
  -25.6607    1.2869   15.2487 C   0  0  0  0  0  0  0  0  0  0  0  0
  -25.8338    1.9719   16.5917 C   0  0  0  0  0  0  0  0  0  0  0  0
  -27.4440    3.5618   18.7890 C   0  0  0  0  0  0  0  0  0  0  0  0
  -27.8280    2.4249   19.4874 O   0  0  0  0  0  0  0  0  0  0  0  0
  -28.3496    2.1980   20.7724 C   0  0  0  0  0  0  0  0  0  0  0  0
  -27.6131    0.9292   21.2675 C   0  0  0  0  0  0  0  0  0  0  0  0
  -28.5056    0.2152   22.2801 C   0  0  0  0  0  0  0  0  0  0  0  0
  -29.8989    0.7437   22.0965 C   0  0  0  0  0  0  0  0  0  0  0  0
  -29.8218    1.6004   20.7966 C   0  0  0  0  0  0  0  0  0  0  0  0
  -30.4046    0.9474   15.3598 C   0  0  0  0  0  0  0  0  0  0  0  0
  -30.2576    0.0031   16.5710 C   0  0  0  0  0  0  0  0  0  0  0  0
  -29.1199   -0.2254   17.3370 C   0  0  0  0  0  0  0  0  0  0  0  0
  -29.0606   -1.1258   18.4575 C   0  0  0  0  0  0  0  0  0  0  0  0
  -30.0795   -1.8909   18.9513 C   0  0  0  0  0  0  0  0  0  0  0  0
  -31.2060   -1.6482   18.1754 C   0  0  0  0  0  0  0  0  0  0  0  0
  -31.2919   -0.7683   17.0674 C   0  0  0  0  0  0  0  0  0  0  0  0
  -30.0531   -2.8541   20.1356 C   0  0  0  0  0  0  0  0  0  0  0  0
  -29.3735   -3.9936   20.1027 N   0  0  0  0  0  0  0  0  0  0  0  0
  -30.7640   -2.4476   21.1873 N   0  0  0  0  0  0  0  0  0  0  0  0
  -28.8660   -4.2409   19.2961 H   0  0  0  0  0  0  0  0  0  0  0  0
  -31.2481   -1.5910   21.1529 H   0  0  0  0  0  0  0  0  0  0  0  0
  -30.8049   -3.0038   21.9986 H   0  0  0  0  0  0  0  0  0  0  0  0
  9 10  1  0  0  0
  9  8  1  0  0  0
 19  3  1  0  0  0
 19 20  1  0  0  0
 10 11  1  0  0  0
  3  1  1  0  0  0
 25 20  2  0  0  0
 25 24  1  0  0  0
  1  8  1  0  0  0
  1  2  2  0  0  0
 20 21  1  0  0  0
  8  7  1  0  0  0
 11  7  1  0  0  0
 24 23  2  0  0  0
  7  6  1  0  0  0
 21 22  2  0  0  0
 23 22  1  0  0  0
 23 26  1  0  0  0
  6  5  2  0  0  0
  6 12  1  0  0  0
 28 26  1  0  0  0
 26 27  2  0  0  0
 12 13  1  0  0  0
 13 14  1  0  0  0
 18 14  1  0  0  0
 18 17  1  0  0  0
 14 15  1  0  0  0
 15 16  1  0  0  0
 17 16  1  0  0  0
  3  4  1  0  0  0
 27 29  1  0  0  0
 28 30  1  0  0  0
 28 31  1  0  0  0
M  END
> <minimizedAffinity>
-6.33411

$$$$
2ZDL_45U_A_501


 31 33  0  0  0  0  0  0  0  0999 V2000
  -27.0226    1.2708   14.9519 C   0  0  0  0  0  0  0  0  0  0  0  0
  -27.1900    0.2208   14.3680 O   0  0  0  0  0  0  0  0  0  0  0  0
  -26.0482    2.0658   14.6105 N   0  0  0  0  0  0  0  0  0  0  0  0
  -26.0622    2.9723   14.9943 H   0  0  0  0  0  0  0  0  0  0  0  0
  -29.0640    2.9826   14.0346 O   0  0  0  0  0  0  0  0  0  0  0  0
  -29.7903    2.3253   14.7661 C   0  0  0  0  0  0  0  0  0  0  0  0
  -29.2336    1.5613   15.7237 N   0  0  0  0  0  0  0  0  0  0  0  0
  -27.8476    1.7373   16.1202 C   0  0  0  0  0  0  0  0  0  0  0  0
  -27.6987    0.7390   17.2634 C   0  0  0  0  0  0  0  0  0  0  0  0
  -28.9656   -0.0949   17.3748 C   0  0  0  0  0  0  0  0  0  0  0  0
  -30.0607    0.7049   16.6937 C   0  0  0  0  0  0  0  0  0  0  0  0
  -31.2566    2.5225   14.4101 C   0  0  0  0  0  0  0  0  0  0  0  0
  -31.8615    3.5439   15.1303 O   0  0  0  0  0  0  0  0  0  0  0  0
  -32.3910    3.6422   16.4283 C   0  0  0  0  0  0  0  0  0  0  0  0
  -33.2931    4.8998   16.3810 C   0  0  0  0  0  0  0  0  0  0  0  0
  -33.3784    5.4878   17.7876 C   0  0  0  0  0  0  0  0  0  0  0  0
  -32.2412    4.9119   18.5809 C   0  0  0  0  0  0  0  0  0  0  0  0
  -31.3687    4.1670   17.5256 C   0  0  0  0  0  0  0  0  0  0  0  0
  -24.9339    1.7482   13.7137 C   0  0  0  0  0  0  0  0  0  0  0  0
  -23.7423    1.6606   14.6897 C   0  0  0  0  0  0  0  0  0  0  0  0
  -23.6704    2.1510   15.9888 C   0  0  0  0  0  0  0  0  0  0  0  0
  -22.5182    2.0298   16.8418 C   0  0  0  0  0  0  0  0  0  0  0  0
  -21.3289    1.4303   16.5357 C   0  0  0  0  0  0  0  0  0  0  0  0
  -21.4205    0.9461   15.2368 C   0  0  0  0  0  0  0  0  0  0  0  0
  -22.5413    1.0521   14.3756 C   0  0  0  0  0  0  0  0  0  0  0  0
  -20.0885    1.2827   17.4136 C   0  0  0  0  0  0  0  0  0  0  0  0
  -19.9135    2.0040   18.5137 N   0  0  0  0  0  0  0  0  0  0  0  0
  -19.2148    0.3752   16.9778 N   0  0  0  0  0  0  0  0  0  0  0  0
  -20.5951    2.6603   18.7857 H   0  0  0  0  0  0  0  0  0  0  0  0
  -19.3997   -0.1300   16.1533 H   0  0  0  0  0  0  0  0  0  0  0  0
  -18.3845    0.2102   17.4805 H   0  0  0  0  0  0  0  0  0  0  0  0
  9 10  1  0  0  0
  9  8  1  0  0  0
 19  3  1  0  0  0
 19 20  1  0  0  0
 10 11  1  0  0  0
  3  1  1  0  0  0
 25 20  2  0  0  0
 25 24  1  0  0  0
  1  8  1  0  0  0
  1  2  2  0  0  0
 20 21  1  0  0  0
  8  7  1  0  0  0
 11  7  1  0  0  0
 24 23  2  0  0  0
  7  6  1  0  0  0
 21 22  2  0  0  0
 23 22  1  0  0  0
 23 26  1  0  0  0
  6  5  2  0  0  0
  6 12  1  0  0  0
 28 26  1  0  0  0
 26 27  2  0  0  0
 12 13  1  0  0  0
 13 14  1  0  0  0
 18 14  1  0  0  0
 18 17  1  0  0  0
 14 15  1  0  0  0
 15 16  1  0  0  0
 17 16  1  0  0  0
  3  4  1  0  0  0
 27 29  1  0  0  0
 28 30  1  0  0  0
 28 31  1  0  0  0
M  END
> <minimizedAffinity>
-6.32214

$$$$
2ZDL_45U_A_501


 31 33  0  0  0  0  0  0  0  0999 V2000
  -33.3190    1.0779   15.2293 C   0  0  0  0  0  0  0  0  0  0  0  0
  -34.0633    0.3114   14.6547 O   0  0  0  0  0  0  0  0  0  0  0  0
  -32.0446    1.0858   14.9578 N   0  0  0  0  0  0  0  0  0  0  0  0
  -31.5201    1.8359   15.3203 H   0  0  0  0  0  0  0  0  0  0  0  0
  -32.9664   -0.1403   17.7454 O   0  0  0  0  0  0  0  0  0  0  0  0
  -32.4614    0.9258   18.0662 C   0  0  0  0  0  0  0  0  0  0  0  0
  -32.6853    2.0106   17.3023 N   0  0  0  0  0  0  0  0  0  0  0  0
  -33.7471    2.0311   16.3116 C   0  0  0  0  0  0  0  0  0  0  0  0
  -33.6747    3.4567   15.7749 C   0  0  0  0  0  0  0  0  0  0  0  0
  -32.4607    4.1579   16.3642 C   0  0  0  0  0  0  0  0  0  0  0  0
  -32.0999    3.3934   17.6244 C   0  0  0  0  0  0  0  0  0  0  0  0
  -31.6343    0.7850   19.3358 C   0  0  0  0  0  0  0  0  0  0  0  0
  -30.3031    0.4767   19.0896 O   0  0  0  0  0  0  0  0  0  0  0  0
  -29.4694   -0.5994   19.4386 C   0  0  0  0  0  0  0  0  0  0  0  0
  -29.7843   -1.6875   18.3829 C   0  0  0  0  0  0  0  0  0  0  0  0
  -29.4930   -3.0554   18.9956 C   0  0  0  0  0  0  0  0  0  0  0  0
  -29.4369   -2.8737   20.4849 C   0  0  0  0  0  0  0  0  0  0  0  0
  -29.9385   -1.4163   20.7181 C   0  0  0  0  0  0  0  0  0  0  0  0
  -31.3126    0.0921   14.1682 C   0  0  0  0  0  0  0  0  0  0  0  0
  -29.8443    0.4159   14.5136 C   0  0  0  0  0  0  0  0  0  0  0  0
  -28.7436    0.3778   13.6648 C   0  0  0  0  0  0  0  0  0  0  0  0
  -27.3979    0.6953   14.0625 C   0  0  0  0  0  0  0  0  0  0  0  0
  -26.9772    1.0784   15.3050 C   0  0  0  0  0  0  0  0  0  0  0  0
  -28.0892    1.1121   16.1371 C   0  0  0  0  0  0  0  0  0  0  0  0
  -29.4238    0.8040   15.7721 C   0  0  0  0  0  0  0  0  0  0  0  0
  -25.5617    1.4231   15.7617 C   0  0  0  0  0  0  0  0  0  0  0  0
  -25.2931    1.7919   17.0079 N   0  0  0  0  0  0  0  0  0  0  0  0
  -24.6380    1.3184   14.8064 N   0  0  0  0  0  0  0  0  0  0  0  0
  -26.0185    1.8513   17.6709 H   0  0  0  0  0  0  0  0  0  0  0  0
  -24.8980    1.0396   13.8987 H   0  0  0  0  0  0  0  0  0  0  0  0
  -23.6958    1.5200   15.0085 H   0  0  0  0  0  0  0  0  0  0  0  0
  9 10  1  0  0  0
  9  8  1  0  0  0
 19  3  1  0  0  0
 19 20  1  0  0  0
 10 11  1  0  0  0
  3  1  1  0  0  0
 25 20  2  0  0  0
 25 24  1  0  0  0
  1  8  1  0  0  0
  1  2  2  0  0  0
 20 21  1  0  0  0
  8  7  1  0  0  0
 11  7  1  0  0  0
 24 23  2  0  0  0
  7  6  1  0  0  0
 21 22  2  0  0  0
 23 22  1  0  0  0
 23 26  1  0  0  0
  6  5  2  0  0  0
  6 12  1  0  0  0
 28 26  1  0  0  0
 26 27  2  0  0  0
 12 13  1  0  0  0
 13 14  1  0  0  0
 18 14  1  0  0  0
 18 17  1  0  0  0
 14 15  1  0  0  0
 15 16  1  0  0  0
 17 16  1  0  0  0
  3  4  1  0  0  0
 27 29  1  0  0  0
 28 30  1  0  0  0
 28 31  1  0  0  0
M  END
> <minimizedAffinity>
-6.08855

$$$$
