4MDN_Y30_A_201


 43 46  0  0  0  0  0  0  0  0999 V2000
  -17.3897   -4.8222    4.0460 C   0  0  0  0  0  0  0  0  0  0  0  0
  -15.4094   -4.6087    2.2423 C   0  0  0  0  0  0  0  0  0  0  0  0
  -15.2738   -3.7718    1.2071 N   0  0  0  0  0  0  0  0  0  0  0  0
  -16.3281   -2.9356    1.1725 C   0  0  0  0  0  0  0  0  0  0  0  0
  -16.6336   -1.9215    0.3035 C   0  0  0  0  0  0  0  0  0  0  0  0
  -17.7945   -1.2121    0.4837 C   0  0  0  0  0  0  0  0  0  0  0  0
  -18.1261    0.0599   -0.6994 Cl  0  0  0  0  0  0  0  0  0  0  0  0
  -18.6610   -1.4840    1.5373 C   0  0  0  0  0  0  0  0  0  0  0  0
  -18.3493   -2.5059    2.4257 C   0  0  0  0  0  0  0  0  0  0  0  0
  -17.1812   -3.2262    2.2268 C   0  0  0  0  0  0  0  0  0  0  0  0
  -16.5837   -4.2606    2.9208 C   0  0  0  0  0  0  0  0  0  0  0  0
  -14.5220   -3.7682    0.5714 H   0  0  0  0  0  0  0  0  0  0  0  0
  -14.2276   -6.5408    1.6932 O   0  0  0  0  0  0  0  0  0  0  0  0
  -14.4179   -5.6647    2.5712 C   0  0  0  0  0  0  0  0  0  0  0  0
  -13.8349   -5.6819    3.6706 O   0  0  0  0  0  0  0  0  0  0  0  0
  -14.0036   -5.0095    4.3010 H   0  0  0  0  0  0  0  0  0  0  0  0
  -17.7261   -3.9806    5.2634 C   0  0  0  0  0  0  0  0  0  0  0  0
  -16.7958   -3.1509    5.7630 N   0  0  0  0  0  0  0  0  0  0  0  0
  -18.8529   -4.0651    5.6969 O   0  0  0  0  0  0  0  0  0  0  0  0
  -15.9087   -3.1504    5.3360 H   0  0  0  0  0  0  0  0  0  0  0  0
  -17.0042   -2.2452    6.8984 C   0  0  0  0  0  0  0  0  0  0  0  0
  -17.9998   -1.1463    6.5495 C   0  0  0  0  0  0  0  0  0  0  0  0
  -15.7015   -1.5188    7.1811 C   0  0  0  0  0  0  0  0  0  0  0  0
  -17.4772   -2.9490    8.1672 C   0  0  0  0  0  0  0  0  0  0  0  0
  -17.3055   -6.2974    4.0269 N   0  0  0  0  0  0  0  0  0  0  0  0
  -18.4720   -7.0463    4.0094 C   0  0  0  0  0  0  0  0  0  0  0  0
  -18.8875   -8.1715    4.0121 O   0  0  0  0  0  0  0  0  0  0  0  0
  -18.5977   -5.6714    3.4899 C   0  0  0  0  0  0  0  0  0  0  0  0
  -18.9818   -6.0220    2.0201 C   0  0  0  0  0  0  0  0  0  0  0  0
  -20.0344   -5.4050    1.3431 C   0  0  0  0  0  0  0  0  0  0  0  0
  -20.3873   -5.7168    0.0206 C   0  0  0  0  0  0  0  0  0  0  0  0
  -18.2697   -6.9533    1.2429 C   0  0  0  0  0  0  0  0  0  0  0  0
  -18.6177   -7.2827   -0.0929 C   0  0  0  0  0  0  0  0  0  0  0  0
  -19.7052   -6.6684   -0.7334 C   0  0  0  0  0  0  0  0  0  0  0  0
  -20.1395   -6.8700   -2.0530 O   0  0  0  0  0  0  0  0  0  0  0  0
  -20.7130   -5.9155   -2.9861 C   0  0  0  0  0  0  0  0  0  0  0  0
  -20.1873   -6.2810   -4.3654 C   0  0  0  0  0  0  0  0  0  0  0  0
  -19.9970   -7.6219   -4.7060 C   0  0  0  0  0  0  0  0  0  0  0  0
  -19.8755   -5.2896   -5.2884 C   0  0  0  0  0  0  0  0  0  0  0  0
  -19.3674   -5.6252   -6.5384 C   0  0  0  0  0  0  0  0  0  0  0  0
  -19.1717   -6.9695   -6.8563 C   0  0  0  0  0  0  0  0  0  0  0  0
  -18.5042   -7.3917   -8.4585 Cl  0  0  0  0  0  0  0  0  0  0  0  0
  -19.4843   -7.9781   -5.9503 C   0  0  0  0  0  0  0  0  0  0  0  0
 42 41  1  0  0  0
 41 40  2  0  0  0
 41 43  1  0  0  0
 40 39  1  0  0  0
 43 38  2  0  0  0
 39 37  2  0  0  0
 38 37  1  0  0  0
 37 36  1  0  0  0
 36 35  1  0  0  0
 35 34  1  0  0  0
 34 31  2  0  0  0
 34 33  1  0  0  0
  7  6  1  0  0  0
 31 30  1  0  0  0
 33 32  2  0  0  0
  5  6  2  0  0  0
  5  4  1  0  0  0
  6  8  1  0  0  0
  3  4  1  0  0  0
  3  2  1  0  0  0
  4 10  2  0  0  0
 30 29  2  0  0  0
 32 29  1  0  0  0
 13 14  2  0  0  0
  8  9  2  0  0  0
 29 28  1  0  0  0
  2 14  1  0  0  0
  2 11  2  0  0  0
 10  9  1  0  0  0
 10 11  1  0  0  0
 14 15  1  0  0  0
 11  1  1  0  0  0
 28 25  1  0  0  0
  1 25  1  0  0  0
  1 17  1  0  0  0
 25 26  1  0  0  0
 26 27  2  0  0  0
 17 18  1  0  0  0
 17 19  2  0  0  0
 18 21  1  0  0  0
 22 21  1  0  0  0
 21 23  1  0  0  0
 21 24  1  0  0  0
 15 16  1  0  0  0
  3 12  1  0  0  0
 18 20  1  0  0  0
M  END
> <minimizedAffinity>
-10.41859

$$$$
4MDN_Y30_A_201


 43 46  0  0  0  0  0  0  0  0999 V2000
  -16.7704   -4.5212    4.1685 C   0  0  0  0  0  0  0  0  0  0  0  0
  -15.0759   -4.4836    2.0833 C   0  0  0  0  0  0  0  0  0  0  0  0
  -13.8466   -4.9980    1.9632 N   0  0  0  0  0  0  0  0  0  0  0  0
  -13.5182   -5.6320    3.1043 C   0  0  0  0  0  0  0  0  0  0  0  0
  -12.3749   -6.3000    3.4559 C   0  0  0  0  0  0  0  0  0  0  0  0
  -12.2842   -6.8606    4.7053 C   0  0  0  0  0  0  0  0  0  0  0  0
  -10.7638   -7.6790    5.0874 Cl  0  0  0  0  0  0  0  0  0  0  0  0
  -13.3308   -6.7840    5.6183 C   0  0  0  0  0  0  0  0  0  0  0  0
  -14.4951   -6.1149    5.2613 C   0  0  0  0  0  0  0  0  0  0  0  0
  -14.5716   -5.5397    4.0019 C   0  0  0  0  0  0  0  0  0  0  0  0
  -15.5671   -4.8432    3.3443 C   0  0  0  0  0  0  0  0  0  0  0  0
  -13.2731   -4.9245    1.1663 H   0  0  0  0  0  0  0  0  0  0  0  0
  -15.9454   -2.4985    1.2265 O   0  0  0  0  0  0  0  0  0  0  0  0
  -15.7474   -3.7172    1.0025 C   0  0  0  0  0  0  0  0  0  0  0  0
  -16.1113   -4.2714   -0.0507 O   0  0  0  0  0  0  0  0  0  0  0  0
  -15.9453   -5.1843   -0.1813 H   0  0  0  0  0  0  0  0  0  0  0  0
  -16.8289   -3.2572    5.0066 C   0  0  0  0  0  0  0  0  0  0  0  0
  -17.1451   -3.3490    6.3085 N   0  0  0  0  0  0  0  0  0  0  0  0
  -16.5320   -2.2194    4.4592 O   0  0  0  0  0  0  0  0  0  0  0  0
  -17.3659   -4.2408    6.6624 H   0  0  0  0  0  0  0  0  0  0  0  0
  -17.1856   -2.2181    7.2424 C   0  0  0  0  0  0  0  0  0  0  0  0
  -15.8124   -1.5744    7.3862 C   0  0  0  0  0  0  0  0  0  0  0  0
  -17.5175   -2.7471    8.6261 C   0  0  0  0  0  0  0  0  0  0  0  0
  -18.1938   -1.1390    6.8575 C   0  0  0  0  0  0  0  0  0  0  0  0
  -17.5301   -5.7593    4.4397 N   0  0  0  0  0  0  0  0  0  0  0  0
  -18.9076   -5.7617    4.2827 C   0  0  0  0  0  0  0  0  0  0  0  0
  -19.8824   -6.4519    4.3921 O   0  0  0  0  0  0  0  0  0  0  0  0
  -18.1863   -4.7357    3.5060 C   0  0  0  0  0  0  0  0  0  0  0  0
  -18.7014   -5.2738    2.1364 C   0  0  0  0  0  0  0  0  0  0  0  0
  -19.5881   -4.5628    1.3269 C   0  0  0  0  0  0  0  0  0  0  0  0
  -20.0577   -5.0416    0.0936 C   0  0  0  0  0  0  0  0  0  0  0  0
  -18.2780   -6.4964    1.5847 C   0  0  0  0  0  0  0  0  0  0  0  0
  -18.7479   -6.9958    0.3422 C   0  0  0  0  0  0  0  0  0  0  0  0
  -19.6676   -6.2709   -0.4317 C   0  0  0  0  0  0  0  0  0  0  0  0
  -20.1878   -6.6242   -1.6867 O   0  0  0  0  0  0  0  0  0  0  0  0
  -20.8221   -5.7828   -2.6869 C   0  0  0  0  0  0  0  0  0  0  0  0
  -20.2939   -6.2353   -4.0392 C   0  0  0  0  0  0  0  0  0  0  0  0
  -20.0986   -5.3017   -5.0592 C   0  0  0  0  0  0  0  0  0  0  0  0
  -20.0194   -7.5769   -4.2777 C   0  0  0  0  0  0  0  0  0  0  0  0
  -19.5643   -7.9923   -5.5241 C   0  0  0  0  0  0  0  0  0  0  0  0
  -19.3875   -7.0471   -6.5350 C   0  0  0  0  0  0  0  0  0  0  0  0
  -18.8172   -7.5909   -8.1381 Cl  0  0  0  0  0  0  0  0  0  0  0  0
  -19.6489   -5.6983   -6.3155 C   0  0  0  0  0  0  0  0  0  0  0  0
 42 41  1  0  0  0
 41 40  2  0  0  0
 41 43  1  0  0  0
 40 39  1  0  0  0
 43 38  2  0  0  0
 39 37  2  0  0  0
 38 37  1  0  0  0
 37 36  1  0  0  0
 36 35  1  0  0  0
 35 34  1  0  0  0
 34 31  2  0  0  0
 34 33  1  0  0  0
  7  6  1  0  0  0
 31 30  1  0  0  0
 33 32  2  0  0  0
  5  6  2  0  0  0
  5  4  1  0  0  0
  6  8  1  0  0  0
  3  4  1  0  0  0
  3  2  1  0  0  0
  4 10  2  0  0  0
 30 29  2  0  0  0
 32 29  1  0  0  0
 13 14  2  0  0  0
  8  9  2  0  0  0
 29 28  1  0  0  0
  2 14  1  0  0  0
  2 11  2  0  0  0
 10  9  1  0  0  0
 10 11  1  0  0  0
 14 15  1  0  0  0
 11  1  1  0  0  0
 28 25  1  0  0  0
  1 25  1  0  0  0
  1 17  1  0  0  0
 25 26  1  0  0  0
 26 27  2  0  0  0
 17 18  1  0  0  0
 17 19  2  0  0  0
 18 21  1  0  0  0
 22 21  1  0  0  0
 21 23  1  0  0  0
 21 24  1  0  0  0
 15 16  1  0  0  0
  3 12  1  0  0  0
 18 20  1  0  0  0
M  END
> <minimizedAffinity>
-10.40413

$$$$
4MDN_Y30_A_201


 43 46  0  0  0  0  0  0  0  0999 V2000
  -16.1449   -5.6556    1.9439 C   0  0  0  0  0  0  0  0  0  0  0  0
  -18.7598   -5.0388    1.9962 C   0  0  0  0  0  0  0  0  0  0  0  0
  -19.3891   -3.9223    1.6120 N   0  0  0  0  0  0  0  0  0  0  0  0
  -18.4882   -3.0550    1.1139 C   0  0  0  0  0  0  0  0  0  0  0  0
  -18.6515   -1.7928    0.6069 C   0  0  0  0  0  0  0  0  0  0  0  0
  -17.5516   -1.1014    0.1642 C   0  0  0  0  0  0  0  0  0  0  0  0
  -17.8475    0.5312   -0.4478 Cl  0  0  0  0  0  0  0  0  0  0  0  0
  -16.2766   -1.6563    0.2000 C   0  0  0  0  0  0  0  0  0  0  0  0
  -16.1091   -2.9398    0.7053 C   0  0  0  0  0  0  0  0  0  0  0  0
  -17.2245   -3.6247    1.1632 C   0  0  0  0  0  0  0  0  0  0  0  0
  -17.4017   -4.8896    1.6896 C   0  0  0  0  0  0  0  0  0  0  0  0
  -20.3577   -3.7607    1.6824 H   0  0  0  0  0  0  0  0  0  0  0  0
  -20.4163   -6.6767    1.9303 O   0  0  0  0  0  0  0  0  0  0  0  0
  -19.4607   -6.2047    2.5927 C   0  0  0  0  0  0  0  0  0  0  0  0
  -19.1247   -6.6615    3.7005 O   0  0  0  0  0  0  0  0  0  0  0  0
  -18.4050   -6.2818    4.1651 H   0  0  0  0  0  0  0  0  0  0  0  0
  -15.5247   -5.7034    3.3283 C   0  0  0  0  0  0  0  0  0  0  0  0
  -14.2141   -5.4458    3.4677 N   0  0  0  0  0  0  0  0  0  0  0  0
  -16.2681   -5.9250    4.2573 O   0  0  0  0  0  0  0  0  0  0  0  0
  -13.6942   -5.2710    2.6501 H   0  0  0  0  0  0  0  0  0  0  0  0
  -13.5000   -5.4056    4.7488 C   0  0  0  0  0  0  0  0  0  0  0  0
  -12.0174   -5.1223    4.5431 C   0  0  0  0  0  0  0  0  0  0  0  0
  -13.5521   -6.7882    5.3735 C   0  0  0  0  0  0  0  0  0  0  0  0
  -14.0612   -4.3836    5.7334 C   0  0  0  0  0  0  0  0  0  0  0  0
  -15.4105   -5.8370    0.6745 N   0  0  0  0  0  0  0  0  0  0  0  0
  -15.0863   -7.1169    0.2518 C   0  0  0  0  0  0  0  0  0  0  0  0
  -14.5279   -7.7251   -0.6183 O   0  0  0  0  0  0  0  0  0  0  0  0
  -16.2352   -7.0293    1.1728 C   0  0  0  0  0  0  0  0  0  0  0  0
  -17.1344   -7.7426    0.1177 C   0  0  0  0  0  0  0  0  0  0  0  0
  -17.7897   -7.0589   -0.9072 C   0  0  0  0  0  0  0  0  0  0  0  0
  -18.6023   -7.6940   -1.8595 C   0  0  0  0  0  0  0  0  0  0  0  0
  -17.3196   -9.1365    0.0849 C   0  0  0  0  0  0  0  0  0  0  0  0
  -18.1420   -9.7919   -0.8680 C   0  0  0  0  0  0  0  0  0  0  0  0
  -18.8160   -9.0701   -1.8655 C   0  0  0  0  0  0  0  0  0  0  0  0
  -19.6288   -9.5867   -2.8868 O   0  0  0  0  0  0  0  0  0  0  0  0
  -20.6918   -8.9344   -3.6318 C   0  0  0  0  0  0  0  0  0  0  0  0
  -20.0895   -8.4886   -4.9551 C   0  0  0  0  0  0  0  0  0  0  0  0
  -19.9670   -7.1273   -5.2418 C   0  0  0  0  0  0  0  0  0  0  0  0
  -19.6747   -9.4257   -5.8941 C   0  0  0  0  0  0  0  0  0  0  0  0
  -19.1513   -9.0156   -7.1153 C   0  0  0  0  0  0  0  0  0  0  0  0
  -19.0486   -7.6515   -7.3894 C   0  0  0  0  0  0  0  0  0  0  0  0
  -18.3896   -7.1329   -8.9666 Cl  0  0  0  0  0  0  0  0  0  0  0  0
  -19.4508   -6.6966   -6.4608 C   0  0  0  0  0  0  0  0  0  0  0  0
 42 41  1  0  0  0
 41 40  2  0  0  0
 41 43  1  0  0  0
 40 39  1  0  0  0
 43 38  2  0  0  0
 39 37  2  0  0  0
 38 37  1  0  0  0
 37 36  1  0  0  0
 36 35  1  0  0  0
 35 34  1  0  0  0
 34 31  2  0  0  0
 34 33  1  0  0  0
  7  6  1  0  0  0
 31 30  1  0  0  0
 33 32  2  0  0  0
  5  6  2  0  0  0
  5  4  1  0  0  0
  6  8  1  0  0  0
  3  4  1  0  0  0
  3  2  1  0  0  0
  4 10  2  0  0  0
 30 29  2  0  0  0
 32 29  1  0  0  0
 13 14  2  0  0  0
  8  9  2  0  0  0
 29 28  1  0  0  0
  2 14  1  0  0  0
  2 11  2  0  0  0
 10  9  1  0  0  0
 10 11  1  0  0  0
 14 15  1  0  0  0
 11  1  1  0  0  0
 28 25  1  0  0  0
  1 25  1  0  0  0
  1 17  1  0  0  0
 25 26  1  0  0  0
 26 27  2  0  0  0
 17 18  1  0  0  0
 17 19  2  0  0  0
 18 21  1  0  0  0
 22 21  1  0  0  0
 21 23  1  0  0  0
 21 24  1  0  0  0
 15 16  1  0  0  0
  3 12  1  0  0  0
 18 20  1  0  0  0
M  END
> <minimizedAffinity>
-9.86078

$$$$
4MDN_Y30_A_201


 43 46  0  0  0  0  0  0  0  0999 V2000
  -16.5173   -5.2755    3.3875 C   0  0  0  0  0  0  0  0  0  0  0  0
  -18.7923   -5.9824    4.6307 C   0  0  0  0  0  0  0  0  0  0  0  0
  -19.2873   -5.5892    5.8099 N   0  0  0  0  0  0  0  0  0  0  0  0
  -18.4576   -4.6822    6.3585 C   0  0  0  0  0  0  0  0  0  0  0  0
  -18.5363   -4.0060    7.5474 C   0  0  0  0  0  0  0  0  0  0  0  0
  -17.5382   -3.1265    7.8849 C   0  0  0  0  0  0  0  0  0  0  0  0
  -17.7034   -2.3181    9.4491 Cl  0  0  0  0  0  0  0  0  0  0  0  0
  -16.4572   -2.8897    7.0423 C   0  0  0  0  0  0  0  0  0  0  0  0
  -16.3792   -3.5671    5.8317 C   0  0  0  0  0  0  0  0  0  0  0  0
  -17.3853   -4.4643    5.5061 C   0  0  0  0  0  0  0  0  0  0  0  0
  -17.6145   -5.2608    4.4009 C   0  0  0  0  0  0  0  0  0  0  0  0
  -20.1257   -5.9121    6.2126 H   0  0  0  0  0  0  0  0  0  0  0  0
  -18.7417   -7.9146    3.3288 O   0  0  0  0  0  0  0  0  0  0  0  0
  -19.4618   -6.9810    3.7584 C   0  0  0  0  0  0  0  0  0  0  0  0
  -20.6644   -6.8711    3.4575 O   0  0  0  0  0  0  0  0  0  0  0  0
  -21.1696   -6.1595    3.7987 H   0  0  0  0  0  0  0  0  0  0  0  0
  -15.2299   -6.0388    3.6396 C   0  0  0  0  0  0  0  0  0  0  0  0
  -14.0646   -5.3715    3.6498 N   0  0  0  0  0  0  0  0  0  0  0  0
  -15.3283   -7.2221    3.8734 O   0  0  0  0  0  0  0  0  0  0  0  0
  -14.0895   -4.4072    3.4531 H   0  0  0  0  0  0  0  0  0  0  0  0
  -12.7569   -5.9740    3.9324 C   0  0  0  0  0  0  0  0  0  0  0  0
  -12.8031   -6.8188    5.1992 C   0  0  0  0  0  0  0  0  0  0  0  0
  -11.7697   -4.8620    4.2383 C   0  0  0  0  0  0  0  0  0  0  0  0
  -12.2160   -6.8317    2.7920 C   0  0  0  0  0  0  0  0  0  0  0  0
  -16.6538   -4.1069    2.4934 N   0  0  0  0  0  0  0  0  0  0  0  0
  -16.3097   -4.2283    1.1560 C   0  0  0  0  0  0  0  0  0  0  0  0
  -16.2309   -3.6150    0.1282 O   0  0  0  0  0  0  0  0  0  0  0  0
  -16.6689   -5.4895    1.8316 C   0  0  0  0  0  0  0  0  0  0  0  0
  -17.7515   -5.7236    0.7344 C   0  0  0  0  0  0  0  0  0  0  0  0
  -17.5374   -6.5321   -0.3825 C   0  0  0  0  0  0  0  0  0  0  0  0
  -18.5066   -6.7460   -1.3753 C   0  0  0  0  0  0  0  0  0  0  0  0
  -19.0458   -5.1776    0.8055 C   0  0  0  0  0  0  0  0  0  0  0  0
  -20.0339   -5.3805   -0.1927 C   0  0  0  0  0  0  0  0  0  0  0  0
  -19.7742   -6.1717   -1.3225 C   0  0  0  0  0  0  0  0  0  0  0  0
  -20.6619   -6.4846   -2.3640 O   0  0  0  0  0  0  0  0  0  0  0  0
  -21.1022   -5.6572   -3.4739 C   0  0  0  0  0  0  0  0  0  0  0  0
  -20.3384   -6.1281   -4.7016 C   0  0  0  0  0  0  0  0  0  0  0  0
  -19.8897   -5.1987   -5.6424 C   0  0  0  0  0  0  0  0  0  0  0  0
  -20.0969   -7.4813   -4.9076 C   0  0  0  0  0  0  0  0  0  0  0  0
  -19.4238   -7.9118   -6.0455 C   0  0  0  0  0  0  0  0  0  0  0  0
  -18.9943   -6.9699   -6.9808 C   0  0  0  0  0  0  0  0  0  0  0  0
  -18.1439   -7.5321   -8.4477 Cl  0  0  0  0  0  0  0  0  0  0  0  0
  -19.2188   -5.6100   -6.7907 C   0  0  0  0  0  0  0  0  0  0  0  0
 42 41  1  0  0  0
 41 40  2  0  0  0
 41 43  1  0  0  0
 40 39  1  0  0  0
 43 38  2  0  0  0
 39 37  2  0  0  0
 38 37  1  0  0  0
 37 36  1  0  0  0
 36 35  1  0  0  0
 35 34  1  0  0  0
 34 31  2  0  0  0
 34 33  1  0  0  0
  7  6  1  0  0  0
 31 30  1  0  0  0
 33 32  2  0  0  0
  5  6  2  0  0  0
  5  4  1  0  0  0
  6  8  1  0  0  0
  3  4  1  0  0  0
  3  2  1  0  0  0
  4 10  2  0  0  0
 30 29  2  0  0  0
 32 29  1  0  0  0
 13 14  2  0  0  0
  8  9  2  0  0  0
 29 28  1  0  0  0
  2 14  1  0  0  0
  2 11  2  0  0  0
 10  9  1  0  0  0
 10 11  1  0  0  0
 14 15  1  0  0  0
 11  1  1  0  0  0
 28 25  1  0  0  0
  1 25  1  0  0  0
  1 17  1  0  0  0
 25 26  1  0  0  0
 26 27  2  0  0  0
 17 18  1  0  0  0
 17 19  2  0  0  0
 18 21  1  0  0  0
 22 21  1  0  0  0
 21 23  1  0  0  0
 21 24  1  0  0  0
 15 16  1  0  0  0
  3 12  1  0  0  0
 18 20  1  0  0  0
M  END
> <minimizedAffinity>
-9.74849

$$$$
4MDN_Y30_A_201


 43 46  0  0  0  0  0  0  0  0999 V2000
  -16.6222   -5.6048    2.4849 C   0  0  0  0  0  0  0  0  0  0  0  0
  -19.1541   -4.8852    1.9440 C   0  0  0  0  0  0  0  0  0  0  0  0
  -19.6290   -3.7784    1.3611 N   0  0  0  0  0  0  0  0  0  0  0  0
  -18.5990   -2.9878    1.0059 C   0  0  0  0  0  0  0  0  0  0  0  0
  -18.5854   -1.7635    0.3914 C   0  0  0  0  0  0  0  0  0  0  0  0
  -17.3821   -1.1516    0.1441 C   0  0  0  0  0  0  0  0  0  0  0  0
  -17.4563    0.4387   -0.6259 Cl  0  0  0  0  0  0  0  0  0  0  0  0
  -16.1740   -1.7509    0.4849 C   0  0  0  0  0  0  0  0  0  0  0  0
  -16.1842   -2.9968    1.1001 C   0  0  0  0  0  0  0  0  0  0  0  0
  -17.4056   -3.6004    1.3585 C   0  0  0  0  0  0  0  0  0  0  0  0
  -17.7559   -4.8128    1.9205 C   0  0  0  0  0  0  0  0  0  0  0  0
  -20.5811   -3.5745    1.2151 H   0  0  0  0  0  0  0  0  0  0  0  0
  -19.9180   -6.2409    3.6787 O   0  0  0  0  0  0  0  0  0  0  0  0
  -20.0252   -5.9733    2.4574 C   0  0  0  0  0  0  0  0  0  0  0  0
  -20.7949   -6.5940    1.7017 O   0  0  0  0  0  0  0  0  0  0  0  0
  -20.8470   -6.3646    0.7948 H   0  0  0  0  0  0  0  0  0  0  0  0
  -16.2920   -5.5520    3.9654 C   0  0  0  0  0  0  0  0  0  0  0  0
  -17.2851   -5.6657    4.8621 N   0  0  0  0  0  0  0  0  0  0  0  0
  -15.1232   -5.4598    4.2657 O   0  0  0  0  0  0  0  0  0  0  0  0
  -18.2041   -5.7419    4.5175 H   0  0  0  0  0  0  0  0  0  0  0  0
  -17.1012   -5.6847    6.3177 C   0  0  0  0  0  0  0  0  0  0  0  0
  -18.4216   -5.9338    7.0353 C   0  0  0  0  0  0  0  0  0  0  0  0
  -16.6657   -4.3015    6.7668 C   0  0  0  0  0  0  0  0  0  0  0  0
  -16.0828   -6.7161    6.7950 C   0  0  0  0  0  0  0  0  0  0  0  0
  -15.6635   -5.9322    1.4092 N   0  0  0  0  0  0  0  0  0  0  0  0
  -15.2765   -7.2498    1.2191 C   0  0  0  0  0  0  0  0  0  0  0  0
  -14.5695   -7.9534    0.5530 O   0  0  0  0  0  0  0  0  0  0  0  0
  -16.5776   -7.0653    1.8894 C   0  0  0  0  0  0  0  0  0  0  0  0
  -17.2980   -7.8940    0.7828 C   0  0  0  0  0  0  0  0  0  0  0  0
  -17.3178   -7.5122   -0.5592 C   0  0  0  0  0  0  0  0  0  0  0  0
  -17.9660   -8.2523   -1.5607 C   0  0  0  0  0  0  0  0  0  0  0  0
  -17.9450   -9.1164    1.0392 C   0  0  0  0  0  0  0  0  0  0  0  0
  -18.6088   -9.8726    0.0385 C   0  0  0  0  0  0  0  0  0  0  0  0
  -18.6401   -9.4420   -1.2971 C   0  0  0  0  0  0  0  0  0  0  0  0
  -19.2252  -10.1012   -2.3897 O   0  0  0  0  0  0  0  0  0  0  0  0
  -20.4890   -9.8326   -3.0537 C   0  0  0  0  0  0  0  0  0  0  0  0
  -20.2652   -8.6247   -3.9500 C   0  0  0  0  0  0  0  0  0  0  0  0
  -19.5628   -8.7667   -5.1486 C   0  0  0  0  0  0  0  0  0  0  0  0
  -20.7384   -7.3717   -3.5785 C   0  0  0  0  0  0  0  0  0  0  0  0
  -20.5072   -6.2633   -4.3855 C   0  0  0  0  0  0  0  0  0  0  0  0
  -19.7923   -6.4220   -5.5731 C   0  0  0  0  0  0  0  0  0  0  0  0
  -19.4860   -4.9906   -6.5968 Cl  0  0  0  0  0  0  0  0  0  0  0  0
  -19.3162   -7.6684   -5.9677 C   0  0  0  0  0  0  0  0  0  0  0  0
 42 41  1  0  0  0
 41 40  2  0  0  0
 41 43  1  0  0  0
 40 39  1  0  0  0
 43 38  2  0  0  0
 39 37  2  0  0  0
 38 37  1  0  0  0
 37 36  1  0  0  0
 36 35  1  0  0  0
 35 34  1  0  0  0
 34 31  2  0  0  0
 34 33  1  0  0  0
  7  6  1  0  0  0
 31 30  1  0  0  0
 33 32  2  0  0  0
  5  6  2  0  0  0
  5  4  1  0  0  0
  6  8  1  0  0  0
  3  4  1  0  0  0
  3  2  1  0  0  0
  4 10  2  0  0  0
 30 29  2  0  0  0
 32 29  1  0  0  0
 13 14  2  0  0  0
  8  9  2  0  0  0
 29 28  1  0  0  0
  2 14  1  0  0  0
  2 11  2  0  0  0
 10  9  1  0  0  0
 10 11  1  0  0  0
 14 15  1  0  0  0
 11  1  1  0  0  0
 28 25  1  0  0  0
  1 25  1  0  0  0
  1 17  1  0  0  0
 25 26  1  0  0  0
 26 27  2  0  0  0
 17 18  1  0  0  0
 17 19  2  0  0  0
 18 21  1  0  0  0
 22 21  1  0  0  0
 21 23  1  0  0  0
 21 24  1  0  0  0
 15 16  1  0  0  0
  3 12  1  0  0  0
 18 20  1  0  0  0
M  END
> <minimizedAffinity>
-9.66324

$$$$
4MDN_Y30_A_201


 43 46  0  0  0  0  0  0  0  0999 V2000
  -16.0530   -4.1508    3.7576 C   0  0  0  0  0  0  0  0  0  0  0  0
  -17.8524   -3.3691    5.5939 C   0  0  0  0  0  0  0  0  0  0  0  0
  -18.8517   -4.0512    6.1653 N   0  0  0  0  0  0  0  0  0  0  0  0
  -18.8476   -5.3148    5.7015 C   0  0  0  0  0  0  0  0  0  0  0  0
  -19.6720   -6.3715    5.9855 C   0  0  0  0  0  0  0  0  0  0  0  0
  -19.4583   -7.5745    5.3605 C   0  0  0  0  0  0  0  0  0  0  0  0
  -20.5855   -8.8765    5.7625 Cl  0  0  0  0  0  0  0  0  0  0  0  0
  -18.4143   -7.7543    4.4590 C   0  0  0  0  0  0  0  0  0  0  0  0
  -17.5709   -6.6870    4.1758 C   0  0  0  0  0  0  0  0  0  0  0  0
  -17.8037   -5.4717    4.8017 C   0  0  0  0  0  0  0  0  0  0  0  0
  -17.1560   -4.2522    4.7596 C   0  0  0  0  0  0  0  0  0  0  0  0
  -19.4890   -3.6865    6.8211 H   0  0  0  0  0  0  0  0  0  0  0  0
  -17.8825   -1.1193    4.9868 O   0  0  0  0  0  0  0  0  0  0  0  0
  -17.5715   -1.9397    5.8840 C   0  0  0  0  0  0  0  0  0  0  0  0
  -17.0334   -1.5919    6.9509 O   0  0  0  0  0  0  0  0  0  0  0  0
  -16.8159   -2.2345    7.5972 H   0  0  0  0  0  0  0  0  0  0  0  0
  -14.6776   -4.7233    4.0478 C   0  0  0  0  0  0  0  0  0  0  0  0
  -14.1883   -5.6872    3.2511 N   0  0  0  0  0  0  0  0  0  0  0  0
  -14.0615   -4.2359    4.9685 O   0  0  0  0  0  0  0  0  0  0  0  0
  -14.7655   -6.0142    2.5236 H   0  0  0  0  0  0  0  0  0  0  0  0
  -12.8568   -6.2889    3.3850 C   0  0  0  0  0  0  0  0  0  0  0  0
  -11.7711   -5.2207    3.4123 C   0  0  0  0  0  0  0  0  0  0  0  0
  -12.5702   -7.1077    2.1392 C   0  0  0  0  0  0  0  0  0  0  0  0
  -12.7036   -7.1738    4.6188 C   0  0  0  0  0  0  0  0  0  0  0  0
  -16.3343   -3.0417    2.8226 N   0  0  0  0  0  0  0  0  0  0  0  0
  -15.9198   -3.1408    1.5033 C   0  0  0  0  0  0  0  0  0  0  0  0
  -15.8956   -2.5490    0.4603 O   0  0  0  0  0  0  0  0  0  0  0  0
  -16.1038   -4.4255    2.2046 C   0  0  0  0  0  0  0  0  0  0  0  0
  -17.1669   -4.9126    1.1735 C   0  0  0  0  0  0  0  0  0  0  0  0
  -16.8719   -5.8088    0.1455 C   0  0  0  0  0  0  0  0  0  0  0  0
  -17.8233   -6.2503   -0.7876 C   0  0  0  0  0  0  0  0  0  0  0  0
  -18.5182   -4.5255    1.2246 C   0  0  0  0  0  0  0  0  0  0  0  0
  -19.4898   -4.9591    0.2855 C   0  0  0  0  0  0  0  0  0  0  0  0
  -19.1519   -5.8341   -0.7587 C   0  0  0  0  0  0  0  0  0  0  0  0
  -20.0108   -6.3687   -1.7319 O   0  0  0  0  0  0  0  0  0  0  0  0
  -20.7834   -5.6803   -2.7516 C   0  0  0  0  0  0  0  0  0  0  0  0
  -20.2384   -6.1358   -4.0963 C   0  0  0  0  0  0  0  0  0  0  0  0
  -20.0000   -5.1999   -5.1050 C   0  0  0  0  0  0  0  0  0  0  0  0
  -19.9913   -7.4818   -4.3393 C   0  0  0  0  0  0  0  0  0  0  0  0
  -19.5206   -7.8992   -5.5793 C   0  0  0  0  0  0  0  0  0  0  0  0
  -19.3006   -6.9514   -6.5792 C   0  0  0  0  0  0  0  0  0  0  0  0
  -18.7107   -7.4973   -8.1745 Cl  0  0  0  0  0  0  0  0  0  0  0  0
  -19.5342   -5.5983   -6.3549 C   0  0  0  0  0  0  0  0  0  0  0  0
 42 41  1  0  0  0
 41 40  2  0  0  0
 41 43  1  0  0  0
 40 39  1  0  0  0
 43 38  2  0  0  0
 39 37  2  0  0  0
 38 37  1  0  0  0
 37 36  1  0  0  0
 36 35  1  0  0  0
 35 34  1  0  0  0
 34 31  2  0  0  0
 34 33  1  0  0  0
  7  6  1  0  0  0
 31 30  1  0  0  0
 33 32  2  0  0  0
  5  6  2  0  0  0
  5  4  1  0  0  0
  6  8  1  0  0  0
  3  4  1  0  0  0
  3  2  1  0  0  0
  4 10  2  0  0  0
 30 29  2  0  0  0
 32 29  1  0  0  0
 13 14  2  0  0  0
  8  9  2  0  0  0
 29 28  1  0  0  0
  2 14  1  0  0  0
  2 11  2  0  0  0
 10  9  1  0  0  0
 10 11  1  0  0  0
 14 15  1  0  0  0
 11  1  1  0  0  0
 28 25  1  0  0  0
  1 25  1  0  0  0
  1 17  1  0  0  0
 25 26  1  0  0  0
 26 27  2  0  0  0
 17 18  1  0  0  0
 17 19  2  0  0  0
 18 21  1  0  0  0
 22 21  1  0  0  0
 21 23  1  0  0  0
 21 24  1  0  0  0
 15 16  1  0  0  0
  3 12  1  0  0  0
 18 20  1  0  0  0
M  END
> <minimizedAffinity>
-9.52759

$$$$
4MDN_Y30_A_201


 43 46  0  0  0  0  0  0  0  0999 V2000
  -16.8913   -6.6472    0.9187 C   0  0  0  0  0  0  0  0  0  0  0  0
  -18.3643   -4.8085   -0.3736 C   0  0  0  0  0  0  0  0  0  0  0  0
  -19.2510   -4.9568   -1.3646 N   0  0  0  0  0  0  0  0  0  0  0  0
  -19.3680   -6.2643   -1.6625 C   0  0  0  0  0  0  0  0  0  0  0  0
  -20.1399   -6.8998   -2.5991 C   0  0  0  0  0  0  0  0  0  0  0  0
  -20.0685   -8.2658   -2.7107 C   0  0  0  0  0  0  0  0  0  0  0  0
  -21.0758   -9.0024   -3.9637 Cl  0  0  0  0  0  0  0  0  0  0  0  0
  -19.2458   -9.0244   -1.8846 C   0  0  0  0  0  0  0  0  0  0  0  0
  -18.4685   -8.3836   -0.9276 C   0  0  0  0  0  0  0  0  0  0  0  0
  -18.5370   -7.0018   -0.8322 C   0  0  0  0  0  0  0  0  0  0  0  0
  -17.9289   -6.0849    0.0032 C   0  0  0  0  0  0  0  0  0  0  0  0
  -19.7404   -4.2254   -1.8060 H   0  0  0  0  0  0  0  0  0  0  0  0
  -16.7790   -3.1882    0.1671 O   0  0  0  0  0  0  0  0  0  0  0  0
  -17.9969   -3.4885    0.2000 C   0  0  0  0  0  0  0  0  0  0  0  0
  -18.8561   -2.7433    0.7052 O   0  0  0  0  0  0  0  0  0  0  0  0
  -19.7565   -3.0027    0.7107 H   0  0  0  0  0  0  0  0  0  0  0  0
  -15.5581   -7.1367    0.3833 C   0  0  0  0  0  0  0  0  0  0  0  0
  -15.2773   -8.4491    0.4266 N   0  0  0  0  0  0  0  0  0  0  0  0
  -14.8259   -6.3092   -0.1106 O   0  0  0  0  0  0  0  0  0  0  0  0
  -15.9413   -9.0440    0.8443 H   0  0  0  0  0  0  0  0  0  0  0  0
  -14.0536   -9.0618   -0.1026 C   0  0  0  0  0  0  0  0  0  0  0  0
  -13.9883  -10.5446    0.2408 C   0  0  0  0  0  0  0  0  0  0  0  0
  -12.8604   -8.4429    0.6030 C   0  0  0  0  0  0  0  0  0  0  0  0
  -13.8890   -8.9015   -1.6112 C   0  0  0  0  0  0  0  0  0  0  0  0
  -17.5324   -7.1151    2.1652 N   0  0  0  0  0  0  0  0  0  0  0  0
  -16.8230   -7.0686    3.3554 C   0  0  0  0  0  0  0  0  0  0  0  0
  -16.8945   -7.3315    4.5235 O   0  0  0  0  0  0  0  0  0  0  0  0
  -16.3700   -6.1269    2.3141 C   0  0  0  0  0  0  0  0  0  0  0  0
  -16.6291   -4.8785    3.2113 C   0  0  0  0  0  0  0  0  0  0  0  0
  -17.9099   -4.4383    3.5475 C   0  0  0  0  0  0  0  0  0  0  0  0
  -18.1509   -3.3142    4.3531 C   0  0  0  0  0  0  0  0  0  0  0  0
  -15.5941   -4.1239    3.7926 C   0  0  0  0  0  0  0  0  0  0  0  0
  -15.8221   -2.9824    4.6043 C   0  0  0  0  0  0  0  0  0  0  0  0
  -17.1239   -2.5451    4.8947 C   0  0  0  0  0  0  0  0  0  0  0  0
  -17.4960   -1.4612    5.7054 O   0  0  0  0  0  0  0  0  0  0  0  0
  -18.2770   -1.4572    6.9303 C   0  0  0  0  0  0  0  0  0  0  0  0
  -17.3589   -1.9522    8.0370 C   0  0  0  0  0  0  0  0  0  0  0  0
  -17.9006   -2.5501    9.1768 C   0  0  0  0  0  0  0  0  0  0  0  0
  -15.9813   -1.7986    7.9338 C   0  0  0  0  0  0  0  0  0  0  0  0
  -15.1458   -2.2255    8.9600 C   0  0  0  0  0  0  0  0  0  0  0  0
  -15.7059   -2.8089   10.0969 C   0  0  0  0  0  0  0  0  0  0  0  0
  -14.6270   -3.3407   11.4176 Cl  0  0  0  0  0  0  0  0  0  0  0  0
  -17.0815   -2.9791   10.2175 C   0  0  0  0  0  0  0  0  0  0  0  0
 42 41  1  0  0  0
 41 40  2  0  0  0
 41 43  1  0  0  0
 40 39  1  0  0  0
 43 38  2  0  0  0
 39 37  2  0  0  0
 38 37  1  0  0  0
 37 36  1  0  0  0
 36 35  1  0  0  0
 35 34  1  0  0  0
 34 31  2  0  0  0
 34 33  1  0  0  0
  7  6  1  0  0  0
 31 30  1  0  0  0
 33 32  2  0  0  0
  5  6  2  0  0  0
  5  4  1  0  0  0
  6  8  1  0  0  0
  3  4  1  0  0  0
  3  2  1  0  0  0
  4 10  2  0  0  0
 30 29  2  0  0  0
 32 29  1  0  0  0
 13 14  2  0  0  0
  8  9  2  0  0  0
 29 28  1  0  0  0
  2 14  1  0  0  0
  2 11  2  0  0  0
 10  9  1  0  0  0
 10 11  1  0  0  0
 14 15  1  0  0  0
 11  1  1  0  0  0
 28 25  1  0  0  0
  1 25  1  0  0  0
  1 17  1  0  0  0
 25 26  1  0  0  0
 26 27  2  0  0  0
 17 18  1  0  0  0
 17 19  2  0  0  0
 18 21  1  0  0  0
 22 21  1  0  0  0
 21 23  1  0  0  0
 21 24  1  0  0  0
 15 16  1  0  0  0
  3 12  1  0  0  0
 18 20  1  0  0  0
M  END
> <minimizedAffinity>
-8.63429

$$$$
4MDN_Y30_A_201


 43 46  0  0  0  0  0  0  0  0999 V2000
  -16.5611   -6.2993    1.4373 C   0  0  0  0  0  0  0  0  0  0  0  0
  -18.7869   -5.7713    0.0276 C   0  0  0  0  0  0  0  0  0  0  0  0
  -19.2192   -4.6203   -0.5005 N   0  0  0  0  0  0  0  0  0  0  0  0
  -18.3154   -3.6534   -0.2552 C   0  0  0  0  0  0  0  0  0  0  0  0
  -18.3186   -2.3246   -0.5889 C   0  0  0  0  0  0  0  0  0  0  0  0
  -17.2630   -1.5355   -0.2060 C   0  0  0  0  0  0  0  0  0  0  0  0
  -17.3608    0.1730   -0.6522 Cl  0  0  0  0  0  0  0  0  0  0  0  0
  -16.1802   -2.0539    0.4967 C   0  0  0  0  0  0  0  0  0  0  0  0
  -16.1699   -3.4031    0.8286 C   0  0  0  0  0  0  0  0  0  0  0  0
  -17.2477   -4.1891    0.4496 C   0  0  0  0  0  0  0  0  0  0  0  0
  -17.5309   -5.5330    0.5987 C   0  0  0  0  0  0  0  0  0  0  0  0
  -20.0644   -4.4998   -0.9907 H   0  0  0  0  0  0  0  0  0  0  0  0
  -19.6578   -7.5463   -1.2061 O   0  0  0  0  0  0  0  0  0  0  0  0
  -19.5469   -7.0444   -0.0613 C   0  0  0  0  0  0  0  0  0  0  0  0
  -20.0617   -7.5599    0.9477 O   0  0  0  0  0  0  0  0  0  0  0  0
  -19.9566   -7.1549    1.7861 H   0  0  0  0  0  0  0  0  0  0  0  0
  -15.2964   -6.8831    0.8345 C   0  0  0  0  0  0  0  0  0  0  0  0
  -15.2585   -8.1910    0.5326 N   0  0  0  0  0  0  0  0  0  0  0  0
  -14.3898   -6.1145    0.6059 O   0  0  0  0  0  0  0  0  0  0  0  0
  -16.0504   -8.7330    0.7526 H   0  0  0  0  0  0  0  0  0  0  0  0
  -14.1236   -8.8719   -0.1010 C   0  0  0  0  0  0  0  0  0  0  0  0
  -14.1610  -10.3706    0.1694 C   0  0  0  0  0  0  0  0  0  0  0  0
  -12.8432   -8.3868    0.5545 C   0  0  0  0  0  0  0  0  0  0  0  0
  -14.0368   -8.6488   -1.6082 C   0  0  0  0  0  0  0  0  0  0  0  0
  -17.2460   -6.8120    2.6421 N   0  0  0  0  0  0  0  0  0  0  0  0
  -16.5505   -6.8934    3.8386 C   0  0  0  0  0  0  0  0  0  0  0  0
  -16.6532   -7.2323    4.9846 O   0  0  0  0  0  0  0  0  0  0  0  0
  -16.0265   -5.9115    2.8704 C   0  0  0  0  0  0  0  0  0  0  0  0
  -16.2067   -4.7404    3.8835 C   0  0  0  0  0  0  0  0  0  0  0  0
  -17.4426   -4.1486    4.1473 C   0  0  0  0  0  0  0  0  0  0  0  0
  -17.6121   -3.0926    5.0567 C   0  0  0  0  0  0  0  0  0  0  0  0
  -15.1477   -4.2178    4.6477 C   0  0  0  0  0  0  0  0  0  0  0  0
  -15.3027   -3.1475    5.5664 C   0  0  0  0  0  0  0  0  0  0  0  0
  -16.5545   -2.5504    5.7826 C   0  0  0  0  0  0  0  0  0  0  0  0
  -16.8592   -1.5146    6.6796 O   0  0  0  0  0  0  0  0  0  0  0  0
  -17.8247   -1.4951    7.7649 C   0  0  0  0  0  0  0  0  0  0  0  0
  -17.4554   -2.6356    8.7006 C   0  0  0  0  0  0  0  0  0  0  0  0
  -16.3015   -2.5499    9.4825 C   0  0  0  0  0  0  0  0  0  0  0  0
  -18.2478   -3.7753    8.7726 C   0  0  0  0  0  0  0  0  0  0  0  0
  -17.8923   -4.8291    9.6071 C   0  0  0  0  0  0  0  0  0  0  0  0
  -16.7291   -4.7311   10.3712 C   0  0  0  0  0  0  0  0  0  0  0  0
  -16.2710   -6.0955   11.4292 Cl  0  0  0  0  0  0  0  0  0  0  0  0
  -15.9256   -3.5964   10.3200 C   0  0  0  0  0  0  0  0  0  0  0  0
 42 41  1  0  0  0
 41 40  2  0  0  0
 41 43  1  0  0  0
 40 39  1  0  0  0
 43 38  2  0  0  0
 39 37  2  0  0  0
 38 37  1  0  0  0
 37 36  1  0  0  0
 36 35  1  0  0  0
 35 34  1  0  0  0
 34 31  2  0  0  0
 34 33  1  0  0  0
  7  6  1  0  0  0
 31 30  1  0  0  0
 33 32  2  0  0  0
  5  6  2  0  0  0
  5  4  1  0  0  0
  6  8  1  0  0  0
  3  4  1  0  0  0
  3  2  1  0  0  0
  4 10  2  0  0  0
 30 29  2  0  0  0
 32 29  1  0  0  0
 13 14  2  0  0  0
  8  9  2  0  0  0
 29 28  1  0  0  0
  2 14  1  0  0  0
  2 11  2  0  0  0
 10  9  1  0  0  0
 10 11  1  0  0  0
 14 15  1  0  0  0
 11  1  1  0  0  0
 28 25  1  0  0  0
  1 25  1  0  0  0
  1 17  1  0  0  0
 25 26  1  0  0  0
 26 27  2  0  0  0
 17 18  1  0  0  0
 17 19  2  0  0  0
 18 21  1  0  0  0
 22 21  1  0  0  0
 21 23  1  0  0  0
 21 24  1  0  0  0
 15 16  1  0  0  0
  3 12  1  0  0  0
 18 20  1  0  0  0
M  END
> <minimizedAffinity>
-8.29794

$$$$
4MDN_Y30_A_201


 43 46  0  0  0  0  0  0  0  0999 V2000
  -16.4003   -4.1470    5.3937 C   0  0  0  0  0  0  0  0  0  0  0  0
  -18.2167   -3.0588    7.0482 C   0  0  0  0  0  0  0  0  0  0  0  0
  -19.3025   -3.6010    7.6115 N   0  0  0  0  0  0  0  0  0  0  0  0
  -19.3880   -4.8956    7.2529 C   0  0  0  0  0  0  0  0  0  0  0  0
  -20.3185   -5.8494    7.5712 C   0  0  0  0  0  0  0  0  0  0  0  0
  -20.1815   -7.1157    7.0599 C   0  0  0  0  0  0  0  0  0  0  0  0
  -21.4415   -8.2769    7.4973 Cl  0  0  0  0  0  0  0  0  0  0  0  0
  -19.1116   -7.4612    6.2409 C   0  0  0  0  0  0  0  0  0  0  0  0
  -18.1613   -6.4984    5.9236 C   0  0  0  0  0  0  0  0  0  0  0  0
  -18.3163   -5.2182    6.4336 C   0  0  0  0  0  0  0  0  0  0  0  0
  -17.5596   -4.0668    6.3321 C   0  0  0  0  0  0  0  0  0  0  0  0
  -19.9382   -3.1280    8.1958 H   0  0  0  0  0  0  0  0  0  0  0  0
  -18.7105   -0.7816    7.0078 O   0  0  0  0  0  0  0  0  0  0  0  0
  -17.8235   -1.6390    7.2379 C   0  0  0  0  0  0  0  0  0  0  0  0
  -16.6678   -1.3302    7.5811 O   0  0  0  0  0  0  0  0  0  0  0  0
  -16.0328   -1.9997    7.7441 H   0  0  0  0  0  0  0  0  0  0  0  0
  -15.0468   -4.6478    5.8638 C   0  0  0  0  0  0  0  0  0  0  0  0
  -14.8279   -5.9706    5.9377 N   0  0  0  0  0  0  0  0  0  0  0  0
  -14.2036   -3.8131    6.1027 O   0  0  0  0  0  0  0  0  0  0  0  0
  -15.5771   -6.5699    5.7169 H   0  0  0  0  0  0  0  0  0  0  0  0
  -13.5542   -6.5886    6.3233 C   0  0  0  0  0  0  0  0  0  0  0  0
  -13.6523   -8.1087    6.3029 C   0  0  0  0  0  0  0  0  0  0  0  0
  -13.2647   -6.2336    7.7706 C   0  0  0  0  0  0  0  0  0  0  0  0
  -12.3759   -6.1628    5.4520 C   0  0  0  0  0  0  0  0  0  0  0  0
  -16.6216   -3.2322    4.2545 N   0  0  0  0  0  0  0  0  0  0  0  0
  -16.1857   -3.5998    2.9908 C   0  0  0  0  0  0  0  0  0  0  0  0
  -16.1191   -3.2234    1.8539 O   0  0  0  0  0  0  0  0  0  0  0  0
  -16.4313   -4.7167    3.9227 C   0  0  0  0  0  0  0  0  0  0  0  0
  -17.4223   -5.3305    2.8874 C   0  0  0  0  0  0  0  0  0  0  0  0
  -17.1363   -6.4828    2.1542 C   0  0  0  0  0  0  0  0  0  0  0  0
  -18.0227   -7.0401    1.2191 C   0  0  0  0  0  0  0  0  0  0  0  0
  -18.7021   -4.8004    2.6435 C   0  0  0  0  0  0  0  0  0  0  0  0
  -19.6066   -5.3494    1.6977 C   0  0  0  0  0  0  0  0  0  0  0  0
  -19.2735   -6.4900    0.9505 C   0  0  0  0  0  0  0  0  0  0  0  0
  -20.0774   -7.1568    0.0126 O   0  0  0  0  0  0  0  0  0  0  0  0
  -19.7136   -8.1998   -0.9309 C   0  0  0  0  0  0  0  0  0  0  0  0
  -19.8322   -7.5943   -2.3208 C   0  0  0  0  0  0  0  0  0  0  0  0
  -19.4885   -8.3515   -3.4427 C   0  0  0  0  0  0  0  0  0  0  0  0
  -20.2635   -6.2833   -2.4860 C   0  0  0  0  0  0  0  0  0  0  0  0
  -20.3432   -5.7224   -3.7558 C   0  0  0  0  0  0  0  0  0  0  0  0
  -19.9833   -6.4899   -4.8639 C   0  0  0  0  0  0  0  0  0  0  0  0
  -20.0737   -5.7571   -6.4905 Cl  0  0  0  0  0  0  0  0  0  0  0  0
  -19.5562   -7.8064   -4.7219 C   0  0  0  0  0  0  0  0  0  0  0  0
 42 41  1  0  0  0
 41 40  2  0  0  0
 41 43  1  0  0  0
 40 39  1  0  0  0
 43 38  2  0  0  0
 39 37  2  0  0  0
 38 37  1  0  0  0
 37 36  1  0  0  0
 36 35  1  0  0  0
 35 34  1  0  0  0
 34 31  2  0  0  0
 34 33  1  0  0  0
  7  6  1  0  0  0
 31 30  1  0  0  0
 33 32  2  0  0  0
  5  6  2  0  0  0
  5  4  1  0  0  0
  6  8  1  0  0  0
  3  4  1  0  0  0
  3  2  1  0  0  0
  4 10  2  0  0  0
 30 29  2  0  0  0
 32 29  1  0  0  0
 13 14  2  0  0  0
  8  9  2  0  0  0
 29 28  1  0  0  0
  2 14  1  0  0  0
  2 11  2  0  0  0
 10  9  1  0  0  0
 10 11  1  0  0  0
 14 15  1  0  0  0
 11  1  1  0  0  0
 28 25  1  0  0  0
  1 25  1  0  0  0
  1 17  1  0  0  0
 25 26  1  0  0  0
 26 27  2  0  0  0
 17 18  1  0  0  0
 17 19  2  0  0  0
 18 21  1  0  0  0
 22 21  1  0  0  0
 21 23  1  0  0  0
 21 24  1  0  0  0
 15 16  1  0  0  0
  3 12  1  0  0  0
 18 20  1  0  0  0
M  END
> <minimizedAffinity>
-8.13020

$$$$
4MDN_Y30_A_201


 43 46  0  0  0  0  0  0  0  0999 V2000
  -15.5047   -4.5374    4.9059 C   0  0  0  0  0  0  0  0  0  0  0  0
  -17.1906   -6.0504    6.3513 C   0  0  0  0  0  0  0  0  0  0  0  0
  -17.4690   -6.0198    7.6597 N   0  0  0  0  0  0  0  0  0  0  0  0
  -16.7674   -5.0277    8.2389 C   0  0  0  0  0  0  0  0  0  0  0  0
  -16.7167   -4.6160    9.5446 C   0  0  0  0  0  0  0  0  0  0  0  0
  -15.9001   -3.5668    9.8847 C   0  0  0  0  0  0  0  0  0  0  0  0
  -15.8727   -3.1190   11.5954 Cl  0  0  0  0  0  0  0  0  0  0  0  0
  -15.1357   -2.8979    8.9345 C   0  0  0  0  0  0  0  0  0  0  0  0
  -15.1919   -3.3072    7.6078 C   0  0  0  0  0  0  0  0  0  0  0  0
  -16.0091   -4.3775    7.2766 C   0  0  0  0  0  0  0  0  0  0  0  0
  -16.3023   -5.0025    6.0800 C   0  0  0  0  0  0  0  0  0  0  0  0
  -18.0889   -6.6267    8.1251 H   0  0  0  0  0  0  0  0  0  0  0  0
  -19.0201   -7.2615    5.5659 O   0  0  0  0  0  0  0  0  0  0  0  0
  -17.7966   -7.0287    5.4122 C   0  0  0  0  0  0  0  0  0  0  0  0
  -17.1116   -7.5978    4.5429 O   0  0  0  0  0  0  0  0  0  0  0  0
  -16.2002   -7.3970    4.4590 H   0  0  0  0  0  0  0  0  0  0  0  0
  -14.0368   -4.8970    4.7657 C   0  0  0  0  0  0  0  0  0  0  0  0
  -13.6990   -6.0393    4.1457 N   0  0  0  0  0  0  0  0  0  0  0  0
  -13.2314   -4.0955    5.1824 O   0  0  0  0  0  0  0  0  0  0  0  0
  -14.4288   -6.6234    3.8365 H   0  0  0  0  0  0  0  0  0  0  0  0
  -12.3225   -6.4810    3.8952 C   0  0  0  0  0  0  0  0  0  0  0  0
  -11.4817   -5.3541    3.3088 C   0  0  0  0  0  0  0  0  0  0  0  0
  -12.3479   -7.5519    2.8196 C   0  0  0  0  0  0  0  0  0  0  0  0
  -11.6163   -7.0243    5.1342 C   0  0  0  0  0  0  0  0  0  0  0  0
  -16.1529   -3.3531    4.3052 N   0  0  0  0  0  0  0  0  0  0  0  0
  -16.0256   -3.1236    2.9439 C   0  0  0  0  0  0  0  0  0  0  0  0
  -16.3221   -2.3571    2.0703 O   0  0  0  0  0  0  0  0  0  0  0  0
  -15.8491   -4.5260    3.3662 C   0  0  0  0  0  0  0  0  0  0  0  0
  -16.7925   -4.6950    2.1365 C   0  0  0  0  0  0  0  0  0  0  0  0
  -18.1809   -4.5875    2.2250 C   0  0  0  0  0  0  0  0  0  0  0  0
  -19.0367   -4.7403    1.1227 C   0  0  0  0  0  0  0  0  0  0  0  0
  -16.3185   -4.9220    0.8318 C   0  0  0  0  0  0  0  0  0  0  0  0
  -17.1713   -5.0839   -0.2908 C   0  0  0  0  0  0  0  0  0  0  0  0
  -18.5667   -5.0048   -0.1612 C   0  0  0  0  0  0  0  0  0  0  0  0
  -19.5231   -5.1097   -1.1834 O   0  0  0  0  0  0  0  0  0  0  0  0
  -20.4108   -6.2154   -1.4993 C   0  0  0  0  0  0  0  0  0  0  0  0
  -20.1713   -6.5662   -2.9595 C   0  0  0  0  0  0  0  0  0  0  0  0
  -20.2453   -5.5712   -3.9366 C   0  0  0  0  0  0  0  0  0  0  0  0
  -19.8964   -7.8757   -3.3358 C   0  0  0  0  0  0  0  0  0  0  0  0
  -19.7067   -8.1992   -4.6747 C   0  0  0  0  0  0  0  0  0  0  0  0
  -19.7972   -7.1942   -5.6382 C   0  0  0  0  0  0  0  0  0  0  0  0
  -19.5676   -7.6205   -7.3576 Cl  0  0  0  0  0  0  0  0  0  0  0  0
  -20.0639   -5.8757   -5.2828 C   0  0  0  0  0  0  0  0  0  0  0  0
 42 41  1  0  0  0
 41 40  2  0  0  0
 41 43  1  0  0  0
 40 39  1  0  0  0
 43 38  2  0  0  0
 39 37  2  0  0  0
 38 37  1  0  0  0
 37 36  1  0  0  0
 36 35  1  0  0  0
 35 34  1  0  0  0
 34 31  2  0  0  0
 34 33  1  0  0  0
  7  6  1  0  0  0
 31 30  1  0  0  0
 33 32  2  0  0  0
  5  6  2  0  0  0
  5  4  1  0  0  0
  6  8  1  0  0  0
  3  4  1  0  0  0
  3  2  1  0  0  0
  4 10  2  0  0  0
 30 29  2  0  0  0
 32 29  1  0  0  0
 13 14  2  0  0  0
  8  9  2  0  0  0
 29 28  1  0  0  0
  2 14  1  0  0  0
  2 11  2  0  0  0
 10  9  1  0  0  0
 10 11  1  0  0  0
 14 15  1  0  0  0
 11  1  1  0  0  0
 28 25  1  0  0  0
  1 25  1  0  0  0
  1 17  1  0  0  0
 25 26  1  0  0  0
 26 27  2  0  0  0
 17 18  1  0  0  0
 17 19  2  0  0  0
 18 21  1  0  0  0
 22 21  1  0  0  0
 21 23  1  0  0  0
 21 24  1  0  0  0
 15 16  1  0  0  0
  3 12  1  0  0  0
 18 20  1  0  0  0
M  END
> <minimizedAffinity>
-7.85597

$$$$
