5CBR_4ZK_A_301


 25 26  0  0  0  0  0  0  0  0999 V2000
    8.5855   13.6606   49.1834 C   0  0  0  0  0  0  0  0  0  0  0  0
    8.1495   14.5792   50.1514 C   0  0  0  0  0  0  0  0  0  0  0  0
    9.3947   12.5810   49.5526 C   0  0  0  0  0  0  0  0  0  0  0  0
    9.7670   12.4482   50.8995 C   0  0  0  0  0  0  0  0  0  0  0  0
    9.3391   13.3648   51.8653 C   0  0  0  0  0  0  0  0  0  0  0  0
   10.7647   11.1174   51.3468 Cl  0  0  0  0  0  0  0  0  0  0  0  0
    9.8174   13.1443   53.5325 Cl  0  0  0  0  0  0  0  0  0  0  0  0
    8.5201   14.4486   51.5092 C   0  0  0  0  0  0  0  0  0  0  0  0
    8.0692   15.4554   52.4921 C   0  0  0  0  0  0  0  0  0  0  0  0
    7.2387   17.3779   54.3060 C   0  0  0  0  0  0  0  0  0  0  0  0
    9.0107   16.1739   53.2503 C   0  0  0  0  0  0  0  0  0  0  0  0
    6.7234   15.7765   52.6936 C   0  0  0  0  0  0  0  0  0  0  0  0
    6.2977   16.7199   53.5799 N   0  0  0  0  0  0  0  0  0  0  0  0
    8.5968   17.1290   54.1763 C   0  0  0  0  0  0  0  0  0  0  0  0
    9.5398   17.7911   54.9062 O   0  0  0  0  0  0  0  0  0  0  0  0
   10.4479   17.5928   54.7883 H   0  0  0  0  0  0  0  0  0  0  0  0
    8.1423   13.8229   47.7525 C   0  0  0  0  0  0  0  0  0  0  0  0
    6.8413   11.7174   47.9098 N   0  0  0  0  0  0  0  0  0  0  0  0
    6.7552   13.1872   47.5767 C   0  0  0  0  0  0  0  0  0  0  0  0
    5.9231   11.2883   47.7951 H   0  0  0  0  0  0  0  0  0  0  0  0
    7.1509   11.6051   48.8752 H   0  0  0  0  0  0  0  0  0  0  0  0
    5.4656   14.4745   45.9699 O   0  0  0  0  0  0  0  0  0  0  0  0
    6.2144   13.4827   46.1445 C   0  0  0  0  0  0  0  0  0  0  0  0
    6.6124   12.6593   45.2739 O   0  0  0  0  0  0  0  0  0  0  0  0
    5.2344   15.0204   46.6955 H   0  0  0  0  0  0  0  0  0  0  0  0
 24 23  2  0  0  0
 22 23  1  0  0  0
 23 19  1  0  0  0
 19 17  1  0  0  0
 19 18  1  0  0  0
 17  1  1  0  0  0
  1  3  2  0  0  0
  1  2  1  0  0  0
  3  4  1  0  0  0
  2  8  2  0  0  0
  4  6  1  0  0  0
  4  5  2  0  0  0
  8  5  1  0  0  0
  8  9  1  0  0  0
  5  7  1  0  0  0
  9 12  2  0  0  0
  9 11  1  0  0  0
 12 13  1  0  0  0
 11 14  2  0  0  0
 13 10  2  0  0  0
 14 10  1  0  0  0
 14 15  1  0  0  0
 18 20  1  0  0  0
 18 21  1  0  0  0
 22 25  1  0  0  0
 15 16  1  0  0  0
M  END
> <minimizedAffinity>
-9.79800

$$$$
5CBR_4ZK_A_301


 25 26  0  0  0  0  0  0  0  0999 V2000
    8.1294   14.6967   52.5913 C   0  0  0  0  0  0  0  0  0  0  0  0
    7.7030   15.0572   51.3032 C   0  0  0  0  0  0  0  0  0  0  0  0
    9.0363   13.6456   52.7633 C   0  0  0  0  0  0  0  0  0  0  0  0
    9.4942   12.9587   51.6280 C   0  0  0  0  0  0  0  0  0  0  0  0
    9.0670   13.3117   50.3438 C   0  0  0  0  0  0  0  0  0  0  0  0
   10.6094   11.6647   51.8473 Cl  0  0  0  0  0  0  0  0  0  0  0  0
    9.6808   12.4348   48.9615 Cl  0  0  0  0  0  0  0  0  0  0  0  0
    8.1629   14.3699   50.1568 C   0  0  0  0  0  0  0  0  0  0  0  0
    7.6641   14.7570   48.8209 C   0  0  0  0  0  0  0  0  0  0  0  0
    6.6848   15.4710   46.3295 C   0  0  0  0  0  0  0  0  0  0  0  0
    7.2716   13.7697   47.8998 C   0  0  0  0  0  0  0  0  0  0  0  0
    7.5164   16.0875   48.4172 C   0  0  0  0  0  0  0  0  0  0  0  0
    7.0352   16.4561   47.1968 N   0  0  0  0  0  0  0  0  0  0  0  0
    6.7952   14.1237   46.6393 C   0  0  0  0  0  0  0  0  0  0  0  0
    6.4427   13.1362   45.7670 O   0  0  0  0  0  0  0  0  0  0  0  0
    6.5329   12.2373   46.0156 H   0  0  0  0  0  0  0  0  0  0  0  0
    7.6353   15.4758   53.7825 C   0  0  0  0  0  0  0  0  0  0  0  0
    9.2305   17.1084   54.7523 N   0  0  0  0  0  0  0  0  0  0  0  0
    8.1644   16.9155   53.7011 C   0  0  0  0  0  0  0  0  0  0  0  0
    9.5867   18.0629   54.7041 H   0  0  0  0  0  0  0  0  0  0  0  0
    9.9936   16.4520   54.5872 H   0  0  0  0  0  0  0  0  0  0  0  0
    6.8234   18.5688   54.8716 O   0  0  0  0  0  0  0  0  0  0  0  0
    6.9790   17.9226   53.8071 C   0  0  0  0  0  0  0  0  0  0  0  0
    6.2758   17.9879   52.7604 O   0  0  0  0  0  0  0  0  0  0  0  0
    7.4112   18.4376   55.5894 H   0  0  0  0  0  0  0  0  0  0  0  0
 24 23  2  0  0  0
 22 23  1  0  0  0
 23 19  1  0  0  0
 19 17  1  0  0  0
 19 18  1  0  0  0
 17  1  1  0  0  0
  1  3  2  0  0  0
  1  2  1  0  0  0
  3  4  1  0  0  0
  2  8  2  0  0  0
  4  6  1  0  0  0
  4  5  2  0  0  0
  8  5  1  0  0  0
  8  9  1  0  0  0
  5  7  1  0  0  0
  9 12  2  0  0  0
  9 11  1  0  0  0
 12 13  1  0  0  0
 11 14  2  0  0  0
 13 10  2  0  0  0
 14 10  1  0  0  0
 14 15  1  0  0  0
 18 20  1  0  0  0
 18 21  1  0  0  0
 22 25  1  0  0  0
 15 16  1  0  0  0
M  END
> <minimizedAffinity>
-9.54820

$$$$
5CBR_4ZK_A_301


 25 26  0  0  0  0  0  0  0  0999 V2000
    8.9786   14.5279   52.4453 C   0  0  0  0  0  0  0  0  0  0  0  0
    8.6859   14.7018   51.0833 C   0  0  0  0  0  0  0  0  0  0  0  0
    8.4287   15.3914   53.3985 C   0  0  0  0  0  0  0  0  0  0  0  0
    7.5960   16.4337   52.9621 C   0  0  0  0  0  0  0  0  0  0  0  0
    7.3069   16.6131   51.6055 C   0  0  0  0  0  0  0  0  0  0  0  0
    6.9235   17.4940   54.1411 Cl  0  0  0  0  0  0  0  0  0  0  0  0
    6.2501   17.9171   51.1161 Cl  0  0  0  0  0  0  0  0  0  0  0  0
    7.8463   15.7487   50.6391 C   0  0  0  0  0  0  0  0  0  0  0  0
    7.5898   15.9195   49.1941 C   0  0  0  0  0  0  0  0  0  0  0  0
    7.0623   16.2327   46.4923 C   0  0  0  0  0  0  0  0  0  0  0  0
    7.2646   14.8071   48.3977 C   0  0  0  0  0  0  0  0  0  0  0  0
    7.6123   17.1637   48.5565 C   0  0  0  0  0  0  0  0  0  0  0  0
    7.3539   17.3358   47.2297 N   0  0  0  0  0  0  0  0  0  0  0  0
    7.0160   14.9574   47.0352 C   0  0  0  0  0  0  0  0  0  0  0  0
    6.7227   13.8513   46.2930 O   0  0  0  0  0  0  0  0  0  0  0  0
    6.7017   13.0070   46.6986 H   0  0  0  0  0  0  0  0  0  0  0  0
    9.8556   13.3809   52.8759 C   0  0  0  0  0  0  0  0  0  0  0  0
    9.0993   11.0195   52.9247 N   0  0  0  0  0  0  0  0  0  0  0  0
    9.5328   12.1472   52.0197 C   0  0  0  0  0  0  0  0  0  0  0  0
    8.8831   10.1963   52.3625 H   0  0  0  0  0  0  0  0  0  0  0  0
    8.2697   11.3022   53.4466 H   0  0  0  0  0  0  0  0  0  0  0  0
   10.8646   12.3722   50.0004 O   0  0  0  0  0  0  0  0  0  0  0  0
   10.7512   11.7993   51.1111 C   0  0  0  0  0  0  0  0  0  0  0  0
   11.5317   10.9454   51.6170 O   0  0  0  0  0  0  0  0  0  0  0  0
   10.2194   12.9936   49.7257 H   0  0  0  0  0  0  0  0  0  0  0  0
 24 23  2  0  0  0
 22 23  1  0  0  0
 23 19  1  0  0  0
 19 17  1  0  0  0
 19 18  1  0  0  0
 17  1  1  0  0  0
  1  3  2  0  0  0
  1  2  1  0  0  0
  3  4  1  0  0  0
  2  8  2  0  0  0
  4  6  1  0  0  0
  4  5  2  0  0  0
  8  5  1  0  0  0
  8  9  1  0  0  0
  5  7  1  0  0  0
  9 12  2  0  0  0
  9 11  1  0  0  0
 12 13  1  0  0  0
 11 14  2  0  0  0
 13 10  2  0  0  0
 14 10  1  0  0  0
 14 15  1  0  0  0
 18 20  1  0  0  0
 18 21  1  0  0  0
 22 25  1  0  0  0
 15 16  1  0  0  0
M  END
> <minimizedAffinity>
-8.67804

$$$$
5CBR_4ZK_A_301


 25 26  0  0  0  0  0  0  0  0999 V2000
    9.6393   16.8415   49.5375 C   0  0  0  0  0  0  0  0  0  0  0  0
    9.1254   17.6284   48.4945 C   0  0  0  0  0  0  0  0  0  0  0  0
   10.9848   16.9513   49.9038 C   0  0  0  0  0  0  0  0  0  0  0  0
   11.8031   17.8491   49.2005 C   0  0  0  0  0  0  0  0  0  0  0  0
   11.2956   18.6304   48.1573 C   0  0  0  0  0  0  0  0  0  0  0  0
   13.4591   17.9781   49.6559 Cl  0  0  0  0  0  0  0  0  0  0  0  0
   12.3534   19.7458   47.3245 Cl  0  0  0  0  0  0  0  0  0  0  0  0
    9.9450   18.5355   47.7848 C   0  0  0  0  0  0  0  0  0  0  0  0
    9.3749   19.3209   46.6706 C   0  0  0  0  0  0  0  0  0  0  0  0
    8.2631   20.7753   44.5911 C   0  0  0  0  0  0  0  0  0  0  0  0
    8.9937   18.6814   45.4777 C   0  0  0  0  0  0  0  0  0  0  0  0
    9.1472   20.6984   46.7457 C   0  0  0  0  0  0  0  0  0  0  0  0
    8.6002   21.4285   45.7335 N   0  0  0  0  0  0  0  0  0  0  0  0
    8.4506   19.4115   44.4228 C   0  0  0  0  0  0  0  0  0  0  0  0
    8.1112   18.7577   43.2748 O   0  0  0  0  0  0  0  0  0  0  0  0
    8.2545   17.8346   43.2015 H   0  0  0  0  0  0  0  0  0  0  0  0
    8.7223   15.9089   50.2854 C   0  0  0  0  0  0  0  0  0  0  0  0
    8.2360   16.2236   52.6969 N   0  0  0  0  0  0  0  0  0  0  0  0
    7.9057   16.7134   51.3077 C   0  0  0  0  0  0  0  0  0  0  0  0
    7.6970   16.7538   53.3815 H   0  0  0  0  0  0  0  0  0  0  0  0
    9.2321   16.3524   52.8748 H   0  0  0  0  0  0  0  0  0  0  0  0
    5.7461   15.6022   51.2488 O   0  0  0  0  0  0  0  0  0  0  0  0
    6.3895   16.6380   50.9521 C   0  0  0  0  0  0  0  0  0  0  0  0
    5.9509   17.6774   50.3850 O   0  0  0  0  0  0  0  0  0  0  0  0
    6.1789   14.8869   51.6717 H   0  0  0  0  0  0  0  0  0  0  0  0
 24 23  2  0  0  0
 22 23  1  0  0  0
 23 19  1  0  0  0
 19 17  1  0  0  0
 19 18  1  0  0  0
 17  1  1  0  0  0
  1  3  2  0  0  0
  1  2  1  0  0  0
  3  4  1  0  0  0
  2  8  2  0  0  0
  4  6  1  0  0  0
  4  5  2  0  0  0
  8  5  1  0  0  0
  8  9  1  0  0  0
  5  7  1  0  0  0
  9 12  2  0  0  0
  9 11  1  0  0  0
 12 13  1  0  0  0
 11 14  2  0  0  0
 13 10  2  0  0  0
 14 10  1  0  0  0
 14 15  1  0  0  0
 18 20  1  0  0  0
 18 21  1  0  0  0
 22 25  1  0  0  0
 15 16  1  0  0  0
M  END
> <minimizedAffinity>
-8.38363

$$$$
5CBR_4ZK_A_301


 25 26  0  0  0  0  0  0  0  0999 V2000
    9.7933   16.9588   49.4040 C   0  0  0  0  0  0  0  0  0  0  0  0
    9.2255   17.7074   48.3608 C   0  0  0  0  0  0  0  0  0  0  0  0
   11.1237   17.1726   49.7795 C   0  0  0  0  0  0  0  0  0  0  0  0
   11.8731   18.1352   49.0852 C   0  0  0  0  0  0  0  0  0  0  0  0
   11.3121   18.8787   48.0417 C   0  0  0  0  0  0  0  0  0  0  0  0
   13.5109   18.3922   49.5519 Cl  0  0  0  0  0  0  0  0  0  0  0  0
   12.2839   20.0777   47.2203 Cl  0  0  0  0  0  0  0  0  0  0  0  0
    9.9755   18.6793   47.6600 C   0  0  0  0  0  0  0  0  0  0  0  0
    9.3522   19.4224   46.5453 C   0  0  0  0  0  0  0  0  0  0  0  0
    8.1415   20.7962   44.4662 C   0  0  0  0  0  0  0  0  0  0  0  0
    8.9564   18.7449   45.3783 C   0  0  0  0  0  0  0  0  0  0  0  0
    9.0872   20.7943   46.5959 C   0  0  0  0  0  0  0  0  0  0  0  0
    8.4914   21.4850   45.5836 N   0  0  0  0  0  0  0  0  0  0  0  0
    8.3634   19.4348   44.3232 C   0  0  0  0  0  0  0  0  0  0  0  0
    8.0111   18.7452   43.2004 O   0  0  0  0  0  0  0  0  0  0  0  0
    8.1788   17.8251   43.1437 H   0  0  0  0  0  0  0  0  0  0  0  0
    8.9481   15.9535   50.1422 C   0  0  0  0  0  0  0  0  0  0  0  0
    7.0420   14.7113   49.1553 N   0  0  0  0  0  0  0  0  0  0  0  0
    8.5470   14.8252   49.1804 C   0  0  0  0  0  0  0  0  0  0  0  0
    6.7682   13.9633   48.5181 H   0  0  0  0  0  0  0  0  0  0  0  0
    6.6395   15.5930   48.8375 H   0  0  0  0  0  0  0  0  0  0  0  0
   10.4277   13.5731   50.0733 O   0  0  0  0  0  0  0  0  0  0  0  0
    9.2768   13.5058   49.5775 C   0  0  0  0  0  0  0  0  0  0  0  0
    8.5974   12.4653   49.3543 O   0  0  0  0  0  0  0  0  0  0  0  0
   10.8379   14.4069   50.1938 H   0  0  0  0  0  0  0  0  0  0  0  0
 24 23  2  0  0  0
 22 23  1  0  0  0
 23 19  1  0  0  0
 19 17  1  0  0  0
 19 18  1  0  0  0
 17  1  1  0  0  0
  1  3  2  0  0  0
  1  2  1  0  0  0
  3  4  1  0  0  0
  2  8  2  0  0  0
  4  6  1  0  0  0
  4  5  2  0  0  0
  8  5  1  0  0  0
  8  9  1  0  0  0
  5  7  1  0  0  0
  9 12  2  0  0  0
  9 11  1  0  0  0
 12 13  1  0  0  0
 11 14  2  0  0  0
 13 10  2  0  0  0
 14 10  1  0  0  0
 14 15  1  0  0  0
 18 20  1  0  0  0
 18 21  1  0  0  0
 22 25  1  0  0  0
 15 16  1  0  0  0
M  END
> <minimizedAffinity>
-8.30465

$$$$
5CBR_4ZK_A_301


 25 26  0  0  0  0  0  0  0  0999 V2000
   10.3736   15.1224   51.5615 C   0  0  0  0  0  0  0  0  0  0  0  0
    9.4268   14.8171   50.5709 C   0  0  0  0  0  0  0  0  0  0  0  0
   11.1388   16.2896   51.4668 C   0  0  0  0  0  0  0  0  0  0  0  0
   10.9476   17.1323   50.3607 C   0  0  0  0  0  0  0  0  0  0  0  0
   10.0092   16.8281   49.3692 C   0  0  0  0  0  0  0  0  0  0  0  0
   11.8942   18.5669   50.2497 Cl  0  0  0  0  0  0  0  0  0  0  0  0
    9.7979   17.9202   48.0203 Cl  0  0  0  0  0  0  0  0  0  0  0  0
    9.2291   15.6636   49.4563 C   0  0  0  0  0  0  0  0  0  0  0  0
    8.2473   15.2901   48.4172 C   0  0  0  0  0  0  0  0  0  0  0  0
    6.3770   14.5733   46.5030 C   0  0  0  0  0  0  0  0  0  0  0  0
    8.0453   13.9376   48.0894 C   0  0  0  0  0  0  0  0  0  0  0  0
    7.4529   16.2248   47.7461 C   0  0  0  0  0  0  0  0  0  0  0  0
    6.5276   15.8896   46.8036 N   0  0  0  0  0  0  0  0  0  0  0  0
    7.1186   13.5739   47.1149 C   0  0  0  0  0  0  0  0  0  0  0  0
    6.9655   12.2529   46.8116 O   0  0  0  0  0  0  0  0  0  0  0  0
    7.4868   11.6084   47.2485 H   0  0  0  0  0  0  0  0  0  0  0  0
   10.5304   14.2058   52.7469 C   0  0  0  0  0  0  0  0  0  0  0  0
    8.6212   13.3333   54.0677 N   0  0  0  0  0  0  0  0  0  0  0  0
    9.3714   13.1980   52.7647 C   0  0  0  0  0  0  0  0  0  0  0  0
    7.8495   12.6666   54.0865 H   0  0  0  0  0  0  0  0  0  0  0  0
    8.2538   14.2811   54.1516 H   0  0  0  0  0  0  0  0  0  0  0  0
   10.9464   11.6253   51.7912 O   0  0  0  0  0  0  0  0  0  0  0  0
    9.9134   11.7620   52.4906 C   0  0  0  0  0  0  0  0  0  0  0  0
    9.2279   10.8507   53.0327 O   0  0  0  0  0  0  0  0  0  0  0  0
   11.3759   12.3792   51.4375 H   0  0  0  0  0  0  0  0  0  0  0  0
 24 23  2  0  0  0
 22 23  1  0  0  0
 23 19  1  0  0  0
 19 17  1  0  0  0
 19 18  1  0  0  0
 17  1  1  0  0  0
  1  3  2  0  0  0
  1  2  1  0  0  0
  3  4  1  0  0  0
  2  8  2  0  0  0
  4  6  1  0  0  0
  4  5  2  0  0  0
  8  5  1  0  0  0
  8  9  1  0  0  0
  5  7  1  0  0  0
  9 12  2  0  0  0
  9 11  1  0  0  0
 12 13  1  0  0  0
 11 14  2  0  0  0
 13 10  2  0  0  0
 14 10  1  0  0  0
 14 15  1  0  0  0
 18 20  1  0  0  0
 18 21  1  0  0  0
 22 25  1  0  0  0
 15 16  1  0  0  0
M  END
> <minimizedAffinity>
-8.13623

$$$$
5CBR_4ZK_A_301


 25 26  0  0  0  0  0  0  0  0999 V2000
    8.1535   15.8960   48.5357 C   0  0  0  0  0  0  0  0  0  0  0  0
    7.4658   16.2897   47.3768 C   0  0  0  0  0  0  0  0  0  0  0  0
    9.1964   16.6826   49.0359 C   0  0  0  0  0  0  0  0  0  0  0  0
    9.5434   17.8567   48.3493 C   0  0  0  0  0  0  0  0  0  0  0  0
    8.8640   18.2489   47.1914 C   0  0  0  0  0  0  0  0  0  0  0  0
   10.8294   18.8197   48.9700 Cl  0  0  0  0  0  0  0  0  0  0  0  0
    9.3244   19.7294   46.3834 Cl  0  0  0  0  0  0  0  0  0  0  0  0
    7.8101   17.4723   46.6831 C   0  0  0  0  0  0  0  0  0  0  0  0
    7.0851   17.8348   45.4477 C   0  0  0  0  0  0  0  0  0  0  0  0
    5.7475   18.4786   43.1084 C   0  0  0  0  0  0  0  0  0  0  0  0
    7.7658   18.4553   44.3852 C   0  0  0  0  0  0  0  0  0  0  0  0
    5.7300   17.5545   45.2476 C   0  0  0  0  0  0  0  0  0  0  0  0
    5.0573   17.8627   44.1033 N   0  0  0  0  0  0  0  0  0  0  0  0
    7.0932   18.7969   43.2140 C   0  0  0  0  0  0  0  0  0  0  0  0
    7.7842   19.4151   42.2136 O   0  0  0  0  0  0  0  0  0  0  0  0
    8.6933   19.6129   42.3251 H   0  0  0  0  0  0  0  0  0  0  0  0
    7.7335   14.6427   49.2589 C   0  0  0  0  0  0  0  0  0  0  0  0
    7.1773   12.5616   48.0300 N   0  0  0  0  0  0  0  0  0  0  0  0
    8.3130   13.4200   48.5319 C   0  0  0  0  0  0  0  0  0  0  0  0
    7.5550   11.7472   47.5458 H   0  0  0  0  0  0  0  0  0  0  0  0
    6.6008   13.1030   47.3859 H   0  0  0  0  0  0  0  0  0  0  0  0
    9.1462   11.4430   49.6717 O   0  0  0  0  0  0  0  0  0  0  0  0
    9.3098   12.6704   49.4675 C   0  0  0  0  0  0  0  0  0  0  0  0
   10.2197   13.4110   49.9342 O   0  0  0  0  0  0  0  0  0  0  0  0
    8.4298   10.9926   49.2693 H   0  0  0  0  0  0  0  0  0  0  0  0
 24 23  2  0  0  0
 22 23  1  0  0  0
 23 19  1  0  0  0
 19 17  1  0  0  0
 19 18  1  0  0  0
 17  1  1  0  0  0
  1  3  2  0  0  0
  1  2  1  0  0  0
  3  4  1  0  0  0
  2  8  2  0  0  0
  4  6  1  0  0  0
  4  5  2  0  0  0
  8  5  1  0  0  0
  8  9  1  0  0  0
  5  7  1  0  0  0
  9 12  2  0  0  0
  9 11  1  0  0  0
 12 13  1  0  0  0
 11 14  2  0  0  0
 13 10  2  0  0  0
 14 10  1  0  0  0
 14 15  1  0  0  0
 18 20  1  0  0  0
 18 21  1  0  0  0
 22 25  1  0  0  0
 15 16  1  0  0  0
M  END
> <minimizedAffinity>
-8.12241

$$$$
5CBR_4ZK_A_301


 25 26  0  0  0  0  0  0  0  0999 V2000
    7.6034   16.5087   47.6874 C   0  0  0  0  0  0  0  0  0  0  0  0
    8.6453   17.3892   48.0194 C   0  0  0  0  0  0  0  0  0  0  0  0
    6.9438   16.6309   46.4599 C   0  0  0  0  0  0  0  0  0  0  0  0
    7.3370   17.6541   45.5831 C   0  0  0  0  0  0  0  0  0  0  0  0
    8.3708   18.5364   45.9132 C   0  0  0  0  0  0  0  0  0  0  0  0
    6.5195   17.7996   44.0741 Cl  0  0  0  0  0  0  0  0  0  0  0  0
    8.8332   19.7832   44.7781 Cl  0  0  0  0  0  0  0  0  0  0  0  0
    9.0462   18.4197   47.1389 C   0  0  0  0  0  0  0  0  0  0  0  0
   10.1241   19.3477   47.5392 C   0  0  0  0  0  0  0  0  0  0  0  0
   12.1514   21.0996   48.2440 C   0  0  0  0  0  0  0  0  0  0  0  0
   11.4674   19.0266   47.2751 C   0  0  0  0  0  0  0  0  0  0  0  0
    9.8812   20.5827   48.1483 C   0  0  0  0  0  0  0  0  0  0  0  0
   10.8659   21.4566   48.4999 N   0  0  0  0  0  0  0  0  0  0  0  0
   12.4912   19.8965   47.6437 C   0  0  0  0  0  0  0  0  0  0  0  0
   13.7827   19.5402   47.3876 O   0  0  0  0  0  0  0  0  0  0  0  0
   13.9697   18.7175   46.9801 H   0  0  0  0  0  0  0  0  0  0  0  0
    7.2287   15.4069   48.6444 C   0  0  0  0  0  0  0  0  0  0  0  0
    6.1953   13.3315   47.7641 N   0  0  0  0  0  0  0  0  0  0  0  0
    7.5057   14.0475   47.9852 C   0  0  0  0  0  0  0  0  0  0  0  0
    6.3717   12.4272   47.3263 H   0  0  0  0  0  0  0  0  0  0  0  0
    5.5993   13.8931   47.1560 H   0  0  0  0  0  0  0  0  0  0  0  0
    8.4512   11.9913   48.8684 O   0  0  0  0  0  0  0  0  0  0  0  0
    8.5320   13.2433   48.8401 C   0  0  0  0  0  0  0  0  0  0  0  0
    9.3767   13.9709   49.4328 O   0  0  0  0  0  0  0  0  0  0  0  0
    7.7775   11.5543   48.3854 H   0  0  0  0  0  0  0  0  0  0  0  0
 24 23  2  0  0  0
 22 23  1  0  0  0
 23 19  1  0  0  0
 19 17  1  0  0  0
 19 18  1  0  0  0
 17  1  1  0  0  0
  1  3  2  0  0  0
  1  2  1  0  0  0
  3  4  1  0  0  0
  2  8  2  0  0  0
  4  6  1  0  0  0
  4  5  2  0  0  0
  8  5  1  0  0  0
  8  9  1  0  0  0
  5  7  1  0  0  0
  9 12  2  0  0  0
  9 11  1  0  0  0
 12 13  1  0  0  0
 11 14  2  0  0  0
 13 10  2  0  0  0
 14 10  1  0  0  0
 14 15  1  0  0  0
 18 20  1  0  0  0
 18 21  1  0  0  0
 22 25  1  0  0  0
 15 16  1  0  0  0
M  END
> <minimizedAffinity>
-8.05587

$$$$
5CBR_4ZK_A_301


 25 26  0  0  0  0  0  0  0  0999 V2000
    8.3741   17.2616   48.2533 C   0  0  0  0  0  0  0  0  0  0  0  0
    8.8382   16.4260   49.2816 C   0  0  0  0  0  0  0  0  0  0  0  0
    7.5860   16.7377   47.2233 C   0  0  0  0  0  0  0  0  0  0  0  0
    7.2850   15.3667   47.2364 C   0  0  0  0  0  0  0  0  0  0  0  0
    7.7504   14.5304   48.2563 C   0  0  0  0  0  0  0  0  0  0  0  0
    6.3153   14.7281   45.9642 Cl  0  0  0  0  0  0  0  0  0  0  0  0
    7.3328   12.8328   48.2349 Cl  0  0  0  0  0  0  0  0  0  0  0  0
    8.5360   15.0452   49.3003 C   0  0  0  0  0  0  0  0  0  0  0  0
    9.0718   14.1923   50.3814 C   0  0  0  0  0  0  0  0  0  0  0  0
   10.0365   12.5668   52.4069 C   0  0  0  0  0  0  0  0  0  0  0  0
    8.5422   14.2827   51.6809 C   0  0  0  0  0  0  0  0  0  0  0  0
   10.0776   13.2428   50.1773 C   0  0  0  0  0  0  0  0  0  0  0  0
   10.5624   12.4345   51.1614 N   0  0  0  0  0  0  0  0  0  0  0  0
    9.0365   13.4798   52.7065 C   0  0  0  0  0  0  0  0  0  0  0  0
    8.5098   13.6108   53.9579 O   0  0  0  0  0  0  0  0  0  0  0  0
    7.8348   14.2405   54.1185 H   0  0  0  0  0  0  0  0  0  0  0  0
    8.6967   18.7329   48.2892 C   0  0  0  0  0  0  0  0  0  0  0  0
   10.9538   19.7573   48.2068 N   0  0  0  0  0  0  0  0  0  0  0  0
    9.9212   19.0048   47.4028 C   0  0  0  0  0  0  0  0  0  0  0  0
   11.7704   19.9415   47.6240 H   0  0  0  0  0  0  0  0  0  0  0  0
   11.2308   19.1976   49.0132 H   0  0  0  0  0  0  0  0  0  0  0  0
    9.5321   19.1135   45.0073 O   0  0  0  0  0  0  0  0  0  0  0  0
    9.4790   19.7333   46.0972 C   0  0  0  0  0  0  0  0  0  0  0  0
    9.0906   20.9197   46.2868 O   0  0  0  0  0  0  0  0  0  0  0  0
    9.8399   18.2288   44.9859 H   0  0  0  0  0  0  0  0  0  0  0  0
 24 23  2  0  0  0
 22 23  1  0  0  0
 23 19  1  0  0  0
 19 17  1  0  0  0
 19 18  1  0  0  0
 17  1  1  0  0  0
  1  3  2  0  0  0
  1  2  1  0  0  0
  3  4  1  0  0  0
  2  8  2  0  0  0
  4  6  1  0  0  0
  4  5  2  0  0  0
  8  5  1  0  0  0
  8  9  1  0  0  0
  5  7  1  0  0  0
  9 12  2  0  0  0
  9 11  1  0  0  0
 12 13  1  0  0  0
 11 14  2  0  0  0
 13 10  2  0  0  0
 14 10  1  0  0  0
 14 15  1  0  0  0
 18 20  1  0  0  0
 18 21  1  0  0  0
 22 25  1  0  0  0
 15 16  1  0  0  0
M  END
> <minimizedAffinity>
-7.99220

$$$$
5CBR_4ZK_A_301


 25 26  0  0  0  0  0  0  0  0999 V2000
    8.0798   14.2544   49.1107 C   0  0  0  0  0  0  0  0  0  0  0  0
    7.9383   15.1023   50.2207 C   0  0  0  0  0  0  0  0  0  0  0  0
    8.8374   13.0830   49.2128 C   0  0  0  0  0  0  0  0  0  0  0  0
    9.4574   12.7864   50.4367 C   0  0  0  0  0  0  0  0  0  0  0  0
    9.3231   13.6319   51.5428 C   0  0  0  0  0  0  0  0  0  0  0  0
   10.3899   11.3432   50.5549 Cl  0  0  0  0  0  0  0  0  0  0  0  0
   10.1019   13.2079   53.0495 Cl  0  0  0  0  0  0  0  0  0  0  0  0
    8.5590   14.8069   51.4559 C   0  0  0  0  0  0  0  0  0  0  0  0
    8.4145   15.7420   52.5908 C   0  0  0  0  0  0  0  0  0  0  0  0
    8.1144   17.4641   54.7403 C   0  0  0  0  0  0  0  0  0  0  0  0
    7.2147   16.4525   52.7727 C   0  0  0  0  0  0  0  0  0  0  0  0
    9.4140   15.9410   53.5481 C   0  0  0  0  0  0  0  0  0  0  0  0
    9.2825   16.7825   54.6118 N   0  0  0  0  0  0  0  0  0  0  0  0
    7.0659   17.3329   53.8421 C   0  0  0  0  0  0  0  0  0  0  0  0
    5.8938   18.0181   53.9732 O   0  0  0  0  0  0  0  0  0  0  0  0
    5.2096   17.9008   53.3439 H   0  0  0  0  0  0  0  0  0  0  0  0
    7.3768   14.5942   47.8221 C   0  0  0  0  0  0  0  0  0  0  0  0
    6.8537   16.8248   48.7714 N   0  0  0  0  0  0  0  0  0  0  0  0
    7.4561   16.1098   47.5862 C   0  0  0  0  0  0  0  0  0  0  0  0
    6.9029   17.8325   48.6215 H   0  0  0  0  0  0  0  0  0  0  0  0
    7.3722   16.5807   49.6152 H   0  0  0  0  0  0  0  0  0  0  0  0
    6.8756   17.6468   45.7966 O   0  0  0  0  0  0  0  0  0  0  0  0
    6.7909   16.4695   46.2227 C   0  0  0  0  0  0  0  0  0  0  0  0
    6.2192   15.4913   45.6654 O   0  0  0  0  0  0  0  0  0  0  0  0
    7.3279   18.2955   46.2992 H   0  0  0  0  0  0  0  0  0  0  0  0
 24 23  2  0  0  0
 22 23  1  0  0  0
 23 19  1  0  0  0
 19 17  1  0  0  0
 19 18  1  0  0  0
 17  1  1  0  0  0
  1  3  2  0  0  0
  1  2  1  0  0  0
  3  4  1  0  0  0
  2  8  2  0  0  0
  4  6  1  0  0  0
  4  5  2  0  0  0
  8  5  1  0  0  0
  8  9  1  0  0  0
  5  7  1  0  0  0
  9 12  2  0  0  0
  9 11  1  0  0  0
 12 13  1  0  0  0
 11 14  2  0  0  0
 13 10  2  0  0  0
 14 10  1  0  0  0
 14 15  1  0  0  0
 18 20  1  0  0  0
 18 21  1  0  0  0
 22 25  1  0  0  0
 15 16  1  0  0  0
M  END
> <minimizedAffinity>
-7.86324

$$$$
