4TZ2_39R_A_1205


 21 23  0  0  0  0  0  0  0  0999 V2000
   23.9890  -44.3479   10.9666 C   0  0  0  0  0  0  0  0  0  0  0  0
   24.9398  -45.2928   10.8852 N   0  0  0  0  0  0  0  0  0  0  0  0
   24.3306  -43.4242   11.9518 N   0  0  0  0  0  0  0  0  0  0  0  0
   25.5014  -43.8383   12.4452 N   0  0  0  0  0  0  0  0  0  0  0  0
   25.8892  -44.9873   11.8290 C   0  0  0  0  0  0  0  0  0  0  0  0
   24.9535  -46.0586   10.2666 H   0  0  0  0  0  0  0  0  0  0  0  0
   22.4968  -45.2734    9.2243 C   0  0  0  0  0  0  0  0  0  0  0  0
   21.3530  -45.2258    8.4374 C   0  0  0  0  0  0  0  0  0  0  0  0
   21.2599  -46.2977    7.5600 N   0  0  0  0  0  0  0  0  0  0  0  0
   20.3594  -44.1982    8.5365 C   0  0  0  0  0  0  0  0  0  0  0  0
   20.5917  -43.1858    9.4518 C   0  0  0  0  0  0  0  0  0  0  0  0
   21.7521  -43.2377   10.2429 C   0  0  0  0  0  0  0  0  0  0  0  0
   22.7220  -44.2602   10.1452 C   0  0  0  0  0  0  0  0  0  0  0  0
   20.4897  -46.3700    6.9511 H   0  0  0  0  0  0  0  0  0  0  0  0
   21.9642  -46.9855    7.5467 H   0  0  0  0  0  0  0  0  0  0  0  0
   27.1995  -45.7048   12.1111 C   0  0  0  0  0  0  0  0  0  0  0  0
   28.1919  -45.0738   12.8548 C   0  0  0  0  0  0  0  0  0  0  0  0
   29.3986  -45.7316   13.0723 C   0  0  0  0  0  0  0  0  0  0  0  0
   29.6216  -46.9954   12.5393 C   0  0  0  0  0  0  0  0  0  0  0  0
   28.6338  -47.6132   11.7809 C   0  0  0  0  0  0  0  0  0  0  0  0
   27.4254  -46.9637   11.5560 C   0  0  0  0  0  0  0  0  0  0  0  0
 11 10  2  0  0  0
 11 12  1  0  0  0
 10  8  1  0  0  0
 12 13  2  0  0  0
  8  9  1  0  0  0
  8  7  2  0  0  0
 13  7  1  0  0  0
 13  1  1  0  0  0
 21 20  2  0  0  0
 21 16  1  0  0  0
 20 19  1  0  0  0
  2  1  1  0  0  0
  2  5  1  0  0  0
  1  3  2  0  0  0
  5 16  1  0  0  0
  5  4  2  0  0  0
 16 17  2  0  0  0
 19 18  2  0  0  0
  3  4  1  0  0  0
 17 18  1  0  0  0
  9 14  1  0  0  0
  9 15  1  0  0  0
  2  6  1  0  0  0
M  END
> <minimizedAffinity>
-8.10178

$$$$
4TZ2_39R_A_1205


 21 23  0  0  0  0  0  0  0  0999 V2000
   24.0993  -44.5543   10.7211 C   0  0  0  0  0  0  0  0  0  0  0  0
   25.1059  -45.4428   10.7477 N   0  0  0  0  0  0  0  0  0  0  0  0
   24.3729  -43.5110   11.6027 N   0  0  0  0  0  0  0  0  0  0  0  0
   25.5603  -43.7976   12.1446 N   0  0  0  0  0  0  0  0  0  0  0  0
   26.0237  -44.9805   11.6584 C   0  0  0  0  0  0  0  0  0  0  0  0
   25.1730  -46.2685   10.2157 H   0  0  0  0  0  0  0  0  0  0  0  0
   21.8171  -43.7503   10.2070 C   0  0  0  0  0  0  0  0  0  0  0  0
   20.6357  -43.7969    9.4778 C   0  0  0  0  0  0  0  0  0  0  0  0
   19.7021  -42.8639    9.9081 N   0  0  0  0  0  0  0  0  0  0  0  0
   20.4107  -44.6906    8.3808 C   0  0  0  0  0  0  0  0  0  0  0  0
   21.4307  -45.5739    8.0705 C   0  0  0  0  0  0  0  0  0  0  0  0
   22.6225  -45.5242    8.8137 C   0  0  0  0  0  0  0  0  0  0  0  0
   22.8394  -44.6327    9.8880 C   0  0  0  0  0  0  0  0  0  0  0  0
   18.8252  -42.8043    9.4646 H   0  0  0  0  0  0  0  0  0  0  0  0
   19.9169  -42.2618   10.6568 H   0  0  0  0  0  0  0  0  0  0  0  0
   27.3711  -45.5824   12.0238 C   0  0  0  0  0  0  0  0  0  0  0  0
   27.7274  -46.8366   11.5378 C   0  0  0  0  0  0  0  0  0  0  0  0
   28.9492  -47.3873   11.9119 C   0  0  0  0  0  0  0  0  0  0  0  0
   29.7980  -46.7053   12.7752 C   0  0  0  0  0  0  0  0  0  0  0  0
   29.4285  -45.4610   13.2730 C   0  0  0  0  0  0  0  0  0  0  0  0
   28.2090  -44.9028   12.9069 C   0  0  0  0  0  0  0  0  0  0  0  0
 11 10  2  0  0  0
 11 12  1  0  0  0
 10  8  1  0  0  0
 12 13  2  0  0  0
  8  9  1  0  0  0
  8  7  2  0  0  0
 13  7  1  0  0  0
 13  1  1  0  0  0
 21 20  2  0  0  0
 21 16  1  0  0  0
 20 19  1  0  0  0
  2  1  1  0  0  0
  2  5  1  0  0  0
  1  3  2  0  0  0
  5 16  1  0  0  0
  5  4  2  0  0  0
 16 17  2  0  0  0
 19 18  2  0  0  0
  3  4  1  0  0  0
 17 18  1  0  0  0
  9 14  1  0  0  0
  9 15  1  0  0  0
  2  6  1  0  0  0
M  END
> <minimizedAffinity>
-7.80159

$$$$
4TZ2_39R_A_1205


 21 23  0  0  0  0  0  0  0  0999 V2000
   26.0539  -45.2331   11.4837 C   0  0  0  0  0  0  0  0  0  0  0  0
   24.9775  -45.4898   10.7229 N   0  0  0  0  0  0  0  0  0  0  0  0
   25.9108  -43.9877   12.0914 N   0  0  0  0  0  0  0  0  0  0  0  0
   24.7294  -43.5181   11.6798 N   0  0  0  0  0  0  0  0  0  0  0  0
   24.1451  -44.4027   10.8275 C   0  0  0  0  0  0  0  0  0  0  0  0
   24.8159  -46.3026   10.1913 H   0  0  0  0  0  0  0  0  0  0  0  0
   27.1843  -47.4112   11.1728 C   0  0  0  0  0  0  0  0  0  0  0  0
   28.2658  -48.2666   11.3409 C   0  0  0  0  0  0  0  0  0  0  0  0
   28.0466  -49.5232   10.7926 N   0  0  0  0  0  0  0  0  0  0  0  0
   29.4885  -47.8889   11.9851 C   0  0  0  0  0  0  0  0  0  0  0  0
   29.5599  -46.6028   12.4927 C   0  0  0  0  0  0  0  0  0  0  0  0
   28.4615  -45.7428   12.3224 C   0  0  0  0  0  0  0  0  0  0  0  0
   27.2629  -46.1209   11.6771 C   0  0  0  0  0  0  0  0  0  0  0  0
   28.7451  -50.2145   10.8512 H   0  0  0  0  0  0  0  0  0  0  0  0
   27.1927  -49.7229   10.3452 H   0  0  0  0  0  0  0  0  0  0  0  0
   22.7695  -44.2089   10.2099 C   0  0  0  0  0  0  0  0  0  0  0  0
   22.2832  -45.1334    9.2907 C   0  0  0  0  0  0  0  0  0  0  0  0
   21.0374  -44.9207    8.7086 C   0  0  0  0  0  0  0  0  0  0  0  0
   20.2928  -43.7907    9.0240 C   0  0  0  0  0  0  0  0  0  0  0  0
   20.7919  -42.8605    9.9286 C   0  0  0  0  0  0  0  0  0  0  0  0
   22.0364  -43.0626   10.5142 C   0  0  0  0  0  0  0  0  0  0  0  0
 11 10  2  0  0  0
 11 12  1  0  0  0
 10  8  1  0  0  0
 12 13  2  0  0  0
  8  9  1  0  0  0
  8  7  2  0  0  0
 13  7  1  0  0  0
 13  1  1  0  0  0
 21 20  2  0  0  0
 21 16  1  0  0  0
 20 19  1  0  0  0
  2  1  1  0  0  0
  2  5  1  0  0  0
  1  3  2  0  0  0
  5 16  1  0  0  0
  5  4  2  0  0  0
 16 17  2  0  0  0
 19 18  2  0  0  0
  3  4  1  0  0  0
 17 18  1  0  0  0
  9 14  1  0  0  0
  9 15  1  0  0  0
  2  6  1  0  0  0
M  END
> <minimizedAffinity>
-7.64973

$$$$
4TZ2_39R_A_1205


 21 23  0  0  0  0  0  0  0  0999 V2000
   26.0585  -45.2953   11.4824 C   0  0  0  0  0  0  0  0  0  0  0  0
   24.9644  -45.5138   10.7350 N   0  0  0  0  0  0  0  0  0  0  0  0
   25.9599  -44.0524   12.1038 N   0  0  0  0  0  0  0  0  0  0  0  0
   24.7866  -43.5454   11.7141 N   0  0  0  0  0  0  0  0  0  0  0  0
   24.1650  -44.4046   10.8621 C   0  0  0  0  0  0  0  0  0  0  0  0
   24.7720  -46.3164   10.1983 H   0  0  0  0  0  0  0  0  0  0  0  0
   28.3293  -45.7287   12.3624 C   0  0  0  0  0  0  0  0  0  0  0  0
   29.4467  -46.5372   12.5280 C   0  0  0  0  0  0  0  0  0  0  0  0
   30.4545  -45.9179   13.2549 N   0  0  0  0  0  0  0  0  0  0  0  0
   29.5427  -47.8767   12.0287 C   0  0  0  0  0  0  0  0  0  0  0  0
   28.4606  -48.3592   11.3123 C   0  0  0  0  0  0  0  0  0  0  0  0
   27.3342  -47.5356   11.1453 C   0  0  0  0  0  0  0  0  0  0  0  0
   27.2444  -46.2190   11.6496 C   0  0  0  0  0  0  0  0  0  0  0  0
   31.2960  -46.3958   13.4357 H   0  0  0  0  0  0  0  0  0  0  0  0
   30.3277  -45.0007   13.5895 H   0  0  0  0  0  0  0  0  0  0  0  0
   22.7867  -44.1657   10.2666 C   0  0  0  0  0  0  0  0  0  0  0  0
   22.2408  -45.0915    9.3829 C   0  0  0  0  0  0  0  0  0  0  0  0
   20.9938  -44.8386    8.8198 C   0  0  0  0  0  0  0  0  0  0  0  0
   20.3068  -43.6683    9.1187 C   0  0  0  0  0  0  0  0  0  0  0  0
   20.8654  -42.7378    9.9874 C   0  0  0  0  0  0  0  0  0  0  0  0
   22.1117  -42.9800   10.5537 C   0  0  0  0  0  0  0  0  0  0  0  0
 11 10  2  0  0  0
 11 12  1  0  0  0
 10  8  1  0  0  0
 12 13  2  0  0  0
  8  9  1  0  0  0
  8  7  2  0  0  0
 13  7  1  0  0  0
 13  1  1  0  0  0
 21 20  2  0  0  0
 21 16  1  0  0  0
 20 19  1  0  0  0
  2  1  1  0  0  0
  2  5  1  0  0  0
  1  3  2  0  0  0
  5 16  1  0  0  0
  5  4  2  0  0  0
 16 17  2  0  0  0
 19 18  2  0  0  0
  3  4  1  0  0  0
 17 18  1  0  0  0
  9 14  1  0  0  0
  9 15  1  0  0  0
  2  6  1  0  0  0
M  END
> <minimizedAffinity>
-7.59630

$$$$
4TZ2_39R_A_1205


 21 23  0  0  0  0  0  0  0  0999 V2000
   24.4457  -45.2672   10.2449 C   0  0  0  0  0  0  0  0  0  0  0  0
   25.3678  -44.9437   11.1661 N   0  0  0  0  0  0  0  0  0  0  0  0
   24.8871  -46.3623    9.5057 N   0  0  0  0  0  0  0  0  0  0  0  0
   26.0823  -46.6816   10.0110 N   0  0  0  0  0  0  0  0  0  0  0  0
   26.4124  -45.8215   11.0119 C   0  0  0  0  0  0  0  0  0  0  0  0
   25.3065  -44.2159   11.8262 H   0  0  0  0  0  0  0  0  0  0  0  0
   22.2631  -45.1654    9.0853 C   0  0  0  0  0  0  0  0  0  0  0  0
   21.0428  -44.5572    8.8195 C   0  0  0  0  0  0  0  0  0  0  0  0
   20.2900  -45.2513    7.8818 N   0  0  0  0  0  0  0  0  0  0  0  0
   20.5929  -43.3582    9.4618 C   0  0  0  0  0  0  0  0  0  0  0  0
   21.4564  -42.7703   10.3705 C   0  0  0  0  0  0  0  0  0  0  0  0
   22.6909  -43.3884   10.6331 C   0  0  0  0  0  0  0  0  0  0  0  0
   23.1224  -44.5764   10.0019 C   0  0  0  0  0  0  0  0  0  0  0  0
   19.4048  -44.9139    7.6139 H   0  0  0  0  0  0  0  0  0  0  0  0
   20.6415  -46.0808    7.4848 H   0  0  0  0  0  0  0  0  0  0  0  0
   27.6829  -45.9259   11.8403 C   0  0  0  0  0  0  0  0  0  0  0  0
   27.9730  -44.9553   12.7942 C   0  0  0  0  0  0  0  0  0  0  0  0
   29.1580  -45.0477   13.5176 C   0  0  0  0  0  0  0  0  0  0  0  0
   30.0527  -46.0841   13.2805 C   0  0  0  0  0  0  0  0  0  0  0  0
   29.7668  -47.0404   12.3129 C   0  0  0  0  0  0  0  0  0  0  0  0
   28.5866  -46.9561   11.5831 C   0  0  0  0  0  0  0  0  0  0  0  0
 11 10  2  0  0  0
 11 12  1  0  0  0
 10  8  1  0  0  0
 12 13  2  0  0  0
  8  9  1  0  0  0
  8  7  2  0  0  0
 13  7  1  0  0  0
 13  1  1  0  0  0
 21 20  2  0  0  0
 21 16  1  0  0  0
 20 19  1  0  0  0
  2  1  1  0  0  0
  2  5  1  0  0  0
  1  3  2  0  0  0
  5 16  1  0  0  0
  5  4  2  0  0  0
 16 17  2  0  0  0
 19 18  2  0  0  0
  3  4  1  0  0  0
 17 18  1  0  0  0
  9 14  1  0  0  0
  9 15  1  0  0  0
  2  6  1  0  0  0
M  END
> <minimizedAffinity>
-7.31498

$$$$
4TZ2_39R_A_1205


 21 23  0  0  0  0  0  0  0  0999 V2000
   25.1029  -44.5122   10.5307 C   0  0  0  0  0  0  0  0  0  0  0  0
   25.8862  -45.5856   10.3361 N   0  0  0  0  0  0  0  0  0  0  0  0
   25.8117  -43.5361   11.2274 N   0  0  0  0  0  0  0  0  0  0  0  0
   27.0274  -44.0508   11.4347 N   0  0  0  0  0  0  0  0  0  0  0  0
   27.0974  -45.3083   10.9206 C   0  0  0  0  0  0  0  0  0  0  0  0
   25.6391  -46.4135    9.8642 H   0  0  0  0  0  0  0  0  0  0  0  0
   23.1865  -45.2424    9.1476 C   0  0  0  0  0  0  0  0  0  0  0  0
   21.8768  -45.1158    8.7022 C   0  0  0  0  0  0  0  0  0  0  0  0
   21.5351  -46.0765    7.7599 N   0  0  0  0  0  0  0  0  0  0  0  0
   20.9645  -44.1203    9.1812 C   0  0  0  0  0  0  0  0  0  0  0  0
   21.4494  -43.2214   10.1159 C   0  0  0  0  0  0  0  0  0  0  0  0
   22.7762  -43.3525   10.5605 C   0  0  0  0  0  0  0  0  0  0  0  0
   23.6661  -44.3435   10.0896 C   0  0  0  0  0  0  0  0  0  0  0  0
   20.6302  -46.0855    7.3720 H   0  0  0  0  0  0  0  0  0  0  0  0
   22.1975  -46.7487    7.4796 H   0  0  0  0  0  0  0  0  0  0  0  0
   28.3524  -46.1661   10.9357 C   0  0  0  0  0  0  0  0  0  0  0  0
   29.3637  -45.9355   10.0083 C   0  0  0  0  0  0  0  0  0  0  0  0
   30.4891  -46.7538   10.0139 C   0  0  0  0  0  0  0  0  0  0  0  0
   30.5976  -47.8015   10.9203 C   0  0  0  0  0  0  0  0  0  0  0  0
   29.5755  -48.0393   11.8322 C   0  0  0  0  0  0  0  0  0  0  0  0
   28.4460  -47.2288   11.8334 C   0  0  0  0  0  0  0  0  0  0  0  0
 11 10  2  0  0  0
 11 12  1  0  0  0
 10  8  1  0  0  0
 12 13  2  0  0  0
  8  9  1  0  0  0
  8  7  2  0  0  0
 13  7  1  0  0  0
 13  1  1  0  0  0
 21 20  2  0  0  0
 21 16  1  0  0  0
 20 19  1  0  0  0
  2  1  1  0  0  0
  2  5  1  0  0  0
  1  3  2  0  0  0
  5 16  1  0  0  0
  5  4  2  0  0  0
 16 17  2  0  0  0
 19 18  2  0  0  0
  3  4  1  0  0  0
 17 18  1  0  0  0
  9 14  1  0  0  0
  9 15  1  0  0  0
  2  6  1  0  0  0
M  END
> <minimizedAffinity>
-7.18445

$$$$
4TZ2_39R_A_1205


 21 23  0  0  0  0  0  0  0  0999 V2000
   26.0656  -44.7613   11.3991 C   0  0  0  0  0  0  0  0  0  0  0  0
   25.1623  -45.0174   10.4388 N   0  0  0  0  0  0  0  0  0  0  0  0
   25.5184  -43.8858   12.3343 N   0  0  0  0  0  0  0  0  0  0  0  0
   24.2758  -43.6352   11.9114 N   0  0  0  0  0  0  0  0  0  0  0  0
   24.0358  -44.2950   10.7462 C   0  0  0  0  0  0  0  0  0  0  0  0
   25.2846  -45.6103    9.6624 H   0  0  0  0  0  0  0  0  0  0  0  0
   28.3199  -45.0497   10.4226 C   0  0  0  0  0  0  0  0  0  0  0  0
   29.6176  -45.5442   10.4578 C   0  0  0  0  0  0  0  0  0  0  0  0
   30.3479  -45.2164    9.3235 N   0  0  0  0  0  0  0  0  0  0  0  0
   30.1575  -46.2887   11.5564 C   0  0  0  0  0  0  0  0  0  0  0  0
   29.3072  -46.5483   12.6177 C   0  0  0  0  0  0  0  0  0  0  0  0
   27.9944  -46.0482   12.5751 C   0  0  0  0  0  0  0  0  0  0  0  0
   27.4733  -45.3065   11.4916 C   0  0  0  0  0  0  0  0  0  0  0  0
   31.2825  -45.5137    9.2369 H   0  0  0  0  0  0  0  0  0  0  0  0
   29.9313  -44.6868    8.6058 H   0  0  0  0  0  0  0  0  0  0  0  0
   22.7036  -44.2738   10.0142 C   0  0  0  0  0  0  0  0  0  0  0  0
   22.3846  -45.2918    9.1208 C   0  0  0  0  0  0  0  0  0  0  0  0
   21.1764  -45.2370    8.4328 C   0  0  0  0  0  0  0  0  0  0  0  0
   20.3045  -44.1710    8.6181 C   0  0  0  0  0  0  0  0  0  0  0  0
   20.6368  -43.1469    9.4975 C   0  0  0  0  0  0  0  0  0  0  0  0
   21.8424  -43.1912   10.1882 C   0  0  0  0  0  0  0  0  0  0  0  0
 11 10  2  0  0  0
 11 12  1  0  0  0
 10  8  1  0  0  0
 12 13  2  0  0  0
  8  9  1  0  0  0
  8  7  2  0  0  0
 13  7  1  0  0  0
 13  1  1  0  0  0
 21 20  2  0  0  0
 21 16  1  0  0  0
 20 19  1  0  0  0
  2  1  1  0  0  0
  2  5  1  0  0  0
  1  3  2  0  0  0
  5 16  1  0  0  0
  5  4  2  0  0  0
 16 17  2  0  0  0
 19 18  2  0  0  0
  3  4  1  0  0  0
 17 18  1  0  0  0
  9 14  1  0  0  0
  9 15  1  0  0  0
  2  6  1  0  0  0
M  END
> <minimizedAffinity>
-7.15742

$$$$
4TZ2_39R_A_1205


 21 23  0  0  0  0  0  0  0  0999 V2000
   24.1881  -45.6835    9.6054 C   0  0  0  0  0  0  0  0  0  0  0  0
   25.0742  -45.1105   10.4359 N   0  0  0  0  0  0  0  0  0  0  0  0
   24.7266  -46.8582    9.0850 N   0  0  0  0  0  0  0  0  0  0  0  0
   25.9427  -46.9698    9.6276 N   0  0  0  0  0  0  0  0  0  0  0  0
   26.1920  -45.9080   10.4405 C   0  0  0  0  0  0  0  0  0  0  0  0
   24.9468  -44.2773   10.9447 H   0  0  0  0  0  0  0  0  0  0  0  0
   22.3128  -44.1229   10.0138 C   0  0  0  0  0  0  0  0  0  0  0  0
   21.0454  -43.6286    9.7330 C   0  0  0  0  0  0  0  0  0  0  0  0
   20.6753  -42.5897   10.5763 N   0  0  0  0  0  0  0  0  0  0  0  0
   20.2168  -44.1162    8.6707 C   0  0  0  0  0  0  0  0  0  0  0  0
   20.7148  -45.1648    7.9162 C   0  0  0  0  0  0  0  0  0  0  0  0
   21.9964  -45.6628    8.2069 C   0  0  0  0  0  0  0  0  0  0  0  0
   22.8107  -45.1693    9.2505 C   0  0  0  0  0  0  0  0  0  0  0  0
   19.7959  -42.1598   10.4713 H   0  0  0  0  0  0  0  0  0  0  0  0
   21.2924  -42.2828   11.2794 H   0  0  0  0  0  0  0  0  0  0  0  0
   27.4630  -45.7409   11.2578 C   0  0  0  0  0  0  0  0  0  0  0  0
   27.4611  -46.0429   12.6161 C   0  0  0  0  0  0  0  0  0  0  0  0
   28.6237  -45.8495   13.3559 C   0  0  0  0  0  0  0  0  0  0  0  0
   29.7693  -45.3434   12.7539 C   0  0  0  0  0  0  0  0  0  0  0  0
   29.7599  -45.0254   11.4006 C   0  0  0  0  0  0  0  0  0  0  0  0
   28.6029  -45.2129   10.6531 C   0  0  0  0  0  0  0  0  0  0  0  0
 11 10  2  0  0  0
 11 12  1  0  0  0
 10  8  1  0  0  0
 12 13  2  0  0  0
  8  9  1  0  0  0
  8  7  2  0  0  0
 13  7  1  0  0  0
 13  1  1  0  0  0
 21 20  2  0  0  0
 21 16  1  0  0  0
 20 19  1  0  0  0
  2  1  1  0  0  0
  2  5  1  0  0  0
  1  3  2  0  0  0
  5 16  1  0  0  0
  5  4  2  0  0  0
 16 17  2  0  0  0
 19 18  2  0  0  0
  3  4  1  0  0  0
 17 18  1  0  0  0
  9 14  1  0  0  0
  9 15  1  0  0  0
  2  6  1  0  0  0
M  END
> <minimizedAffinity>
-7.06778

$$$$
4TZ2_39R_A_1205


 21 23  0  0  0  0  0  0  0  0999 V2000
   24.2858  -45.3941   10.1430 C   0  0  0  0  0  0  0  0  0  0  0  0
   25.0604  -46.4410    9.8149 N   0  0  0  0  0  0  0  0  0  0  0  0
   24.9150  -44.6377   11.1291 N   0  0  0  0  0  0  0  0  0  0  0  0
   26.0756  -45.2539   11.3721 N   0  0  0  0  0  0  0  0  0  0  0  0
   26.1842  -46.3689   10.6005 C   0  0  0  0  0  0  0  0  0  0  0  0
   24.8605  -47.1290    9.1397 H   0  0  0  0  0  0  0  0  0  0  0  0
   22.2956  -43.9267   10.0766 C   0  0  0  0  0  0  0  0  0  0  0  0
   21.0419  -43.5820    9.5877 C   0  0  0  0  0  0  0  0  0  0  0  0
   20.5258  -42.4422   10.1894 N   0  0  0  0  0  0  0  0  0  0  0  0
   20.3626  -44.3053    8.5542 C   0  0  0  0  0  0  0  0  0  0  0  0
   20.9964  -45.4299    8.0537 C   0  0  0  0  0  0  0  0  0  0  0  0
   22.2633  -45.7755    8.5543 C   0  0  0  0  0  0  0  0  0  0  0  0
   22.9301  -45.0507    9.5671 C   0  0  0  0  0  0  0  0  0  0  0  0
   19.6413  -42.1021    9.9225 H   0  0  0  0  0  0  0  0  0  0  0  0
   21.0444  -41.9740   10.8831 H   0  0  0  0  0  0  0  0  0  0  0  0
   27.4019  -47.2791   10.5855 C   0  0  0  0  0  0  0  0  0  0  0  0
   28.1870  -47.4095   11.7268 C   0  0  0  0  0  0  0  0  0  0  0  0
   29.3181  -48.2187   11.6836 C   0  0  0  0  0  0  0  0  0  0  0  0
   29.6738  -48.8755   10.5119 C   0  0  0  0  0  0  0  0  0  0  0  0
   28.8965  -48.7264    9.3690 C   0  0  0  0  0  0  0  0  0  0  0  0
   27.7655  -47.9186    9.4010 C   0  0  0  0  0  0  0  0  0  0  0  0
 11 10  2  0  0  0
 11 12  1  0  0  0
 10  8  1  0  0  0
 12 13  2  0  0  0
  8  9  1  0  0  0
  8  7  2  0  0  0
 13  7  1  0  0  0
 13  1  1  0  0  0
 21 20  2  0  0  0
 21 16  1  0  0  0
 20 19  1  0  0  0
  2  1  1  0  0  0
  2  5  1  0  0  0
  1  3  2  0  0  0
  5 16  1  0  0  0
  5  4  2  0  0  0
 16 17  2  0  0  0
 19 18  2  0  0  0
  3  4  1  0  0  0
 17 18  1  0  0  0
  9 14  1  0  0  0
  9 15  1  0  0  0
  2  6  1  0  0  0
M  END
> <minimizedAffinity>
-6.86726

$$$$
4TZ2_39R_A_1205


 21 23  0  0  0  0  0  0  0  0999 V2000
   26.0798  -45.0660   11.9714 C   0  0  0  0  0  0  0  0  0  0  0  0
   27.1635  -44.3382   12.2867 N   0  0  0  0  0  0  0  0  0  0  0  0
   26.2985  -46.4002   12.3073 N   0  0  0  0  0  0  0  0  0  0  0  0
   27.5272  -46.4445   12.8308 N   0  0  0  0  0  0  0  0  0  0  0  0
   28.0887  -45.2057   12.8131 C   0  0  0  0  0  0  0  0  0  0  0  0
   27.2737  -43.3677   12.1639 H   0  0  0  0  0  0  0  0  0  0  0  0
   24.3927  -45.1808   10.1661 C   0  0  0  0  0  0  0  0  0  0  0  0
   23.2308  -44.7422    9.5437 C   0  0  0  0  0  0  0  0  0  0  0  0
   22.9481  -45.4434    8.3792 N   0  0  0  0  0  0  0  0  0  0  0  0
   22.3958  -43.6981   10.0588 C   0  0  0  0  0  0  0  0  0  0  0  0
   22.8098  -43.0813   11.2271 C   0  0  0  0  0  0  0  0  0  0  0  0
   23.9877  -43.5271   11.8507 C   0  0  0  0  0  0  0  0  0  0  0  0
   24.8001  -44.5643   11.3406 C   0  0  0  0  0  0  0  0  0  0  0  0
   22.1474  -45.2196    7.8520 H   0  0  0  0  0  0  0  0  0  0  0  0
   23.5483  -46.1645    8.0808 H   0  0  0  0  0  0  0  0  0  0  0  0
   29.4625  -44.8850   13.3798 C   0  0  0  0  0  0  0  0  0  0  0  0
   29.7498  -45.1705   14.7110 C   0  0  0  0  0  0  0  0  0  0  0  0
   31.0002  -44.8369   15.2220 C   0  0  0  0  0  0  0  0  0  0  0  0
   31.9470  -44.2090   14.4218 C   0  0  0  0  0  0  0  0  0  0  0  0
   31.6479  -43.9087   13.0978 C   0  0  0  0  0  0  0  0  0  0  0  0
   30.4006  -44.2360   12.5781 C   0  0  0  0  0  0  0  0  0  0  0  0
 11 10  2  0  0  0
 11 12  1  0  0  0
 10  8  1  0  0  0
 12 13  2  0  0  0
  8  9  1  0  0  0
  8  7  2  0  0  0
 13  7  1  0  0  0
 13  1  1  0  0  0
 21 20  2  0  0  0
 21 16  1  0  0  0
 20 19  1  0  0  0
  2  1  1  0  0  0
  2  5  1  0  0  0
  1  3  2  0  0  0
  5 16  1  0  0  0
  5  4  2  0  0  0
 16 17  2  0  0  0
 19 18  2  0  0  0
  3  4  1  0  0  0
 17 18  1  0  0  0
  9 14  1  0  0  0
  9 15  1  0  0  0
  2  6  1  0  0  0
M  END
> <minimizedAffinity>
-6.69315

$$$$
