4LPS_GDP_A_302


 36 38  0  0  0  0  0  0  0  0999 V2000
    7.0419   -4.2405   -0.8573 C   0  0  0  0  0  0  0  0  0  0  0  0
    7.0954   -3.0654   -0.0467 O   0  0  0  0  0  0  0  0  0  0  0  0
    6.5905   -3.7937   -2.2354 C   0  0  0  0  0  0  0  0  0  0  0  0
    5.1946   -4.0836   -2.3535 O   0  0  0  0  0  0  0  0  0  0  0  0
    6.7757   -2.2941   -2.2467 C   0  0  0  0  0  0  0  0  0  0  0  0
    5.7766   -1.6700   -3.0514 O   0  0  0  0  0  0  0  0  0  0  0  0
    6.5857   -1.9487   -0.7826 C   0  0  0  0  0  0  0  0  0  0  0  0
    4.7117   -3.6473   -1.6342 H   0  0  0  0  0  0  0  0  0  0  0  0
    4.8974   -1.9265   -2.7319 H   0  0  0  0  0  0  0  0  0  0  0  0
    7.3153   -0.7277   -0.3741 N   0  0  0  0  0  0  0  0  0  0  0  0
    8.6292   -0.4597   -0.5014 C   0  0  0  0  0  0  0  0  0  0  0  0
    8.9186    0.7584    0.0211 N   0  0  0  0  0  0  0  0  0  0  0  0
    7.7740    1.2801    0.5073 C   0  0  0  0  0  0  0  0  0  0  0  0
    7.3570    2.5260    1.1937 C   0  0  0  0  0  0  0  0  0  0  0  0
    8.1840    3.4232    1.4535 O   0  0  0  0  0  0  0  0  0  0  0  0
    6.0679    2.6641    1.5290 N   0  0  0  0  0  0  0  0  0  0  0  0
    5.1542    1.7119    1.2599 C   0  0  0  0  0  0  0  0  0  0  0  0
    3.8650    1.9113    1.6232 N   0  0  0  0  0  0  0  0  0  0  0  0
    5.4635    0.5489    0.6374 N   0  0  0  0  0  0  0  0  0  0  0  0
    6.7288    0.2886    0.2485 C   0  0  0  0  0  0  0  0  0  0  0  0
    5.7792    3.4868    1.9861 H   0  0  0  0  0  0  0  0  0  0  0  0
    3.6049    2.7451    2.0774 H   0  0  0  0  0  0  0  0  0  0  0  0
    3.1878    1.2224    1.4331 H   0  0  0  0  0  0  0  0  0  0  0  0
    8.4202   -4.8812   -0.9210 C   0  0  0  0  0  0  0  0  0  0  0  0
    8.6880   -5.2458   -2.2731 O   0  0  0  0  0  0  0  0  0  0  0  0
   10.1882   -5.2774   -2.8269 P   0  0  0  0  0  0  0  0  0  0  0  0
   10.4673   -3.9922   -3.5620 O   0  0  0  0  0  0  0  0  0  0  0  0
   10.4432   -6.4759   -3.7042 O   0  0  0  0  0  0  0  0  0  0  0  0
   11.3608   -6.4574   -4.0182 H   0  0  0  0  0  0  0  0  0  0  0  0
   11.0444   -5.3307   -1.4623 O   0  0  0  0  0  0  0  0  0  0  0  0
   12.3383   -6.2603   -1.2686 P   0  0  0  0  0  0  0  0  0  0  0  0
   12.9939   -5.9375    0.0506 O   0  0  0  0  0  0  0  0  0  0  0  0
   11.9516   -7.7164   -1.3248 O   0  0  0  0  0  0  0  0  0  0  0  0
   13.2880   -5.9865   -2.4083 O   0  0  0  0  0  0  0  0  0  0  0  0
   12.7422   -8.2657   -1.2065 H   0  0  0  0  0  0  0  0  0  0  0  0
   14.0788   -6.5396   -2.3102 H   0  0  0  0  0  0  0  0  0  0  0  0
 31 32  2  0  0  0
 31 33  1  0  0  0
 31 34  1  0  0  0
 31 30  1  0  0  0
 30 26  1  0  0  0
 26 27  2  0  0  0
 26 28  1  0  0  0
 26 25  1  0  0  0
 25 24  1  0  0  0
 24  1  1  0  0  0
  1  2  1  0  0  0
  1  3  1  0  0  0
  2  7  1  0  0  0
  3  4  1  0  0  0
  3  5  1  0  0  0
  5  6  1  0  0  0
  5  7  1  0  0  0
  7 10  1  0  0  0
 10 11  1  0  0  0
 10 20  1  0  0  0
 11 12  2  0  0  0
 12 13  1  0  0  0
 13 14  1  0  0  0
 13 20  2  0  0  0
 14 15  2  0  0  0
 14 16  1  0  0  0
 16 17  1  0  0  0
 17 18  1  0  0  0
 17 19  2  0  0  0
 19 20  1  0  0  0
 33 35  1  0  0  0
 34 36  1  0  0  0
 28 29  1  0  0  0
  4  8  1  0  0  0
  6  9  1  0  0  0
 16 21  1  0  0  0
 18 22  1  0  0  0
 18 23  1  0  0  0
M  END
> <minimizedAffinity>
-9.51292

$$$$
4LPS_GDP_A_302


 36 38  0  0  0  0  0  0  0  0999 V2000
    8.4041   -4.4157   -1.1190 C   0  0  0  0  0  0  0  0  0  0  0  0
    8.3913   -3.2880   -0.2422 O   0  0  0  0  0  0  0  0  0  0  0  0
    7.3950   -4.1225   -2.2136 C   0  0  0  0  0  0  0  0  0  0  0  0
    6.1927   -4.8321   -1.9014 O   0  0  0  0  0  0  0  0  0  0  0  0
    7.1213   -2.6398   -2.1140 C   0  0  0  0  0  0  0  0  0  0  0  0
    5.7703   -2.3526   -2.4715 O   0  0  0  0  0  0  0  0  0  0  0  0
    7.3580   -2.3807   -0.6389 C   0  0  0  0  0  0  0  0  0  0  0  0
    5.8841   -4.5728   -1.0191 H   0  0  0  0  0  0  0  0  0  0  0  0
    5.1708   -2.8725   -1.9136 H   0  0  0  0  0  0  0  0  0  0  0  0
    7.7961   -0.9960   -0.3550 N   0  0  0  0  0  0  0  0  0  0  0  0
    8.9608   -0.4058   -0.6856 C   0  0  0  0  0  0  0  0  0  0  0  0
    8.9966    0.8684   -0.2210 N   0  0  0  0  0  0  0  0  0  0  0  0
    7.8405    1.1004    0.4336 C   0  0  0  0  0  0  0  0  0  0  0  0
    7.2194    2.2274    1.1692 C   0  0  0  0  0  0  0  0  0  0  0  0
    7.8127    3.3178    1.2929 O   0  0  0  0  0  0  0  0  0  0  0  0
    6.0030    2.0450    1.6990 N   0  0  0  0  0  0  0  0  0  0  0  0
    5.3399    0.8789    1.5798 C   0  0  0  0  0  0  0  0  0  0  0  0
    4.1117    0.7569    2.1371 N   0  0  0  0  0  0  0  0  0  0  0  0
    5.8462   -0.1929    0.9235 N   0  0  0  0  0  0  0  0  0  0  0  0
    7.0636   -0.1370    0.3451 C   0  0  0  0  0  0  0  0  0  0  0  0
    5.5807    2.7860    2.1907 H   0  0  0  0  0  0  0  0  0  0  0  0
    3.7133    1.5158    2.6214 H   0  0  0  0  0  0  0  0  0  0  0  0
    3.6172   -0.0907    2.0578 H   0  0  0  0  0  0  0  0  0  0  0  0
    9.7978   -4.5946   -1.7020 C   0  0  0  0  0  0  0  0  0  0  0  0
   10.3289   -5.8324   -1.2343 O   0  0  0  0  0  0  0  0  0  0  0  0
   11.8729   -6.1900   -1.4491 P   0  0  0  0  0  0  0  0  0  0  0  0
   12.6248   -5.9046   -0.1750 O   0  0  0  0  0  0  0  0  0  0  0  0
   12.4702   -5.4452   -2.6152 O   0  0  0  0  0  0  0  0  0  0  0  0
   13.4040   -5.6895   -2.7107 H   0  0  0  0  0  0  0  0  0  0  0  0
   11.8120   -7.7794   -1.7107 O   0  0  0  0  0  0  0  0  0  0  0  0
   11.0197   -8.4412   -2.9394 P   0  0  0  0  0  0  0  0  0  0  0  0
    9.7030   -8.9893   -2.4492 O   0  0  0  0  0  0  0  0  0  0  0  0
   10.7962   -7.4235   -4.0290 O   0  0  0  0  0  0  0  0  0  0  0  0
   11.8724   -9.5497   -3.5054 O   0  0  0  0  0  0  0  0  0  0  0  0
   10.3170   -7.8368   -4.7642 H   0  0  0  0  0  0  0  0  0  0  0  0
   11.4107   -9.9640   -4.2511 H   0  0  0  0  0  0  0  0  0  0  0  0
 31 32  2  0  0  0
 31 33  1  0  0  0
 31 34  1  0  0  0
 31 30  1  0  0  0
 30 26  1  0  0  0
 26 27  2  0  0  0
 26 28  1  0  0  0
 26 25  1  0  0  0
 25 24  1  0  0  0
 24  1  1  0  0  0
  1  2  1  0  0  0
  1  3  1  0  0  0
  2  7  1  0  0  0
  3  4  1  0  0  0
  3  5  1  0  0  0
  5  6  1  0  0  0
  5  7  1  0  0  0
  7 10  1  0  0  0
 10 11  1  0  0  0
 10 20  1  0  0  0
 11 12  2  0  0  0
 12 13  1  0  0  0
 13 14  1  0  0  0
 13 20  2  0  0  0
 14 15  2  0  0  0
 14 16  1  0  0  0
 16 17  1  0  0  0
 17 18  1  0  0  0
 17 19  2  0  0  0
 19 20  1  0  0  0
 33 35  1  0  0  0
 34 36  1  0  0  0
 28 29  1  0  0  0
  4  8  1  0  0  0
  6  9  1  0  0  0
 16 21  1  0  0  0
 18 22  1  0  0  0
 18 23  1  0  0  0
M  END
> <minimizedAffinity>
-8.81798

$$$$
4LPS_GDP_A_302


 36 38  0  0  0  0  0  0  0  0999 V2000
    9.0731   -4.6054   -2.6963 C   0  0  0  0  0  0  0  0  0  0  0  0
    8.5353   -5.5489   -3.6244 O   0  0  0  0  0  0  0  0  0  0  0  0
    8.5377   -4.9912   -1.3299 C   0  0  0  0  0  0  0  0  0  0  0  0
    7.4423   -4.1220   -1.0281 O   0  0  0  0  0  0  0  0  0  0  0  0
    8.0086   -6.3971   -1.4937 C   0  0  0  0  0  0  0  0  0  0  0  0
    6.8769   -6.6099   -0.6515 O   0  0  0  0  0  0  0  0  0  0  0  0
    7.6054   -6.4068   -2.9553 C   0  0  0  0  0  0  0  0  0  0  0  0
    6.7762   -4.1855   -1.7304 H   0  0  0  0  0  0  0  0  0  0  0  0
    6.2009   -5.9411   -0.8432 H   0  0  0  0  0  0  0  0  0  0  0  0
    7.6655   -7.7535   -3.5659 N   0  0  0  0  0  0  0  0  0  0  0  0
    8.5522   -8.7387   -3.3264 C   0  0  0  0  0  0  0  0  0  0  0  0
    8.2889   -9.8156   -4.1085 N   0  0  0  0  0  0  0  0  0  0  0  0
    7.2220   -9.5152   -4.8768 C   0  0  0  0  0  0  0  0  0  0  0  0
    6.4176  -10.1879   -5.9244 C   0  0  0  0  0  0  0  0  0  0  0  0
    6.6857  -11.3494   -6.2926 O   0  0  0  0  0  0  0  0  0  0  0  0
    5.3941   -9.5160   -6.4670 N   0  0  0  0  0  0  0  0  0  0  0  0
    5.0822   -8.2619   -6.0878 C   0  0  0  0  0  0  0  0  0  0  0  0
    4.0341   -7.6355   -6.6736 N   0  0  0  0  0  0  0  0  0  0  0  0
    5.7734   -7.5857   -5.1388 N   0  0  0  0  0  0  0  0  0  0  0  0
    6.8272   -8.1527   -4.5158 C   0  0  0  0  0  0  0  0  0  0  0  0
    4.8532   -9.9521   -7.1645 H   0  0  0  0  0  0  0  0  0  0  0  0
    3.5097   -8.0973   -7.3671 H   0  0  0  0  0  0  0  0  0  0  0  0
    3.7966   -6.7184   -6.4059 H   0  0  0  0  0  0  0  0  0  0  0  0
   10.5927   -4.6732   -2.7205 C   0  0  0  0  0  0  0  0  0  0  0  0
   11.0439   -5.1716   -1.4631 O   0  0  0  0  0  0  0  0  0  0  0  0
   12.2784   -6.1853   -1.3837 P   0  0  0  0  0  0  0  0  0  0  0  0
   12.9138   -6.0793   -0.0217 O   0  0  0  0  0  0  0  0  0  0  0  0
   13.2853   -5.9389   -2.4776 O   0  0  0  0  0  0  0  0  0  0  0  0
   14.0152   -6.5723   -2.3939 H   0  0  0  0  0  0  0  0  0  0  0  0
   11.5464   -7.6126   -1.5425 O   0  0  0  0  0  0  0  0  0  0  0  0
   12.3258   -8.9683   -1.9032 P   0  0  0  0  0  0  0  0  0  0  0  0
   11.9058  -10.0569   -0.9477 O   0  0  0  0  0  0  0  0  0  0  0  0
   12.0404   -9.3750   -3.3267 O   0  0  0  0  0  0  0  0  0  0  0  0
   13.8064   -8.7052   -1.7821 O   0  0  0  0  0  0  0  0  0  0  0  0
   12.5173  -10.1947   -3.5306 H   0  0  0  0  0  0  0  0  0  0  0  0
   14.2971   -9.5139   -1.9965 H   0  0  0  0  0  0  0  0  0  0  0  0
 31 32  2  0  0  0
 31 33  1  0  0  0
 31 34  1  0  0  0
 31 30  1  0  0  0
 30 26  1  0  0  0
 26 27  2  0  0  0
 26 28  1  0  0  0
 26 25  1  0  0  0
 25 24  1  0  0  0
 24  1  1  0  0  0
  1  2  1  0  0  0
  1  3  1  0  0  0
  2  7  1  0  0  0
  3  4  1  0  0  0
  3  5  1  0  0  0
  5  6  1  0  0  0
  5  7  1  0  0  0
  7 10  1  0  0  0
 10 11  1  0  0  0
 10 20  1  0  0  0
 11 12  2  0  0  0
 12 13  1  0  0  0
 13 14  1  0  0  0
 13 20  2  0  0  0
 14 15  2  0  0  0
 14 16  1  0  0  0
 16 17  1  0  0  0
 17 18  1  0  0  0
 17 19  2  0  0  0
 19 20  1  0  0  0
 33 35  1  0  0  0
 34 36  1  0  0  0
 28 29  1  0  0  0
  4  8  1  0  0  0
  6  9  1  0  0  0
 16 21  1  0  0  0
 18 22  1  0  0  0
 18 23  1  0  0  0
M  END
> <minimizedAffinity>
-8.13975

$$$$
4LPS_GDP_A_302


 36 38  0  0  0  0  0  0  0  0999 V2000
    7.9389   -5.8171   -0.5908 C   0  0  0  0  0  0  0  0  0  0  0  0
    8.1410   -4.4565   -0.9764 O   0  0  0  0  0  0  0  0  0  0  0  0
    6.5579   -5.8878    0.0340 C   0  0  0  0  0  0  0  0  0  0  0  0
    6.7204   -5.8847    1.4553 O   0  0  0  0  0  0  0  0  0  0  0  0
    5.8705   -4.6064   -0.3771 C   0  0  0  0  0  0  0  0  0  0  0  0
    4.9787   -4.1640    0.6448 O   0  0  0  0  0  0  0  0  0  0  0  0
    7.0450   -3.6579   -0.5188 C   0  0  0  0  0  0  0  0  0  0  0  0
    7.2195   -5.0969    1.7220 H   0  0  0  0  0  0  0  0  0  0  0  0
    5.4652   -4.0658    1.4783 H   0  0  0  0  0  0  0  0  0  0  0  0
    6.7999   -2.5710   -1.4927 N   0  0  0  0  0  0  0  0  0  0  0  0
    6.7470   -2.6515   -2.8362 C   0  0  0  0  0  0  0  0  0  0  0  0
    6.5285   -1.4269   -3.3775 N   0  0  0  0  0  0  0  0  0  0  0  0
    6.4534   -0.5375   -2.3665 C   0  0  0  0  0  0  0  0  0  0  0  0
    6.2440    0.9227   -2.2215 C   0  0  0  0  0  0  0  0  0  0  0  0
    6.0757    1.6495   -3.2214 O   0  0  0  0  0  0  0  0  0  0  0  0
    6.2405    1.4432   -0.9875 N   0  0  0  0  0  0  0  0  0  0  0  0
    6.4189    0.6819    0.1090 C   0  0  0  0  0  0  0  0  0  0  0  0
    6.4036    1.2675    1.3300 N   0  0  0  0  0  0  0  0  0  0  0  0
    6.6169   -0.6572    0.0520 N   0  0  0  0  0  0  0  0  0  0  0  0
    6.6422   -1.3021   -1.1327 C   0  0  0  0  0  0  0  0  0  0  0  0
    6.1033    2.4120   -0.8787 H   0  0  0  0  0  0  0  0  0  0  0  0
    6.2622    2.2386    1.4084 H   0  0  0  0  0  0  0  0  0  0  0  0
    6.5339    0.7220    2.1391 H   0  0  0  0  0  0  0  0  0  0  0  0
    8.0246   -6.7143   -1.8164 C   0  0  0  0  0  0  0  0  0  0  0  0
    9.0462   -7.6844   -1.5969 O   0  0  0  0  0  0  0  0  0  0  0  0
   10.2753   -7.8177   -2.6116 P   0  0  0  0  0  0  0  0  0  0  0  0
   10.2083   -6.6950   -3.6141 O   0  0  0  0  0  0  0  0  0  0  0  0
   10.3027   -9.1605   -3.2952 O   0  0  0  0  0  0  0  0  0  0  0  0
   11.0603   -9.2002   -3.8997 H   0  0  0  0  0  0  0  0  0  0  0  0
   11.5382   -7.6092   -1.6319 O   0  0  0  0  0  0  0  0  0  0  0  0
   12.2502   -6.1896   -1.4007 P   0  0  0  0  0  0  0  0  0  0  0  0
   12.8834   -6.1640   -0.0322 O   0  0  0  0  0  0  0  0  0  0  0  0
   13.2864   -5.9422   -2.4675 O   0  0  0  0  0  0  0  0  0  0  0  0
   11.1993   -5.1133   -1.5138 O   0  0  0  0  0  0  0  0  0  0  0  0
   13.7080   -5.0820   -2.3155 H   0  0  0  0  0  0  0  0  0  0  0  0
   11.6096   -4.2451   -1.3769 H   0  0  0  0  0  0  0  0  0  0  0  0
 31 32  2  0  0  0
 31 33  1  0  0  0
 31 34  1  0  0  0
 31 30  1  0  0  0
 30 26  1  0  0  0
 26 27  2  0  0  0
 26 28  1  0  0  0
 26 25  1  0  0  0
 25 24  1  0  0  0
 24  1  1  0  0  0
  1  2  1  0  0  0
  1  3  1  0  0  0
  2  7  1  0  0  0
  3  4  1  0  0  0
  3  5  1  0  0  0
  5  6  1  0  0  0
  5  7  1  0  0  0
  7 10  1  0  0  0
 10 11  1  0  0  0
 10 20  1  0  0  0
 11 12  2  0  0  0
 12 13  1  0  0  0
 13 14  1  0  0  0
 13 20  2  0  0  0
 14 15  2  0  0  0
 14 16  1  0  0  0
 16 17  1  0  0  0
 17 18  1  0  0  0
 17 19  2  0  0  0
 19 20  1  0  0  0
 33 35  1  0  0  0
 34 36  1  0  0  0
 28 29  1  0  0  0
  4  8  1  0  0  0
  6  9  1  0  0  0
 16 21  1  0  0  0
 18 22  1  0  0  0
 18 23  1  0  0  0
M  END
> <minimizedAffinity>
-7.84243

$$$$
4LPS_GDP_A_302


 36 38  0  0  0  0  0  0  0  0999 V2000
    9.4544   -7.5970   -2.8493 C   0  0  0  0  0  0  0  0  0  0  0  0
    8.5136   -6.5221   -2.8584 O   0  0  0  0  0  0  0  0  0  0  0  0
   10.8217   -6.9717   -2.6443 C   0  0  0  0  0  0  0  0  0  0  0  0
   11.4637   -6.8961   -3.9205 O   0  0  0  0  0  0  0  0  0  0  0  0
   10.5470   -5.5680   -2.1571 C   0  0  0  0  0  0  0  0  0  0  0  0
   11.5504   -4.6680   -2.6247 O   0  0  0  0  0  0  0  0  0  0  0  0
    9.2091   -5.2723   -2.8065 C   0  0  0  0  0  0  0  0  0  0  0  0
   10.9040   -6.3958   -4.5348 H   0  0  0  0  0  0  0  0  0  0  0  0
   11.6013   -4.7149   -3.5922 H   0  0  0  0  0  0  0  0  0  0  0  0
    8.3959   -4.2985   -2.0447 N   0  0  0  0  0  0  0  0  0  0  0  0
    8.3677   -4.0967   -0.7132 C   0  0  0  0  0  0  0  0  0  0  0  0
    7.4686   -3.1309   -0.3978 N   0  0  0  0  0  0  0  0  0  0  0  0
    6.8957   -2.7117   -1.5445 C   0  0  0  0  0  0  0  0  0  0  0  0
    5.8664   -1.7222   -1.9426 C   0  0  0  0  0  0  0  0  0  0  0  0
    5.2932   -1.0141   -1.0904 O   0  0  0  0  0  0  0  0  0  0  0  0
    5.5665   -1.6077   -3.2428 N   0  0  0  0  0  0  0  0  0  0  0  0
    6.1702   -2.3586   -4.1836 C   0  0  0  0  0  0  0  0  0  0  0  0
    5.8241   -2.1951   -5.4826 N   0  0  0  0  0  0  0  0  0  0  0  0
    7.1177   -3.2826   -3.8929 N   0  0  0  0  0  0  0  0  0  0  0  0
    7.5087   -3.4939   -2.6191 C   0  0  0  0  0  0  0  0  0  0  0  0
    4.8837   -0.9545   -3.5192 H   0  0  0  0  0  0  0  0  0  0  0  0
    5.1391   -1.5326   -5.7298 H   0  0  0  0  0  0  0  0  0  0  0  0
    6.2574   -2.7387   -6.1797 H   0  0  0  0  0  0  0  0  0  0  0  0
    9.1234   -8.5569   -1.7165 C   0  0  0  0  0  0  0  0  0  0  0  0
   10.3222   -9.2182   -1.3185 O   0  0  0  0  0  0  0  0  0  0  0  0
   10.4176  -10.8146   -1.3384 P   0  0  0  0  0  0  0  0  0  0  0  0
   10.1157  -11.3072   -2.7299 O   0  0  0  0  0  0  0  0  0  0  0  0
    9.5030  -11.4497   -0.3229 O   0  0  0  0  0  0  0  0  0  0  0  0
    9.5909  -12.4147   -0.3674 H   0  0  0  0  0  0  0  0  0  0  0  0
   11.9727  -11.0583   -0.9912 O   0  0  0  0  0  0  0  0  0  0  0  0
   13.1573  -10.1321   -1.5521 P   0  0  0  0  0  0  0  0  0  0  0  0
   14.4488  -10.9109   -1.5432 O   0  0  0  0  0  0  0  0  0  0  0  0
   12.8363   -9.6564   -2.9463 O   0  0  0  0  0  0  0  0  0  0  0  0
   13.2681   -8.9203   -0.6605 O   0  0  0  0  0  0  0  0  0  0  0  0
   13.5598   -9.0985   -3.2722 H   0  0  0  0  0  0  0  0  0  0  0  0
   13.9802   -8.3458   -0.9828 H   0  0  0  0  0  0  0  0  0  0  0  0
 31 32  2  0  0  0
 31 33  1  0  0  0
 31 34  1  0  0  0
 31 30  1  0  0  0
 30 26  1  0  0  0
 26 27  2  0  0  0
 26 28  1  0  0  0
 26 25  1  0  0  0
 25 24  1  0  0  0
 24  1  1  0  0  0
  1  2  1  0  0  0
  1  3  1  0  0  0
  2  7  1  0  0  0
  3  4  1  0  0  0
  3  5  1  0  0  0
  5  6  1  0  0  0
  5  7  1  0  0  0
  7 10  1  0  0  0
 10 11  1  0  0  0
 10 20  1  0  0  0
 11 12  2  0  0  0
 12 13  1  0  0  0
 13 14  1  0  0  0
 13 20  2  0  0  0
 14 15  2  0  0  0
 14 16  1  0  0  0
 16 17  1  0  0  0
 17 18  1  0  0  0
 17 19  2  0  0  0
 19 20  1  0  0  0
 33 35  1  0  0  0
 34 36  1  0  0  0
 28 29  1  0  0  0
  4  8  1  0  0  0
  6  9  1  0  0  0
 16 21  1  0  0  0
 18 22  1  0  0  0
 18 23  1  0  0  0
M  END
> <minimizedAffinity>
-7.78533

$$$$
4LPS_GDP_A_302


 36 38  0  0  0  0  0  0  0  0999 V2000
    8.3297   -3.8380   -0.9927 C   0  0  0  0  0  0  0  0  0  0  0  0
    8.0389   -2.4406   -0.9346 O   0  0  0  0  0  0  0  0  0  0  0  0
    7.0261   -4.5620   -0.7115 C   0  0  0  0  0  0  0  0  0  0  0  0
    7.0449   -4.9808    0.6562 O   0  0  0  0  0  0  0  0  0  0  0  0
    5.9475   -3.5178   -0.8829 C   0  0  0  0  0  0  0  0  0  0  0  0
    4.8653   -3.7605    0.0145 O   0  0  0  0  0  0  0  0  0  0  0  0
    6.6859   -2.2472   -0.5097 C   0  0  0  0  0  0  0  0  0  0  0  0
    7.1839   -4.2100    1.2285 H   0  0  0  0  0  0  0  0  0  0  0  0
    5.2006   -3.7926    0.9241 H   0  0  0  0  0  0  0  0  0  0  0  0
    6.1397   -1.0417   -1.1718 N   0  0  0  0  0  0  0  0  0  0  0  0
    5.9281   -0.8359   -2.4860 C   0  0  0  0  0  0  0  0  0  0  0  0
    5.4406    0.4121   -2.6992 N   0  0  0  0  0  0  0  0  0  0  0  0
    5.3495    1.0282   -1.5030 C   0  0  0  0  0  0  0  0  0  0  0  0
    4.9202    2.3537   -0.9970 C   0  0  0  0  0  0  0  0  0  0  0  0
    4.5056    3.2349   -1.7768 O   0  0  0  0  0  0  0  0  0  0  0  0
    4.9892    2.5819    0.3208 N   0  0  0  0  0  0  0  0  0  0  0  0
    5.4319    1.6485    1.1848 C   0  0  0  0  0  0  0  0  0  0  0  0
    5.4769    1.9396    2.5066 N   0  0  0  0  0  0  0  0  0  0  0  0
    5.8412    0.4175    0.7938 N   0  0  0  0  0  0  0  0  0  0  0  0
    5.8205    0.0637   -0.5079 C   0  0  0  0  0  0  0  0  0  0  0  0
    4.7077    3.4589    0.6685 H   0  0  0  0  0  0  0  0  0  0  0  0
    5.1869    2.8246    2.8259 H   0  0  0  0  0  0  0  0  0  0  0  0
    5.7995    1.2662    3.1483 H   0  0  0  0  0  0  0  0  0  0  0  0
    8.8586   -4.1934   -2.3742 C   0  0  0  0  0  0  0  0  0  0  0  0
   10.0456   -4.9679   -2.2192 O   0  0  0  0  0  0  0  0  0  0  0  0
   10.0450   -6.5342   -2.5430 P   0  0  0  0  0  0  0  0  0  0  0  0
   10.6333   -6.7526   -3.9127 O   0  0  0  0  0  0  0  0  0  0  0  0
    8.6665   -7.1340   -2.4378 O   0  0  0  0  0  0  0  0  0  0  0  0
    8.7098   -8.0815   -2.6409 H   0  0  0  0  0  0  0  0  0  0  0  0
   11.0438   -7.1065   -1.4147 O   0  0  0  0  0  0  0  0  0  0  0  0
   12.6034   -6.7338   -1.3462 P   0  0  0  0  0  0  0  0  0  0  0  0
   13.4245   -7.9947   -1.4473 O   0  0  0  0  0  0  0  0  0  0  0  0
   12.9637   -5.7777   -2.4548 O   0  0  0  0  0  0  0  0  0  0  0  0
   12.8633   -6.0414   -0.0313 O   0  0  0  0  0  0  0  0  0  0  0  0
   13.9077   -5.5614   -2.4012 H   0  0  0  0  0  0  0  0  0  0  0  0
   13.8025   -5.8069    0.0305 H   0  0  0  0  0  0  0  0  0  0  0  0
 31 32  2  0  0  0
 31 33  1  0  0  0
 31 34  1  0  0  0
 31 30  1  0  0  0
 30 26  1  0  0  0
 26 27  2  0  0  0
 26 28  1  0  0  0
 26 25  1  0  0  0
 25 24  1  0  0  0
 24  1  1  0  0  0
  1  2  1  0  0  0
  1  3  1  0  0  0
  2  7  1  0  0  0
  3  4  1  0  0  0
  3  5  1  0  0  0
  5  6  1  0  0  0
  5  7  1  0  0  0
  7 10  1  0  0  0
 10 11  1  0  0  0
 10 20  1  0  0  0
 11 12  2  0  0  0
 12 13  1  0  0  0
 13 14  1  0  0  0
 13 20  2  0  0  0
 14 15  2  0  0  0
 14 16  1  0  0  0
 16 17  1  0  0  0
 17 18  1  0  0  0
 17 19  2  0  0  0
 19 20  1  0  0  0
 33 35  1  0  0  0
 34 36  1  0  0  0
 28 29  1  0  0  0
  4  8  1  0  0  0
  6  9  1  0  0  0
 16 21  1  0  0  0
 18 22  1  0  0  0
 18 23  1  0  0  0
M  END
> <minimizedAffinity>
-7.69307

$$$$
4LPS_GDP_A_302


 36 38  0  0  0  0  0  0  0  0999 V2000
   10.6178   -6.2849   -2.8090 C   0  0  0  0  0  0  0  0  0  0  0  0
    9.2821   -6.6845   -2.4977 O   0  0  0  0  0  0  0  0  0  0  0  0
   10.7293   -4.8199   -2.4293 C   0  0  0  0  0  0  0  0  0  0  0  0
   10.6017   -4.0471   -3.6264 O   0  0  0  0  0  0  0  0  0  0  0  0
    9.5332   -4.5467   -1.5473 C   0  0  0  0  0  0  0  0  0  0  0  0
    9.0702   -3.2093   -1.7279 O   0  0  0  0  0  0  0  0  0  0  0  0
    8.5236   -5.5456   -2.0782 C   0  0  0  0  0  0  0  0  0  0  0  0
    9.7638   -4.2647   -4.0640 H   0  0  0  0  0  0  0  0  0  0  0  0
    8.8737   -3.0591   -2.6659 H   0  0  0  0  0  0  0  0  0  0  0  0
    7.5367   -5.9710   -1.0608 N   0  0  0  0  0  0  0  0  0  0  0  0
    6.7825   -5.1975   -0.2563 C   0  0  0  0  0  0  0  0  0  0  0  0
    6.0193   -5.9649    0.5618 N   0  0  0  0  0  0  0  0  0  0  0  0
    6.2962   -7.2567    0.2907 C   0  0  0  0  0  0  0  0  0  0  0  0
    5.8572   -8.5847    0.7814 C   0  0  0  0  0  0  0  0  0  0  0  0
    5.0040   -8.6849    1.6861 O   0  0  0  0  0  0  0  0  0  0  0  0
    6.4011   -9.6764    0.2284 N   0  0  0  0  0  0  0  0  0  0  0  0
    7.3232   -9.5972   -0.7500 C   0  0  0  0  0  0  0  0  0  0  0  0
    7.8350  -10.7381   -1.2700 N   0  0  0  0  0  0  0  0  0  0  0  0
    7.7719   -8.4189   -1.2460 N   0  0  0  0  0  0  0  0  0  0  0  0
    7.3021   -7.2463   -0.7725 C   0  0  0  0  0  0  0  0  0  0  0  0
    6.1182  -10.5640    0.5467 H   0  0  0  0  0  0  0  0  0  0  0  0
    7.5316  -11.6120   -0.9332 H   0  0  0  0  0  0  0  0  0  0  0  0
    8.5105  -10.6936   -1.9848 H   0  0  0  0  0  0  0  0  0  0  0  0
   11.6026   -7.1267   -2.0117 C   0  0  0  0  0  0  0  0  0  0  0  0
   11.8675   -8.3241   -2.7391 O   0  0  0  0  0  0  0  0  0  0  0  0
   11.2665   -9.7238   -2.2514 P   0  0  0  0  0  0  0  0  0  0  0  0
   10.2045  -10.1675   -3.2236 O   0  0  0  0  0  0  0  0  0  0  0  0
   10.7257   -9.6497   -0.8468 O   0  0  0  0  0  0  0  0  0  0  0  0
   10.3720  -10.5158   -0.5904 H   0  0  0  0  0  0  0  0  0  0  0  0
   12.5515  -10.6913   -2.3570 O   0  0  0  0  0  0  0  0  0  0  0  0
   14.0071  -10.2866   -1.8155 P   0  0  0  0  0  0  0  0  0  0  0  0
   14.8307  -11.5337   -1.6134 O   0  0  0  0  0  0  0  0  0  0  0  0
   14.6877   -9.3548   -2.7857 O   0  0  0  0  0  0  0  0  0  0  0  0
   13.8346   -9.5532   -0.5085 O   0  0  0  0  0  0  0  0  0  0  0  0
   15.5651   -9.1189   -2.4461 H   0  0  0  0  0  0  0  0  0  0  0  0
   14.7047   -9.2990   -0.1631 H   0  0  0  0  0  0  0  0  0  0  0  0
 31 32  2  0  0  0
 31 33  1  0  0  0
 31 34  1  0  0  0
 31 30  1  0  0  0
 30 26  1  0  0  0
 26 27  2  0  0  0
 26 28  1  0  0  0
 26 25  1  0  0  0
 25 24  1  0  0  0
 24  1  1  0  0  0
  1  2  1  0  0  0
  1  3  1  0  0  0
  2  7  1  0  0  0
  3  4  1  0  0  0
  3  5  1  0  0  0
  5  6  1  0  0  0
  5  7  1  0  0  0
  7 10  1  0  0  0
 10 11  1  0  0  0
 10 20  1  0  0  0
 11 12  2  0  0  0
 12 13  1  0  0  0
 13 14  1  0  0  0
 13 20  2  0  0  0
 14 15  2  0  0  0
 14 16  1  0  0  0
 16 17  1  0  0  0
 17 18  1  0  0  0
 17 19  2  0  0  0
 19 20  1  0  0  0
 33 35  1  0  0  0
 34 36  1  0  0  0
 28 29  1  0  0  0
  4  8  1  0  0  0
  6  9  1  0  0  0
 16 21  1  0  0  0
 18 22  1  0  0  0
 18 23  1  0  0  0
M  END
> <minimizedAffinity>
-7.56921

$$$$
4LPS_GDP_A_302


 36 38  0  0  0  0  0  0  0  0999 V2000
    7.6037   -3.4135   -2.2343 C   0  0  0  0  0  0  0  0  0  0  0  0
    8.7467   -4.0965   -2.7518 O   0  0  0  0  0  0  0  0  0  0  0  0
    6.5546   -4.4750   -1.9600 C   0  0  0  0  0  0  0  0  0  0  0  0
    5.6240   -4.4610   -3.0464 O   0  0  0  0  0  0  0  0  0  0  0  0
    7.3032   -5.7874   -1.9812 C   0  0  0  0  0  0  0  0  0  0  0  0
    6.4739   -6.8313   -2.4889 O   0  0  0  0  0  0  0  0  0  0  0  0
    8.4364   -5.4808   -2.9407 C   0  0  0  0  0  0  0  0  0  0  0  0
    6.0987   -4.6010   -3.8806 H   0  0  0  0  0  0  0  0  0  0  0  0
    6.1452   -6.5847   -3.3676 H   0  0  0  0  0  0  0  0  0  0  0  0
    9.6503   -6.2872   -2.6832 N   0  0  0  0  0  0  0  0  0  0  0  0
   10.7362   -5.9517   -1.9603 C   0  0  0  0  0  0  0  0  0  0  0  0
   11.6515   -6.9528   -1.9850 N   0  0  0  0  0  0  0  0  0  0  0  0
   11.1539   -7.9465   -2.7491 C   0  0  0  0  0  0  0  0  0  0  0  0
   11.5921   -9.2883   -3.2016 C   0  0  0  0  0  0  0  0  0  0  0  0
   12.6976   -9.7526   -2.8569 O   0  0  0  0  0  0  0  0  0  0  0  0
   10.7701   -9.9906   -3.9918 N   0  0  0  0  0  0  0  0  0  0  0  0
    9.5713   -9.5140   -4.3783 C   0  0  0  0  0  0  0  0  0  0  0  0
    8.7844  -10.2731   -5.1773 N   0  0  0  0  0  0  0  0  0  0  0  0
    9.1069   -8.2971   -4.0048 N   0  0  0  0  0  0  0  0  0  0  0  0
    9.8407   -7.4920   -3.2089 C   0  0  0  0  0  0  0  0  0  0  0  0
   11.0507  -10.8826   -4.2996 H   0  0  0  0  0  0  0  0  0  0  0  0
    9.0904  -11.1626   -5.4679 H   0  0  0  0  0  0  0  0  0  0  0  0
    7.9063   -9.9355   -5.4676 H   0  0  0  0  0  0  0  0  0  0  0  0
    7.9806   -2.6822   -0.9547 C   0  0  0  0  0  0  0  0  0  0  0  0
    8.4011   -1.3628   -1.2943 O   0  0  0  0  0  0  0  0  0  0  0  0
    7.9040   -0.1042   -0.4417 P   0  0  0  0  0  0  0  0  0  0  0  0
    6.7232   -0.5158    0.3986 O   0  0  0  0  0  0  0  0  0  0  0  0
    7.5679    1.0758   -1.3168 O   0  0  0  0  0  0  0  0  0  0  0  0
    7.2718    1.8151   -0.7629 H   0  0  0  0  0  0  0  0  0  0  0  0
    9.1799    0.1828    0.5007 O   0  0  0  0  0  0  0  0  0  0  0  0
    9.9327    1.5990    0.5590 P   0  0  0  0  0  0  0  0  0  0  0  0
   10.9767    1.5668    1.6468 O   0  0  0  0  0  0  0  0  0  0  0  0
   10.5661    1.9119   -0.7729 O   0  0  0  0  0  0  0  0  0  0  0  0
    8.9053    2.6653    0.8479 O   0  0  0  0  0  0  0  0  0  0  0  0
   11.0168    2.7693   -0.7231 H   0  0  0  0  0  0  0  0  0  0  0  0
    9.3405    3.5313    0.8874 H   0  0  0  0  0  0  0  0  0  0  0  0
 31 32  2  0  0  0
 31 33  1  0  0  0
 31 34  1  0  0  0
 31 30  1  0  0  0
 30 26  1  0  0  0
 26 27  2  0  0  0
 26 28  1  0  0  0
 26 25  1  0  0  0
 25 24  1  0  0  0
 24  1  1  0  0  0
  1  2  1  0  0  0
  1  3  1  0  0  0
  2  7  1  0  0  0
  3  4  1  0  0  0
  3  5  1  0  0  0
  5  6  1  0  0  0
  5  7  1  0  0  0
  7 10  1  0  0  0
 10 11  1  0  0  0
 10 20  1  0  0  0
 11 12  2  0  0  0
 12 13  1  0  0  0
 13 14  1  0  0  0
 13 20  2  0  0  0
 14 15  2  0  0  0
 14 16  1  0  0  0
 16 17  1  0  0  0
 17 18  1  0  0  0
 17 19  2  0  0  0
 19 20  1  0  0  0
 33 35  1  0  0  0
 34 36  1  0  0  0
 28 29  1  0  0  0
  4  8  1  0  0  0
  6  9  1  0  0  0
 16 21  1  0  0  0
 18 22  1  0  0  0
 18 23  1  0  0  0
M  END
> <minimizedAffinity>
-7.28250

$$$$
4LPS_GDP_A_302


 36 38  0  0  0  0  0  0  0  0999 V2000
    6.7701   -4.0067   -1.9598 C   0  0  0  0  0  0  0  0  0  0  0  0
    6.2093   -2.7668   -1.5254 O   0  0  0  0  0  0  0  0  0  0  0  0
    6.5570   -4.0742   -3.4607 C   0  0  0  0  0  0  0  0  0  0  0  0
    5.4243   -4.9135   -3.7041 O   0  0  0  0  0  0  0  0  0  0  0  0
    6.2117   -2.6631   -3.8761 C   0  0  0  0  0  0  0  0  0  0  0  0
    5.2972   -2.6708   -4.9711 O   0  0  0  0  0  0  0  0  0  0  0  0
    5.5505   -2.1252   -2.6221 C   0  0  0  0  0  0  0  0  0  0  0  0
    4.6557   -4.5660   -3.2252 H   0  0  0  0  0  0  0  0  0  0  0  0
    4.5095   -3.1834   -4.7309 H   0  0  0  0  0  0  0  0  0  0  0  0
    5.6871   -0.6589   -2.4764 N   0  0  0  0  0  0  0  0  0  0  0  0
    6.5515    0.0251   -1.7023 C   0  0  0  0  0  0  0  0  0  0  0  0
    6.3439    1.3604   -1.8233 N   0  0  0  0  0  0  0  0  0  0  0  0
    5.3179    1.5413   -2.6796 C   0  0  0  0  0  0  0  0  0  0  0  0
    4.5752    2.6887   -3.2534 C   0  0  0  0  0  0  0  0  0  0  0  0
    4.8741    3.8619   -2.9525 O   0  0  0  0  0  0  0  0  0  0  0  0
    3.5731    2.4335   -4.1043 N   0  0  0  0  0  0  0  0  0  0  0  0
    3.2299    1.1771   -4.4470 C   0  0  0  0  0  0  0  0  0  0  0  0
    2.2075    0.9841   -5.3139 N   0  0  0  0  0  0  0  0  0  0  0  0
    3.8627    0.0819   -3.9613 N   0  0  0  0  0  0  0  0  0  0  0  0
    4.8896    0.2047   -3.0950 C   0  0  0  0  0  0  0  0  0  0  0  0
    3.0718    3.1874   -4.4911 H   0  0  0  0  0  0  0  0  0  0  0  0
    1.7255    1.7575   -5.6864 H   0  0  0  0  0  0  0  0  0  0  0  0
    1.9463    0.0705   -5.5715 H   0  0  0  0  0  0  0  0  0  0  0  0
    8.2530   -4.0437   -1.6219 C   0  0  0  0  0  0  0  0  0  0  0  0
    8.8207   -5.2154   -2.2032 O   0  0  0  0  0  0  0  0  0  0  0  0
   10.2799   -5.1758   -2.8569 P   0  0  0  0  0  0  0  0  0  0  0  0
   10.4314   -3.8993   -3.6428 O   0  0  0  0  0  0  0  0  0  0  0  0
   10.5480   -6.3833   -3.7180 O   0  0  0  0  0  0  0  0  0  0  0  0
   11.4399   -6.3206   -4.0941 H   0  0  0  0  0  0  0  0  0  0  0  0
   11.2267   -5.1377   -1.5529 O   0  0  0  0  0  0  0  0  0  0  0  0
   12.3818   -6.2154   -1.2698 P   0  0  0  0  0  0  0  0  0  0  0  0
   12.9687   -5.9726    0.0980 O   0  0  0  0  0  0  0  0  0  0  0  0
   11.8293   -7.6148   -1.3675 O   0  0  0  0  0  0  0  0  0  0  0  0
   13.4414   -6.0579   -2.3320 O   0  0  0  0  0  0  0  0  0  0  0  0
   12.5374   -8.2547   -1.1944 H   0  0  0  0  0  0  0  0  0  0  0  0
   14.1507   -6.7016   -2.1790 H   0  0  0  0  0  0  0  0  0  0  0  0
 31 32  2  0  0  0
 31 33  1  0  0  0
 31 34  1  0  0  0
 31 30  1  0  0  0
 30 26  1  0  0  0
 26 27  2  0  0  0
 26 28  1  0  0  0
 26 25  1  0  0  0
 25 24  1  0  0  0
 24  1  1  0  0  0
  1  2  1  0  0  0
  1  3  1  0  0  0
  2  7  1  0  0  0
  3  4  1  0  0  0
  3  5  1  0  0  0
  5  6  1  0  0  0
  5  7  1  0  0  0
  7 10  1  0  0  0
 10 11  1  0  0  0
 10 20  1  0  0  0
 11 12  2  0  0  0
 12 13  1  0  0  0
 13 14  1  0  0  0
 13 20  2  0  0  0
 14 15  2  0  0  0
 14 16  1  0  0  0
 16 17  1  0  0  0
 17 18  1  0  0  0
 17 19  2  0  0  0
 19 20  1  0  0  0
 33 35  1  0  0  0
 34 36  1  0  0  0
 28 29  1  0  0  0
  4  8  1  0  0  0
  6  9  1  0  0  0
 16 21  1  0  0  0
 18 22  1  0  0  0
 18 23  1  0  0  0
M  END
> <minimizedAffinity>
-7.19780

$$$$
4LPS_GDP_A_302


 36 38  0  0  0  0  0  0  0  0999 V2000
    8.3631   -4.3915   -2.3384 C   0  0  0  0  0  0  0  0  0  0  0  0
    8.0924   -4.7870   -3.6842 O   0  0  0  0  0  0  0  0  0  0  0  0
    7.0198   -4.2897   -1.6402 C   0  0  0  0  0  0  0  0  0  0  0  0
    6.6551   -2.9072   -1.5933 O   0  0  0  0  0  0  0  0  0  0  0  0
    6.0483   -5.0160   -2.5413 C   0  0  0  0  0  0  0  0  0  0  0  0
    4.7573   -4.4118   -2.4797 O   0  0  0  0  0  0  0  0  0  0  0  0
    6.6784   -4.8091   -3.9048 C   0  0  0  0  0  0  0  0  0  0  0  0
    6.6455   -2.5447   -2.4929 H   0  0  0  0  0  0  0  0  0  0  0  0
    4.8295   -3.4710   -2.7042 H   0  0  0  0  0  0  0  0  0  0  0  0
    6.3563   -5.8892   -4.8638 N   0  0  0  0  0  0  0  0  0  0  0  0
    5.3935   -5.9081   -5.8056 C   0  0  0  0  0  0  0  0  0  0  0  0
    5.3987   -7.0928   -6.4668 N   0  0  0  0  0  0  0  0  0  0  0  0
    6.3727   -7.8578   -5.9329 C   0  0  0  0  0  0  0  0  0  0  0  0
    6.9225   -9.2175   -6.1476 C   0  0  0  0  0  0  0  0  0  0  0  0
    6.4555   -9.9669   -7.0289 O   0  0  0  0  0  0  0  0  0  0  0  0
    7.9348   -9.6221   -5.3697 N   0  0  0  0  0  0  0  0  0  0  0  0
    8.4584   -8.8335   -4.4118 C   0  0  0  0  0  0  0  0  0  0  0  0
    9.4826   -9.2997   -3.6584 N   0  0  0  0  0  0  0  0  0  0  0  0
    8.0057   -7.5817   -4.1590 N   0  0  0  0  0  0  0  0  0  0  0  0
    6.9890   -7.0571   -4.8739 C   0  0  0  0  0  0  0  0  0  0  0  0
    8.3076  -10.5235   -5.5023 H   0  0  0  0  0  0  0  0  0  0  0  0
    9.8365  -10.2049   -3.8149 H   0  0  0  0  0  0  0  0  0  0  0  0
    9.8733   -8.7333   -2.9543 H   0  0  0  0  0  0  0  0  0  0  0  0
    9.2443   -5.4338   -1.6664 C   0  0  0  0  0  0  0  0  0  0  0  0
   10.6025   -5.1671   -2.0088 O   0  0  0  0  0  0  0  0  0  0  0  0
   11.5503   -6.3350   -2.5527 P   0  0  0  0  0  0  0  0  0  0  0  0
   12.9864   -5.8923   -2.4445 O   0  0  0  0  0  0  0  0  0  0  0  0
   11.2056   -6.7333   -3.9646 O   0  0  0  0  0  0  0  0  0  0  0  0
   11.8014   -7.4413   -4.2555 H   0  0  0  0  0  0  0  0  0  0  0  0
   11.2561   -7.5188   -1.4989 O   0  0  0  0  0  0  0  0  0  0  0  0
   12.0473   -8.9151   -1.4975 P   0  0  0  0  0  0  0  0  0  0  0  0
   13.2151   -8.8280   -0.5472 O   0  0  0  0  0  0  0  0  0  0  0  0
   11.1255  -10.0402   -1.1007 O   0  0  0  0  0  0  0  0  0  0  0  0
   12.5307   -9.1823   -2.9013 O   0  0  0  0  0  0  0  0  0  0  0  0
   11.6163  -10.8769   -1.1041 H   0  0  0  0  0  0  0  0  0  0  0  0
   13.0128  -10.0238   -2.9225 H   0  0  0  0  0  0  0  0  0  0  0  0
 31 32  2  0  0  0
 31 33  1  0  0  0
 31 34  1  0  0  0
 31 30  1  0  0  0
 30 26  1  0  0  0
 26 27  2  0  0  0
 26 28  1  0  0  0
 26 25  1  0  0  0
 25 24  1  0  0  0
 24  1  1  0  0  0
  1  2  1  0  0  0
  1  3  1  0  0  0
  2  7  1  0  0  0
  3  4  1  0  0  0
  3  5  1  0  0  0
  5  6  1  0  0  0
  5  7  1  0  0  0
  7 10  1  0  0  0
 10 11  1  0  0  0
 10 20  1  0  0  0
 11 12  2  0  0  0
 12 13  1  0  0  0
 13 14  1  0  0  0
 13 20  2  0  0  0
 14 15  2  0  0  0
 14 16  1  0  0  0
 16 17  1  0  0  0
 17 18  1  0  0  0
 17 19  2  0  0  0
 19 20  1  0  0  0
 33 35  1  0  0  0
 34 36  1  0  0  0
 28 29  1  0  0  0
  4  8  1  0  0  0
  6  9  1  0  0  0
 16 21  1  0  0  0
 18 22  1  0  0  0
 18 23  1  0  0  0
M  END
> <minimizedAffinity>
-7.04959

$$$$
