4X5R_3XO_A_301


 38 41  0  0  0  0  0  0  0  0999 V2000
    9.0539   17.8073  -16.7593 C   0  0  0  0  0  0  0  0  0  0  0  0
    8.9722   16.6853  -15.9475 C   0  0  0  0  0  0  0  0  0  0  0  0
    9.4104   17.6354  -18.0922 C   0  0  0  0  0  0  0  0  0  0  0  0
    9.6720   16.3471  -18.6010 C   0  0  0  0  0  0  0  0  0  0  0  0
    9.5673   15.2348  -17.7424 C   0  0  0  0  0  0  0  0  0  0  0  0
    8.5293   16.8959  -14.3092 Cl  0  0  0  0  0  0  0  0  0  0  0  0
    9.2164   15.4237  -16.4074 C   0  0  0  0  0  0  0  0  0  0  0  0
    9.4883   18.6886  -18.9977 N   0  0  0  0  0  0  0  0  0  0  0  0
    9.3567   18.4531  -19.9445 H   0  0  0  0  0  0  0  0  0  0  0  0
    9.7271   20.0228  -18.7348 C   0  0  0  0  0  0  0  0  0  0  0  0
   10.9500   20.7548  -18.6666 C   0  0  0  0  0  0  0  0  0  0  0  0
   10.2345   22.0103  -18.3135 C   0  0  0  0  0  0  0  0  0  0  0  0
    8.9161   21.2289  -18.3977 C   0  0  0  0  0  0  0  0  0  0  0  0
    7.7915   21.5308  -18.2355 O   0  0  0  0  0  0  0  0  0  0  0  0
   10.5713   23.1100  -18.0578 O   0  0  0  0  0  0  0  0  0  0  0  0
   12.2727   20.5159  -18.8109 N   0  0  0  0  0  0  0  0  0  0  0  0
   14.6058   19.6969  -20.2228 N   0  0  0  0  0  0  0  0  0  0  0  0
   13.2844   21.5145  -19.2479 C   0  0  0  0  0  0  0  0  0  0  0  0
   14.0210   21.0094  -20.4676 C   0  0  0  0  0  0  0  0  0  0  0  0
   13.5579   18.7573  -19.8239 C   0  0  0  0  0  0  0  0  0  0  0  0
   12.8845   19.2128  -18.5478 C   0  0  0  0  0  0  0  0  0  0  0  0
   15.3204   19.1921  -21.4586 C   0  0  0  0  0  0  0  0  0  0  0  0
    9.0777   14.3684  -15.5304 O   0  0  0  0  0  0  0  0  0  0  0  0
   11.3385   13.9274  -15.2711 O   0  0  0  0  0  0  0  0  0  0  0  0
   11.1386   14.3167  -11.6252 O   0  0  0  0  0  0  0  0  0  0  0  0
    9.4579   12.0927  -12.0389 O   0  0  0  0  0  0  0  0  0  0  0  0
   10.5756   11.2342  -14.5225 O   0  0  0  0  0  0  0  0  0  0  0  0
   10.0684   13.3674  -15.5335 C   0  0  0  0  0  0  0  0  0  0  0  0
    9.6863   12.3586  -14.4573 C   0  0  0  0  0  0  0  0  0  0  0  0
    9.7383   13.0211  -13.0826 C   0  0  0  0  0  0  0  0  0  0  0  0
   11.1124   13.6241  -12.8660 C   0  0  0  0  0  0  0  0  0  0  0  0
   11.4527   14.5891  -13.9954 C   0  0  0  0  0  0  0  0  0  0  0  0
   12.0183   14.7018  -11.4884 H   0  0  0  0  0  0  0  0  0  0  0  0
    8.5788   11.7067  -12.1771 H   0  0  0  0  0  0  0  0  0  0  0  0
   10.5241   10.8319  -15.4037 H   0  0  0  0  0  0  0  0  0  0  0  0
   13.7704   14.0922  -13.4656 O   0  0  0  0  0  0  0  0  0  0  0  0
   12.8681   15.1115  -13.8852 C   0  0  0  0  0  0  0  0  0  0  0  0
   14.6665   14.4586  -13.4051 H   0  0  0  0  0  0  0  0  0  0  0  0
 17 22  1  0  0  0
 17 19  1  0  0  0
 17 20  1  0  0  0
 18 19  1  0  0  0
 18 16  1  0  0  0
 21 20  1  0  0  0
 21 16  1  0  0  0
 16 11  1  0  0  0
 11 10  2  0  0  0
 11 12  1  0  0  0
  8 10  1  0  0  0
  8  3  1  0  0  0
 10 13  1  0  0  0
 12 15  2  0  0  0
 12 13  1  0  0  0
  4  3  2  0  0  0
  4  5  1  0  0  0
  3  1  1  0  0  0
 13 14  2  0  0  0
  5  7  2  0  0  0
  1  2  2  0  0  0
  7  2  1  0  0  0
  7 23  1  0  0  0
  2  6  1  0  0  0
 28 23  1  0  0  0
 28 24  1  0  0  0
 28 29  1  0  0  0
 24 32  1  0  0  0
 27 29  1  0  0  0
 29 30  1  0  0  0
 32 37  1  0  0  0
 32 31  1  0  0  0
 36 37  1  0  0  0
 30 31  1  0  0  0
 30 26  1  0  0  0
 31 25  1  0  0  0
 25 33  1  0  0  0
 26 34  1  0  0  0
 27 35  1  0  0  0
 36 38  1  0  0  0
  8  9  1  0  0  0
M  END
> <minimizedAffinity>
-8.62048

$$$$
4X5R_3XO_A_301


 38 41  0  0  0  0  0  0  0  0999 V2000
    9.2545   17.7639  -16.8756 C   0  0  0  0  0  0  0  0  0  0  0  0
    9.1328   16.6620  -16.0417 C   0  0  0  0  0  0  0  0  0  0  0  0
    9.6074   17.5532  -18.2039 C   0  0  0  0  0  0  0  0  0  0  0  0
    9.8255   16.2467  -18.6861 C   0  0  0  0  0  0  0  0  0  0  0  0
    9.6810   15.1561  -17.8056 C   0  0  0  0  0  0  0  0  0  0  0  0
    8.6943   16.9207  -14.4091 Cl  0  0  0  0  0  0  0  0  0  0  0  0
    9.3344   15.3838  -16.4756 C   0  0  0  0  0  0  0  0  0  0  0  0
    9.7231   18.5846  -19.1302 N   0  0  0  0  0  0  0  0  0  0  0  0
    8.9304   18.7520  -19.6895 H   0  0  0  0  0  0  0  0  0  0  0  0
   10.8104   19.4029  -19.3633 C   0  0  0  0  0  0  0  0  0  0  0  0
   11.9903   19.1871  -20.1361 C   0  0  0  0  0  0  0  0  0  0  0  0
   12.5336   20.5220  -19.7675 C   0  0  0  0  0  0  0  0  0  0  0  0
   11.2603   20.7625  -18.9449 C   0  0  0  0  0  0  0  0  0  0  0  0
   10.8881   21.6613  -18.2848 O   0  0  0  0  0  0  0  0  0  0  0  0
   13.5316   21.1022  -20.0029 O   0  0  0  0  0  0  0  0  0  0  0  0
   12.5238   18.2098  -20.9027 N   0  0  0  0  0  0  0  0  0  0  0  0
   13.3145   15.5391  -21.4943 N   0  0  0  0  0  0  0  0  0  0  0  0
   11.7820   17.4045  -21.9091 C   0  0  0  0  0  0  0  0  0  0  0  0
   11.9143   15.9313  -21.5967 C   0  0  0  0  0  0  0  0  0  0  0  0
   13.9790   16.3476  -20.4721 C   0  0  0  0  0  0  0  0  0  0  0  0
   13.9316   17.8162  -20.8332 C   0  0  0  0  0  0  0  0  0  0  0  0
   13.4333   14.0675  -21.1583 C   0  0  0  0  0  0  0  0  0  0  0  0
    9.1579   14.3518  -15.5779 O   0  0  0  0  0  0  0  0  0  0  0  0
   11.4035   13.8676  -15.2684 O   0  0  0  0  0  0  0  0  0  0  0  0
   11.1479   14.3395  -11.6358 O   0  0  0  0  0  0  0  0  0  0  0  0
    9.4261   12.1440  -12.0328 O   0  0  0  0  0  0  0  0  0  0  0  0
   10.5683   11.2082  -14.4771 O   0  0  0  0  0  0  0  0  0  0  0  0
   10.1262   13.3297  -15.5419 C   0  0  0  0  0  0  0  0  0  0  0  0
    9.7030   12.3528  -14.4517 C   0  0  0  0  0  0  0  0  0  0  0  0
    9.7454   13.0435  -13.0906 C   0  0  0  0  0  0  0  0  0  0  0  0
   11.1284   13.6211  -12.8620 C   0  0  0  0  0  0  0  0  0  0  0  0
   11.5097   14.5540  -14.0051 C   0  0  0  0  0  0  0  0  0  0  0  0
   12.0333   14.7083  -11.4912 H   0  0  0  0  0  0  0  0  0  0  0  0
    8.5413   11.7743  -12.1787 H   0  0  0  0  0  0  0  0  0  0  0  0
   10.5235   10.7883  -15.3503 H   0  0  0  0  0  0  0  0  0  0  0  0
   13.8084   14.0151  -13.4351 O   0  0  0  0  0  0  0  0  0  0  0  0
   12.9341   15.0478  -13.8805 C   0  0  0  0  0  0  0  0  0  0  0  0
   14.7111   14.3633  -13.3658 H   0  0  0  0  0  0  0  0  0  0  0  0
 17 22  1  0  0  0
 17 19  1  0  0  0
 17 20  1  0  0  0
 18 19  1  0  0  0
 18 16  1  0  0  0
 21 20  1  0  0  0
 21 16  1  0  0  0
 16 11  1  0  0  0
 11 10  2  0  0  0
 11 12  1  0  0  0
  8 10  1  0  0  0
  8  3  1  0  0  0
 10 13  1  0  0  0
 12 15  2  0  0  0
 12 13  1  0  0  0
  4  3  2  0  0  0
  4  5  1  0  0  0
  3  1  1  0  0  0
 13 14  2  0  0  0
  5  7  2  0  0  0
  1  2  2  0  0  0
  7  2  1  0  0  0
  7 23  1  0  0  0
  2  6  1  0  0  0
 28 23  1  0  0  0
 28 24  1  0  0  0
 28 29  1  0  0  0
 24 32  1  0  0  0
 27 29  1  0  0  0
 29 30  1  0  0  0
 32 37  1  0  0  0
 32 31  1  0  0  0
 36 37  1  0  0  0
 30 31  1  0  0  0
 30 26  1  0  0  0
 31 25  1  0  0  0
 25 33  1  0  0  0
 26 34  1  0  0  0
 27 35  1  0  0  0
 36 38  1  0  0  0
  8  9  1  0  0  0
M  END
> <minimizedAffinity>
-8.37975

$$$$
4X5R_3XO_A_301


 38 41  0  0  0  0  0  0  0  0999 V2000
    9.2345   16.5431  -18.7261 C   0  0  0  0  0  0  0  0  0  0  0  0
    9.0745   15.5746  -17.7458 C   0  0  0  0  0  0  0  0  0  0  0  0
    9.8066   17.7589  -18.3684 C   0  0  0  0  0  0  0  0  0  0  0  0
   10.2201   17.9903  -17.0408 C   0  0  0  0  0  0  0  0  0  0  0  0
   10.0472   16.9742  -16.0800 C   0  0  0  0  0  0  0  0  0  0  0  0
    8.3751   14.0775  -18.1866 Cl  0  0  0  0  0  0  0  0  0  0  0  0
    9.4655   15.7641  -16.4520 C   0  0  0  0  0  0  0  0  0  0  0  0
   10.0423   18.7829  -19.2800 N   0  0  0  0  0  0  0  0  0  0  0  0
    9.3474   18.9190  -19.9639 H   0  0  0  0  0  0  0  0  0  0  0  0
   11.1288   19.6322  -19.3456 C   0  0  0  0  0  0  0  0  0  0  0  0
   12.4073   19.4643  -19.9567 C   0  0  0  0  0  0  0  0  0  0  0  0
   12.8602   20.8016  -19.4880 C   0  0  0  0  0  0  0  0  0  0  0  0
   11.4819   20.9907  -18.8397 C   0  0  0  0  0  0  0  0  0  0  0  0
   11.0005   21.8631  -18.2157 O   0  0  0  0  0  0  0  0  0  0  0  0
   13.8649   21.4109  -19.5733 O   0  0  0  0  0  0  0  0  0  0  0  0
   13.0650   18.5200  -20.6660 N   0  0  0  0  0  0  0  0  0  0  0  0
   15.0650   16.5373  -21.0857 N   0  0  0  0  0  0  0  0  0  0  0  0
   12.7041   17.0783  -20.7204 C   0  0  0  0  0  0  0  0  0  0  0  0
   13.8808   16.2309  -20.2930 C   0  0  0  0  0  0  0  0  0  0  0  0
   15.3814   17.9608  -20.9686 C   0  0  0  0  0  0  0  0  0  0  0  0
   14.2412   18.8096  -21.4870 C   0  0  0  0  0  0  0  0  0  0  0  0
   16.2419   15.6993  -20.6327 C   0  0  0  0  0  0  0  0  0  0  0  0
    9.2938   14.7286  -15.5574 O   0  0  0  0  0  0  0  0  0  0  0  0
   11.5075   14.1055  -15.2670 O   0  0  0  0  0  0  0  0  0  0  0  0
   11.2252   14.2907  -11.6105 O   0  0  0  0  0  0  0  0  0  0  0  0
    9.4002   12.2269  -12.2042 O   0  0  0  0  0  0  0  0  0  0  0  0
   10.5278   11.4369  -14.7061 O   0  0  0  0  0  0  0  0  0  0  0  0
   10.2085   13.6585  -15.5964 C   0  0  0  0  0  0  0  0  0  0  0  0
    9.7212   12.6186  -14.5948 C   0  0  0  0  0  0  0  0  0  0  0  0
    9.7794   13.1923  -13.1810 C   0  0  0  0  0  0  0  0  0  0  0  0
   11.1865   13.6771  -12.8919 C   0  0  0  0  0  0  0  0  0  0  0  0
   11.6306   14.6797  -13.9503 C   0  0  0  0  0  0  0  0  0  0  0  0
   12.1260   14.6002  -11.4272 H   0  0  0  0  0  0  0  0  0  0  0  0
    8.5000   11.9165  -12.3889 H   0  0  0  0  0  0  0  0  0  0  0  0
   10.4740   11.0928  -15.6114 H   0  0  0  0  0  0  0  0  0  0  0  0
   13.8926   13.9761  -13.4139 O   0  0  0  0  0  0  0  0  0  0  0  0
   13.0762   15.0875  -13.7713 C   0  0  0  0  0  0  0  0  0  0  0  0
   14.8106   14.2705  -13.3070 H   0  0  0  0  0  0  0  0  0  0  0  0
 17 22  1  0  0  0
 17 19  1  0  0  0
 17 20  1  0  0  0
 18 19  1  0  0  0
 18 16  1  0  0  0
 21 20  1  0  0  0
 21 16  1  0  0  0
 16 11  1  0  0  0
 11 10  2  0  0  0
 11 12  1  0  0  0
  8 10  1  0  0  0
  8  3  1  0  0  0
 10 13  1  0  0  0
 12 15  2  0  0  0
 12 13  1  0  0  0
  4  3  2  0  0  0
  4  5  1  0  0  0
  3  1  1  0  0  0
 13 14  2  0  0  0
  5  7  2  0  0  0
  1  2  2  0  0  0
  7  2  1  0  0  0
  7 23  1  0  0  0
  2  6  1  0  0  0
 28 23  1  0  0  0
 28 24  1  0  0  0
 28 29  1  0  0  0
 24 32  1  0  0  0
 27 29  1  0  0  0
 29 30  1  0  0  0
 32 37  1  0  0  0
 32 31  1  0  0  0
 36 37  1  0  0  0
 30 31  1  0  0  0
 30 26  1  0  0  0
 31 25  1  0  0  0
 25 33  1  0  0  0
 26 34  1  0  0  0
 27 35  1  0  0  0
 36 38  1  0  0  0
  8  9  1  0  0  0
M  END
> <minimizedAffinity>
-8.34544

$$$$
4X5R_3XO_A_301


 38 41  0  0  0  0  0  0  0  0999 V2000
    9.4103   18.1801  -16.0627 C   0  0  0  0  0  0  0  0  0  0  0  0
    9.1610   16.9292  -15.5172 C   0  0  0  0  0  0  0  0  0  0  0  0
   10.0381   18.2490  -17.3014 C   0  0  0  0  0  0  0  0  0  0  0  0
   10.4009   17.0706  -17.9846 C   0  0  0  0  0  0  0  0  0  0  0  0
   10.1194   15.8212  -17.3970 C   0  0  0  0  0  0  0  0  0  0  0  0
    8.3848   16.8442  -13.9957 Cl  0  0  0  0  0  0  0  0  0  0  0  0
    9.4967   15.7685  -16.1518 C   0  0  0  0  0  0  0  0  0  0  0  0
   10.3033   19.4503  -17.9509 N   0  0  0  0  0  0  0  0  0  0  0  0
   11.1494   19.4910  -18.4525 H   0  0  0  0  0  0  0  0  0  0  0  0
    9.5283   20.5925  -17.9802 C   0  0  0  0  0  0  0  0  0  0  0  0
    8.1110   20.7571  -17.9894 C   0  0  0  0  0  0  0  0  0  0  0  0
    8.2353   22.2377  -18.0623 C   0  0  0  0  0  0  0  0  0  0  0  0
    9.7603   22.0652  -18.0403 C   0  0  0  0  0  0  0  0  0  0  0  0
   10.6555   22.8265  -18.0745 O   0  0  0  0  0  0  0  0  0  0  0  0
    7.4684   23.1293  -18.1333 O   0  0  0  0  0  0  0  0  0  0  0  0
    7.0091   19.9742  -17.9736 N   0  0  0  0  0  0  0  0  0  0  0  0
    5.5216   17.6285  -17.3467 N   0  0  0  0  0  0  0  0  0  0  0  0
    5.9469   20.0052  -16.9332 C   0  0  0  0  0  0  0  0  0  0  0  0
    5.7771   18.6331  -16.3218 C   0  0  0  0  0  0  0  0  0  0  0  0
    6.6126   17.6306  -18.3214 C   0  0  0  0  0  0  0  0  0  0  0  0
    6.7208   18.9763  -19.0045 C   0  0  0  0  0  0  0  0  0  0  0  0
    5.3767   16.2559  -16.7243 C   0  0  0  0  0  0  0  0  0  0  0  0
    9.1780   14.5730  -15.5426 O   0  0  0  0  0  0  0  0  0  0  0  0
   11.4161   14.0418  -15.2567 O   0  0  0  0  0  0  0  0  0  0  0  0
   11.1507   14.2840  -11.6023 O   0  0  0  0  0  0  0  0  0  0  0  0
    9.4038   12.1401  -12.1448 O   0  0  0  0  0  0  0  0  0  0  0  0
   10.5449   11.3481  -14.6399 O   0  0  0  0  0  0  0  0  0  0  0  0
   10.1335   13.5386  -15.5685 C   0  0  0  0  0  0  0  0  0  0  0  0
    9.6937   12.4994  -14.5445 C   0  0  0  0  0  0  0  0  0  0  0  0
    9.7386   13.1012  -13.1419 C   0  0  0  0  0  0  0  0  0  0  0  0
   11.1276   13.6456  -12.8720 C   0  0  0  0  0  0  0  0  0  0  0  0
   11.5253   14.6448  -13.9518 C   0  0  0  0  0  0  0  0  0  0  0  0
   12.0400   14.6316  -11.4313 H   0  0  0  0  0  0  0  0  0  0  0  0
    8.5151   11.7916  -12.3172 H   0  0  0  0  0  0  0  0  0  0  0  0
   10.4987   10.9853  -15.5383 H   0  0  0  0  0  0  0  0  0  0  0  0
   13.8248   14.0309  -13.4672 O   0  0  0  0  0  0  0  0  0  0  0  0
   12.9551   15.1117  -13.7908 C   0  0  0  0  0  0  0  0  0  0  0  0
   14.7312   14.3629  -13.3711 H   0  0  0  0  0  0  0  0  0  0  0  0
 17 22  1  0  0  0
 17 19  1  0  0  0
 17 20  1  0  0  0
 18 19  1  0  0  0
 18 16  1  0  0  0
 21 20  1  0  0  0
 21 16  1  0  0  0
 16 11  1  0  0  0
 11 10  2  0  0  0
 11 12  1  0  0  0
  8 10  1  0  0  0
  8  3  1  0  0  0
 10 13  1  0  0  0
 12 15  2  0  0  0
 12 13  1  0  0  0
  4  3  2  0  0  0
  4  5  1  0  0  0
  3  1  1  0  0  0
 13 14  2  0  0  0
  5  7  2  0  0  0
  1  2  2  0  0  0
  7  2  1  0  0  0
  7 23  1  0  0  0
  2  6  1  0  0  0
 28 23  1  0  0  0
 28 24  1  0  0  0
 28 29  1  0  0  0
 24 32  1  0  0  0
 27 29  1  0  0  0
 29 30  1  0  0  0
 32 37  1  0  0  0
 32 31  1  0  0  0
 36 37  1  0  0  0
 30 31  1  0  0  0
 30 26  1  0  0  0
 31 25  1  0  0  0
 25 33  1  0  0  0
 26 34  1  0  0  0
 27 35  1  0  0  0
 36 38  1  0  0  0
  8  9  1  0  0  0
M  END
> <minimizedAffinity>
-8.21063

$$$$
4X5R_3XO_A_301


 38 41  0  0  0  0  0  0  0  0999 V2000
    9.5720   16.5847  -18.7433 C   0  0  0  0  0  0  0  0  0  0  0  0
    9.3119   15.5979  -17.8037 C   0  0  0  0  0  0  0  0  0  0  0  0
   10.1619   17.7684  -18.3142 C   0  0  0  0  0  0  0  0  0  0  0  0
   10.4932   17.9498  -16.9561 C   0  0  0  0  0  0  0  0  0  0  0  0
   10.2197   16.9164  -16.0381 C   0  0  0  0  0  0  0  0  0  0  0  0
    8.5906   14.1401  -18.3320 Cl  0  0  0  0  0  0  0  0  0  0  0  0
    9.6214   15.7390  -16.4819 C   0  0  0  0  0  0  0  0  0  0  0  0
   10.4950   18.8061  -19.1788 N   0  0  0  0  0  0  0  0  0  0  0  0
   10.6463   18.5524  -20.1179 H   0  0  0  0  0  0  0  0  0  0  0  0
   10.6399   20.1472  -18.8847 C   0  0  0  0  0  0  0  0  0  0  0  0
    9.7540   21.0607  -18.2391 C   0  0  0  0  0  0  0  0  0  0  0  0
   10.7104   22.1866  -18.4142 C   0  0  0  0  0  0  0  0  0  0  0  0
   11.6710   21.2043  -19.0983 C   0  0  0  0  0  0  0  0  0  0  0  0
   12.7401   21.3246  -19.5723 O   0  0  0  0  0  0  0  0  0  0  0  0
   10.6924   23.3350  -18.1518 O   0  0  0  0  0  0  0  0  0  0  0  0
    8.5213   21.0417  -17.6844 N   0  0  0  0  0  0  0  0  0  0  0  0
    6.3830   19.8987  -16.1915 N   0  0  0  0  0  0  0  0  0  0  0  0
    8.1783   21.5592  -16.3330 C   0  0  0  0  0  0  0  0  0  0  0  0
    7.5362   20.4688  -15.5059 C   0  0  0  0  0  0  0  0  0  0  0  0
    6.7917   19.3851  -17.4990 C   0  0  0  0  0  0  0  0  0  0  0  0
    7.3457   20.4962  -18.3639 C   0  0  0  0  0  0  0  0  0  0  0  0
    5.7632   18.7926  -15.3638 C   0  0  0  0  0  0  0  0  0  0  0  0
    9.3529   14.6880  -15.6304 O   0  0  0  0  0  0  0  0  0  0  0  0
   11.5495   14.0337  -15.2834 O   0  0  0  0  0  0  0  0  0  0  0  0
   11.2180   14.3605  -11.6410 O   0  0  0  0  0  0  0  0  0  0  0  0
    9.3615   12.3114  -12.1857 O   0  0  0  0  0  0  0  0  0  0  0  0
   10.5093   11.4072  -14.6392 O   0  0  0  0  0  0  0  0  0  0  0  0
   10.2469   13.5998  -15.6158 C   0  0  0  0  0  0  0  0  0  0  0  0
    9.7247   12.6075  -14.5840 C   0  0  0  0  0  0  0  0  0  0  0  0
    9.7737   13.2323  -13.1916 C   0  0  0  0  0  0  0  0  0  0  0  0
   11.1857   13.7005  -12.8993 C   0  0  0  0  0  0  0  0  0  0  0  0
   11.6648   14.6541  -13.9872 C   0  0  0  0  0  0  0  0  0  0  0  0
   12.1220   14.6593  -11.4557 H   0  0  0  0  0  0  0  0  0  0  0  0
    8.4580   12.0117  -12.3724 H   0  0  0  0  0  0  0  0  0  0  0  0
   10.4618   11.0307  -15.5319 H   0  0  0  0  0  0  0  0  0  0  0  0
   13.8817   13.9595  -13.2786 O   0  0  0  0  0  0  0  0  0  0  0  0
   13.1154   15.0406  -13.8015 C   0  0  0  0  0  0  0  0  0  0  0  0
   14.8043   14.2391  -13.1717 H   0  0  0  0  0  0  0  0  0  0  0  0
 17 22  1  0  0  0
 17 19  1  0  0  0
 17 20  1  0  0  0
 18 19  1  0  0  0
 18 16  1  0  0  0
 21 20  1  0  0  0
 21 16  1  0  0  0
 16 11  1  0  0  0
 11 10  2  0  0  0
 11 12  1  0  0  0
  8 10  1  0  0  0
  8  3  1  0  0  0
 10 13  1  0  0  0
 12 15  2  0  0  0
 12 13  1  0  0  0
  4  3  2  0  0  0
  4  5  1  0  0  0
  3  1  1  0  0  0
 13 14  2  0  0  0
  5  7  2  0  0  0
  1  2  2  0  0  0
  7  2  1  0  0  0
  7 23  1  0  0  0
  2  6  1  0  0  0
 28 23  1  0  0  0
 28 24  1  0  0  0
 28 29  1  0  0  0
 24 32  1  0  0  0
 27 29  1  0  0  0
 29 30  1  0  0  0
 32 37  1  0  0  0
 32 31  1  0  0  0
 36 37  1  0  0  0
 30 31  1  0  0  0
 30 26  1  0  0  0
 31 25  1  0  0  0
 25 33  1  0  0  0
 26 34  1  0  0  0
 27 35  1  0  0  0
 36 38  1  0  0  0
  8  9  1  0  0  0
M  END
> <minimizedAffinity>
-8.09853

$$$$
4X5R_3XO_A_301


 38 41  0  0  0  0  0  0  0  0999 V2000
    8.5836   16.8785  -18.0736 C   0  0  0  0  0  0  0  0  0  0  0  0
    8.8781   16.2111  -16.8937 C   0  0  0  0  0  0  0  0  0  0  0  0
    8.2227   16.1273  -19.1867 C   0  0  0  0  0  0  0  0  0  0  0  0
    8.1511   14.7217  -19.1069 C   0  0  0  0  0  0  0  0  0  0  0  0
    8.4495   14.0866  -17.8850 C   0  0  0  0  0  0  0  0  0  0  0  0
    9.3176   17.1351  -15.5233 Cl  0  0  0  0  0  0  0  0  0  0  0  0
    8.8169   14.8524  -16.7806 C   0  0  0  0  0  0  0  0  0  0  0  0
    7.8757   16.6988  -20.4066 N   0  0  0  0  0  0  0  0  0  0  0  0
    6.9157   16.8671  -20.5458 H   0  0  0  0  0  0  0  0  0  0  0  0
    8.7091   17.0593  -21.4466 C   0  0  0  0  0  0  0  0  0  0  0  0
   10.1281   16.9812  -21.5736 C   0  0  0  0  0  0  0  0  0  0  0  0
   10.0889   17.5975  -22.9270 C   0  0  0  0  0  0  0  0  0  0  0  0
    8.5612   17.6720  -22.7990 C   0  0  0  0  0  0  0  0  0  0  0  0
    7.7140   18.0716  -23.5094 O   0  0  0  0  0  0  0  0  0  0  0  0
   10.9049   17.9068  -23.7186 O   0  0  0  0  0  0  0  0  0  0  0  0
   11.1814   16.5695  -20.8331 N   0  0  0  0  0  0  0  0  0  0  0  0
   13.9075   15.8780  -20.3883 N   0  0  0  0  0  0  0  0  0  0  0  0
   12.0673   17.4547  -20.0309 C   0  0  0  0  0  0  0  0  0  0  0  0
   13.5061   17.2775  -20.4596 C   0  0  0  0  0  0  0  0  0  0  0  0
   13.0159   15.0670  -21.2173 C   0  0  0  0  0  0  0  0  0  0  0  0
   11.5875   15.1675  -20.7283 C   0  0  0  0  0  0  0  0  0  0  0  0
   15.3424   15.7107  -20.8421 C   0  0  0  0  0  0  0  0  0  0  0  0
    9.0969   14.2837  -15.5557 O   0  0  0  0  0  0  0  0  0  0  0  0
   11.3538   13.8388  -15.2704 O   0  0  0  0  0  0  0  0  0  0  0  0
   11.1578   14.4413  -11.6534 O   0  0  0  0  0  0  0  0  0  0  0  0
    9.4578   12.2117  -11.9376 O   0  0  0  0  0  0  0  0  0  0  0  0
   10.5676   11.2004  -14.3667 O   0  0  0  0  0  0  0  0  0  0  0  0
   10.0788   13.2756  -15.5002 C   0  0  0  0  0  0  0  0  0  0  0  0
    9.6881   12.3344  -14.3673 C   0  0  0  0  0  0  0  0  0  0  0  0
    9.7461   13.0753  -13.0334 C   0  0  0  0  0  0  0  0  0  0  0  0
   11.1254   13.6779  -12.8519 C   0  0  0  0  0  0  0  0  0  0  0  0
   11.4739   14.5726  -14.0353 C   0  0  0  0  0  0  0  0  0  0  0  0
   12.0409   14.8260  -11.5389 H   0  0  0  0  0  0  0  0  0  0  0  0
    8.5753   11.8260  -12.0535 H   0  0  0  0  0  0  0  0  0  0  0  0
   10.5124   10.7480  -15.2230 H   0  0  0  0  0  0  0  0  0  0  0  0
   13.7930   14.0768  -13.5105 O   0  0  0  0  0  0  0  0  0  0  0  0
   12.8938   15.0882  -13.9553 C   0  0  0  0  0  0  0  0  0  0  0  0
   14.6921   14.4385  -13.4702 H   0  0  0  0  0  0  0  0  0  0  0  0
 17 22  1  0  0  0
 17 19  1  0  0  0
 17 20  1  0  0  0
 18 19  1  0  0  0
 18 16  1  0  0  0
 21 20  1  0  0  0
 21 16  1  0  0  0
 16 11  1  0  0  0
 11 10  2  0  0  0
 11 12  1  0  0  0
  8 10  1  0  0  0
  8  3  1  0  0  0
 10 13  1  0  0  0
 12 15  2  0  0  0
 12 13  1  0  0  0
  4  3  2  0  0  0
  4  5  1  0  0  0
  3  1  1  0  0  0
 13 14  2  0  0  0
  5  7  2  0  0  0
  1  2  2  0  0  0
  7  2  1  0  0  0
  7 23  1  0  0  0
  2  6  1  0  0  0
 28 23  1  0  0  0
 28 24  1  0  0  0
 28 29  1  0  0  0
 24 32  1  0  0  0
 27 29  1  0  0  0
 29 30  1  0  0  0
 32 37  1  0  0  0
 32 31  1  0  0  0
 36 37  1  0  0  0
 30 31  1  0  0  0
 30 26  1  0  0  0
 31 25  1  0  0  0
 25 33  1  0  0  0
 26 34  1  0  0  0
 27 35  1  0  0  0
 36 38  1  0  0  0
  8  9  1  0  0  0
M  END
> <minimizedAffinity>
-8.04131

$$$$
4X5R_3XO_A_301


 38 41  0  0  0  0  0  0  0  0999 V2000
    8.4905   17.2294  -17.8609 C   0  0  0  0  0  0  0  0  0  0  0  0
    8.5132   16.0901  -17.0696 C   0  0  0  0  0  0  0  0  0  0  0  0
    8.9367   18.4261  -17.3113 C   0  0  0  0  0  0  0  0  0  0  0  0
    9.4082   18.4702  -15.9836 C   0  0  0  0  0  0  0  0  0  0  0  0
    9.4224   17.2863  -15.2197 C   0  0  0  0  0  0  0  0  0  0  0  0
    7.9687   14.6172  -17.7469 Cl  0  0  0  0  0  0  0  0  0  0  0  0
    8.9650   16.0964  -15.7818 C   0  0  0  0  0  0  0  0  0  0  0  0
    8.9870   19.6171  -18.0283 N   0  0  0  0  0  0  0  0  0  0  0  0
    9.0828   19.5286  -19.0041 H   0  0  0  0  0  0  0  0  0  0  0  0
    8.9194   20.9078  -17.5427 C   0  0  0  0  0  0  0  0  0  0  0  0
    9.6357   22.0834  -17.9181 C   0  0  0  0  0  0  0  0  0  0  0  0
    8.9479   22.8930  -16.8767 C   0  0  0  0  0  0  0  0  0  0  0  0
    8.1668   21.6333  -16.4781 C   0  0  0  0  0  0  0  0  0  0  0  0
    7.3509   21.4195  -15.6592 O   0  0  0  0  0  0  0  0  0  0  0  0
    9.0185   24.0137  -16.5203 O   0  0  0  0  0  0  0  0  0  0  0  0
   10.5886   22.4369  -18.8093 N   0  0  0  0  0  0  0  0  0  0  0  0
   13.1902   23.2773  -19.6051 N   0  0  0  0  0  0  0  0  0  0  0  0
   11.5109   21.4971  -19.5007 C   0  0  0  0  0  0  0  0  0  0  0  0
   12.9470   21.8882  -19.2361 C   0  0  0  0  0  0  0  0  0  0  0  0
   12.2719   24.1495  -18.8730 C   0  0  0  0  0  0  0  0  0  0  0  0
   10.8341   23.8222  -19.2120 C   0  0  0  0  0  0  0  0  0  0  0  0
   14.6250   23.6634  -19.3138 C   0  0  0  0  0  0  0  0  0  0  0  0
    8.9783   14.9055  -15.0864 O   0  0  0  0  0  0  0  0  0  0  0  0
   11.2436   14.4247  -14.9853 O   0  0  0  0  0  0  0  0  0  0  0  0
   11.0646   13.6669  -11.3968 O   0  0  0  0  0  0  0  0  0  0  0  0
    9.3961   11.6656  -12.4705 O   0  0  0  0  0  0  0  0  0  0  0  0
   10.5035   11.6257  -15.1024 O   0  0  0  0  0  0  0  0  0  0  0  0
    9.9756   13.9626  -15.4027 C   0  0  0  0  0  0  0  0  0  0  0  0
    9.6072   12.6675  -14.6893 C   0  0  0  0  0  0  0  0  0  0  0  0
    9.6636   12.8733  -13.1774 C   0  0  0  0  0  0  0  0  0  0  0  0
   11.0350   13.3913  -12.7908 C   0  0  0  0  0  0  0  0  0  0  0  0
   11.3616   14.6608  -13.5680 C   0  0  0  0  0  0  0  0  0  0  0  0
   11.9426   13.9981  -11.1512 H   0  0  0  0  0  0  0  0  0  0  0  0
    8.5187   11.3339  -12.7177 H   0  0  0  0  0  0  0  0  0  0  0  0
   10.4489   11.5149  -16.0645 H   0  0  0  0  0  0  0  0  0  0  0  0
   13.6946   14.0484  -13.2821 O   0  0  0  0  0  0  0  0  0  0  0  0
   12.7742   15.1354  -13.3076 C   0  0  0  0  0  0  0  0  0  0  0  0
   14.5884   14.3854  -13.1136 H   0  0  0  0  0  0  0  0  0  0  0  0
 17 22  1  0  0  0
 17 19  1  0  0  0
 17 20  1  0  0  0
 18 19  1  0  0  0
 18 16  1  0  0  0
 21 20  1  0  0  0
 21 16  1  0  0  0
 16 11  1  0  0  0
 11 10  2  0  0  0
 11 12  1  0  0  0
  8 10  1  0  0  0
  8  3  1  0  0  0
 10 13  1  0  0  0
 12 15  2  0  0  0
 12 13  1  0  0  0
  4  3  2  0  0  0
  4  5  1  0  0  0
  3  1  1  0  0  0
 13 14  2  0  0  0
  5  7  2  0  0  0
  1  2  2  0  0  0
  7  2  1  0  0  0
  7 23  1  0  0  0
  2  6  1  0  0  0
 28 23  1  0  0  0
 28 24  1  0  0  0
 28 29  1  0  0  0
 24 32  1  0  0  0
 27 29  1  0  0  0
 29 30  1  0  0  0
 32 37  1  0  0  0
 32 31  1  0  0  0
 36 37  1  0  0  0
 30 31  1  0  0  0
 30 26  1  0  0  0
 31 25  1  0  0  0
 25 33  1  0  0  0
 26 34  1  0  0  0
 27 35  1  0  0  0
 36 38  1  0  0  0
  8  9  1  0  0  0
M  END
> <minimizedAffinity>
-7.63031

$$$$
4X5R_3XO_A_301


 38 41  0  0  0  0  0  0  0  0999 V2000
    9.1326   16.5632  -18.5519 C   0  0  0  0  0  0  0  0  0  0  0  0
    8.9942   15.5807  -17.5824 C   0  0  0  0  0  0  0  0  0  0  0  0
    9.7114   17.7743  -18.1892 C   0  0  0  0  0  0  0  0  0  0  0  0
   10.1530   17.9872  -16.8675 C   0  0  0  0  0  0  0  0  0  0  0  0
   10.0012   16.9573  -15.9179 C   0  0  0  0  0  0  0  0  0  0  0  0
    8.2865   14.0894  -18.0295 Cl  0  0  0  0  0  0  0  0  0  0  0  0
    9.4125   15.7521  -16.2947 C   0  0  0  0  0  0  0  0  0  0  0  0
    9.9270   18.8115  -19.0908 N   0  0  0  0  0  0  0  0  0  0  0  0
   10.8417   18.8898  -19.4464 H   0  0  0  0  0  0  0  0  0  0  0  0
    9.0188   19.7448  -19.5494 C   0  0  0  0  0  0  0  0  0  0  0  0
    8.0265   20.4990  -18.8547 C   0  0  0  0  0  0  0  0  0  0  0  0
    7.5674   21.1448  -20.1137 C   0  0  0  0  0  0  0  0  0  0  0  0
    8.6416   20.3442  -20.8626 C   0  0  0  0  0  0  0  0  0  0  0  0
    8.9540   20.2817  -21.9942 O   0  0  0  0  0  0  0  0  0  0  0  0
    6.7194   21.9162  -20.3857 O   0  0  0  0  0  0  0  0  0  0  0  0
    7.5731   20.6360  -17.5886 N   0  0  0  0  0  0  0  0  0  0  0  0
    5.7962   21.5810  -15.5744 N   0  0  0  0  0  0  0  0  0  0  0  0
    6.6375   19.7040  -16.9046 C   0  0  0  0  0  0  0  0  0  0  0  0
    5.4184   20.4543  -16.4186 C   0  0  0  0  0  0  0  0  0  0  0  0
    6.6925   22.4708  -16.3126 C   0  0  0  0  0  0  0  0  0  0  0  0
    7.9578   21.7458  -16.7159 C   0  0  0  0  0  0  0  0  0  0  0  0
    4.5683   22.3377  -15.1134 C   0  0  0  0  0  0  0  0  0  0  0  0
    9.2606   14.7038  -15.4115 O   0  0  0  0  0  0  0  0  0  0  0  0
   11.4778   14.1238  -15.0646 O   0  0  0  0  0  0  0  0  0  0  0  0
   11.0662   14.1779  -11.4161 O   0  0  0  0  0  0  0  0  0  0  0  0
    9.3146   12.0928  -12.1414 O   0  0  0  0  0  0  0  0  0  0  0  0
   10.5463   11.4152  -14.6271 O   0  0  0  0  0  0  0  0  0  0  0  0
   10.2025   13.6576  -15.4539 C   0  0  0  0  0  0  0  0  0  0  0  0
    9.7073   12.5730  -14.5050 C   0  0  0  0  0  0  0  0  0  0  0  0
    9.7028   13.0995  -13.0717 C   0  0  0  0  0  0  0  0  0  0  0  0
   11.0867   13.6075  -12.7177 C   0  0  0  0  0  0  0  0  0  0  0  0
   11.5415   14.6557  -13.7261 C   0  0  0  0  0  0  0  0  0  0  0  0
   11.9523   14.5023  -11.1913 H   0  0  0  0  0  0  0  0  0  0  0  0
    8.4292   11.7675  -12.3676 H   0  0  0  0  0  0  0  0  0  0  0  0
   10.5321   11.1009  -15.5447 H   0  0  0  0  0  0  0  0  0  0  0  0
   13.8751   13.9967  -13.5873 O   0  0  0  0  0  0  0  0  0  0  0  0
   12.9696   15.0914  -13.4832 C   0  0  0  0  0  0  0  0  0  0  0  0
   14.7794   14.3087  -13.4267 H   0  0  0  0  0  0  0  0  0  0  0  0
 17 22  1  0  0  0
 17 19  1  0  0  0
 17 20  1  0  0  0
 18 19  1  0  0  0
 18 16  1  0  0  0
 21 20  1  0  0  0
 21 16  1  0  0  0
 16 11  1  0  0  0
 11 10  2  0  0  0
 11 12  1  0  0  0
  8 10  1  0  0  0
  8  3  1  0  0  0
 10 13  1  0  0  0
 12 15  2  0  0  0
 12 13  1  0  0  0
  4  3  2  0  0  0
  4  5  1  0  0  0
  3  1  1  0  0  0
 13 14  2  0  0  0
  5  7  2  0  0  0
  1  2  2  0  0  0
  7  2  1  0  0  0
  7 23  1  0  0  0
  2  6  1  0  0  0
 28 23  1  0  0  0
 28 24  1  0  0  0
 28 29  1  0  0  0
 24 32  1  0  0  0
 27 29  1  0  0  0
 29 30  1  0  0  0
 32 37  1  0  0  0
 32 31  1  0  0  0
 36 37  1  0  0  0
 30 31  1  0  0  0
 30 26  1  0  0  0
 31 25  1  0  0  0
 25 33  1  0  0  0
 26 34  1  0  0  0
 27 35  1  0  0  0
 36 38  1  0  0  0
  8  9  1  0  0  0
M  END
> <minimizedAffinity>
-7.60370

$$$$
4X5R_3XO_A_301


 38 41  0  0  0  0  0  0  0  0999 V2000
    8.9950   16.7587  -18.4613 C   0  0  0  0  0  0  0  0  0  0  0  0
    8.8838   15.7452  -17.5205 C   0  0  0  0  0  0  0  0  0  0  0  0
    9.5925   17.9545  -18.0787 C   0  0  0  0  0  0  0  0  0  0  0  0
   10.0796   18.1215  -16.7664 C   0  0  0  0  0  0  0  0  0  0  0  0
    9.9541   17.0614  -15.8467 C   0  0  0  0  0  0  0  0  0  0  0  0
    8.1530   14.2727  -17.9923 Cl  0  0  0  0  0  0  0  0  0  0  0  0
    9.3462   15.8720  -16.2427 C   0  0  0  0  0  0  0  0  0  0  0  0
    9.7834   19.0199  -18.9524 N   0  0  0  0  0  0  0  0  0  0  0  0
   10.1435   19.8448  -18.5535 H   0  0  0  0  0  0  0  0  0  0  0  0
    9.5312   19.0653  -20.3091 C   0  0  0  0  0  0  0  0  0  0  0  0
   10.3235   18.6451  -21.4188 C   0  0  0  0  0  0  0  0  0  0  0  0
    9.2960   19.1088  -22.3895 C   0  0  0  0  0  0  0  0  0  0  0  0
    8.4357   19.5511  -21.1979 C   0  0  0  0  0  0  0  0  0  0  0  0
    7.3797   20.0612  -21.1148 O   0  0  0  0  0  0  0  0  0  0  0  0
    9.2212   19.1347  -23.5650 O   0  0  0  0  0  0  0  0  0  0  0  0
   11.5320   18.0783  -21.6324 N   0  0  0  0  0  0  0  0  0  0  0  0
   14.3561   17.8450  -21.3532 N   0  0  0  0  0  0  0  0  0  0  0  0
   12.1259   16.9858  -20.8165 C   0  0  0  0  0  0  0  0  0  0  0  0
   13.4726   17.4118  -20.2778 C   0  0  0  0  0  0  0  0  0  0  0  0
   13.7271   18.9356  -22.0983 C   0  0  0  0  0  0  0  0  0  0  0  0
   12.4246   18.4811  -22.7198 C   0  0  0  0  0  0  0  0  0  0  0  0
   15.6927   18.2909  -20.7988 C   0  0  0  0  0  0  0  0  0  0  0  0
    9.2183   14.7957  -15.3899 O   0  0  0  0  0  0  0  0  0  0  0  0
   11.4448   14.2295  -15.0821 O   0  0  0  0  0  0  0  0  0  0  0  0
   11.0649   14.1524  -11.4306 O   0  0  0  0  0  0  0  0  0  0  0  0
    9.3303   12.0737  -12.2131 O   0  0  0  0  0  0  0  0  0  0  0  0
   10.5474   11.4968  -14.7312 O   0  0  0  0  0  0  0  0  0  0  0  0
   10.1713   13.7624  -15.4766 C   0  0  0  0  0  0  0  0  0  0  0  0
    9.6966   12.6400  -14.5618 C   0  0  0  0  0  0  0  0  0  0  0  0
    9.6989   13.1165  -13.1112 C   0  0  0  0  0  0  0  0  0  0  0  0
   11.0802   13.6277  -12.7514 C   0  0  0  0  0  0  0  0  0  0  0  0
   11.5144   14.7153  -13.7266 C   0  0  0  0  0  0  0  0  0  0  0  0
   11.9493   14.4789  -11.2022 H   0  0  0  0  0  0  0  0  0  0  0  0
    8.4466   11.7464  -12.4430 H   0  0  0  0  0  0  0  0  0  0  0  0
   10.5285   11.2144  -15.6589 H   0  0  0  0  0  0  0  0  0  0  0  0
   13.8452   14.0602  -13.5328 O   0  0  0  0  0  0  0  0  0  0  0  0
   12.9397   15.1586  -13.4808 C   0  0  0  0  0  0  0  0  0  0  0  0
   14.7477   14.3773  -13.3717 H   0  0  0  0  0  0  0  0  0  0  0  0
 17 22  1  0  0  0
 17 19  1  0  0  0
 17 20  1  0  0  0
 18 19  1  0  0  0
 18 16  1  0  0  0
 21 20  1  0  0  0
 21 16  1  0  0  0
 16 11  1  0  0  0
 11 10  2  0  0  0
 11 12  1  0  0  0
  8 10  1  0  0  0
  8  3  1  0  0  0
 10 13  1  0  0  0
 12 15  2  0  0  0
 12 13  1  0  0  0
  4  3  2  0  0  0
  4  5  1  0  0  0
  3  1  1  0  0  0
 13 14  2  0  0  0
  5  7  2  0  0  0
  1  2  2  0  0  0
  7  2  1  0  0  0
  7 23  1  0  0  0
  2  6  1  0  0  0
 28 23  1  0  0  0
 28 24  1  0  0  0
 28 29  1  0  0  0
 24 32  1  0  0  0
 27 29  1  0  0  0
 29 30  1  0  0  0
 32 37  1  0  0  0
 32 31  1  0  0  0
 36 37  1  0  0  0
 30 31  1  0  0  0
 30 26  1  0  0  0
 31 25  1  0  0  0
 25 33  1  0  0  0
 26 34  1  0  0  0
 27 35  1  0  0  0
 36 38  1  0  0  0
  8  9  1  0  0  0
M  END
> <minimizedAffinity>
-7.46754

$$$$
4X5R_3XO_A_301


 38 41  0  0  0  0  0  0  0  0999 V2000
   10.0852   16.2006  -19.2190 C   0  0  0  0  0  0  0  0  0  0  0  0
    9.7242   15.4056  -18.1410 C   0  0  0  0  0  0  0  0  0  0  0  0
   10.9918   17.2331  -19.0059 C   0  0  0  0  0  0  0  0  0  0  0  0
   11.5337   17.4541  -17.7235 C   0  0  0  0  0  0  0  0  0  0  0  0
   11.1459   16.6156  -16.6596 C   0  0  0  0  0  0  0  0  0  0  0  0
    8.6127   14.1327  -18.4038 Cl  0  0  0  0  0  0  0  0  0  0  0  0
   10.2308   15.5900  -16.8872 C   0  0  0  0  0  0  0  0  0  0  0  0
   11.4450   18.0658  -20.0239 N   0  0  0  0  0  0  0  0  0  0  0  0
   10.8226   18.2077  -20.7734 H   0  0  0  0  0  0  0  0  0  0  0  0
   12.6583   18.7183  -20.1146 C   0  0  0  0  0  0  0  0  0  0  0  0
   12.9948   20.0913  -19.9208 C   0  0  0  0  0  0  0  0  0  0  0  0
   14.4220   19.8384  -20.2556 C   0  0  0  0  0  0  0  0  0  0  0  0
   14.0662   18.3585  -20.4532 C   0  0  0  0  0  0  0  0  0  0  0  0
   14.6971   17.4142  -20.7570 O   0  0  0  0  0  0  0  0  0  0  0  0
   15.3823   20.5150  -20.3471 O   0  0  0  0  0  0  0  0  0  0  0  0
   12.3657   21.2434  -19.5978 N   0  0  0  0  0  0  0  0  0  0  0  0
   10.2951   23.1894  -19.7807 N   0  0  0  0  0  0  0  0  0  0  0  0
   11.3773   21.4047  -18.4985 C   0  0  0  0  0  0  0  0  0  0  0  0
   10.0773   21.9508  -19.0435 C   0  0  0  0  0  0  0  0  0  0  0  0
   11.2537   22.9575  -20.8611 C   0  0  0  0  0  0  0  0  0  0  0  0
   12.5871   22.5032  -20.3088 C   0  0  0  0  0  0  0  0  0  0  0  0
    8.9897   23.7136  -20.3409 C   0  0  0  0  0  0  0  0  0  0  0  0
    9.8349   14.7268  -15.8871 O   0  0  0  0  0  0  0  0  0  0  0  0
   11.8874   13.9923  -15.0994 O   0  0  0  0  0  0  0  0  0  0  0  0
   10.9445   14.6575  -11.6134 O   0  0  0  0  0  0  0  0  0  0  0  0
    9.0791   12.6678  -12.3229 O   0  0  0  0  0  0  0  0  0  0  0  0
   10.5765   11.4910  -14.4509 O   0  0  0  0  0  0  0  0  0  0  0  0
   10.6373   13.5990  -15.6267 C   0  0  0  0  0  0  0  0  0  0  0  0
    9.8767   12.7307  -14.6319 C   0  0  0  0  0  0  0  0  0  0  0  0
    9.7224   13.4731  -13.3066 C   0  0  0  0  0  0  0  0  0  0  0  0
   11.0894   13.8911  -12.8016 C   0  0  0  0  0  0  0  0  0  0  0  0
   11.8148   14.7183  -13.8560 C   0  0  0  0  0  0  0  0  0  0  0  0
   11.8200   14.9240  -11.2918 H   0  0  0  0  0  0  0  0  0  0  0  0
    8.2044   12.4001  -12.6457 H   0  0  0  0  0  0  0  0  0  0  0  0
   10.6612   11.0398  -15.3053 H   0  0  0  0  0  0  0  0  0  0  0  0
   14.0722   13.8940  -13.5034 O   0  0  0  0  0  0  0  0  0  0  0  0
   13.2330   15.0435  -13.4422 C   0  0  0  0  0  0  0  0  0  0  0  0
   14.9718   14.1357  -13.2328 H   0  0  0  0  0  0  0  0  0  0  0  0
 17 22  1  0  0  0
 17 19  1  0  0  0
 17 20  1  0  0  0
 18 19  1  0  0  0
 18 16  1  0  0  0
 21 20  1  0  0  0
 21 16  1  0  0  0
 16 11  1  0  0  0
 11 10  2  0  0  0
 11 12  1  0  0  0
  8 10  1  0  0  0
  8  3  1  0  0  0
 10 13  1  0  0  0
 12 15  2  0  0  0
 12 13  1  0  0  0
  4  3  2  0  0  0
  4  5  1  0  0  0
  3  1  1  0  0  0
 13 14  2  0  0  0
  5  7  2  0  0  0
  1  2  2  0  0  0
  7  2  1  0  0  0
  7 23  1  0  0  0
  2  6  1  0  0  0
 28 23  1  0  0  0
 28 24  1  0  0  0
 28 29  1  0  0  0
 24 32  1  0  0  0
 27 29  1  0  0  0
 29 30  1  0  0  0
 32 37  1  0  0  0
 32 31  1  0  0  0
 36 37  1  0  0  0
 30 31  1  0  0  0
 30 26  1  0  0  0
 31 25  1  0  0  0
 25 33  1  0  0  0
 26 34  1  0  0  0
 27 35  1  0  0  0
 36 38  1  0  0  0
  8  9  1  0  0  0
M  END
> <minimizedAffinity>
-7.34867

$$$$
