5FDI_5WM_A_302


 20 21  0  0  0  0  0  0  0  0999 V2000
   -4.2741    2.6424   13.1438 C   0  0  0  0  0  0  0  0  0  0  0  0
   -3.7003    1.5891   12.2512 C   0  0  0  0  0  0  0  0  0  0  0  0
   -4.1266    0.2609   12.0180 C   0  0  0  0  0  0  0  0  0  0  0  0
   -3.4129   -0.5672   11.1202 C   0  0  0  0  0  0  0  0  0  0  0  0
   -2.2743   -0.0959   10.4475 C   0  0  0  0  0  0  0  0  0  0  0  0
   -1.8165    1.2349   10.6541 C   0  0  0  0  0  0  0  0  0  0  0  0
   -2.5483    2.0449   11.5565 C   0  0  0  0  0  0  0  0  0  0  0  0
   -3.6069    3.7809   13.1083 C   0  0  0  0  0  0  0  0  0  0  0  0
   -2.2356    3.7143   12.0215 S   0  0  0  0  0  0  0  0  0  0  0  0
   -2.4427    4.5757   10.8811 O   0  0  0  0  0  0  0  0  0  0  0  0
   -0.9892    3.8175   12.7536 O   0  0  0  0  0  0  0  0  0  0  0  0
   -5.4909    2.3680   13.9766 C   0  0  0  0  0  0  0  0  0  0  0  0
   -5.1992    2.3586   15.4739 N   0  0  0  0  0  0  0  0  0  0  0  0
   -6.0900    2.5065   15.9482 H   0  0  0  0  0  0  0  0  0  0  0  0
   -3.1392    1.4226   16.4655 O   0  0  0  0  0  0  0  0  0  0  0  0
   -4.6687   -0.0964   15.2941 O   0  0  0  0  0  0  0  0  0  0  0  0
   -4.4954    1.0223   16.1786 S   0  0  0  0  0  0  0  0  0  0  0  0
   -5.2548    0.7132   17.5199 N   0  0  0  0  0  0  0  0  0  0  0  0
   -5.1433    1.4976   18.1623 H   0  0  0  0  0  0  0  0  0  0  0  0
   -4.8680   -0.1304   17.9430 H   0  0  0  0  0  0  0  0  0  0  0  0
  5  6  2  0  0  0
  5  4  1  0  0  0
  6  7  1  0  0  0
 11  9  2  0  0  0
  4  3  2  0  0  0
  7  9  1  0  0  0
  7  2  2  0  0  0
  3  2  1  0  0  0
  9 10  2  0  0  0
  9  8  1  0  0  0
  2  1  1  0  0  0
  1  8  2  0  0  0
  1 12  1  0  0  0
 12 13  1  0  0  0
 13 17  1  0  0  0
 18 17  1  0  0  0
 15 17  2  0  0  0
 17 16  2  0  0  0
 18 19  1  0  0  0
 18 20  1  0  0  0
 13 14  1  0  0  0
M  END
> <minimizedAffinity>
-7.16405

$$$$
5FDI_5WM_A_302


 20 21  0  0  0  0  0  0  0  0999 V2000
   -4.3197    3.0294   13.6064 C   0  0  0  0  0  0  0  0  0  0  0  0
   -3.1395    3.8860   13.2766 C   0  0  0  0  0  0  0  0  0  0  0  0
   -2.5563    4.9518   14.0005 C   0  0  0  0  0  0  0  0  0  0  0  0
   -1.4292    5.6309   13.4810 C   0  0  0  0  0  0  0  0  0  0  0  0
   -0.8693    5.2680   12.2458 C   0  0  0  0  0  0  0  0  0  0  0  0
   -1.4264    4.1994   11.4900 C   0  0  0  0  0  0  0  0  0  0  0  0
   -2.5535    3.5343   12.0314 C   0  0  0  0  0  0  0  0  0  0  0  0
   -4.5809    2.1191   12.6867 C   0  0  0  0  0  0  0  0  0  0  0  0
   -3.4608    2.1915   11.3426 S   0  0  0  0  0  0  0  0  0  0  0  0
   -2.6237    1.0153   11.3088 O   0  0  0  0  0  0  0  0  0  0  0  0
   -4.1365    2.5993   10.1272 O   0  0  0  0  0  0  0  0  0  0  0  0
   -5.0924    3.2370   14.8750 C   0  0  0  0  0  0  0  0  0  0  0  0
   -5.6398    1.9385   15.4592 N   0  0  0  0  0  0  0  0  0  0  0  0
   -6.0910    1.4384   14.6932 H   0  0  0  0  0  0  0  0  0  0  0  0
   -3.3869    1.5919   16.4117 O   0  0  0  0  0  0  0  0  0  0  0  0
   -4.5264   -0.3185   15.3772 O   0  0  0  0  0  0  0  0  0  0  0  0
   -4.6100    0.8569   16.1990 S   0  0  0  0  0  0  0  0  0  0  0  0
   -5.2336    0.4481   17.5829 N   0  0  0  0  0  0  0  0  0  0  0  0
   -5.3014    1.2711   18.1817 H   0  0  0  0  0  0  0  0  0  0  0  0
   -4.6398   -0.2501   18.0305 H   0  0  0  0  0  0  0  0  0  0  0  0
  5  6  2  0  0  0
  5  4  1  0  0  0
  6  7  1  0  0  0
 11  9  2  0  0  0
  4  3  2  0  0  0
  7  9  1  0  0  0
  7  2  2  0  0  0
  3  2  1  0  0  0
  9 10  2  0  0  0
  9  8  1  0  0  0
  2  1  1  0  0  0
  1  8  2  0  0  0
  1 12  1  0  0  0
 12 13  1  0  0  0
 13 17  1  0  0  0
 18 17  1  0  0  0
 15 17  2  0  0  0
 17 16  2  0  0  0
 18 19  1  0  0  0
 18 20  1  0  0  0
 13 14  1  0  0  0
M  END
> <minimizedAffinity>
-7.08124

$$$$
5FDI_5WM_A_302


 20 21  0  0  0  0  0  0  0  0999 V2000
   -3.7958    1.9804   12.7610 C   0  0  0  0  0  0  0  0  0  0  0  0
   -2.6032    2.4888   12.0164 C   0  0  0  0  0  0  0  0  0  0  0  0
   -1.8335    3.6581   12.2177 C   0  0  0  0  0  0  0  0  0  0  0  0
   -0.7352    3.9403   11.3719 C   0  0  0  0  0  0  0  0  0  0  0  0
   -0.3878    3.0762   10.3214 C   0  0  0  0  0  0  0  0  0  0  0  0
   -1.1364    1.8892   10.0892 C   0  0  0  0  0  0  0  0  0  0  0  0
   -2.2304    1.6279   10.9500 C   0  0  0  0  0  0  0  0  0  0  0  0
   -4.2618    0.8390   12.2892 C   0  0  0  0  0  0  0  0  0  0  0  0
   -3.3391    0.2602   10.9182 S   0  0  0  0  0  0  0  0  0  0  0  0
   -2.6209   -0.9463   11.2559 O   0  0  0  0  0  0  0  0  0  0  0  0
   -4.1400    0.2777    9.7105 O   0  0  0  0  0  0  0  0  0  0  0  0
   -4.3621    2.7425   13.9221 C   0  0  0  0  0  0  0  0  0  0  0  0
   -5.2344    1.8828   14.8315 N   0  0  0  0  0  0  0  0  0  0  0  0
   -5.7170    1.2147   14.2305 H   0  0  0  0  0  0  0  0  0  0  0  0
   -3.2615    1.6311   16.2969 O   0  0  0  0  0  0  0  0  0  0  0  0
   -4.5256   -0.3792   15.6811 O   0  0  0  0  0  0  0  0  0  0  0  0
   -4.5407    1.0047   16.0665 S   0  0  0  0  0  0  0  0  0  0  0  0
   -5.4437    1.1512   17.3449 N   0  0  0  0  0  0  0  0  0  0  0  0
   -5.4670    2.1289   17.6346 H   0  0  0  0  0  0  0  0  0  0  0  0
   -5.0599    0.5821   18.0994 H   0  0  0  0  0  0  0  0  0  0  0  0
  5  6  2  0  0  0
  5  4  1  0  0  0
  6  7  1  0  0  0
 11  9  2  0  0  0
  4  3  2  0  0  0
  7  9  1  0  0  0
  7  2  2  0  0  0
  3  2  1  0  0  0
  9 10  2  0  0  0
  9  8  1  0  0  0
  2  1  1  0  0  0
  1  8  2  0  0  0
  1 12  1  0  0  0
 12 13  1  0  0  0
 13 17  1  0  0  0
 18 17  1  0  0  0
 15 17  2  0  0  0
 17 16  2  0  0  0
 18 19  1  0  0  0
 18 20  1  0  0  0
 13 14  1  0  0  0
M  END
> <minimizedAffinity>
-7.05616

$$$$
5FDI_5WM_A_302


 20 21  0  0  0  0  0  0  0  0999 V2000
   -4.6493    4.2790   14.1447 C   0  0  0  0  0  0  0  0  0  0  0  0
   -5.3758    5.3309   13.3695 C   0  0  0  0  0  0  0  0  0  0  0  0
   -6.7259    5.7459   13.4403 C   0  0  0  0  0  0  0  0  0  0  0  0
   -7.1991    6.7734   12.5909 C   0  0  0  0  0  0  0  0  0  0  0  0
   -6.3487    7.3983   11.6649 C   0  0  0  0  0  0  0  0  0  0  0  0
   -4.9838    7.0101   11.5662 C   0  0  0  0  0  0  0  0  0  0  0  0
   -4.5335    5.9802   12.4279 C   0  0  0  0  0  0  0  0  0  0  0  0
   -3.3777    4.1638   13.8089 C   0  0  0  0  0  0  0  0  0  0  0  0
   -2.9205    5.2831   12.5424 S   0  0  0  0  0  0  0  0  0  0  0  0
   -2.0031    6.2788   13.0446 O   0  0  0  0  0  0  0  0  0  0  0  0
   -2.5803    4.5756   11.3242 O   0  0  0  0  0  0  0  0  0  0  0  0
   -5.3550    3.4649   15.1881 C   0  0  0  0  0  0  0  0  0  0  0  0
   -5.2424    1.9625   14.9494 N   0  0  0  0  0  0  0  0  0  0  0  0
   -4.7191    1.8407   14.0824 H   0  0  0  0  0  0  0  0  0  0  0  0
   -3.2365    1.6040   16.3463 O   0  0  0  0  0  0  0  0  0  0  0  0
   -4.4998   -0.3574   15.5877 O   0  0  0  0  0  0  0  0  0  0  0  0
   -4.5160    0.9884   16.0901 S   0  0  0  0  0  0  0  0  0  0  0  0
   -5.3922    1.0175   17.3951 N   0  0  0  0  0  0  0  0  0  0  0  0
   -5.4159    1.9667   17.7676 H   0  0  0  0  0  0  0  0  0  0  0  0
   -4.9881    0.3895   18.0899 H   0  0  0  0  0  0  0  0  0  0  0  0
  5  6  2  0  0  0
  5  4  1  0  0  0
  6  7  1  0  0  0
 11  9  2  0  0  0
  4  3  2  0  0  0
  7  9  1  0  0  0
  7  2  2  0  0  0
  3  2  1  0  0  0
  9 10  2  0  0  0
  9  8  1  0  0  0
  2  1  1  0  0  0
  1  8  2  0  0  0
  1 12  1  0  0  0
 12 13  1  0  0  0
 13 17  1  0  0  0
 18 17  1  0  0  0
 15 17  2  0  0  0
 17 16  2  0  0  0
 18 19  1  0  0  0
 18 20  1  0  0  0
 13 14  1  0  0  0
M  END
> <minimizedAffinity>
-7.02158

$$$$
5FDI_5WM_A_302


 20 21  0  0  0  0  0  0  0  0999 V2000
   -5.1069    4.0872   14.5450 C   0  0  0  0  0  0  0  0  0  0  0  0
   -5.5768    5.1897   13.6512 C   0  0  0  0  0  0  0  0  0  0  0  0
   -6.8801    5.6940   13.4340 C   0  0  0  0  0  0  0  0  0  0  0  0
   -7.0887    6.7555   12.5224 C   0  0  0  0  0  0  0  0  0  0  0  0
   -6.0177    7.3268   11.8169 C   0  0  0  0  0  0  0  0  0  0  0  0
   -4.6922    6.8484   12.0106 C   0  0  0  0  0  0  0  0  0  0  0  0
   -4.5088    5.7860   12.9291 C   0  0  0  0  0  0  0  0  0  0  0  0
   -3.8028    3.8887   14.4925 C   0  0  0  0  0  0  0  0  0  0  0  0
   -3.0083    4.9816   13.3787 S   0  0  0  0  0  0  0  0  0  0  0  0
   -2.1610    5.9108   14.0887 O   0  0  0  0  0  0  0  0  0  0  0  0
   -2.4558    4.2594   12.2503 O   0  0  0  0  0  0  0  0  0  0  0  0
   -6.0748    3.3168   15.3930 C   0  0  0  0  0  0  0  0  0  0  0  0
   -5.4812    2.0290   15.9555 N   0  0  0  0  0  0  0  0  0  0  0  0
   -4.5410    2.2555   16.2796 H   0  0  0  0  0  0  0  0  0  0  0  0
   -7.6063    1.0646   16.7660 O   0  0  0  0  0  0  0  0  0  0  0  0
   -6.0415    1.9956   18.4102 O   0  0  0  0  0  0  0  0  0  0  0  0
   -6.2434    1.2361   17.2076 S   0  0  0  0  0  0  0  0  0  0  0  0
   -5.5619   -0.1687   17.3908 N   0  0  0  0  0  0  0  0  0  0  0  0
   -5.6947   -0.7239   16.5455 H   0  0  0  0  0  0  0  0  0  0  0  0
   -5.9845   -0.6508   18.1841 H   0  0  0  0  0  0  0  0  0  0  0  0
  5  6  2  0  0  0
  5  4  1  0  0  0
  6  7  1  0  0  0
 11  9  2  0  0  0
  4  3  2  0  0  0
  7  9  1  0  0  0
  7  2  2  0  0  0
  3  2  1  0  0  0
  9 10  2  0  0  0
  9  8  1  0  0  0
  2  1  1  0  0  0
  1  8  2  0  0  0
  1 12  1  0  0  0
 12 13  1  0  0  0
 13 17  1  0  0  0
 18 17  1  0  0  0
 15 17  2  0  0  0
 17 16  2  0  0  0
 18 19  1  0  0  0
 18 20  1  0  0  0
 13 14  1  0  0  0
M  END
> <minimizedAffinity>
-6.86092

$$$$
5FDI_5WM_A_302


 20 21  0  0  0  0  0  0  0  0999 V2000
   -4.1892    2.6403   13.2962 C   0  0  0  0  0  0  0  0  0  0  0  0
   -4.7987    2.1804   14.5816 C   0  0  0  0  0  0  0  0  0  0  0  0
   -4.6224    0.9704   15.2922 C   0  0  0  0  0  0  0  0  0  0  0  0
   -5.3189    0.7498   16.5036 C   0  0  0  0  0  0  0  0  0  0  0  0
   -6.1948    1.7162   17.0232 C   0  0  0  0  0  0  0  0  0  0  0  0
   -6.3961    2.9465   16.3384 C   0  0  0  0  0  0  0  0  0  0  0  0
   -5.6868    3.1445   15.1286 C   0  0  0  0  0  0  0  0  0  0  0  0
   -4.5882    3.8434   12.9270 C   0  0  0  0  0  0  0  0  0  0  0  0
   -5.7249    4.5436   14.0599 S   0  0  0  0  0  0  0  0  0  0  0  0
   -5.1418    5.6786   14.7361 O   0  0  0  0  0  0  0  0  0  0  0  0
   -7.0337    4.6914   13.4555 O   0  0  0  0  0  0  0  0  0  0  0  0
   -3.2260    1.7700   12.5449 C   0  0  0  0  0  0  0  0  0  0  0  0
   -3.8785    0.5172   11.9690 N   0  0  0  0  0  0  0  0  0  0  0  0
   -4.8600    0.7438   11.8086 H   0  0  0  0  0  0  0  0  0  0  0  0
   -3.0735   -1.5401   10.8631 O   0  0  0  0  0  0  0  0  0  0  0  0
   -2.1630    0.6162   10.1284 O   0  0  0  0  0  0  0  0  0  0  0  0
   -3.3016   -0.1492   10.5545 S   0  0  0  0  0  0  0  0  0  0  0  0
   -4.4197   -0.0233    9.4567 N   0  0  0  0  0  0  0  0  0  0  0  0
   -5.2382   -0.5612    9.7418 H   0  0  0  0  0  0  0  0  0  0  0  0
   -4.0678   -0.3841    8.5700 H   0  0  0  0  0  0  0  0  0  0  0  0
  5  6  2  0  0  0
  5  4  1  0  0  0
  6  7  1  0  0  0
 11  9  2  0  0  0
  4  3  2  0  0  0
  7  9  1  0  0  0
  7  2  2  0  0  0
  3  2  1  0  0  0
  9 10  2  0  0  0
  9  8  1  0  0  0
  2  1  1  0  0  0
  1  8  2  0  0  0
  1 12  1  0  0  0
 12 13  1  0  0  0
 13 17  1  0  0  0
 18 17  1  0  0  0
 15 17  2  0  0  0
 17 16  2  0  0  0
 18 19  1  0  0  0
 18 20  1  0  0  0
 13 14  1  0  0  0
M  END
> <minimizedAffinity>
-6.81687

$$$$
5FDI_5WM_A_302


 20 21  0  0  0  0  0  0  0  0999 V2000
   -4.4821    1.2826   13.1010 C   0  0  0  0  0  0  0  0  0  0  0  0
   -4.9870    2.6198   13.5395 C   0  0  0  0  0  0  0  0  0  0  0  0
   -5.3500    3.7525   12.7745 C   0  0  0  0  0  0  0  0  0  0  0  0
   -5.8024    4.9288   13.4171 C   0  0  0  0  0  0  0  0  0  0  0  0
   -5.8990    5.0000   14.8158 C   0  0  0  0  0  0  0  0  0  0  0  0
   -5.5455    3.8804   15.6189 C   0  0  0  0  0  0  0  0  0  0  0  0
   -5.0966    2.7141   14.9525 C   0  0  0  0  0  0  0  0  0  0  0  0
   -4.2439    0.4570   14.1033 C   0  0  0  0  0  0  0  0  0  0  0  0
   -4.5885    1.1832   15.6589 S   0  0  0  0  0  0  0  0  0  0  0  0
   -5.7229    0.5440   16.2832 O   0  0  0  0  0  0  0  0  0  0  0  0
   -3.3741    1.3531   16.4313 O   0  0  0  0  0  0  0  0  0  0  0  0
   -4.2841    0.9722   11.6470 C   0  0  0  0  0  0  0  0  0  0  0  0
   -2.8136    0.8928   11.2491 N   0  0  0  0  0  0  0  0  0  0  0  0
   -2.7572    0.2519   10.4575 H   0  0  0  0  0  0  0  0  0  0  0  0
   -1.0274    1.8385    9.8284 O   0  0  0  0  0  0  0  0  0  0  0  0
   -1.4756    2.8896   11.9993 O   0  0  0  0  0  0  0  0  0  0  0  0
   -1.9925    2.2744   10.8084 S   0  0  0  0  0  0  0  0  0  0  0  0
   -3.0152    3.2667   10.1444 N   0  0  0  0  0  0  0  0  0  0  0  0
   -3.3939    2.8469    9.2954 H   0  0  0  0  0  0  0  0  0  0  0  0
   -2.5400    4.1383    9.9099 H   0  0  0  0  0  0  0  0  0  0  0  0
  5  6  2  0  0  0
  5  4  1  0  0  0
  6  7  1  0  0  0
 11  9  2  0  0  0
  4  3  2  0  0  0
  7  9  1  0  0  0
  7  2  2  0  0  0
  3  2  1  0  0  0
  9 10  2  0  0  0
  9  8  1  0  0  0
  2  1  1  0  0  0
  1  8  2  0  0  0
  1 12  1  0  0  0
 12 13  1  0  0  0
 13 17  1  0  0  0
 18 17  1  0  0  0
 15 17  2  0  0  0
 17 16  2  0  0  0
 18 19  1  0  0  0
 18 20  1  0  0  0
 13 14  1  0  0  0
M  END
> <minimizedAffinity>
-6.69965

$$$$
5FDI_5WM_A_302


 20 21  0  0  0  0  0  0  0  0999 V2000
   -4.0681    2.6568   12.4372 C   0  0  0  0  0  0  0  0  0  0  0  0
   -2.9036    2.6327   11.4998 C   0  0  0  0  0  0  0  0  0  0  0  0
   -1.9293    1.6309   11.2824 C   0  0  0  0  0  0  0  0  0  0  0  0
   -0.9005    1.8342   10.3329 C   0  0  0  0  0  0  0  0  0  0  0  0
   -0.8216    3.0244    9.5925 C   0  0  0  0  0  0  0  0  0  0  0  0
   -1.7848    4.0539    9.7813 C   0  0  0  0  0  0  0  0  0  0  0  0
   -2.8055    3.8265   10.7364 C   0  0  0  0  0  0  0  0  0  0  0  0
   -4.7737    3.7705   12.3691 C   0  0  0  0  0  0  0  0  0  0  0  0
   -4.1260    4.8971   11.1955 S   0  0  0  0  0  0  0  0  0  0  0  0
   -5.0289    5.0499   10.0789 O   0  0  0  0  0  0  0  0  0  0  0  0
   -3.6177    6.0878   11.8467 O   0  0  0  0  0  0  0  0  0  0  0  0
   -4.3518    1.4964   13.3442 C   0  0  0  0  0  0  0  0  0  0  0  0
   -4.8474    1.9238   14.7222 N   0  0  0  0  0  0  0  0  0  0  0  0
   -5.8657    1.9552   14.6718 H   0  0  0  0  0  0  0  0  0  0  0  0
   -3.1470    1.4705   16.4559 O   0  0  0  0  0  0  0  0  0  0  0  0
   -4.5933   -0.3716   15.7257 O   0  0  0  0  0  0  0  0  0  0  0  0
   -4.4603    1.0177   16.0663 S   0  0  0  0  0  0  0  0  0  0  0  0
   -5.4967    1.3490   17.2010 N   0  0  0  0  0  0  0  0  0  0  0  0
   -5.4174    2.3331   17.4570 H   0  0  0  0  0  0  0  0  0  0  0  0
   -5.3040    0.7687   18.0174 H   0  0  0  0  0  0  0  0  0  0  0  0
  5  6  2  0  0  0
  5  4  1  0  0  0
  6  7  1  0  0  0
 11  9  2  0  0  0
  4  3  2  0  0  0
  7  9  1  0  0  0
  7  2  2  0  0  0
  3  2  1  0  0  0
  9 10  2  0  0  0
  9  8  1  0  0  0
  2  1  1  0  0  0
  1  8  2  0  0  0
  1 12  1  0  0  0
 12 13  1  0  0  0
 13 17  1  0  0  0
 18 17  1  0  0  0
 15 17  2  0  0  0
 17 16  2  0  0  0
 18 19  1  0  0  0
 18 20  1  0  0  0
 13 14  1  0  0  0
M  END
> <minimizedAffinity>
-6.50013

$$$$
5FDI_5WM_A_302


 20 21  0  0  0  0  0  0  0  0999 V2000
   -4.2211    4.8227   12.9779 C   0  0  0  0  0  0  0  0  0  0  0  0
   -5.1354    5.7559   12.2510 C   0  0  0  0  0  0  0  0  0  0  0  0
   -6.2127    6.5355   12.7326 C   0  0  0  0  0  0  0  0  0  0  0  0
   -6.9509    7.3530   11.8449 C   0  0  0  0  0  0  0  0  0  0  0  0
   -6.6362    7.4080   10.4778 C   0  0  0  0  0  0  0  0  0  0  0  0
   -5.5580    6.6403    9.9566 C   0  0  0  0  0  0  0  0  0  0  0  0
   -4.8334    5.8307   10.8651 C   0  0  0  0  0  0  0  0  0  0  0  0
   -3.3172    4.2597   12.1976 C   0  0  0  0  0  0  0  0  0  0  0  0
   -3.4644    4.7749   10.5306 S   0  0  0  0  0  0  0  0  0  0  0  0
   -2.3276    5.5746   10.1387 O   0  0  0  0  0  0  0  0  0  0  0  0
   -3.8641    3.6710    9.6810 O   0  0  0  0  0  0  0  0  0  0  0  0
   -4.3705    4.5894   14.4520 C   0  0  0  0  0  0  0  0  0  0  0  0
   -3.5923    3.3736   14.9453 N   0  0  0  0  0  0  0  0  0  0  0  0
   -3.1556    3.6418   15.8272 H   0  0  0  0  0  0  0  0  0  0  0  0
   -4.2461    1.1922   13.9878 O   0  0  0  0  0  0  0  0  0  0  0  0
   -5.7192    2.2273   15.6542 O   0  0  0  0  0  0  0  0  0  0  0  0
   -4.3824    1.9319   15.2190 S   0  0  0  0  0  0  0  0  0  0  0  0
   -3.6412    1.1748   16.3804 N   0  0  0  0  0  0  0  0  0  0  0  0
   -2.6883    0.9560   16.0898 H   0  0  0  0  0  0  0  0  0  0  0  0
   -4.1384    0.3103   16.5943 H   0  0  0  0  0  0  0  0  0  0  0  0
  5  6  2  0  0  0
  5  4  1  0  0  0
  6  7  1  0  0  0
 11  9  2  0  0  0
  4  3  2  0  0  0
  7  9  1  0  0  0
  7  2  2  0  0  0
  3  2  1  0  0  0
  9 10  2  0  0  0
  9  8  1  0  0  0
  2  1  1  0  0  0
  1  8  2  0  0  0
  1 12  1  0  0  0
 12 13  1  0  0  0
 13 17  1  0  0  0
 18 17  1  0  0  0
 15 17  2  0  0  0
 17 16  2  0  0  0
 18 19  1  0  0  0
 18 20  1  0  0  0
 13 14  1  0  0  0
M  END
> <minimizedAffinity>
-6.49152

$$$$
5FDI_5WM_A_302


 20 21  0  0  0  0  0  0  0  0999 V2000
   -4.1607    2.5909   13.1459 C   0  0  0  0  0  0  0  0  0  0  0  0
   -4.7336    2.1255   14.4462 C   0  0  0  0  0  0  0  0  0  0  0  0
   -4.5612    0.9005   15.1316 C   0  0  0  0  0  0  0  0  0  0  0  0
   -5.2178    0.6776   16.3647 C   0  0  0  0  0  0  0  0  0  0  0  0
   -6.0496    1.6566   16.9310 C   0  0  0  0  0  0  0  0  0  0  0  0
   -6.2455    2.9022   16.2726 C   0  0  0  0  0  0  0  0  0  0  0  0
   -5.5767    3.1021   15.0403 C   0  0  0  0  0  0  0  0  0  0  0  0
   -4.5430    3.8089   12.8099 C   0  0  0  0  0  0  0  0  0  0  0  0
   -5.6194    4.5184   13.9948 S   0  0  0  0  0  0  0  0  0  0  0  0
   -4.9838    5.6281   14.6657 O   0  0  0  0  0  0  0  0  0  0  0  0
   -6.9456    4.7075   13.4419 O   0  0  0  0  0  0  0  0  0  0  0  0
   -3.2478    1.7095   12.3463 C   0  0  0  0  0  0  0  0  0  0  0  0
   -1.9177    2.3767   12.0108 N   0  0  0  0  0  0  0  0  0  0  0  0
   -1.1977    1.8764   12.5320 H   0  0  0  0  0  0  0  0  0  0  0  0
   -1.5927    1.1243    9.9063 O   0  0  0  0  0  0  0  0  0  0  0  0
   -0.0566    2.9668   10.4205 O   0  0  0  0  0  0  0  0  0  0  0  0
   -1.3990    2.4551   10.4289 S   0  0  0  0  0  0  0  0  0  0  0  0
   -2.3187    3.4698    9.6568 N   0  0  0  0  0  0  0  0  0  0  0  0
   -3.2780    3.1233    9.6519 H   0  0  0  0  0  0  0  0  0  0  0  0
   -1.9873    3.5667    8.6971 H   0  0  0  0  0  0  0  0  0  0  0  0
  5  6  2  0  0  0
  5  4  1  0  0  0
  6  7  1  0  0  0
 11  9  2  0  0  0
  4  3  2  0  0  0
  7  9  1  0  0  0
  7  2  2  0  0  0
  3  2  1  0  0  0
  9 10  2  0  0  0
  9  8  1  0  0  0
  2  1  1  0  0  0
  1  8  2  0  0  0
  1 12  1  0  0  0
 12 13  1  0  0  0
 13 17  1  0  0  0
 18 17  1  0  0  0
 15 17  2  0  0  0
 17 16  2  0  0  0
 18 19  1  0  0  0
 18 20  1  0  0  0
 13 14  1  0  0  0
M  END
> <minimizedAffinity>
-6.35252

$$$$
