1BWA_XV6_B_638


 58 64  0  0  0  0  0  0  0  0999 V2000
   -8.2593   14.3108   28.1515 O   0  0  0  0  0  0  0  0  0  0  0  0
  -10.0051   19.6772   27.1529 O   0  0  0  0  0  0  0  0  0  0  0  0
  -11.9991   18.5934   28.7808 O   0  0  0  0  0  0  0  0  0  0  0  0
   -8.5190   16.3009   27.1497 N   0  0  0  0  0  0  0  0  0  0  0  0
   -9.8058   15.6292   29.0346 N   0  0  0  0  0  0  0  0  0  0  0  0
   -8.8427   15.3958   28.1136 C   0  0  0  0  0  0  0  0  0  0  0  0
   -8.6951   17.7594   27.2383 C   0  0  0  0  0  0  0  0  0  0  0  0
  -10.1064   18.2945   27.3315 C   0  0  0  0  0  0  0  0  0  0  0  0
  -10.7302   17.9984   28.6734 C   0  0  0  0  0  0  0  0  0  0  0  0
  -10.9735   16.5180   28.8366 C   0  0  0  0  0  0  0  0  0  0  0  0
   -9.6038   19.8632   26.2896 H   0  0  0  0  0  0  0  0  0  0  0  0
  -11.9146   19.5549   28.6841 H   0  0  0  0  0  0  0  0  0  0  0  0
   -7.7309   15.8153   26.0212 C   0  0  0  0  0  0  0  0  0  0  0  0
   -8.2509   16.1075   24.6440 C   0  0  0  0  0  0  0  0  0  0  0  0
   -7.4490   16.8678   23.7889 C   0  0  0  0  0  0  0  0  0  0  0  0
   -7.8814   17.1000   22.4761 C   0  0  0  0  0  0  0  0  0  0  0  0
   -9.1116   16.5903   22.0194 C   0  0  0  0  0  0  0  0  0  0  0  0
   -9.9220   15.8283   22.8832 C   0  0  0  0  0  0  0  0  0  0  0  0
   -9.4880   15.5869   24.2001 C   0  0  0  0  0  0  0  0  0  0  0  0
   -7.0000   17.8167   21.5094 C   0  0  0  0  0  0  0  0  0  0  0  0
   -6.7197   19.0018   21.5910 O   0  0  0  0  0  0  0  0  0  0  0  0
   -6.5873   17.0521   20.4928 N   0  0  0  0  0  0  0  0  0  0  0  0
   -6.8162   16.0949   20.4695 H   0  0  0  0  0  0  0  0  0  0  0  0
   -6.2848   18.1095   18.2594 N   0  0  0  0  0  0  0  0  0  0  0  0
   -5.7992   17.6404   19.4224 C   0  0  0  0  0  0  0  0  0  0  0  0
   -5.3007   18.6082   17.4421 C   0  0  0  0  0  0  0  0  0  0  0  0
   -4.1243   17.8188   19.4859 S   0  0  0  0  0  0  0  0  0  0  0  0
   -3.9919   18.5362   17.9632 C   0  0  0  0  0  0  0  0  0  0  0  0
   -9.8717   14.7546   30.2087 C   0  0  0  0  0  0  0  0  0  0  0  0
   -9.7738   15.4216   31.5563 C   0  0  0  0  0  0  0  0  0  0  0  0
  -10.6650   15.0007   32.5452 C   0  0  0  0  0  0  0  0  0  0  0  0
  -10.5937   15.5795   33.8271 C   0  0  0  0  0  0  0  0  0  0  0  0
   -9.6338   16.5603   34.1230 C   0  0  0  0  0  0  0  0  0  0  0  0
   -8.7319   16.9713   33.1226 C   0  0  0  0  0  0  0  0  0  0  0  0
   -8.8037   16.4090   31.8364 C   0  0  0  0  0  0  0  0  0  0  0  0
  -11.5602   15.1496   34.8707 C   0  0  0  0  0  0  0  0  0  0  0  0
  -11.8392   15.8129   35.8577 O   0  0  0  0  0  0  0  0  0  0  0  0
  -12.0837   13.9378   34.6072 N   0  0  0  0  0  0  0  0  0  0  0  0
  -11.8513   13.5195   33.7469 H   0  0  0  0  0  0  0  0  0  0  0  0
  -14.2643   12.9555   35.2138 N   0  0  0  0  0  0  0  0  0  0  0  0
  -12.9726   13.1941   35.5026 C   0  0  0  0  0  0  0  0  0  0  0  0
  -14.8585   12.1424   36.1523 C   0  0  0  0  0  0  0  0  0  0  0  0
  -12.5092   12.4020   36.9444 S   0  0  0  0  0  0  0  0  0  0  0  0
  -14.0289   11.7199   37.2155 C   0  0  0  0  0  0  0  0  0  0  0  0
   -7.7026   18.3395   28.2773 C   0  0  0  0  0  0  0  0  0  0  0  0
   -6.3565   18.6298   27.6603 C   0  0  0  0  0  0  0  0  0  0  0  0
   -5.1739   18.1481   28.2782 C   0  0  0  0  0  0  0  0  0  0  0  0
   -3.9313   18.3101   27.6275 C   0  0  0  0  0  0  0  0  0  0  0  0
   -3.8645   18.9533   26.3683 C   0  0  0  0  0  0  0  0  0  0  0  0
   -5.0444   19.4455   25.7622 C   0  0  0  0  0  0  0  0  0  0  0  0
   -6.2932   19.2908   26.4096 C   0  0  0  0  0  0  0  0  0  0  0  0
  -11.9312   15.8933   27.7870 C   0  0  0  0  0  0  0  0  0  0  0  0
  -12.7200   14.7049   28.2966 C   0  0  0  0  0  0  0  0  0  0  0  0
  -13.7846   14.9120   29.2115 C   0  0  0  0  0  0  0  0  0  0  0  0
  -14.5419   13.8123   29.6576 C   0  0  0  0  0  0  0  0  0  0  0  0
  -14.2247   12.5124   29.1902 C   0  0  0  0  0  0  0  0  0  0  0  0
  -13.1614   12.3039   28.2843 C   0  0  0  0  0  0  0  0  0  0  0  0
  -12.4053   13.4094   27.8345 C   0  0  0  0  0  0  0  0  0  0  0  0
  1  6  2  0  0  0
  2  8  1  0  0  0
  3  9  1  0  0  0
  4  6  1  0  0  0
  4 13  1  0  0  0
  4  7  1  0  0  0
  5  6  1  0  0  0
  5 10  1  0  0  0
  5 29  1  0  0  0
 13 14  1  0  0  0
  7  8  1  0  0  0
  7 45  1  0  0  0
  8  9  1  0  0  0
  9 10  1  0  0  0
 10 52  1  0  0  0
 29 30  1  0  0  0
 45 46  1  0  0  0
 46 47  2  0  0  0
 46 51  1  0  0  0
 47 48  1  0  0  0
 48 49  2  0  0  0
 49 50  1  0  0  0
 50 51  2  0  0  0
 52 53  1  0  0  0
 53 54  2  0  0  0
 53 58  1  0  0  0
 54 55  1  0  0  0
 55 56  2  0  0  0
 56 57  1  0  0  0
 57 58  2  0  0  0
 14 15  2  0  0  0
 14 19  1  0  0  0
 15 16  1  0  0  0
 16 17  2  0  0  0
 16 20  1  0  0  0
 17 18  1  0  0  0
 18 19  2  0  0  0
 20 21  2  0  0  0
 20 22  1  0  0  0
 22 25  1  0  0  0
 24 25  2  0  0  0
 24 26  1  0  0  0
 25 27  1  0  0  0
 26 28  2  0  0  0
 27 28  1  0  0  0
 30 31  2  0  0  0
 30 35  1  0  0  0
 31 32  1  0  0  0
 32 33  2  0  0  0
 32 36  1  0  0  0
 33 34  1  0  0  0
 34 35  2  0  0  0
 36 37  2  0  0  0
 36 38  1  0  0  0
 38 41  1  0  0  0
 40 41  2  0  0  0
 40 42  1  0  0  0
 41 43  1  0  0  0
 42 44  2  0  0  0
 43 44  1  0  0  0
  2 11  1  0  0  0
  3 12  1  0  0  0
 22 23  1  0  0  0
 38 39  1  0  0  0
M  END
> <minimizedAffinity>
-13.58556

$$$$
1BWA_XV6_B_638


 58 64  0  0  0  0  0  0  0  0999 V2000
   -8.0731   14.1458   27.5921 O   0  0  0  0  0  0  0  0  0  0  0  0
   -9.4517   19.6960   27.2213 O   0  0  0  0  0  0  0  0  0  0  0  0
  -11.5765   18.5484   28.6244 O   0  0  0  0  0  0  0  0  0  0  0  0
   -8.1697   16.2579   26.8428 N   0  0  0  0  0  0  0  0  0  0  0  0
   -9.5763   15.4407   28.5789 N   0  0  0  0  0  0  0  0  0  0  0  0
   -8.5889   15.2623   27.6713 C   0  0  0  0  0  0  0  0  0  0  0  0
   -8.2628   17.7022   27.1098 C   0  0  0  0  0  0  0  0  0  0  0  0
   -9.6425   18.3112   27.2187 C   0  0  0  0  0  0  0  0  0  0  0  0
  -10.3416   17.8910   28.4885 C   0  0  0  0  0  0  0  0  0  0  0  0
  -10.6793   16.4205   28.4531 C   0  0  0  0  0  0  0  0  0  0  0  0
   -9.0023   19.9620   26.4039 H   0  0  0  0  0  0  0  0  0  0  0  0
  -11.4309   19.5070   28.6539 H   0  0  0  0  0  0  0  0  0  0  0  0
   -7.3627   15.8670   25.6912 C   0  0  0  0  0  0  0  0  0  0  0  0
   -7.3403   16.8033   24.5185 C   0  0  0  0  0  0  0  0  0  0  0  0
   -6.2090   17.6040   24.3413 C   0  0  0  0  0  0  0  0  0  0  0  0
   -6.1344   18.4393   23.2184 C   0  0  0  0  0  0  0  0  0  0  0  0
   -7.1852   18.4888   22.2830 C   0  0  0  0  0  0  0  0  0  0  0  0
   -8.3276   17.6854   22.4647 C   0  0  0  0  0  0  0  0  0  0  0  0
   -8.4033   16.8399   23.5873 C   0  0  0  0  0  0  0  0  0  0  0  0
   -4.8960   19.2252   22.9464 C   0  0  0  0  0  0  0  0  0  0  0  0
   -4.8236   20.4397   23.0437 O   0  0  0  0  0  0  0  0  0  0  0  0
   -3.8720   18.4794   22.5182 N   0  0  0  0  0  0  0  0  0  0  0  0
   -3.9597   17.4999   22.4707 H   0  0  0  0  0  0  0  0  0  0  0  0
   -2.5092   20.1011   21.2103 N   0  0  0  0  0  0  0  0  0  0  0  0
   -2.6288   19.1209   22.1231 C   0  0  0  0  0  0  0  0  0  0  0  0
   -1.2091   20.5112   21.0470 C   0  0  0  0  0  0  0  0  0  0  0  0
   -1.1240   18.7153   22.7650 S   0  0  0  0  0  0  0  0  0  0  0  0
   -0.2617   19.8417   21.8494 C   0  0  0  0  0  0  0  0  0  0  0  0
   -9.7458   14.4326   29.6290 C   0  0  0  0  0  0  0  0  0  0  0  0
  -10.4633   14.8712   30.8793 C   0  0  0  0  0  0  0  0  0  0  0  0
  -11.6947   14.2733   31.1540 C   0  0  0  0  0  0  0  0  0  0  0  0
  -12.3893   14.6352   32.3244 C   0  0  0  0  0  0  0  0  0  0  0  0
  -11.8542   15.5758   33.2187 C   0  0  0  0  0  0  0  0  0  0  0  0
  -10.6065   16.1660   32.9393 C   0  0  0  0  0  0  0  0  0  0  0  0
   -9.9118   15.8211   31.7670 C   0  0  0  0  0  0  0  0  0  0  0  0
  -13.7122   14.0178   32.6017 C   0  0  0  0  0  0  0  0  0  0  0  0
  -14.6166   14.5808   33.1993 O   0  0  0  0  0  0  0  0  0  0  0  0
  -13.7933   12.7606   32.1275 N   0  0  0  0  0  0  0  0  0  0  0  0
  -13.0366   12.4265   31.5936 H   0  0  0  0  0  0  0  0  0  0  0  0
  -15.1434   11.2347   33.5191 N   0  0  0  0  0  0  0  0  0  0  0  0
  -14.9210   11.8519   32.3451 C   0  0  0  0  0  0  0  0  0  0  0  0
  -16.3233   10.5257   33.5110 C   0  0  0  0  0  0  0  0  0  0  0  0
  -16.1865   11.5420   31.2390 S   0  0  0  0  0  0  0  0  0  0  0  0
  -17.0629   10.5737   32.3078 C   0  0  0  0  0  0  0  0  0  0  0  0
   -7.2845   18.0831   28.2496 C   0  0  0  0  0  0  0  0  0  0  0  0
   -5.9432   18.5165   27.7110 C   0  0  0  0  0  0  0  0  0  0  0  0
   -4.8502   17.6123   27.7175 C   0  0  0  0  0  0  0  0  0  0  0  0
   -3.6377   17.9792   27.0938 C   0  0  0  0  0  0  0  0  0  0  0  0
   -3.5113   19.2434   26.4695 C   0  0  0  0  0  0  0  0  0  0  0  0
   -4.5990   20.1482   26.4780 C   0  0  0  0  0  0  0  0  0  0  0  0
   -5.8162   19.7897   27.1046 C   0  0  0  0  0  0  0  0  0  0  0  0
  -11.6249   15.9946   27.2984 C   0  0  0  0  0  0  0  0  0  0  0  0
  -12.6679   14.9708   27.6963 C   0  0  0  0  0  0  0  0  0  0  0  0
  -13.8185   15.3870   28.4148 C   0  0  0  0  0  0  0  0  0  0  0  0
  -14.8062   14.4427   28.7533 C   0  0  0  0  0  0  0  0  0  0  0  0
  -14.6327   13.0874   28.3761 C   0  0  0  0  0  0  0  0  0  0  0  0
  -13.4850   12.6706   27.6663 C   0  0  0  0  0  0  0  0  0  0  0  0
  -12.4970   13.6206   27.3238 C   0  0  0  0  0  0  0  0  0  0  0  0
  1  6  2  0  0  0
  2  8  1  0  0  0
  3  9  1  0  0  0
  4  6  1  0  0  0
  4 13  1  0  0  0
  4  7  1  0  0  0
  5  6  1  0  0  0
  5 10  1  0  0  0
  5 29  1  0  0  0
 13 14  1  0  0  0
  7  8  1  0  0  0
  7 45  1  0  0  0
  8  9  1  0  0  0
  9 10  1  0  0  0
 10 52  1  0  0  0
 29 30  1  0  0  0
 45 46  1  0  0  0
 46 47  2  0  0  0
 46 51  1  0  0  0
 47 48  1  0  0  0
 48 49  2  0  0  0
 49 50  1  0  0  0
 50 51  2  0  0  0
 52 53  1  0  0  0
 53 54  2  0  0  0
 53 58  1  0  0  0
 54 55  1  0  0  0
 55 56  2  0  0  0
 56 57  1  0  0  0
 57 58  2  0  0  0
 14 15  2  0  0  0
 14 19  1  0  0  0
 15 16  1  0  0  0
 16 17  2  0  0  0
 16 20  1  0  0  0
 17 18  1  0  0  0
 18 19  2  0  0  0
 20 21  2  0  0  0
 20 22  1  0  0  0
 22 25  1  0  0  0
 24 25  2  0  0  0
 24 26  1  0  0  0
 25 27  1  0  0  0
 26 28  2  0  0  0
 27 28  1  0  0  0
 30 31  2  0  0  0
 30 35  1  0  0  0
 31 32  1  0  0  0
 32 33  2  0  0  0
 32 36  1  0  0  0
 33 34  1  0  0  0
 34 35  2  0  0  0
 36 37  2  0  0  0
 36 38  1  0  0  0
 38 41  1  0  0  0
 40 41  2  0  0  0
 40 42  1  0  0  0
 41 43  1  0  0  0
 42 44  2  0  0  0
 43 44  1  0  0  0
  2 11  1  0  0  0
  3 12  1  0  0  0
 22 23  1  0  0  0
 38 39  1  0  0  0
M  END
> <minimizedAffinity>
-11.86511

$$$$
1BWA_XV6_B_638


 58 64  0  0  0  0  0  0  0  0999 V2000
  -11.8523   18.2978   28.6308 O   0  0  0  0  0  0  0  0  0  0  0  0
   -7.8531   14.2510   27.9424 O   0  0  0  0  0  0  0  0  0  0  0  0
   -8.9739   13.6973   30.4399 O   0  0  0  0  0  0  0  0  0  0  0  0
  -10.0000   17.2508   27.9206 N   0  0  0  0  0  0  0  0  0  0  0  0
  -11.3792   16.3927   29.6589 N   0  0  0  0  0  0  0  0  0  0  0  0
  -11.0937   17.3312   28.7272 C   0  0  0  0  0  0  0  0  0  0  0  0
   -9.3075   16.0145   27.5228 C   0  0  0  0  0  0  0  0  0  0  0  0
   -8.6253   15.2092   28.6056 C   0  0  0  0  0  0  0  0  0  0  0  0
   -9.6231   14.5243   29.5071 C   0  0  0  0  0  0  0  0  0  0  0  0
  -10.3796   15.5345   30.3347 C   0  0  0  0  0  0  0  0  0  0  0  0
   -7.2133   14.6951   27.3642 H   0  0  0  0  0  0  0  0  0  0  0  0
   -8.4640   13.0186   29.9705 H   0  0  0  0  0  0  0  0  0  0  0  0
   -9.6073   18.4649   27.2121 C   0  0  0  0  0  0  0  0  0  0  0  0
   -8.1622   18.6004   26.8301 C   0  0  0  0  0  0  0  0  0  0  0  0
   -7.8423   18.6084   25.4700 C   0  0  0  0  0  0  0  0  0  0  0  0
   -6.5084   18.7992   25.0848 C   0  0  0  0  0  0  0  0  0  0  0  0
   -5.4949   18.9675   26.0471 C   0  0  0  0  0  0  0  0  0  0  0  0
   -5.8170   18.9542   27.4182 C   0  0  0  0  0  0  0  0  0  0  0  0
   -7.1565   18.7700   27.8090 C   0  0  0  0  0  0  0  0  0  0  0  0
   -6.1520   18.9185   23.6412 C   0  0  0  0  0  0  0  0  0  0  0  0
   -5.6739   19.9221   23.1373 O   0  0  0  0  0  0  0  0  0  0  0  0
   -6.4651   17.8359   22.9212 N   0  0  0  0  0  0  0  0  0  0  0  0
   -6.8312   17.0366   23.3642 H   0  0  0  0  0  0  0  0  0  0  0  0
   -7.2227   18.0220   20.5571 N   0  0  0  0  0  0  0  0  0  0  0  0
   -6.2626   17.8444   21.4818 C   0  0  0  0  0  0  0  0  0  0  0  0
   -6.7317   17.9816   19.2755 C   0  0  0  0  0  0  0  0  0  0  0  0
   -4.7608   17.6237   20.7491 S   0  0  0  0  0  0  0  0  0  0  0  0
   -5.3419   17.7651   19.1702 C   0  0  0  0  0  0  0  0  0  0  0  0
  -12.7182   16.3893   30.2547 C   0  0  0  0  0  0  0  0  0  0  0  0
  -13.5391   15.1396   30.0683 C   0  0  0  0  0  0  0  0  0  0  0  0
  -13.6850   14.2987   31.1732 C   0  0  0  0  0  0  0  0  0  0  0  0
  -14.4638   13.1316   31.0515 C   0  0  0  0  0  0  0  0  0  0  0  0
  -15.1014   12.8131   29.8420 C   0  0  0  0  0  0  0  0  0  0  0  0
  -14.9576   13.6724   28.7356 C   0  0  0  0  0  0  0  0  0  0  0  0
  -14.1715   14.8327   28.8434 C   0  0  0  0  0  0  0  0  0  0  0  0
  -14.5963   12.2240   32.2206 C   0  0  0  0  0  0  0  0  0  0  0  0
  -15.6604   11.7786   32.6220 O   0  0  0  0  0  0  0  0  0  0  0  0
  -13.4070   11.9595   32.7931 N   0  0  0  0  0  0  0  0  0  0  0  0
  -12.6007   12.3060   32.3471 H   0  0  0  0  0  0  0  0  0  0  0  0
  -13.1717    9.8519   34.0543 N   0  0  0  0  0  0  0  0  0  0  0  0
  -13.2210   11.1957   34.0288 C   0  0  0  0  0  0  0  0  0  0  0  0
  -12.8759    9.3728   35.3104 C   0  0  0  0  0  0  0  0  0  0  0  0
  -12.8983   11.8516   35.5737 S   0  0  0  0  0  0  0  0  0  0  0  0
  -12.6841   10.3498   36.3134 C   0  0  0  0  0  0  0  0  0  0  0  0
  -10.2136   15.1968   26.5679 C   0  0  0  0  0  0  0  0  0  0  0  0
   -9.8951   15.4787   25.1201 C   0  0  0  0  0  0  0  0  0  0  0  0
   -8.6797   15.0118   24.5571 C   0  0  0  0  0  0  0  0  0  0  0  0
   -8.4484   15.1645   23.1725 C   0  0  0  0  0  0  0  0  0  0  0  0
   -9.4210   15.7838   22.3514 C   0  0  0  0  0  0  0  0  0  0  0  0
  -10.6256   16.2613   22.9193 C   0  0  0  0  0  0  0  0  0  0  0  0
  -10.8633   16.1159   24.3068 C   0  0  0  0  0  0  0  0  0  0  0  0
   -9.4988   16.4013   31.2736 C   0  0  0  0  0  0  0  0  0  0  0  0
   -9.7834   16.2040   32.7482 C   0  0  0  0  0  0  0  0  0  0  0  0
  -10.7771   15.2748   33.1509 C   0  0  0  0  0  0  0  0  0  0  0  0
  -11.0171   15.0637   34.5219 C   0  0  0  0  0  0  0  0  0  0  0  0
  -10.2655   15.7887   35.4804 C   0  0  0  0  0  0  0  0  0  0  0  0
   -9.2804   16.7186   35.0810 C   0  0  0  0  0  0  0  0  0  0  0  0
   -9.0381   16.9257   33.7046 C   0  0  0  0  0  0  0  0  0  0  0  0
  1  6  2  0  0  0
  2  8  1  0  0  0
  3  9  1  0  0  0
  4  6  1  0  0  0
  4 13  1  0  0  0
  4  7  1  0  0  0
  5  6  1  0  0  0
  5 10  1  0  0  0
  5 29  1  0  0  0
 13 14  1  0  0  0
  7  8  1  0  0  0
  7 45  1  0  0  0
  8  9  1  0  0  0
  9 10  1  0  0  0
 10 52  1  0  0  0
 29 30  1  0  0  0
 45 46  1  0  0  0
 46 47  2  0  0  0
 46 51  1  0  0  0
 47 48  1  0  0  0
 48 49  2  0  0  0
 49 50  1  0  0  0
 50 51  2  0  0  0
 52 53  1  0  0  0
 53 54  2  0  0  0
 53 58  1  0  0  0
 54 55  1  0  0  0
 55 56  2  0  0  0
 56 57  1  0  0  0
 57 58  2  0  0  0
 14 15  2  0  0  0
 14 19  1  0  0  0
 15 16  1  0  0  0
 16 17  2  0  0  0
 16 20  1  0  0  0
 17 18  1  0  0  0
 18 19  2  0  0  0
 20 21  2  0  0  0
 20 22  1  0  0  0
 22 25  1  0  0  0
 24 25  2  0  0  0
 24 26  1  0  0  0
 25 27  1  0  0  0
 26 28  2  0  0  0
 27 28  1  0  0  0
 30 31  2  0  0  0
 30 35  1  0  0  0
 31 32  1  0  0  0
 32 33  2  0  0  0
 32 36  1  0  0  0
 33 34  1  0  0  0
 34 35  2  0  0  0
 36 37  2  0  0  0
 36 38  1  0  0  0
 38 41  1  0  0  0
 40 41  2  0  0  0
 40 42  1  0  0  0
 41 43  1  0  0  0
 42 44  2  0  0  0
 43 44  1  0  0  0
  2 11  1  0  0  0
  3 12  1  0  0  0
 22 23  1  0  0  0
 38 39  1  0  0  0
M  END
> <minimizedAffinity>
-10.93974

$$$$
1BWA_XV6_B_638


 58 64  0  0  0  0  0  0  0  0999 V2000
  -11.8717   18.3048   28.6171 O   0  0  0  0  0  0  0  0  0  0  0  0
   -8.8597   13.7688   30.4048 O   0  0  0  0  0  0  0  0  0  0  0  0
   -7.8003   14.3533   27.8875 O   0  0  0  0  0  0  0  0  0  0  0  0
  -11.3249   16.4234   29.7093 N   0  0  0  0  0  0  0  0  0  0  0  0
  -10.0030   17.3208   27.9465 N   0  0  0  0  0  0  0  0  0  0  0  0
  -11.0811   17.3705   28.7624 C   0  0  0  0  0  0  0  0  0  0  0  0
  -10.3153   15.5802   30.3695 C   0  0  0  0  0  0  0  0  0  0  0  0
   -9.5521   14.5942   29.5140 C   0  0  0  0  0  0  0  0  0  0  0  0
   -8.5744   15.2876   28.5972 C   0  0  0  0  0  0  0  0  0  0  0  0
   -9.3016   16.0818   27.5398 C   0  0  0  0  0  0  0  0  0  0  0  0
   -9.4915   13.3251   30.9921 H   0  0  0  0  0  0  0  0  0  0  0  0
   -7.3021   13.8045   28.5132 H   0  0  0  0  0  0  0  0  0  0  0  0
  -12.6675   16.3865   30.2806 C   0  0  0  0  0  0  0  0  0  0  0  0
  -13.4151   15.0879   30.1947 C   0  0  0  0  0  0  0  0  0  0  0  0
  -13.3845   14.2400   31.3048 C   0  0  0  0  0  0  0  0  0  0  0  0
  -14.1273   13.0518   31.2755 C   0  0  0  0  0  0  0  0  0  0  0  0
  -14.8860   12.7013   30.1428 C   0  0  0  0  0  0  0  0  0  0  0  0
  -14.9124   13.5537   29.0219 C   0  0  0  0  0  0  0  0  0  0  0  0
  -14.1736   14.7513   29.0502 C   0  0  0  0  0  0  0  0  0  0  0  0
  -14.1994   12.1797   32.4835 C   0  0  0  0  0  0  0  0  0  0  0  0
  -15.2197   11.9846   33.1242 O   0  0  0  0  0  0  0  0  0  0  0  0
  -13.0173   11.6716   32.8482 N   0  0  0  0  0  0  0  0  0  0  0  0
  -12.2182   11.8335   32.2965 H   0  0  0  0  0  0  0  0  0  0  0  0
  -12.5799   11.3472   35.2775 N   0  0  0  0  0  0  0  0  0  0  0  0
  -12.9174   10.8792   34.0628 C   0  0  0  0  0  0  0  0  0  0  0  0
  -12.5697   10.3635   36.2353 C   0  0  0  0  0  0  0  0  0  0  0  0
  -13.2132    9.2209   34.1224 S   0  0  0  0  0  0  0  0  0  0  0  0
  -12.9071    9.0732   35.7762 C   0  0  0  0  0  0  0  0  0  0  0  0
   -9.6505   18.5229   27.1860 C   0  0  0  0  0  0  0  0  0  0  0  0
   -8.1874   18.7357   26.8954 C   0  0  0  0  0  0  0  0  0  0  0  0
   -7.7266   18.3709   25.6290 C   0  0  0  0  0  0  0  0  0  0  0  0
   -6.3712   18.5743   25.3052 C   0  0  0  0  0  0  0  0  0  0  0  0
   -5.4866   19.1479   26.2323 C   0  0  0  0  0  0  0  0  0  0  0  0
   -5.9623   19.5227   27.5037 C   0  0  0  0  0  0  0  0  0  0  0  0
   -7.3104   19.3116   27.8408 C   0  0  0  0  0  0  0  0  0  0  0  0
   -5.8764   18.1610   23.9664 C   0  0  0  0  0  0  0  0  0  0  0  0
   -4.7318   17.7970   23.7439 O   0  0  0  0  0  0  0  0  0  0  0  0
   -6.8343   18.2459   23.0245 N   0  0  0  0  0  0  0  0  0  0  0  0
   -7.7442   18.4769   23.3211 H   0  0  0  0  0  0  0  0  0  0  0  0
   -7.6143   18.1317   20.6865 N   0  0  0  0  0  0  0  0  0  0  0  0
   -6.6265   18.0209   21.5924 C   0  0  0  0  0  0  0  0  0  0  0  0
   -7.1491   17.9862   19.3991 C   0  0  0  0  0  0  0  0  0  0  0  0
   -5.1236   17.7352   20.8303 S   0  0  0  0  0  0  0  0  0  0  0  0
   -5.7613   17.7538   19.2679 C   0  0  0  0  0  0  0  0  0  0  0  0
   -9.4410   16.4535   31.3044 C   0  0  0  0  0  0  0  0  0  0  0  0
   -9.6881   16.1332   32.7581 C   0  0  0  0  0  0  0  0  0  0  0  0
   -9.0371   16.8838   33.7706 C   0  0  0  0  0  0  0  0  0  0  0  0
   -9.3726   16.6662   35.1249 C   0  0  0  0  0  0  0  0  0  0  0  0
  -10.3492   15.7018   35.4712 C   0  0  0  0  0  0  0  0  0  0  0  0
  -10.9856   14.9448   34.4593 C   0  0  0  0  0  0  0  0  0  0  0  0
  -10.6520   15.1540   33.1000 C   0  0  0  0  0  0  0  0  0  0  0  0
  -10.2202   15.2447   26.6100 C   0  0  0  0  0  0  0  0  0  0  0  0
   -9.9501   15.4393   25.1323 C   0  0  0  0  0  0  0  0  0  0  0  0
   -8.7248   14.9854   24.5793 C   0  0  0  0  0  0  0  0  0  0  0  0
   -8.4878   15.1326   23.1995 C   0  0  0  0  0  0  0  0  0  0  0  0
   -9.4758   15.7388   22.3837 C   0  0  0  0  0  0  0  0  0  0  0  0
  -10.6933   16.1968   22.9338 C   0  0  0  0  0  0  0  0  0  0  0  0
  -10.9310   16.0441   24.3181 C   0  0  0  0  0  0  0  0  0  0  0  0
  1  6  2  0  0  0
  2  8  1  0  0  0
  3  9  1  0  0  0
  4  6  1  0  0  0
  4 13  1  0  0  0
  4  7  1  0  0  0
  5  6  1  0  0  0
  5 10  1  0  0  0
  5 29  1  0  0  0
 13 14  1  0  0  0
  7  8  1  0  0  0
  7 45  1  0  0  0
  8  9  1  0  0  0
  9 10  1  0  0  0
 10 52  1  0  0  0
 29 30  1  0  0  0
 45 46  1  0  0  0
 46 47  2  0  0  0
 46 51  1  0  0  0
 47 48  1  0  0  0
 48 49  2  0  0  0
 49 50  1  0  0  0
 50 51  2  0  0  0
 52 53  1  0  0  0
 53 54  2  0  0  0
 53 58  1  0  0  0
 54 55  1  0  0  0
 55 56  2  0  0  0
 56 57  1  0  0  0
 57 58  2  0  0  0
 14 15  2  0  0  0
 14 19  1  0  0  0
 15 16  1  0  0  0
 16 17  2  0  0  0
 16 20  1  0  0  0
 17 18  1  0  0  0
 18 19  2  0  0  0
 20 21  2  0  0  0
 20 22  1  0  0  0
 22 25  1  0  0  0
 24 25  2  0  0  0
 24 26  1  0  0  0
 25 27  1  0  0  0
 26 28  2  0  0  0
 27 28  1  0  0  0
 30 31  2  0  0  0
 30 35  1  0  0  0
 31 32  1  0  0  0
 32 33  2  0  0  0
 32 36  1  0  0  0
 33 34  1  0  0  0
 34 35  2  0  0  0
 36 37  2  0  0  0
 36 38  1  0  0  0
 38 41  1  0  0  0
 40 41  2  0  0  0
 40 42  1  0  0  0
 41 43  1  0  0  0
 42 44  2  0  0  0
 43 44  1  0  0  0
  2 11  1  0  0  0
  3 12  1  0  0  0
 22 23  1  0  0  0
 38 39  1  0  0  0
M  END
> <minimizedAffinity>
-10.91675

$$$$
1BWA_XV6_B_638


 58 64  0  0  0  0  0  0  0  0999 V2000
   -9.8140   19.4427   27.1700 O   0  0  0  0  0  0  0  0  0  0  0  0
   -8.5709   13.8607   27.5443 O   0  0  0  0  0  0  0  0  0  0  0  0
   -7.5440   14.6327   25.0643 O   0  0  0  0  0  0  0  0  0  0  0  0
   -9.9259   17.2842   27.7704 N   0  0  0  0  0  0  0  0  0  0  0  0
   -8.4893   18.0689   26.0439 N   0  0  0  0  0  0  0  0  0  0  0  0
   -9.4152   18.2881   27.0057 C   0  0  0  0  0  0  0  0  0  0  0  0
   -9.2557   16.0135   28.0899 C   0  0  0  0  0  0  0  0  0  0  0  0
   -8.9692   15.0618   26.9503 C   0  0  0  0  0  0  0  0  0  0  0  0
   -7.8694   15.5762   26.0540 C   0  0  0  0  0  0  0  0  0  0  0  0
   -8.3230   16.8009   25.2977 C   0  0  0  0  0  0  0  0  0  0  0  0
   -9.2802   13.5335   28.1193 H   0  0  0  0  0  0  0  0  0  0  0  0
   -7.2418   13.8130   25.4859 H   0  0  0  0  0  0  0  0  0  0  0  0
  -11.1457   17.5742   28.5177 C   0  0  0  0  0  0  0  0  0  0  0  0
  -12.0334   16.4137   28.8606 C   0  0  0  0  0  0  0  0  0  0  0  0
  -12.1945   16.0886   30.2099 C   0  0  0  0  0  0  0  0  0  0  0  0
  -13.0689   15.0512   30.5613 C   0  0  0  0  0  0  0  0  0  0  0  0
  -13.7696   14.3311   29.5754 C   0  0  0  0  0  0  0  0  0  0  0  0
  -13.6030   14.6557   28.2150 C   0  0  0  0  0  0  0  0  0  0  0  0
  -12.7313   15.7015   27.8584 C   0  0  0  0  0  0  0  0  0  0  0  0
  -13.3423   14.7517   31.9968 C   0  0  0  0  0  0  0  0  0  0  0  0
  -14.4462   14.8295   32.5117 O   0  0  0  0  0  0  0  0  0  0  0  0
  -12.2454   14.4467   32.6984 N   0  0  0  0  0  0  0  0  0  0  0  0
  -11.3739   14.3736   32.2463 H   0  0  0  0  0  0  0  0  0  0  0  0
  -12.1846   15.1606   35.0826 N   0  0  0  0  0  0  0  0  0  0  0  0
  -12.3453   14.2237   34.1313 C   0  0  0  0  0  0  0  0  0  0  0  0
  -12.3385   14.6546   36.3497 C   0  0  0  0  0  0  0  0  0  0  0  0
  -12.6808   12.7229   34.8213 S   0  0  0  0  0  0  0  0  0  0  0  0
  -12.6296   13.2760   36.4158 C   0  0  0  0  0  0  0  0  0  0  0  0
   -7.7713   19.2223   25.4944 C   0  0  0  0  0  0  0  0  0  0  0  0
   -6.2662   19.1534   25.5105 C   0  0  0  0  0  0  0  0  0  0  0  0
   -5.6221   18.9369   24.2908 C   0  0  0  0  0  0  0  0  0  0  0  0
   -4.2151   18.8894   24.2547 C   0  0  0  0  0  0  0  0  0  0  0  0
   -3.4574   19.0685   25.4229 C   0  0  0  0  0  0  0  0  0  0  0  0
   -4.1149   19.2969   26.6471 C   0  0  0  0  0  0  0  0  0  0  0  0
   -5.5192   19.3331   26.6955 C   0  0  0  0  0  0  0  0  0  0  0  0
   -3.5319   18.6323   22.9603 C   0  0  0  0  0  0  0  0  0  0  0  0
   -2.5842   19.2829   22.5475 O   0  0  0  0  0  0  0  0  0  0  0  0
   -4.0876   17.6057   22.2900 N   0  0  0  0  0  0  0  0  0  0  0  0
   -4.7985   17.0980   22.7440 H   0  0  0  0  0  0  0  0  0  0  0  0
   -2.8917   16.1510   20.6959 N   0  0  0  0  0  0  0  0  0  0  0  0
   -3.7155   17.1863   20.9371 C   0  0  0  0  0  0  0  0  0  0  0  0
   -2.7859   15.8818   19.3501 C   0  0  0  0  0  0  0  0  0  0  0  0
   -4.3517   17.8169   19.4815 S   0  0  0  0  0  0  0  0  0  0  0  0
   -3.5385   16.7167   18.4935 C   0  0  0  0  0  0  0  0  0  0  0  0
   -8.0599   16.2820   29.0382 C   0  0  0  0  0  0  0  0  0  0  0  0
   -8.4779   16.2410   30.4875 C   0  0  0  0  0  0  0  0  0  0  0  0
   -8.7231   14.9953   31.1203 C   0  0  0  0  0  0  0  0  0  0  0  0
   -8.9850   14.9572   32.5073 C   0  0  0  0  0  0  0  0  0  0  0  0
   -9.0076   16.1549   33.2616 C   0  0  0  0  0  0  0  0  0  0  0  0
   -8.7771   17.3967   32.6240 C   0  0  0  0  0  0  0  0  0  0  0  0
   -8.5180   17.4438   31.2335 C   0  0  0  0  0  0  0  0  0  0  0  0
   -9.5461   16.5794   24.3683 C   0  0  0  0  0  0  0  0  0  0  0  0
   -9.2202   16.6349   22.8901 C   0  0  0  0  0  0  0  0  0  0  0  0
   -8.1334   17.4297   22.4424 C   0  0  0  0  0  0  0  0  0  0  0  0
   -7.8068   17.4533   21.0733 C   0  0  0  0  0  0  0  0  0  0  0  0
   -8.5738   16.6866   20.1608 C   0  0  0  0  0  0  0  0  0  0  0  0
   -9.6598   15.8998   20.6040 C   0  0  0  0  0  0  0  0  0  0  0  0
   -9.9833   15.8741   21.9790 C   0  0  0  0  0  0  0  0  0  0  0  0
  1  6  2  0  0  0
  2  8  1  0  0  0
  3  9  1  0  0  0
  4  6  1  0  0  0
  4 13  1  0  0  0
  4  7  1  0  0  0
  5  6  1  0  0  0
  5 10  1  0  0  0
  5 29  1  0  0  0
 13 14  1  0  0  0
  7  8  1  0  0  0
  7 45  1  0  0  0
  8  9  1  0  0  0
  9 10  1  0  0  0
 10 52  1  0  0  0
 29 30  1  0  0  0
 45 46  1  0  0  0
 46 47  2  0  0  0
 46 51  1  0  0  0
 47 48  1  0  0  0
 48 49  2  0  0  0
 49 50  1  0  0  0
 50 51  2  0  0  0
 52 53  1  0  0  0
 53 54  2  0  0  0
 53 58  1  0  0  0
 54 55  1  0  0  0
 55 56  2  0  0  0
 56 57  1  0  0  0
 57 58  2  0  0  0
 14 15  2  0  0  0
 14 19  1  0  0  0
 15 16  1  0  0  0
 16 17  2  0  0  0
 16 20  1  0  0  0
 17 18  1  0  0  0
 18 19  2  0  0  0
 20 21  2  0  0  0
 20 22  1  0  0  0
 22 25  1  0  0  0
 24 25  2  0  0  0
 24 26  1  0  0  0
 25 27  1  0  0  0
 26 28  2  0  0  0
 27 28  1  0  0  0
 30 31  2  0  0  0
 30 35  1  0  0  0
 31 32  1  0  0  0
 32 33  2  0  0  0
 32 36  1  0  0  0
 33 34  1  0  0  0
 34 35  2  0  0  0
 36 37  2  0  0  0
 36 38  1  0  0  0
 38 41  1  0  0  0
 40 41  2  0  0  0
 40 42  1  0  0  0
 41 43  1  0  0  0
 42 44  2  0  0  0
 43 44  1  0  0  0
  2 11  1  0  0  0
  3 12  1  0  0  0
 22 23  1  0  0  0
 38 39  1  0  0  0
M  END
> <minimizedAffinity>
-10.91025

$$$$
