2PK5_075_A_900


 61 66  0  0  0  0  0  0  0  0999 V2000
   14.4501  -20.6239  -17.1668 C   0  0  0  0  0  0  0  0  0  0  0  0
   15.1975  -22.8478  -17.9260 C   0  0  0  0  0  0  0  0  0  0  0  0
   14.0514  -23.2777  -18.0314 O   0  0  0  0  0  0  0  0  0  0  0  0
   15.4828  -21.6023  -17.5149 N   0  0  0  0  0  0  0  0  0  0  0  0
   16.4276  -21.3348  -17.4443 H   0  0  0  0  0  0  0  0  0  0  0  0
   16.4065  -23.6994  -18.2448 C   0  0  0  0  0  0  0  0  0  0  0  0
   18.3780  -23.7372  -16.8329 C   0  0  0  0  0  0  0  0  0  0  0  0
   19.0546  -23.1977  -17.6850 O   0  0  0  0  0  0  0  0  0  0  0  0
   17.0938  -24.0323  -17.0055 N   0  0  0  0  0  0  0  0  0  0  0  0
   16.5993  -24.4833  -16.2836 H   0  0  0  0  0  0  0  0  0  0  0  0
   19.0451  -24.1160  -15.5246 C   0  0  0  0  0  0  0  0  0  0  0  0
   18.1773  -24.8072  -14.6300 O   0  0  0  0  0  0  0  0  0  0  0  0
   15.7414  -27.0638  -12.0476 C   0  0  0  0  0  0  0  0  0  0  0  0
   16.5316  -26.3102  -12.9151 C   0  0  0  0  0  0  0  0  0  0  0  0
   17.7941  -25.8757  -12.5211 C   0  0  0  0  0  0  0  0  0  0  0  0
   18.2347  -26.2008  -11.2371 C   0  0  0  0  0  0  0  0  0  0  0  0
   17.4084  -26.9605  -10.4020 C   0  0  0  0  0  0  0  0  0  0  0  0
   18.6080  -25.1315  -13.3671 C   0  0  0  0  0  0  0  0  0  0  0  0
   19.8628  -24.6971  -12.9223 C   0  0  0  0  0  0  0  0  0  0  0  0
   20.3086  -25.0145  -11.6332 C   0  0  0  0  0  0  0  0  0  0  0  0
   19.4906  -25.7764  -10.7991 C   0  0  0  0  0  0  0  0  0  0  0  0
   16.2013  -27.3728  -10.8225 N   0  0  0  0  0  0  0  0  0  0  0  0
   16.0861  -25.0283  -18.9560 C   0  0  0  0  0  0  0  0  0  0  0  0
   17.3185  -25.6505  -19.9139 S   0  0  0  0  0  0  0  0  0  0  0  0
   18.1694  -24.6014  -20.4090 O   0  0  0  0  0  0  0  0  0  0  0  0
   18.1989  -26.7667  -19.0363 C   0  0  0  0  0  0  0  0  0  0  0  0
   16.7583  -26.3065  -21.0483 O   0  0  0  0  0  0  0  0  0  0  0  0
   14.3046  -19.7519  -18.4078 C   0  0  0  0  0  0  0  0  0  0  0  0
   15.3999  -18.8365  -18.5157 O   0  0  0  0  0  0  0  0  0  0  0  0
   15.4091  -18.2507  -17.7426 H   0  0  0  0  0  0  0  0  0  0  0  0
   12.9993  -19.0059  -18.3718 C   0  0  0  0  0  0  0  0  0  0  0  0
   12.9345  -17.9221  -17.8030 O   0  0  0  0  0  0  0  0  0  0  0  0
   11.9583  -19.5920  -18.9828 N   0  0  0  0  0  0  0  0  0  0  0  0
   10.6767  -18.8866  -19.0829 C   0  0  0  0  0  0  0  0  0  0  0  0
    9.8109  -19.5247  -20.1814 C   0  0  0  0  0  0  0  0  0  0  0  0
   11.9430  -20.9266  -19.6083 C   0  0  0  0  0  0  0  0  0  0  0  0
   10.1583  -18.9070  -21.5175 C   0  0  0  0  0  0  0  0  0  0  0  0
    8.2957  -19.4209  -20.0082 C   0  0  0  0  0  0  0  0  0  0  0  0
   10.2890  -21.2025  -20.1284 S   0  0  0  0  0  0  0  0  0  0  0  0
    9.9366  -18.8580  -17.7718 C   0  0  0  0  0  0  0  0  0  0  0  0
    9.8471  -19.8667  -17.0527 O   0  0  0  0  0  0  0  0  0  0  0  0
    9.4116  -17.6616  -17.4863 N   0  0  0  0  0  0  0  0  0  0  0  0
    9.5770  -16.9072  -18.0968 H   0  0  0  0  0  0  0  0  0  0  0  0
    8.1396  -15.3372  -17.4789 O   0  0  0  0  0  0  0  0  0  0  0  0
    8.6039  -17.4469  -16.2991 C   0  0  0  0  0  0  0  0  0  0  0  0
    9.3056  -16.9080  -15.1296 C   0  0  0  0  0  0  0  0  0  0  0  0
   10.5461  -17.3093  -14.6444 C   0  0  0  0  0  0  0  0  0  0  0  0
   11.0278  -16.6555  -13.5052 C   0  0  0  0  0  0  0  0  0  0  0  0
    7.5748  -16.3488  -16.6162 C   0  0  0  0  0  0  0  0  0  0  0  0
    8.5457  -15.9270  -14.5421 C   0  0  0  0  0  0  0  0  0  0  0  0
    9.0065  -15.2571  -13.4195 C   0  0  0  0  0  0  0  0  0  0  0  0
   10.2602  -15.6376  -12.9213 C   0  0  0  0  0  0  0  0  0  0  0  0
    7.2413  -15.6865  -15.2791 C   0  0  0  0  0  0  0  0  0  0  0  0
    8.3612  -15.7312  -18.3371 H   0  0  0  0  0  0  0  0  0  0  0  0
   14.9459  -19.8118  -15.9700 C   0  0  0  0  0  0  0  0  0  0  0  0
   15.2726  -20.7727  -14.8696 C   0  0  0  0  0  0  0  0  0  0  0  0
   15.9287  -22.5471  -12.8454 C   0  0  0  0  0  0  0  0  0  0  0  0
   16.6137  -20.9659  -14.5285 C   0  0  0  0  0  0  0  0  0  0  0  0
   14.2462  -21.4634  -14.2093 C   0  0  0  0  0  0  0  0  0  0  0  0
   16.9432  -21.8640  -13.5163 C   0  0  0  0  0  0  0  0  0  0  0  0
   14.5885  -22.3499  -13.1886 C   0  0  0  0  0  0  0  0  0  0  0  0
 41 40  2  0  0  0
 40 34  1  0  0  0
 40 42  1  0  0  0
 42 45  1  0  0  0
 45 49  1  0  0  0
 45 46  1  0  0  0
 46 47  2  0  0  0
 46 50  1  0  0  0
 47 48  1  0  0  0
 48 52  2  0  0  0
 52 51  1  0  0  0
 51 50  2  0  0  0
 50 53  1  0  0  0
 53 49  1  0  0  0
 49 44  1  0  0  0
 34 35  1  0  0  0
 34 33  1  0  0  0
 35 37  1  0  0  0
 35 39  1  0  0  0
 35 38  1  0  0  0
 39 36  1  0  0  0
 36 33  1  0  0  0
 33 31  1  0  0  0
 31 28  1  0  0  0
 31 32  2  0  0  0
 28 29  1  0  0  0
 28  1  1  0  0  0
  1  4  1  0  0  0
  1 55  1  0  0  0
 55 56  1  0  0  0
 56 58  2  0  0  0
 56 59  1  0  0  0
 58 60  1  0  0  0
 60 57  2  0  0  0
 57 61  1  0  0  0
 61 59  2  0  0  0
  4  2  1  0  0  0
  2  6  1  0  0  0
  2  3  2  0  0  0
  6 23  1  0  0  0
  6  9  1  0  0  0
 23 24  1  0  0  0
 24 27  2  0  0  0
 24 25  2  0  0  0
 24 26  1  0  0  0
  9  7  1  0  0  0
  7  8  2  0  0  0
  7 11  1  0  0  0
 11 12  1  0  0  0
 12 18  1  0  0  0
 18 19  2  0  0  0
 18 15  1  0  0  0
 15 14  2  0  0  0
 15 16  1  0  0  0
 14 13  1  0  0  0
 16 21  1  0  0  0
 16 17  2  0  0  0
 17 22  1  0  0  0
 22 13  2  0  0  0
 21 20  2  0  0  0
 20 19  1  0  0  0
  9 10  1  0  0  0
  4  5  1  0  0  0
 29 30  1  0  0  0
 42 43  1  0  0  0
 44 54  1  0  0  0
M  END
> <minimizedAffinity>
-12.96361

$$$$
2PK5_075_A_900


 61 66  0  0  0  0  0  0  0  0999 V2000
   14.5567  -20.6325  -17.2172 C   0  0  0  0  0  0  0  0  0  0  0  0
   15.2515  -22.8580  -18.0202 C   0  0  0  0  0  0  0  0  0  0  0  0
   14.1012  -23.2893  -18.0436 O   0  0  0  0  0  0  0  0  0  0  0  0
   15.5635  -21.6110  -17.6339 N   0  0  0  0  0  0  0  0  0  0  0  0
   16.5106  -21.3424  -17.6305 H   0  0  0  0  0  0  0  0  0  0  0  0
   16.4361  -23.7095  -18.4204 C   0  0  0  0  0  0  0  0  0  0  0  0
   18.3491  -23.8509  -16.9365 C   0  0  0  0  0  0  0  0  0  0  0  0
   19.0162  -23.1326  -17.6536 O   0  0  0  0  0  0  0  0  0  0  0  0
   17.0980  -24.1980  -17.2194 N   0  0  0  0  0  0  0  0  0  0  0  0
   16.6108  -24.7952  -16.6069 H   0  0  0  0  0  0  0  0  0  0  0  0
   18.9915  -24.3974  -15.6760 C   0  0  0  0  0  0  0  0  0  0  0  0
   19.7828  -25.5600  -15.9064 O   0  0  0  0  0  0  0  0  0  0  0  0
   20.9846  -29.0722  -17.8851 C   0  0  0  0  0  0  0  0  0  0  0  0
   20.5911  -27.8964  -17.2467 C   0  0  0  0  0  0  0  0  0  0  0  0
   19.7412  -27.9427  -16.1450 C   0  0  0  0  0  0  0  0  0  0  0  0
   19.2861  -29.1895  -15.7127 C   0  0  0  0  0  0  0  0  0  0  0  0
   19.7088  -30.3424  -16.3830 C   0  0  0  0  0  0  0  0  0  0  0  0
   19.3397  -26.7886  -15.4826 C   0  0  0  0  0  0  0  0  0  0  0  0
   18.4667  -26.8798  -14.3913 C   0  0  0  0  0  0  0  0  0  0  0  0
   18.0015  -28.1269  -13.9559 C   0  0  0  0  0  0  0  0  0  0  0  0
   18.4247  -29.2795  -14.6176 C   0  0  0  0  0  0  0  0  0  0  0  0
   20.5402  -30.2585  -17.4345 N   0  0  0  0  0  0  0  0  0  0  0  0
   16.0814  -24.9417  -19.2750 C   0  0  0  0  0  0  0  0  0  0  0  0
   17.3729  -25.6659  -20.0695 S   0  0  0  0  0  0  0  0  0  0  0  0
   18.0033  -26.6559  -19.2376 O   0  0  0  0  0  0  0  0  0  0  0  0
   16.8397  -26.3431  -21.5006 C   0  0  0  0  0  0  0  0  0  0  0  0
   18.3596  -24.6835  -20.3733 O   0  0  0  0  0  0  0  0  0  0  0  0
   14.3954  -19.7045  -18.4148 C   0  0  0  0  0  0  0  0  0  0  0  0
   15.4758  -18.7674  -18.4794 O   0  0  0  0  0  0  0  0  0  0  0  0
   15.4767  -18.2193  -17.6791 H   0  0  0  0  0  0  0  0  0  0  0  0
   13.0784  -18.9820  -18.3421 C   0  0  0  0  0  0  0  0  0  0  0  0
   13.0043  -17.9120  -17.7489 O   0  0  0  0  0  0  0  0  0  0  0  0
   12.0378  -19.5727  -18.9494 N   0  0  0  0  0  0  0  0  0  0  0  0
   10.7430  -18.8876  -19.0141 C   0  0  0  0  0  0  0  0  0  0  0  0
    9.8706  -19.5168  -20.1125 C   0  0  0  0  0  0  0  0  0  0  0  0
   12.0351  -20.8936  -19.6035 C   0  0  0  0  0  0  0  0  0  0  0  0
   10.1862  -18.8645  -21.4401 C   0  0  0  0  0  0  0  0  0  0  0  0
    8.3569  -19.4429  -19.9134 C   0  0  0  0  0  0  0  0  0  0  0  0
   10.3779  -21.1867  -20.1037 S   0  0  0  0  0  0  0  0  0  0  0  0
   10.0236  -18.9000  -17.6913 C   0  0  0  0  0  0  0  0  0  0  0  0
    9.9565  -19.9273  -16.9964 O   0  0  0  0  0  0  0  0  0  0  0  0
    9.4903  -17.7171  -17.3675 N   0  0  0  0  0  0  0  0  0  0  0  0
    9.6379  -16.9458  -17.9614 H   0  0  0  0  0  0  0  0  0  0  0  0
    8.0883  -15.4688  -17.3421 O   0  0  0  0  0  0  0  0  0  0  0  0
    8.6994  -17.5410  -16.1629 C   0  0  0  0  0  0  0  0  0  0  0  0
    9.3960  -16.9557  -15.0129 C   0  0  0  0  0  0  0  0  0  0  0  0
   10.6683  -17.2825  -14.5549 C   0  0  0  0  0  0  0  0  0  0  0  0
   11.1382  -16.5952  -13.4306 C   0  0  0  0  0  0  0  0  0  0  0  0
    7.6022  -16.5054  -16.4613 C   0  0  0  0  0  0  0  0  0  0  0  0
    8.5952  -16.0158  -14.4127 C   0  0  0  0  0  0  0  0  0  0  0  0
    9.0428  -15.3136  -13.3046 C   0  0  0  0  0  0  0  0  0  0  0  0
   10.3274  -15.6189  -12.8341 C   0  0  0  0  0  0  0  0  0  0  0  0
    7.2626  -15.8547  -15.1202 C   0  0  0  0  0  0  0  0  0  0  0  0
    8.3121  -15.8550  -18.2033 H   0  0  0  0  0  0  0  0  0  0  0  0
   15.0957  -19.8820  -15.9991 C   0  0  0  0  0  0  0  0  0  0  0  0
   15.4148  -20.8940  -14.9432 C   0  0  0  0  0  0  0  0  0  0  0  0
   15.9546  -22.7663  -12.9736 C   0  0  0  0  0  0  0  0  0  0  0  0
   14.3591  -21.4856  -14.2450 C   0  0  0  0  0  0  0  0  0  0  0  0
   16.7486  -21.2257  -14.6651 C   0  0  0  0  0  0  0  0  0  0  0  0
   14.6316  -22.4208  -13.2495 C   0  0  0  0  0  0  0  0  0  0  0  0
   17.0077  -22.1734  -13.6753 C   0  0  0  0  0  0  0  0  0  0  0  0
 41 40  2  0  0  0
 40 34  1  0  0  0
 40 42  1  0  0  0
 42 45  1  0  0  0
 45 49  1  0  0  0
 45 46  1  0  0  0
 46 47  2  0  0  0
 46 50  1  0  0  0
 47 48  1  0  0  0
 48 52  2  0  0  0
 52 51  1  0  0  0
 51 50  2  0  0  0
 50 53  1  0  0  0
 53 49  1  0  0  0
 49 44  1  0  0  0
 34 35  1  0  0  0
 34 33  1  0  0  0
 35 37  1  0  0  0
 35 39  1  0  0  0
 35 38  1  0  0  0
 39 36  1  0  0  0
 36 33  1  0  0  0
 33 31  1  0  0  0
 31 28  1  0  0  0
 31 32  2  0  0  0
 28 29  1  0  0  0
 28  1  1  0  0  0
  1  4  1  0  0  0
  1 55  1  0  0  0
 55 56  1  0  0  0
 56 58  2  0  0  0
 56 59  1  0  0  0
 58 60  1  0  0  0
 60 57  2  0  0  0
 57 61  1  0  0  0
 61 59  2  0  0  0
  4  2  1  0  0  0
  2  6  1  0  0  0
  2  3  2  0  0  0
  6 23  1  0  0  0
  6  9  1  0  0  0
 23 24  1  0  0  0
 24 27  2  0  0  0
 24 25  2  0  0  0
 24 26  1  0  0  0
  9  7  1  0  0  0
  7  8  2  0  0  0
  7 11  1  0  0  0
 11 12  1  0  0  0
 12 18  1  0  0  0
 18 19  2  0  0  0
 18 15  1  0  0  0
 15 14  2  0  0  0
 15 16  1  0  0  0
 14 13  1  0  0  0
 16 21  1  0  0  0
 16 17  2  0  0  0
 17 22  1  0  0  0
 22 13  2  0  0  0
 21 20  2  0  0  0
 20 19  1  0  0  0
  9 10  1  0  0  0
  4  5  1  0  0  0
 29 30  1  0  0  0
 42 43  1  0  0  0
 44 54  1  0  0  0
M  END
> <minimizedAffinity>
-12.94196

$$$$
