6EIS_B6N_A_501


 32 36  0  0  0  0  0  0  0  0999 V2000
    2.4026  -28.5486  -10.6997 N   0  0  0  0  0  0  0  0  0  0  0  0
    3.7480  -28.8330  -10.6426 C   0  0  0  0  0  0  0  0  0  0  0  0
    4.7877  -28.1885  -11.3760 C   0  0  0  0  0  0  0  0  0  0  0  0
    4.5863  -27.1429  -12.2837 C   0  0  0  0  0  0  0  0  0  0  0  0
    1.5116  -29.2298   -9.9529 C   0  0  0  0  0  0  0  0  0  0  0  0
    0.3181  -28.9399  -10.0395 O   0  0  0  0  0  0  0  0  0  0  0  0
    1.8886  -30.2501   -9.0990 C   0  0  0  0  0  0  0  0  0  0  0  0
    3.2270  -30.5684   -9.0125 C   0  0  0  0  0  0  0  0  0  0  0  0
    4.1429  -29.8645   -9.7787 C   0  0  0  0  0  0  0  0  0  0  0  0
    5.4708  -30.2349   -9.6461 C   0  0  0  0  0  0  0  0  0  0  0  0
    6.4511  -29.5817  -10.3728 N   0  0  0  0  0  0  0  0  0  0  0  0
    6.1184  -28.5964  -11.2079 C   0  0  0  0  0  0  0  0  0  0  0  0
    7.1588  -27.9877  -11.9047 C   0  0  0  0  0  0  0  0  0  0  0  0
    6.9224  -26.9533  -12.7947 C   0  0  0  0  0  0  0  0  0  0  0  0
    5.6180  -26.5296  -12.9846 C   0  0  0  0  0  0  0  0  0  0  0  0
    1.3694  -27.9069  -12.7541 C   0  0  0  0  0  0  0  0  0  0  0  0
    0.7794  -26.9138  -13.5275 C   0  0  0  0  0  0  0  0  0  0  0  0
    0.6412  -25.6242  -13.0314 C   0  0  0  0  0  0  0  0  0  0  0  0
    0.0646  -24.6645  -13.7974 F   0  0  0  0  0  0  0  0  0  0  0  0
    1.0923  -25.3212  -11.7523 C   0  0  0  0  0  0  0  0  0  0  0  0
    1.6805  -26.3098  -10.9715 C   0  0  0  0  0  0  0  0  0  0  0  0
    1.8289  -27.6027  -11.4676 C   0  0  0  0  0  0  0  0  0  0  0  0
    0.6871  -30.0351  -12.6586 F   0  0  0  0  0  0  0  0  0  0  0  0
    1.4852  -29.1906  -13.3014 C   0  0  0  0  0  0  0  0  0  0  0  0
    1.1200  -29.1528  -14.5696 F   0  0  0  0  0  0  0  0  0  0  0  0
    2.7388  -29.6172  -13.2227 F   0  0  0  0  0  0  0  0  0  0  0  0
    5.3640  -25.5345  -13.8313 C   0  0  0  0  0  0  0  0  0  0  0  0
    4.1936  -25.2658  -14.3871 C   0  0  0  0  0  0  0  0  0  0  0  0
    4.3930  -24.1908  -15.1525 N   0  0  0  0  0  0  0  0  0  0  0  0
    5.5837  -23.8267  -15.0689 N   0  0  0  0  0  0  0  0  0  0  0  0
    6.2473  -24.6393  -14.2452 C   0  0  0  0  0  0  0  0  0  0  0  0
    3.7039  -23.7509  -15.7010 H   0  0  0  0  0  0  0  0  0  0  0  0
 29 30  1  0  0  0
 29 28  1  0  0  0
 30 31  2  0  0  0
 25 24  1  0  0  0
 28 27  2  0  0  0
 31 27  1  0  0  0
 19 18  1  0  0  0
 17 18  2  0  0  0
 17 16  1  0  0  0
 27 15  1  0  0  0
 24 26  1  0  0  0
 24 16  1  0  0  0
 24 23  1  0  0  0
 18 20  1  0  0  0
 16 22  2  0  0  0
 15 14  2  0  0  0
 15  4  1  0  0  0
 14 13  1  0  0  0
  4  3  2  0  0  0
 20 21  2  0  0  0
 22 21  1  0  0  0
 22  1  1  0  0  0
 13 12  2  0  0  0
  3 12  1  0  0  0
  3  2  1  0  0  0
 12 11  1  0  0  0
  1  2  1  0  0  0
  1  5  1  0  0  0
  2  9  2  0  0  0
  6  5  2  0  0  0
  5  7  1  0  0  0
 11 10  2  0  0  0
  9 10  1  0  0  0
  9  8  1  0  0  0
  7  8  2  0  0  0
 29 32  1  0  0  0
M  END
> <minimizedAffinity>
-11.77764

$$$$
6EIS_B6N_A_501


 32 36  0  0  0  0  0  0  0  0999 V2000
    2.8075  -26.5187  -13.5759 N   0  0  0  0  0  0  0  0  0  0  0  0
    4.1463  -26.2632  -13.3839 C   0  0  0  0  0  0  0  0  0  0  0  0
    5.0442  -26.9979  -12.5543 C   0  0  0  0  0  0  0  0  0  0  0  0
    4.6858  -28.1176  -11.7957 C   0  0  0  0  0  0  0  0  0  0  0  0
    2.0587  -25.7498  -14.3907 C   0  0  0  0  0  0  0  0  0  0  0  0
    0.8650  -26.0172  -14.5293 O   0  0  0  0  0  0  0  0  0  0  0  0
    2.5812  -24.6645  -15.0700 C   0  0  0  0  0  0  0  0  0  0  0  0
    3.9181  -24.3724  -14.9048 C   0  0  0  0  0  0  0  0  0  0  0  0
    4.6880  -25.1662  -14.0691 C   0  0  0  0  0  0  0  0  0  0  0  0
    6.0227  -24.8178  -13.9459 C   0  0  0  0  0  0  0  0  0  0  0  0
    6.8631  -25.5591  -13.1335 N   0  0  0  0  0  0  0  0  0  0  0  0
    6.3878  -26.6089  -12.4619 C   0  0  0  0  0  0  0  0  0  0  0  0
    7.2929  -27.3046  -11.6649 C   0  0  0  0  0  0  0  0  0  0  0  0
    6.9031  -28.4107  -10.9283 C   0  0  0  0  0  0  0  0  0  0  0  0
    5.5815  -28.8181  -10.9965 C   0  0  0  0  0  0  0  0  0  0  0  0
    1.5478  -27.3631  -11.7321 C   0  0  0  0  0  0  0  0  0  0  0  0
    0.8266  -28.4078  -11.1652 C   0  0  0  0  0  0  0  0  0  0  0  0
    0.6552  -29.6006  -11.8553 C   0  0  0  0  0  0  0  0  0  0  0  0
   -0.0499  -30.6121  -11.2897 F   0  0  0  0  0  0  0  0  0  0  0  0
    1.2045  -29.7538  -13.1226 C   0  0  0  0  0  0  0  0  0  0  0  0
    1.9242  -28.7124  -13.6976 C   0  0  0  0  0  0  0  0  0  0  0  0
    2.1061  -27.5171  -13.0062 C   0  0  0  0  0  0  0  0  0  0  0  0
    1.3266  -25.1372  -11.7284 F   0  0  0  0  0  0  0  0  0  0  0  0
    1.6919  -26.1817  -10.9943 C   0  0  0  0  0  0  0  0  0  0  0  0
    0.9110  -26.2396   -9.9313 F   0  0  0  0  0  0  0  0  0  0  0  0
    2.9499  -26.0305  -10.6017 F   0  0  0  0  0  0  0  0  0  0  0  0
    5.1819  -29.8806  -10.3015 C   0  0  0  0  0  0  0  0  0  0  0  0
    5.9340  -30.9143   -9.9598 C   0  0  0  0  0  0  0  0  0  0  0  0
    5.1355  -31.7334   -9.2724 N   0  0  0  0  0  0  0  0  0  0  0  0
    3.9915  -31.2413   -9.1935 N   0  0  0  0  0  0  0  0  0  0  0  0
    3.9605  -30.0673   -9.8259 C   0  0  0  0  0  0  0  0  0  0  0  0
    5.4081  -32.5966   -8.8854 H   0  0  0  0  0  0  0  0  0  0  0  0
 29 30  1  0  0  0
 29 28  1  0  0  0
 30 31  2  0  0  0
 25 24  1  0  0  0
 28 27  2  0  0  0
 31 27  1  0  0  0
 19 18  1  0  0  0
 17 18  2  0  0  0
 17 16  1  0  0  0
 27 15  1  0  0  0
 24 26  1  0  0  0
 24 16  1  0  0  0
 24 23  1  0  0  0
 18 20  1  0  0  0
 16 22  2  0  0  0
 15 14  2  0  0  0
 15  4  1  0  0  0
 14 13  1  0  0  0
  4  3  2  0  0  0
 20 21  2  0  0  0
 22 21  1  0  0  0
 22  1  1  0  0  0
 13 12  2  0  0  0
  3 12  1  0  0  0
  3  2  1  0  0  0
 12 11  1  0  0  0
  1  2  1  0  0  0
  1  5  1  0  0  0
  2  9  2  0  0  0
  6  5  2  0  0  0
  5  7  1  0  0  0
 11 10  2  0  0  0
  9 10  1  0  0  0
  9  8  1  0  0  0
  7  8  2  0  0  0
 29 32  1  0  0  0
M  END
> <minimizedAffinity>
-11.19389

$$$$
6EIS_B6N_A_501


 32 36  0  0  0  0  0  0  0  0999 V2000
    2.7667  -26.3512  -13.4544 N   0  0  0  0  0  0  0  0  0  0  0  0
    3.9141  -27.0346  -13.1213 C   0  0  0  0  0  0  0  0  0  0  0  0
    4.0580  -28.0065  -12.0875 C   0  0  0  0  0  0  0  0  0  0  0  0
    3.0248  -28.4201  -11.2393 C   0  0  0  0  0  0  0  0  0  0  0  0
    2.7546  -25.4526  -14.4584 C   0  0  0  0  0  0  0  0  0  0  0  0
    1.7041  -24.8653  -14.7181 O   0  0  0  0  0  0  0  0  0  0  0  0
    3.8829  -25.1591  -15.2020 C   0  0  0  0  0  0  0  0  0  0  0  0
    5.0542  -25.8201  -14.9005 C   0  0  0  0  0  0  0  0  0  0  0  0
    5.0645  -26.7468  -13.8697 C   0  0  0  0  0  0  0  0  0  0  0  0
    6.2731  -27.3742  -13.6173 C   0  0  0  0  0  0  0  0  0  0  0  0
    6.3707  -28.3154  -12.6071 N   0  0  0  0  0  0  0  0  0  0  0  0
    5.3011  -28.6168  -11.8695 C   0  0  0  0  0  0  0  0  0  0  0  0
    5.4771  -29.5719  -10.8719 C   0  0  0  0  0  0  0  0  0  0  0  0
    4.4306  -29.9588  -10.0515 C   0  0  0  0  0  0  0  0  0  0  0  0
    3.1908  -29.3719  -10.2402 C   0  0  0  0  0  0  0  0  0  0  0  0
    0.6583  -27.4573  -13.2795 C   0  0  0  0  0  0  0  0  0  0  0  0
   -0.5721  -27.5750  -12.6431 C   0  0  0  0  0  0  0  0  0  0  0  0
   -0.9021  -26.7347  -11.5879 C   0  0  0  0  0  0  0  0  0  0  0  0
   -2.1067  -26.8599  -10.9767 F   0  0  0  0  0  0  0  0  0  0  0  0
    0.0023  -25.7700  -11.1607 C   0  0  0  0  0  0  0  0  0  0  0  0
    1.2361  -25.6483  -11.7899 C   0  0  0  0  0  0  0  0  0  0  0  0
    1.5685  -26.4830  -12.8540 C   0  0  0  0  0  0  0  0  0  0  0  0
    1.7437  -29.3032  -13.9260 F   0  0  0  0  0  0  0  0  0  0  0  0
    0.9415  -28.3286  -14.3384 C   0  0  0  0  0  0  0  0  0  0  0  0
   -0.1853  -28.8671  -14.7665 F   0  0  0  0  0  0  0  0  0  0  0  0
    1.5169  -27.6728  -15.3376 F   0  0  0  0  0  0  0  0  0  0  0  0
    2.1672  -29.7290   -9.4678 C   0  0  0  0  0  0  0  0  0  0  0  0
    2.1149  -30.7997   -8.6919 C   0  0  0  0  0  0  0  0  0  0  0  0
    0.9195  -30.7612   -8.0997 N   0  0  0  0  0  0  0  0  0  0  0  0
    0.2934  -29.7493   -8.4755 N   0  0  0  0  0  0  0  0  0  0  0  0
    1.0340  -29.0563   -9.3418 C   0  0  0  0  0  0  0  0  0  0  0  0
    0.5821  -31.4309   -7.4618 H   0  0  0  0  0  0  0  0  0  0  0  0
 29 30  1  0  0  0
 29 28  1  0  0  0
 30 31  2  0  0  0
 25 24  1  0  0  0
 28 27  2  0  0  0
 31 27  1  0  0  0
 19 18  1  0  0  0
 17 18  2  0  0  0
 17 16  1  0  0  0
 27 15  1  0  0  0
 24 26  1  0  0  0
 24 16  1  0  0  0
 24 23  1  0  0  0
 18 20  1  0  0  0
 16 22  2  0  0  0
 15 14  2  0  0  0
 15  4  1  0  0  0
 14 13  1  0  0  0
  4  3  2  0  0  0
 20 21  2  0  0  0
 22 21  1  0  0  0
 22  1  1  0  0  0
 13 12  2  0  0  0
  3 12  1  0  0  0
  3  2  1  0  0  0
 12 11  1  0  0  0
  1  2  1  0  0  0
  1  5  1  0  0  0
  2  9  2  0  0  0
  6  5  2  0  0  0
  5  7  1  0  0  0
 11 10  2  0  0  0
  9 10  1  0  0  0
  9  8  1  0  0  0
  7  8  2  0  0  0
 29 32  1  0  0  0
M  END
> <minimizedAffinity>
-10.82340

$$$$
6EIS_B6N_A_501


 32 36  0  0  0  0  0  0  0  0999 V2000
    1.6950  -26.3775  -12.9703 N   0  0  0  0  0  0  0  0  0  0  0  0
    2.9359  -26.0426  -13.4627 C   0  0  0  0  0  0  0  0  0  0  0  0
    4.1866  -26.6132  -13.0826 C   0  0  0  0  0  0  0  0  0  0  0  0
    4.3384  -27.6261  -12.1293 C   0  0  0  0  0  0  0  0  0  0  0  0
    0.5790  -25.7648  -13.4116 C   0  0  0  0  0  0  0  0  0  0  0  0
   -0.5083  -26.0980  -12.9399 O   0  0  0  0  0  0  0  0  0  0  0  0
    0.6119  -24.7679  -14.3694 C   0  0  0  0  0  0  0  0  0  0  0  0
    1.8350  -24.4006  -14.8883 C   0  0  0  0  0  0  0  0  0  0  0  0
    2.9819  -25.0341  -14.4359 C   0  0  0  0  0  0  0  0  0  0  0  0
    4.1778  -24.6173  -14.9965 C   0  0  0  0  0  0  0  0  0  0  0  0
    5.3705  -25.1993  -14.6035 N   0  0  0  0  0  0  0  0  0  0  0  0
    5.3718  -26.1604  -13.6787 C   0  0  0  0  0  0  0  0  0  0  0  0
    6.6096  -26.6969  -13.3346 C   0  0  0  0  0  0  0  0  0  0  0  0
    6.7222  -27.7008  -12.3872 C   0  0  0  0  0  0  0  0  0  0  0  0
    5.5695  -28.1674  -11.7784 C   0  0  0  0  0  0  0  0  0  0  0  0
    1.1778  -28.6365  -12.3968 C   0  0  0  0  0  0  0  0  0  0  0  0
    0.9237  -29.5834  -11.4112 C   0  0  0  0  0  0  0  0  0  0  0  0
    0.9356  -29.2239  -10.0699 C   0  0  0  0  0  0  0  0  0  0  0  0
    0.6849  -30.1579   -9.1186 F   0  0  0  0  0  0  0  0  0  0  0  0
    1.2056  -27.9101   -9.7065 C   0  0  0  0  0  0  0  0  0  0  0  0
    1.4639  -26.9580  -10.6863 C   0  0  0  0  0  0  0  0  0  0  0  0
    1.4449  -27.3117  -12.0332 C   0  0  0  0  0  0  0  0  0  0  0  0
    1.9741  -28.3004  -14.4600 F   0  0  0  0  0  0  0  0  0  0  0  0
    1.1532  -29.0506  -13.7343 C   0  0  0  0  0  0  0  0  0  0  0  0
    1.5602  -30.3046  -13.8046 F   0  0  0  0  0  0  0  0  0  0  0  0
   -0.0766  -28.9647  -14.2240 F   0  0  0  0  0  0  0  0  0  0  0  0
    5.6496  -29.1346  -10.8674 C   0  0  0  0  0  0  0  0  0  0  0  0
    4.6689  -29.9464  -10.5067 C   0  0  0  0  0  0  0  0  0  0  0  0
    5.1883  -30.7548   -9.5804 N   0  0  0  0  0  0  0  0  0  0  0  0
    6.3881  -30.4675   -9.3929 N   0  0  0  0  0  0  0  0  0  0  0  0
    6.7370  -29.4496  -10.1811 C   0  0  0  0  0  0  0  0  0  0  0  0
    4.6983  -31.4706   -9.1148 H   0  0  0  0  0  0  0  0  0  0  0  0
 29 30  1  0  0  0
 29 28  1  0  0  0
 30 31  2  0  0  0
 25 24  1  0  0  0
 28 27  2  0  0  0
 31 27  1  0  0  0
 19 18  1  0  0  0
 17 18  2  0  0  0
 17 16  1  0  0  0
 27 15  1  0  0  0
 24 26  1  0  0  0
 24 16  1  0  0  0
 24 23  1  0  0  0
 18 20  1  0  0  0
 16 22  2  0  0  0
 15 14  2  0  0  0
 15  4  1  0  0  0
 14 13  1  0  0  0
  4  3  2  0  0  0
 20 21  2  0  0  0
 22 21  1  0  0  0
 22  1  1  0  0  0
 13 12  2  0  0  0
  3 12  1  0  0  0
  3  2  1  0  0  0
 12 11  1  0  0  0
  1  2  1  0  0  0
  1  5  1  0  0  0
  2  9  2  0  0  0
  6  5  2  0  0  0
  5  7  1  0  0  0
 11 10  2  0  0  0
  9 10  1  0  0  0
  9  8  1  0  0  0
  7  8  2  0  0  0
 29 32  1  0  0  0
M  END
> <minimizedAffinity>
-10.45087

$$$$
6EIS_B6N_A_501


 32 36  0  0  0  0  0  0  0  0999 V2000
    3.6128  -27.3329  -13.1596 N   0  0  0  0  0  0  0  0  0  0  0  0
    4.8444  -27.5737  -12.5945 C   0  0  0  0  0  0  0  0  0  0  0  0
    5.1333  -28.4840  -11.5351 C   0  0  0  0  0  0  0  0  0  0  0  0
    4.1810  -29.2887  -10.9000 C   0  0  0  0  0  0  0  0  0  0  0  0
    3.4650  -26.4449  -14.1623 C   0  0  0  0  0  0  0  0  0  0  0  0
    2.3427  -26.2627  -14.6346 O   0  0  0  0  0  0  0  0  0  0  0  0
    4.5280  -25.7235  -14.6740 C   0  0  0  0  0  0  0  0  0  0  0  0
    5.7794  -25.9331  -14.1355 C   0  0  0  0  0  0  0  0  0  0  0  0
    5.9305  -26.8493  -13.1064 C   0  0  0  0  0  0  0  0  0  0  0  0
    7.2129  -27.0115  -12.6093 C   0  0  0  0  0  0  0  0  0  0  0  0
    7.4529  -27.9085  -11.5828 N   0  0  0  0  0  0  0  0  0  0  0  0
    6.4475  -28.6158  -11.0654 C   0  0  0  0  0  0  0  0  0  0  0  0
    6.7664  -29.4968  -10.0355 C   0  0  0  0  0  0  0  0  0  0  0  0
    5.7975  -30.2800   -9.4307 C   0  0  0  0  0  0  0  0  0  0  0  0
    4.4892  -30.1704   -9.8708 C   0  0  0  0  0  0  0  0  0  0  0  0
    1.6484  -27.3682  -11.8032 C   0  0  0  0  0  0  0  0  0  0  0  0
    0.4561  -27.9929  -11.4554 C   0  0  0  0  0  0  0  0  0  0  0  0
    0.0595  -29.1592  -12.0965 C   0  0  0  0  0  0  0  0  0  0  0  0
   -1.1058  -29.7589  -11.7463 F   0  0  0  0  0  0  0  0  0  0  0  0
    0.8559  -29.7070  -13.0949 C   0  0  0  0  0  0  0  0  0  0  0  0
    2.0480  -29.0862  -13.4507 C   0  0  0  0  0  0  0  0  0  0  0  0
    2.4544  -27.9210  -12.8050 C   0  0  0  0  0  0  0  0  0  0  0  0
    1.8871  -25.1479  -11.9344 F   0  0  0  0  0  0  0  0  0  0  0  0
    2.0027  -26.1950  -11.1258 C   0  0  0  0  0  0  0  0  0  0  0  0
    1.1865  -26.0253  -10.1021 F   0  0  0  0  0  0  0  0  0  0  0  0
    3.2491  -26.2756  -10.6792 F   0  0  0  0  0  0  0  0  0  0  0  0
    3.5395  -30.9148   -9.3091 C   0  0  0  0  0  0  0  0  0  0  0  0
    3.6302  -32.2029   -9.0200 C   0  0  0  0  0  0  0  0  0  0  0  0
    2.4610  -32.5348   -8.4685 N   0  0  0  0  0  0  0  0  0  0  0  0
    1.7178  -31.5337   -8.4177 N   0  0  0  0  0  0  0  0  0  0  0  0
    2.3473  -30.4775   -8.9347 C   0  0  0  0  0  0  0  0  0  0  0  0
    2.2209  -33.4347   -8.1495 H   0  0  0  0  0  0  0  0  0  0  0  0
 29 30  1  0  0  0
 29 28  1  0  0  0
 30 31  2  0  0  0
 25 24  1  0  0  0
 28 27  2  0  0  0
 31 27  1  0  0  0
 19 18  1  0  0  0
 17 18  2  0  0  0
 17 16  1  0  0  0
 27 15  1  0  0  0
 24 26  1  0  0  0
 24 16  1  0  0  0
 24 23  1  0  0  0
 18 20  1  0  0  0
 16 22  2  0  0  0
 15 14  2  0  0  0
 15  4  1  0  0  0
 14 13  1  0  0  0
  4  3  2  0  0  0
 20 21  2  0  0  0
 22 21  1  0  0  0
 22  1  1  0  0  0
 13 12  2  0  0  0
  3 12  1  0  0  0
  3  2  1  0  0  0
 12 11  1  0  0  0
  1  2  1  0  0  0
  1  5  1  0  0  0
  2  9  2  0  0  0
  6  5  2  0  0  0
  5  7  1  0  0  0
 11 10  2  0  0  0
  9 10  1  0  0  0
  9  8  1  0  0  0
  7  8  2  0  0  0
 29 32  1  0  0  0
M  END
> <minimizedAffinity>
-10.11166

$$$$
6EIS_B6N_A_501


 32 36  0  0  0  0  0  0  0  0999 V2000
    3.2352  -27.3369  -13.2973 N   0  0  0  0  0  0  0  0  0  0  0  0
    4.1809  -27.9090  -12.4771 C   0  0  0  0  0  0  0  0  0  0  0  0
    3.9369  -28.7540  -11.3543 C   0  0  0  0  0  0  0  0  0  0  0  0
    2.6659  -29.1369  -10.9120 C   0  0  0  0  0  0  0  0  0  0  0  0
    3.5909  -26.5534  -14.3343 C   0  0  0  0  0  0  0  0  0  0  0  0
    2.7085  -26.0629  -15.0390 O   0  0  0  0  0  0  0  0  0  0  0  0
    4.9122  -26.2726  -14.6301 C   0  0  0  0  0  0  0  0  0  0  0  0
    5.8917  -26.8244  -13.8326 C   0  0  0  0  0  0  0  0  0  0  0  0
    5.5245  -27.6330  -12.7683 C   0  0  0  0  0  0  0  0  0  0  0  0
    6.5566  -28.1544  -12.0060 C   0  0  0  0  0  0  0  0  0  0  0  0
    6.2783  -28.9742  -10.9260 N   0  0  0  0  0  0  0  0  0  0  0  0
    5.0137  -29.2600  -10.6129 C   0  0  0  0  0  0  0  0  0  0  0  0
    4.8130  -30.0901   -9.5133 C   0  0  0  0  0  0  0  0  0  0  0  0
    3.5396  -30.4504   -9.1049 C   0  0  0  0  0  0  0  0  0  0  0  0
    2.4552  -29.9643   -9.8153 C   0  0  0  0  0  0  0  0  0  0  0  0
    1.1566  -26.5968  -12.3855 C   0  0  0  0  0  0  0  0  0  0  0  0
   -0.2198  -26.7608  -12.2802 C   0  0  0  0  0  0  0  0  0  0  0  0
   -0.8601  -27.7896  -12.9585 C   0  0  0  0  0  0  0  0  0  0  0  0
   -2.2037  -27.9386  -12.8458 F   0  0  0  0  0  0  0  0  0  0  0  0
   -0.1235  -28.6615  -13.7511 C   0  0  0  0  0  0  0  0  0  0  0  0
    1.2531  -28.5020  -13.8641 C   0  0  0  0  0  0  0  0  0  0  0  0
    1.9011  -27.4769  -13.1792 C   0  0  0  0  0  0  0  0  0  0  0  0
    2.5727  -24.8676  -12.4775 F   0  0  0  0  0  0  0  0  0  0  0  0
    1.7534  -25.5441  -11.6809 C   0  0  0  0  0  0  0  0  0  0  0  0
    0.8119  -24.7228  -11.2542 F   0  0  0  0  0  0  0  0  0  0  0  0
    2.4302  -26.0083  -10.6387 F   0  0  0  0  0  0  0  0  0  0  0  0
    1.2208  -30.2987   -9.4460 C   0  0  0  0  0  0  0  0  0  0  0  0
    0.8870  -30.9344   -8.3346 C   0  0  0  0  0  0  0  0  0  0  0  0
   -0.4419  -31.0537   -8.3693 N   0  0  0  0  0  0  0  0  0  0  0  0
   -0.8866  -30.5302   -9.4111 N   0  0  0  0  0  0  0  0  0  0  0  0
    0.1200  -30.0341  -10.1321 C   0  0  0  0  0  0  0  0  0  0  0  0
   -0.9893  -31.4896   -7.6768 H   0  0  0  0  0  0  0  0  0  0  0  0
 29 30  1  0  0  0
 29 28  1  0  0  0
 30 31  2  0  0  0
 25 24  1  0  0  0
 28 27  2  0  0  0
 31 27  1  0  0  0
 19 18  1  0  0  0
 17 18  2  0  0  0
 17 16  1  0  0  0
 27 15  1  0  0  0
 24 26  1  0  0  0
 24 16  1  0  0  0
 24 23  1  0  0  0
 18 20  1  0  0  0
 16 22  2  0  0  0
 15 14  2  0  0  0
 15  4  1  0  0  0
 14 13  1  0  0  0
  4  3  2  0  0  0
 20 21  2  0  0  0
 22 21  1  0  0  0
 22  1  1  0  0  0
 13 12  2  0  0  0
  3 12  1  0  0  0
  3  2  1  0  0  0
 12 11  1  0  0  0
  1  2  1  0  0  0
  1  5  1  0  0  0
  2  9  2  0  0  0
  6  5  2  0  0  0
  5  7  1  0  0  0
 11 10  2  0  0  0
  9 10  1  0  0  0
  9  8  1  0  0  0
  7  8  2  0  0  0
 29 32  1  0  0  0
M  END
> <minimizedAffinity>
-9.65862

$$$$
6EIS_B6N_A_501


 32 36  0  0  0  0  0  0  0  0999 V2000
    2.3583  -28.7108  -11.4566 N   0  0  0  0  0  0  0  0  0  0  0  0
    3.6786  -28.8643  -11.0996 C   0  0  0  0  0  0  0  0  0  0  0  0
    4.7886  -28.1191  -11.5964 C   0  0  0  0  0  0  0  0  0  0  0  0
    4.6942  -27.0934  -12.5435 C   0  0  0  0  0  0  0  0  0  0  0  0
    1.3932  -29.4784  -10.9134 C   0  0  0  0  0  0  0  0  0  0  0  0
    0.2264  -29.3045  -11.2657 O   0  0  0  0  0  0  0  0  0  0  0  0
    1.6676  -30.4616   -9.9806 C   0  0  0  0  0  0  0  0  0  0  0  0
    2.9777  -30.6498   -9.5959 C   0  0  0  0  0  0  0  0  0  0  0  0
    3.9691  -29.8572  -10.1529 C   0  0  0  0  0  0  0  0  0  0  0  0
    5.2639  -30.0983   -9.7247 C   0  0  0  0  0  0  0  0  0  0  0  0
    6.3139  -29.3501  -10.2282 N   0  0  0  0  0  0  0  0  0  0  0  0
    6.0818  -28.3975  -11.1324 C   0  0  0  0  0  0  0  0  0  0  0  0
    7.1877  -27.6879  -11.5927 C   0  0  0  0  0  0  0  0  0  0  0  0
    7.0566  -26.6768  -12.5300 C   0  0  0  0  0  0  0  0  0  0  0  0
    5.7921  -26.3800  -13.0097 C   0  0  0  0  0  0  0  0  0  0  0  0
    1.5300  -26.5264  -11.9483 C   0  0  0  0  0  0  0  0  0  0  0  0
    1.0409  -25.6249  -12.8869 C   0  0  0  0  0  0  0  0  0  0  0  0
    0.9011  -25.9997  -14.2167 C   0  0  0  0  0  0  0  0  0  0  0  0
    0.4215  -25.1102  -15.1217 F   0  0  0  0  0  0  0  0  0  0  0  0
    1.2541  -27.2830  -14.6163 C   0  0  0  0  0  0  0  0  0  0  0  0
    1.7471  -28.1892  -13.6841 C   0  0  0  0  0  0  0  0  0  0  0  0
    1.8812  -27.8209  -12.3477 C   0  0  0  0  0  0  0  0  0  0  0  0
    2.9163  -26.1832  -10.2267 F   0  0  0  0  0  0  0  0  0  0  0  0
    1.6509  -26.0986  -10.6205 C   0  0  0  0  0  0  0  0  0  0  0  0
    1.2704  -24.8371  -10.5378 F   0  0  0  0  0  0  0  0  0  0  0  0
    0.8879  -26.8358   -9.8243 F   0  0  0  0  0  0  0  0  0  0  0  0
    5.6382  -25.4100  -13.9081 C   0  0  0  0  0  0  0  0  0  0  0  0
    6.5364  -24.4902  -14.2212 C   0  0  0  0  0  0  0  0  0  0  0  0
    5.9687  -23.7333  -15.1625 N   0  0  0  0  0  0  0  0  0  0  0  0
    4.8212  -24.1564  -15.4106 N   0  0  0  0  0  0  0  0  0  0  0  0
    4.5568  -25.2179  -14.6473 C   0  0  0  0  0  0  0  0  0  0  0  0
    6.3918  -22.9574  -15.5962 H   0  0  0  0  0  0  0  0  0  0  0  0
 29 30  1  0  0  0
 29 28  1  0  0  0
 30 31  2  0  0  0
 25 24  1  0  0  0
 28 27  2  0  0  0
 31 27  1  0  0  0
 19 18  1  0  0  0
 17 18  2  0  0  0
 17 16  1  0  0  0
 27 15  1  0  0  0
 24 26  1  0  0  0
 24 16  1  0  0  0
 24 23  1  0  0  0
 18 20  1  0  0  0
 16 22  2  0  0  0
 15 14  2  0  0  0
 15  4  1  0  0  0
 14 13  1  0  0  0
  4  3  2  0  0  0
 20 21  2  0  0  0
 22 21  1  0  0  0
 22  1  1  0  0  0
 13 12  2  0  0  0
  3 12  1  0  0  0
  3  2  1  0  0  0
 12 11  1  0  0  0
  1  2  1  0  0  0
  1  5  1  0  0  0
  2  9  2  0  0  0
  6  5  2  0  0  0
  5  7  1  0  0  0
 11 10  2  0  0  0
  9 10  1  0  0  0
  9  8  1  0  0  0
  7  8  2  0  0  0
 29 32  1  0  0  0
M  END
> <minimizedAffinity>
-9.61586

$$$$
6EIS_B6N_A_501


 32 36  0  0  0  0  0  0  0  0999 V2000
    3.4624  -28.0522  -11.7118 N   0  0  0  0  0  0  0  0  0  0  0  0
    4.2177  -27.3834  -12.6480 C   0  0  0  0  0  0  0  0  0  0  0  0
    3.7629  -26.3745  -13.5478 C   0  0  0  0  0  0  0  0  0  0  0  0
    2.4470  -25.9029  -13.6100 C   0  0  0  0  0  0  0  0  0  0  0  0
    4.0087  -28.9898  -10.9129 C   0  0  0  0  0  0  0  0  0  0  0  0
    3.2920  -29.5619  -10.0914 O   0  0  0  0  0  0  0  0  0  0  0  0
    5.3444  -29.3394  -10.9891 C   0  0  0  0  0  0  0  0  0  0  0  0
    6.1367  -28.6948  -11.9146 C   0  0  0  0  0  0  0  0  0  0  0  0
    5.5743  -27.7280  -12.7334 C   0  0  0  0  0  0  0  0  0  0  0  0
    6.4242  -27.1198  -13.6421 C   0  0  0  0  0  0  0  0  0  0  0  0
    5.9448  -26.1415  -14.4959 N   0  0  0  0  0  0  0  0  0  0  0  0
    4.6603  -25.7855  -14.4495 C   0  0  0  0  0  0  0  0  0  0  0  0
    4.2521  -24.7957  -15.3394 C   0  0  0  0  0  0  0  0  0  0  0  0
    2.9407  -24.3516  -15.3719 C   0  0  0  0  0  0  0  0  0  0  0  0
    2.0297  -24.9160  -14.4952 C   0  0  0  0  0  0  0  0  0  0  0  0
    1.1871  -28.5350  -12.2499 C   0  0  0  0  0  0  0  0  0  0  0  0
   -0.1636  -28.3298  -11.9928 C   0  0  0  0  0  0  0  0  0  0  0  0
   -0.5643  -27.4703  -10.9784 C   0  0  0  0  0  0  0  0  0  0  0  0
   -1.8858  -27.2785  -10.7391 F   0  0  0  0  0  0  0  0  0  0  0  0
    0.3885  -26.8110  -10.2112 C   0  0  0  0  0  0  0  0  0  0  0  0
    1.7413  -27.0135  -10.4602 C   0  0  0  0  0  0  0  0  0  0  0  0
    2.1484  -27.8681  -11.4818 C   0  0  0  0  0  0  0  0  0  0  0  0
    2.7279  -29.9494  -13.0432 F   0  0  0  0  0  0  0  0  0  0  0  0
    1.5381  -29.4113  -13.2843 C   0  0  0  0  0  0  0  0  0  0  0  0
    0.6452  -30.3817  -13.3485 F   0  0  0  0  0  0  0  0  0  0  0  0
    1.5676  -28.7703  -14.4453 F   0  0  0  0  0  0  0  0  0  0  0  0
    0.7639  -24.5041  -14.5032 C   0  0  0  0  0  0  0  0  0  0  0  0
    0.1403  -23.9270  -15.5175 C   0  0  0  0  0  0  0  0  0  0  0  0
   -1.1026  -23.6902  -15.0928 N   0  0  0  0  0  0  0  0  0  0  0  0
   -1.2326  -24.0936  -13.9191 N   0  0  0  0  0  0  0  0  0  0  0  0
   -0.0835  -24.6199  -13.4927 C   0  0  0  0  0  0  0  0  0  0  0  0
   -1.8108  -23.2616  -15.6256 H   0  0  0  0  0  0  0  0  0  0  0  0
 29 30  1  0  0  0
 29 28  1  0  0  0
 30 31  2  0  0  0
 25 24  1  0  0  0
 28 27  2  0  0  0
 31 27  1  0  0  0
 19 18  1  0  0  0
 17 18  2  0  0  0
 17 16  1  0  0  0
 27 15  1  0  0  0
 24 26  1  0  0  0
 24 16  1  0  0  0
 24 23  1  0  0  0
 18 20  1  0  0  0
 16 22  2  0  0  0
 15 14  2  0  0  0
 15  4  1  0  0  0
 14 13  1  0  0  0
  4  3  2  0  0  0
 20 21  2  0  0  0
 22 21  1  0  0  0
 22  1  1  0  0  0
 13 12  2  0  0  0
  3 12  1  0  0  0
  3  2  1  0  0  0
 12 11  1  0  0  0
  1  2  1  0  0  0
  1  5  1  0  0  0
  2  9  2  0  0  0
  6  5  2  0  0  0
  5  7  1  0  0  0
 11 10  2  0  0  0
  9 10  1  0  0  0
  9  8  1  0  0  0
  7  8  2  0  0  0
 29 32  1  0  0  0
M  END
> <minimizedAffinity>
-8.92585

$$$$
