3G0W_LGB_A_1


 25 27  0  0  0  0  0  0  0  0999 V2000
   55.0933   -1.0243    3.4933 C   0  0  0  0  0  0  0  0  0  0  0  0
   55.6872   -0.0767    4.4703 N   0  0  0  0  0  0  0  0  0  0  0  0
   57.1384   -0.2596    4.4868 C   0  0  0  0  0  0  0  0  0  0  0  0
   57.4886   -0.9652    3.1593 C   0  0  0  0  0  0  0  0  0  0  0  0
   56.2252   -1.8543    2.8864 C   0  0  0  0  0  0  0  0  0  0  0  0
   55.5597    1.3249    4.3399 C   0  0  0  0  0  0  0  0  0  0  0  0
   56.6750    1.9595    4.7222 O   0  0  0  0  0  0  0  0  0  0  0  0
   57.7590    1.1056    4.7736 C   0  0  0  0  0  0  0  0  0  0  0  0
   54.4589    1.9386    3.8915 N   0  0  0  0  0  0  0  0  0  0  0  0
   58.6374   -1.7598    3.2746 O   0  0  0  0  0  0  0  0  0  0  0  0
   58.5074   -2.4161    3.9770 H   0  0  0  0  0  0  0  0  0  0  0  0
   54.1877    3.2674    3.8812 C   0  0  0  0  0  0  0  0  0  0  0  0
   52.8558    3.6724    4.1127 C   0  0  0  0  0  0  0  0  0  0  0  0
   52.5886    5.0381    4.0995 C   0  0  0  0  0  0  0  0  0  0  0  0
   53.5947    5.9968    3.8655 C   0  0  0  0  0  0  0  0  0  0  0  0
   54.8964    5.6078    3.6405 C   0  0  0  0  0  0  0  0  0  0  0  0
   55.1914    4.2431    3.6494 C   0  0  0  0  0  0  0  0  0  0  0  0
   51.7704    2.6532    4.3640 C   0  0  0  0  0  0  0  0  0  0  0  0
   50.9991    5.5595    4.3732 Cl  0  0  0  0  0  0  0  0  0  0  0  0
   53.3481    7.3829    3.8495 C   0  0  0  0  0  0  0  0  0  0  0  0
   53.0210    8.4770    3.8539 N   0  0  0  0  0  0  0  0  0  0  0  0
   58.2442    1.1969    6.2077 C   0  0  0  0  0  0  0  0  0  0  0  0
   59.4173    0.5819    6.2856 F   0  0  0  0  0  0  0  0  0  0  0  0
   57.3936    0.6460    7.0847 F   0  0  0  0  0  0  0  0  0  0  0  0
   58.3752    2.4629    6.5217 F   0  0  0  0  0  0  0  0  0  0  0  0
  5  1  1  0  0  0
  1  2  1  0  0  0
  6  2  1  0  0  0
  3  2  1  0  0  0
  4  3  1  0  0  0
  3  8  1  0  0  0
  5  4  1  0  0  0
  4 10  1  0  0  0
  9  6  2  0  0  0
  6  7  1  0  0  0
  7  8  1  0  0  0
  8 22  1  0  0  0
 12  9  1  0  0  0
 17 12  2  0  0  0
 12 13  1  0  0  0
 14 13  2  0  0  0
 13 18  1  0  0  0
 15 14  1  0  0  0
 14 19  1  0  0  0
 16 15  2  0  0  0
 20 15  1  0  0  0
 16 17  1  0  0  0
 21 20  3  0  0  0
 22 23  1  0  0  0
 22 25  1  0  0  0
 22 24  1  0  0  0
 10 11  1  0  0  0
M  END
> <minimizedAffinity>
-10.62190

$$$$
3G0W_LGB_A_1


 25 27  0  0  0  0  0  0  0  0999 V2000
   54.7305   -1.1502    3.4423 C   0  0  0  0  0  0  0  0  0  0  0  0
   55.1558   -0.2433    4.5387 N   0  0  0  0  0  0  0  0  0  0  0  0
   56.6173   -0.2159    4.5919 C   0  0  0  0  0  0  0  0  0  0  0  0
   57.0979   -0.7095    3.2106 C   0  0  0  0  0  0  0  0  0  0  0  0
   55.9860   -1.7348    2.7938 C   0  0  0  0  0  0  0  0  0  0  0  0
   54.8259    1.1310    4.5559 C   0  0  0  0  0  0  0  0  0  0  0  0
   55.8264    1.8724    5.0479 O   0  0  0  0  0  0  0  0  0  0  0  0
   57.0230    1.1833    5.0489 C   0  0  0  0  0  0  0  0  0  0  0  0
   53.6572    1.6264    4.1338 N   0  0  0  0  0  0  0  0  0  0  0  0
   58.3483   -1.3382    3.2840 O   0  0  0  0  0  0  0  0  0  0  0  0
   58.3006   -2.0814    3.9055 H   0  0  0  0  0  0  0  0  0  0  0  0
   53.1933    2.8949    4.2568 C   0  0  0  0  0  0  0  0  0  0  0  0
   53.9667    3.9384    3.7051 C   0  0  0  0  0  0  0  0  0  0  0  0
   53.4815    5.2361    3.8374 C   0  0  0  0  0  0  0  0  0  0  0  0
   52.2670    5.5193    4.4937 C   0  0  0  0  0  0  0  0  0  0  0  0
   51.5072    4.5051    5.0327 C   0  0  0  0  0  0  0  0  0  0  0  0
   51.9711    3.1937    4.9128 C   0  0  0  0  0  0  0  0  0  0  0  0
   55.2696    3.6457    3.0003 C   0  0  0  0  0  0  0  0  0  0  0  0
   54.3859    6.5137    3.1869 Cl  0  0  0  0  0  0  0  0  0  0  0  0
   51.7560    6.8233    4.6377 C   0  0  0  0  0  0  0  0  0  0  0  0
   51.4590    7.9132    4.8047 N   0  0  0  0  0  0  0  0  0  0  0  0
   57.4566    1.1811    6.5023 C   0  0  0  0  0  0  0  0  0  0  0  0
   58.7295    1.5521    6.5530 F   0  0  0  0  0  0  0  0  0  0  0  0
   57.3181   -0.0161    7.0886 F   0  0  0  0  0  0  0  0  0  0  0  0
   56.7099    2.0349    7.1594 F   0  0  0  0  0  0  0  0  0  0  0  0
  5  1  1  0  0  0
  1  2  1  0  0  0
  6  2  1  0  0  0
  3  2  1  0  0  0
  4  3  1  0  0  0
  3  8  1  0  0  0
  5  4  1  0  0  0
  4 10  1  0  0  0
  9  6  2  0  0  0
  6  7  1  0  0  0
  7  8  1  0  0  0
  8 22  1  0  0  0
 12  9  1  0  0  0
 17 12  2  0  0  0
 12 13  1  0  0  0
 14 13  2  0  0  0
 13 18  1  0  0  0
 15 14  1  0  0  0
 14 19  1  0  0  0
 16 15  2  0  0  0
 20 15  1  0  0  0
 16 17  1  0  0  0
 21 20  3  0  0  0
 22 23  1  0  0  0
 22 25  1  0  0  0
 22 24  1  0  0  0
 10 11  1  0  0  0
M  END
> <minimizedAffinity>
-7.75935

$$$$
