3WZ7_IXY_A_401


 39 43  0  0  0  0  0  0  0  0999 V2000
   39.0984    8.5706    5.2658 C   0  0  0  0  0  0  0  0  0  0  0  0
   39.5735    7.2168    5.7263 C   0  0  0  0  0  0  0  0  0  0  0  0
   40.9295    6.7247    6.2026 C   0  0  0  0  0  0  0  0  0  0  0  0
   41.8912    7.9193    6.1621 C   0  0  0  0  0  0  0  0  0  0  0  0
   41.5290    9.0733    5.2368 C   0  0  0  0  0  0  0  0  0  0  0  0
   40.1548    9.6195    5.5668 C   0  0  0  0  0  0  0  0  0  0  0  0
   38.7459    5.7992    5.8627 S   0  0  0  0  0  0  0  0  0  0  0  0
   39.6024    4.5361    6.4005 C   0  0  0  0  0  0  0  0  0  0  0  0
   40.9547    5.2301    6.5826 C   0  0  0  0  0  0  0  0  0  0  0  0
   41.9743    4.2447    7.0922 C   0  0  0  0  0  0  0  0  0  0  0  0
   42.2025    3.2406    6.4124 O   0  0  0  0  0  0  0  0  0  0  0  0
   42.6454    4.5271    8.2103 N   0  0  0  0  0  0  0  0  0  0  0  0
   42.4229    5.3614    8.6832 H   0  0  0  0  0  0  0  0  0  0  0  0
   43.6883    3.6778    8.7769 C   0  0  0  0  0  0  0  0  0  0  0  0
   44.7160    4.5623    9.4700 C   0  0  0  0  0  0  0  0  0  0  0  0
   44.4415    5.8981    9.7286 C   0  0  0  0  0  0  0  0  0  0  0  0
   45.3919    6.6859   10.3754 C   0  0  0  0  0  0  0  0  0  0  0  0
   46.6161    6.1544   10.7691 C   0  0  0  0  0  0  0  0  0  0  0  0
   46.8942    4.8163   10.5304 C   0  0  0  0  0  0  0  0  0  0  0  0
   45.9418    4.0328    9.8848 C   0  0  0  0  0  0  0  0  0  0  0  0
   39.2026    3.2767    6.6101 N   0  0  0  0  0  0  0  0  0  0  0  0
   39.1089    2.3617    5.6567 C   0  0  0  0  0  0  0  0  0  0  0  0
   39.3983    2.5832    4.4944 O   0  0  0  0  0  0  0  0  0  0  0  0
   38.9635    3.0142    7.5283 H   0  0  0  0  0  0  0  0  0  0  0  0
   38.6302    0.9971    6.0854 C   0  0  0  0  0  0  0  0  0  0  0  0
   39.6684    0.0058    5.8625 N   0  0  0  0  0  0  0  0  0  0  0  0
   40.0366    0.1675    4.9251 H   0  0  0  0  0  0  0  0  0  0  0  0
   40.8074   -0.0500    6.7592 C   0  0  0  0  0  0  0  0  0  0  0  0
   40.3958   -0.6710    8.0790 C   0  0  0  0  0  0  0  0  0  0  0  0
   40.5803    0.3386    9.1770 C   0  0  0  0  0  0  0  0  0  0  0  0
   39.6265    1.2280    9.6676 C   0  0  0  0  0  0  0  0  0  0  0  0
   40.1567    1.9933   10.6628 N   0  0  0  0  0  0  0  0  0  0  0  0
   41.4488    1.6434   10.8560 C   0  0  0  0  0  0  0  0  0  0  0  0
   41.7453    0.5623    9.8963 C   0  0  0  0  0  0  0  0  0  0  0  0
   43.0075   -0.0253    9.8331 C   0  0  0  0  0  0  0  0  0  0  0  0
   43.9860    0.4443   10.7030 C   0  0  0  0  0  0  0  0  0  0  0  0
   43.7146    1.4644   11.6168 C   0  0  0  0  0  0  0  0  0  0  0  0
   42.4577    2.0697   11.7107 C   0  0  0  0  0  0  0  0  0  0  0  0
   39.6749    2.6912   11.1627 H   0  0  0  0  0  0  0  0  0  0  0  0
  1  2  1  0  0  0
  1  6  1  0  0  0
  2  3  2  0  0  0
  2  7  1  0  0  0
  3  4  1  0  0  0
  3  9  1  0  0  0
  4  5  1  0  0  0
  5  6  1  0  0  0
  7  8  1  0  0  0
  8  9  2  0  0  0
  8 21  1  0  0  0
  9 10  1  0  0  0
 10 11  2  0  0  0
 10 12  1  0  0  0
 12 14  1  0  0  0
 14 15  1  0  0  0
 15 16  2  0  0  0
 15 20  1  0  0  0
 16 17  1  0  0  0
 17 18  2  0  0  0
 18 19  1  0  0  0
 19 20  2  0  0  0
 21 22  1  0  0  0
 22 23  2  0  0  0
 22 25  1  0  0  0
 25 26  1  0  0  0
 26 28  1  0  0  0
 28 29  1  0  0  0
 29 30  1  0  0  0
 30 31  2  0  0  0
 30 34  1  0  0  0
 31 32  1  0  0  0
 32 33  1  0  0  0
 33 34  2  0  0  0
 33 38  1  0  0  0
 34 35  1  0  0  0
 35 36  2  0  0  0
 36 37  1  0  0  0
 37 38  2  0  0  0
 12 13  1  0  0  0
 21 24  1  0  0  0
 26 27  1  0  0  0
 32 39  1  0  0  0
M  END
> <minimizedAffinity>
-9.21142

$$$$
3WZ7_IXY_A_401


 39 43  0  0  0  0  0  0  0  0999 V2000
   36.2808    5.3960    3.0333 C   0  0  0  0  0  0  0  0  0  0  0  0
   37.5429    5.1787    3.8274 C   0  0  0  0  0  0  0  0  0  0  0  0
   38.5385    4.0317    3.8576 C   0  0  0  0  0  0  0  0  0  0  0  0
   38.0557    2.9784    2.8519 C   0  0  0  0  0  0  0  0  0  0  0  0
   36.5782    2.9937    2.4837 C   0  0  0  0  0  0  0  0  0  0  0  0
   36.1709    4.3479    1.9395 C   0  0  0  0  0  0  0  0  0  0  0  0
   38.2632    6.1469    4.9484 S   0  0  0  0  0  0  0  0  0  0  0  0
   39.6283    5.5713    5.5989 C   0  0  0  0  0  0  0  0  0  0  0  0
   39.7067    4.2428    4.8422 C   0  0  0  0  0  0  0  0  0  0  0  0
   40.9299    3.4762    5.2740 C   0  0  0  0  0  0  0  0  0  0  0  0
   42.0364    3.9211    4.9576 O   0  0  0  0  0  0  0  0  0  0  0  0
   40.7793    2.3960    6.0426 N   0  0  0  0  0  0  0  0  0  0  0  0
   39.8633    2.1184    6.2731 H   0  0  0  0  0  0  0  0  0  0  0  0
   41.8860    1.5999    6.5633 C   0  0  0  0  0  0  0  0  0  0  0  0
   41.3495    0.6570    7.6320 C   0  0  0  0  0  0  0  0  0  0  0  0
   40.1401    0.9155    8.2622 C   0  0  0  0  0  0  0  0  0  0  0  0
   39.6621    0.0322    9.2285 C   0  0  0  0  0  0  0  0  0  0  0  0
   40.3784   -1.1098    9.5733 C   0  0  0  0  0  0  0  0  0  0  0  0
   41.5802   -1.3864    8.9377 C   0  0  0  0  0  0  0  0  0  0  0  0
   42.0537   -0.5019    7.9727 C   0  0  0  0  0  0  0  0  0  0  0  0
   40.4210    6.1290    6.5210 N   0  0  0  0  0  0  0  0  0  0  0  0
   41.2396    7.1420    6.2783 C   0  0  0  0  0  0  0  0  0  0  0  0
   41.3316    7.6729    5.1859 O   0  0  0  0  0  0  0  0  0  0  0  0
   40.3945    5.7647    7.4352 H   0  0  0  0  0  0  0  0  0  0  0  0
   42.0623    7.6301    7.4445 C   0  0  0  0  0  0  0  0  0  0  0  0
   43.3295    6.9221    7.4987 N   0  0  0  0  0  0  0  0  0  0  0  0
   43.9718    7.4158    6.8789 H   0  0  0  0  0  0  0  0  0  0  0  0
   44.0075    6.7668    8.7718 C   0  0  0  0  0  0  0  0  0  0  0  0
   43.2166    5.8348    9.6678 C   0  0  0  0  0  0  0  0  0  0  0  0
   44.0029    4.5718    9.8808 C   0  0  0  0  0  0  0  0  0  0  0  0
   45.3457    4.3582    9.5761 C   0  0  0  0  0  0  0  0  0  0  0  0
   45.7125    3.0881    9.9069 N   0  0  0  0  0  0  0  0  0  0  0  0
   44.6478    2.4361   10.4272 C   0  0  0  0  0  0  0  0  0  0  0  0
   43.5206    3.3884   10.4208 C   0  0  0  0  0  0  0  0  0  0  0  0
   42.2612    3.0245   10.8941 C   0  0  0  0  0  0  0  0  0  0  0  0
   42.0969    1.7280   11.3703 C   0  0  0  0  0  0  0  0  0  0  0  0
   43.1579    0.8205   11.3835 C   0  0  0  0  0  0  0  0  0  0  0  0
   44.4347    1.1559   10.9229 C   0  0  0  0  0  0  0  0  0  0  0  0
   46.6115    2.7052    9.7862 H   0  0  0  0  0  0  0  0  0  0  0  0
  1  2  1  0  0  0
  1  6  1  0  0  0
  2  3  2  0  0  0
  2  7  1  0  0  0
  3  4  1  0  0  0
  3  9  1  0  0  0
  4  5  1  0  0  0
  5  6  1  0  0  0
  7  8  1  0  0  0
  8  9  2  0  0  0
  8 21  1  0  0  0
  9 10  1  0  0  0
 10 11  2  0  0  0
 10 12  1  0  0  0
 12 14  1  0  0  0
 14 15  1  0  0  0
 15 16  2  0  0  0
 15 20  1  0  0  0
 16 17  1  0  0  0
 17 18  2  0  0  0
 18 19  1  0  0  0
 19 20  2  0  0  0
 21 22  1  0  0  0
 22 23  2  0  0  0
 22 25  1  0  0  0
 25 26  1  0  0  0
 26 28  1  0  0  0
 28 29  1  0  0  0
 29 30  1  0  0  0
 30 31  2  0  0  0
 30 34  1  0  0  0
 31 32  1  0  0  0
 32 33  1  0  0  0
 33 34  2  0  0  0
 33 38  1  0  0  0
 34 35  1  0  0  0
 35 36  2  0  0  0
 36 37  1  0  0  0
 37 38  2  0  0  0
 12 13  1  0  0  0
 21 24  1  0  0  0
 26 27  1  0  0  0
 32 39  1  0  0  0
M  END
> <minimizedAffinity>
-9.03556

$$$$
3WZ7_IXY_A_401


 39 43  0  0  0  0  0  0  0  0999 V2000
   38.7208    4.2339    6.5263 C   0  0  0  0  0  0  0  0  0  0  0  0
   40.1201    4.7146    6.8119 C   0  0  0  0  0  0  0  0  0  0  0  0
   40.7721    6.0799    6.6758 C   0  0  0  0  0  0  0  0  0  0  0  0
   39.7046    7.0477    6.1490 C   0  0  0  0  0  0  0  0  0  0  0  0
   38.5200    6.4412    5.4088 C   0  0  0  0  0  0  0  0  0  0  0  0
   37.8076    5.4209    6.2732 C   0  0  0  0  0  0  0  0  0  0  0  0
   41.4248    3.8846    7.3794 S   0  0  0  0  0  0  0  0  0  0  0  0
   42.7804    4.7490    7.5622 C   0  0  0  0  0  0  0  0  0  0  0  0
   42.2564    6.1090    7.0939 C   0  0  0  0  0  0  0  0  0  0  0  0
   43.3566    7.1361    7.1639 C   0  0  0  0  0  0  0  0  0  0  0  0
   44.1253    7.2308    6.2034 O   0  0  0  0  0  0  0  0  0  0  0  0
   43.4139    7.9530    8.2174 N   0  0  0  0  0  0  0  0  0  0  0  0
   42.7484    7.8303    8.9325 H   0  0  0  0  0  0  0  0  0  0  0  0
   44.4002    9.0167    8.3769 C   0  0  0  0  0  0  0  0  0  0  0  0
   45.5583    8.4881    9.2127 C   0  0  0  0  0  0  0  0  0  0  0  0
   45.4988    8.5093   10.5992 C   0  0  0  0  0  0  0  0  0  0  0  0
   46.5650    8.0087   11.3441 C   0  0  0  0  0  0  0  0  0  0  0  0
   47.6927    7.4848   10.7197 C   0  0  0  0  0  0  0  0  0  0  0  0
   47.7555    7.4435    9.3343 C   0  0  0  0  0  0  0  0  0  0  0  0
   46.6880    7.9439    8.5941 C   0  0  0  0  0  0  0  0  0  0  0  0
   43.9801    4.3495    7.9992 N   0  0  0  0  0  0  0  0  0  0  0  0
   44.4768    4.6620    9.1868 C   0  0  0  0  0  0  0  0  0  0  0  0
   43.8714    5.3341   10.0027 O   0  0  0  0  0  0  0  0  0  0  0  0
   44.5269    3.7895    7.4020 H   0  0  0  0  0  0  0  0  0  0  0  0
   45.8517    4.1254    9.4981 C   0  0  0  0  0  0  0  0  0  0  0  0
   45.7765    3.1268   10.5504 N   0  0  0  0  0  0  0  0  0  0  0  0
   45.4017    3.5937   11.3762 H   0  0  0  0  0  0  0  0  0  0  0  0
   44.9818    1.9306   10.3449 C   0  0  0  0  0  0  0  0  0  0  0  0
   44.1158    1.6706   11.5612 C   0  0  0  0  0  0  0  0  0  0  0  0
   42.6883    1.5025   11.1223 C   0  0  0  0  0  0  0  0  0  0  0  0
   41.7263    2.5025   10.9958 C   0  0  0  0  0  0  0  0  0  0  0  0
   40.5427    1.9738   10.5753 N   0  0  0  0  0  0  0  0  0  0  0  0
   40.6810    0.6379   10.4159 C   0  0  0  0  0  0  0  0  0  0  0  0
   42.0763    0.3094   10.7663 C   0  0  0  0  0  0  0  0  0  0  0  0
   42.5489   -1.0006   10.7102 C   0  0  0  0  0  0  0  0  0  0  0  0
   41.6593   -1.9948   10.3168 C   0  0  0  0  0  0  0  0  0  0  0  0
   40.3382   -1.6939    9.9802 C   0  0  0  0  0  0  0  0  0  0  0  0
   39.8349   -0.3900   10.0190 C   0  0  0  0  0  0  0  0  0  0  0  0
   39.7166    2.4842   10.4130 H   0  0  0  0  0  0  0  0  0  0  0  0
  1  2  1  0  0  0
  1  6  1  0  0  0
  2  3  2  0  0  0
  2  7  1  0  0  0
  3  4  1  0  0  0
  3  9  1  0  0  0
  4  5  1  0  0  0
  5  6  1  0  0  0
  7  8  1  0  0  0
  8  9  2  0  0  0
  8 21  1  0  0  0
  9 10  1  0  0  0
 10 11  2  0  0  0
 10 12  1  0  0  0
 12 14  1  0  0  0
 14 15  1  0  0  0
 15 16  2  0  0  0
 15 20  1  0  0  0
 16 17  1  0  0  0
 17 18  2  0  0  0
 18 19  1  0  0  0
 19 20  2  0  0  0
 21 22  1  0  0  0
 22 23  2  0  0  0
 22 25  1  0  0  0
 25 26  1  0  0  0
 26 28  1  0  0  0
 28 29  1  0  0  0
 29 30  1  0  0  0
 30 31  2  0  0  0
 30 34  1  0  0  0
 31 32  1  0  0  0
 32 33  1  0  0  0
 33 34  2  0  0  0
 33 38  1  0  0  0
 34 35  1  0  0  0
 35 36  2  0  0  0
 36 37  1  0  0  0
 37 38  2  0  0  0
 12 13  1  0  0  0
 21 24  1  0  0  0
 26 27  1  0  0  0
 32 39  1  0  0  0
M  END
> <minimizedAffinity>
-8.96830

$$$$
3WZ7_IXY_A_401


 39 43  0  0  0  0  0  0  0  0999 V2000
   47.0761   10.4968   12.8487 C   0  0  0  0  0  0  0  0  0  0  0  0
   46.7323    9.4007   11.8737 C   0  0  0  0  0  0  0  0  0  0  0  0
   47.1384    7.9384   11.8054 C   0  0  0  0  0  0  0  0  0  0  0  0
   48.0575    7.6612   13.0021 C   0  0  0  0  0  0  0  0  0  0  0  0
   48.7685    8.8553   13.6247 C   0  0  0  0  0  0  0  0  0  0  0  0
   47.7720    9.9087   14.0639 C   0  0  0  0  0  0  0  0  0  0  0  0
   45.7776    9.4441   10.5320 S   0  0  0  0  0  0  0  0  0  0  0  0
   45.6421    8.0497    9.7223 C   0  0  0  0  0  0  0  0  0  0  0  0
   46.5334    7.1760   10.6089 C   0  0  0  0  0  0  0  0  0  0  0  0
   46.5865    5.7733   10.0615 C   0  0  0  0  0  0  0  0  0  0  0  0
   47.6361    5.3942    9.5351 O   0  0  0  0  0  0  0  0  0  0  0  0
   45.5342    4.9711   10.2327 N   0  0  0  0  0  0  0  0  0  0  0  0
   44.7417    5.3404   10.6853 H   0  0  0  0  0  0  0  0  0  0  0  0
   45.4832    3.5808    9.7916 C   0  0  0  0  0  0  0  0  0  0  0  0
   44.2541    2.9196   10.4008 C   0  0  0  0  0  0  0  0  0  0  0  0
   43.0067    3.5212   10.3078 C   0  0  0  0  0  0  0  0  0  0  0  0
   41.8933    2.8921   10.8616 C   0  0  0  0  0  0  0  0  0  0  0  0
   42.0103    1.6655   11.5081 C   0  0  0  0  0  0  0  0  0  0  0  0
   43.2496    1.0474   11.5922 C   0  0  0  0  0  0  0  0  0  0  0  0
   44.3589    1.6790   11.0371 C   0  0  0  0  0  0  0  0  0  0  0  0
   44.9439    7.7863    8.6120 N   0  0  0  0  0  0  0  0  0  0  0  0
   43.7032    7.3219    8.6107 C   0  0  0  0  0  0  0  0  0  0  0  0
   43.0746    7.1073    9.6318 O   0  0  0  0  0  0  0  0  0  0  0  0
   45.3784    7.9473    7.7434 H   0  0  0  0  0  0  0  0  0  0  0  0
   43.0829    7.0774    7.2577 C   0  0  0  0  0  0  0  0  0  0  0  0
   42.2117    5.9160    7.3052 N   0  0  0  0  0  0  0  0  0  0  0  0
   41.4718    6.0720    6.6207 H   0  0  0  0  0  0  0  0  0  0  0  0
   42.7607    4.5996    7.0403 C   0  0  0  0  0  0  0  0  0  0  0  0
   41.8459    3.8375    6.1026 C   0  0  0  0  0  0  0  0  0  0  0  0
   40.8010    3.1196    6.9098 C   0  0  0  0  0  0  0  0  0  0  0  0
   39.5113    3.5625    7.1960 C   0  0  0  0  0  0  0  0  0  0  0  0
   38.8509    2.6448    7.9570 N   0  0  0  0  0  0  0  0  0  0  0  0
   39.6651    1.5912    8.1941 C   0  0  0  0  0  0  0  0  0  0  0  0
   40.9439    1.8804    7.5171 C   0  0  0  0  0  0  0  0  0  0  0  0
   42.0110    0.9854    7.5698 C   0  0  0  0  0  0  0  0  0  0  0  0
   41.8348   -0.1925    8.2883 C   0  0  0  0  0  0  0  0  0  0  0  0
   40.6278   -0.4769    8.9297 C   0  0  0  0  0  0  0  0  0  0  0  0
   39.5360    0.3958    8.8902 C   0  0  0  0  0  0  0  0  0  0  0  0
   37.9263    2.7348    8.2830 H   0  0  0  0  0  0  0  0  0  0  0  0
  1  2  1  0  0  0
  1  6  1  0  0  0
  2  3  2  0  0  0
  2  7  1  0  0  0
  3  4  1  0  0  0
  3  9  1  0  0  0
  4  5  1  0  0  0
  5  6  1  0  0  0
  7  8  1  0  0  0
  8  9  2  0  0  0
  8 21  1  0  0  0
  9 10  1  0  0  0
 10 11  2  0  0  0
 10 12  1  0  0  0
 12 14  1  0  0  0
 14 15  1  0  0  0
 15 16  2  0  0  0
 15 20  1  0  0  0
 16 17  1  0  0  0
 17 18  2  0  0  0
 18 19  1  0  0  0
 19 20  2  0  0  0
 21 22  1  0  0  0
 22 23  2  0  0  0
 22 25  1  0  0  0
 25 26  1  0  0  0
 26 28  1  0  0  0
 28 29  1  0  0  0
 29 30  1  0  0  0
 30 31  2  0  0  0
 30 34  1  0  0  0
 31 32  1  0  0  0
 32 33  1  0  0  0
 33 34  2  0  0  0
 33 38  1  0  0  0
 34 35  1  0  0  0
 35 36  2  0  0  0
 36 37  1  0  0  0
 37 38  2  0  0  0
 12 13  1  0  0  0
 21 24  1  0  0  0
 26 27  1  0  0  0
 32 39  1  0  0  0
M  END
> <minimizedAffinity>
-8.85454

$$$$
3WZ7_IXY_A_401


 39 43  0  0  0  0  0  0  0  0999 V2000
   36.1221    2.1056    3.0532 C   0  0  0  0  0  0  0  0  0  0  0  0
   37.2025    2.4915    4.0300 C   0  0  0  0  0  0  0  0  0  0  0  0
   38.1052    1.6605    4.9258 C   0  0  0  0  0  0  0  0  0  0  0  0
   37.7518    0.1860    4.6923 C   0  0  0  0  0  0  0  0  0  0  0  0
   36.3699   -0.1175    4.1290 C   0  0  0  0  0  0  0  0  0  0  0  0
   36.1510    0.6057    2.8157 C   0  0  0  0  0  0  0  0  0  0  0  0
   37.7629    3.9831    4.4475 S   0  0  0  0  0  0  0  0  0  0  0  0
   38.9492    4.0040    5.5476 C   0  0  0  0  0  0  0  0  0  0  0  0
   39.0845    2.4961    5.7753 C   0  0  0  0  0  0  0  0  0  0  0  0
   40.1600    2.2243    6.7949 C   0  0  0  0  0  0  0  0  0  0  0  0
   40.2674    3.0009    7.7476 O   0  0  0  0  0  0  0  0  0  0  0  0
   40.9010    1.1210    6.6761 N   0  0  0  0  0  0  0  0  0  0  0  0
   40.7378    0.5375    5.9001 H   0  0  0  0  0  0  0  0  0  0  0  0
   41.9379    0.7243    7.6234 C   0  0  0  0  0  0  0  0  0  0  0  0
   41.3399   -0.2617    8.6180 C   0  0  0  0  0  0  0  0  0  0  0  0
   42.1583   -1.0915    9.3719 C   0  0  0  0  0  0  0  0  0  0  0  0
   41.5900   -1.9774   10.2854 C   0  0  0  0  0  0  0  0  0  0  0  0
   40.2108   -2.0445   10.4565 C   0  0  0  0  0  0  0  0  0  0  0  0
   39.3845   -1.2079    9.7200 C   0  0  0  0  0  0  0  0  0  0  0  0
   39.9562   -0.3240    8.8093 C   0  0  0  0  0  0  0  0  0  0  0  0
   39.5923    5.0537    6.0713 N   0  0  0  0  0  0  0  0  0  0  0  0
   40.6589    5.6168    5.5233 C   0  0  0  0  0  0  0  0  0  0  0  0
   41.1441    5.2355    4.4731 O   0  0  0  0  0  0  0  0  0  0  0  0
   39.2523    5.4305    6.9149 H   0  0  0  0  0  0  0  0  0  0  0  0
   41.2524    6.7873    6.2667 C   0  0  0  0  0  0  0  0  0  0  0  0
   42.6283    6.5040    6.6367 N   0  0  0  0  0  0  0  0  0  0  0  0
   42.9867    7.3359    7.1057 H   0  0  0  0  0  0  0  0  0  0  0  0
   42.9180    5.3750    7.5004 C   0  0  0  0  0  0  0  0  0  0  0  0
   43.7592    5.8273    8.6772 C   0  0  0  0  0  0  0  0  0  0  0  0
   44.3744    4.6237    9.3341 C   0  0  0  0  0  0  0  0  0  0  0  0
   45.7157    4.2473    9.3073 C   0  0  0  0  0  0  0  0  0  0  0  0
   45.9013    3.0967   10.0138 N   0  0  0  0  0  0  0  0  0  0  0  0
   44.7155    2.6846   10.5169 C   0  0  0  0  0  0  0  0  0  0  0  0
   43.7046    3.6695   10.0860 C   0  0  0  0  0  0  0  0  0  0  0  0
   42.3631    3.5333   10.4386 C   0  0  0  0  0  0  0  0  0  0  0  0
   42.0033    2.4322   11.2085 C   0  0  0  0  0  0  0  0  0  0  0  0
   42.9525    1.4965   11.6238 C   0  0  0  0  0  0  0  0  0  0  0  0
   44.3066    1.6077   11.2936 C   0  0  0  0  0  0  0  0  0  0  0  0
   46.7633    2.6377   10.1383 H   0  0  0  0  0  0  0  0  0  0  0  0
  1  2  1  0  0  0
  1  6  1  0  0  0
  2  3  2  0  0  0
  2  7  1  0  0  0
  3  4  1  0  0  0
  3  9  1  0  0  0
  4  5  1  0  0  0
  5  6  1  0  0  0
  7  8  1  0  0  0
  8  9  2  0  0  0
  8 21  1  0  0  0
  9 10  1  0  0  0
 10 11  2  0  0  0
 10 12  1  0  0  0
 12 14  1  0  0  0
 14 15  1  0  0  0
 15 16  2  0  0  0
 15 20  1  0  0  0
 16 17  1  0  0  0
 17 18  2  0  0  0
 18 19  1  0  0  0
 19 20  2  0  0  0
 21 22  1  0  0  0
 22 23  2  0  0  0
 22 25  1  0  0  0
 25 26  1  0  0  0
 26 28  1  0  0  0
 28 29  1  0  0  0
 29 30  1  0  0  0
 30 31  2  0  0  0
 30 34  1  0  0  0
 31 32  1  0  0  0
 32 33  1  0  0  0
 33 34  2  0  0  0
 33 38  1  0  0  0
 34 35  1  0  0  0
 35 36  2  0  0  0
 36 37  1  0  0  0
 37 38  2  0  0  0
 12 13  1  0  0  0
 21 24  1  0  0  0
 26 27  1  0  0  0
 32 39  1  0  0  0
M  END
> <minimizedAffinity>
-8.83609

$$$$
3WZ7_IXY_A_401


 39 43  0  0  0  0  0  0  0  0999 V2000
   40.0022    5.5361    6.1533 C   0  0  0  0  0  0  0  0  0  0  0  0
   41.1770    5.2964    7.0659 C   0  0  0  0  0  0  0  0  0  0  0  0
   42.3198    6.1948    7.5071 C   0  0  0  0  0  0  0  0  0  0  0  0
   42.1170    7.5587    6.8346 C   0  0  0  0  0  0  0  0  0  0  0  0
   41.2651    7.5927    5.5728 C   0  0  0  0  0  0  0  0  0  0  0  0
   39.8884    7.0169    5.8347 C   0  0  0  0  0  0  0  0  0  0  0  0
   41.6059    3.9415    7.8988 S   0  0  0  0  0  0  0  0  0  0  0  0
   42.9519    4.0621    8.7887 C   0  0  0  0  0  0  0  0  0  0  0  0
   43.3144    5.5149    8.4701 C   0  0  0  0  0  0  0  0  0  0  0  0
   44.5774    5.9009    9.1954 C   0  0  0  0  0  0  0  0  0  0  0  0
   45.6139    5.2894    8.9234 O   0  0  0  0  0  0  0  0  0  0  0  0
   44.5488    6.9324   10.0414 N   0  0  0  0  0  0  0  0  0  0  0  0
   43.6871    7.3857   10.1866 H   0  0  0  0  0  0  0  0  0  0  0  0
   45.7139    7.4312   10.7651 C   0  0  0  0  0  0  0  0  0  0  0  0
   46.3359    8.5683    9.9656 C   0  0  0  0  0  0  0  0  0  0  0  0
   47.6771    8.5331    9.6099 C   0  0  0  0  0  0  0  0  0  0  0  0
   48.2224    9.5787    8.8672 C   0  0  0  0  0  0  0  0  0  0  0  0
   47.4425   10.6616    8.4734 C   0  0  0  0  0  0  0  0  0  0  0  0
   46.0968   10.6989    8.8094 C   0  0  0  0  0  0  0  0  0  0  0  0
   45.5561    9.6521    9.5506 C   0  0  0  0  0  0  0  0  0  0  0  0
   43.5355    3.1382    9.5604 N   0  0  0  0  0  0  0  0  0  0  0  0
   43.0326    2.7074   10.7078 C   0  0  0  0  0  0  0  0  0  0  0  0
   41.9736    3.1060   11.1588 O   0  0  0  0  0  0  0  0  0  0  0  0
   44.3904    2.7553    9.2573 H   0  0  0  0  0  0  0  0  0  0  0  0
   43.8406    1.6669   11.4424 C   0  0  0  0  0  0  0  0  0  0  0  0
   43.1626    0.3828   11.4041 N   0  0  0  0  0  0  0  0  0  0  0  0
   42.1672    0.5692   11.5257 H   0  0  0  0  0  0  0  0  0  0  0  0
   43.2937   -0.4597   10.2304 C   0  0  0  0  0  0  0  0  0  0  0  0
   41.9567   -1.0893    9.8945 C   0  0  0  0  0  0  0  0  0  0  0  0
   41.5131   -0.6102    8.5408 C   0  0  0  0  0  0  0  0  0  0  0  0
   42.1003   -0.9061    7.3123 C   0  0  0  0  0  0  0  0  0  0  0  0
   41.4246   -0.2909    6.3013 N   0  0  0  0  0  0  0  0  0  0  0  0
   40.3939    0.4165    6.8177 C   0  0  0  0  0  0  0  0  0  0  0  0
   40.4326    0.2199    8.2797 C   0  0  0  0  0  0  0  0  0  0  0  0
   39.4970    0.8241    9.1176 C   0  0  0  0  0  0  0  0  0  0  0  0
   38.5238    1.6266    8.5314 C   0  0  0  0  0  0  0  0  0  0  0  0
   38.4768    1.8163    7.1490 C   0  0  0  0  0  0  0  0  0  0  0  0
   39.3954    1.2192    6.2804 C   0  0  0  0  0  0  0  0  0  0  0  0
   41.6511   -0.3518    5.3452 H   0  0  0  0  0  0  0  0  0  0  0  0
  1  2  1  0  0  0
  1  6  1  0  0  0
  2  3  2  0  0  0
  2  7  1  0  0  0
  3  4  1  0  0  0
  3  9  1  0  0  0
  4  5  1  0  0  0
  5  6  1  0  0  0
  7  8  1  0  0  0
  8  9  2  0  0  0
  8 21  1  0  0  0
  9 10  1  0  0  0
 10 11  2  0  0  0
 10 12  1  0  0  0
 12 14  1  0  0  0
 14 15  1  0  0  0
 15 16  2  0  0  0
 15 20  1  0  0  0
 16 17  1  0  0  0
 17 18  2  0  0  0
 18 19  1  0  0  0
 19 20  2  0  0  0
 21 22  1  0  0  0
 22 23  2  0  0  0
 22 25  1  0  0  0
 25 26  1  0  0  0
 26 28  1  0  0  0
 28 29  1  0  0  0
 29 30  1  0  0  0
 30 31  2  0  0  0
 30 34  1  0  0  0
 31 32  1  0  0  0
 32 33  1  0  0  0
 33 34  2  0  0  0
 33 38  1  0  0  0
 34 35  1  0  0  0
 35 36  2  0  0  0
 36 37  1  0  0  0
 37 38  2  0  0  0
 12 13  1  0  0  0
 21 24  1  0  0  0
 26 27  1  0  0  0
 32 39  1  0  0  0
M  END
> <minimizedAffinity>
-8.69289

$$$$
3WZ7_IXY_A_401


 39 43  0  0  0  0  0  0  0  0999 V2000
   44.2583   11.6361    9.2430 C   0  0  0  0  0  0  0  0  0  0  0  0
   44.3913   10.1736    8.9056 C   0  0  0  0  0  0  0  0  0  0  0  0
   45.2953    9.0831    9.4548 C   0  0  0  0  0  0  0  0  0  0  0  0
   46.1736    9.7187   10.5403 C   0  0  0  0  0  0  0  0  0  0  0  0
   46.3707   11.2276   10.4809 C   0  0  0  0  0  0  0  0  0  0  0  0
   45.0381   11.9480   10.5086 C   0  0  0  0  0  0  0  0  0  0  0  0
   43.5726    9.2678    7.7999 S   0  0  0  0  0  0  0  0  0  0  0  0
   43.9955    7.7080    7.7198 C   0  0  0  0  0  0  0  0  0  0  0  0
   45.0803    7.7033    8.8000 C   0  0  0  0  0  0  0  0  0  0  0  0
   45.6650    6.3213    8.9359 C   0  0  0  0  0  0  0  0  0  0  0  0
   46.8065    6.1286    8.5089 O   0  0  0  0  0  0  0  0  0  0  0  0
   44.9662    5.3826    9.5768 N   0  0  0  0  0  0  0  0  0  0  0  0
   44.0714    5.6216    9.9108 H   0  0  0  0  0  0  0  0  0  0  0  0
   45.4438    4.0242    9.8142 C   0  0  0  0  0  0  0  0  0  0  0  0
   44.3092    3.2050   10.4146 C   0  0  0  0  0  0  0  0  0  0  0  0
   42.9869    3.5855   10.2314 C   0  0  0  0  0  0  0  0  0  0  0  0
   41.9639    2.8138   10.7794 C   0  0  0  0  0  0  0  0  0  0  0  0
   42.2457    1.6631   11.5091 C   0  0  0  0  0  0  0  0  0  0  0  0
   43.5631    1.2647   11.6842 C   0  0  0  0  0  0  0  0  0  0  0  0
   44.5818    2.0379   11.1347 C   0  0  0  0  0  0  0  0  0  0  0  0
   43.5102    6.7446    6.9286 N   0  0  0  0  0  0  0  0  0  0  0  0
   42.5524    5.9034    7.2891 C   0  0  0  0  0  0  0  0  0  0  0  0
   42.0101    5.9438    8.3791 O   0  0  0  0  0  0  0  0  0  0  0  0
   43.8877    6.6554    6.0238 H   0  0  0  0  0  0  0  0  0  0  0  0
   42.1428    4.8777    6.2619 C   0  0  0  0  0  0  0  0  0  0  0  0
   40.7060    4.9202    6.0523 N   0  0  0  0  0  0  0  0  0  0  0  0
   40.5524    4.8962    5.0442 H   0  0  0  0  0  0  0  0  0  0  0  0
   39.8685    3.8869    6.6314 C   0  0  0  0  0  0  0  0  0  0  0  0
   40.5701    2.5461    6.5476 C   0  0  0  0  0  0  0  0  0  0  0  0
   40.0339    1.6419    7.6217 C   0  0  0  0  0  0  0  0  0  0  0  0
   38.7611    1.6748    8.1878 C   0  0  0  0  0  0  0  0  0  0  0  0
   38.6361    0.7027    9.1347 N   0  0  0  0  0  0  0  0  0  0  0  0
   39.7964    0.0133    9.2239 C   0  0  0  0  0  0  0  0  0  0  0  0
   40.7227    0.6099    8.2423 C   0  0  0  0  0  0  0  0  0  0  0  0
   42.0203    0.1266    8.0830 C   0  0  0  0  0  0  0  0  0  0  0  0
   42.4194   -0.9371    8.8854 C   0  0  0  0  0  0  0  0  0  0  0  0
   41.5495   -1.5105    9.8148 C   0  0  0  0  0  0  0  0  0  0  0  0
   40.2400   -1.0544    9.9941 C   0  0  0  0  0  0  0  0  0  0  0  0
   37.8282    0.5294    9.6698 H   0  0  0  0  0  0  0  0  0  0  0  0
  1  2  1  0  0  0
  1  6  1  0  0  0
  2  3  2  0  0  0
  2  7  1  0  0  0
  3  4  1  0  0  0
  3  9  1  0  0  0
  4  5  1  0  0  0
  5  6  1  0  0  0
  7  8  1  0  0  0
  8  9  2  0  0  0
  8 21  1  0  0  0
  9 10  1  0  0  0
 10 11  2  0  0  0
 10 12  1  0  0  0
 12 14  1  0  0  0
 14 15  1  0  0  0
 15 16  2  0  0  0
 15 20  1  0  0  0
 16 17  1  0  0  0
 17 18  2  0  0  0
 18 19  1  0  0  0
 19 20  2  0  0  0
 21 22  1  0  0  0
 22 23  2  0  0  0
 22 25  1  0  0  0
 25 26  1  0  0  0
 26 28  1  0  0  0
 28 29  1  0  0  0
 29 30  1  0  0  0
 30 31  2  0  0  0
 30 34  1  0  0  0
 31 32  1  0  0  0
 32 33  1  0  0  0
 33 34  2  0  0  0
 33 38  1  0  0  0
 34 35  1  0  0  0
 35 36  2  0  0  0
 36 37  1  0  0  0
 37 38  2  0  0  0
 12 13  1  0  0  0
 21 24  1  0  0  0
 26 27  1  0  0  0
 32 39  1  0  0  0
M  END
> <minimizedAffinity>
-8.67668

$$$$
3WZ7_IXY_A_401


 39 43  0  0  0  0  0  0  0  0999 V2000
   44.8598    5.6255    9.6478 C   0  0  0  0  0  0  0  0  0  0  0  0
   43.6680    5.4657    8.7398 C   0  0  0  0  0  0  0  0  0  0  0  0
   43.0597    6.3824    7.6922 C   0  0  0  0  0  0  0  0  0  0  0  0
   43.9091    7.6593    7.6510 C   0  0  0  0  0  0  0  0  0  0  0  0
   44.7361    7.9851    8.8875 C   0  0  0  0  0  0  0  0  0  0  0  0
   45.6687    6.8414    9.2305 C   0  0  0  0  0  0  0  0  0  0  0  0
   42.6158    4.2070    8.5926 S   0  0  0  0  0  0  0  0  0  0  0  0
   41.4427    4.3982    7.4947 C   0  0  0  0  0  0  0  0  0  0  0  0
   41.8183    5.7942    6.9909 C   0  0  0  0  0  0  0  0  0  0  0  0
   40.8505    6.2332    5.9227 C   0  0  0  0  0  0  0  0  0  0  0  0
   40.9829    5.7632    4.7896 O   0  0  0  0  0  0  0  0  0  0  0  0
   39.8459    7.0466    6.2538 N   0  0  0  0  0  0  0  0  0  0  0  0
   39.7940    7.3592    7.1859 H   0  0  0  0  0  0  0  0  0  0  0  0
   38.8193    7.5023    5.3220 C   0  0  0  0  0  0  0  0  0  0  0  0
   38.9281    9.0142    5.1759 C   0  0  0  0  0  0  0  0  0  0  0  0
   38.4205    9.6557    4.0546 C   0  0  0  0  0  0  0  0  0  0  0  0
   38.5199   11.0417    3.9476 C   0  0  0  0  0  0  0  0  0  0  0  0
   39.1206   11.7971    4.9498 C   0  0  0  0  0  0  0  0  0  0  0  0
   39.6164   11.1677    6.0825 C   0  0  0  0  0  0  0  0  0  0  0  0
   39.5144    9.7833    6.1856 C   0  0  0  0  0  0  0  0  0  0  0  0
   40.4587    3.5560    7.1598 N   0  0  0  0  0  0  0  0  0  0  0  0
   40.5649    2.6311    6.2173 C   0  0  0  0  0  0  0  0  0  0  0  0
   41.5852    2.4518    5.5765 O   0  0  0  0  0  0  0  0  0  0  0  0
   39.6039    3.6279    7.6430 H   0  0  0  0  0  0  0  0  0  0  0  0
   39.3432    1.7802    5.9757 C   0  0  0  0  0  0  0  0  0  0  0  0
   39.6987    0.3718    5.9924 N   0  0  0  0  0  0  0  0  0  0  0  0
   40.7159    0.3220    5.9357 H   0  0  0  0  0  0  0  0  0  0  0  0
   39.2979   -0.4531    7.1164 C   0  0  0  0  0  0  0  0  0  0  0  0
   40.5028   -0.7722    7.9785 C   0  0  0  0  0  0  0  0  0  0  0  0
   40.5768    0.2176    9.1070 C   0  0  0  0  0  0  0  0  0  0  0  0
   39.5279    0.9676    9.6350 C   0  0  0  0  0  0  0  0  0  0  0  0
   39.9735    1.7607   10.6498 N   0  0  0  0  0  0  0  0  0  0  0  0
   41.3011    1.5658   10.8197 C   0  0  0  0  0  0  0  0  0  0  0  0
   41.7149    0.5598    9.8226 C   0  0  0  0  0  0  0  0  0  0  0  0
   43.0386    0.1335    9.7289 C   0  0  0  0  0  0  0  0  0  0  0  0
   43.9635    0.6920   10.6048 C   0  0  0  0  0  0  0  0  0  0  0  0
   43.5815    1.6421   11.5537 C   0  0  0  0  0  0  0  0  0  0  0  0
   42.2614    2.0856   11.6787 C   0  0  0  0  0  0  0  0  0  0  0  0
   39.4166    2.3784   11.1765 H   0  0  0  0  0  0  0  0  0  0  0  0
  1  2  1  0  0  0
  1  6  1  0  0  0
  2  3  2  0  0  0
  2  7  1  0  0  0
  3  4  1  0  0  0
  3  9  1  0  0  0
  4  5  1  0  0  0
  5  6  1  0  0  0
  7  8  1  0  0  0
  8  9  2  0  0  0
  8 21  1  0  0  0
  9 10  1  0  0  0
 10 11  2  0  0  0
 10 12  1  0  0  0
 12 14  1  0  0  0
 14 15  1  0  0  0
 15 16  2  0  0  0
 15 20  1  0  0  0
 16 17  1  0  0  0
 17 18  2  0  0  0
 18 19  1  0  0  0
 19 20  2  0  0  0
 21 22  1  0  0  0
 22 23  2  0  0  0
 22 25  1  0  0  0
 25 26  1  0  0  0
 26 28  1  0  0  0
 28 29  1  0  0  0
 29 30  1  0  0  0
 30 31  2  0  0  0
 30 34  1  0  0  0
 31 32  1  0  0  0
 32 33  1  0  0  0
 33 34  2  0  0  0
 33 38  1  0  0  0
 34 35  1  0  0  0
 35 36  2  0  0  0
 36 37  1  0  0  0
 37 38  2  0  0  0
 12 13  1  0  0  0
 21 24  1  0  0  0
 26 27  1  0  0  0
 32 39  1  0  0  0
M  END
> <minimizedAffinity>
-8.65777

$$$$
3WZ7_IXY_A_401


 39 43  0  0  0  0  0  0  0  0999 V2000
   40.2770    8.9031    5.6523 C   0  0  0  0  0  0  0  0  0  0  0  0
   40.8441    7.5901    6.1266 C   0  0  0  0  0  0  0  0  0  0  0  0
   40.2575    6.1896    6.1765 C   0  0  0  0  0  0  0  0  0  0  0  0
   38.8338    6.2682    5.6104 C   0  0  0  0  0  0  0  0  0  0  0  0
   38.1477    7.6274    5.6384 C   0  0  0  0  0  0  0  0  0  0  0  0
   38.9749    8.6652    4.9074 C   0  0  0  0  0  0  0  0  0  0  0  0
   42.3255    7.2489    6.7607 S   0  0  0  0  0  0  0  0  0  0  0  0
   42.5779    5.7014    7.1603 C   0  0  0  0  0  0  0  0  0  0  0  0
   41.2186    5.1286    6.7504 C   0  0  0  0  0  0  0  0  0  0  0  0
   41.1796    3.6480    7.0271 C   0  0  0  0  0  0  0  0  0  0  0  0
   41.8357    2.9024    6.2950 O   0  0  0  0  0  0  0  0  0  0  0  0
   40.5067    3.2056    8.0910 N   0  0  0  0  0  0  0  0  0  0  0  0
   40.0283    3.8669    8.6415 H   0  0  0  0  0  0  0  0  0  0  0  0
   40.4349    1.8038    8.4904 C   0  0  0  0  0  0  0  0  0  0  0  0
   41.5121    1.5368    9.5332 C   0  0  0  0  0  0  0  0  0  0  0  0
   42.4417    0.5228    9.3477 C   0  0  0  0  0  0  0  0  0  0  0  0
   43.4266    0.3044   10.3091 C   0  0  0  0  0  0  0  0  0  0  0  0
   43.4955    1.0888   11.4563 C   0  0  0  0  0  0  0  0  0  0  0  0
   42.5815    2.1157   11.6438 C   0  0  0  0  0  0  0  0  0  0  0  0
   41.5998    2.3309   10.6806 C   0  0  0  0  0  0  0  0  0  0  0  0
   43.6695    5.1362    7.6881 N   0  0  0  0  0  0  0  0  0  0  0  0
   43.8621    4.9705    8.9883 C   0  0  0  0  0  0  0  0  0  0  0  0
   43.0453    5.3060    9.8275 O   0  0  0  0  0  0  0  0  0  0  0  0
   44.3724    4.8247    7.0731 H   0  0  0  0  0  0  0  0  0  0  0  0
   45.1613    4.3203    9.3936 C   0  0  0  0  0  0  0  0  0  0  0  0
   46.2874    5.1082    8.9232 N   0  0  0  0  0  0  0  0  0  0  0  0
   45.9714    5.6118    8.0944 H   0  0  0  0  0  0  0  0  0  0  0  0
   46.8932    6.0869    9.8062 C   0  0  0  0  0  0  0  0  0  0  0  0
   47.4507    7.2393    8.9950 C   0  0  0  0  0  0  0  0  0  0  0  0
   46.5017    8.4020    9.0749 C   0  0  0  0  0  0  0  0  0  0  0  0
   45.1094    8.3509    9.0595 C   0  0  0  0  0  0  0  0  0  0  0  0
   44.5861    9.6062    9.1475 N   0  0  0  0  0  0  0  0  0  0  0  0
   45.5929   10.5064    9.2203 C   0  0  0  0  0  0  0  0  0  0  0  0
   46.8532    9.7402    9.1763 C   0  0  0  0  0  0  0  0  0  0  0  0
   48.0916   10.3776    9.2289 C   0  0  0  0  0  0  0  0  0  0  0  0
   48.1034   11.7656    9.3190 C   0  0  0  0  0  0  0  0  0  0  0  0
   46.9166   12.4993    9.3644 C   0  0  0  0  0  0  0  0  0  0  0  0
   45.6586   11.8905    9.3211 C   0  0  0  0  0  0  0  0  0  0  0  0
   43.6260    9.8236    9.1566 H   0  0  0  0  0  0  0  0  0  0  0  0
  1  2  1  0  0  0
  1  6  1  0  0  0
  2  3  2  0  0  0
  2  7  1  0  0  0
  3  4  1  0  0  0
  3  9  1  0  0  0
  4  5  1  0  0  0
  5  6  1  0  0  0
  7  8  1  0  0  0
  8  9  2  0  0  0
  8 21  1  0  0  0
  9 10  1  0  0  0
 10 11  2  0  0  0
 10 12  1  0  0  0
 12 14  1  0  0  0
 14 15  1  0  0  0
 15 16  2  0  0  0
 15 20  1  0  0  0
 16 17  1  0  0  0
 17 18  2  0  0  0
 18 19  1  0  0  0
 19 20  2  0  0  0
 21 22  1  0  0  0
 22 23  2  0  0  0
 22 25  1  0  0  0
 25 26  1  0  0  0
 26 28  1  0  0  0
 28 29  1  0  0  0
 29 30  1  0  0  0
 30 31  2  0  0  0
 30 34  1  0  0  0
 31 32  1  0  0  0
 32 33  1  0  0  0
 33 34  2  0  0  0
 33 38  1  0  0  0
 34 35  1  0  0  0
 35 36  2  0  0  0
 36 37  1  0  0  0
 37 38  2  0  0  0
 12 13  1  0  0  0
 21 24  1  0  0  0
 26 27  1  0  0  0
 32 39  1  0  0  0
M  END
> <minimizedAffinity>
-8.61289

$$$$
3WZ7_IXY_A_401


 39 43  0  0  0  0  0  0  0  0999 V2000
   46.1522    9.9194   11.3527 C   0  0  0  0  0  0  0  0  0  0  0  0
   45.8079    8.6530   10.6123 C   0  0  0  0  0  0  0  0  0  0  0  0
   46.1613    7.1981   10.8703 C   0  0  0  0  0  0  0  0  0  0  0  0
   47.0190    7.1528   12.1414 C   0  0  0  0  0  0  0  0  0  0  0  0
   47.7482    8.4305   12.5349 C   0  0  0  0  0  0  0  0  0  0  0  0
   46.7747    9.5803   12.6960 C   0  0  0  0  0  0  0  0  0  0  0  0
   44.9119    8.4404    9.2467 S   0  0  0  0  0  0  0  0  0  0  0  0
   44.7576    6.9114    8.7400 C   0  0  0  0  0  0  0  0  0  0  0  0
   45.5779    6.2188    9.8314 C   0  0  0  0  0  0  0  0  0  0  0  0
   45.6009    4.7314    9.5918 C   0  0  0  0  0  0  0  0  0  0  0  0
   46.2503    4.3072    8.6323 O   0  0  0  0  0  0  0  0  0  0  0  0
   44.9889    3.9258   10.4618 N   0  0  0  0  0  0  0  0  0  0  0  0
   44.5120    4.3401   11.2169 H   0  0  0  0  0  0  0  0  0  0  0  0
   44.9815    2.4697   10.3652 C   0  0  0  0  0  0  0  0  0  0  0  0
   43.5431    1.9803   10.4672 C   0  0  0  0  0  0  0  0  0  0  0  0
   43.2546    0.6226   10.4604 C   0  0  0  0  0  0  0  0  0  0  0  0
   41.9319    0.1969   10.5676 C   0  0  0  0  0  0  0  0  0  0  0  0
   40.8909    1.1129   10.6828 C   0  0  0  0  0  0  0  0  0  0  0  0
   41.1695    2.4719   10.7074 C   0  0  0  0  0  0  0  0  0  0  0  0
   42.4920    2.8927   10.6008 C   0  0  0  0  0  0  0  0  0  0  0  0
   44.0964    6.4404    7.6767 N   0  0  0  0  0  0  0  0  0  0  0  0
   42.8274    6.7146    7.4132 C   0  0  0  0  0  0  0  0  0  0  0  0
   42.1470    7.4421    8.1142 O   0  0  0  0  0  0  0  0  0  0  0  0
   44.5823    5.8545    7.0523 H   0  0  0  0  0  0  0  0  0  0  0  0
   42.2517    6.0829    6.1704 C   0  0  0  0  0  0  0  0  0  0  0  0
   40.8035    6.0169    6.2632 N   0  0  0  0  0  0  0  0  0  0  0  0
   40.4336    6.7421    5.6487 H   0  0  0  0  0  0  0  0  0  0  0  0
   40.1209    4.7839    5.9192 C   0  0  0  0  0  0  0  0  0  0  0  0
   39.9391    3.9310    7.1588 C   0  0  0  0  0  0  0  0  0  0  0  0
   40.6906    2.6413    6.9836 C   0  0  0  0  0  0  0  0  0  0  0  0
   41.9996    2.4880    6.5314 C   0  0  0  0  0  0  0  0  0  0  0  0
   42.3411    1.1690    6.5007 N   0  0  0  0  0  0  0  0  0  0  0  0
   41.2921    0.4255    6.9203 C   0  0  0  0  0  0  0  0  0  0  0  0
   40.2037    1.3684    7.2426 C   0  0  0  0  0  0  0  0  0  0  0  0
   38.9681    0.9189    7.7050 C   0  0  0  0  0  0  0  0  0  0  0  0
   38.7894   -0.4530    7.8491 C   0  0  0  0  0  0  0  0  0  0  0  0
   39.8138   -1.3530    7.5498 C   0  0  0  0  0  0  0  0  0  0  0  0
   41.0667   -0.9347    7.0912 C   0  0  0  0  0  0  0  0  0  0  0  0
   43.2143    0.8133    6.2175 H   0  0  0  0  0  0  0  0  0  0  0  0
  1  2  1  0  0  0
  1  6  1  0  0  0
  2  3  2  0  0  0
  2  7  1  0  0  0
  3  4  1  0  0  0
  3  9  1  0  0  0
  4  5  1  0  0  0
  5  6  1  0  0  0
  7  8  1  0  0  0
  8  9  2  0  0  0
  8 21  1  0  0  0
  9 10  1  0  0  0
 10 11  2  0  0  0
 10 12  1  0  0  0
 12 14  1  0  0  0
 14 15  1  0  0  0
 15 16  2  0  0  0
 15 20  1  0  0  0
 16 17  1  0  0  0
 17 18  2  0  0  0
 18 19  1  0  0  0
 19 20  2  0  0  0
 21 22  1  0  0  0
 22 23  2  0  0  0
 22 25  1  0  0  0
 25 26  1  0  0  0
 26 28  1  0  0  0
 28 29  1  0  0  0
 29 30  1  0  0  0
 30 31  2  0  0  0
 30 34  1  0  0  0
 31 32  1  0  0  0
 32 33  1  0  0  0
 33 34  2  0  0  0
 33 38  1  0  0  0
 34 35  1  0  0  0
 35 36  2  0  0  0
 36 37  1  0  0  0
 37 38  2  0  0  0
 12 13  1  0  0  0
 21 24  1  0  0  0
 26 27  1  0  0  0
 32 39  1  0  0  0
M  END
> <minimizedAffinity>
-8.59815

$$$$
