3G5K_BB2_A_1001


 31 31  0  0  0  0  0  0  0  0999 V2000
   35.2311   11.1358   11.4663 C   0  0  0  0  0  0  0  0  0  0  0  0
   36.2977   11.6223   11.2281 O   0  0  0  0  0  0  0  0  0  0  0  0
   35.2329    9.8046   11.9170 N   0  0  0  0  0  0  0  0  0  0  0  0
   34.3690    9.3502   12.0456 H   0  0  0  0  0  0  0  0  0  0  0  0
   34.0347   11.8032   11.0748 C   0  0  0  0  0  0  0  0  0  0  0  0
   33.6338   12.8050   12.2154 C   0  0  0  0  0  0  0  0  0  0  0  0
   32.1600   12.9647   12.2322 C   0  0  0  0  0  0  0  0  0  0  0  0
   31.2725   12.2003   12.7339 O   0  0  0  0  0  0  0  0  0  0  0  0
   31.5470   13.8476   11.5521 N   0  0  0  0  0  0  0  0  0  0  0  0
   30.1169   13.8221   11.6315 O   0  0  0  0  0  0  0  0  0  0  0  0
   32.0269   14.5095   11.0036 H   0  0  0  0  0  0  0  0  0  0  0  0
   29.8385   13.1017   12.2184 H   0  0  0  0  0  0  0  0  0  0  0  0
   34.2449   12.3670    9.6594 C   0  0  0  0  0  0  0  0  0  0  0  0
   33.3496   11.7391    8.5136 C   0  0  0  0  0  0  0  0  0  0  0  0
   33.5429   10.2169    8.3899 C   0  0  0  0  0  0  0  0  0  0  0  0
   34.5199    9.9248    7.2196 C   0  0  0  0  0  0  0  0  0  0  0  0
   36.0535   10.0086    7.6147 C   0  0  0  0  0  0  0  0  0  0  0  0
   36.4848    9.0503   12.2087 C   0  0  0  0  0  0  0  0  0  0  0  0
   36.8377    8.3023   10.8756 C   0  0  0  0  0  0  0  0  0  0  0  0
   36.0145    7.5079   10.3197 O   0  0  0  0  0  0  0  0  0  0  0  0
   38.0760    8.4134   10.3975 N   0  0  0  0  0  0  0  0  0  0  0  0
   38.5700    7.7654    9.1865 C   0  0  0  0  0  0  0  0  0  0  0  0
   39.0372    9.4364   10.9673 C   0  0  0  0  0  0  0  0  0  0  0  0
   40.2162    9.4960   10.0308 C   0  0  0  0  0  0  0  0  0  0  0  0
   39.8129    8.6693    8.8006 C   0  0  0  0  0  0  0  0  0  0  0  0
   39.0850    6.3764    9.5661 C   0  0  0  0  0  0  0  0  0  0  0  0
   37.9820    5.5072    9.0963 O   0  0  0  0  0  0  0  0  0  0  0  0
   37.1527    5.7803    9.5189 H   0  0  0  0  0  0  0  0  0  0  0  0
   36.1804    8.0790   13.3835 C   0  0  0  0  0  0  0  0  0  0  0  0
   35.2883    8.7389   14.3744 C   0  0  0  0  0  0  0  0  0  0  0  0
   37.5000    7.4609   13.7475 C   0  0  0  0  0  0  0  0  0  0  0  0
  6  7  1  0  0  0
  6  5  1  0  0  0
  7  8  2  0  0  0
  7  9  1  0  0  0
  9 10  1  0  0  0
  5  1  1  0  0  0
  5 13  1  0  0  0
  1  2  2  0  0  0
  1  3  1  0  0  0
 13 14  1  0  0  0
 14 15  1  0  0  0
 15 16  1  0  0  0
 16 17  1  0  0  0
  3 18  1  0  0  0
 18 29  1  0  0  0
 18 19  1  0  0  0
 29 30  1  0  0  0
 29 31  1  0  0  0
 19 20  2  0  0  0
 19 21  1  0  0  0
 21 22  1  0  0  0
 21 23  1  0  0  0
 22 25  1  0  0  0
 22 26  1  0  0  0
 23 24  1  0  0  0
 24 25  1  0  0  0
 26 27  1  0  0  0
  9 11  1  0  0  0
 10 12  1  0  0  0
  3  4  1  0  0  0
 27 28  1  0  0  0
M  END
> <minimizedAffinity>
-8.00475

$$$$
3G5K_BB2_A_1001


 31 31  0  0  0  0  0  0  0  0999 V2000
   35.2818   10.9462   11.3120 C   0  0  0  0  0  0  0  0  0  0  0  0
   35.7455   11.0494   12.4099 O   0  0  0  0  0  0  0  0  0  0  0  0
   36.0673   10.2778   10.3572 N   0  0  0  0  0  0  0  0  0  0  0  0
   35.7498   10.2456    9.4259 H   0  0  0  0  0  0  0  0  0  0  0  0
   34.1128   11.6783   10.9552 C   0  0  0  0  0  0  0  0  0  0  0  0
   33.7590   12.6482   12.1381 C   0  0  0  0  0  0  0  0  0  0  0  0
   32.2907   12.8481   12.1860 C   0  0  0  0  0  0  0  0  0  0  0  0
   31.3885   12.0835   12.6605 O   0  0  0  0  0  0  0  0  0  0  0  0
   31.6941   13.7827   11.5627 N   0  0  0  0  0  0  0  0  0  0  0  0
   30.2651   13.7931   11.6625 O   0  0  0  0  0  0  0  0  0  0  0  0
   32.1853   14.4589   11.0424 H   0  0  0  0  0  0  0  0  0  0  0  0
   29.9742   13.0509   12.2150 H   0  0  0  0  0  0  0  0  0  0  0  0
   34.3405   12.2907    9.5628 C   0  0  0  0  0  0  0  0  0  0  0  0
   33.3574   11.8130    8.4166 C   0  0  0  0  0  0  0  0  0  0  0  0
   33.3541   10.2826    8.2507 C   0  0  0  0  0  0  0  0  0  0  0  0
   33.6478    9.9343    6.7667 C   0  0  0  0  0  0  0  0  0  0  0  0
   35.1398    9.4747    6.4882 C   0  0  0  0  0  0  0  0  0  0  0  0
   37.3598    9.6156   10.6924 C   0  0  0  0  0  0  0  0  0  0  0  0
   38.3518   10.0445    9.5552 C   0  0  0  0  0  0  0  0  0  0  0  0
   38.0414    9.9402    8.3262 O   0  0  0  0  0  0  0  0  0  0  0  0
   39.5883   10.4030    9.8975 N   0  0  0  0  0  0  0  0  0  0  0  0
   40.6350   10.8056    8.9633 C   0  0  0  0  0  0  0  0  0  0  0  0
   39.9500   10.6479   11.3481 C   0  0  0  0  0  0  0  0  0  0  0  0
   41.3059   11.3051   11.3545 C   0  0  0  0  0  0  0  0  0  0  0  0
   41.6112   11.6441    9.8877 C   0  0  0  0  0  0  0  0  0  0  0  0
   41.3717    9.5470    8.5027 C   0  0  0  0  0  0  0  0  0  0  0  0
   40.6776    9.2397    7.2312 O   0  0  0  0  0  0  0  0  0  0  0  0
   39.7278    9.1360    7.3981 H   0  0  0  0  0  0  0  0  0  0  0  0
   37.1035    8.0827   10.7233 C   0  0  0  0  0  0  0  0  0  0  0  0
   38.3697    7.3585   11.0157 C   0  0  0  0  0  0  0  0  0  0  0  0
   36.2479    7.7929    9.5233 C   0  0  0  0  0  0  0  0  0  0  0  0
  6  7  1  0  0  0
  6  5  1  0  0  0
  7  8  2  0  0  0
  7  9  1  0  0  0
  9 10  1  0  0  0
  5  1  1  0  0  0
  5 13  1  0  0  0
  1  2  2  0  0  0
  1  3  1  0  0  0
 13 14  1  0  0  0
 14 15  1  0  0  0
 15 16  1  0  0  0
 16 17  1  0  0  0
  3 18  1  0  0  0
 18 29  1  0  0  0
 18 19  1  0  0  0
 29 30  1  0  0  0
 29 31  1  0  0  0
 19 20  2  0  0  0
 19 21  1  0  0  0
 21 22  1  0  0  0
 21 23  1  0  0  0
 22 25  1  0  0  0
 22 26  1  0  0  0
 23 24  1  0  0  0
 24 25  1  0  0  0
 26 27  1  0  0  0
  9 11  1  0  0  0
 10 12  1  0  0  0
  3  4  1  0  0  0
 27 28  1  0  0  0
M  END
> <minimizedAffinity>
-7.74522

$$$$
3G5K_BB2_A_1001


 31 31  0  0  0  0  0  0  0  0999 V2000
   38.5472    8.6041   10.6279 C   0  0  0  0  0  0  0  0  0  0  0  0
   37.8050    7.7268   10.2958 O   0  0  0  0  0  0  0  0  0  0  0  0
   37.9611    9.7296   11.2321 N   0  0  0  0  0  0  0  0  0  0  0  0
   38.5340   10.5016   11.4445 H   0  0  0  0  0  0  0  0  0  0  0  0
   39.9074    8.5922   10.2037 C   0  0  0  0  0  0  0  0  0  0  0  0
   39.9336    8.5113    8.6359 C   0  0  0  0  0  0  0  0  0  0  0  0
   41.0449    7.6277    8.2090 C   0  0  0  0  0  0  0  0  0  0  0  0
   42.2883    7.8880    8.1092 O   0  0  0  0  0  0  0  0  0  0  0  0
   40.8631    6.4822    7.6868 N   0  0  0  0  0  0  0  0  0  0  0  0
   42.0438    5.7864    7.2700 O   0  0  0  0  0  0  0  0  0  0  0  0
   39.9641    6.0967    7.5756 H   0  0  0  0  0  0  0  0  0  0  0  0
   42.8242    6.3289    7.4638 H   0  0  0  0  0  0  0  0  0  0  0  0
   40.6272    9.7724   10.8780 C   0  0  0  0  0  0  0  0  0  0  0  0
   40.9572   11.0146    9.9525 C   0  0  0  0  0  0  0  0  0  0  0  0
   42.4481   11.0816    9.5750 C   0  0  0  0  0  0  0  0  0  0  0  0
   42.5797   11.6402    8.1327 C   0  0  0  0  0  0  0  0  0  0  0  0
   41.2608   11.5123    7.2614 C   0  0  0  0  0  0  0  0  0  0  0  0
   36.5105    9.8061   11.5656 C   0  0  0  0  0  0  0  0  0  0  0  0
   35.9417   10.9659   10.6754 C   0  0  0  0  0  0  0  0  0  0  0  0
   36.2295   12.1835   10.9042 O   0  0  0  0  0  0  0  0  0  0  0  0
   35.0386   10.6630    9.7442 N   0  0  0  0  0  0  0  0  0  0  0  0
   34.3973   11.6238    8.8521 C   0  0  0  0  0  0  0  0  0  0  0  0
   34.7646    9.2203    9.3716 C   0  0  0  0  0  0  0  0  0  0  0  0
   33.9298    9.2449    8.1174 C   0  0  0  0  0  0  0  0  0  0  0  0
   33.9262   10.7076    7.6482 C   0  0  0  0  0  0  0  0  0  0  0  0
   33.1541   12.1702    9.5556 C   0  0  0  0  0  0  0  0  0  0  0  0
   33.6041   13.5233    9.9551 O   0  0  0  0  0  0  0  0  0  0  0  0
   34.4016   13.4504   10.5025 H   0  0  0  0  0  0  0  0  0  0  0  0
   36.3973   10.1022   13.0874 C   0  0  0  0  0  0  0  0  0  0  0  0
   37.3182    9.2170   13.8502 C   0  0  0  0  0  0  0  0  0  0  0  0
   34.9255   10.1985   13.3708 C   0  0  0  0  0  0  0  0  0  0  0  0
  6  7  1  0  0  0
  6  5  1  0  0  0
  7  8  2  0  0  0
  7  9  1  0  0  0
  9 10  1  0  0  0
  5  1  1  0  0  0
  5 13  1  0  0  0
  1  2  2  0  0  0
  1  3  1  0  0  0
 13 14  1  0  0  0
 14 15  1  0  0  0
 15 16  1  0  0  0
 16 17  1  0  0  0
  3 18  1  0  0  0
 18 29  1  0  0  0
 18 19  1  0  0  0
 29 30  1  0  0  0
 29 31  1  0  0  0
 19 20  2  0  0  0
 19 21  1  0  0  0
 21 22  1  0  0  0
 21 23  1  0  0  0
 22 25  1  0  0  0
 22 26  1  0  0  0
 23 24  1  0  0  0
 24 25  1  0  0  0
 26 27  1  0  0  0
  9 11  1  0  0  0
 10 12  1  0  0  0
  3  4  1  0  0  0
 27 28  1  0  0  0
M  END
> <minimizedAffinity>
-6.85758

$$$$
3G5K_BB2_A_1001


 31 31  0  0  0  0  0  0  0  0999 V2000
   36.7488    9.5516   13.5572 C   0  0  0  0  0  0  0  0  0  0  0  0
   36.5717   10.7345   13.5375 O   0  0  0  0  0  0  0  0  0  0  0  0
   36.9572    8.9254   12.3163 N   0  0  0  0  0  0  0  0  0  0  0  0
   37.0267    7.9437   12.2904 H   0  0  0  0  0  0  0  0  0  0  0  0
   36.5134    8.8108   14.7514 C   0  0  0  0  0  0  0  0  0  0  0  0
   35.9433    7.4030   14.3532 C   0  0  0  0  0  0  0  0  0  0  0  0
   35.1699    6.8479   15.4897 C   0  0  0  0  0  0  0  0  0  0  0  0
   35.5046    5.9504   16.3301 O   0  0  0  0  0  0  0  0  0  0  0  0
   33.9336    7.0841   15.6728 N   0  0  0  0  0  0  0  0  0  0  0  0
   33.3229    6.4151   16.7825 O   0  0  0  0  0  0  0  0  0  0  0  0
   33.4263    7.6908   15.0864 H   0  0  0  0  0  0  0  0  0  0  0  0
   33.9839    5.8662   17.2327 H   0  0  0  0  0  0  0  0  0  0  0  0
   37.7945    8.8570   15.6011 C   0  0  0  0  0  0  0  0  0  0  0  0
   38.9906    7.9378   15.1183 C   0  0  0  0  0  0  0  0  0  0  0  0
   39.1798    6.7046   16.0200 C   0  0  0  0  0  0  0  0  0  0  0  0
   38.8950    5.4236   15.1907 C   0  0  0  0  0  0  0  0  0  0  0  0
   39.3073    5.5312   13.6631 C   0  0  0  0  0  0  0  0  0  0  0  0
   37.0776    9.6820   11.0379 C   0  0  0  0  0  0  0  0  0  0  0  0
   35.6984    9.4941   10.3142 C   0  0  0  0  0  0  0  0  0  0  0  0
   35.3187    8.3570    9.8892 O   0  0  0  0  0  0  0  0  0  0  0  0
   34.9793   10.5796   10.0330 N   0  0  0  0  0  0  0  0  0  0  0  0
   33.6914   10.5792    9.3463 C   0  0  0  0  0  0  0  0  0  0  0  0
   35.3452   11.9254   10.6245 C   0  0  0  0  0  0  0  0  0  0  0  0
   34.1893   12.8518   10.3488 C   0  0  0  0  0  0  0  0  0  0  0  0
   33.0639   11.9615    9.8004 C   0  0  0  0  0  0  0  0  0  0  0  0
   33.9545   10.6419    7.8411 C   0  0  0  0  0  0  0  0  0  0  0  0
   33.1142    9.5295    7.3416 O   0  0  0  0  0  0  0  0  0  0  0  0
   33.3739    8.7052    7.7819 H   0  0  0  0  0  0  0  0  0  0  0  0
   38.2646    9.0684   10.2436 C   0  0  0  0  0  0  0  0  0  0  0  0
   39.3799    8.7327   11.1691 C   0  0  0  0  0  0  0  0  0  0  0  0
   38.4339    9.9419    9.0335 C   0  0  0  0  0  0  0  0  0  0  0  0
  6  7  1  0  0  0
  6  5  1  0  0  0
  7  8  2  0  0  0
  7  9  1  0  0  0
  9 10  1  0  0  0
  5  1  1  0  0  0
  5 13  1  0  0  0
  1  2  2  0  0  0
  1  3  1  0  0  0
 13 14  1  0  0  0
 14 15  1  0  0  0
 15 16  1  0  0  0
 16 17  1  0  0  0
  3 18  1  0  0  0
 18 29  1  0  0  0
 18 19  1  0  0  0
 29 30  1  0  0  0
 29 31  1  0  0  0
 19 20  2  0  0  0
 19 21  1  0  0  0
 21 22  1  0  0  0
 21 23  1  0  0  0
 22 25  1  0  0  0
 22 26  1  0  0  0
 23 24  1  0  0  0
 24 25  1  0  0  0
 26 27  1  0  0  0
  9 11  1  0  0  0
 10 12  1  0  0  0
  3  4  1  0  0  0
 27 28  1  0  0  0
M  END
> <minimizedAffinity>
-6.83709

$$$$
3G5K_BB2_A_1001


 31 31  0  0  0  0  0  0  0  0999 V2000
   37.5675    7.6443   10.7890 C   0  0  0  0  0  0  0  0  0  0  0  0
   36.6244    6.9311   10.9711 O   0  0  0  0  0  0  0  0  0  0  0  0
   37.3734    9.0166   11.0226 N   0  0  0  0  0  0  0  0  0  0  0  0
   38.1050    9.6388   10.8063 H   0  0  0  0  0  0  0  0  0  0  0  0
   38.7321    7.1420   10.1398 C   0  0  0  0  0  0  0  0  0  0  0  0
   38.2910    6.4582    8.7970 C   0  0  0  0  0  0  0  0  0  0  0  0
   39.1104    5.2432    8.5731 C   0  0  0  0  0  0  0  0  0  0  0  0
   40.0615    5.0538    7.7465 O   0  0  0  0  0  0  0  0  0  0  0  0
   38.8336    4.1120    9.0848 N   0  0  0  0  0  0  0  0  0  0  0  0
   39.6913    3.0266    8.7131 O   0  0  0  0  0  0  0  0  0  0  0  0
   38.0747    3.9897    9.6999 H   0  0  0  0  0  0  0  0  0  0  0  0
   40.3741    3.3481    8.1037 H   0  0  0  0  0  0  0  0  0  0  0  0
   39.7645    8.2796   10.0658 C   0  0  0  0  0  0  0  0  0  0  0  0
   40.0116    8.9112    8.6344 C   0  0  0  0  0  0  0  0  0  0  0  0
   39.7138   10.4212    8.6034 C   0  0  0  0  0  0  0  0  0  0  0  0
   40.9293   11.1883    9.1895 C   0  0  0  0  0  0  0  0  0  0  0  0
   40.6812   11.7974   10.6326 C   0  0  0  0  0  0  0  0  0  0  0  0
   36.1089    9.5714   11.5834 C   0  0  0  0  0  0  0  0  0  0  0  0
   35.7477   10.7899   10.6636 C   0  0  0  0  0  0  0  0  0  0  0  0
   36.1772   11.9613   10.9107 O   0  0  0  0  0  0  0  0  0  0  0  0
   34.8684   10.6010    9.6809 N   0  0  0  0  0  0  0  0  0  0  0  0
   34.4098   11.6315    8.7546 C   0  0  0  0  0  0  0  0  0  0  0  0
   34.4317    9.2038    9.2906 C   0  0  0  0  0  0  0  0  0  0  0  0
   33.6812    9.3289    7.9900 C   0  0  0  0  0  0  0  0  0  0  0  0
   33.8944   10.7770    7.5238 C   0  0  0  0  0  0  0  0  0  0  0  0
   33.2093   12.3385    9.3855 C   0  0  0  0  0  0  0  0  0  0  0  0
   33.8305   13.5753    9.9121 O   0  0  0  0  0  0  0  0  0  0  0  0
   34.5505   13.3425   10.5189 H   0  0  0  0  0  0  0  0  0  0  0  0
   36.3947    9.9886   13.0533 C   0  0  0  0  0  0  0  0  0  0  0  0
   37.8595   10.1372   13.2668 C   0  0  0  0  0  0  0  0  0  0  0  0
   35.5252    9.1034   13.8997 C   0  0  0  0  0  0  0  0  0  0  0  0
  6  7  1  0  0  0
  6  5  1  0  0  0
  7  8  2  0  0  0
  7  9  1  0  0  0
  9 10  1  0  0  0
  5  1  1  0  0  0
  5 13  1  0  0  0
  1  2  2  0  0  0
  1  3  1  0  0  0
 13 14  1  0  0  0
 14 15  1  0  0  0
 15 16  1  0  0  0
 16 17  1  0  0  0
  3 18  1  0  0  0
 18 29  1  0  0  0
 18 19  1  0  0  0
 29 30  1  0  0  0
 29 31  1  0  0  0
 19 20  2  0  0  0
 19 21  1  0  0  0
 21 22  1  0  0  0
 21 23  1  0  0  0
 22 25  1  0  0  0
 22 26  1  0  0  0
 23 24  1  0  0  0
 24 25  1  0  0  0
 26 27  1  0  0  0
  9 11  1  0  0  0
 10 12  1  0  0  0
  3  4  1  0  0  0
 27 28  1  0  0  0
M  END
> <minimizedAffinity>
-6.72237

$$$$
3G5K_BB2_A_1001


 31 31  0  0  0  0  0  0  0  0999 V2000
   34.8387   10.6570   12.1837 C   0  0  0  0  0  0  0  0  0  0  0  0
   34.5496   10.1881   13.2456 O   0  0  0  0  0  0  0  0  0  0  0  0
   36.1472   10.4227   11.7272 N   0  0  0  0  0  0  0  0  0  0  0  0
   36.4410   10.8606   10.8959 H   0  0  0  0  0  0  0  0  0  0  0  0
   33.9721   11.5970   11.5546 C   0  0  0  0  0  0  0  0  0  0  0  0
   33.5444   12.6645   12.6235 C   0  0  0  0  0  0  0  0  0  0  0  0
   32.0999   12.9606   12.4701 C   0  0  0  0  0  0  0  0  0  0  0  0
   31.0971   12.3724   12.9918 O   0  0  0  0  0  0  0  0  0  0  0  0
   31.6435   13.7755   11.6067 N   0  0  0  0  0  0  0  0  0  0  0  0
   30.2173   13.8956   11.5472 O   0  0  0  0  0  0  0  0  0  0  0  0
   32.2354   14.2931   11.0143 H   0  0  0  0  0  0  0  0  0  0  0  0
   29.8156   13.3080   12.2062 H   0  0  0  0  0  0  0  0  0  0  0  0
   34.6596   12.0946   10.2719 C   0  0  0  0  0  0  0  0  0  0  0  0
   34.0882   11.5325    8.9059 C   0  0  0  0  0  0  0  0  0  0  0  0
   33.9702    9.9977    8.9100 C   0  0  0  0  0  0  0  0  0  0  0  0
   33.3323    9.5361    7.5722 C   0  0  0  0  0  0  0  0  0  0  0  0
   34.2747    9.7059    6.3081 C   0  0  0  0  0  0  0  0  0  0  0  0
   37.1096    9.5405   12.4461 C   0  0  0  0  0  0  0  0  0  0  0  0
   37.6761   10.4149   13.6190 C   0  0  0  0  0  0  0  0  0  0  0  0
   38.0243   11.6249   13.4396 O   0  0  0  0  0  0  0  0  0  0  0  0
   37.9108    9.8253   14.7903 N   0  0  0  0  0  0  0  0  0  0  0  0
   38.4558   10.4891   15.9704 C   0  0  0  0  0  0  0  0  0  0  0  0
   37.4016    8.4259   15.0686 C   0  0  0  0  0  0  0  0  0  0  0  0
   37.5796    8.1826   16.5449 C   0  0  0  0  0  0  0  0  0  0  0  0
   37.9783    9.5392   17.1453 C   0  0  0  0  0  0  0  0  0  0  0  0
   39.9816   10.4252   15.8903 C   0  0  0  0  0  0  0  0  0  0  0  0
   40.3197   11.8056   15.4742 O   0  0  0  0  0  0  0  0  0  0  0  0
   39.8615   12.0148   14.6452 H   0  0  0  0  0  0  0  0  0  0  0  0
   38.2036    9.1163   11.4266 C   0  0  0  0  0  0  0  0  0  0  0  0
   39.4784    8.8254   12.1362 C   0  0  0  0  0  0  0  0  0  0  0  0
   38.0980   10.0946   10.2918 C   0  0  0  0  0  0  0  0  0  0  0  0
  6  7  1  0  0  0
  6  5  1  0  0  0
  7  8  2  0  0  0
  7  9  1  0  0  0
  9 10  1  0  0  0
  5  1  1  0  0  0
  5 13  1  0  0  0
  1  2  2  0  0  0
  1  3  1  0  0  0
 13 14  1  0  0  0
 14 15  1  0  0  0
 15 16  1  0  0  0
 16 17  1  0  0  0
  3 18  1  0  0  0
 18 29  1  0  0  0
 18 19  1  0  0  0
 29 30  1  0  0  0
 29 31  1  0  0  0
 19 20  2  0  0  0
 19 21  1  0  0  0
 21 22  1  0  0  0
 21 23  1  0  0  0
 22 25  1  0  0  0
 22 26  1  0  0  0
 23 24  1  0  0  0
 24 25  1  0  0  0
 26 27  1  0  0  0
  9 11  1  0  0  0
 10 12  1  0  0  0
  3  4  1  0  0  0
 27 28  1  0  0  0
M  END
> <minimizedAffinity>
-6.63072

$$$$
3G5K_BB2_A_1001


 31 31  0  0  0  0  0  0  0  0999 V2000
   37.1702   11.1130   11.4925 C   0  0  0  0  0  0  0  0  0  0  0  0
   37.6893   12.0344   10.9333 O   0  0  0  0  0  0  0  0  0  0  0  0
   38.0184   10.0769   11.9194 N   0  0  0  0  0  0  0  0  0  0  0  0
   37.6142    9.2692   12.3112 H   0  0  0  0  0  0  0  0  0  0  0  0
   35.7514   10.9822   11.4947 C   0  0  0  0  0  0  0  0  0  0  0  0
   35.1407   12.2295   10.7622 C   0  0  0  0  0  0  0  0  0  0  0  0
   33.7820   12.4936   11.2934 C   0  0  0  0  0  0  0  0  0  0  0  0
   33.0854   11.8006   12.1046 O   0  0  0  0  0  0  0  0  0  0  0  0
   33.0231   13.4091   10.8419 N   0  0  0  0  0  0  0  0  0  0  0  0
   31.7160   13.4861   11.4229 O   0  0  0  0  0  0  0  0  0  0  0  0
   33.3167   14.0281   10.1349 H   0  0  0  0  0  0  0  0  0  0  0  0
   31.6205   12.7948   12.0967 H   0  0  0  0  0  0  0  0  0  0  0  0
   35.4008    9.5851   10.9556 C   0  0  0  0  0  0  0  0  0  0  0  0
   35.5306    9.3839    9.3900 C   0  0  0  0  0  0  0  0  0  0  0  0
   34.1591    9.3252    8.6934 C   0  0  0  0  0  0  0  0  0  0  0  0
   34.1822   10.2573    7.4523 C   0  0  0  0  0  0  0  0  0  0  0  0
   33.4059   11.6260    7.6506 C   0  0  0  0  0  0  0  0  0  0  0  0
   39.5028   10.1468   11.8051 C   0  0  0  0  0  0  0  0  0  0  0  0
   39.8448    9.4671   10.4332 C   0  0  0  0  0  0  0  0  0  0  0  0
   39.3977    8.3154   10.1307 O   0  0  0  0  0  0  0  0  0  0  0  0
   40.7263   10.0658    9.6338 N   0  0  0  0  0  0  0  0  0  0  0  0
   41.1686    9.5555    8.3398 C   0  0  0  0  0  0  0  0  0  0  0  0
   41.1840   11.4833    9.9098 C   0  0  0  0  0  0  0  0  0  0  0  0
   41.9318   11.9461    8.6863 C   0  0  0  0  0  0  0  0  0  0  0  0
   41.6962   10.8651    7.6207 C   0  0  0  0  0  0  0  0  0  0  0  0
   42.3585    8.6245    8.5769 C   0  0  0  0  0  0  0  0  0  0  0  0
   41.7366    7.2913    8.4070 O   0  0  0  0  0  0  0  0  0  0  0  0
   40.9971    7.1981    9.0277 H   0  0  0  0  0  0  0  0  0  0  0  0
   40.1000    9.3852   13.0215 C   0  0  0  0  0  0  0  0  0  0  0  0
   39.0647    8.5114   13.6361 C   0  0  0  0  0  0  0  0  0  0  0  0
   40.8773   10.4105   13.7966 C   0  0  0  0  0  0  0  0  0  0  0  0
  6  7  1  0  0  0
  6  5  1  0  0  0
  7  8  2  0  0  0
  7  9  1  0  0  0
  9 10  1  0  0  0
  5  1  1  0  0  0
  5 13  1  0  0  0
  1  2  2  0  0  0
  1  3  1  0  0  0
 13 14  1  0  0  0
 14 15  1  0  0  0
 15 16  1  0  0  0
 16 17  1  0  0  0
  3 18  1  0  0  0
 18 29  1  0  0  0
 18 19  1  0  0  0
 29 30  1  0  0  0
 29 31  1  0  0  0
 19 20  2  0  0  0
 19 21  1  0  0  0
 21 22  1  0  0  0
 21 23  1  0  0  0
 22 25  1  0  0  0
 22 26  1  0  0  0
 23 24  1  0  0  0
 24 25  1  0  0  0
 26 27  1  0  0  0
  9 11  1  0  0  0
 10 12  1  0  0  0
  3  4  1  0  0  0
 27 28  1  0  0  0
M  END
> <minimizedAffinity>
-6.62054

$$$$
3G5K_BB2_A_1001


 31 31  0  0  0  0  0  0  0  0999 V2000
   38.2747    8.1052    9.7668 C   0  0  0  0  0  0  0  0  0  0  0  0
   37.4406    7.2555    9.6505 O   0  0  0  0  0  0  0  0  0  0  0  0
   37.8822    9.2878   10.4170 N   0  0  0  0  0  0  0  0  0  0  0  0
   38.5206   10.0361   10.4584 H   0  0  0  0  0  0  0  0  0  0  0  0
   39.5097    7.9991    9.0642 C   0  0  0  0  0  0  0  0  0  0  0  0
   40.4783    9.1125    9.6002 C   0  0  0  0  0  0  0  0  0  0  0  0
   40.9387    9.9494    8.4664 C   0  0  0  0  0  0  0  0  0  0  0  0
   42.1249   10.1654    8.0539 O   0  0  0  0  0  0  0  0  0  0  0  0
   40.1757   10.7469    7.8342 N   0  0  0  0  0  0  0  0  0  0  0  0
   40.7963   11.5306    6.8082 O   0  0  0  0  0  0  0  0  0  0  0  0
   39.2154   10.8212    8.0380 H   0  0  0  0  0  0  0  0  0  0  0  0
   41.7407   11.3138    6.7624 H   0  0  0  0  0  0  0  0  0  0  0  0
   39.9778    6.5361    9.1417 C   0  0  0  0  0  0  0  0  0  0  0  0
   40.5594    5.9136    7.8065 C   0  0  0  0  0  0  0  0  0  0  0  0
   42.0979    5.9491    7.7676 C   0  0  0  0  0  0  0  0  0  0  0  0
   42.6401    5.9655    9.2221 C   0  0  0  0  0  0  0  0  0  0  0  0
   43.6688    7.1349    9.5209 C   0  0  0  0  0  0  0  0  0  0  0  0
   36.5422    9.4590   11.0466 C   0  0  0  0  0  0  0  0  0  0  0  0
   35.9459   10.7599   10.4038 C   0  0  0  0  0  0  0  0  0  0  0  0
   36.3222   11.9176   10.7723 O   0  0  0  0  0  0  0  0  0  0  0  0
   34.9338   10.6345    9.5469 N   0  0  0  0  0  0  0  0  0  0  0  0
   34.2545   11.7419    8.8815 C   0  0  0  0  0  0  0  0  0  0  0  0
   34.5436    9.2755    9.0029 C   0  0  0  0  0  0  0  0  0  0  0  0
   33.5828    9.5195    7.8681 C   0  0  0  0  0  0  0  0  0  0  0  0
   33.6089   11.0350    7.6189 C   0  0  0  0  0  0  0  0  0  0  0  0
   33.1248   12.2237    9.7928 C   0  0  0  0  0  0  0  0  0  0  0  0
   33.6486   13.5283   10.2583 O   0  0  0  0  0  0  0  0  0  0  0  0
   34.5094   13.3972   10.6857 H   0  0  0  0  0  0  0  0  0  0  0  0
   36.7613    9.5892   12.5801 C   0  0  0  0  0  0  0  0  0  0  0  0
   38.2022    9.8152   12.8732 C   0  0  0  0  0  0  0  0  0  0  0  0
   35.9601    8.4787   13.1972 C   0  0  0  0  0  0  0  0  0  0  0  0
  6  7  1  0  0  0
  6  5  1  0  0  0
  7  8  2  0  0  0
  7  9  1  0  0  0
  9 10  1  0  0  0
  5  1  1  0  0  0
  5 13  1  0  0  0
  1  2  2  0  0  0
  1  3  1  0  0  0
 13 14  1  0  0  0
 14 15  1  0  0  0
 15 16  1  0  0  0
 16 17  1  0  0  0
  3 18  1  0  0  0
 18 29  1  0  0  0
 18 19  1  0  0  0
 29 30  1  0  0  0
 29 31  1  0  0  0
 19 20  2  0  0  0
 19 21  1  0  0  0
 21 22  1  0  0  0
 21 23  1  0  0  0
 22 25  1  0  0  0
 22 26  1  0  0  0
 23 24  1  0  0  0
 24 25  1  0  0  0
 26 27  1  0  0  0
  9 11  1  0  0  0
 10 12  1  0  0  0
  3  4  1  0  0  0
 27 28  1  0  0  0
M  END
> <minimizedAffinity>
-6.58102

$$$$
3G5K_BB2_A_1001


 31 31  0  0  0  0  0  0  0  0999 V2000
   38.4859   10.0661    8.8752 C   0  0  0  0  0  0  0  0  0  0  0  0
   38.8191   10.3628    7.7652 O   0  0  0  0  0  0  0  0  0  0  0  0
   39.5125    9.7097    9.7665 N   0  0  0  0  0  0  0  0  0  0  0  0
   39.2659    9.3844   10.6624 H   0  0  0  0  0  0  0  0  0  0  0  0
   37.1098    9.8567    9.1793 C   0  0  0  0  0  0  0  0  0  0  0  0
   36.7472   10.7200   10.4397 C   0  0  0  0  0  0  0  0  0  0  0  0
   36.0589    9.8663   11.4373 C   0  0  0  0  0  0  0  0  0  0  0  0
   35.8602    8.6077   11.4205 O   0  0  0  0  0  0  0  0  0  0  0  0
   35.3835   10.3350   12.4079 N   0  0  0  0  0  0  0  0  0  0  0  0
   34.7274    9.3718   13.2408 O   0  0  0  0  0  0  0  0  0  0  0  0
   35.3156   11.3025   12.5767 H   0  0  0  0  0  0  0  0  0  0  0  0
   34.9150    8.4787   12.9120 H   0  0  0  0  0  0  0  0  0  0  0  0
   36.2979   10.0811    7.8924 C   0  0  0  0  0  0  0  0  0  0  0  0
   34.9820    9.2142    7.7326 C   0  0  0  0  0  0  0  0  0  0  0  0
   33.7725   10.0632    7.3013 C   0  0  0  0  0  0  0  0  0  0  0  0
   33.8705   11.4599    7.9716 C   0  0  0  0  0  0  0  0  0  0  0  0
   33.2485   11.5284    9.4289 C   0  0  0  0  0  0  0  0  0  0  0  0
   40.9580    9.8026    9.4154 C   0  0  0  0  0  0  0  0  0  0  0  0
   41.6435    8.6061   10.1634 C   0  0  0  0  0  0  0  0  0  0  0  0
   41.9225    8.6675   11.4028 O   0  0  0  0  0  0  0  0  0  0  0  0
   42.0512    7.5616    9.4442 N   0  0  0  0  0  0  0  0  0  0  0  0
   42.7236    6.3828    9.9816 C   0  0  0  0  0  0  0  0  0  0  0  0
   41.6324    7.4075    7.9964 C   0  0  0  0  0  0  0  0  0  0  0  0
   42.0121    6.0103    7.5790 C   0  0  0  0  0  0  0  0  0  0  0  0
   42.4389    5.2921    8.8680 C   0  0  0  0  0  0  0  0  0  0  0  0
   44.2269    6.6628   10.0073 C   0  0  0  0  0  0  0  0  0  0  0  0
   44.4480    6.9914   11.4342 O   0  0  0  0  0  0  0  0  0  0  0  0
   43.8758    7.7326   11.6877 H   0  0  0  0  0  0  0  0  0  0  0  0
   41.4671   11.1889    9.9005 C   0  0  0  0  0  0  0  0  0  0  0  0
   40.4868   11.7923   10.8430 C   0  0  0  0  0  0  0  0  0  0  0  0
   41.9627   11.8900    8.6681 C   0  0  0  0  0  0  0  0  0  0  0  0
  6  7  1  0  0  0
  6  5  1  0  0  0
  7  8  2  0  0  0
  7  9  1  0  0  0
  9 10  1  0  0  0
  5  1  1  0  0  0
  5 13  1  0  0  0
  1  2  2  0  0  0
  1  3  1  0  0  0
 13 14  1  0  0  0
 14 15  1  0  0  0
 15 16  1  0  0  0
 16 17  1  0  0  0
  3 18  1  0  0  0
 18 29  1  0  0  0
 18 19  1  0  0  0
 29 30  1  0  0  0
 29 31  1  0  0  0
 19 20  2  0  0  0
 19 21  1  0  0  0
 21 22  1  0  0  0
 21 23  1  0  0  0
 22 25  1  0  0  0
 22 26  1  0  0  0
 23 24  1  0  0  0
 24 25  1  0  0  0
 26 27  1  0  0  0
  9 11  1  0  0  0
 10 12  1  0  0  0
  3  4  1  0  0  0
 27 28  1  0  0  0
M  END
> <minimizedAffinity>
-6.57027

$$$$
3G5K_BB2_A_1001


 31 31  0  0  0  0  0  0  0  0999 V2000
   38.1734   10.3343    9.0167 C   0  0  0  0  0  0  0  0  0  0  0  0
   38.4306   10.2161    7.8544 O   0  0  0  0  0  0  0  0  0  0  0  0
   39.2273   10.1143    9.9202 N   0  0  0  0  0  0  0  0  0  0  0  0
   39.0303   10.1257   10.8848 H   0  0  0  0  0  0  0  0  0  0  0  0
   36.8190   10.4496    9.4437 C   0  0  0  0  0  0  0  0  0  0  0  0
   36.1712    9.0196    9.4180 C   0  0  0  0  0  0  0  0  0  0  0  0
   35.0315    9.0145    8.4698 C   0  0  0  0  0  0  0  0  0  0  0  0
   35.0330    9.1873    7.2073 O   0  0  0  0  0  0  0  0  0  0  0  0
   33.8152    9.0142    8.8422 N   0  0  0  0  0  0  0  0  0  0  0  0
   32.8374    9.0768    7.7972 O   0  0  0  0  0  0  0  0  0  0  0  0
   33.5610    8.9734    9.7924 H   0  0  0  0  0  0  0  0  0  0  0  0
   33.2849    9.1107    6.9373 H   0  0  0  0  0  0  0  0  0  0  0  0
   36.8023   11.2262   10.7711 C   0  0  0  0  0  0  0  0  0  0  0  0
   35.3758   11.5309   11.3882 C   0  0  0  0  0  0  0  0  0  0  0  0
   34.6908   12.7313   10.7102 C   0  0  0  0  0  0  0  0  0  0  0  0
   33.4565   12.2264    9.9156 C   0  0  0  0  0  0  0  0  0  0  0  0
   33.5519   12.4551    8.3491 C   0  0  0  0  0  0  0  0  0  0  0  0
   40.6299    9.8642    9.4827 C   0  0  0  0  0  0  0  0  0  0  0  0
   41.0820    8.5771   10.2573 C   0  0  0  0  0  0  0  0  0  0  0  0
   41.0774    8.5285   11.5282 O   0  0  0  0  0  0  0  0  0  0  0  0
   41.5997    7.5682    9.5583 N   0  0  0  0  0  0  0  0  0  0  0  0
   42.0872    6.3154   10.1269 C   0  0  0  0  0  0  0  0  0  0  0  0
   41.5115    7.5483    8.0460 C   0  0  0  0  0  0  0  0  0  0  0  0
   41.9201    6.1671    7.6035 C   0  0  0  0  0  0  0  0  0  0  0  0
   42.0175    5.3302    8.8879 C   0  0  0  0  0  0  0  0  0  0  0  0
   43.5560    6.5056   10.5082 C   0  0  0  0  0  0  0  0  0  0  0  0
   43.4662    6.6806   11.9759 O   0  0  0  0  0  0  0  0  0  0  0  0
   42.8777    7.4249   12.1774 H   0  0  0  0  0  0  0  0  0  0  0  0
   41.4659   11.1197    9.8585 C   0  0  0  0  0  0  0  0  0  0  0  0
   40.7219   11.9543   10.8400 C   0  0  0  0  0  0  0  0  0  0  0  0
   41.9967   11.6541    8.5590 C   0  0  0  0  0  0  0  0  0  0  0  0
  6  7  1  0  0  0
  6  5  1  0  0  0
  7  8  2  0  0  0
  7  9  1  0  0  0
  9 10  1  0  0  0
  5  1  1  0  0  0
  5 13  1  0  0  0
  1  2  2  0  0  0
  1  3  1  0  0  0
 13 14  1  0  0  0
 14 15  1  0  0  0
 15 16  1  0  0  0
 16 17  1  0  0  0
  3 18  1  0  0  0
 18 29  1  0  0  0
 18 19  1  0  0  0
 29 30  1  0  0  0
 29 31  1  0  0  0
 19 20  2  0  0  0
 19 21  1  0  0  0
 21 22  1  0  0  0
 21 23  1  0  0  0
 22 25  1  0  0  0
 22 26  1  0  0  0
 23 24  1  0  0  0
 24 25  1  0  0  0
 26 27  1  0  0  0
  9 11  1  0  0  0
 10 12  1  0  0  0
  3  4  1  0  0  0
 27 28  1  0  0  0
M  END
> <minimizedAffinity>
-6.51305

$$$$
