3F8E_TE1_A_300


 23 23  0  0  0  0  0  0  0  0999 V2000
   -3.4404    6.7052   12.7464 C   0  0  0  0  0  0  0  0  0  0  0  0
   -2.1720    6.8970   13.2879 C   0  0  0  0  0  0  0  0  0  0  0  0
   -1.7075    5.9728   14.1639 C   0  0  0  0  0  0  0  0  0  0  0  0
   -4.1573    5.5929   13.1230 C   0  0  0  0  0  0  0  0  0  0  0  0
   -3.6955    4.6722   14.0251 C   0  0  0  0  0  0  0  0  0  0  0  0
   -2.4658    4.8907   14.5165 C   0  0  0  0  0  0  0  0  0  0  0  0
   -2.0268    4.0043   15.3979 O   0  0  0  0  0  0  0  0  0  0  0  0
   -1.1756    4.1025   15.7769 H   0  0  0  0  0  0  0  0  0  0  0  0
   -3.1320    7.7614   10.8829 O   0  0  0  0  0  0  0  0  0  0  0  0
   -4.1423    7.6227   11.7457 C   0  0  0  0  0  0  0  0  0  0  0  0
   -3.4078    8.3360   10.1517 H   0  0  0  0  0  0  0  0  0  0  0  0
   -5.4660    7.1288   10.9769 C   0  0  0  0  0  0  0  0  0  0  0  0
   -7.6263    7.7624   12.2990 C   0  0  0  0  0  0  0  0  0  0  0  0
   -6.3993    9.5415   10.9914 C   0  0  0  0  0  0  0  0  0  0  0  0
   -6.7400    8.0376   11.0248 C   0  0  0  0  0  0  0  0  0  0  0  0
   -1.4518    7.9846   12.9809 O   0  0  0  0  0  0  0  0  0  0  0  0
   -1.3043    8.9176   13.9075 C   0  0  0  0  0  0  0  0  0  0  0  0
   -4.8281    2.4007   13.5872 C   0  0  0  0  0  0  0  0  0  0  0  0
   -4.4185    3.5129   14.3923 C   0  0  0  0  0  0  0  0  0  0  0  0
   -3.4076    1.4277   11.9573 O   0  0  0  0  0  0  0  0  0  0  0  0
   -5.3036    2.0320   11.4375 O   0  0  0  0  0  0  0  0  0  0  0  0
   -4.5003    1.8740   12.3093 C   0  0  0  0  0  0  0  0  0  0  0  0
   -2.7347    1.2811   12.5927 H   0  0  0  0  0  0  0  0  0  0  0  0
 13 15  1  0  0  0
  9 10  1  0  0  0
 16 17  1  0  0  0
 16  2  1  0  0  0
 14 15  1  0  0  0
 15 12  1  0  0  0
 12 10  1  0  0  0
 10  1  1  0  0  0
  1  2  2  0  0  0
  1  4  1  0  0  0
  2  3  1  0  0  0
  3  6  2  0  0  0
 20 22  1  0  0  0
 21 22  2  0  0  0
 22 18  1  0  0  0
  4  5  2  0  0  0
  5  6  1  0  0  0
  5 19  1  0  0  0
  6  7  1  0  0  0
 18 19  2  0  0  0
  9 11  1  0  0  0
 20 23  1  0  0  0
  7  8  1  0  0  0
M  END
> <minimizedAffinity>
-6.51018

$$$$
3F8E_TE1_A_300


 23 23  0  0  0  0  0  0  0  0999 V2000
   -7.6582    8.1034    7.8499 C   0  0  0  0  0  0  0  0  0  0  0  0
   -6.9278    8.3553    6.6916 C   0  0  0  0  0  0  0  0  0  0  0  0
   -7.4231    9.2585    5.8105 C   0  0  0  0  0  0  0  0  0  0  0  0
   -8.8403    8.7798    8.0448 C   0  0  0  0  0  0  0  0  0  0  0  0
   -9.3503    9.6751    7.1430 C   0  0  0  0  0  0  0  0  0  0  0  0
   -8.6111    9.8944    6.0445 C   0  0  0  0  0  0  0  0  0  0  0  0
   -9.1130   10.7524    5.1687 O   0  0  0  0  0  0  0  0  0  0  0  0
   -8.6434   10.9471    4.3816 H   0  0  0  0  0  0  0  0  0  0  0  0
   -7.0677    6.0515    8.2032 O   0  0  0  0  0  0  0  0  0  0  0  0
   -7.2753    7.1296    8.9641 C   0  0  0  0  0  0  0  0  0  0  0  0
   -6.8059    5.3051    8.7646 H   0  0  0  0  0  0  0  0  0  0  0  0
   -5.9898    7.4137    9.8882 C   0  0  0  0  0  0  0  0  0  0  0  0
   -6.1986    9.8501   10.8027 C   0  0  0  0  0  0  0  0  0  0  0  0
   -7.4443    7.9771   11.9520 C   0  0  0  0  0  0  0  0  0  0  0  0
   -6.1666    8.3142   11.1566 C   0  0  0  0  0  0  0  0  0  0  0  0
   -5.7903    7.6931    6.4396 O   0  0  0  0  0  0  0  0  0  0  0  0
   -5.1642    7.9389    5.3001 C   0  0  0  0  0  0  0  0  0  0  0  0
  -10.7421   11.7257    7.8446 C   0  0  0  0  0  0  0  0  0  0  0  0
  -10.5509   10.3931    7.3542 C   0  0  0  0  0  0  0  0  0  0  0  0
   -9.9940   13.6624    8.9895 O   0  0  0  0  0  0  0  0  0  0  0  0
   -9.2582   13.2272    7.1188 O   0  0  0  0  0  0  0  0  0  0  0  0
   -9.9376   12.8801    8.0398 C   0  0  0  0  0  0  0  0  0  0  0  0
  -10.5096   13.4490    9.7423 H   0  0  0  0  0  0  0  0  0  0  0  0
 13 15  1  0  0  0
  9 10  1  0  0  0
 16 17  1  0  0  0
 16  2  1  0  0  0
 14 15  1  0  0  0
 15 12  1  0  0  0
 12 10  1  0  0  0
 10  1  1  0  0  0
  1  2  2  0  0  0
  1  4  1  0  0  0
  2  3  1  0  0  0
  3  6  2  0  0  0
 20 22  1  0  0  0
 21 22  2  0  0  0
 22 18  1  0  0  0
  4  5  2  0  0  0
  5  6  1  0  0  0
  5 19  1  0  0  0
  6  7  1  0  0  0
 18 19  2  0  0  0
  9 11  1  0  0  0
 20 23  1  0  0  0
  7  8  1  0  0  0
M  END
> <minimizedAffinity>
-6.30472

$$$$
3F8E_TE1_A_300


 23 23  0  0  0  0  0  0  0  0999 V2000
   -3.7846    3.9766   13.4306 C   0  0  0  0  0  0  0  0  0  0  0  0
   -4.5725    2.8306   13.4978 C   0  0  0  0  0  0  0  0  0  0  0  0
   -4.7685    2.1251   12.3571 C   0  0  0  0  0  0  0  0  0  0  0  0
   -3.2445    4.3358   12.2173 C   0  0  0  0  0  0  0  0  0  0  0  0
   -3.4620    3.6344   11.0616 C   0  0  0  0  0  0  0  0  0  0  0  0
   -4.2203    2.5325   11.1723 C   0  0  0  0  0  0  0  0  0  0  0  0
   -4.4384    1.8627   10.0502 O   0  0  0  0  0  0  0  0  0  0  0  0
   -4.9604    1.0847   10.0630 H   0  0  0  0  0  0  0  0  0  0  0  0
   -2.2674    4.3597   14.9256 O   0  0  0  0  0  0  0  0  0  0  0  0
   -3.4412    4.9050   14.5953 C   0  0  0  0  0  0  0  0  0  0  0  0
   -1.8877    4.8405   15.6776 H   0  0  0  0  0  0  0  0  0  0  0  0
   -3.2714    6.4861   14.3540 C   0  0  0  0  0  0  0  0  0  0  0  0
   -1.0851    7.2509   13.1492 C   0  0  0  0  0  0  0  0  0  0  0  0
   -1.8911    8.5100   15.1854 C   0  0  0  0  0  0  0  0  0  0  0  0
   -1.8489    7.1183   14.5218 C   0  0  0  0  0  0  0  0  0  0  0  0
   -5.1512    2.4618   14.6489 O   0  0  0  0  0  0  0  0  0  0  0  0
   -4.6918    1.3824   15.2609 C   0  0  0  0  0  0  0  0  0  0  0  0
   -3.2985    4.9741    8.8679 C   0  0  0  0  0  0  0  0  0  0  0  0
   -2.8848    3.9853    9.8186 C   0  0  0  0  0  0  0  0  0  0  0  0
   -5.3864    6.0792    8.6660 O   0  0  0  0  0  0  0  0  0  0  0  0
   -3.6585    7.1772    8.8627 O   0  0  0  0  0  0  0  0  0  0  0  0
   -4.1697    6.0961    8.8570 C   0  0  0  0  0  0  0  0  0  0  0  0
   -5.8468    5.2633    8.6499 H   0  0  0  0  0  0  0  0  0  0  0  0
 13 15  1  0  0  0
  9 10  1  0  0  0
 16 17  1  0  0  0
 16  2  1  0  0  0
 14 15  1  0  0  0
 15 12  1  0  0  0
 12 10  1  0  0  0
 10  1  1  0  0  0
  1  2  2  0  0  0
  1  4  1  0  0  0
  2  3  1  0  0  0
  3  6  2  0  0  0
 20 22  1  0  0  0
 21 22  2  0  0  0
 22 18  1  0  0  0
  4  5  2  0  0  0
  5  6  1  0  0  0
  5 19  1  0  0  0
  6  7  1  0  0  0
 18 19  2  0  0  0
  9 11  1  0  0  0
 20 23  1  0  0  0
  7  8  1  0  0  0
M  END
> <minimizedAffinity>
-6.02111

$$$$
3F8E_TE1_A_300


 23 23  0  0  0  0  0  0  0  0999 V2000
   -4.1836    6.1427   10.3562 C   0  0  0  0  0  0  0  0  0  0  0  0
   -2.8910    6.6597   10.3358 C   0  0  0  0  0  0  0  0  0  0  0  0
   -2.0232    6.2422   11.2897 C   0  0  0  0  0  0  0  0  0  0  0  0
   -4.5167    5.2373   11.3370 C   0  0  0  0  0  0  0  0  0  0  0  0
   -3.6455    4.8338   12.3133 C   0  0  0  0  0  0  0  0  0  0  0  0
   -2.4081    5.3500   12.2521 C   0  0  0  0  0  0  0  0  0  0  0  0
   -1.5713    4.9665   13.2049 O   0  0  0  0  0  0  0  0  0  0  0  0
   -0.6929    5.2927   13.2161 H   0  0  0  0  0  0  0  0  0  0  0  0
   -6.0917    5.4293    9.6256 O   0  0  0  0  0  0  0  0  0  0  0  0
   -5.3058    6.4799    9.3747 C   0  0  0  0  0  0  0  0  0  0  0  0
   -6.8849    5.4788    9.0695 H   0  0  0  0  0  0  0  0  0  0  0  0
   -6.1393    7.8469    9.5286 C   0  0  0  0  0  0  0  0  0  0  0  0
   -6.1813   10.1449   10.7670 C   0  0  0  0  0  0  0  0  0  0  0  0
   -7.2919    8.1386   11.8262 C   0  0  0  0  0  0  0  0  0  0  0  0
   -6.1279    8.5763   10.9140 C   0  0  0  0  0  0  0  0  0  0  0  0
   -2.5311    7.5730    9.4233 O   0  0  0  0  0  0  0  0  0  0  0  0
   -2.4509    8.8377    9.8039 C   0  0  0  0  0  0  0  0  0  0  0  0
   -4.5747    2.5873   13.1640 C   0  0  0  0  0  0  0  0  0  0  0  0
   -3.9765    3.8814   13.3057 C   0  0  0  0  0  0  0  0  0  0  0  0
   -5.5539    1.8354   11.1399 O   0  0  0  0  0  0  0  0  0  0  0  0
   -4.3826    0.5599   12.2495 O   0  0  0  0  0  0  0  0  0  0  0  0
   -4.8098    1.6678   12.1070 C   0  0  0  0  0  0  0  0  0  0  0  0
   -5.9217    2.6808   10.9727 H   0  0  0  0  0  0  0  0  0  0  0  0
 13 15  1  0  0  0
  9 10  1  0  0  0
 16 17  1  0  0  0
 16  2  1  0  0  0
 14 15  1  0  0  0
 15 12  1  0  0  0
 12 10  1  0  0  0
 10  1  1  0  0  0
  1  2  2  0  0  0
  1  4  1  0  0  0
  2  3  1  0  0  0
  3  6  2  0  0  0
 20 22  1  0  0  0
 21 22  2  0  0  0
 22 18  1  0  0  0
  4  5  2  0  0  0
  5  6  1  0  0  0
  5 19  1  0  0  0
  6  7  1  0  0  0
 18 19  2  0  0  0
  9 11  1  0  0  0
 20 23  1  0  0  0
  7  8  1  0  0  0
M  END
> <minimizedAffinity>
-5.84647

$$$$
3F8E_TE1_A_300


 23 23  0  0  0  0  0  0  0  0999 V2000
   -3.4720    4.0490   13.4232 C   0  0  0  0  0  0  0  0  0  0  0  0
   -4.3569    2.9791   13.5276 C   0  0  0  0  0  0  0  0  0  0  0  0
   -4.6902    2.3157   12.3935 C   0  0  0  0  0  0  0  0  0  0  0  0
   -2.9799    4.3795   12.1816 C   0  0  0  0  0  0  0  0  0  0  0  0
   -3.3351    3.7224   11.0341 C   0  0  0  0  0  0  0  0  0  0  0  0
   -4.1836    2.6928   11.1805 C   0  0  0  0  0  0  0  0  0  0  0  0
   -4.5344    2.0667   10.0669 O   0  0  0  0  0  0  0  0  0  0  0  0
   -5.1244    1.3397   10.1041 H   0  0  0  0  0  0  0  0  0  0  0  0
   -2.3679    3.9610   15.2824 O   0  0  0  0  0  0  0  0  0  0  0  0
   -2.9701    4.9203   14.5743 C   0  0  0  0  0  0  0  0  0  0  0  0
   -1.9763    4.3466   16.0817 H   0  0  0  0  0  0  0  0  0  0  0  0
   -1.9475    6.1299   14.2946 C   0  0  0  0  0  0  0  0  0  0  0  0
   -1.7174    8.6468   14.9492 C   0  0  0  0  0  0  0  0  0  0  0  0
   -2.5706    8.0299   12.6531 C   0  0  0  0  0  0  0  0  0  0  0  0
   -2.5279    7.5742   14.1260 C   0  0  0  0  0  0  0  0  0  0  0  0
   -4.8924    2.6438   14.7095 O   0  0  0  0  0  0  0  0  0  0  0  0
   -4.7013    1.4125   15.1547 C   0  0  0  0  0  0  0  0  0  0  0  0
   -1.5265    4.5780    9.4121 C   0  0  0  0  0  0  0  0  0  0  0  0
   -2.8086    4.0417    9.7604 C   0  0  0  0  0  0  0  0  0  0  0  0
    0.0623    5.6559   10.8032 O   0  0  0  0  0  0  0  0  0  0  0  0
    0.6166    4.0181    9.6894 O   0  0  0  0  0  0  0  0  0  0  0  0
   -0.2668    4.7398   10.0484 C   0  0  0  0  0  0  0  0  0  0  0  0
   -0.5833    6.2564   11.1204 H   0  0  0  0  0  0  0  0  0  0  0  0
 13 15  1  0  0  0
  9 10  1  0  0  0
 16 17  1  0  0  0
 16  2  1  0  0  0
 14 15  1  0  0  0
 15 12  1  0  0  0
 12 10  1  0  0  0
 10  1  1  0  0  0
  1  2  2  0  0  0
  1  4  1  0  0  0
  2  3  1  0  0  0
  3  6  2  0  0  0
 20 22  1  0  0  0
 21 22  2  0  0  0
 22 18  1  0  0  0
  4  5  2  0  0  0
  5  6  1  0  0  0
  5 19  1  0  0  0
  6  7  1  0  0  0
 18 19  2  0  0  0
  9 11  1  0  0  0
 20 23  1  0  0  0
  7  8  1  0  0  0
M  END
> <minimizedAffinity>
-5.82452

$$$$
3F8E_TE1_A_300


 23 23  0  0  0  0  0  0  0  0999 V2000
   -5.5372    7.3508   11.8629 C   0  0  0  0  0  0  0  0  0  0  0  0
   -4.2699    7.9189   11.7630 C   0  0  0  0  0  0  0  0  0  0  0  0
   -3.2430    7.2994   12.3946 C   0  0  0  0  0  0  0  0  0  0  0  0
   -5.6860    6.1939   12.5925 C   0  0  0  0  0  0  0  0  0  0  0  0
   -4.6516    5.5818   13.2484 C   0  0  0  0  0  0  0  0  0  0  0  0
   -3.4461    6.1576   13.1195 C   0  0  0  0  0  0  0  0  0  0  0  0
   -2.4498    5.5695   13.7649 O   0  0  0  0  0  0  0  0  0  0  0  0
   -1.5841    5.9245   13.7137 H   0  0  0  0  0  0  0  0  0  0  0  0
   -6.7454    9.1381   11.6916 O   0  0  0  0  0  0  0  0  0  0  0  0
   -6.8193    7.8878   11.2273 C   0  0  0  0  0  0  0  0  0  0  0  0
   -7.5091    9.6459   11.3757 H   0  0  0  0  0  0  0  0  0  0  0  0
   -6.9936    7.8980    9.6283 C   0  0  0  0  0  0  0  0  0  0  0  0
   -7.5791    6.3330    7.6223 C   0  0  0  0  0  0  0  0  0  0  0  0
   -5.1622    6.6723    8.2732 C   0  0  0  0  0  0  0  0  0  0  0  0
   -6.6006    6.6120    8.8264 C   0  0  0  0  0  0  0  0  0  0  0  0
   -4.0824    9.0658   11.0955 O   0  0  0  0  0  0  0  0  0  0  0  0
   -3.1370    9.1022   10.1704 C   0  0  0  0  0  0  0  0  0  0  0  0
   -4.8236    3.0245   13.5028 C   0  0  0  0  0  0  0  0  0  0  0  0
   -4.7962    4.3768   13.9754 C   0  0  0  0  0  0  0  0  0  0  0  0
   -3.3727    1.8744   12.0218 O   0  0  0  0  0  0  0  0  0  0  0  0
   -5.2765    2.3659   11.4184 O   0  0  0  0  0  0  0  0  0  0  0  0
   -4.4764    2.3407   12.3070 C   0  0  0  0  0  0  0  0  0  0  0  0
   -2.7015    1.8266   12.6739 H   0  0  0  0  0  0  0  0  0  0  0  0
 13 15  1  0  0  0
  9 10  1  0  0  0
 16 17  1  0  0  0
 16  2  1  0  0  0
 14 15  1  0  0  0
 15 12  1  0  0  0
 12 10  1  0  0  0
 10  1  1  0  0  0
  1  2  2  0  0  0
  1  4  1  0  0  0
  2  3  1  0  0  0
  3  6  2  0  0  0
 20 22  1  0  0  0
 21 22  2  0  0  0
 22 18  1  0  0  0
  4  5  2  0  0  0
  5  6  1  0  0  0
  5 19  1  0  0  0
  6  7  1  0  0  0
 18 19  2  0  0  0
  9 11  1  0  0  0
 20 23  1  0  0  0
  7  8  1  0  0  0
M  END
> <minimizedAffinity>
-5.59804

$$$$
3F8E_TE1_A_300


 23 23  0  0  0  0  0  0  0  0999 V2000
   -3.7912    5.5010   11.0677 C   0  0  0  0  0  0  0  0  0  0  0  0
   -2.9422    4.4673   10.6814 C   0  0  0  0  0  0  0  0  0  0  0  0
   -2.0108    4.0428   11.5700 C   0  0  0  0  0  0  0  0  0  0  0  0
   -3.6462    6.0386   12.3258 C   0  0  0  0  0  0  0  0  0  0  0  0
   -2.6901    5.6237   13.2138 C   0  0  0  0  0  0  0  0  0  0  0  0
   -1.8983    4.6203   12.8046 C   0  0  0  0  0  0  0  0  0  0  0  0
   -0.9668    4.2292   13.6616 O   0  0  0  0  0  0  0  0  0  0  0  0
   -0.3830    3.5327   13.4335 H   0  0  0  0  0  0  0  0  0  0  0  0
   -5.5578    4.9933    9.9254 O   0  0  0  0  0  0  0  0  0  0  0  0
   -4.9031    6.1196   10.2208 C   0  0  0  0  0  0  0  0  0  0  0  0
   -6.3255    5.2016    9.3704 H   0  0  0  0  0  0  0  0  0  0  0  0
   -5.9113    7.1970   10.8610 C   0  0  0  0  0  0  0  0  0  0  0  0
   -7.6383    8.3228    9.2590 C   0  0  0  0  0  0  0  0  0  0  0  0
   -6.3388    9.7482   10.8900 C   0  0  0  0  0  0  0  0  0  0  0  0
   -6.2694    8.4723   10.0263 C   0  0  0  0  0  0  0  0  0  0  0  0
   -3.0199    3.9380    9.4526 O   0  0  0  0  0  0  0  0  0  0  0  0
   -2.1901    4.3881    8.5254 C   0  0  0  0  0  0  0  0  0  0  0  0
   -1.9214    7.3641   14.9499 C   0  0  0  0  0  0  0  0  0  0  0  0
   -2.5574    6.1551   14.5183 C   0  0  0  0  0  0  0  0  0  0  0  0
   -1.8962    9.0828   13.3169 O   0  0  0  0  0  0  0  0  0  0  0  0
   -0.4331    9.0172   14.7609 O   0  0  0  0  0  0  0  0  0  0  0  0
   -1.4560    8.5607   14.3419 C   0  0  0  0  0  0  0  0  0  0  0  0
   -2.6944    8.7710   12.9379 H   0  0  0  0  0  0  0  0  0  0  0  0
 13 15  1  0  0  0
  9 10  1  0  0  0
 16 17  1  0  0  0
 16  2  1  0  0  0
 14 15  1  0  0  0
 15 12  1  0  0  0
 12 10  1  0  0  0
 10  1  1  0  0  0
  1  2  2  0  0  0
  1  4  1  0  0  0
  2  3  1  0  0  0
  3  6  2  0  0  0
 20 22  1  0  0  0
 21 22  2  0  0  0
 22 18  1  0  0  0
  4  5  2  0  0  0
  5  6  1  0  0  0
  5 19  1  0  0  0
  6  7  1  0  0  0
 18 19  2  0  0  0
  9 11  1  0  0  0
 20 23  1  0  0  0
  7  8  1  0  0  0
M  END
> <minimizedAffinity>
-5.44146

$$$$
3F8E_TE1_A_300


 23 23  0  0  0  0  0  0  0  0999 V2000
   -3.4451    4.8232   12.9822 C   0  0  0  0  0  0  0  0  0  0  0  0
   -4.2868    4.2322   13.9207 C   0  0  0  0  0  0  0  0  0  0  0  0
   -5.5165    4.7725   14.1027 C   0  0  0  0  0  0  0  0  0  0  0  0
   -3.8991    5.9203   12.2872 C   0  0  0  0  0  0  0  0  0  0  0  0
   -5.1331    6.4784   12.4884 C   0  0  0  0  0  0  0  0  0  0  0  0
   -5.9153    5.8733   13.3958 C   0  0  0  0  0  0  0  0  0  0  0  0
   -7.1039    6.4227   13.5964 O   0  0  0  0  0  0  0  0  0  0  0  0
   -7.6954    6.0459   14.2178 H   0  0  0  0  0  0  0  0  0  0  0  0
   -2.3237    3.1179   12.2626 O   0  0  0  0  0  0  0  0  0  0  0  0
   -2.0296    4.3689   12.6270 C   0  0  0  0  0  0  0  0  0  0  0  0
   -1.5118    2.6598   11.9945 H   0  0  0  0  0  0  0  0  0  0  0  0
   -1.2053    5.1084   11.4605 C   0  0  0  0  0  0  0  0  0  0  0  0
   -2.4402    4.8606    9.1736 C   0  0  0  0  0  0  0  0  0  0  0  0
    0.0848    4.8242    9.2362 C   0  0  0  0  0  0  0  0  0  0  0  0
   -1.1828    4.4597   10.0358 C   0  0  0  0  0  0  0  0  0  0  0  0
   -3.8749    3.1855   14.6494 O   0  0  0  0  0  0  0  0  0  0  0  0
   -4.7235    2.1895   14.8465 C   0  0  0  0  0  0  0  0  0  0  0  0
   -5.9625    7.6839   10.3687 C   0  0  0  0  0  0  0  0  0  0  0  0
   -5.6133    7.5889   11.7550 C   0  0  0  0  0  0  0  0  0  0  0  0
   -6.3715    5.5593    9.3993 O   0  0  0  0  0  0  0  0  0  0  0  0
   -6.1508    7.2118    8.1950 O   0  0  0  0  0  0  0  0  0  0  0  0
   -6.2331    6.7797    9.3071 C   0  0  0  0  0  0  0  0  0  0  0  0
   -6.4421    5.1582   10.2432 H   0  0  0  0  0  0  0  0  0  0  0  0
 13 15  1  0  0  0
  9 10  1  0  0  0
 16 17  1  0  0  0
 16  2  1  0  0  0
 14 15  1  0  0  0
 15 12  1  0  0  0
 12 10  1  0  0  0
 10  1  1  0  0  0
  1  2  2  0  0  0
  1  4  1  0  0  0
  2  3  1  0  0  0
  3  6  2  0  0  0
 20 22  1  0  0  0
 21 22  2  0  0  0
 22 18  1  0  0  0
  4  5  2  0  0  0
  5  6  1  0  0  0
  5 19  1  0  0  0
  6  7  1  0  0  0
 18 19  2  0  0  0
  9 11  1  0  0  0
 20 23  1  0  0  0
  7  8  1  0  0  0
M  END
> <minimizedAffinity>
-5.35334

$$$$
3F8E_TE1_A_300


 23 23  0  0  0  0  0  0  0  0999 V2000
   -3.3895    5.6745   10.1597 C   0  0  0  0  0  0  0  0  0  0  0  0
   -2.2240    5.1244    9.6329 C   0  0  0  0  0  0  0  0  0  0  0  0
   -1.3619    4.5214   10.4875 C   0  0  0  0  0  0  0  0  0  0  0  0
   -3.6103    5.5796   11.5144 C   0  0  0  0  0  0  0  0  0  0  0  0
   -2.7276    4.9898   12.3792 C   0  0  0  0  0  0  0  0  0  0  0  0
   -1.6213    4.4656   11.8291 C   0  0  0  0  0  0  0  0  0  0  0  0
   -0.7639    3.9062   12.6700 O   0  0  0  0  0  0  0  0  0  0  0  0
    0.0274    3.5228   12.3463 H   0  0  0  0  0  0  0  0  0  0  0  0
   -4.5739    5.5298    8.3542 O   0  0  0  0  0  0  0  0  0  0  0  0
   -4.4855    6.3912    9.3713 C   0  0  0  0  0  0  0  0  0  0  0  0
   -5.2489    5.8363    7.7287 H   0  0  0  0  0  0  0  0  0  0  0  0
   -5.9355    6.6304   10.0249 C   0  0  0  0  0  0  0  0  0  0  0  0
   -6.5026    8.8240   11.3221 C   0  0  0  0  0  0  0  0  0  0  0  0
   -5.8916    8.9469    8.8742 C   0  0  0  0  0  0  0  0  0  0  0  0
   -6.5642    8.0619    9.9435 C   0  0  0  0  0  0  0  0  0  0  0  0
   -1.9470    5.2257    8.3256 O   0  0  0  0  0  0  0  0  0  0  0  0
   -1.2095    4.2788    7.7685 C   0  0  0  0  0  0  0  0  0  0  0  0
   -3.9454    4.0809   14.4589 C   0  0  0  0  0  0  0  0  0  0  0  0
   -2.9654    4.8655   13.7683 C   0  0  0  0  0  0  0  0  0  0  0  0
   -4.4754    1.8682   13.7924 O   0  0  0  0  0  0  0  0  0  0  0  0
   -5.9763    3.2515   14.0456 O   0  0  0  0  0  0  0  0  0  0  0  0
   -4.8114    2.9995   14.1450 C   0  0  0  0  0  0  0  0  0  0  0  0
   -3.5767    1.6085   13.8456 H   0  0  0  0  0  0  0  0  0  0  0  0
 13 15  1  0  0  0
  9 10  1  0  0  0
 16 17  1  0  0  0
 16  2  1  0  0  0
 14 15  1  0  0  0
 15 12  1  0  0  0
 12 10  1  0  0  0
 10  1  1  0  0  0
  1  2  2  0  0  0
  1  4  1  0  0  0
  2  3  1  0  0  0
  3  6  2  0  0  0
 20 22  1  0  0  0
 21 22  2  0  0  0
 22 18  1  0  0  0
  4  5  2  0  0  0
  5  6  1  0  0  0
  5 19  1  0  0  0
  6  7  1  0  0  0
 18 19  2  0  0  0
  9 11  1  0  0  0
 20 23  1  0  0  0
  7  8  1  0  0  0
M  END
> <minimizedAffinity>
-5.22636

$$$$
3F8E_TE1_A_300


 23 23  0  0  0  0  0  0  0  0999 V2000
   -2.8683    6.4447   12.0616 C   0  0  0  0  0  0  0  0  0  0  0  0
   -1.6061    6.6069   12.6266 C   0  0  0  0  0  0  0  0  0  0  0  0
   -1.2692    5.8114   13.6711 C   0  0  0  0  0  0  0  0  0  0  0  0
   -3.7083    5.4897   12.5862 C   0  0  0  0  0  0  0  0  0  0  0  0
   -3.3747    4.7024   13.6557 C   0  0  0  0  0  0  0  0  0  0  0  0
   -2.1464    4.8857   14.1648 C   0  0  0  0  0  0  0  0  0  0  0  0
   -1.8313    4.1306   15.2068 O   0  0  0  0  0  0  0  0  0  0  0  0
   -0.9878    4.2123   15.6065 H   0  0  0  0  0  0  0  0  0  0  0  0
   -3.2229    8.4623   11.3636 O   0  0  0  0  0  0  0  0  0  0  0  0
   -3.4376    7.2345   10.8833 C   0  0  0  0  0  0  0  0  0  0  0  0
   -3.5353    9.1195   10.7222 H   0  0  0  0  0  0  0  0  0  0  0  0
   -2.7914    7.0901    9.4174 C   0  0  0  0  0  0  0  0  0  0  0  0
   -3.2613    5.4268    7.4607 C   0  0  0  0  0  0  0  0  0  0  0  0
   -5.1978    6.5251    8.6542 C   0  0  0  0  0  0  0  0  0  0  0  0
   -3.7316    6.7259    8.2197 C   0  0  0  0  0  0  0  0  0  0  0  0
   -0.7677    7.5498   12.1748 O   0  0  0  0  0  0  0  0  0  0  0  0
   -0.1403    8.3045   13.0623 C   0  0  0  0  0  0  0  0  0  0  0  0
   -4.7957    2.5580   13.5288 C   0  0  0  0  0  0  0  0  0  0  0  0
   -4.2252    3.7002   14.1789 C   0  0  0  0  0  0  0  0  0  0  0  0
   -3.6124    1.1168   12.0646 O   0  0  0  0  0  0  0  0  0  0  0  0
   -5.3036    2.0851   11.4071 O   0  0  0  0  0  0  0  0  0  0  0  0
   -4.5764    1.8383   12.3239 C   0  0  0  0  0  0  0  0  0  0  0  0
   -3.0048    0.8862   12.7395 H   0  0  0  0  0  0  0  0  0  0  0  0
 13 15  1  0  0  0
  9 10  1  0  0  0
 16 17  1  0  0  0
 16  2  1  0  0  0
 14 15  1  0  0  0
 15 12  1  0  0  0
 12 10  1  0  0  0
 10  1  1  0  0  0
  1  2  2  0  0  0
  1  4  1  0  0  0
  2  3  1  0  0  0
  3  6  2  0  0  0
 20 22  1  0  0  0
 21 22  2  0  0  0
 22 18  1  0  0  0
  4  5  2  0  0  0
  5  6  1  0  0  0
  5 19  1  0  0  0
  6  7  1  0  0  0
 18 19  2  0  0  0
  9 11  1  0  0  0
 20 23  1  0  0  0
  7  8  1  0  0  0
M  END
> <minimizedAffinity>
-5.18211

$$$$
