4CWF_H05_A_1224


 19 21  0  0  0  0  0  0  0  0999 V2000
    7.3146   14.2020   25.8210 C   0  0  0  0  0  0  0  0  0  0  0  0
    7.9918   13.1482   25.3292 N   0  0  0  0  0  0  0  0  0  0  0  0
    8.1765   14.9612   26.5426 N   0  0  0  0  0  0  0  0  0  0  0  0
    9.3478   13.1533   25.7025 N   0  0  0  0  0  0  0  0  0  0  0  0
    7.3566   12.2157   24.5738 C   0  0  0  0  0  0  0  0  0  0  0  0
    6.0200   12.3759   24.3077 N   0  0  0  0  0  0  0  0  0  0  0  0
    9.3636   14.2953   26.4370 C   0  0  0  0  0  0  0  0  0  0  0  0
    5.9555   14.4135   25.5822 C   0  0  0  0  0  0  0  0  0  0  0  0
    5.3107   13.4506   24.7936 C   0  0  0  0  0  0  0  0  0  0  0  0
   10.4899   14.7629   27.0342 N   0  0  0  0  0  0  0  0  0  0  0  0
    5.2585   15.5203   26.0944 C   0  0  0  0  0  0  0  0  0  0  0  0
    3.9438   13.6087   24.5233 C   0  0  0  0  0  0  0  0  0  0  0  0
    3.9053   15.6605   25.8189 C   0  0  0  0  0  0  0  0  0  0  0  0
    3.2560   14.7112   25.0377 C   0  0  0  0  0  0  0  0  0  0  0  0
   10.4596   15.5956   27.5587 H   0  0  0  0  0  0  0  0  0  0  0  0
   11.3369   14.2694   26.9427 H   0  0  0  0  0  0  0  0  0  0  0  0
    8.0908   11.0065   24.0226 C   0  0  0  0  0  0  0  0  0  0  0  0
    7.0947    9.9639   23.5040 C   0  0  0  0  0  0  0  0  0  0  0  0
    7.3876    8.5634   24.0102 C   0  0  0  0  0  0  0  0  0  0  0  0
  2  1  1  0  0  0
  3  1  2  0  0  0
  1  8  1  0  0  0
  4  2  1  0  0  0
  2  5  1  0  0  0
  7  3  1  0  0  0
  4  7  2  0  0  0
 17  5  1  0  0  0
  5  6  2  0  0  0
  6  9  1  0  0  0
 10  7  1  0  0  0
  8  9  2  0  0  0
  8 11  1  0  0  0
  9 12  1  0  0  0
 11 13  2  0  0  0
 17 18  1  0  0  0
 12 14  2  0  0  0
 18 19  1  0  0  0
 13 14  1  0  0  0
 10 15  1  0  0  0
 10 16  1  0  0  0
M  END
> <minimizedAffinity>
-9.33833

$$$$
4CWF_H05_A_1224


 19 21  0  0  0  0  0  0  0  0999 V2000
    5.2090   11.8235   24.0003 C   0  0  0  0  0  0  0  0  0  0  0  0
    4.0554   11.2014   23.6948 N   0  0  0  0  0  0  0  0  0  0  0  0
    6.2351   10.9960   23.6808 N   0  0  0  0  0  0  0  0  0  0  0  0
    4.2580    9.9192   23.1536 N   0  0  0  0  0  0  0  0  0  0  0  0
    2.8643   11.8098   23.9288 C   0  0  0  0  0  0  0  0  0  0  0  0
    2.8586   13.0730   24.4648 N   0  0  0  0  0  0  0  0  0  0  0  0
    5.6152    9.8860   23.1833 C   0  0  0  0  0  0  0  0  0  0  0  0
    5.2613   13.1068   24.5474 C   0  0  0  0  0  0  0  0  0  0  0  0
    4.0269   13.7303   24.7766 C   0  0  0  0  0  0  0  0  0  0  0  0
    6.3285    8.8181   22.7420 N   0  0  0  0  0  0  0  0  0  0  0  0
    6.4706   13.7508   24.8570 C   0  0  0  0  0  0  0  0  0  0  0  0
    4.0171   15.0195   25.3284 C   0  0  0  0  0  0  0  0  0  0  0  0
    6.4429   15.0260   25.4045 C   0  0  0  0  0  0  0  0  0  0  0  0
    5.2240   15.6536   25.6359 C   0  0  0  0  0  0  0  0  0  0  0  0
    7.3122    8.8333   22.7806 H   0  0  0  0  0  0  0  0  0  0  0  0
    5.8621    8.0288   22.3834 H   0  0  0  0  0  0  0  0  0  0  0  0
    1.5472   11.1240   23.6126 C   0  0  0  0  0  0  0  0  0  0  0  0
    0.3774   12.0963   23.7980 C   0  0  0  0  0  0  0  0  0  0  0  0
   -0.0519   12.7588   22.5017 C   0  0  0  0  0  0  0  0  0  0  0  0
  2  1  1  0  0  0
  3  1  2  0  0  0
  1  8  1  0  0  0
  4  2  1  0  0  0
  2  5  1  0  0  0
  7  3  1  0  0  0
  4  7  2  0  0  0
 17  5  1  0  0  0
  5  6  2  0  0  0
  6  9  1  0  0  0
 10  7  1  0  0  0
  8  9  2  0  0  0
  8 11  1  0  0  0
  9 12  1  0  0  0
 11 13  2  0  0  0
 17 18  1  0  0  0
 12 14  2  0  0  0
 18 19  1  0  0  0
 13 14  1  0  0  0
 10 15  1  0  0  0
 10 16  1  0  0  0
M  END
> <minimizedAffinity>
-8.48921

$$$$
4CWF_H05_A_1224


 19 21  0  0  0  0  0  0  0  0999 V2000
    3.0255   12.7297   24.2834 C   0  0  0  0  0  0  0  0  0  0  0  0
    3.3997   11.5167   23.8367 N   0  0  0  0  0  0  0  0  0  0  0  0
    1.6747   12.8164   24.1954 N   0  0  0  0  0  0  0  0  0  0  0  0
    2.3086   10.7304   23.4254 N   0  0  0  0  0  0  0  0  0  0  0  0
    4.7125   11.1716   23.8051 C   0  0  0  0  0  0  0  0  0  0  0  0
    5.6463   12.0727   24.2513 N   0  0  0  0  0  0  0  0  0  0  0  0
    1.3037   11.6063   23.6835 C   0  0  0  0  0  0  0  0  0  0  0  0
    3.9323   13.6841   24.7478 C   0  0  0  0  0  0  0  0  0  0  0  0
    5.2844   13.3151   24.7201 C   0  0  0  0  0  0  0  0  0  0  0  0
   -0.0011   11.3075   23.4552 N   0  0  0  0  0  0  0  0  0  0  0  0
    3.5317   14.9455   25.2185 C   0  0  0  0  0  0  0  0  0  0  0  0
    6.2418   14.2351   25.1711 C   0  0  0  0  0  0  0  0  0  0  0  0
    4.4925   15.8450   25.6595 C   0  0  0  0  0  0  0  0  0  0  0  0
    5.8363   15.4891   25.6363 C   0  0  0  0  0  0  0  0  0  0  0  0
   -0.7004   11.9708   23.6559 H   0  0  0  0  0  0  0  0  0  0  0  0
   -0.2478   10.4276   23.0890 H   0  0  0  0  0  0  0  0  0  0  0  0
    5.1650    9.8179   23.2877 C   0  0  0  0  0  0  0  0  0  0  0  0
    6.6691    9.6319   23.5138 C   0  0  0  0  0  0  0  0  0  0  0  0
    7.0191    8.2621   24.0657 C   0  0  0  0  0  0  0  0  0  0  0  0
  2  1  1  0  0  0
  3  1  2  0  0  0
  1  8  1  0  0  0
  4  2  1  0  0  0
  2  5  1  0  0  0
  7  3  1  0  0  0
  4  7  2  0  0  0
 17  5  1  0  0  0
  5  6  2  0  0  0
  6  9  1  0  0  0
 10  7  1  0  0  0
  8  9  2  0  0  0
  8 11  1  0  0  0
  9 12  1  0  0  0
 11 13  2  0  0  0
 17 18  1  0  0  0
 12 14  2  0  0  0
 18 19  1  0  0  0
 13 14  1  0  0  0
 10 15  1  0  0  0
 10 16  1  0  0  0
M  END
> <minimizedAffinity>
-8.48146

$$$$
4CWF_H05_A_1224


 19 21  0  0  0  0  0  0  0  0999 V2000
    5.8876   12.0648   24.2749 C   0  0  0  0  0  0  0  0  0  0  0  0
    5.0682   11.0735   23.8786 N   0  0  0  0  0  0  0  0  0  0  0  0
    7.1666   11.6251   24.1721 N   0  0  0  0  0  0  0  0  0  0  0  0
    5.7664    9.9160   23.4903 N   0  0  0  0  0  0  0  0  0  0  0  0
    3.7217   11.2474   23.8954 C   0  0  0  0  0  0  0  0  0  0  0  0
    3.2139   12.4542   24.3065 N   0  0  0  0  0  0  0  0  0  0  0  0
    7.0355   10.3500   23.7022 C   0  0  0  0  0  0  0  0  0  0  0  0
    5.4252   13.3107   24.7025 C   0  0  0  0  0  0  0  0  0  0  0  0
    4.0342   13.4839   24.7075 C   0  0  0  0  0  0  0  0  0  0  0  0
    8.1223    9.5726   23.4602 N   0  0  0  0  0  0  0  0  0  0  0  0
    6.2885   14.3419   25.1082 C   0  0  0  0  0  0  0  0  0  0  0  0
    3.5115   14.7143   25.1312 C   0  0  0  0  0  0  0  0  0  0  0  0
    5.7544   15.5529   25.5264 C   0  0  0  0  0  0  0  0  0  0  0  0
    4.3761   15.7352   25.5353 C   0  0  0  0  0  0  0  0  0  0  0  0
    9.0264    9.9247   23.6270 H   0  0  0  0  0  0  0  0  0  0  0  0
    8.0061    8.6568   23.1179 H   0  0  0  0  0  0  0  0  0  0  0  0
    2.7731   10.1400   23.4729 C   0  0  0  0  0  0  0  0  0  0  0  0
    1.7988    9.8054   24.6074 C   0  0  0  0  0  0  0  0  0  0  0  0
    2.4895    9.2252   25.8279 C   0  0  0  0  0  0  0  0  0  0  0  0
  2  1  1  0  0  0
  3  1  2  0  0  0
  1  8  1  0  0  0
  4  2  1  0  0  0
  2  5  1  0  0  0
  7  3  1  0  0  0
  4  7  2  0  0  0
 17  5  1  0  0  0
  5  6  2  0  0  0
  6  9  1  0  0  0
 10  7  1  0  0  0
  8  9  2  0  0  0
  8 11  1  0  0  0
  9 12  1  0  0  0
 11 13  2  0  0  0
 17 18  1  0  0  0
 12 14  2  0  0  0
 18 19  1  0  0  0
 13 14  1  0  0  0
 10 15  1  0  0  0
 10 16  1  0  0  0
M  END
> <minimizedAffinity>
-8.33846

$$$$
4CWF_H05_A_1224


 19 21  0  0  0  0  0  0  0  0999 V2000
    6.0152   13.4464   24.9238 C   0  0  0  0  0  0  0  0  0  0  0  0
    6.8625   14.2377   25.6069 N   0  0  0  0  0  0  0  0  0  0  0  0
    4.7818   14.0093   24.9651 N   0  0  0  0  0  0  0  0  0  0  0  0
    6.2304   15.3747   26.1415 N   0  0  0  0  0  0  0  0  0  0  0  0
    8.1706   13.8963   25.7327 C   0  0  0  0  0  0  0  0  0  0  0  0
    8.6150   12.7421   25.1382 N   0  0  0  0  0  0  0  0  0  0  0  0
    4.9679   15.1473   25.6961 C   0  0  0  0  0  0  0  0  0  0  0  0
    6.4131   12.2623   24.3004 C   0  0  0  0  0  0  0  0  0  0  0  0
    7.7672   11.9230   24.4279 C   0  0  0  0  0  0  0  0  0  0  0  0
    3.9401   15.9972   25.9514 N   0  0  0  0  0  0  0  0  0  0  0  0
    5.5226   11.4458   23.5838 C   0  0  0  0  0  0  0  0  0  0  0  0
    8.2240   10.7420   23.8254 C   0  0  0  0  0  0  0  0  0  0  0  0
    5.9909   10.2792   22.9952 C   0  0  0  0  0  0  0  0  0  0  0  0
    7.3321    9.9333   23.1156 C   0  0  0  0  0  0  0  0  0  0  0  0
    3.0387   15.7961   25.6103 H   0  0  0  0  0  0  0  0  0  0  0  0
    4.0963   16.8145   26.4776 H   0  0  0  0  0  0  0  0  0  0  0  0
    9.1447   14.7596   26.5143 C   0  0  0  0  0  0  0  0  0  0  0  0
   10.5729   14.2236   26.3696 C   0  0  0  0  0  0  0  0  0  0  0  0
   11.4208   14.4591   27.6062 C   0  0  0  0  0  0  0  0  0  0  0  0
  2  1  1  0  0  0
  3  1  2  0  0  0
  1  8  1  0  0  0
  4  2  1  0  0  0
  2  5  1  0  0  0
  7  3  1  0  0  0
  4  7  2  0  0  0
 17  5  1  0  0  0
  5  6  2  0  0  0
  6  9  1  0  0  0
 10  7  1  0  0  0
  8  9  2  0  0  0
  8 11  1  0  0  0
  9 12  1  0  0  0
 11 13  2  0  0  0
 17 18  1  0  0  0
 12 14  2  0  0  0
 18 19  1  0  0  0
 13 14  1  0  0  0
 10 15  1  0  0  0
 10 16  1  0  0  0
M  END
> <minimizedAffinity>
-8.11113

$$$$
4CWF_H05_A_1224


 19 21  0  0  0  0  0  0  0  0999 V2000
    5.6769   13.2200   24.7178 C   0  0  0  0  0  0  0  0  0  0  0  0
    6.6721   12.3467   24.4772 N   0  0  0  0  0  0  0  0  0  0  0  0
    6.2143   14.3325   25.2776 N   0  0  0  0  0  0  0  0  0  0  0  0
    7.9305   12.8379   24.8686 N   0  0  0  0  0  0  0  0  0  0  0  0
    6.4042   11.1350   23.9261 C   0  0  0  0  0  0  0  0  0  0  0  0
    5.1068   10.8249   23.6044 N   0  0  0  0  0  0  0  0  0  0  0  0
    7.5490   14.0522   25.3417 C   0  0  0  0  0  0  0  0  0  0  0  0
    4.3407   12.9563   24.4113 C   0  0  0  0  0  0  0  0  0  0  0  0
    4.0754   11.7067   23.8340 C   0  0  0  0  0  0  0  0  0  0  0  0
    8.4342   14.9489   25.8479 N   0  0  0  0  0  0  0  0  0  0  0  0
    3.3093   13.8769   24.6600 C   0  0  0  0  0  0  0  0  0  0  0  0
    2.7501   11.3846   23.5080 C   0  0  0  0  0  0  0  0  0  0  0  0
    2.0028   13.5412   24.3330 C   0  0  0  0  0  0  0  0  0  0  0  0
    1.7285   12.3045   23.7601 C   0  0  0  0  0  0  0  0  0  0  0  0
    8.1171   15.8193   26.1811 H   0  0  0  0  0  0  0  0  0  0  0  0
    9.3932   14.7286   25.8817 H   0  0  0  0  0  0  0  0  0  0  0  0
    7.5043   10.1225   23.6621 C   0  0  0  0  0  0  0  0  0  0  0  0
    6.9129    8.7192   23.4918 C   0  0  0  0  0  0  0  0  0  0  0  0
    7.4560    7.7226   24.4995 C   0  0  0  0  0  0  0  0  0  0  0  0
  2  1  1  0  0  0
  3  1  2  0  0  0
  1  8  1  0  0  0
  4  2  1  0  0  0
  2  5  1  0  0  0
  7  3  1  0  0  0
  4  7  2  0  0  0
 17  5  1  0  0  0
  5  6  2  0  0  0
  6  9  1  0  0  0
 10  7  1  0  0  0
  8  9  2  0  0  0
  8 11  1  0  0  0
  9 12  1  0  0  0
 11 13  2  0  0  0
 17 18  1  0  0  0
 12 14  2  0  0  0
 18 19  1  0  0  0
 13 14  1  0  0  0
 10 15  1  0  0  0
 10 16  1  0  0  0
M  END
> <minimizedAffinity>
-7.86344

$$$$
4CWF_H05_A_1224


 19 21  0  0  0  0  0  0  0  0999 V2000
    2.8975   11.6334   23.6448 C   0  0  0  0  0  0  0  0  0  0  0  0
    2.8310   12.8602   24.1940 N   0  0  0  0  0  0  0  0  0  0  0  0
    1.6446   11.2630   23.2803 N   0  0  0  0  0  0  0  0  0  0  0  0
    1.5208   13.3706   24.2232 N   0  0  0  0  0  0  0  0  0  0  0  0
    3.9535   13.4659   24.6596 C   0  0  0  0  0  0  0  0  0  0  0  0
    5.1554   12.8136   24.5449 N   0  0  0  0  0  0  0  0  0  0  0  0
    0.8716   12.3279   23.6442 C   0  0  0  0  0  0  0  0  0  0  0  0
    4.0922   10.9251   23.5039 C   0  0  0  0  0  0  0  0  0  0  0  0
    5.2468   11.5624   23.9789 C   0  0  0  0  0  0  0  0  0  0  0  0
   -0.4691   12.3324   23.4285 N   0  0  0  0  0  0  0  0  0  0  0  0
    4.1527    9.6475   22.9232 C   0  0  0  0  0  0  0  0  0  0  0  0
    6.4761   10.8970   23.8674 C   0  0  0  0  0  0  0  0  0  0  0  0
    5.3774    9.0020   22.8224 C   0  0  0  0  0  0  0  0  0  0  0  0
    6.5288    9.6252   23.2904 C   0  0  0  0  0  0  0  0  0  0  0  0
   -0.9022   11.5561   23.0056 H   0  0  0  0  0  0  0  0  0  0  0  0
   -1.0079   13.1120   23.6951 H   0  0  0  0  0  0  0  0  0  0  0  0
    3.9054   14.8407   25.3017 C   0  0  0  0  0  0  0  0  0  0  0  0
    5.3152   15.4305   25.4146 C   0  0  0  0  0  0  0  0  0  0  0  0
    6.0175   15.0414   26.7026 C   0  0  0  0  0  0  0  0  0  0  0  0
  2  1  1  0  0  0
  3  1  2  0  0  0
  1  8  1  0  0  0
  4  2  1  0  0  0
  2  5  1  0  0  0
  7  3  1  0  0  0
  4  7  2  0  0  0
 17  5  1  0  0  0
  5  6  2  0  0  0
  6  9  1  0  0  0
 10  7  1  0  0  0
  8  9  2  0  0  0
  8 11  1  0  0  0
  9 12  1  0  0  0
 11 13  2  0  0  0
 17 18  1  0  0  0
 12 14  2  0  0  0
 18 19  1  0  0  0
 13 14  1  0  0  0
 10 15  1  0  0  0
 10 16  1  0  0  0
M  END
> <minimizedAffinity>
-7.79287

$$$$
4CWF_H05_A_1224


 19 21  0  0  0  0  0  0  0  0999 V2000
    4.1385   12.7920   24.4404 C   0  0  0  0  0  0  0  0  0  0  0  0
    2.8518   13.1690   24.3251 N   0  0  0  0  0  0  0  0  0  0  0  0
    4.8241   13.7988   25.0372 N   0  0  0  0  0  0  0  0  0  0  0  0
    2.6156   14.4553   24.8425 N   0  0  0  0  0  0  0  0  0  0  0  0
    1.9435   12.3430   23.7453 C   0  0  0  0  0  0  0  0  0  0  0  0
    2.3565   11.1140   23.2959 N   0  0  0  0  0  0  0  0  0  0  0  0
    3.8744   14.7554   25.2539 C   0  0  0  0  0  0  0  0  0  0  0  0
    4.6126   11.5548   24.0004 C   0  0  0  0  0  0  0  0  0  0  0  0
    3.6656   10.7053   23.4118 C   0  0  0  0  0  0  0  0  0  0  0  0
    4.1846   15.9339   25.8530 N   0  0  0  0  0  0  0  0  0  0  0  0
    5.9564   11.1672   24.1310 C   0  0  0  0  0  0  0  0  0  0  0  0
    4.0849    9.4503   22.9474 C   0  0  0  0  0  0  0  0  0  0  0  0
    6.3550    9.9223   23.6642 C   0  0  0  0  0  0  0  0  0  0  0  0
    5.4239    9.0719   23.0788 C   0  0  0  0  0  0  0  0  0  0  0  0
    5.1101   16.1132   26.1368 H   0  0  0  0  0  0  0  0  0  0  0  0
    3.4841   16.6091   26.0033 H   0  0  0  0  0  0  0  0  0  0  0  0
    0.4898   12.7502   23.5840 C   0  0  0  0  0  0  0  0  0  0  0  0
   -0.4123   11.8824   24.4679 C   0  0  0  0  0  0  0  0  0  0  0  0
   -1.7369   11.5441   23.8088 C   0  0  0  0  0  0  0  0  0  0  0  0
  2  1  1  0  0  0
  3  1  2  0  0  0
  1  8  1  0  0  0
  4  2  1  0  0  0
  2  5  1  0  0  0
  7  3  1  0  0  0
  4  7  2  0  0  0
 17  5  1  0  0  0
  5  6  2  0  0  0
  6  9  1  0  0  0
 10  7  1  0  0  0
  8  9  2  0  0  0
  8 11  1  0  0  0
  9 12  1  0  0  0
 11 13  2  0  0  0
 17 18  1  0  0  0
 12 14  2  0  0  0
 18 19  1  0  0  0
 13 14  1  0  0  0
 10 15  1  0  0  0
 10 16  1  0  0  0
M  END
> <minimizedAffinity>
-7.63640

$$$$
4CWF_H05_A_1224


 19 21  0  0  0  0  0  0  0  0999 V2000
    4.5855   10.2781   23.4254 C   0  0  0  0  0  0  0  0  0  0  0  0
    3.2878    9.9222   23.4397 N   0  0  0  0  0  0  0  0  0  0  0  0
    5.2967    9.2676   22.8661 N   0  0  0  0  0  0  0  0  0  0  0  0
    3.0694    8.6473   22.8874 N   0  0  0  0  0  0  0  0  0  0  0  0
    2.3527   10.7562   23.9629 C   0  0  0  0  0  0  0  0  0  0  0  0
    2.7515   11.9716   24.4597 N   0  0  0  0  0  0  0  0  0  0  0  0
    4.3501    8.3308   22.5657 C   0  0  0  0  0  0  0  0  0  0  0  0
    5.0460   11.5007   23.9174 C   0  0  0  0  0  0  0  0  0  0  0  0
    4.0722   12.3588   24.4469 C   0  0  0  0  0  0  0  0  0  0  0  0
    4.6844    7.1552   21.9739 N   0  0  0  0  0  0  0  0  0  0  0  0
    6.4020   11.8664   23.8921 C   0  0  0  0  0  0  0  0  0  0  0  0
    4.4766   13.5998   24.9594 C   0  0  0  0  0  0  0  0  0  0  0  0
    6.7855   13.0978   24.4054 C   0  0  0  0  0  0  0  0  0  0  0  0
    5.8277   13.9564   24.9329 C   0  0  0  0  0  0  0  0  0  0  0  0
    5.6253    6.9636   21.7566 H   0  0  0  0  0  0  0  0  0  0  0  0
    3.9858    6.4946   21.7623 H   0  0  0  0  0  0  0  0  0  0  0  0
    0.8846   10.3725   24.0105 C   0  0  0  0  0  0  0  0  0  0  0  0
    0.0745   11.4391   24.7548 C   0  0  0  0  0  0  0  0  0  0  0  0
   -1.4057   11.3964   24.4222 C   0  0  0  0  0  0  0  0  0  0  0  0
  2  1  1  0  0  0
  3  1  2  0  0  0
  1  8  1  0  0  0
  4  2  1  0  0  0
  2  5  1  0  0  0
  7  3  1  0  0  0
  4  7  2  0  0  0
 17  5  1  0  0  0
  5  6  2  0  0  0
  6  9  1  0  0  0
 10  7  1  0  0  0
  8  9  2  0  0  0
  8 11  1  0  0  0
  9 12  1  0  0  0
 11 13  2  0  0  0
 17 18  1  0  0  0
 12 14  2  0  0  0
 18 19  1  0  0  0
 13 14  1  0  0  0
 10 15  1  0  0  0
 10 16  1  0  0  0
M  END
> <minimizedAffinity>
-7.38441

$$$$
4CWF_H05_A_1224


 19 21  0  0  0  0  0  0  0  0999 V2000
    6.2762   11.9431   24.3436 C   0  0  0  0  0  0  0  0  0  0  0  0
    5.1736   12.7097   24.4304 N   0  0  0  0  0  0  0  0  0  0  0  0
    7.3605   12.7362   24.5312 N   0  0  0  0  0  0  0  0  0  0  0  0
    5.4715   14.0612   24.6811 N   0  0  0  0  0  0  0  0  0  0  0  0
    3.9419   12.1622   24.2666 C   0  0  0  0  0  0  0  0  0  0  0  0
    3.8415   10.8145   24.0287 N   0  0  0  0  0  0  0  0  0  0  0  0
    6.8260   13.9770   24.7278 C   0  0  0  0  0  0  0  0  0  0  0  0
    6.2320   10.5687   24.1030 C   0  0  0  0  0  0  0  0  0  0  0  0
    4.9557   10.0110   23.9447 C   0  0  0  0  0  0  0  0  0  0  0  0
    7.6164   15.0563   24.9608 N   0  0  0  0  0  0  0  0  0  0  0  0
    7.3882    9.7753   24.0206 C   0  0  0  0  0  0  0  0  0  0  0  0
    4.8494    8.6348   23.6969 C   0  0  0  0  0  0  0  0  0  0  0  0
    7.2652    8.4151   23.7729 C   0  0  0  0  0  0  0  0  0  0  0  0
    6.0041    7.8518   23.6142 C   0  0  0  0  0  0  0  0  0  0  0  0
    8.5951   14.9533   24.9868 H   0  0  0  0  0  0  0  0  0  0  0  0
    7.2106   15.9419   25.1037 H   0  0  0  0  0  0  0  0  0  0  0  0
    2.6821   13.0062   24.3395 C   0  0  0  0  0  0  0  0  0  0  0  0
    1.5469   12.3460   23.5498 C   0  0  0  0  0  0  0  0  0  0  0  0
    0.3717   11.9487   24.4242 C   0  0  0  0  0  0  0  0  0  0  0  0
  2  1  1  0  0  0
  3  1  2  0  0  0
  1  8  1  0  0  0
  4  2  1  0  0  0
  2  5  1  0  0  0
  7  3  1  0  0  0
  4  7  2  0  0  0
 17  5  1  0  0  0
  5  6  2  0  0  0
  6  9  1  0  0  0
 10  7  1  0  0  0
  8  9  2  0  0  0
  8 11  1  0  0  0
  9 12  1  0  0  0
 11 13  2  0  0  0
 17 18  1  0  0  0
 12 14  2  0  0  0
 18 19  1  0  0  0
 13 14  1  0  0  0
 10 15  1  0  0  0
 10 16  1  0  0  0
M  END
> <minimizedAffinity>
-7.31323

$$$$
