5VD1_P48_A_401


 36 40  0  0  0  0  0  0  0  0999 V2000
    3.4909   -3.5988   -2.3810 C   0  0  0  0  0  0  0  0  0  0  0  0
    4.3766   -4.5957   -2.4363 N   0  0  0  0  0  0  0  0  0  0  0  0
    5.6265   -4.0518   -2.4933 N   0  0  0  0  0  0  0  0  0  0  0  0
    6.7210   -5.0304   -2.5955 C   0  0  0  0  0  0  0  0  0  0  0  0
    5.5937   -2.7195   -2.5148 C   0  0  0  0  0  0  0  0  0  0  0  0
    4.1847   -2.2964   -2.4302 C   0  0  0  0  0  0  0  0  0  0  0  0
    6.6979   -1.7475   -2.4663 C   0  0  0  0  0  0  0  0  0  0  0  0
    6.3697   -0.3888   -2.6123 C   0  0  0  0  0  0  0  0  0  0  0  0
    4.9467    0.0474   -2.9769 C   0  0  0  0  0  0  0  0  0  0  0  0
    3.8246   -0.8062   -2.3755 C   0  0  0  0  0  0  0  0  0  0  0  0
    3.6030   -0.3881   -0.9330 C   0  0  0  0  0  0  0  0  0  0  0  0
    2.6343   -0.4966   -3.2624 C   0  0  0  0  0  0  0  0  0  0  0  0
    7.9559   -2.1507   -2.1572 N   0  0  0  0  0  0  0  0  0  0  0  0
    8.9577   -1.2538   -2.0294 C   0  0  0  0  0  0  0  0  0  0  0  0
    8.6587    0.0659   -2.2049 N   0  0  0  0  0  0  0  0  0  0  0  0
    7.4165    0.5126   -2.4770 C   0  0  0  0  0  0  0  0  0  0  0  0
    1.3616   -2.9760   -1.7566 O   0  0  0  0  0  0  0  0  0  0  0  0
    2.0564   -3.8188   -2.3072 C   0  0  0  0  0  0  0  0  0  0  0  0
    1.6135   -4.9668   -2.7805 N   0  0  0  0  0  0  0  0  0  0  0  0
    0.2151   -5.3816   -2.7864 C   0  0  0  0  0  0  0  0  0  0  0  0
    2.2755   -5.5902   -3.1577 H   0  0  0  0  0  0  0  0  0  0  0  0
   10.2383   -1.5978   -1.7487 N   0  0  0  0  0  0  0  0  0  0  0  0
   10.8161   -0.8387   -1.5056 H   0  0  0  0  0  0  0  0  0  0  0  0
   10.8772   -2.8192   -1.7422 C   0  0  0  0  0  0  0  0  0  0  0  0
   12.2857   -2.8831   -1.7227 C   0  0  0  0  0  0  0  0  0  0  0  0
   12.9637   -4.0868   -1.7138 C   0  0  0  0  0  0  0  0  0  0  0  0
   12.2764   -5.3098   -1.7516 C   0  0  0  0  0  0  0  0  0  0  0  0
   10.8455   -5.2788   -1.7719 C   0  0  0  0  0  0  0  0  0  0  0  0
   10.1509   -4.0450   -1.7548 C   0  0  0  0  0  0  0  0  0  0  0  0
   13.0033   -6.5263   -1.7558 N   0  0  0  0  0  0  0  0  0  0  0  0
   14.2372   -6.7025   -0.9723 C   0  0  0  0  0  0  0  0  0  0  0  0
   13.8134   -7.8304   -0.0559 C   0  0  0  0  0  0  0  0  0  0  0  0
   13.7258   -9.0081   -0.9241 N   0  0  0  0  0  0  0  0  0  0  0  0
   14.5822  -10.1600   -0.6602 C   0  0  0  0  0  0  0  0  0  0  0  0
   13.2181   -8.9111   -2.2890 C   0  0  0  0  0  0  0  0  0  0  0  0
   12.2675   -7.7174   -2.2556 C   0  0  0  0  0  0  0  0  0  0  0  0
 17 18  2  0  0  0
 18 19  1  0  0  0
 18  1  1  0  0  0
 19 20  1  0  0  0
  1  2  2  0  0  0
  1  6  1  0  0  0
  2  3  1  0  0  0
  3  4  1  0  0  0
  3  5  1  0  0  0
  5  6  2  0  0  0
  5  7  1  0  0  0
  6 10  1  0  0  0
  7  8  1  0  0  0
  7 13  2  0  0  0
  8  9  1  0  0  0
  8 16  2  0  0  0
  9 10  1  0  0  0
 10 11  1  0  0  0
 10 12  1  0  0  0
 13 14  1  0  0  0
 14 15  2  0  0  0
 14 22  1  0  0  0
 15 16  1  0  0  0
 22 24  1  0  0  0
 24 25  1  0  0  0
 24 29  2  0  0  0
 25 26  2  0  0  0
 26 27  1  0  0  0
 27 28  2  0  0  0
 27 30  1  0  0  0
 28 29  1  0  0  0
 30 31  1  0  0  0
 30 36  1  0  0  0
 31 32  1  0  0  0
 32 33  1  0  0  0
 33 34  1  0  0  0
 33 35  1  0  0  0
 35 36  1  0  0  0
 19 21  1  0  0  0
 22 23  1  0  0  0
M  END
> <minimizedAffinity>
-11.96869

$$$$
5VD1_P48_A_401


 36 40  0  0  0  0  0  0  0  0999 V2000
    2.7666   -1.6080   -2.3452 C   0  0  0  0  0  0  0  0  0  0  0  0
    2.2503   -2.8387   -2.3470 N   0  0  0  0  0  0  0  0  0  0  0  0
    3.2801   -3.7321   -2.3978 N   0  0  0  0  0  0  0  0  0  0  0  0
    2.8697   -5.1448   -2.4429 C   0  0  0  0  0  0  0  0  0  0  0  0
    4.4661   -3.1277   -2.4674 C   0  0  0  0  0  0  0  0  0  0  0  0
    4.2394   -1.6722   -2.4266 C   0  0  0  0  0  0  0  0  0  0  0  0
    5.8211   -3.7014   -2.4310 C   0  0  0  0  0  0  0  0  0  0  0  0
    6.9000   -2.8235   -2.6319 C   0  0  0  0  0  0  0  0  0  0  0  0
    6.6687   -1.3649   -3.0407 C   0  0  0  0  0  0  0  0  0  0  0  0
    5.4277   -0.7020   -2.4323 C   0  0  0  0  0  0  0  0  0  0  0  0
    5.7422   -0.2731   -1.0104 C   0  0  0  0  0  0  0  0  0  0  0  0
    5.1709    0.4745   -3.3537 C   0  0  0  0  0  0  0  0  0  0  0  0
    6.0095   -4.9989   -2.0822 N   0  0  0  0  0  0  0  0  0  0  0  0
    7.2543   -5.5099   -1.9661 C   0  0  0  0  0  0  0  0  0  0  0  0
    8.3100   -4.6763   -2.1944 N   0  0  0  0  0  0  0  0  0  0  0  0
    8.1686   -3.3730   -2.5074 C   0  0  0  0  0  0  0  0  0  0  0  0
    1.1281   -0.2184   -3.1795 O   0  0  0  0  0  0  0  0  0  0  0  0
    1.9492   -0.4077   -2.2928 C   0  0  0  0  0  0  0  0  0  0  0  0
    2.2119    0.4395   -1.3174 N   0  0  0  0  0  0  0  0  0  0  0  0
    1.5156    1.7026   -1.1008 C   0  0  0  0  0  0  0  0  0  0  0  0
    2.9313    0.2019   -0.6887 H   0  0  0  0  0  0  0  0  0  0  0  0
    7.5051   -6.8032   -1.6473 N   0  0  0  0  0  0  0  0  0  0  0  0
    8.3501   -7.1523   -2.0123 H   0  0  0  0  0  0  0  0  0  0  0  0
    6.7900   -7.7175   -0.9039 C   0  0  0  0  0  0  0  0  0  0  0  0
    6.0784   -8.7522   -1.5454 C   0  0  0  0  0  0  0  0  0  0  0  0
    5.3515   -9.6892   -0.8366 C   0  0  0  0  0  0  0  0  0  0  0  0
    5.2653   -9.6369    0.5632 C   0  0  0  0  0  0  0  0  0  0  0  0
    5.9767   -8.5982    1.2442 C   0  0  0  0  0  0  0  0  0  0  0  0
    6.7427   -7.6538    0.5187 C   0  0  0  0  0  0  0  0  0  0  0  0
    4.4992  -10.6055    1.2583 N   0  0  0  0  0  0  0  0  0  0  0  0
    3.0287  -10.6342    1.1915 C   0  0  0  0  0  0  0  0  0  0  0  0
    2.8156  -12.0012    0.5770 C   0  0  0  0  0  0  0  0  0  0  0  0
    3.1812  -12.9497    1.6329 N   0  0  0  0  0  0  0  0  0  0  0  0
    2.1791  -13.8827    2.1385 C   0  0  0  0  0  0  0  0  0  0  0  0
    4.3002  -12.6915    2.5337 C   0  0  0  0  0  0  0  0  0  0  0  0
    5.2426  -11.8061    1.7228 C   0  0  0  0  0  0  0  0  0  0  0  0
 17 18  2  0  0  0
 18 19  1  0  0  0
 18  1  1  0  0  0
 19 20  1  0  0  0
  1  2  2  0  0  0
  1  6  1  0  0  0
  2  3  1  0  0  0
  3  4  1  0  0  0
  3  5  1  0  0  0
  5  6  2  0  0  0
  5  7  1  0  0  0
  6 10  1  0  0  0
  7  8  1  0  0  0
  7 13  2  0  0  0
  8  9  1  0  0  0
  8 16  2  0  0  0
  9 10  1  0  0  0
 10 11  1  0  0  0
 10 12  1  0  0  0
 13 14  1  0  0  0
 14 15  2  0  0  0
 14 22  1  0  0  0
 15 16  1  0  0  0
 22 24  1  0  0  0
 24 25  1  0  0  0
 24 29  2  0  0  0
 25 26  2  0  0  0
 26 27  1  0  0  0
 27 28  2  0  0  0
 27 30  1  0  0  0
 28 29  1  0  0  0
 30 31  1  0  0  0
 30 36  1  0  0  0
 31 32  1  0  0  0
 32 33  1  0  0  0
 33 34  1  0  0  0
 33 35  1  0  0  0
 35 36  1  0  0  0
 19 21  1  0  0  0
 22 23  1  0  0  0
M  END
> <minimizedAffinity>
-10.97192

$$$$
5VD1_P48_A_401


 36 40  0  0  0  0  0  0  0  0999 V2000
    2.2553   -1.4166   -2.3903 C   0  0  0  0  0  0  0  0  0  0  0  0
    1.5419   -2.5415   -2.3069 N   0  0  0  0  0  0  0  0  0  0  0  0
    2.4072   -3.5962   -2.3201 N   0  0  0  0  0  0  0  0  0  0  0  0
    1.7669   -4.9204   -2.2704 C   0  0  0  0  0  0  0  0  0  0  0  0
    3.6748   -3.2040   -2.4476 C   0  0  0  0  0  0  0  0  0  0  0  0
    3.6942   -1.7312   -2.4931 C   0  0  0  0  0  0  0  0  0  0  0  0
    4.9162   -3.9933   -2.3993 C   0  0  0  0  0  0  0  0  0  0  0  0
    6.1200   -3.3216   -2.6729 C   0  0  0  0  0  0  0  0  0  0  0  0
    6.1229   -1.8712   -3.1672 C   0  0  0  0  0  0  0  0  0  0  0  0
    5.0265   -0.9757   -2.5796 C   0  0  0  0  0  0  0  0  0  0  0  0
    5.4468   -0.5234   -1.1927 C   0  0  0  0  0  0  0  0  0  0  0  0
    4.9434    0.1716   -3.5675 C   0  0  0  0  0  0  0  0  0  0  0  0
    4.8960   -5.2815   -1.9741 N   0  0  0  0  0  0  0  0  0  0  0  0
    6.0413   -5.9861   -1.8482 C   0  0  0  0  0  0  0  0  0  0  0  0
    7.2142   -5.3557   -2.1460 N   0  0  0  0  0  0  0  0  0  0  0  0
    7.2827   -4.0676   -2.5367 C   0  0  0  0  0  0  0  0  0  0  0  0
    1.0210    0.2553   -3.3867 O   0  0  0  0  0  0  0  0  0  0  0  0
    1.6503   -0.0954   -2.3982 C   0  0  0  0  0  0  0  0  0  0  0  0
    1.8940    0.6681   -1.3514 N   0  0  0  0  0  0  0  0  0  0  0  0
    1.3916    2.0261   -1.1758 C   0  0  0  0  0  0  0  0  0  0  0  0
    2.4566    0.2940   -0.6354 H   0  0  0  0  0  0  0  0  0  0  0  0
    6.0826   -7.2823   -1.4543 N   0  0  0  0  0  0  0  0  0  0  0  0
    6.9850   -7.6758   -1.4547 H   0  0  0  0  0  0  0  0  0  0  0  0
    5.0884   -8.1488   -1.0532 C   0  0  0  0  0  0  0  0  0  0  0  0
    4.3588   -8.8836   -2.0104 C   0  0  0  0  0  0  0  0  0  0  0  0
    3.3565   -9.7631   -1.6494 C   0  0  0  0  0  0  0  0  0  0  0  0
    2.9977   -9.9461   -0.3049 C   0  0  0  0  0  0  0  0  0  0  0  0
    3.7198   -9.2144    0.6911 C   0  0  0  0  0  0  0  0  0  0  0  0
    4.7645   -8.3327    0.3221 C   0  0  0  0  0  0  0  0  0  0  0  0
    1.9550  -10.8456    0.0296 N   0  0  0  0  0  0  0  0  0  0  0  0
    2.2090  -12.2695    0.3044 C   0  0  0  0  0  0  0  0  0  0  0  0
    1.7261  -12.3558    1.7365 C   0  0  0  0  0  0  0  0  0  0  0  0
    0.2688  -12.2242    1.6509 N   0  0  0  0  0  0  0  0  0  0  0  0
   -0.5794  -13.3146    2.1219 C   0  0  0  0  0  0  0  0  0  0  0  0
   -0.3585  -11.3177    0.6945 C   0  0  0  0  0  0  0  0  0  0  0  0
    0.6808  -10.2219    0.4735 C   0  0  0  0  0  0  0  0  0  0  0  0
 17 18  2  0  0  0
 18 19  1  0  0  0
 18  1  1  0  0  0
 19 20  1  0  0  0
  1  2  2  0  0  0
  1  6  1  0  0  0
  2  3  1  0  0  0
  3  4  1  0  0  0
  3  5  1  0  0  0
  5  6  2  0  0  0
  5  7  1  0  0  0
  6 10  1  0  0  0
  7  8  1  0  0  0
  7 13  2  0  0  0
  8  9  1  0  0  0
  8 16  2  0  0  0
  9 10  1  0  0  0
 10 11  1  0  0  0
 10 12  1  0  0  0
 13 14  1  0  0  0
 14 15  2  0  0  0
 14 22  1  0  0  0
 15 16  1  0  0  0
 22 24  1  0  0  0
 24 25  1  0  0  0
 24 29  2  0  0  0
 25 26  2  0  0  0
 26 27  1  0  0  0
 27 28  2  0  0  0
 27 30  1  0  0  0
 28 29  1  0  0  0
 30 31  1  0  0  0
 30 36  1  0  0  0
 31 32  1  0  0  0
 32 33  1  0  0  0
 33 34  1  0  0  0
 33 35  1  0  0  0
 35 36  1  0  0  0
 19 21  1  0  0  0
 22 23  1  0  0  0
M  END
> <minimizedAffinity>
-10.79728

$$$$
5VD1_P48_A_401


 36 40  0  0  0  0  0  0  0  0999 V2000
    4.0465   -3.8924   -2.4480 C   0  0  0  0  0  0  0  0  0  0  0  0
    4.7977   -4.9784   -2.2543 N   0  0  0  0  0  0  0  0  0  0  0  0
    6.1054   -4.5910   -2.2217 N   0  0  0  0  0  0  0  0  0  0  0  0
    7.0701   -5.6891   -2.0495 C   0  0  0  0  0  0  0  0  0  0  0  0
    6.2463   -3.2813   -2.4258 C   0  0  0  0  0  0  0  0  0  0  0  0
    4.9026   -2.6968   -2.5814 C   0  0  0  0  0  0  0  0  0  0  0  0
    7.4535   -2.4414   -2.3658 C   0  0  0  0  0  0  0  0  0  0  0  0
    7.3204   -1.0916   -2.7338 C   0  0  0  0  0  0  0  0  0  0  0  0
    6.0150   -0.5595   -3.3344 C   0  0  0  0  0  0  0  0  0  0  0  0
    4.7325   -1.1844   -2.7740 C   0  0  0  0  0  0  0  0  0  0  0  0
    4.4061   -0.5345   -1.4414 C   0  0  0  0  0  0  0  0  0  0  0  0
    3.6987   -0.8801   -3.8407 C   0  0  0  0  0  0  0  0  0  0  0  0
    8.6068   -2.9311   -1.8455 N   0  0  0  0  0  0  0  0  0  0  0  0
    9.6945   -2.1418   -1.7108 C   0  0  0  0  0  0  0  0  0  0  0  0
    9.5887   -0.8380   -2.0987 N   0  0  0  0  0  0  0  0  0  0  0  0
    8.4523   -0.3017   -2.5864 C   0  0  0  0  0  0  0  0  0  0  0  0
    1.9630   -2.9187   -2.2971 O   0  0  0  0  0  0  0  0  0  0  0  0
    2.5965   -3.9386   -2.5314 C   0  0  0  0  0  0  0  0  0  0  0  0
    2.0602   -5.1163   -2.7832 N   0  0  0  0  0  0  0  0  0  0  0  0
    0.6286   -5.3736   -2.8928 C   0  0  0  0  0  0  0  0  0  0  0  0
    2.6711   -5.8785   -2.9064 H   0  0  0  0  0  0  0  0  0  0  0  0
   10.8808   -2.5801   -1.2233 N   0  0  0  0  0  0  0  0  0  0  0  0
   10.8862   -2.7322   -0.2507 H   0  0  0  0  0  0  0  0  0  0  0  0
   12.0812   -2.8512   -1.8443 C   0  0  0  0  0  0  0  0  0  0  0  0
   12.6395   -4.1442   -1.7757 C   0  0  0  0  0  0  0  0  0  0  0  0
   13.8390   -4.4568   -2.3857 C   0  0  0  0  0  0  0  0  0  0  0  0
   14.5754   -3.4871   -3.0836 C   0  0  0  0  0  0  0  0  0  0  0  0
   14.0354   -2.1644   -3.1714 C   0  0  0  0  0  0  0  0  0  0  0  0
   12.7932   -1.8514   -2.5680 C   0  0  0  0  0  0  0  0  0  0  0  0
   15.8094   -3.8381   -3.6856 N   0  0  0  0  0  0  0  0  0  0  0  0
   15.9119   -4.9069   -4.6928 C   0  0  0  0  0  0  0  0  0  0  0  0
   16.4201   -4.1114   -5.8762 C   0  0  0  0  0  0  0  0  0  0  0  0
   17.8008   -3.7619   -5.5299 N   0  0  0  0  0  0  0  0  0  0  0  0
   18.8941   -4.2342   -6.3734 C   0  0  0  0  0  0  0  0  0  0  0  0
   18.1769   -3.4101   -4.1643 C   0  0  0  0  0  0  0  0  0  0  0  0
   16.9001   -2.8365   -3.5555 C   0  0  0  0  0  0  0  0  0  0  0  0
 17 18  2  0  0  0
 18 19  1  0  0  0
 18  1  1  0  0  0
 19 20  1  0  0  0
  1  2  2  0  0  0
  1  6  1  0  0  0
  2  3  1  0  0  0
  3  4  1  0  0  0
  3  5  1  0  0  0
  5  6  2  0  0  0
  5  7  1  0  0  0
  6 10  1  0  0  0
  7  8  1  0  0  0
  7 13  2  0  0  0
  8  9  1  0  0  0
  8 16  2  0  0  0
  9 10  1  0  0  0
 10 11  1  0  0  0
 10 12  1  0  0  0
 13 14  1  0  0  0
 14 15  2  0  0  0
 14 22  1  0  0  0
 15 16  1  0  0  0
 22 24  1  0  0  0
 24 25  1  0  0  0
 24 29  2  0  0  0
 25 26  2  0  0  0
 26 27  1  0  0  0
 27 28  2  0  0  0
 27 30  1  0  0  0
 28 29  1  0  0  0
 30 31  1  0  0  0
 30 36  1  0  0  0
 31 32  1  0  0  0
 32 33  1  0  0  0
 33 34  1  0  0  0
 33 35  1  0  0  0
 35 36  1  0  0  0
 19 21  1  0  0  0
 22 23  1  0  0  0
M  END
> <minimizedAffinity>
-10.35441

$$$$
5VD1_P48_A_401


 36 40  0  0  0  0  0  0  0  0999 V2000
   16.0521   -4.8386   -1.2832 C   0  0  0  0  0  0  0  0  0  0  0  0
   16.1040   -3.5070   -1.3570 N   0  0  0  0  0  0  0  0  0  0  0  0
   14.8428   -3.0446   -1.5953 N   0  0  0  0  0  0  0  0  0  0  0  0
   14.7384   -1.5837   -1.7402 C   0  0  0  0  0  0  0  0  0  0  0  0
   13.9598   -4.0354   -1.7190 C   0  0  0  0  0  0  0  0  0  0  0  0
   14.6715   -5.3091   -1.5125 C   0  0  0  0  0  0  0  0  0  0  0  0
   12.4968   -3.9821   -1.8707 C   0  0  0  0  0  0  0  0  0  0  0  0
   11.8249   -5.1974   -2.0870 C   0  0  0  0  0  0  0  0  0  0  0  0
   12.5984   -6.4986   -2.3250 C   0  0  0  0  0  0  0  0  0  0  0  0
   13.9057   -6.6381   -1.5369 C   0  0  0  0  0  0  0  0  0  0  0  0
   13.5843   -7.0672   -0.1166 C   0  0  0  0  0  0  0  0  0  0  0  0
   14.6691   -7.6971   -2.3081 C   0  0  0  0  0  0  0  0  0  0  0  0
   11.8266   -2.8193   -1.6720 N   0  0  0  0  0  0  0  0  0  0  0  0
   10.4777   -2.7804   -1.7278 C   0  0  0  0  0  0  0  0  0  0  0  0
    9.8154   -3.9478   -1.9734 N   0  0  0  0  0  0  0  0  0  0  0  0
   10.4394   -5.1307   -2.1407 C   0  0  0  0  0  0  0  0  0  0  0  0
   18.1289   -5.6584   -1.8550 O   0  0  0  0  0  0  0  0  0  0  0  0
   17.2226   -5.6628   -1.0335 C   0  0  0  0  0  0  0  0  0  0  0  0
   17.1853   -6.4252    0.0415 N   0  0  0  0  0  0  0  0  0  0  0  0
   18.2503   -7.3304    0.4583 C   0  0  0  0  0  0  0  0  0  0  0  0
   16.3789   -6.3801    0.6046 H   0  0  0  0  0  0  0  0  0  0  0  0
    9.7549   -1.6456   -1.5644 N   0  0  0  0  0  0  0  0  0  0  0  0
   10.2883   -0.8620   -1.2984 H   0  0  0  0  0  0  0  0  0  0  0  0
    8.4073   -1.3911   -1.7036 C   0  0  0  0  0  0  0  0  0  0  0  0
    7.5986   -2.2517   -2.4742 C   0  0  0  0  0  0  0  0  0  0  0  0
    6.2442   -2.0326   -2.6367 C   0  0  0  0  0  0  0  0  0  0  0  0
    5.6123   -0.9199   -2.0602 C   0  0  0  0  0  0  0  0  0  0  0  0
    6.4062   -0.0271   -1.2718 C   0  0  0  0  0  0  0  0  0  0  0  0
    7.7891   -0.2667   -1.0843 C   0  0  0  0  0  0  0  0  0  0  0  0
    4.2239   -0.7173   -2.2587 N   0  0  0  0  0  0  0  0  0  0  0  0
    3.2672   -0.7085   -1.1397 C   0  0  0  0  0  0  0  0  0  0  0  0
    2.7266    0.7003   -1.2611 C   0  0  0  0  0  0  0  0  0  0  0  0
    1.9100    0.6864   -2.4782 N   0  0  0  0  0  0  0  0  0  0  0  0
    0.4837    0.9831   -2.3893 C   0  0  0  0  0  0  0  0  0  0  0  0
    2.3144   -0.0728   -3.6572 C   0  0  0  0  0  0  0  0  0  0  0  0
    3.8371   -0.1287   -3.5678 C   0  0  0  0  0  0  0  0  0  0  0  0
 17 18  2  0  0  0
 18 19  1  0  0  0
 18  1  1  0  0  0
 19 20  1  0  0  0
  1  2  2  0  0  0
  1  6  1  0  0  0
  2  3  1  0  0  0
  3  4  1  0  0  0
  3  5  1  0  0  0
  5  6  2  0  0  0
  5  7  1  0  0  0
  6 10  1  0  0  0
  7  8  1  0  0  0
  7 13  2  0  0  0
  8  9  1  0  0  0
  8 16  2  0  0  0
  9 10  1  0  0  0
 10 11  1  0  0  0
 10 12  1  0  0  0
 13 14  1  0  0  0
 14 15  2  0  0  0
 14 22  1  0  0  0
 15 16  1  0  0  0
 22 24  1  0  0  0
 24 25  1  0  0  0
 24 29  2  0  0  0
 25 26  2  0  0  0
 26 27  1  0  0  0
 27 28  2  0  0  0
 27 30  1  0  0  0
 28 29  1  0  0  0
 30 31  1  0  0  0
 30 36  1  0  0  0
 31 32  1  0  0  0
 32 33  1  0  0  0
 33 34  1  0  0  0
 33 35  1  0  0  0
 35 36  1  0  0  0
 19 21  1  0  0  0
 22 23  1  0  0  0
M  END
> <minimizedAffinity>
-10.30443

$$$$
5VD1_P48_A_401


 36 40  0  0  0  0  0  0  0  0999 V2000
    4.1579   -3.0525   -2.3866 C   0  0  0  0  0  0  0  0  0  0  0  0
    4.4389   -4.3567   -2.3509 N   0  0  0  0  0  0  0  0  0  0  0  0
    5.7954   -4.4991   -2.3196 N   0  0  0  0  0  0  0  0  0  0  0  0
    6.2696   -5.8923   -2.3144 C   0  0  0  0  0  0  0  0  0  0  0  0
    6.4247   -3.3252   -2.3711 C   0  0  0  0  0  0  0  0  0  0  0  0
    5.4048   -2.2621   -2.4074 C   0  0  0  0  0  0  0  0  0  0  0  0
    7.8594   -3.0177   -2.2551 C   0  0  0  0  0  0  0  0  0  0  0  0
    8.2524   -1.6832   -2.4546 C   0  0  0  0  0  0  0  0  0  0  0  0
    7.2534   -0.6275   -2.9400 C   0  0  0  0  0  0  0  0  0  0  0  0
    5.8231   -0.7862   -2.4122 C   0  0  0  0  0  0  0  0  0  0  0  0
    5.7517   -0.2317   -1.0008 C   0  0  0  0  0  0  0  0  0  0  0  0
    4.9946    0.0156   -3.3970 C   0  0  0  0  0  0  0  0  0  0  0  0
    8.7347   -3.9670   -1.8388 N   0  0  0  0  0  0  0  0  0  0  0  0
   10.0387   -3.6701   -1.6503 C   0  0  0  0  0  0  0  0  0  0  0  0
   10.4397   -2.3856   -1.8761 N   0  0  0  0  0  0  0  0  0  0  0  0
    9.5974   -1.4040   -2.2551 C   0  0  0  0  0  0  0  0  0  0  0  0
    1.9271   -3.2195   -2.9413 O   0  0  0  0  0  0  0  0  0  0  0  0
    2.7997   -2.5371   -2.4225 C   0  0  0  0  0  0  0  0  0  0  0  0
    2.6219   -1.3181   -1.9529 N   0  0  0  0  0  0  0  0  0  0  0  0
    1.3423   -0.6191   -1.9128 C   0  0  0  0  0  0  0  0  0  0  0  0
    3.4111   -0.8445   -1.6034 H   0  0  0  0  0  0  0  0  0  0  0  0
   10.9645   -4.5806   -1.2617 N   0  0  0  0  0  0  0  0  0  0  0  0
   10.7766   -5.0012   -0.3916 H   0  0  0  0  0  0  0  0  0  0  0  0
   12.1216   -5.0238   -1.8655 C   0  0  0  0  0  0  0  0  0  0  0  0
   12.1067   -6.1901   -2.6580 C   0  0  0  0  0  0  0  0  0  0  0  0
   13.2441   -6.6660   -3.2813 C   0  0  0  0  0  0  0  0  0  0  0  0
   14.4812   -6.0207   -3.1304 C   0  0  0  0  0  0  0  0  0  0  0  0
   14.5295   -4.8338   -2.3319 C   0  0  0  0  0  0  0  0  0  0  0  0
   13.3581   -4.3320   -1.7146 C   0  0  0  0  0  0  0  0  0  0  0  0
   15.6313   -6.5438   -3.7722 N   0  0  0  0  0  0  0  0  0  0  0  0
   15.5591   -7.2165   -5.0797 C   0  0  0  0  0  0  0  0  0  0  0  0
   16.4396   -6.2993   -5.9014 C   0  0  0  0  0  0  0  0  0  0  0  0
   17.7986   -6.5407   -5.4080 N   0  0  0  0  0  0  0  0  0  0  0  0
   18.8145   -7.0512   -6.3230 C   0  0  0  0  0  0  0  0  0  0  0  0
   18.0635   -6.7751   -3.9920 C   0  0  0  0  0  0  0  0  0  0  0  0
   16.9369   -6.0414   -3.2693 C   0  0  0  0  0  0  0  0  0  0  0  0
 17 18  2  0  0  0
 18 19  1  0  0  0
 18  1  1  0  0  0
 19 20  1  0  0  0
  1  2  2  0  0  0
  1  6  1  0  0  0
  2  3  1  0  0  0
  3  4  1  0  0  0
  3  5  1  0  0  0
  5  6  2  0  0  0
  5  7  1  0  0  0
  6 10  1  0  0  0
  7  8  1  0  0  0
  7 13  2  0  0  0
  8  9  1  0  0  0
  8 16  2  0  0  0
  9 10  1  0  0  0
 10 11  1  0  0  0
 10 12  1  0  0  0
 13 14  1  0  0  0
 14 15  2  0  0  0
 14 22  1  0  0  0
 15 16  1  0  0  0
 22 24  1  0  0  0
 24 25  1  0  0  0
 24 29  2  0  0  0
 25 26  2  0  0  0
 26 27  1  0  0  0
 27 28  2  0  0  0
 27 30  1  0  0  0
 28 29  1  0  0  0
 30 31  1  0  0  0
 30 36  1  0  0  0
 31 32  1  0  0  0
 32 33  1  0  0  0
 33 34  1  0  0  0
 33 35  1  0  0  0
 35 36  1  0  0  0
 19 21  1  0  0  0
 22 23  1  0  0  0
M  END
> <minimizedAffinity>
-9.60527

$$$$
5VD1_P48_A_401


 36 40  0  0  0  0  0  0  0  0999 V2000
   15.5483   -6.2527   -2.5360 C   0  0  0  0  0  0  0  0  0  0  0  0
   14.7950   -7.3516   -2.4564 N   0  0  0  0  0  0  0  0  0  0  0  0
   13.5081   -6.9687   -2.2145 N   0  0  0  0  0  0  0  0  0  0  0  0
   12.5525   -8.0777   -2.0631 C   0  0  0  0  0  0  0  0  0  0  0  0
   13.3919   -5.6463   -2.0941 C   0  0  0  0  0  0  0  0  0  0  0  0
   14.7227   -5.0503   -2.3072 C   0  0  0  0  0  0  0  0  0  0  0  0
   12.1871   -4.8149   -1.9404 C   0  0  0  0  0  0  0  0  0  0  0  0
   12.3747   -3.4383   -1.7287 C   0  0  0  0  0  0  0  0  0  0  0  0
   13.7730   -2.8559   -1.4973 C   0  0  0  0  0  0  0  0  0  0  0  0
   14.9021   -3.5268   -2.2877 C   0  0  0  0  0  0  0  0  0  0  0  0
   14.8954   -2.9947   -3.7095 C   0  0  0  0  0  0  0  0  0  0  0  0
   16.1496   -3.1311   -1.5221 C   0  0  0  0  0  0  0  0  0  0  0  0
   10.9545   -5.3480   -2.1332 N   0  0  0  0  0  0  0  0  0  0  0  0
    9.8495   -4.5736   -2.0755 C   0  0  0  0  0  0  0  0  0  0  0  0
   10.0162   -3.2410   -1.8343 N   0  0  0  0  0  0  0  0  0  0  0  0
   11.2237   -2.6643   -1.6730 C   0  0  0  0  0  0  0  0  0  0  0  0
   17.7222   -6.6796   -1.9008 O   0  0  0  0  0  0  0  0  0  0  0  0
   16.9784   -6.2913   -2.7908 C   0  0  0  0  0  0  0  0  0  0  0  0
   17.3798   -5.8244   -3.9566 N   0  0  0  0  0  0  0  0  0  0  0  0
   18.7693   -5.7640   -4.3962 C   0  0  0  0  0  0  0  0  0  0  0  0
   16.6908   -5.4919   -4.5762 H   0  0  0  0  0  0  0  0  0  0  0  0
    8.5914   -5.0526   -2.2331 N   0  0  0  0  0  0  0  0  0  0  0  0
    8.5337   -6.0351   -2.2577 H   0  0  0  0  0  0  0  0  0  0  0  0
    7.3782   -4.4118   -2.3650 C   0  0  0  0  0  0  0  0  0  0  0  0
    7.3320   -3.0324   -2.6543 C   0  0  0  0  0  0  0  0  0  0  0  0
    6.1370   -2.3539   -2.7960 C   0  0  0  0  0  0  0  0  0  0  0  0
    4.9054   -3.0061   -2.6302 C   0  0  0  0  0  0  0  0  0  0  0  0
    4.9184   -4.4068   -2.3358 C   0  0  0  0  0  0  0  0  0  0  0  0
    6.1434   -5.1069   -2.2164 C   0  0  0  0  0  0  0  0  0  0  0  0
    3.6981   -2.2769   -2.7685 N   0  0  0  0  0  0  0  0  0  0  0  0
    2.5745   -2.4401   -1.8313 C   0  0  0  0  0  0  0  0  0  0  0  0
    2.4819   -1.0342   -1.2774 C   0  0  0  0  0  0  0  0  0  0  0  0
    1.9590   -0.2275   -2.3838 N   0  0  0  0  0  0  0  0  0  0  0  0
    0.6838    0.4650   -2.2273 C   0  0  0  0  0  0  0  0  0  0  0  0
    2.3683   -0.4716   -3.7633 C   0  0  0  0  0  0  0  0  0  0  0  0
    3.7645   -1.0765   -3.6427 C   0  0  0  0  0  0  0  0  0  0  0  0
 17 18  2  0  0  0
 18 19  1  0  0  0
 18  1  1  0  0  0
 19 20  1  0  0  0
  1  2  2  0  0  0
  1  6  1  0  0  0
  2  3  1  0  0  0
  3  4  1  0  0  0
  3  5  1  0  0  0
  5  6  2  0  0  0
  5  7  1  0  0  0
  6 10  1  0  0  0
  7  8  1  0  0  0
  7 13  2  0  0  0
  8  9  1  0  0  0
  8 16  2  0  0  0
  9 10  1  0  0  0
 10 11  1  0  0  0
 10 12  1  0  0  0
 13 14  1  0  0  0
 14 15  2  0  0  0
 14 22  1  0  0  0
 15 16  1  0  0  0
 22 24  1  0  0  0
 24 25  1  0  0  0
 24 29  2  0  0  0
 25 26  2  0  0  0
 26 27  1  0  0  0
 27 28  2  0  0  0
 27 30  1  0  0  0
 28 29  1  0  0  0
 30 31  1  0  0  0
 30 36  1  0  0  0
 31 32  1  0  0  0
 32 33  1  0  0  0
 33 34  1  0  0  0
 33 35  1  0  0  0
 35 36  1  0  0  0
 19 21  1  0  0  0
 22 23  1  0  0  0
M  END
> <minimizedAffinity>
-9.35271

$$$$
5VD1_P48_A_401


 36 40  0  0  0  0  0  0  0  0999 V2000
    2.0476  -10.7362    0.8760 C   0  0  0  0  0  0  0  0  0  0  0  0
    1.8683   -9.4160    0.9541 N   0  0  0  0  0  0  0  0  0  0  0  0
    3.0041   -8.8052    0.5091 N   0  0  0  0  0  0  0  0  0  0  0  0
    2.9772   -7.3348    0.5671 C   0  0  0  0  0  0  0  0  0  0  0  0
    3.9478   -9.6842    0.1721 C   0  0  0  0  0  0  0  0  0  0  0  0
    3.4015  -11.0384    0.3704 C   0  0  0  0  0  0  0  0  0  0  0  0
    5.2648   -9.4639   -0.4469 C   0  0  0  0  0  0  0  0  0  0  0  0
    6.1045  -10.5812   -0.5943 C   0  0  0  0  0  0  0  0  0  0  0  0
    5.7343  -11.9363    0.0177 C   0  0  0  0  0  0  0  0  0  0  0  0
    4.2389  -12.2725    0.0111 C   0  0  0  0  0  0  0  0  0  0  0  0
    3.8488  -12.7687   -1.3696 C   0  0  0  0  0  0  0  0  0  0  0  0
    4.1160  -13.3471    1.0738 C   0  0  0  0  0  0  0  0  0  0  0  0
    5.5847   -8.2541   -0.9710 N   0  0  0  0  0  0  0  0  0  0  0  0
    6.7577   -8.0673   -1.6139 C   0  0  0  0  0  0  0  0  0  0  0  0
    7.5979   -9.1360   -1.7316 N   0  0  0  0  0  0  0  0  0  0  0  0
    7.3040  -10.3631   -1.2580 C   0  0  0  0  0  0  0  0  0  0  0  0
    1.0050  -12.0837    2.4281 O   0  0  0  0  0  0  0  0  0  0  0  0
    1.0302  -11.6969    1.2680 C   0  0  0  0  0  0  0  0  0  0  0  0
    0.2448  -12.1447    0.3083 N   0  0  0  0  0  0  0  0  0  0  0  0
   -0.8248  -13.1189    0.4937 C   0  0  0  0  0  0  0  0  0  0  0  0
    0.3911  -11.7957   -0.6005 H   0  0  0  0  0  0  0  0  0  0  0  0
    7.1441   -6.8770   -2.1344 N   0  0  0  0  0  0  0  0  0  0  0  0
    8.0602   -6.8723   -2.4947 H   0  0  0  0  0  0  0  0  0  0  0  0
    6.4851   -5.6719   -2.2501 C   0  0  0  0  0  0  0  0  0  0  0  0
    5.0907   -5.6036   -2.0515 C   0  0  0  0  0  0  0  0  0  0  0  0
    4.3938   -4.4154   -2.1565 C   0  0  0  0  0  0  0  0  0  0  0  0
    5.0429   -3.2181   -2.4951 C   0  0  0  0  0  0  0  0  0  0  0  0
    6.4586   -3.2541   -2.7031 C   0  0  0  0  0  0  0  0  0  0  0  0
    7.1761   -4.4675   -2.5698 C   0  0  0  0  0  0  0  0  0  0  0  0
    4.2955   -2.0194   -2.6085 N   0  0  0  0  0  0  0  0  0  0  0  0
    2.8977   -2.0104   -3.0706 C   0  0  0  0  0  0  0  0  0  0  0  0
    2.2153   -1.4357   -1.8475 C   0  0  0  0  0  0  0  0  0  0  0  0
    2.6282   -0.0298   -1.8120 N   0  0  0  0  0  0  0  0  0  0  0  0
    1.6167    1.0182   -1.9054 C   0  0  0  0  0  0  0  0  0  0  0  0
    3.9796    0.3761   -2.1850 C   0  0  0  0  0  0  0  0  0  0  0  0
    4.8407   -0.8459   -1.8768 C   0  0  0  0  0  0  0  0  0  0  0  0
 17 18  2  0  0  0
 18 19  1  0  0  0
 18  1  1  0  0  0
 19 20  1  0  0  0
  1  2  2  0  0  0
  1  6  1  0  0  0
  2  3  1  0  0  0
  3  4  1  0  0  0
  3  5  1  0  0  0
  5  6  2  0  0  0
  5  7  1  0  0  0
  6 10  1  0  0  0
  7  8  1  0  0  0
  7 13  2  0  0  0
  8  9  1  0  0  0
  8 16  2  0  0  0
  9 10  1  0  0  0
 10 11  1  0  0  0
 10 12  1  0  0  0
 13 14  1  0  0  0
 14 15  2  0  0  0
 14 22  1  0  0  0
 15 16  1  0  0  0
 22 24  1  0  0  0
 24 25  1  0  0  0
 24 29  2  0  0  0
 25 26  2  0  0  0
 26 27  1  0  0  0
 27 28  2  0  0  0
 27 30  1  0  0  0
 28 29  1  0  0  0
 30 31  1  0  0  0
 30 36  1  0  0  0
 31 32  1  0  0  0
 32 33  1  0  0  0
 33 34  1  0  0  0
 33 35  1  0  0  0
 35 36  1  0  0  0
 19 21  1  0  0  0
 22 23  1  0  0  0
M  END
> <minimizedAffinity>
-9.31463

$$$$
5VD1_P48_A_401


 36 40  0  0  0  0  0  0  0  0999 V2000
    5.7467   -2.1961   -2.5264 C   0  0  0  0  0  0  0  0  0  0  0  0
    6.7231   -3.0972   -2.6531 N   0  0  0  0  0  0  0  0  0  0  0  0
    6.2010   -4.3301   -2.3911 N   0  0  0  0  0  0  0  0  0  0  0  0
    7.1694   -5.4365   -2.4549 C   0  0  0  0  0  0  0  0  0  0  0  0
    4.9120   -4.2688   -2.0572 C   0  0  0  0  0  0  0  0  0  0  0  0
    4.4891   -2.8589   -2.1274 C   0  0  0  0  0  0  0  0  0  0  0  0
    3.9498   -5.3537   -1.8054 C   0  0  0  0  0  0  0  0  0  0  0  0
    2.6665   -4.9896   -1.3631 C   0  0  0  0  0  0  0  0  0  0  0  0
    2.3376   -3.5388   -0.9954 C   0  0  0  0  0  0  0  0  0  0  0  0
    3.0307   -2.4721   -1.8505 C   0  0  0  0  0  0  0  0  0  0  0  0
    2.2835   -2.3281   -3.1642 C   0  0  0  0  0  0  0  0  0  0  0  0
    2.9473   -1.2252   -0.9918 C   0  0  0  0  0  0  0  0  0  0  0  0
    4.2607   -6.6359   -2.1217 N   0  0  0  0  0  0  0  0  0  0  0  0
    3.3533   -7.6248   -1.9709 C   0  0  0  0  0  0  0  0  0  0  0  0
    2.1147   -7.2889   -1.5075 N   0  0  0  0  0  0  0  0  0  0  0  0
    1.7526   -6.0239   -1.2157 C   0  0  0  0  0  0  0  0  0  0  0  0
    5.2900   -0.2083   -3.5996 O   0  0  0  0  0  0  0  0  0  0  0  0
    5.9513   -0.7733   -2.7397 C   0  0  0  0  0  0  0  0  0  0  0  0
    6.9057   -0.2046   -2.0297 N   0  0  0  0  0  0  0  0  0  0  0  0
    7.2744    1.2045   -2.1072 C   0  0  0  0  0  0  0  0  0  0  0  0
    7.4064   -0.7730   -1.4009 H   0  0  0  0  0  0  0  0  0  0  0  0
    3.6134   -8.9266   -2.2444 N   0  0  0  0  0  0  0  0  0  0  0  0
    3.0213   -9.3223   -2.9242 H   0  0  0  0  0  0  0  0  0  0  0  0
    4.5576   -9.7962   -1.7421 C   0  0  0  0  0  0  0  0  0  0  0  0
    5.8268   -9.8933   -2.3489 C   0  0  0  0  0  0  0  0  0  0  0  0
    6.8008  -10.7508   -1.8750 C   0  0  0  0  0  0  0  0  0  0  0  0
    6.5600  -11.5903   -0.7764 C   0  0  0  0  0  0  0  0  0  0  0  0
    5.2810  -11.5154   -0.1383 C   0  0  0  0  0  0  0  0  0  0  0  0
    4.2922  -10.6175   -0.6085 C   0  0  0  0  0  0  0  0  0  0  0  0
    7.5765  -12.4684   -0.3249 N   0  0  0  0  0  0  0  0  0  0  0  0
    8.4624  -13.1843   -1.2577 C   0  0  0  0  0  0  0  0  0  0  0  0
    9.8038  -12.6225   -0.8370 C   0  0  0  0  0  0  0  0  0  0  0  0
   10.0612  -13.2099    0.4810 N   0  0  0  0  0  0  0  0  0  0  0  0
   11.2341  -14.0570    0.6728 C   0  0  0  0  0  0  0  0  0  0  0  0
    8.9868  -13.4078    1.4488 C   0  0  0  0  0  0  0  0  0  0  0  0
    7.9629  -12.3297    1.1038 C   0  0  0  0  0  0  0  0  0  0  0  0
 17 18  2  0  0  0
 18 19  1  0  0  0
 18  1  1  0  0  0
 19 20  1  0  0  0
  1  2  2  0  0  0
  1  6  1  0  0  0
  2  3  1  0  0  0
  3  4  1  0  0  0
  3  5  1  0  0  0
  5  6  2  0  0  0
  5  7  1  0  0  0
  6 10  1  0  0  0
  7  8  1  0  0  0
  7 13  2  0  0  0
  8  9  1  0  0  0
  8 16  2  0  0  0
  9 10  1  0  0  0
 10 11  1  0  0  0
 10 12  1  0  0  0
 13 14  1  0  0  0
 14 15  2  0  0  0
 14 22  1  0  0  0
 15 16  1  0  0  0
 22 24  1  0  0  0
 24 25  1  0  0  0
 24 29  2  0  0  0
 25 26  2  0  0  0
 26 27  1  0  0  0
 27 28  2  0  0  0
 27 30  1  0  0  0
 28 29  1  0  0  0
 30 31  1  0  0  0
 30 36  1  0  0  0
 31 32  1  0  0  0
 32 33  1  0  0  0
 33 34  1  0  0  0
 33 35  1  0  0  0
 35 36  1  0  0  0
 19 21  1  0  0  0
 22 23  1  0  0  0
M  END
> <minimizedAffinity>
-9.29015

$$$$
5VD1_P48_A_401


 36 40  0  0  0  0  0  0  0  0999 V2000
    4.9037   -1.8906   -2.4874 C   0  0  0  0  0  0  0  0  0  0  0  0
    4.7236   -3.2007   -2.6674 N   0  0  0  0  0  0  0  0  0  0  0  0
    5.9474   -3.8035   -2.6599 N   0  0  0  0  0  0  0  0  0  0  0  0
    5.9203   -5.2577   -2.8847 C   0  0  0  0  0  0  0  0  0  0  0  0
    6.9392   -2.9245   -2.5169 C   0  0  0  0  0  0  0  0  0  0  0  0
    6.3438   -1.5838   -2.3773 C   0  0  0  0  0  0  0  0  0  0  0  0
    8.3841   -3.1507   -2.3515 C   0  0  0  0  0  0  0  0  0  0  0  0
    9.2168   -2.0188   -2.3281 C   0  0  0  0  0  0  0  0  0  0  0  0
    8.6640   -0.6225   -2.6326 C   0  0  0  0  0  0  0  0  0  0  0  0
    7.2371   -0.3597   -2.1384 C   0  0  0  0  0  0  0  0  0  0  0  0
    7.2777   -0.0403   -0.6548 C   0  0  0  0  0  0  0  0  0  0  0  0
    6.7867    0.8202   -2.9774 C   0  0  0  0  0  0  0  0  0  0  0  0
    8.8607   -4.3953   -2.0976 N   0  0  0  0  0  0  0  0  0  0  0  0
   10.1752   -4.5977   -1.8626 C   0  0  0  0  0  0  0  0  0  0  0  0
   11.0000   -3.5107   -1.8732 N   0  0  0  0  0  0  0  0  0  0  0  0
   10.5632   -2.2534   -2.0851 C   0  0  0  0  0  0  0  0  0  0  0  0
    3.1963   -0.6941   -3.4697 O   0  0  0  0  0  0  0  0  0  0  0  0
    3.8050   -0.9408   -2.4378 C   0  0  0  0  0  0  0  0  0  0  0  0
    3.5925   -0.3489   -1.2791 N   0  0  0  0  0  0  0  0  0  0  0  0
    2.5512    0.6410   -1.0278 C   0  0  0  0  0  0  0  0  0  0  0  0
    4.1800   -0.5932   -0.5278 H   0  0  0  0  0  0  0  0  0  0  0  0
   10.7139   -5.8194   -1.6295 N   0  0  0  0  0  0  0  0  0  0  0  0
   10.0928   -6.4624   -1.2172 H   0  0  0  0  0  0  0  0  0  0  0  0
   11.9748   -6.3236   -1.8658 C   0  0  0  0  0  0  0  0  0  0  0  0
   12.9034   -6.4361   -0.8105 C   0  0  0  0  0  0  0  0  0  0  0  0
   14.1757   -6.9378   -1.0055 C   0  0  0  0  0  0  0  0  0  0  0  0
   14.6144   -7.3357   -2.2779 C   0  0  0  0  0  0  0  0  0  0  0  0
   13.6951   -7.2338   -3.3703 C   0  0  0  0  0  0  0  0  0  0  0  0
   12.3826   -6.7439   -3.1647 C   0  0  0  0  0  0  0  0  0  0  0  0
   15.9309   -7.8326   -2.4455 N   0  0  0  0  0  0  0  0  0  0  0  0
   16.3775   -9.0893   -1.8221 C   0  0  0  0  0  0  0  0  0  0  0  0
   16.7222   -9.8931   -3.0578 C   0  0  0  0  0  0  0  0  0  0  0  0
   17.9344   -9.2640   -3.5899 N   0  0  0  0  0  0  0  0  0  0  0  0
   19.1629  -10.0453   -3.6925 C   0  0  0  0  0  0  0  0  0  0  0  0
   18.1197   -7.8168   -3.5528 C   0  0  0  0  0  0  0  0  0  0  0  0
   16.7017   -7.2526   -3.5765 C   0  0  0  0  0  0  0  0  0  0  0  0
 17 18  2  0  0  0
 18 19  1  0  0  0
 18  1  1  0  0  0
 19 20  1  0  0  0
  1  2  2  0  0  0
  1  6  1  0  0  0
  2  3  1  0  0  0
  3  4  1  0  0  0
  3  5  1  0  0  0
  5  6  2  0  0  0
  5  7  1  0  0  0
  6 10  1  0  0  0
  7  8  1  0  0  0
  7 13  2  0  0  0
  8  9  1  0  0  0
  8 16  2  0  0  0
  9 10  1  0  0  0
 10 11  1  0  0  0
 10 12  1  0  0  0
 13 14  1  0  0  0
 14 15  2  0  0  0
 14 22  1  0  0  0
 15 16  1  0  0  0
 22 24  1  0  0  0
 24 25  1  0  0  0
 24 29  2  0  0  0
 25 26  2  0  0  0
 26 27  1  0  0  0
 27 28  2  0  0  0
 27 30  1  0  0  0
 28 29  1  0  0  0
 30 31  1  0  0  0
 30 36  1  0  0  0
 31 32  1  0  0  0
 32 33  1  0  0  0
 33 34  1  0  0  0
 33 35  1  0  0  0
 35 36  1  0  0  0
 19 21  1  0  0  0
 22 23  1  0  0  0
M  END
> <minimizedAffinity>
-9.27331

$$$$
