4JIA_1K3_A_1201


 32 36  0  0  0  0  0  0  0  0999 V2000
   14.3963  -26.8183  -20.3630 C   0  0  0  0  0  0  0  0  0  0  0  0
   15.4355  -27.7282  -20.1936 C   0  0  0  0  0  0  0  0  0  0  0  0
   13.1544  -27.1708  -19.9757 N   0  0  0  0  0  0  0  0  0  0  0  0
   12.0544  -26.3353  -20.1007 N   0  0  0  0  0  0  0  0  0  0  0  0
   11.1064  -27.1244  -19.5894 C   0  0  0  0  0  0  0  0  0  0  0  0
   11.5399  -28.3443  -19.1928 N   0  0  0  0  0  0  0  0  0  0  0  0
   12.8681  -28.3615  -19.4510 C   0  0  0  0  0  0  0  0  0  0  0  0
   13.8739  -29.2943  -19.2579 C   0  0  0  0  0  0  0  0  0  0  0  0
   15.1719  -28.9705  -19.6401 C   0  0  0  0  0  0  0  0  0  0  0  0
   15.2658  -22.9540  -22.0463 C   0  0  0  0  0  0  0  0  0  0  0  0
   14.0425  -23.5800  -22.3421 C   0  0  0  0  0  0  0  0  0  0  0  0
   13.7374  -24.8334  -21.8049 C   0  0  0  0  0  0  0  0  0  0  0  0
   16.1783  -23.6050  -21.2203 C   0  0  0  0  0  0  0  0  0  0  0  0
   15.8725  -24.8478  -20.6832 C   0  0  0  0  0  0  0  0  0  0  0  0
   14.6651  -25.4895  -20.9858 C   0  0  0  0  0  0  0  0  0  0  0  0
   16.9684  -21.4512  -22.9589 C   0  0  0  0  0  0  0  0  0  0  0  0
   15.6296  -21.7190  -22.5457 O   0  0  0  0  0  0  0  0  0  0  0  0
    9.7827  -26.7768  -19.4945 N   0  0  0  0  0  0  0  0  0  0  0  0
    9.2483  -27.3180  -18.8693 H   0  0  0  0  0  0  0  0  0  0  0  0
    9.1003  -25.7882  -20.1426 C   0  0  0  0  0  0  0  0  0  0  0  0
    9.7110  -24.6879  -20.7190 C   0  0  0  0  0  0  0  0  0  0  0  0
    8.9632  -23.7035  -21.3411 C   0  0  0  0  0  0  0  0  0  0  0  0
    7.5704  -23.7812  -21.4108 C   0  0  0  0  0  0  0  0  0  0  0  0
    6.9565  -24.8937  -20.8215 C   0  0  0  0  0  0  0  0  0  0  0  0
    7.7168  -25.8800  -20.2013 C   0  0  0  0  0  0  0  0  0  0  0  0
    6.8458  -22.7913  -22.0413 N   0  0  0  0  0  0  0  0  0  0  0  0
    6.3948  -21.6187  -21.2860 C   0  0  0  0  0  0  0  0  0  0  0  0
    6.5773  -20.3726  -22.1339 C   0  0  0  0  0  0  0  0  0  0  0  0
    5.7981  -20.6189  -23.3339 N   0  0  0  0  0  0  0  0  0  0  0  0
    5.6225  -19.3580  -24.0470 C   0  0  0  0  0  0  0  0  0  0  0  0
    6.5374  -21.5601  -24.1618 C   0  0  0  0  0  0  0  0  0  0  0  0
    6.4683  -22.9133  -23.4565 C   0  0  0  0  0  0  0  0  0  0  0  0
 30 29  1  0  0  0
 28 29  1  0  0  0
 28 27  1  0  0  0
 17 16  1  0  0  0
 17 10  1  0  0  0
 13 10  2  0  0  0
 13 14  1  0  0  0
 29 31  1  0  0  0
 31 32  1  0  0  0
 10 11  1  0  0  0
 14 15  2  0  0  0
 27 26  1  0  0  0
 11 12  2  0  0  0
 26 32  1  0  0  0
 26 23  1  0  0  0
 15 12  1  0  0  0
 15  1  1  0  0  0
 22 23  2  0  0  0
 22 21  1  0  0  0
 23 24  1  0  0  0
 21 20  2  0  0  0
  1  2  2  0  0  0
  1  3  1  0  0  0
  2  9  1  0  0  0
 24 25  2  0  0  0
  4  3  1  0  0  0
  4  5  2  0  0  0
  3  7  1  0  0  0
 20 25  1  0  0  0
 20 18  1  0  0  0
  9  8  2  0  0  0
  5 18  1  0  0  0
  5  6  1  0  0  0
  7  8  1  0  0  0
  7  6  2  0  0  0
 18 19  1  0  0  0
M  END
> <minimizedAffinity>
-9.64178

$$$$
4JIA_1K3_A_1201


 32 36  0  0  0  0  0  0  0  0999 V2000
   12.6424  -27.0854  -20.0047 C   0  0  0  0  0  0  0  0  0  0  0  0
   12.1599  -28.2771  -19.4721 C   0  0  0  0  0  0  0  0  0  0  0  0
   13.9678  -26.9563  -20.2128 N   0  0  0  0  0  0  0  0  0  0  0  0
   14.5454  -25.8109  -20.7402 N   0  0  0  0  0  0  0  0  0  0  0  0
   15.8281  -26.1816  -20.7465 C   0  0  0  0  0  0  0  0  0  0  0  0
   16.0596  -27.4238  -20.2603 N   0  0  0  0  0  0  0  0  0  0  0  0
   14.8459  -27.9134  -19.9161 C   0  0  0  0  0  0  0  0  0  0  0  0
   14.4078  -29.1182  -19.3913 C   0  0  0  0  0  0  0  0  0  0  0  0
   13.0467  -29.2958  -19.1637 C   0  0  0  0  0  0  0  0  0  0  0  0
    9.8133  -23.9749  -20.9225 C   0  0  0  0  0  0  0  0  0  0  0  0
   11.1899  -23.7184  -21.0447 C   0  0  0  0  0  0  0  0  0  0  0  0
   12.1268  -24.7138  -20.7547 C   0  0  0  0  0  0  0  0  0  0  0  0
    9.3931  -25.2315  -20.4951 C   0  0  0  0  0  0  0  0  0  0  0  0
   10.3240  -26.2213  -20.2119 C   0  0  0  0  0  0  0  0  0  0  0  0
   11.6984  -25.9717  -20.3118 C   0  0  0  0  0  0  0  0  0  0  0  0
    7.7562  -22.8108  -20.2872 C   0  0  0  0  0  0  0  0  0  0  0  0
    8.8370  -23.0358  -21.1907 O   0  0  0  0  0  0  0  0  0  0  0  0
   16.8598  -25.3808  -21.1667 N   0  0  0  0  0  0  0  0  0  0  0  0
   17.5086  -25.8106  -21.7697 H   0  0  0  0  0  0  0  0  0  0  0  0
   17.1156  -24.0737  -20.8684 C   0  0  0  0  0  0  0  0  0  0  0  0
   16.6721  -23.0121  -21.6380 C   0  0  0  0  0  0  0  0  0  0  0  0
   16.9854  -21.7075  -21.2989 C   0  0  0  0  0  0  0  0  0  0  0  0
   17.7577  -21.4127  -20.1729 C   0  0  0  0  0  0  0  0  0  0  0  0
   18.2086  -22.4904  -19.4003 C   0  0  0  0  0  0  0  0  0  0  0  0
   17.8858  -23.7983  -19.7473 C   0  0  0  0  0  0  0  0  0  0  0  0
   18.0525  -20.1043  -19.8507 N   0  0  0  0  0  0  0  0  0  0  0  0
   19.4471  -19.6541  -19.8158 C   0  0  0  0  0  0  0  0  0  0  0  0
   19.5462  -18.2728  -20.4380 C   0  0  0  0  0  0  0  0  0  0  0  0
   18.6534  -17.4423  -19.6500 N   0  0  0  0  0  0  0  0  0  0  0  0
   18.9389  -16.0406  -19.9383 C   0  0  0  0  0  0  0  0  0  0  0  0
   17.2874  -17.7618  -20.0370 C   0  0  0  0  0  0  0  0  0  0  0  0
   16.9902  -19.1557  -19.4874 C   0  0  0  0  0  0  0  0  0  0  0  0
 30 29  1  0  0  0
 28 29  1  0  0  0
 28 27  1  0  0  0
 17 16  1  0  0  0
 17 10  1  0  0  0
 13 10  2  0  0  0
 13 14  1  0  0  0
 29 31  1  0  0  0
 31 32  1  0  0  0
 10 11  1  0  0  0
 14 15  2  0  0  0
 27 26  1  0  0  0
 11 12  2  0  0  0
 26 32  1  0  0  0
 26 23  1  0  0  0
 15 12  1  0  0  0
 15  1  1  0  0  0
 22 23  2  0  0  0
 22 21  1  0  0  0
 23 24  1  0  0  0
 21 20  2  0  0  0
  1  2  2  0  0  0
  1  3  1  0  0  0
  2  9  1  0  0  0
 24 25  2  0  0  0
  4  3  1  0  0  0
  4  5  2  0  0  0
  3  7  1  0  0  0
 20 25  1  0  0  0
 20 18  1  0  0  0
  9  8  2  0  0  0
  5 18  1  0  0  0
  5  6  1  0  0  0
  7  8  1  0  0  0
  7  6  2  0  0  0
 18 19  1  0  0  0
M  END
> <minimizedAffinity>
-9.22740

$$$$
4JIA_1K3_A_1201


 32 36  0  0  0  0  0  0  0  0999 V2000
   13.6716  -26.8809  -20.0814 C   0  0  0  0  0  0  0  0  0  0  0  0
   13.5917  -28.2045  -19.6594 C   0  0  0  0  0  0  0  0  0  0  0  0
   12.5300  -26.1979  -20.2980 N   0  0  0  0  0  0  0  0  0  0  0  0
   12.5041  -24.8761  -20.7174 N   0  0  0  0  0  0  0  0  0  0  0  0
   11.1849  -24.6789  -20.7765 C   0  0  0  0  0  0  0  0  0  0  0  0
   10.4369  -25.7590  -20.4490 N   0  0  0  0  0  0  0  0  0  0  0  0
   11.3213  -26.7365  -20.1433 C   0  0  0  0  0  0  0  0  0  0  0  0
   11.1960  -28.0487  -19.7175 C   0  0  0  0  0  0  0  0  0  0  0  0
   12.3492  -28.7897  -19.4783 C   0  0  0  0  0  0  0  0  0  0  0  0
   17.5781  -25.2029  -20.7493 C   0  0  0  0  0  0  0  0  0  0  0  0
   16.6220  -24.4682  -20.0269 C   0  0  0  0  0  0  0  0  0  0  0  0
   15.3480  -24.9938  -19.7954 C   0  0  0  0  0  0  0  0  0  0  0  0
   17.2359  -26.4584  -21.2446 C   0  0  0  0  0  0  0  0  0  0  0  0
   15.9720  -26.9819  -21.0101 C   0  0  0  0  0  0  0  0  0  0  0  0
   15.0051  -26.2515  -20.3080 C   0  0  0  0  0  0  0  0  0  0  0  0
   19.0886  -23.7513  -22.0147 C   0  0  0  0  0  0  0  0  0  0  0  0
   18.8520  -24.7409  -21.0148 O   0  0  0  0  0  0  0  0  0  0  0  0
   10.5981  -23.5034  -21.1714 N   0  0  0  0  0  0  0  0  0  0  0  0
   11.1320  -22.9518  -21.7878 H   0  0  0  0  0  0  0  0  0  0  0  0
    9.3803  -22.9889  -20.8320 C   0  0  0  0  0  0  0  0  0  0  0  0
    8.2315  -23.1847  -21.5790 C   0  0  0  0  0  0  0  0  0  0  0  0
    7.0291  -22.6154  -21.1979 C   0  0  0  0  0  0  0  0  0  0  0  0
    6.9284  -21.8250  -20.0506 C   0  0  0  0  0  0  0  0  0  0  0  0
    8.0944  -21.6255  -19.3008 C   0  0  0  0  0  0  0  0  0  0  0  0
    9.2979  -22.2045  -19.6901 C   0  0  0  0  0  0  0  0  0  0  0  0
    5.7180  -21.2728  -19.6865 N   0  0  0  0  0  0  0  0  0  0  0  0
    4.8172  -20.7390  -20.7125 C   0  0  0  0  0  0  0  0  0  0  0  0
    3.3880  -21.1284  -20.3800 C   0  0  0  0  0  0  0  0  0  0  0  0
    3.1472  -20.5764  -19.0590 N   0  0  0  0  0  0  0  0  0  0  0  0
    1.7114  -20.5898  -18.7988 C   0  0  0  0  0  0  0  0  0  0  0  0
    3.8363  -21.4164  -18.0909 C   0  0  0  0  0  0  0  0  0  0  0  0
    5.3311  -21.1603  -18.2730 C   0  0  0  0  0  0  0  0  0  0  0  0
 30 29  1  0  0  0
 28 29  1  0  0  0
 28 27  1  0  0  0
 17 16  1  0  0  0
 17 10  1  0  0  0
 13 10  2  0  0  0
 13 14  1  0  0  0
 29 31  1  0  0  0
 31 32  1  0  0  0
 10 11  1  0  0  0
 14 15  2  0  0  0
 27 26  1  0  0  0
 11 12  2  0  0  0
 26 32  1  0  0  0
 26 23  1  0  0  0
 15 12  1  0  0  0
 15  1  1  0  0  0
 22 23  2  0  0  0
 22 21  1  0  0  0
 23 24  1  0  0  0
 21 20  2  0  0  0
  1  2  2  0  0  0
  1  3  1  0  0  0
  2  9  1  0  0  0
 24 25  2  0  0  0
  4  3  1  0  0  0
  4  5  2  0  0  0
  3  7  1  0  0  0
 20 25  1  0  0  0
 20 18  1  0  0  0
  9  8  2  0  0  0
  5 18  1  0  0  0
  5  6  1  0  0  0
  7  8  1  0  0  0
  7  6  2  0  0  0
 18 19  1  0  0  0
M  END
> <minimizedAffinity>
-9.21928

$$$$
4JIA_1K3_A_1201


 32 36  0  0  0  0  0  0  0  0999 V2000
   10.0568  -25.4344  -20.4022 C   0  0  0  0  0  0  0  0  0  0  0  0
    8.9275  -26.2341  -20.2545 C   0  0  0  0  0  0  0  0  0  0  0  0
    9.8960  -24.1050  -20.5557 N   0  0  0  0  0  0  0  0  0  0  0  0
   10.9569  -23.2247  -20.7081 N   0  0  0  0  0  0  0  0  0  0  0  0
   10.2880  -22.0740  -20.8146 C   0  0  0  0  0  0  0  0  0  0  0  0
    8.9408  -22.1961  -20.7557 N   0  0  0  0  0  0  0  0  0  0  0  0
    8.7007  -23.5175  -20.5901 C   0  0  0  0  0  0  0  0  0  0  0  0
    7.5509  -24.2751  -20.4394 C   0  0  0  0  0  0  0  0  0  0  0  0
    7.6708  -25.6515  -20.2745 C   0  0  0  0  0  0  0  0  0  0  0  0
   13.9392  -27.2885  -20.2956 C   0  0  0  0  0  0  0  0  0  0  0  0
   13.7429  -26.1344  -21.0737 C   0  0  0  0  0  0  0  0  0  0  0  0
   12.4918  -25.5138  -21.1215 C   0  0  0  0  0  0  0  0  0  0  0  0
   12.8663  -27.8155  -19.5817 C   0  0  0  0  0  0  0  0  0  0  0  0
   11.6251  -27.1957  -19.6258 C   0  0  0  0  0  0  0  0  0  0  0  0
   11.4128  -26.0565  -20.4121 C   0  0  0  0  0  0  0  0  0  0  0  0
   15.2351  -29.2644  -19.6579 C   0  0  0  0  0  0  0  0  0  0  0  0
   15.1477  -27.9507  -20.2071 O   0  0  0  0  0  0  0  0  0  0  0  0
   10.8816  -20.8525  -21.0089 N   0  0  0  0  0  0  0  0  0  0  0  0
   10.2970  -20.1543  -21.3831 H   0  0  0  0  0  0  0  0  0  0  0  0
   12.1665  -20.4666  -20.7578 C   0  0  0  0  0  0  0  0  0  0  0  0
   13.1849  -20.5426  -21.6922 C   0  0  0  0  0  0  0  0  0  0  0  0
   14.4755  -20.1601  -21.3708 C   0  0  0  0  0  0  0  0  0  0  0  0
   14.7991  -19.6853  -20.0977 C   0  0  0  0  0  0  0  0  0  0  0  0
   13.7665  -19.6151  -19.1541 C   0  0  0  0  0  0  0  0  0  0  0  0
   12.4714  -19.9988  -19.4874 C   0  0  0  0  0  0  0  0  0  0  0  0
   16.0912  -19.3038  -19.8016 N   0  0  0  0  0  0  0  0  0  0  0  0
   17.2220  -20.0080  -20.4132 C   0  0  0  0  0  0  0  0  0  0  0  0
   18.2835  -19.0007  -20.8177 C   0  0  0  0  0  0  0  0  0  0  0  0
   18.6319  -18.3101  -19.5891 N   0  0  0  0  0  0  0  0  0  0  0  0
   19.8761  -17.5772  -19.7987 C   0  0  0  0  0  0  0  0  0  0  0  0
   17.5547  -17.3829  -19.2764 C   0  0  0  0  0  0  0  0  0  0  0  0
   16.3614  -18.2289  -18.8363 C   0  0  0  0  0  0  0  0  0  0  0  0
 30 29  1  0  0  0
 28 29  1  0  0  0
 28 27  1  0  0  0
 17 16  1  0  0  0
 17 10  1  0  0  0
 13 10  2  0  0  0
 13 14  1  0  0  0
 29 31  1  0  0  0
 31 32  1  0  0  0
 10 11  1  0  0  0
 14 15  2  0  0  0
 27 26  1  0  0  0
 11 12  2  0  0  0
 26 32  1  0  0  0
 26 23  1  0  0  0
 15 12  1  0  0  0
 15  1  1  0  0  0
 22 23  2  0  0  0
 22 21  1  0  0  0
 23 24  1  0  0  0
 21 20  2  0  0  0
  1  2  2  0  0  0
  1  3  1  0  0  0
  2  9  1  0  0  0
 24 25  2  0  0  0
  4  3  1  0  0  0
  4  5  2  0  0  0
  3  7  1  0  0  0
 20 25  1  0  0  0
 20 18  1  0  0  0
  9  8  2  0  0  0
  5 18  1  0  0  0
  5  6  1  0  0  0
  7  8  1  0  0  0
  7  6  2  0  0  0
 18 19  1  0  0  0
M  END
> <minimizedAffinity>
-8.96042

$$$$
4JIA_1K3_A_1201


 32 36  0  0  0  0  0  0  0  0999 V2000
   11.3038  -26.1221  -20.2818 C   0  0  0  0  0  0  0  0  0  0  0  0
   11.4455  -27.3302  -19.6058 C   0  0  0  0  0  0  0  0  0  0  0  0
   12.3861  -25.5769  -20.8717 N   0  0  0  0  0  0  0  0  0  0  0  0
   12.3476  -24.3789  -21.5697 N   0  0  0  0  0  0  0  0  0  0  0  0
   13.6262  -24.2887  -21.9434 C   0  0  0  0  0  0  0  0  0  0  0  0
   14.4119  -25.3067  -21.5195 N   0  0  0  0  0  0  0  0  0  0  0  0
   13.5960  -26.1328  -20.8246 C   0  0  0  0  0  0  0  0  0  0  0  0
   13.7800  -27.3389  -20.1686 C   0  0  0  0  0  0  0  0  0  0  0  0
   12.6885  -27.9391  -19.5487 C   0  0  0  0  0  0  0  0  0  0  0  0
    7.4100  -24.2962  -20.4430 C   0  0  0  0  0  0  0  0  0  0  0  0
    8.5566  -23.5002  -20.6089 C   0  0  0  0  0  0  0  0  0  0  0  0
    9.8311  -24.0715  -20.5631 C   0  0  0  0  0  0  0  0  0  0  0  0
    7.5595  -25.6621  -20.2183 C   0  0  0  0  0  0  0  0  0  0  0  0
    8.8255  -26.2297  -20.1778 C   0  0  0  0  0  0  0  0  0  0  0  0
    9.9756  -25.4439  -20.3230 C   0  0  0  0  0  0  0  0  0  0  0  0
    5.3901  -23.5582  -19.2743 C   0  0  0  0  0  0  0  0  0  0  0  0
    6.1238  -23.7946  -20.4747 O   0  0  0  0  0  0  0  0  0  0  0  0
   14.1466  -23.2440  -22.6644 N   0  0  0  0  0  0  0  0  0  0  0  0
   13.8421  -23.1832  -23.5986 H   0  0  0  0  0  0  0  0  0  0  0  0
   15.0262  -22.2767  -22.2720 C   0  0  0  0  0  0  0  0  0  0  0  0
   16.0702  -21.8259  -23.0612 C   0  0  0  0  0  0  0  0  0  0  0  0
   16.9464  -20.8599  -22.5983 C   0  0  0  0  0  0  0  0  0  0  0  0
   16.8123  -20.3053  -21.3234 C   0  0  0  0  0  0  0  0  0  0  0  0
   15.7577  -20.7683  -20.5266 C   0  0  0  0  0  0  0  0  0  0  0  0
   14.8799  -21.7374  -21.0018 C   0  0  0  0  0  0  0  0  0  0  0  0
   17.6938  -19.3391  -20.8853 N   0  0  0  0  0  0  0  0  0  0  0  0
   17.1960  -18.0198  -20.4847 C   0  0  0  0  0  0  0  0  0  0  0  0
   17.9299  -17.5620  -19.2370 C   0  0  0  0  0  0  0  0  0  0  0  0
   19.3335  -17.5592  -19.6081 N   0  0  0  0  0  0  0  0  0  0  0  0
   20.0829  -16.8081  -18.6064 C   0  0  0  0  0  0  0  0  0  0  0  0
   19.7906  -18.9404  -19.6394 C   0  0  0  0  0  0  0  0  0  0  0  0
   19.1419  -19.5898  -20.8604 C   0  0  0  0  0  0  0  0  0  0  0  0
 30 29  1  0  0  0
 28 29  1  0  0  0
 28 27  1  0  0  0
 17 16  1  0  0  0
 17 10  1  0  0  0
 13 10  2  0  0  0
 13 14  1  0  0  0
 29 31  1  0  0  0
 31 32  1  0  0  0
 10 11  1  0  0  0
 14 15  2  0  0  0
 27 26  1  0  0  0
 11 12  2  0  0  0
 26 32  1  0  0  0
 26 23  1  0  0  0
 15 12  1  0  0  0
 15  1  1  0  0  0
 22 23  2  0  0  0
 22 21  1  0  0  0
 23 24  1  0  0  0
 21 20  2  0  0  0
  1  2  2  0  0  0
  1  3  1  0  0  0
  2  9  1  0  0  0
 24 25  2  0  0  0
  4  3  1  0  0  0
  4  5  2  0  0  0
  3  7  1  0  0  0
 20 25  1  0  0  0
 20 18  1  0  0  0
  9  8  2  0  0  0
  5 18  1  0  0  0
  5  6  1  0  0  0
  7  8  1  0  0  0
  7  6  2  0  0  0
 18 19  1  0  0  0
M  END
> <minimizedAffinity>
-8.93861

$$$$
4JIA_1K3_A_1201


 32 36  0  0  0  0  0  0  0  0999 V2000
    5.4290  -23.3576  -20.2590 C   0  0  0  0  0  0  0  0  0  0  0  0
    5.1275  -22.2453  -21.0391 C   0  0  0  0  0  0  0  0  0  0  0  0
    6.6173  -23.9698  -20.4323 N   0  0  0  0  0  0  0  0  0  0  0  0
    7.0114  -25.0824  -19.7039 N   0  0  0  0  0  0  0  0  0  0  0  0
    8.2191  -25.2892  -20.2343 C   0  0  0  0  0  0  0  0  0  0  0  0
    8.5637  -24.4179  -21.2117 N   0  0  0  0  0  0  0  0  0  0  0  0
    7.5158  -23.5700  -21.3311 C   0  0  0  0  0  0  0  0  0  0  0  0
    7.2593  -22.4628  -22.1231 C   0  0  0  0  0  0  0  0  0  0  0  0
    6.0460  -21.7981  -21.9747 C   0  0  0  0  0  0  0  0  0  0  0  0
    2.4577  -24.8328  -17.5174 C   0  0  0  0  0  0  0  0  0  0  0  0
    3.5003  -24.0205  -17.0389 C   0  0  0  0  0  0  0  0  0  0  0  0
    4.4749  -23.5279  -17.9110 C   0  0  0  0  0  0  0  0  0  0  0  0
    2.4144  -25.1528  -18.8717 C   0  0  0  0  0  0  0  0  0  0  0  0
    3.3799  -24.6592  -19.7381 C   0  0  0  0  0  0  0  0  0  0  0  0
    4.4339  -23.8647  -19.2700 C   0  0  0  0  0  0  0  0  0  0  0  0
    0.7858  -26.5591  -17.0538 C   0  0  0  0  0  0  0  0  0  0  0  0
    1.4660  -25.3534  -16.7096 O   0  0  0  0  0  0  0  0  0  0  0  0
    9.0547  -26.3151  -19.8719 N   0  0  0  0  0  0  0  0  0  0  0  0
    8.6135  -27.0931  -19.4604 H   0  0  0  0  0  0  0  0  0  0  0  0
   10.4102  -26.4117  -20.0001 C   0  0  0  0  0  0  0  0  0  0  0  0
   11.2246  -25.3458  -20.3414 C   0  0  0  0  0  0  0  0  0  0  0  0
   12.5914  -25.5109  -20.4820 C   0  0  0  0  0  0  0  0  0  0  0  0
   13.1992  -26.7532  -20.2863 C   0  0  0  0  0  0  0  0  0  0  0  0
   12.3705  -27.8299  -19.9463 C   0  0  0  0  0  0  0  0  0  0  0  0
   10.9978  -27.6535  -19.8040 C   0  0  0  0  0  0  0  0  0  0  0  0
   14.5643  -26.8932  -20.4258 N   0  0  0  0  0  0  0  0  0  0  0  0
   15.3710  -25.7688  -20.9093 C   0  0  0  0  0  0  0  0  0  0  0  0
   16.6590  -25.6921  -20.1092 C   0  0  0  0  0  0  0  0  0  0  0  0
   17.2964  -26.9823  -20.3011 N   0  0  0  0  0  0  0  0  0  0  0  0
   18.6871  -26.8882  -19.8696 C   0  0  0  0  0  0  0  0  0  0  0  0
   16.5872  -27.9571  -19.4859 C   0  0  0  0  0  0  0  0  0  0  0  0
   15.2270  -28.1749  -20.1461 C   0  0  0  0  0  0  0  0  0  0  0  0
 30 29  1  0  0  0
 28 29  1  0  0  0
 28 27  1  0  0  0
 17 16  1  0  0  0
 17 10  1  0  0  0
 13 10  2  0  0  0
 13 14  1  0  0  0
 29 31  1  0  0  0
 31 32  1  0  0  0
 10 11  1  0  0  0
 14 15  2  0  0  0
 27 26  1  0  0  0
 11 12  2  0  0  0
 26 32  1  0  0  0
 26 23  1  0  0  0
 15 12  1  0  0  0
 15  1  1  0  0  0
 22 23  2  0  0  0
 22 21  1  0  0  0
 23 24  1  0  0  0
 21 20  2  0  0  0
  1  2  2  0  0  0
  1  3  1  0  0  0
  2  9  1  0  0  0
 24 25  2  0  0  0
  4  3  1  0  0  0
  4  5  2  0  0  0
  3  7  1  0  0  0
 20 25  1  0  0  0
 20 18  1  0  0  0
  9  8  2  0  0  0
  5 18  1  0  0  0
  5  6  1  0  0  0
  7  8  1  0  0  0
  7  6  2  0  0  0
 18 19  1  0  0  0
M  END
> <minimizedAffinity>
-8.73477

$$$$
4JIA_1K3_A_1201


 32 36  0  0  0  0  0  0  0  0999 V2000
    3.8006  -23.2324  -17.3904 C   0  0  0  0  0  0  0  0  0  0  0  0
    3.3733  -22.4488  -16.3228 C   0  0  0  0  0  0  0  0  0  0  0  0
    4.9379  -22.8944  -18.0301 N   0  0  0  0  0  0  0  0  0  0  0  0
    5.4474  -23.6114  -19.1025 N   0  0  0  0  0  0  0  0  0  0  0  0
    6.5437  -22.8938  -19.3594 C   0  0  0  0  0  0  0  0  0  0  0  0
    6.7172  -21.8193  -18.5541 N   0  0  0  0  0  0  0  0  0  0  0  0
    5.6684  -21.8306  -17.6991 C   0  0  0  0  0  0  0  0  0  0  0  0
    5.2833  -21.0278  -16.6379 C   0  0  0  0  0  0  0  0  0  0  0  0
    4.1174  -21.3423  -15.9469 C   0  0  0  0  0  0  0  0  0  0  0  0
    1.4330  -26.5536  -18.7637 C   0  0  0  0  0  0  0  0  0  0  0  0
    1.5924  -26.3392  -17.3837 C   0  0  0  0  0  0  0  0  0  0  0  0
    2.3544  -25.2658  -16.9145 C   0  0  0  0  0  0  0  0  0  0  0  0
    2.0559  -25.6897  -19.6605 C   0  0  0  0  0  0  0  0  0  0  0  0
    2.8087  -24.6210  -19.1938 C   0  0  0  0  0  0  0  0  0  0  0  0
    2.9900  -24.4083  -17.8215 C   0  0  0  0  0  0  0  0  0  0  0  0
    0.9018  -28.9406  -18.8649 C   0  0  0  0  0  0  0  0  0  0  0  0
    0.6964  -27.5952  -19.2923 O   0  0  0  0  0  0  0  0  0  0  0  0
    7.4248  -23.1691  -20.3743 N   0  0  0  0  0  0  0  0  0  0  0  0
    7.2985  -22.6430  -21.1968 H   0  0  0  0  0  0  0  0  0  0  0  0
    8.4515  -24.0679  -20.4070 C   0  0  0  0  0  0  0  0  0  0  0  0
    8.2780  -25.4337  -20.2637 C   0  0  0  0  0  0  0  0  0  0  0  0
    9.3616  -26.2943  -20.2797 C   0  0  0  0  0  0  0  0  0  0  0  0
   10.6659  -25.8207  -20.4397 C   0  0  0  0  0  0  0  0  0  0  0  0
   10.8370  -24.4376  -20.5790 C   0  0  0  0  0  0  0  0  0  0  0  0
    9.7412  -23.5806  -20.5651 C   0  0  0  0  0  0  0  0  0  0  0  0
   11.7304  -26.6976  -20.4587 N   0  0  0  0  0  0  0  0  0  0  0  0
   13.0082  -26.2871  -21.0485 C   0  0  0  0  0  0  0  0  0  0  0  0
   14.1480  -26.7878  -20.1795 C   0  0  0  0  0  0  0  0  0  0  0  0
   13.9744  -28.2283  -20.1276 N   0  0  0  0  0  0  0  0  0  0  0  0
   15.2013  -28.8313  -19.6173 C   0  0  0  0  0  0  0  0  0  0  0  0
   12.8677  -28.5132  -19.2266 C   0  0  0  0  0  0  0  0  0  0  0  0
   11.5937  -28.0666  -19.9414 C   0  0  0  0  0  0  0  0  0  0  0  0
 30 29  1  0  0  0
 28 29  1  0  0  0
 28 27  1  0  0  0
 17 16  1  0  0  0
 17 10  1  0  0  0
 13 10  2  0  0  0
 13 14  1  0  0  0
 29 31  1  0  0  0
 31 32  1  0  0  0
 10 11  1  0  0  0
 14 15  2  0  0  0
 27 26  1  0  0  0
 11 12  2  0  0  0
 26 32  1  0  0  0
 26 23  1  0  0  0
 15 12  1  0  0  0
 15  1  1  0  0  0
 22 23  2  0  0  0
 22 21  1  0  0  0
 23 24  1  0  0  0
 21 20  2  0  0  0
  1  2  2  0  0  0
  1  3  1  0  0  0
  2  9  1  0  0  0
 24 25  2  0  0  0
  4  3  1  0  0  0
  4  5  2  0  0  0
  3  7  1  0  0  0
 20 25  1  0  0  0
 20 18  1  0  0  0
  9  8  2  0  0  0
  5 18  1  0  0  0
  5  6  1  0  0  0
  7  8  1  0  0  0
  7  6  2  0  0  0
 18 19  1  0  0  0
M  END
> <minimizedAffinity>
-8.59954

$$$$
4JIA_1K3_A_1201


 32 36  0  0  0  0  0  0  0  0999 V2000
    5.8778  -24.0909  -21.4898 C   0  0  0  0  0  0  0  0  0  0  0  0
    5.6700  -22.7595  -21.8372 C   0  0  0  0  0  0  0  0  0  0  0  0
    7.0815  -24.4557  -21.0052 N   0  0  0  0  0  0  0  0  0  0  0  0
    7.3863  -25.7555  -20.6294 N   0  0  0  0  0  0  0  0  0  0  0  0
    8.6502  -25.5901  -20.2319 C   0  0  0  0  0  0  0  0  0  0  0  0
    9.1198  -24.3260  -20.3532 N   0  0  0  0  0  0  0  0  0  0  0  0
    8.0937  -23.6021  -20.8574 C   0  0  0  0  0  0  0  0  0  0  0  0
    7.9276  -22.2662  -21.1840 C   0  0  0  0  0  0  0  0  0  0  0  0
    6.6995  -21.8452  -21.6844 C   0  0  0  0  0  0  0  0  0  0  0  0
    2.7185  -26.9303  -22.1813 C   0  0  0  0  0  0  0  0  0  0  0  0
    2.9048  -26.4003  -20.8928 C   0  0  0  0  0  0  0  0  0  0  0  0
    3.9224  -25.4751  -20.6452 C   0  0  0  0  0  0  0  0  0  0  0  0
    3.5702  -26.5318  -23.2081 C   0  0  0  0  0  0  0  0  0  0  0  0
    4.5776  -25.6091  -22.9626 C   0  0  0  0  0  0  0  0  0  0  0  0
    4.7848  -25.0885  -21.6791 C   0  0  0  0  0  0  0  0  0  0  0  0
    1.8376  -28.6839  -23.6439 C   0  0  0  0  0  0  0  0  0  0  0  0
    1.7351  -27.8487  -22.4920 O   0  0  0  0  0  0  0  0  0  0  0  0
    9.4519  -26.6031  -19.7702 N   0  0  0  0  0  0  0  0  0  0  0  0
    8.9870  -27.3177  -19.2776 H   0  0  0  0  0  0  0  0  0  0  0  0
   10.8017  -26.7623  -19.8959 C   0  0  0  0  0  0  0  0  0  0  0  0
   11.5036  -27.8157  -19.3358 C   0  0  0  0  0  0  0  0  0  0  0  0
   12.8772  -27.9099  -19.4758 C   0  0  0  0  0  0  0  0  0  0  0  0
   13.6050  -26.9507  -20.1836 C   0  0  0  0  0  0  0  0  0  0  0  0
   12.8912  -25.8839  -20.7440 C   0  0  0  0  0  0  0  0  0  0  0  0
   11.5099  -25.7994  -20.6009 C   0  0  0  0  0  0  0  0  0  0  0  0
   14.9730  -27.0683  -20.3155 N   0  0  0  0  0  0  0  0  0  0  0  0
   15.7371  -26.0181  -20.9954 C   0  0  0  0  0  0  0  0  0  0  0  0
   17.0279  -25.7636  -20.2377 C   0  0  0  0  0  0  0  0  0  0  0  0
   17.7074  -27.0464  -20.2143 N   0  0  0  0  0  0  0  0  0  0  0  0
   19.0974  -26.8346  -19.8242 C   0  0  0  0  0  0  0  0  0  0  0  0
   17.0383  -27.8891  -19.2346 C   0  0  0  0  0  0  0  0  0  0  0  0
   15.6813  -28.2609  -19.8293 C   0  0  0  0  0  0  0  0  0  0  0  0
 30 29  1  0  0  0
 28 29  1  0  0  0
 28 27  1  0  0  0
 17 16  1  0  0  0
 17 10  1  0  0  0
 13 10  2  0  0  0
 13 14  1  0  0  0
 29 31  1  0  0  0
 31 32  1  0  0  0
 10 11  1  0  0  0
 14 15  2  0  0  0
 27 26  1  0  0  0
 11 12  2  0  0  0
 26 32  1  0  0  0
 26 23  1  0  0  0
 15 12  1  0  0  0
 15  1  1  0  0  0
 22 23  2  0  0  0
 22 21  1  0  0  0
 23 24  1  0  0  0
 21 20  2  0  0  0
  1  2  2  0  0  0
  1  3  1  0  0  0
  2  9  1  0  0  0
 24 25  2  0  0  0
  4  3  1  0  0  0
  4  5  2  0  0  0
  3  7  1  0  0  0
 20 25  1  0  0  0
 20 18  1  0  0  0
  9  8  2  0  0  0
  5 18  1  0  0  0
  5  6  1  0  0  0
  7  8  1  0  0  0
  7  6  2  0  0  0
 18 19  1  0  0  0
M  END
> <minimizedAffinity>
-8.58774

$$$$
4JIA_1K3_A_1201


 32 36  0  0  0  0  0  0  0  0999 V2000
   17.3099  -25.9775  -20.4865 C   0  0  0  0  0  0  0  0  0  0  0  0
   18.4088  -26.5738  -21.0975 C   0  0  0  0  0  0  0  0  0  0  0  0
   17.4346  -24.7246  -20.0053 N   0  0  0  0  0  0  0  0  0  0  0  0
   16.3990  -24.0442  -19.3822 N   0  0  0  0  0  0  0  0  0  0  0  0
   17.0135  -22.8913  -19.1069 C   0  0  0  0  0  0  0  0  0  0  0  0
   18.3102  -22.8359  -19.4927 N   0  0  0  0  0  0  0  0  0  0  0  0
   18.5703  -24.0312  -20.0713 C   0  0  0  0  0  0  0  0  0  0  0  0
   19.6862  -24.5841  -20.6779 C   0  0  0  0  0  0  0  0  0  0  0  0
   19.6007  -25.8742  -21.1919 C   0  0  0  0  0  0  0  0  0  0  0  0
   13.5466  -28.0293  -20.1008 C   0  0  0  0  0  0  0  0  0  0  0  0
   14.7248  -28.6516  -19.6531 C   0  0  0  0  0  0  0  0  0  0  0  0
   15.9577  -28.0035  -19.7656 C   0  0  0  0  0  0  0  0  0  0  0  0
   13.6240  -26.7618  -20.6716 C   0  0  0  0  0  0  0  0  0  0  0  0
   14.8483  -26.1167  -20.7786 C   0  0  0  0  0  0  0  0  0  0  0  0
   16.0311  -26.7342  -20.3534 C   0  0  0  0  0  0  0  0  0  0  0  0
   11.1200  -27.8294  -19.8520 C   0  0  0  0  0  0  0  0  0  0  0  0
   12.2985  -28.6151  -20.0212 O   0  0  0  0  0  0  0  0  0  0  0  0
   16.4231  -21.8404  -18.4517 N   0  0  0  0  0  0  0  0  0  0  0  0
   16.6877  -21.7282  -17.5101 H   0  0  0  0  0  0  0  0  0  0  0  0
   15.5214  -20.9281  -18.9184 C   0  0  0  0  0  0  0  0  0  0  0  0
   15.8605  -19.6394  -19.2929 C   0  0  0  0  0  0  0  0  0  0  0  0
   14.8969  -18.7498  -19.7347 C   0  0  0  0  0  0  0  0  0  0  0  0
   13.5515  -19.1157  -19.8191 C   0  0  0  0  0  0  0  0  0  0  0  0
   13.2124  -20.4189  -19.4341 C   0  0  0  0  0  0  0  0  0  0  0  0
   14.1886  -21.3072  -18.9944 C   0  0  0  0  0  0  0  0  0  0  0  0
   12.6089  -18.2143  -20.2682 N   0  0  0  0  0  0  0  0  0  0  0  0
   11.7509  -18.5565  -21.4065 C   0  0  0  0  0  0  0  0  0  0  0  0
   10.3348  -18.0845  -21.1296 C   0  0  0  0  0  0  0  0  0  0  0  0
   10.4534  -16.6546  -20.9077 N   0  0  0  0  0  0  0  0  0  0  0  0
    9.1247  -16.0559  -20.9815 C   0  0  0  0  0  0  0  0  0  0  0  0
   11.0170  -16.4532  -19.5812 C   0  0  0  0  0  0  0  0  0  0  0  0
   12.4806  -16.8841  -19.6562 C   0  0  0  0  0  0  0  0  0  0  0  0
 30 29  1  0  0  0
 28 29  1  0  0  0
 28 27  1  0  0  0
 17 16  1  0  0  0
 17 10  1  0  0  0
 13 10  2  0  0  0
 13 14  1  0  0  0
 29 31  1  0  0  0
 31 32  1  0  0  0
 10 11  1  0  0  0
 14 15  2  0  0  0
 27 26  1  0  0  0
 11 12  2  0  0  0
 26 32  1  0  0  0
 26 23  1  0  0  0
 15 12  1  0  0  0
 15  1  1  0  0  0
 22 23  2  0  0  0
 22 21  1  0  0  0
 23 24  1  0  0  0
 21 20  2  0  0  0
  1  2  2  0  0  0
  1  3  1  0  0  0
  2  9  1  0  0  0
 24 25  2  0  0  0
  4  3  1  0  0  0
  4  5  2  0  0  0
  3  7  1  0  0  0
 20 25  1  0  0  0
 20 18  1  0  0  0
  9  8  2  0  0  0
  5 18  1  0  0  0
  5  6  1  0  0  0
  7  8  1  0  0  0
  7  6  2  0  0  0
 18 19  1  0  0  0
M  END
> <minimizedAffinity>
-8.38478

$$$$
4JIA_1K3_A_1201


 32 36  0  0  0  0  0  0  0  0999 V2000
   17.9018  -23.6281  -20.1015 C   0  0  0  0  0  0  0  0  0  0  0  0
   19.1979  -23.3993  -20.5535 C   0  0  0  0  0  0  0  0  0  0  0  0
   17.1378  -22.5723  -19.7575 N   0  0  0  0  0  0  0  0  0  0  0  0
   15.8349  -22.6956  -19.2983 N   0  0  0  0  0  0  0  0  0  0  0  0
   15.5345  -21.4086  -19.1088 C   0  0  0  0  0  0  0  0  0  0  0  0
   16.5378  -20.5460  -19.3963 N   0  0  0  0  0  0  0  0  0  0  0  0
   17.5712  -21.3137  -19.8133 C   0  0  0  0  0  0  0  0  0  0  0  0
   18.8521  -21.0406  -20.2645 C   0  0  0  0  0  0  0  0  0  0  0  0
   19.6739  -22.1008  -20.6337 C   0  0  0  0  0  0  0  0  0  0  0  0
   16.2971  -27.6115  -19.8199 C   0  0  0  0  0  0  0  0  0  0  0  0
   17.3249  -27.2146  -18.9471 C   0  0  0  0  0  0  0  0  0  0  0  0
   17.8596  -25.9255  -19.0183 C   0  0  0  0  0  0  0  0  0  0  0  0
   15.8257  -26.7073  -20.7679 C   0  0  0  0  0  0  0  0  0  0  0  0
   16.3538  -25.4254  -20.8348 C   0  0  0  0  0  0  0  0  0  0  0  0
   17.3908  -25.0248  -19.9832 C   0  0  0  0  0  0  0  0  0  0  0  0
   14.3517  -29.0567  -19.4777 C   0  0  0  0  0  0  0  0  0  0  0  0
   15.7278  -28.8695  -19.8038 O   0  0  0  0  0  0  0  0  0  0  0  0
   14.3312  -20.9610  -18.6252 N   0  0  0  0  0  0  0  0  0  0  0  0
   14.3883  -20.2699  -17.9264 H   0  0  0  0  0  0  0  0  0  0  0  0
   13.0662  -21.3365  -18.9742 C   0  0  0  0  0  0  0  0  0  0  0  0
   12.6490  -22.6548  -19.0365 C   0  0  0  0  0  0  0  0  0  0  0  0
   11.3593  -22.9756  -19.4224 C   0  0  0  0  0  0  0  0  0  0  0  0
   10.4333  -21.9868  -19.7627 C   0  0  0  0  0  0  0  0  0  0  0  0
   10.8616  -20.6546  -19.7033 C   0  0  0  0  0  0  0  0  0  0  0  0
   12.1592  -20.3417  -19.3109 C   0  0  0  0  0  0  0  0  0  0  0  0
    9.1512  -22.3295  -20.1386 N   0  0  0  0  0  0  0  0  0  0  0  0
    8.9347  -23.4083  -21.1072 C   0  0  0  0  0  0  0  0  0  0  0  0
    7.7548  -24.2544  -20.6634 C   0  0  0  0  0  0  0  0  0  0  0  0
    6.6410  -23.3272  -20.5760 N   0  0  0  0  0  0  0  0  0  0  0  0
    5.3994  -24.0901  -20.5010 C   0  0  0  0  0  0  0  0  0  0  0  0
    6.8123  -22.5351  -19.3672 C   0  0  0  0  0  0  0  0  0  0  0  0
    7.9881  -21.5939  -19.6223 C   0  0  0  0  0  0  0  0  0  0  0  0
 30 29  1  0  0  0
 28 29  1  0  0  0
 28 27  1  0  0  0
 17 16  1  0  0  0
 17 10  1  0  0  0
 13 10  2  0  0  0
 13 14  1  0  0  0
 29 31  1  0  0  0
 31 32  1  0  0  0
 10 11  1  0  0  0
 14 15  2  0  0  0
 27 26  1  0  0  0
 11 12  2  0  0  0
 26 32  1  0  0  0
 26 23  1  0  0  0
 15 12  1  0  0  0
 15  1  1  0  0  0
 22 23  2  0  0  0
 22 21  1  0  0  0
 23 24  1  0  0  0
 21 20  2  0  0  0
  1  2  2  0  0  0
  1  3  1  0  0  0
  2  9  1  0  0  0
 24 25  2  0  0  0
  4  3  1  0  0  0
  4  5  2  0  0  0
  3  7  1  0  0  0
 20 25  1  0  0  0
 20 18  1  0  0  0
  9  8  2  0  0  0
  5 18  1  0  0  0
  5  6  1  0  0  0
  7  8  1  0  0  0
  7  6  2  0  0  0
 18 19  1  0  0  0
M  END
> <minimizedAffinity>
-8.37448

$$$$
