2WCA_NP6_A_900


 32 33  0  0  0  0  0  0  0  0999 V2000
   -8.0088  -12.2122    8.0411 C   0  0  0  0  0  0  0  0  0  0  0  0
   -8.9120  -11.7922    9.2144 C   0  0  0  0  0  0  0  0  0  0  0  0
   -9.4771  -12.9473    9.8126 O   0  0  0  0  0  0  0  0  0  0  0  0
   -8.1259  -11.0057   10.2511 C   0  0  0  0  0  0  0  0  0  0  0  0
   -8.9750  -10.6262   11.3434 O   0  0  0  0  0  0  0  0  0  0  0  0
   -7.6179   -9.7271    9.5886 C   0  0  0  0  0  0  0  0  0  0  0  0
   -6.7425  -10.0358    8.5129 O   0  0  0  0  0  0  0  0  0  0  0  0
   -6.7884  -11.2740    7.9206 C   0  0  0  0  0  0  0  0  0  0  0  0
   -5.7051  -11.6559    7.2451 N   0  0  0  0  0  0  0  0  0  0  0  0
   -8.7679  -13.5149   10.1529 H   0  0  0  0  0  0  0  0  0  0  0  0
   -9.7032  -10.0780   11.0115 H   0  0  0  0  0  0  0  0  0  0  0  0
   -9.5669  -13.3466    6.4104 C   0  0  0  0  0  0  0  0  0  0  0  0
   -9.7556  -14.3569    7.0951 O   0  0  0  0  0  0  0  0  0  0  0  0
   -8.7839  -12.3199    6.7684 N   0  0  0  0  0  0  0  0  0  0  0  0
   -8.7129  -11.5689    6.1358 H   0  0  0  0  0  0  0  0  0  0  0  0
  -10.2349  -13.1976    5.0252 C   0  0  0  0  0  0  0  0  0  0  0  0
  -11.7061  -11.6334    3.6833 C   0  0  0  0  0  0  0  0  0  0  0  0
  -10.8009  -11.7920    4.8987 C   0  0  0  0  0  0  0  0  0  0  0  0
   -6.8588   -8.7312   10.4997 C   0  0  0  0  0  0  0  0  0  0  0  0
   -7.7442   -8.1179   11.4284 O   0  0  0  0  0  0  0  0  0  0  0  0
   -8.4289   -7.6275   10.9470 H   0  0  0  0  0  0  0  0  0  0  0  0
   -4.6154  -10.8182    7.1978 O   0  0  0  0  0  0  0  0  0  0  0  0
   -3.7447  -10.9667    8.2635 C   0  0  0  0  0  0  0  0  0  0  0  0
   -2.8888  -11.8594    8.2359 O   0  0  0  0  0  0  0  0  0  0  0  0
   -3.8698  -10.0939    9.2929 N   0  0  0  0  0  0  0  0  0  0  0  0
   -4.5309   -9.3777    9.1545 H   0  0  0  0  0  0  0  0  0  0  0  0
   -3.2231  -10.0568   10.4847 C   0  0  0  0  0  0  0  0  0  0  0  0
   -3.9032  -10.5269   11.6141 C   0  0  0  0  0  0  0  0  0  0  0  0
   -3.2992  -10.5439   12.8766 C   0  0  0  0  0  0  0  0  0  0  0  0
   -1.9832  -10.0918   13.0239 C   0  0  0  0  0  0  0  0  0  0  0  0
   -1.2846   -9.6411   11.9020 C   0  0  0  0  0  0  0  0  0  0  0  0
   -1.8989   -9.6248   10.6424 C   0  0  0  0  0  0  0  0  0  0  0  0
 17 18  1  0  0  0
 18 16  1  0  0  0
 16 12  1  0  0  0
 12 13  2  0  0  0
 12 14  1  0  0  0
 14  1  1  0  0  0
  1  2  1  0  0  0
  1  8  1  0  0  0
  2  3  1  0  0  0
  2  4  1  0  0  0
  4  5  1  0  0  0
  4  6  1  0  0  0
  6 19  1  0  0  0
  6  7  1  0  0  0
 19 20  1  0  0  0
  7  8  1  0  0  0
  8  9  2  0  0  0
  9 22  1  0  0  0
 22 23  1  0  0  0
 23 24  2  0  0  0
 23 25  1  0  0  0
 25 27  1  0  0  0
 27 28  1  0  0  0
 27 32  2  0  0  0
 28 29  2  0  0  0
 29 30  1  0  0  0
 30 31  2  0  0  0
 31 32  1  0  0  0
 14 15  1  0  0  0
  3 10  1  0  0  0
  5 11  1  0  0  0
 20 21  1  0  0  0
 25 26  1  0  0  0
M  END
> <minimizedAffinity>
-8.82916

$$$$
2WCA_NP6_A_900


 32 33  0  0  0  0  0  0  0  0999 V2000
   -8.3714  -11.9622    8.1288 C   0  0  0  0  0  0  0  0  0  0  0  0
   -9.0286  -10.9092    9.0389 C   0  0  0  0  0  0  0  0  0  0  0  0
   -9.9854  -11.5389    9.8753 O   0  0  0  0  0  0  0  0  0  0  0  0
   -7.9871  -10.1994    9.8890 C   0  0  0  0  0  0  0  0  0  0  0  0
   -8.6109   -9.2263   10.7387 O   0  0  0  0  0  0  0  0  0  0  0  0
   -7.0365   -9.4591    8.9510 C   0  0  0  0  0  0  0  0  0  0  0  0
   -6.3610  -10.3747    8.0999 O   0  0  0  0  0  0  0  0  0  0  0  0
   -6.8863  -11.6237    7.8762 C   0  0  0  0  0  0  0  0  0  0  0  0
   -6.0415  -12.5615    7.4490 N   0  0  0  0  0  0  0  0  0  0  0  0
   -9.5437  -12.1996   10.4315 H   0  0  0  0  0  0  0  0  0  0  0  0
   -9.0775   -8.5732   10.1941 H   0  0  0  0  0  0  0  0  0  0  0  0
   -9.7462  -13.2803    6.4716 C   0  0  0  0  0  0  0  0  0  0  0  0
   -9.7402  -14.3366    7.1115 O   0  0  0  0  0  0  0  0  0  0  0  0
   -9.1456  -12.1489    6.8646 N   0  0  0  0  0  0  0  0  0  0  0  0
   -9.2212  -11.3705    6.2666 H   0  0  0  0  0  0  0  0  0  0  0  0
  -10.4622  -13.1909    5.1053 C   0  0  0  0  0  0  0  0  0  0  0  0
  -11.7844  -11.5933    3.6523 C   0  0  0  0  0  0  0  0  0  0  0  0
  -10.8440  -11.7429    4.8419 C   0  0  0  0  0  0  0  0  0  0  0  0
   -5.9412   -8.5923    9.6198 C   0  0  0  0  0  0  0  0  0  0  0  0
   -5.8188   -8.9076   11.0012 O   0  0  0  0  0  0  0  0  0  0  0  0
   -6.6610   -8.7311   11.4490 H   0  0  0  0  0  0  0  0  0  0  0  0
   -4.7145  -12.2415    7.2810 O   0  0  0  0  0  0  0  0  0  0  0  0
   -3.9217  -13.3101    6.8998 C   0  0  0  0  0  0  0  0  0  0  0  0
   -2.8209  -13.4792    7.4379 O   0  0  0  0  0  0  0  0  0  0  0  0
   -4.4155  -14.1408    5.9494 N   0  0  0  0  0  0  0  0  0  0  0  0
   -5.3377  -13.9471    5.6644 H   0  0  0  0  0  0  0  0  0  0  0  0
   -3.8329  -15.1982    5.3311 C   0  0  0  0  0  0  0  0  0  0  0  0
   -4.0212  -16.4683    5.8884 C   0  0  0  0  0  0  0  0  0  0  0  0
   -3.4730  -17.6136    5.2995 C   0  0  0  0  0  0  0  0  0  0  0  0
   -2.7256  -17.5000    4.1220 C   0  0  0  0  0  0  0  0  0  0  0  0
   -2.5485  -16.2421    3.5423 C   0  0  0  0  0  0  0  0  0  0  0  0
   -3.0985  -15.1005    4.1411 C   0  0  0  0  0  0  0  0  0  0  0  0
 17 18  1  0  0  0
 18 16  1  0  0  0
 16 12  1  0  0  0
 12 13  2  0  0  0
 12 14  1  0  0  0
 14  1  1  0  0  0
  1  2  1  0  0  0
  1  8  1  0  0  0
  2  3  1  0  0  0
  2  4  1  0  0  0
  4  5  1  0  0  0
  4  6  1  0  0  0
  6 19  1  0  0  0
  6  7  1  0  0  0
 19 20  1  0  0  0
  7  8  1  0  0  0
  8  9  2  0  0  0
  9 22  1  0  0  0
 22 23  1  0  0  0
 23 24  2  0  0  0
 23 25  1  0  0  0
 25 27  1  0  0  0
 27 28  1  0  0  0
 27 32  2  0  0  0
 28 29  2  0  0  0
 29 30  1  0  0  0
 30 31  2  0  0  0
 31 32  1  0  0  0
 14 15  1  0  0  0
  3 10  1  0  0  0
  5 11  1  0  0  0
 20 21  1  0  0  0
 25 26  1  0  0  0
M  END
> <minimizedAffinity>
-8.42953

$$$$
2WCA_NP6_A_900


 32 33  0  0  0  0  0  0  0  0999 V2000
   -4.0486  -11.7553    9.6179 C   0  0  0  0  0  0  0  0  0  0  0  0
   -4.2406  -10.2420    9.8228 C   0  0  0  0  0  0  0  0  0  0  0  0
   -3.1990   -9.5402    9.1641 O   0  0  0  0  0  0  0  0  0  0  0  0
   -5.5889   -9.7877    9.2870 C   0  0  0  0  0  0  0  0  0  0  0  0
   -5.7540   -8.3752    9.4758 O   0  0  0  0  0  0  0  0  0  0  0  0
   -6.6787  -10.4964   10.0880 C   0  0  0  0  0  0  0  0  0  0  0  0
   -6.5885  -11.9041    9.9175 O   0  0  0  0  0  0  0  0  0  0  0  0
   -5.4103  -12.4736    9.5008 C   0  0  0  0  0  0  0  0  0  0  0  0
   -5.4912  -13.6862    8.9542 N   0  0  0  0  0  0  0  0  0  0  0  0
   -3.2302   -9.7326    8.2138 H   0  0  0  0  0  0  0  0  0  0  0  0
   -5.6997   -8.1668   10.4216 H   0  0  0  0  0  0  0  0  0  0  0  0
   -3.2985  -12.1435   11.9971 C   0  0  0  0  0  0  0  0  0  0  0  0
   -4.1660  -11.4382   12.5217 O   0  0  0  0  0  0  0  0  0  0  0  0
   -3.1741  -12.3419   10.6778 N   0  0  0  0  0  0  0  0  0  0  0  0
   -2.4404  -12.9270   10.3801 H   0  0  0  0  0  0  0  0  0  0  0  0
   -2.2389  -12.8627   12.8615 C   0  0  0  0  0  0  0  0  0  0  0  0
   -1.5882  -12.1001   15.1868 C   0  0  0  0  0  0  0  0  0  0  0  0
   -2.6489  -12.7711   14.3228 C   0  0  0  0  0  0  0  0  0  0  0  0
   -8.1413  -10.1077    9.7595 C   0  0  0  0  0  0  0  0  0  0  0  0
   -8.5511   -8.9823   10.5264 O   0  0  0  0  0  0  0  0  0  0  0  0
   -8.4992   -9.1983   11.4707 H   0  0  0  0  0  0  0  0  0  0  0  0
   -6.7248  -14.2790    8.8187 O   0  0  0  0  0  0  0  0  0  0  0  0
   -7.3730  -13.9656    7.6365 C   0  0  0  0  0  0  0  0  0  0  0  0
   -6.9181  -14.3740    6.5612 O   0  0  0  0  0  0  0  0  0  0  0  0
   -8.5060  -13.2272    7.7273 N   0  0  0  0  0  0  0  0  0  0  0  0
   -8.8092  -13.0395    8.6450 H   0  0  0  0  0  0  0  0  0  0  0  0
   -9.2859  -12.7075    6.7467 C   0  0  0  0  0  0  0  0  0  0  0  0
  -10.1439  -13.5762    6.0623 C   0  0  0  0  0  0  0  0  0  0  0  0
  -10.9972  -13.1160    5.0528 C   0  0  0  0  0  0  0  0  0  0  0  0
  -11.0084  -11.7575    4.7177 C   0  0  0  0  0  0  0  0  0  0  0  0
  -10.1743  -10.8754    5.4076 C   0  0  0  0  0  0  0  0  0  0  0  0
   -9.3208  -11.3461    6.4147 C   0  0  0  0  0  0  0  0  0  0  0  0
 17 18  1  0  0  0
 18 16  1  0  0  0
 16 12  1  0  0  0
 12 13  2  0  0  0
 12 14  1  0  0  0
 14  1  1  0  0  0
  1  2  1  0  0  0
  1  8  1  0  0  0
  2  3  1  0  0  0
  2  4  1  0  0  0
  4  5  1  0  0  0
  4  6  1  0  0  0
  6 19  1  0  0  0
  6  7  1  0  0  0
 19 20  1  0  0  0
  7  8  1  0  0  0
  8  9  2  0  0  0
  9 22  1  0  0  0
 22 23  1  0  0  0
 23 24  2  0  0  0
 23 25  1  0  0  0
 25 27  1  0  0  0
 27 28  1  0  0  0
 27 32  2  0  0  0
 28 29  2  0  0  0
 29 30  1  0  0  0
 30 31  2  0  0  0
 31 32  1  0  0  0
 14 15  1  0  0  0
  3 10  1  0  0  0
  5 11  1  0  0  0
 20 21  1  0  0  0
 25 26  1  0  0  0
M  END
> <minimizedAffinity>
-8.23471

$$$$
2WCA_NP6_A_900


 32 33  0  0  0  0  0  0  0  0999 V2000
   -7.6454  -11.8977    9.6613 C   0  0  0  0  0  0  0  0  0  0  0  0
   -8.2145  -10.5842   10.2269 C   0  0  0  0  0  0  0  0  0  0  0  0
   -9.2692  -10.8761   11.1289 O   0  0  0  0  0  0  0  0  0  0  0  0
   -7.1337   -9.7849   10.9371 C   0  0  0  0  0  0  0  0  0  0  0  0
   -7.6764   -8.5671   11.4669 O   0  0  0  0  0  0  0  0  0  0  0  0
   -6.0685   -9.4126    9.9084 C   0  0  0  0  0  0  0  0  0  0  0  0
   -5.4680  -10.5807    9.3662 O   0  0  0  0  0  0  0  0  0  0  0  0
   -6.1225  -11.7862    9.4324 C   0  0  0  0  0  0  0  0  0  0  0  0
   -5.3734  -12.8821    9.3162 N   0  0  0  0  0  0  0  0  0  0  0  0
   -8.9280  -11.4098   11.8635 H   0  0  0  0  0  0  0  0  0  0  0  0
   -8.0436   -8.0352   10.7437 H   0  0  0  0  0  0  0  0  0  0  0  0
   -8.6452  -11.5653    7.3670 C   0  0  0  0  0  0  0  0  0  0  0  0
   -8.3039  -10.3843    7.2483 O   0  0  0  0  0  0  0  0  0  0  0  0
   -8.3846  -12.3290    8.4367 N   0  0  0  0  0  0  0  0  0  0  0  0
   -8.7096  -13.2580    8.4136 H   0  0  0  0  0  0  0  0  0  0  0  0
   -9.4470  -12.2697    6.2498 C   0  0  0  0  0  0  0  0  0  0  0  0
  -11.1393  -11.8488    4.4138 C   0  0  0  0  0  0  0  0  0  0  0  0
  -10.2819  -11.2342    5.5133 C   0  0  0  0  0  0  0  0  0  0  0  0
   -4.9093   -8.5151   10.4075 C   0  0  0  0  0  0  0  0  0  0  0  0
   -4.4996   -8.8968   11.7148 O   0  0  0  0  0  0  0  0  0  0  0  0
   -5.2446   -8.7996   12.3284 H   0  0  0  0  0  0  0  0  0  0  0  0
   -4.0130  -12.7504    9.1629 O   0  0  0  0  0  0  0  0  0  0  0  0
   -3.2955  -12.9215   10.3340 C   0  0  0  0  0  0  0  0  0  0  0  0
   -2.7820  -14.0189   10.5835 O   0  0  0  0  0  0  0  0  0  0  0  0
   -3.1776  -11.8470   11.1517 N   0  0  0  0  0  0  0  0  0  0  0  0
   -3.5572  -11.0102   10.7984 H   0  0  0  0  0  0  0  0  0  0  0  0
   -2.6163  -11.7487   12.3827 C   0  0  0  0  0  0  0  0  0  0  0  0
   -1.2507  -11.4508   12.4582 C   0  0  0  0  0  0  0  0  0  0  0  0
   -0.6003  -11.3098   13.6895 C   0  0  0  0  0  0  0  0  0  0  0  0
   -1.3228  -11.4587   14.8785 C   0  0  0  0  0  0  0  0  0  0  0  0
   -2.6906  -11.7336   14.8186 C   0  0  0  0  0  0  0  0  0  0  0  0
   -3.3325  -11.8763   13.5809 C   0  0  0  0  0  0  0  0  0  0  0  0
 17 18  1  0  0  0
 18 16  1  0  0  0
 16 12  1  0  0  0
 12 13  2  0  0  0
 12 14  1  0  0  0
 14  1  1  0  0  0
  1  2  1  0  0  0
  1  8  1  0  0  0
  2  3  1  0  0  0
  2  4  1  0  0  0
  4  5  1  0  0  0
  4  6  1  0  0  0
  6 19  1  0  0  0
  6  7  1  0  0  0
 19 20  1  0  0  0
  7  8  1  0  0  0
  8  9  2  0  0  0
  9 22  1  0  0  0
 22 23  1  0  0  0
 23 24  2  0  0  0
 23 25  1  0  0  0
 25 27  1  0  0  0
 27 28  1  0  0  0
 27 32  2  0  0  0
 28 29  2  0  0  0
 29 30  1  0  0  0
 30 31  2  0  0  0
 31 32  1  0  0  0
 14 15  1  0  0  0
  3 10  1  0  0  0
  5 11  1  0  0  0
 20 21  1  0  0  0
 25 26  1  0  0  0
M  END
> <minimizedAffinity>
-7.94427

$$$$
2WCA_NP6_A_900


 32 33  0  0  0  0  0  0  0  0999 V2000
   -4.9094  -11.0458    9.7056 C   0  0  0  0  0  0  0  0  0  0  0  0
   -5.6795   -9.8128   10.2113 C   0  0  0  0  0  0  0  0  0  0  0  0
   -5.0714   -8.6358    9.7052 O   0  0  0  0  0  0  0  0  0  0  0  0
   -7.1365   -9.8676    9.7804 C   0  0  0  0  0  0  0  0  0  0  0  0
   -7.8427   -8.7105   10.2499 O   0  0  0  0  0  0  0  0  0  0  0  0
   -7.7736  -11.0967   10.4246 C   0  0  0  0  0  0  0  0  0  0  0  0
   -7.1361  -12.2839    9.9741 O   0  0  0  0  0  0  0  0  0  0  0  0
   -5.8683  -12.2285    9.4490 C   0  0  0  0  0  0  0  0  0  0  0  0
   -5.4974  -13.2438    8.6697 N   0  0  0  0  0  0  0  0  0  0  0  0
   -5.1026   -8.6469    8.7358 H   0  0  0  0  0  0  0  0  0  0  0  0
   -7.7973   -8.6747   11.2182 H   0  0  0  0  0  0  0  0  0  0  0  0
   -2.5770  -10.8228   10.6457 C   0  0  0  0  0  0  0  0  0  0  0  0
   -2.2245   -9.9054    9.8977 O   0  0  0  0  0  0  0  0  0  0  0  0
   -3.7857  -11.4006   10.6241 N   0  0  0  0  0  0  0  0  0  0  0  0
   -3.9480  -12.1241   11.2718 H   0  0  0  0  0  0  0  0  0  0  0  0
   -1.6005  -11.4059   11.6916 C   0  0  0  0  0  0  0  0  0  0  0  0
   -2.5296  -10.0098   13.5889 C   0  0  0  0  0  0  0  0  0  0  0  0
   -1.3089  -10.3444   12.7405 C   0  0  0  0  0  0  0  0  0  0  0  0
   -9.2905  -11.2952   10.1838 C   0  0  0  0  0  0  0  0  0  0  0  0
   -9.7928  -10.3170    9.2819 O   0  0  0  0  0  0  0  0  0  0  0  0
   -9.6581   -9.4324    9.6565 H   0  0  0  0  0  0  0  0  0  0  0  0
   -6.3920  -14.2581    8.4201 O   0  0  0  0  0  0  0  0  0  0  0  0
   -7.1916  -14.0430    7.3109 C   0  0  0  0  0  0  0  0  0  0  0  0
   -6.8651  -14.5215    6.2180 O   0  0  0  0  0  0  0  0  0  0  0  0
   -8.3229  -13.3190    7.4929 N   0  0  0  0  0  0  0  0  0  0  0  0
   -8.5130  -13.0696    8.4261 H   0  0  0  0  0  0  0  0  0  0  0  0
   -9.2331  -12.8856    6.5853 C   0  0  0  0  0  0  0  0  0  0  0  0
   -9.2509  -11.5207    6.2757 C   0  0  0  0  0  0  0  0  0  0  0  0
  -10.1434  -10.9964    5.3336 C   0  0  0  0  0  0  0  0  0  0  0  0
  -11.0365  -11.8474    4.6733 C   0  0  0  0  0  0  0  0  0  0  0  0
  -11.0147  -13.2148    4.9554 C   0  0  0  0  0  0  0  0  0  0  0  0
  -10.1196  -13.7301    5.9028 C   0  0  0  0  0  0  0  0  0  0  0  0
 17 18  1  0  0  0
 18 16  1  0  0  0
 16 12  1  0  0  0
 12 13  2  0  0  0
 12 14  1  0  0  0
 14  1  1  0  0  0
  1  2  1  0  0  0
  1  8  1  0  0  0
  2  3  1  0  0  0
  2  4  1  0  0  0
  4  5  1  0  0  0
  4  6  1  0  0  0
  6 19  1  0  0  0
  6  7  1  0  0  0
 19 20  1  0  0  0
  7  8  1  0  0  0
  8  9  2  0  0  0
  9 22  1  0  0  0
 22 23  1  0  0  0
 23 24  2  0  0  0
 23 25  1  0  0  0
 25 27  1  0  0  0
 27 28  1  0  0  0
 27 32  2  0  0  0
 28 29  2  0  0  0
 29 30  1  0  0  0
 30 31  2  0  0  0
 31 32  1  0  0  0
 14 15  1  0  0  0
  3 10  1  0  0  0
  5 11  1  0  0  0
 20 21  1  0  0  0
 25 26  1  0  0  0
M  END
> <minimizedAffinity>
-7.83436

$$$$
2WCA_NP6_A_900


 32 33  0  0  0  0  0  0  0  0999 V2000
   -7.8717  -13.0484    8.1005 C   0  0  0  0  0  0  0  0  0  0  0  0
   -8.8258  -13.2941    9.2830 C   0  0  0  0  0  0  0  0  0  0  0  0
   -9.8748  -12.3402    9.2497 O   0  0  0  0  0  0  0  0  0  0  0  0
   -9.4038  -14.6994    9.2321 C   0  0  0  0  0  0  0  0  0  0  0  0
  -10.2972  -14.9149   10.3337 O   0  0  0  0  0  0  0  0  0  0  0  0
   -8.2496  -15.6900    9.3663 C   0  0  0  0  0  0  0  0  0  0  0  0
   -7.3409  -15.5479    8.2833 O   0  0  0  0  0  0  0  0  0  0  0  0
   -7.3066  -14.3802    7.5612 C   0  0  0  0  0  0  0  0  0  0  0  0
   -6.7800  -14.4466    6.3390 N   0  0  0  0  0  0  0  0  0  0  0  0
  -10.3725  -12.4356    8.4227 H   0  0  0  0  0  0  0  0  0  0  0  0
   -9.8162  -14.7975   11.1679 H   0  0  0  0  0  0  0  0  0  0  0  0
   -6.9300  -10.7346    8.4659 C   0  0  0  0  0  0  0  0  0  0  0  0
   -7.9651  -10.1274    8.1741 O   0  0  0  0  0  0  0  0  0  0  0  0
   -6.8022  -12.0684    8.4580 N   0  0  0  0  0  0  0  0  0  0  0  0
   -5.9244  -12.4357    8.7106 H   0  0  0  0  0  0  0  0  0  0  0  0
   -5.6495   -9.9650    8.8598 C   0  0  0  0  0  0  0  0  0  0  0  0
   -3.6146  -10.2641    7.3828 C   0  0  0  0  0  0  0  0  0  0  0  0
   -4.4377  -10.8245    8.5362 C   0  0  0  0  0  0  0  0  0  0  0  0
   -8.6296  -17.1901    9.4259 C   0  0  0  0  0  0  0  0  0  0  0  0
   -8.8407  -17.6064   10.7694 O   0  0  0  0  0  0  0  0  0  0  0  0
   -8.0253  -17.4795   11.2791 H   0  0  0  0  0  0  0  0  0  0  0  0
   -6.3304  -15.6581    5.8682 O   0  0  0  0  0  0  0  0  0  0  0  0
   -5.0530  -15.6165    5.3368 C   0  0  0  0  0  0  0  0  0  0  0  0
   -4.0798  -15.8576    6.0612 O   0  0  0  0  0  0  0  0  0  0  0  0
   -4.9390  -15.3252    4.0180 N   0  0  0  0  0  0  0  0  0  0  0  0
   -5.7922  -15.2397    3.5344 H   0  0  0  0  0  0  0  0  0  0  0  0
   -3.8286  -15.1334    3.2629 C   0  0  0  0  0  0  0  0  0  0  0  0
   -3.9715  -15.1540    1.8706 C   0  0  0  0  0  0  0  0  0  0  0  0
   -2.8799  -14.9423    1.0206 C   0  0  0  0  0  0  0  0  0  0  0  0
   -1.6141  -14.6944    1.5631 C   0  0  0  0  0  0  0  0  0  0  0  0
   -1.4608  -14.6484    2.9502 C   0  0  0  0  0  0  0  0  0  0  0  0
   -2.5592  -14.8650    3.7934 C   0  0  0  0  0  0  0  0  0  0  0  0
 17 18  1  0  0  0
 18 16  1  0  0  0
 16 12  1  0  0  0
 12 13  2  0  0  0
 12 14  1  0  0  0
 14  1  1  0  0  0
  1  2  1  0  0  0
  1  8  1  0  0  0
  2  3  1  0  0  0
  2  4  1  0  0  0
  4  5  1  0  0  0
  4  6  1  0  0  0
  6 19  1  0  0  0
  6  7  1  0  0  0
 19 20  1  0  0  0
  7  8  1  0  0  0
  8  9  2  0  0  0
  9 22  1  0  0  0
 22 23  1  0  0  0
 23 24  2  0  0  0
 23 25  1  0  0  0
 25 27  1  0  0  0
 27 28  1  0  0  0
 27 32  2  0  0  0
 28 29  2  0  0  0
 29 30  1  0  0  0
 30 31  2  0  0  0
 31 32  1  0  0  0
 14 15  1  0  0  0
  3 10  1  0  0  0
  5 11  1  0  0  0
 20 21  1  0  0  0
 25 26  1  0  0  0
M  END
> <minimizedAffinity>
-7.35365

$$$$
2WCA_NP6_A_900


 32 33  0  0  0  0  0  0  0  0999 V2000
   -7.5315  -13.7253    8.6508 C   0  0  0  0  0  0  0  0  0  0  0  0
   -8.7053  -13.8235    9.6414 C   0  0  0  0  0  0  0  0  0  0  0  0
   -9.5175  -12.6665    9.5277 O   0  0  0  0  0  0  0  0  0  0  0  0
   -9.5381  -15.0674    9.3757 C   0  0  0  0  0  0  0  0  0  0  0  0
  -10.6333  -15.1450   10.2991 O   0  0  0  0  0  0  0  0  0  0  0  0
   -8.6493  -16.2882    9.6021 C   0  0  0  0  0  0  0  0  0  0  0  0
   -7.5574  -16.2866    8.6929 O   0  0  0  0  0  0  0  0  0  0  0  0
   -7.1631  -15.1165    8.0916 C   0  0  0  0  0  0  0  0  0  0  0  0
   -6.4576  -15.2289    6.9667 N   0  0  0  0  0  0  0  0  0  0  0  0
   -9.8736  -12.6087    8.6273 H   0  0  0  0  0  0  0  0  0  0  0  0
  -10.2902  -15.1782   11.2057 H   0  0  0  0  0  0  0  0  0  0  0  0
   -6.2296  -11.6910    9.3860 C   0  0  0  0  0  0  0  0  0  0  0  0
   -7.0658  -10.8621    9.0132 O   0  0  0  0  0  0  0  0  0  0  0  0
   -6.3639  -13.0180    9.2580 N   0  0  0  0  0  0  0  0  0  0  0  0
   -5.6269  -13.5773    9.5944 H   0  0  0  0  0  0  0  0  0  0  0  0
   -4.9047  -11.2353   10.0374 C   0  0  0  0  0  0  0  0  0  0  0  0
   -4.0346  -11.0533   12.4083 C   0  0  0  0  0  0  0  0  0  0  0  0
   -5.1879  -10.7649   11.4552 C   0  0  0  0  0  0  0  0  0  0  0  0
   -9.3296  -17.6730    9.4678 C   0  0  0  0  0  0  0  0  0  0  0  0
  -10.3263  -17.8469   10.4673 O   0  0  0  0  0  0  0  0  0  0  0  0
   -9.9167  -17.7939   11.3450 H   0  0  0  0  0  0  0  0  0  0  0  0
   -6.1881  -16.4816    6.4673 O   0  0  0  0  0  0  0  0  0  0  0  0
   -5.1143  -16.5207    5.5949 C   0  0  0  0  0  0  0  0  0  0  0  0
   -4.3474  -17.4911    5.6099 O   0  0  0  0  0  0  0  0  0  0  0  0
   -4.9707  -15.4780    4.7409 N   0  0  0  0  0  0  0  0  0  0  0  0
   -5.6955  -14.8124    4.7696 H   0  0  0  0  0  0  0  0  0  0  0  0
   -3.9807  -15.2118    3.8527 C   0  0  0  0  0  0  0  0  0  0  0  0
   -2.7148  -14.8938    4.3583 C   0  0  0  0  0  0  0  0  0  0  0  0
   -1.6342  -14.6281    3.5094 C   0  0  0  0  0  0  0  0  0  0  0  0
   -1.8087  -14.6876    2.1224 C   0  0  0  0  0  0  0  0  0  0  0  0
   -3.0603  -15.0257    1.6037 C   0  0  0  0  0  0  0  0  0  0  0  0
   -4.1374  -15.2869    2.4617 C   0  0  0  0  0  0  0  0  0  0  0  0
 17 18  1  0  0  0
 18 16  1  0  0  0
 16 12  1  0  0  0
 12 13  2  0  0  0
 12 14  1  0  0  0
 14  1  1  0  0  0
  1  2  1  0  0  0
  1  8  1  0  0  0
  2  3  1  0  0  0
  2  4  1  0  0  0
  4  5  1  0  0  0
  4  6  1  0  0  0
  6 19  1  0  0  0
  6  7  1  0  0  0
 19 20  1  0  0  0
  7  8  1  0  0  0
  8  9  2  0  0  0
  9 22  1  0  0  0
 22 23  1  0  0  0
 23 24  2  0  0  0
 23 25  1  0  0  0
 25 27  1  0  0  0
 27 28  1  0  0  0
 27 32  2  0  0  0
 28 29  2  0  0  0
 29 30  1  0  0  0
 30 31  2  0  0  0
 31 32  1  0  0  0
 14 15  1  0  0  0
  3 10  1  0  0  0
  5 11  1  0  0  0
 20 21  1  0  0  0
 25 26  1  0  0  0
M  END
> <minimizedAffinity>
-7.24337

$$$$
2WCA_NP6_A_900


 32 33  0  0  0  0  0  0  0  0999 V2000
   -4.8710  -10.9104    8.1475 C   0  0  0  0  0  0  0  0  0  0  0  0
   -4.5904  -10.2186    9.4935 C   0  0  0  0  0  0  0  0  0  0  0  0
   -3.5653   -9.2533    9.3239 O   0  0  0  0  0  0  0  0  0  0  0  0
   -5.8449   -9.5505   10.0332 C   0  0  0  0  0  0  0  0  0  0  0  0
   -5.5704   -8.9024   11.2833 O   0  0  0  0  0  0  0  0  0  0  0  0
   -6.8860  -10.6376   10.2895 C   0  0  0  0  0  0  0  0  0  0  0  0
   -7.2255  -11.2996    9.0790 O   0  0  0  0  0  0  0  0  0  0  0  0
   -6.3692  -11.2559    8.0062 C   0  0  0  0  0  0  0  0  0  0  0  0
   -6.8970  -11.5018    6.8076 N   0  0  0  0  0  0  0  0  0  0  0  0
   -3.8541   -8.5841    8.6837 H   0  0  0  0  0  0  0  0  0  0  0  0
   -5.2565   -9.5583   11.9254 H   0  0  0  0  0  0  0  0  0  0  0  0
   -2.7073  -12.0600    7.5386 C   0  0  0  0  0  0  0  0  0  0  0  0
   -2.0859  -11.0279    7.2667 O   0  0  0  0  0  0  0  0  0  0  0  0
   -3.9826  -12.0949    7.9482 N   0  0  0  0  0  0  0  0  0  0  0  0
   -4.3690  -12.9810    8.1347 H   0  0  0  0  0  0  0  0  0  0  0  0
   -2.0341  -13.4440    7.4020 C   0  0  0  0  0  0  0  0  0  0  0  0
   -2.1217  -14.4173    5.0660 C   0  0  0  0  0  0  0  0  0  0  0  0
   -1.3579  -13.5320    6.0430 C   0  0  0  0  0  0  0  0  0  0  0  0
   -8.2206  -10.1797   10.9280 C   0  0  0  0  0  0  0  0  0  0  0  0
   -8.4330   -8.7895   10.7162 O   0  0  0  0  0  0  0  0  0  0  0  0
   -7.7121   -8.2862   11.1260 H   0  0  0  0  0  0  0  0  0  0  0  0
   -8.2447  -11.7575    6.7088 O   0  0  0  0  0  0  0  0  0  0  0  0
   -8.5755  -13.0944    6.8468 C   0  0  0  0  0  0  0  0  0  0  0  0
   -8.4227  -13.8654    5.8917 O   0  0  0  0  0  0  0  0  0  0  0  0
   -9.0418  -13.4965    8.0543 N   0  0  0  0  0  0  0  0  0  0  0  0
   -9.0343  -12.8056    8.7556 H   0  0  0  0  0  0  0  0  0  0  0  0
   -9.5173  -14.7057    8.4439 C   0  0  0  0  0  0  0  0  0  0  0  0
   -8.7157  -15.4844    9.2868 C   0  0  0  0  0  0  0  0  0  0  0  0
   -9.1421  -16.7336    9.7522 C   0  0  0  0  0  0  0  0  0  0  0  0
  -10.3998  -17.2216    9.3808 C   0  0  0  0  0  0  0  0  0  0  0  0
  -11.2197  -16.4458    8.5587 C   0  0  0  0  0  0  0  0  0  0  0  0
  -10.7827  -15.1975    8.0949 C   0  0  0  0  0  0  0  0  0  0  0  0
 17 18  1  0  0  0
 18 16  1  0  0  0
 16 12  1  0  0  0
 12 13  2  0  0  0
 12 14  1  0  0  0
 14  1  1  0  0  0
  1  2  1  0  0  0
  1  8  1  0  0  0
  2  3  1  0  0  0
  2  4  1  0  0  0
  4  5  1  0  0  0
  4  6  1  0  0  0
  6 19  1  0  0  0
  6  7  1  0  0  0
 19 20  1  0  0  0
  7  8  1  0  0  0
  8  9  2  0  0  0
  9 22  1  0  0  0
 22 23  1  0  0  0
 23 24  2  0  0  0
 23 25  1  0  0  0
 25 27  1  0  0  0
 27 28  1  0  0  0
 27 32  2  0  0  0
 28 29  2  0  0  0
 29 30  1  0  0  0
 30 31  2  0  0  0
 31 32  1  0  0  0
 14 15  1  0  0  0
  3 10  1  0  0  0
  5 11  1  0  0  0
 20 21  1  0  0  0
 25 26  1  0  0  0
M  END
> <minimizedAffinity>
-7.15055

$$$$
2WCA_NP6_A_900


 32 33  0  0  0  0  0  0  0  0999 V2000
   -4.0820  -11.6583    9.4874 C   0  0  0  0  0  0  0  0  0  0  0  0
   -4.0983  -10.6092   10.6134 C   0  0  0  0  0  0  0  0  0  0  0  0
   -2.8410   -9.9552   10.6680 O   0  0  0  0  0  0  0  0  0  0  0  0
   -5.2022   -9.5882   10.3890 C   0  0  0  0  0  0  0  0  0  0  0  0
   -5.2034   -8.6110   11.4394 O   0  0  0  0  0  0  0  0  0  0  0  0
   -6.5405  -10.3222   10.4326 C   0  0  0  0  0  0  0  0  0  0  0  0
   -6.6150  -11.2873    9.3925 O   0  0  0  0  0  0  0  0  0  0  0  0
   -5.4657  -11.7632    8.8105 C   0  0  0  0  0  0  0  0  0  0  0  0
   -5.5877  -12.3070    7.6000 N   0  0  0  0  0  0  0  0  0  0  0  0
   -2.6737   -9.5053    9.8252 H   0  0  0  0  0  0  0  0  0  0  0  0
   -5.3452   -9.0525   12.2915 H   0  0  0  0  0  0  0  0  0  0  0  0
   -2.2982  -13.2759   10.2462 C   0  0  0  0  0  0  0  0  0  0  0  0
   -1.3526  -12.4913   10.1222 O   0  0  0  0  0  0  0  0  0  0  0  0
   -3.5763  -12.9759    9.9778 N   0  0  0  0  0  0  0  0  0  0  0  0
   -4.2420  -13.6878   10.1162 H   0  0  0  0  0  0  0  0  0  0  0  0
   -2.0612  -14.7264   10.7226 C   0  0  0  0  0  0  0  0  0  0  0  0
   -2.4009  -13.7986   13.0540 C   0  0  0  0  0  0  0  0  0  0  0  0
   -2.7309  -14.9178   12.0741 C   0  0  0  0  0  0  0  0  0  0  0  0
   -7.8128   -9.4476   10.3112 C   0  0  0  0  0  0  0  0  0  0  0  0
   -8.2460   -9.0029   11.5907 O   0  0  0  0  0  0  0  0  0  0  0  0
   -8.4570   -9.7702   12.1453 H   0  0  0  0  0  0  0  0  0  0  0  0
   -6.8260  -12.3408    7.0025 O   0  0  0  0  0  0  0  0  0  0  0  0
   -7.4843  -13.5506    7.1397 C   0  0  0  0  0  0  0  0  0  0  0  0
   -7.3650  -14.4159    6.2639 O   0  0  0  0  0  0  0  0  0  0  0  0
   -8.2249  -13.7301    8.2605 N   0  0  0  0  0  0  0  0  0  0  0  0
   -8.1681  -13.0008    8.9194 H   0  0  0  0  0  0  0  0  0  0  0  0
   -9.0325  -14.7613    8.6129 C   0  0  0  0  0  0  0  0  0  0  0  0
  -10.3778  -14.7001    8.2312 C   0  0  0  0  0  0  0  0  0  0  0  0
  -11.2718  -15.7330    8.5358 C   0  0  0  0  0  0  0  0  0  0  0  0
  -10.8203  -16.8615    9.2290 C   0  0  0  0  0  0  0  0  0  0  0  0
   -9.4758  -16.9467    9.5964 C   0  0  0  0  0  0  0  0  0  0  0  0
   -8.5887  -15.9058    9.2899 C   0  0  0  0  0  0  0  0  0  0  0  0
 17 18  1  0  0  0
 18 16  1  0  0  0
 16 12  1  0  0  0
 12 13  2  0  0  0
 12 14  1  0  0  0
 14  1  1  0  0  0
  1  2  1  0  0  0
  1  8  1  0  0  0
  2  3  1  0  0  0
  2  4  1  0  0  0
  4  5  1  0  0  0
  4  6  1  0  0  0
  6 19  1  0  0  0
  6  7  1  0  0  0
 19 20  1  0  0  0
  7  8  1  0  0  0
  8  9  2  0  0  0
  9 22  1  0  0  0
 22 23  1  0  0  0
 23 24  2  0  0  0
 23 25  1  0  0  0
 25 27  1  0  0  0
 27 28  1  0  0  0
 27 32  2  0  0  0
 28 29  2  0  0  0
 29 30  1  0  0  0
 30 31  2  0  0  0
 31 32  1  0  0  0
 14 15  1  0  0  0
  3 10  1  0  0  0
  5 11  1  0  0  0
 20 21  1  0  0  0
 25 26  1  0  0  0
M  END
> <minimizedAffinity>
-7.03044

$$$$
2WCA_NP6_A_900


 32 33  0  0  0  0  0  0  0  0999 V2000
   -3.3664  -10.4925    8.1078 C   0  0  0  0  0  0  0  0  0  0  0  0
   -2.0762  -10.4118    8.9431 C   0  0  0  0  0  0  0  0  0  0  0  0
   -1.1609   -9.5294    8.3145 O   0  0  0  0  0  0  0  0  0  0  0  0
   -2.3716   -9.9300   10.3545 C   0  0  0  0  0  0  0  0  0  0  0  0
   -1.1619   -9.8509   11.1216 O   0  0  0  0  0  0  0  0  0  0  0  0
   -3.2822  -10.9572   11.0233 C   0  0  0  0  0  0  0  0  0  0  0  0
   -4.5157  -11.0605   10.3258 O   0  0  0  0  0  0  0  0  0  0  0  0
   -4.6038  -10.6524    9.0174 C   0  0  0  0  0  0  0  0  0  0  0  0
   -5.8221  -10.3668    8.5594 N   0  0  0  0  0  0  0  0  0  0  0  0
   -1.5522   -8.6435    8.2589 H   0  0  0  0  0  0  0  0  0  0  0  0
   -0.7477  -10.7270   11.1634 H   0  0  0  0  0  0  0  0  0  0  0  0
   -3.2007  -12.8759    7.2919 C   0  0  0  0  0  0  0  0  0  0  0  0
   -3.1999  -13.3952    8.4124 O   0  0  0  0  0  0  0  0  0  0  0  0
   -3.2739  -11.5576    7.0641 N   0  0  0  0  0  0  0  0  0  0  0  0
   -3.2660  -11.2643    6.1244 H   0  0  0  0  0  0  0  0  0  0  0  0
   -3.0943  -13.7466    6.0200 C   0  0  0  0  0  0  0  0  0  0  0  0
   -4.5288  -15.5337    4.9428 C   0  0  0  0  0  0  0  0  0  0  0  0
   -3.8896  -15.0256    6.2293 C   0  0  0  0  0  0  0  0  0  0  0  0
   -3.6384  -10.7017   12.5087 C   0  0  0  0  0  0  0  0  0  0  0  0
   -5.0439  -10.7766   12.7128 O   0  0  0  0  0  0  0  0  0  0  0  0
   -5.4853  -10.1012   12.1743 H   0  0  0  0  0  0  0  0  0  0  0  0
   -6.8987  -10.4714    9.4088 O   0  0  0  0  0  0  0  0  0  0  0  0
   -8.0800  -10.8238    8.7794 C   0  0  0  0  0  0  0  0  0  0  0  0
   -9.1553  -10.6926    9.3765 O   0  0  0  0  0  0  0  0  0  0  0  0
   -7.9916  -11.2863    7.5084 N   0  0  0  0  0  0  0  0  0  0  0  0
   -7.0886  -11.2608    7.1171 H   0  0  0  0  0  0  0  0  0  0  0  0
   -8.9575  -11.7790    6.6934 C   0  0  0  0  0  0  0  0  0  0  0  0
   -9.6964  -10.8689    5.9286 C   0  0  0  0  0  0  0  0  0  0  0  0
  -10.6952  -11.2969    5.0464 C   0  0  0  0  0  0  0  0  0  0  0  0
  -10.9639  -12.6634    4.9106 C   0  0  0  0  0  0  0  0  0  0  0  0
  -10.2192  -13.5843    5.6504 C   0  0  0  0  0  0  0  0  0  0  0  0
   -9.2233  -13.1460    6.5337 C   0  0  0  0  0  0  0  0  0  0  0  0
 17 18  1  0  0  0
 18 16  1  0  0  0
 16 12  1  0  0  0
 12 13  2  0  0  0
 12 14  1  0  0  0
 14  1  1  0  0  0
  1  2  1  0  0  0
  1  8  1  0  0  0
  2  3  1  0  0  0
  2  4  1  0  0  0
  4  5  1  0  0  0
  4  6  1  0  0  0
  6 19  1  0  0  0
  6  7  1  0  0  0
 19 20  1  0  0  0
  7  8  1  0  0  0
  8  9  2  0  0  0
  9 22  1  0  0  0
 22 23  1  0  0  0
 23 24  2  0  0  0
 23 25  1  0  0  0
 25 27  1  0  0  0
 27 28  1  0  0  0
 27 32  2  0  0  0
 28 29  2  0  0  0
 29 30  1  0  0  0
 30 31  2  0  0  0
 31 32  1  0  0  0
 14 15  1  0  0  0
  3 10  1  0  0  0
  5 11  1  0  0  0
 20 21  1  0  0  0
 25 26  1  0  0  0
M  END
> <minimizedAffinity>
-6.96015

$$$$
