3T3C_017_A_201


 42 45  0  0  0  0  0  0  0  0999 V2000
   -1.0760   -4.1048  -22.3518 C   0  0  0  0  0  0  0  0  0  0  0  0
   -0.6200   -4.9711  -23.3880 O   0  0  0  0  0  0  0  0  0  0  0  0
   -0.5387   -5.8738  -23.0424 H   0  0  0  0  0  0  0  0  0  0  0  0
   -0.0260   -4.0707  -21.2227 C   0  0  0  0  0  0  0  0  0  0  0  0
   -0.1383   -2.7387  -20.5761 N   0  0  0  0  0  0  0  0  0  0  0  0
   -0.3264   -2.7646  -18.9371 S   0  0  0  0  0  0  0  0  0  0  0  0
   -1.7074   -2.9138  -18.6156 O   0  0  0  0  0  0  0  0  0  0  0  0
    0.2399   -1.5418  -18.4542 O   0  0  0  0  0  0  0  0  0  0  0  0
    2.4053   -7.3354  -16.6771 N   0  0  0  0  0  0  0  0  0  0  0  0
    1.7682   -6.2475  -17.1937 C   0  0  0  0  0  0  0  0  0  0  0  0
    0.3841   -6.2618  -17.3345 C   0  0  0  0  0  0  0  0  0  0  0  0
   -0.2773   -5.1592  -17.8791 C   0  0  0  0  0  0  0  0  0  0  0  0
    0.4483   -4.0400  -18.2881 C   0  0  0  0  0  0  0  0  0  0  0  0
    1.8420   -4.0296  -18.1205 C   0  0  0  0  0  0  0  0  0  0  0  0
    2.5096   -5.1338  -17.5961 C   0  0  0  0  0  0  0  0  0  0  0  0
    1.8851   -8.1215  -16.3929 H   0  0  0  0  0  0  0  0  0  0  0  0
    3.3857   -7.3355  -16.5881 H   0  0  0  0  0  0  0  0  0  0  0  0
    0.9163   -1.8144  -21.0307 C   0  0  0  0  0  0  0  0  0  0  0  0
    0.3693   -0.6783  -21.9060 C   0  0  0  0  0  0  0  0  0  0  0  0
    0.5382   -0.9696  -23.4000 C   0  0  0  0  0  0  0  0  0  0  0  0
   -1.1073   -0.5133  -21.5875 C   0  0  0  0  0  0  0  0  0  0  0  0
   -2.5258   -4.4422  -21.8804 C   0  0  0  0  0  0  0  0  0  0  0  0
   -3.4369   -3.7553  -22.8048 N   0  0  0  0  0  0  0  0  0  0  0  0
   -4.1651   -2.6962  -22.4469 C   0  0  0  0  0  0  0  0  0  0  0  0
   -4.1869   -2.1544  -21.3384 O   0  0  0  0  0  0  0  0  0  0  0  0
   -3.5135   -4.0903  -23.7273 H   0  0  0  0  0  0  0  0  0  0  0  0
   -4.9790   -2.1643  -23.5051 O   0  0  0  0  0  0  0  0  0  0  0  0
   -5.0867   -2.8531  -24.7547 C   0  0  0  0  0  0  0  0  0  0  0  0
   -6.5682   -3.1643  -24.8496 C   0  0  0  0  0  0  0  0  0  0  0  0
   -7.1340   -1.9019  -25.1614 O   0  0  0  0  0  0  0  0  0  0  0  0
   -6.2418   -1.2103  -26.0507 C   0  0  0  0  0  0  0  0  0  0  0  0
   -6.1145    0.1553  -25.6696 O   0  0  0  0  0  0  0  0  0  0  0  0
   -4.7928    0.4711  -25.2040 C   0  0  0  0  0  0  0  0  0  0  0  0
   -3.9116   -0.7111  -25.6044 C   0  0  0  0  0  0  0  0  0  0  0  0
   -4.8790   -1.8615  -25.8905 C   0  0  0  0  0  0  0  0  0  0  0  0
   -2.9362   -5.9253  -21.9110 C   0  0  0  0  0  0  0  0  0  0  0  0
   -2.3811   -7.5882  -20.0685 C   0  0  0  0  0  0  0  0  0  0  0  0
   -2.4970   -8.0875  -18.7614 C   0  0  0  0  0  0  0  0  0  0  0  0
   -3.3221   -7.4491  -17.8364 C   0  0  0  0  0  0  0  0  0  0  0  0
   -4.0188   -6.2993  -18.2208 C   0  0  0  0  0  0  0  0  0  0  0  0
   -3.8983   -5.7898  -19.5290 C   0  0  0  0  0  0  0  0  0  0  0  0
   -3.0719   -6.4392  -20.4649 C   0  0  0  0  0  0  0  0  0  0  0  0
  9 10  1  0  0  0
 10 11  2  0  0  0
 10 15  1  0  0  0
 11 12  1  0  0  0
 12 13  2  0  0  0
 13 14  1  0  0  0
 13  6  1  0  0  0
 14 15  2  0  0  0
  6  7  2  0  0  0
  6  8  2  0  0  0
  6  5  1  0  0  0
  5 18  1  0  0  0
  5  4  1  0  0  0
 18 19  1  0  0  0
 19 20  1  0  0  0
 19 21  1  0  0  0
  4  1  1  0  0  0
  1  2  1  0  0  0
  1 22  1  0  0  0
 22 23  1  0  0  0
 22 36  1  0  0  0
 23 24  1  0  0  0
 24 25  2  0  0  0
 24 27  1  0  0  0
 27 28  1  0  0  0
 28 29  1  0  0  0
 28 35  1  0  0  0
 29 30  1  0  0  0
 30 31  1  0  0  0
 31 32  1  0  0  0
 31 35  1  0  0  0
 32 33  1  0  0  0
 33 34  1  0  0  0
 34 35  1  0  0  0
 36 42  1  0  0  0
 37 38  2  0  0  0
 37 42  1  0  0  0
 38 39  1  0  0  0
 39 40  2  0  0  0
 40 41  1  0  0  0
 41 42  2  0  0  0
  9 16  1  0  0  0
  9 17  1  0  0  0
  2  3  1  0  0  0
 23 26  1  0  0  0
M  END
> <minimizedAffinity>
-9.40485

$$$$
3T3C_017_A_201


 42 45  0  0  0  0  0  0  0  0999 V2000
   -2.8102   -2.5352  -20.1254 C   0  0  0  0  0  0  0  0  0  0  0  0
   -3.7443   -1.7113  -19.4319 O   0  0  0  0  0  0  0  0  0  0  0  0
   -3.3088   -0.8892  -19.1573 H   0  0  0  0  0  0  0  0  0  0  0  0
   -1.6662   -2.9208  -19.1656 C   0  0  0  0  0  0  0  0  0  0  0  0
   -1.0914   -4.1911  -19.6761 N   0  0  0  0  0  0  0  0  0  0  0  0
    0.5251   -4.1514  -20.0046 S   0  0  0  0  0  0  0  0  0  0  0  0
    0.8508   -2.9278  -20.6601 O   0  0  0  0  0  0  0  0  0  0  0  0
    0.7963   -5.3107  -20.7992 O   0  0  0  0  0  0  0  0  0  0  0  0
    3.5668   -4.2721  -15.0858 N   0  0  0  0  0  0  0  0  0  0  0  0
    2.8659   -4.2528  -16.2539 C   0  0  0  0  0  0  0  0  0  0  0  0
    2.5124   -3.0346  -16.8255 C   0  0  0  0  0  0  0  0  0  0  0  0
    1.7789   -3.0032  -18.0132 C   0  0  0  0  0  0  0  0  0  0  0  0
    1.3939   -4.1943  -18.6293 C   0  0  0  0  0  0  0  0  0  0  0  0
    1.7756   -5.4165  -18.0540 C   0  0  0  0  0  0  0  0  0  0  0  0
    2.4904   -5.4546  -16.8592 C   0  0  0  0  0  0  0  0  0  0  0  0
    3.8326   -3.4266  -14.6572 H   0  0  0  0  0  0  0  0  0  0  0  0
    3.8075   -5.1316  -14.6703 H   0  0  0  0  0  0  0  0  0  0  0  0
   -1.4948   -5.3477  -18.8559 C   0  0  0  0  0  0  0  0  0  0  0  0
   -2.7256   -6.0713  -19.4195 C   0  0  0  0  0  0  0  0  0  0  0  0
   -2.5143   -6.5257  -20.8667 C   0  0  0  0  0  0  0  0  0  0  0  0
   -2.9960   -7.2835  -18.5440 C   0  0  0  0  0  0  0  0  0  0  0  0
   -2.3410   -1.9072  -21.4758 C   0  0  0  0  0  0  0  0  0  0  0  0
   -3.5429   -1.7523  -22.3052 N   0  0  0  0  0  0  0  0  0  0  0  0
   -3.8952   -2.6385  -23.2382 C   0  0  0  0  0  0  0  0  0  0  0  0
   -3.2966   -3.6755  -23.5364 O   0  0  0  0  0  0  0  0  0  0  0  0
   -4.1126   -0.9614  -22.1669 H   0  0  0  0  0  0  0  0  0  0  0  0
   -5.1129   -2.3073  -23.9260 O   0  0  0  0  0  0  0  0  0  0  0  0
   -5.3768   -2.8342  -25.2299 C   0  0  0  0  0  0  0  0  0  0  0  0
   -6.8850   -2.9957  -25.2370 C   0  0  0  0  0  0  0  0  0  0  0  0
   -7.3425   -1.6594  -25.3630 O   0  0  0  0  0  0  0  0  0  0  0  0
   -6.4508   -0.9540  -26.2418 C   0  0  0  0  0  0  0  0  0  0  0  0
   -6.1611    0.3411  -25.7267 O   0  0  0  0  0  0  0  0  0  0  0  0
   -4.7848    0.4789  -25.3388 C   0  0  0  0  0  0  0  0  0  0  0  0
   -4.0567   -0.7246  -25.9353 C   0  0  0  0  0  0  0  0  0  0  0  0
   -5.1519   -1.7411  -26.2646 C   0  0  0  0  0  0  0  0  0  0  0  0
   -1.6981   -0.5106  -21.4035 C   0  0  0  0  0  0  0  0  0  0  0  0
   -0.2973   -0.8822  -23.4935 C   0  0  0  0  0  0  0  0  0  0  0  0
    0.1549   -0.5227  -24.7732 C   0  0  0  0  0  0  0  0  0  0  0  0
   -0.3142    0.6402  -25.3827 C   0  0  0  0  0  0  0  0  0  0  0  0
   -1.2501    1.4338  -24.7123 C   0  0  0  0  0  0  0  0  0  0  0  0
   -1.7133    1.0718  -23.4317 C   0  0  0  0  0  0  0  0  0  0  0  0
   -1.2333   -0.0976  -22.8132 C   0  0  0  0  0  0  0  0  0  0  0  0
  9 10  1  0  0  0
 10 11  2  0  0  0
 10 15  1  0  0  0
 11 12  1  0  0  0
 12 13  2  0  0  0
 13 14  1  0  0  0
 13  6  1  0  0  0
 14 15  2  0  0  0
  6  7  2  0  0  0
  6  8  2  0  0  0
  6  5  1  0  0  0
  5 18  1  0  0  0
  5  4  1  0  0  0
 18 19  1  0  0  0
 19 20  1  0  0  0
 19 21  1  0  0  0
  4  1  1  0  0  0
  1  2  1  0  0  0
  1 22  1  0  0  0
 22 23  1  0  0  0
 22 36  1  0  0  0
 23 24  1  0  0  0
 24 25  2  0  0  0
 24 27  1  0  0  0
 27 28  1  0  0  0
 28 29  1  0  0  0
 28 35  1  0  0  0
 29 30  1  0  0  0
 30 31  1  0  0  0
 31 32  1  0  0  0
 31 35  1  0  0  0
 32 33  1  0  0  0
 33 34  1  0  0  0
 34 35  1  0  0  0
 36 42  1  0  0  0
 37 38  2  0  0  0
 37 42  1  0  0  0
 38 39  1  0  0  0
 39 40  2  0  0  0
 40 41  1  0  0  0
 41 42  2  0  0  0
  9 16  1  0  0  0
  9 17  1  0  0  0
  2  3  1  0  0  0
 23 26  1  0  0  0
M  END
> <minimizedAffinity>
-9.38390

$$$$
3T3C_017_A_201


 42 45  0  0  0  0  0  0  0  0999 V2000
   -3.0690   -2.3746  -20.2429 C   0  0  0  0  0  0  0  0  0  0  0  0
   -3.9578   -1.4882  -19.5672 O   0  0  0  0  0  0  0  0  0  0  0  0
   -3.4727   -0.6971  -19.2848 H   0  0  0  0  0  0  0  0  0  0  0  0
   -1.9716   -2.8352  -19.2620 C   0  0  0  0  0  0  0  0  0  0  0  0
   -1.6415   -4.2380  -19.6198 N   0  0  0  0  0  0  0  0  0  0  0  0
   -0.0677   -4.6737  -19.3839 S   0  0  0  0  0  0  0  0  0  0  0  0
    0.3606   -5.5178  -20.4502 O   0  0  0  0  0  0  0  0  0  0  0  0
   -0.0208   -5.3099  -18.1024 O   0  0  0  0  0  0  0  0  0  0  0  0
    3.4271   -0.0646  -19.4457 N   0  0  0  0  0  0  0  0  0  0  0  0
    2.5879   -1.1378  -19.4291 C   0  0  0  0  0  0  0  0  0  0  0  0
    2.6875   -2.0747  -18.4054 C   0  0  0  0  0  0  0  0  0  0  0  0
    1.8443   -3.1876  -18.3882 C   0  0  0  0  0  0  0  0  0  0  0  0
    0.9011   -3.3664  -19.4004 C   0  0  0  0  0  0  0  0  0  0  0  0
    0.7961   -2.4026  -20.4156 C   0  0  0  0  0  0  0  0  0  0  0  0
    1.6472   -1.3005  -20.4491 C   0  0  0  0  0  0  0  0  0  0  0  0
    4.0909    0.0524  -18.7281 H   0  0  0  0  0  0  0  0  0  0  0  0
    3.3697    0.5939  -20.1753 H   0  0  0  0  0  0  0  0  0  0  0  0
   -2.6067   -5.1945  -19.0482 C   0  0  0  0  0  0  0  0  0  0  0  0
   -2.9223   -6.3560  -20.0008 C   0  0  0  0  0  0  0  0  0  0  0  0
   -3.5575   -7.5432  -19.2712 C   0  0  0  0  0  0  0  0  0  0  0  0
   -3.8824   -5.8425  -21.0609 C   0  0  0  0  0  0  0  0  0  0  0  0
   -2.5336   -1.7821  -21.5847 C   0  0  0  0  0  0  0  0  0  0  0  0
   -3.6982   -1.6184  -22.4640 N   0  0  0  0  0  0  0  0  0  0  0  0
   -4.0507   -2.5298  -23.3724 C   0  0  0  0  0  0  0  0  0  0  0  0
   -3.4820   -3.5999  -23.6052 O   0  0  0  0  0  0  0  0  0  0  0  0
   -4.2417   -0.8019  -22.3798 H   0  0  0  0  0  0  0  0  0  0  0  0
   -5.2293   -2.1836  -24.1182 O   0  0  0  0  0  0  0  0  0  0  0  0
   -5.4191   -2.6784  -25.4473 C   0  0  0  0  0  0  0  0  0  0  0  0
   -6.9260   -2.8177  -25.5507 C   0  0  0  0  0  0  0  0  0  0  0  0
   -7.3570   -1.4724  -25.6748 O   0  0  0  0  0  0  0  0  0  0  0  0
   -6.4034   -0.7613  -26.4811 C   0  0  0  0  0  0  0  0  0  0  0  0
   -6.1290    0.5180  -25.9203 O   0  0  0  0  0  0  0  0  0  0  0  0
   -4.7776    0.6272  -25.4456 C   0  0  0  0  0  0  0  0  0  0  0  0
   -4.0300   -0.5736  -26.0229 C   0  0  0  0  0  0  0  0  0  0  0  0
   -5.1162   -1.5667  -26.4416 C   0  0  0  0  0  0  0  0  0  0  0  0
   -1.8646   -0.3978  -21.5121 C   0  0  0  0  0  0  0  0  0  0  0  0
   -0.4068   -0.8630  -23.5436 C   0  0  0  0  0  0  0  0  0  0  0  0
    0.1101   -0.5416  -24.8089 C   0  0  0  0  0  0  0  0  0  0  0  0
   -0.2780    0.6354  -25.4477 C   0  0  0  0  0  0  0  0  0  0  0  0
   -1.1979    1.4819  -24.8214 C   0  0  0  0  0  0  0  0  0  0  0  0
   -1.7259    1.1586  -23.5557 C   0  0  0  0  0  0  0  0  0  0  0  0
   -1.3277   -0.0253  -22.9073 C   0  0  0  0  0  0  0  0  0  0  0  0
  9 10  1  0  0  0
 10 11  2  0  0  0
 10 15  1  0  0  0
 11 12  1  0  0  0
 12 13  2  0  0  0
 13 14  1  0  0  0
 13  6  1  0  0  0
 14 15  2  0  0  0
  6  7  2  0  0  0
  6  8  2  0  0  0
  6  5  1  0  0  0
  5 18  1  0  0  0
  5  4  1  0  0  0
 18 19  1  0  0  0
 19 20  1  0  0  0
 19 21  1  0  0  0
  4  1  1  0  0  0
  1  2  1  0  0  0
  1 22  1  0  0  0
 22 23  1  0  0  0
 22 36  1  0  0  0
 23 24  1  0  0  0
 24 25  2  0  0  0
 24 27  1  0  0  0
 27 28  1  0  0  0
 28 29  1  0  0  0
 28 35  1  0  0  0
 29 30  1  0  0  0
 30 31  1  0  0  0
 31 32  1  0  0  0
 31 35  1  0  0  0
 32 33  1  0  0  0
 33 34  1  0  0  0
 34 35  1  0  0  0
 36 42  1  0  0  0
 37 38  2  0  0  0
 37 42  1  0  0  0
 38 39  1  0  0  0
 39 40  2  0  0  0
 40 41  1  0  0  0
 41 42  2  0  0  0
  9 16  1  0  0  0
  9 17  1  0  0  0
  2  3  1  0  0  0
 23 26  1  0  0  0
M  END
> <minimizedAffinity>
-8.97205

$$$$
3T3C_017_A_201


 42 45  0  0  0  0  0  0  0  0999 V2000
   -2.5668   -2.6149  -20.3046 C   0  0  0  0  0  0  0  0  0  0  0  0
   -3.2198   -2.3115  -19.0743 O   0  0  0  0  0  0  0  0  0  0  0  0
   -4.0509   -1.8455  -19.2557 H   0  0  0  0  0  0  0  0  0  0  0  0
   -2.2072   -1.2990  -21.0241 C   0  0  0  0  0  0  0  0  0  0  0  0
   -0.8341   -1.4692  -21.5629 N   0  0  0  0  0  0  0  0  0  0  0  0
   -0.7017   -1.3557  -23.2037 S   0  0  0  0  0  0  0  0  0  0  0  0
   -1.6392   -2.2342  -23.8218 O   0  0  0  0  0  0  0  0  0  0  0  0
    0.6600   -1.6695  -23.5137 O   0  0  0  0  0  0  0  0  0  0  0  0
   -2.0127    3.9672  -25.0502 N   0  0  0  0  0  0  0  0  0  0  0  0
   -1.6945    2.7216  -24.5991 C   0  0  0  0  0  0  0  0  0  0  0  0
   -0.8676    1.9029  -25.3618 C   0  0  0  0  0  0  0  0  0  0  0  0
   -0.5493    0.6180  -24.9175 C   0  0  0  0  0  0  0  0  0  0  0  0
   -1.0630    0.1486  -23.7083 C   0  0  0  0  0  0  0  0  0  0  0  0
   -1.8783    0.9925  -22.9378 C   0  0  0  0  0  0  0  0  0  0  0  0
   -2.2153    2.2679  -23.3847 C   0  0  0  0  0  0  0  0  0  0  0  0
   -1.6470    4.2893  -25.9056 H   0  0  0  0  0  0  0  0  0  0  0  0
   -2.6083    4.5452  -24.5206 H   0  0  0  0  0  0  0  0  0  0  0  0
    0.1492   -0.6449  -20.8370 C   0  0  0  0  0  0  0  0  0  0  0  0
    1.2058   -1.4884  -20.1102 C   0  0  0  0  0  0  0  0  0  0  0  0
    2.4971   -0.7039  -19.8600 C   0  0  0  0  0  0  0  0  0  0  0  0
    0.6172   -1.9293  -18.7804 C   0  0  0  0  0  0  0  0  0  0  0  0
   -3.3683   -3.6332  -21.1757 C   0  0  0  0  0  0  0  0  0  0  0  0
   -3.9175   -2.8749  -22.3069 N   0  0  0  0  0  0  0  0  0  0  0  0
   -5.0266   -3.2418  -22.9515 C   0  0  0  0  0  0  0  0  0  0  0  0
   -5.7299   -4.2267  -22.7108 O   0  0  0  0  0  0  0  0  0  0  0  0
   -3.4476   -2.0617  -22.6021 H   0  0  0  0  0  0  0  0  0  0  0  0
   -5.4012   -2.3543  -24.0179 O   0  0  0  0  0  0  0  0  0  0  0  0
   -5.6304   -2.8597  -25.3368 C   0  0  0  0  0  0  0  0  0  0  0  0
   -7.1420   -2.8300  -25.4589 C   0  0  0  0  0  0  0  0  0  0  0  0
   -7.4157   -1.4483  -25.6232 O   0  0  0  0  0  0  0  0  0  0  0  0
   -6.3779   -0.8718  -26.4330 C   0  0  0  0  0  0  0  0  0  0  0  0
   -5.9664    0.3827  -25.9007 O   0  0  0  0  0  0  0  0  0  0  0  0
   -4.6171    0.3507  -25.4089 C   0  0  0  0  0  0  0  0  0  0  0  0
   -4.0042   -0.9422  -25.9447 C   0  0  0  0  0  0  0  0  0  0  0  0
   -5.1912   -1.8166  -26.3542 C   0  0  0  0  0  0  0  0  0  0  0  0
   -2.5690   -4.7930  -21.7962 C   0  0  0  0  0  0  0  0  0  0  0  0
   -3.8619   -6.8402  -21.0176 C   0  0  0  0  0  0  0  0  0  0  0  0
   -4.0330   -7.9751  -20.2090 C   0  0  0  0  0  0  0  0  0  0  0  0
   -3.0670   -8.3156  -19.2631 C   0  0  0  0  0  0  0  0  0  0  0  0
   -1.9210   -7.5239  -19.1407 C   0  0  0  0  0  0  0  0  0  0  0  0
   -1.7411   -6.3892  -19.9565 C   0  0  0  0  0  0  0  0  0  0  0  0
   -2.7203   -6.0410  -20.9054 C   0  0  0  0  0  0  0  0  0  0  0  0
  9 10  1  0  0  0
 10 11  2  0  0  0
 10 15  1  0  0  0
 11 12  1  0  0  0
 12 13  2  0  0  0
 13 14  1  0  0  0
 13  6  1  0  0  0
 14 15  2  0  0  0
  6  7  2  0  0  0
  6  8  2  0  0  0
  6  5  1  0  0  0
  5 18  1  0  0  0
  5  4  1  0  0  0
 18 19  1  0  0  0
 19 20  1  0  0  0
 19 21  1  0  0  0
  4  1  1  0  0  0
  1  2  1  0  0  0
  1 22  1  0  0  0
 22 23  1  0  0  0
 22 36  1  0  0  0
 23 24  1  0  0  0
 24 25  2  0  0  0
 24 27  1  0  0  0
 27 28  1  0  0  0
 28 29  1  0  0  0
 28 35  1  0  0  0
 29 30  1  0  0  0
 30 31  1  0  0  0
 31 32  1  0  0  0
 31 35  1  0  0  0
 32 33  1  0  0  0
 33 34  1  0  0  0
 34 35  1  0  0  0
 36 42  1  0  0  0
 37 38  2  0  0  0
 37 42  1  0  0  0
 38 39  1  0  0  0
 39 40  2  0  0  0
 40 41  1  0  0  0
 41 42  2  0  0  0
  9 16  1  0  0  0
  9 17  1  0  0  0
  2  3  1  0  0  0
 23 26  1  0  0  0
M  END
> <minimizedAffinity>
-8.95636

$$$$
3T3C_017_A_201


 42 45  0  0  0  0  0  0  0  0999 V2000
   -3.2812   -2.3039  -21.8904 C   0  0  0  0  0  0  0  0  0  0  0  0
   -4.1913   -1.7486  -20.9441 O   0  0  0  0  0  0  0  0  0  0  0  0
   -4.9701   -1.4039  -21.4083 H   0  0  0  0  0  0  0  0  0  0  0  0
   -2.7942   -1.1889  -22.8380 C   0  0  0  0  0  0  0  0  0  0  0  0
   -1.5784   -0.6036  -22.2182 N   0  0  0  0  0  0  0  0  0  0  0  0
   -0.1920   -1.4733  -22.4280 S   0  0  0  0  0  0  0  0  0  0  0  0
    0.8611   -0.6043  -22.8385 O   0  0  0  0  0  0  0  0  0  0  0  0
   -0.5014   -2.4851  -23.3923 O   0  0  0  0  0  0  0  0  0  0  0  0
    1.5295   -3.9230  -17.4786 N   0  0  0  0  0  0  0  0  0  0  0  0
    1.1082   -3.3378  -18.6346 C   0  0  0  0  0  0  0  0  0  0  0  0
    0.7302   -4.1331  -19.7117 C   0  0  0  0  0  0  0  0  0  0  0  0
    0.3136   -3.5438  -20.9071 C   0  0  0  0  0  0  0  0  0  0  0  0
    0.2788   -2.1543  -21.0271 C   0  0  0  0  0  0  0  0  0  0  0  0
    0.6419   -1.3632  -19.9258 C   0  0  0  0  0  0  0  0  0  0  0  0
    1.0769   -1.9448  -18.7373 C   0  0  0  0  0  0  0  0  0  0  0  0
    1.5525   -4.9044  -17.4037 H   0  0  0  0  0  0  0  0  0  0  0  0
    1.8110   -3.3645  -16.7183 H   0  0  0  0  0  0  0  0  0  0  0  0
   -1.4280    0.8266  -22.5428 C   0  0  0  0  0  0  0  0  0  0  0  0
   -2.1110    1.2078  -23.8636 C   0  0  0  0  0  0  0  0  0  0  0  0
   -2.7649    2.5910  -23.7958 C   0  0  0  0  0  0  0  0  0  0  0  0
   -1.0533    1.2021  -24.9546 C   0  0  0  0  0  0  0  0  0  0  0  0
   -3.8575   -3.5633  -22.6116 C   0  0  0  0  0  0  0  0  0  0  0  0
   -3.6767   -4.6924  -21.6903 N   0  0  0  0  0  0  0  0  0  0  0  0
   -2.6614   -5.5520  -21.7925 C   0  0  0  0  0  0  0  0  0  0  0  0
   -1.7599   -5.5346  -22.6350 O   0  0  0  0  0  0  0  0  0  0  0  0
   -4.3321   -4.8205  -20.9670 H   0  0  0  0  0  0  0  0  0  0  0  0
   -2.6601   -6.5747  -20.7829 O   0  0  0  0  0  0  0  0  0  0  0  0
   -3.7656   -6.7097  -19.8844 C   0  0  0  0  0  0  0  0  0  0  0  0
   -4.2445   -8.1263  -20.1385 C   0  0  0  0  0  0  0  0  0  0  0  0
   -3.2511   -8.9118  -19.5005 O   0  0  0  0  0  0  0  0  0  0  0  0
   -2.8429   -8.2402  -18.2974 C   0  0  0  0  0  0  0  0  0  0  0  0
   -1.4272   -8.2857  -18.1546 O   0  0  0  0  0  0  0  0  0  0  0  0
   -0.8253   -6.9862  -18.2667 C   0  0  0  0  0  0  0  0  0  0  0  0
   -1.9719   -5.9812  -18.1690 C   0  0  0  0  0  0  0  0  0  0  0  0
   -3.2425   -6.7835  -18.4572 C   0  0  0  0  0  0  0  0  0  0  0  0
   -5.3575   -3.5382  -22.9555 C   0  0  0  0  0  0  0  0  0  0  0  0
   -6.7854   -2.7827  -24.9200 C   0  0  0  0  0  0  0  0  0  0  0  0
   -6.9721   -2.4425  -26.2693 C   0  0  0  0  0  0  0  0  0  0  0  0
   -5.9001   -2.4872  -27.1596 C   0  0  0  0  0  0  0  0  0  0  0  0
   -4.6365   -2.8589  -26.6903 C   0  0  0  0  0  0  0  0  0  0  0  0
   -4.4429   -3.1923  -25.3350 C   0  0  0  0  0  0  0  0  0  0  0  0
   -5.5269   -3.1553  -24.4383 C   0  0  0  0  0  0  0  0  0  0  0  0
  9 10  1  0  0  0
 10 11  2  0  0  0
 10 15  1  0  0  0
 11 12  1  0  0  0
 12 13  2  0  0  0
 13 14  1  0  0  0
 13  6  1  0  0  0
 14 15  2  0  0  0
  6  7  2  0  0  0
  6  8  2  0  0  0
  6  5  1  0  0  0
  5 18  1  0  0  0
  5  4  1  0  0  0
 18 19  1  0  0  0
 19 20  1  0  0  0
 19 21  1  0  0  0
  4  1  1  0  0  0
  1  2  1  0  0  0
  1 22  1  0  0  0
 22 23  1  0  0  0
 22 36  1  0  0  0
 23 24  1  0  0  0
 24 25  2  0  0  0
 24 27  1  0  0  0
 27 28  1  0  0  0
 28 29  1  0  0  0
 28 35  1  0  0  0
 29 30  1  0  0  0
 30 31  1  0  0  0
 31 32  1  0  0  0
 31 35  1  0  0  0
 32 33  1  0  0  0
 33 34  1  0  0  0
 34 35  1  0  0  0
 36 42  1  0  0  0
 37 38  2  0  0  0
 37 42  1  0  0  0
 38 39  1  0  0  0
 39 40  2  0  0  0
 40 41  1  0  0  0
 41 42  2  0  0  0
  9 16  1  0  0  0
  9 17  1  0  0  0
  2  3  1  0  0  0
 23 26  1  0  0  0
M  END
> <minimizedAffinity>
-8.70030

$$$$
3T3C_017_A_201


 42 45  0  0  0  0  0  0  0  0999 V2000
    0.7063   -2.7015  -19.5864 C   0  0  0  0  0  0  0  0  0  0  0  0
   -0.2662   -1.7840  -19.0916 O   0  0  0  0  0  0  0  0  0  0  0  0
   -1.1499   -2.1759  -19.1703 H   0  0  0  0  0  0  0  0  0  0  0  0
    0.4478   -2.9525  -21.0859 C   0  0  0  0  0  0  0  0  0  0  0  0
   -0.6365   -2.0233  -21.4929 N   0  0  0  0  0  0  0  0  0  0  0  0
   -0.1357   -0.5358  -22.0019 S   0  0  0  0  0  0  0  0  0  0  0  0
    1.2853   -0.5224  -22.1174 O   0  0  0  0  0  0  0  0  0  0  0  0
   -0.6360    0.4004  -21.0416 O   0  0  0  0  0  0  0  0  0  0  0  0
   -2.2517    0.7153  -27.2382 N   0  0  0  0  0  0  0  0  0  0  0  0
   -1.7546    0.4007  -26.0093 C   0  0  0  0  0  0  0  0  0  0  0  0
   -2.4650    0.7560  -24.8670 C   0  0  0  0  0  0  0  0  0  0  0  0
   -1.9564    0.4543  -23.6021 C   0  0  0  0  0  0  0  0  0  0  0  0
   -0.7312   -0.2014  -23.4789 C   0  0  0  0  0  0  0  0  0  0  0  0
   -0.0348   -0.5738  -24.6395 C   0  0  0  0  0  0  0  0  0  0  0  0
   -0.5273   -0.2584  -25.9036 C   0  0  0  0  0  0  0  0  0  0  0  0
   -3.1163    1.1797  -27.3154 H   0  0  0  0  0  0  0  0  0  0  0  0
   -1.7462    0.4781  -28.0491 H   0  0  0  0  0  0  0  0  0  0  0  0
   -1.5966   -2.6642  -22.4099 C   0  0  0  0  0  0  0  0  0  0  0  0
   -2.9875   -2.8356  -21.7838 C   0  0  0  0  0  0  0  0  0  0  0  0
   -3.2554   -1.8041  -20.6840 C   0  0  0  0  0  0  0  0  0  0  0  0
   -4.0193   -2.6760  -22.8879 C   0  0  0  0  0  0  0  0  0  0  0  0
    0.8077   -3.9960  -18.7192 C   0  0  0  0  0  0  0  0  0  0  0  0
   -0.1402   -4.9595  -19.2933 N   0  0  0  0  0  0  0  0  0  0  0  0
   -1.4580   -4.8780  -19.1009 C   0  0  0  0  0  0  0  0  0  0  0  0
   -2.0576   -4.0233  -18.4432 O   0  0  0  0  0  0  0  0  0  0  0  0
    0.2114   -5.6965  -19.8432 H   0  0  0  0  0  0  0  0  0  0  0  0
   -2.2082   -5.9098  -19.7625 O   0  0  0  0  0  0  0  0  0  0  0  0
   -3.6384   -5.8689  -19.7820 C   0  0  0  0  0  0  0  0  0  0  0  0
   -3.9755   -6.2925  -21.1990 C   0  0  0  0  0  0  0  0  0  0  0  0
   -3.7228   -7.6877  -21.1772 O   0  0  0  0  0  0  0  0  0  0  0  0
   -4.1318   -8.2045  -19.9002 C   0  0  0  0  0  0  0  0  0  0  0  0
   -3.1646   -9.1204  -19.3979 O   0  0  0  0  0  0  0  0  0  0  0  0
   -2.5083   -8.6288  -18.2185 C   0  0  0  0  0  0  0  0  0  0  0  0
   -3.3334   -7.4333  -17.7448 C   0  0  0  0  0  0  0  0  0  0  0  0
   -4.1819   -7.0211  -18.9494 C   0  0  0  0  0  0  0  0  0  0  0  0
    2.1710   -4.7101  -18.6979 C   0  0  0  0  0  0  0  0  0  0  0  0
    2.2549   -6.4383  -16.8339 C   0  0  0  0  0  0  0  0  0  0  0  0
    2.5299   -6.8419  -15.5175 C   0  0  0  0  0  0  0  0  0  0  0  0
    3.0382   -5.9287  -14.5947 C   0  0  0  0  0  0  0  0  0  0  0  0
    3.2850   -4.6133  -14.9994 C   0  0  0  0  0  0  0  0  0  0  0  0
    3.0189   -4.2064  -16.3220 C   0  0  0  0  0  0  0  0  0  0  0  0
    2.4979   -5.1262  -17.2510 C   0  0  0  0  0  0  0  0  0  0  0  0
  9 10  1  0  0  0
 10 11  2  0  0  0
 10 15  1  0  0  0
 11 12  1  0  0  0
 12 13  2  0  0  0
 13 14  1  0  0  0
 13  6  1  0  0  0
 14 15  2  0  0  0
  6  7  2  0  0  0
  6  8  2  0  0  0
  6  5  1  0  0  0
  5 18  1  0  0  0
  5  4  1  0  0  0
 18 19  1  0  0  0
 19 20  1  0  0  0
 19 21  1  0  0  0
  4  1  1  0  0  0
  1  2  1  0  0  0
  1 22  1  0  0  0
 22 23  1  0  0  0
 22 36  1  0  0  0
 23 24  1  0  0  0
 24 25  2  0  0  0
 24 27  1  0  0  0
 27 28  1  0  0  0
 28 29  1  0  0  0
 28 35  1  0  0  0
 29 30  1  0  0  0
 30 31  1  0  0  0
 31 32  1  0  0  0
 31 35  1  0  0  0
 32 33  1  0  0  0
 33 34  1  0  0  0
 34 35  1  0  0  0
 36 42  1  0  0  0
 37 38  2  0  0  0
 37 42  1  0  0  0
 38 39  1  0  0  0
 39 40  2  0  0  0
 40 41  1  0  0  0
 41 42  2  0  0  0
  9 16  1  0  0  0
  9 17  1  0  0  0
  2  3  1  0  0  0
 23 26  1  0  0  0
M  END
> <minimizedAffinity>
-8.49101

$$$$
3T3C_017_A_201


 42 45  0  0  0  0  0  0  0  0999 V2000
   -3.1676   -4.1626  -20.5140 C   0  0  0  0  0  0  0  0  0  0  0  0
   -3.2485   -3.7503  -19.1517 O   0  0  0  0  0  0  0  0  0  0  0  0
   -2.3574   -3.5637  -18.8170 H   0  0  0  0  0  0  0  0  0  0  0  0
   -2.3619   -5.4750  -20.5980 C   0  0  0  0  0  0  0  0  0  0  0  0
   -2.1578   -5.9399  -19.2027 N   0  0  0  0  0  0  0  0  0  0  0  0
   -3.1133   -7.2005  -18.7330 S   0  0  0  0  0  0  0  0  0  0  0  0
   -3.3432   -8.0665  -19.8421 O   0  0  0  0  0  0  0  0  0  0  0  0
   -4.3114   -6.6163  -18.2112 O   0  0  0  0  0  0  0  0  0  0  0  0
   -0.4274  -10.3404  -14.6847 N   0  0  0  0  0  0  0  0  0  0  0  0
   -1.0780   -9.6076  -15.6313 C   0  0  0  0  0  0  0  0  0  0  0  0
   -0.8715   -9.8841  -16.9792 C   0  0  0  0  0  0  0  0  0  0  0  0
   -1.5194   -9.1279  -17.9579 C   0  0  0  0  0  0  0  0  0  0  0  0
   -2.3737   -8.0889  -17.5877 C   0  0  0  0  0  0  0  0  0  0  0  0
   -2.5904   -7.8343  -16.2243 C   0  0  0  0  0  0  0  0  0  0  0  0
   -1.9320   -8.5722  -15.2435 C   0  0  0  0  0  0  0  0  0  0  0  0
    0.1750  -11.0705  -14.9554 H   0  0  0  0  0  0  0  0  0  0  0  0
   -0.5597  -10.1397  -13.7300 H   0  0  0  0  0  0  0  0  0  0  0  0
   -0.7307   -6.1381  -18.8907 C   0  0  0  0  0  0  0  0  0  0  0  0
   -0.1667   -5.0385  -17.9802 C   0  0  0  0  0  0  0  0  0  0  0  0
    0.4986   -5.6137  -16.7264 C   0  0  0  0  0  0  0  0  0  0  0  0
    0.8580   -4.2508  -18.7794 C   0  0  0  0  0  0  0  0  0  0  0  0
   -2.6588   -3.0268  -21.4569 C   0  0  0  0  0  0  0  0  0  0  0  0
   -3.8101   -2.6081  -22.2667 N   0  0  0  0  0  0  0  0  0  0  0  0
   -3.9751   -2.9847  -23.5359 C   0  0  0  0  0  0  0  0  0  0  0  0
   -3.2239   -3.7076  -24.1962 O   0  0  0  0  0  0  0  0  0  0  0  0
   -4.4886   -2.0250  -21.8557 H   0  0  0  0  0  0  0  0  0  0  0  0
   -5.1753   -2.4780  -24.1426 O   0  0  0  0  0  0  0  0  0  0  0  0
   -5.4772   -2.7710  -25.5103 C   0  0  0  0  0  0  0  0  0  0  0  0
   -6.9939   -2.7794  -25.5337 C   0  0  0  0  0  0  0  0  0  0  0  0
   -7.3160   -1.4008  -25.4515 O   0  0  0  0  0  0  0  0  0  0  0  0
   -6.3504   -0.6614  -26.2171 C   0  0  0  0  0  0  0  0  0  0  0  0
   -5.9394    0.5048  -25.5117 O   0  0  0  0  0  0  0  0  0  0  0  0
   -4.5601    0.4448  -25.1148 C   0  0  0  0  0  0  0  0  0  0  0  0
   -3.9485   -0.7197  -25.8922 C   0  0  0  0  0  0  0  0  0  0  0  0
   -5.1354   -1.5605  -26.3670 C   0  0  0  0  0  0  0  0  0  0  0  0
   -2.1345   -1.7479  -20.7799 C   0  0  0  0  0  0  0  0  0  0  0  0
    0.2758   -0.9444  -20.6634 C   0  0  0  0  0  0  0  0  0  0  0  0
    1.4878   -0.5445  -21.2487 C   0  0  0  0  0  0  0  0  0  0  0  0
    1.6196   -0.5091  -22.6362 C   0  0  0  0  0  0  0  0  0  0  0  0
    0.5379   -0.8908  -23.4358 C   0  0  0  0  0  0  0  0  0  0  0  0
   -0.6772   -1.3015  -22.8523 C   0  0  0  0  0  0  0  0  0  0  0  0
   -0.8128   -1.3291  -21.4519 C   0  0  0  0  0  0  0  0  0  0  0  0
  9 10  1  0  0  0
 10 11  2  0  0  0
 10 15  1  0  0  0
 11 12  1  0  0  0
 12 13  2  0  0  0
 13 14  1  0  0  0
 13  6  1  0  0  0
 14 15  2  0  0  0
  6  7  2  0  0  0
  6  8  2  0  0  0
  6  5  1  0  0  0
  5 18  1  0  0  0
  5  4  1  0  0  0
 18 19  1  0  0  0
 19 20  1  0  0  0
 19 21  1  0  0  0
  4  1  1  0  0  0
  1  2  1  0  0  0
  1 22  1  0  0  0
 22 23  1  0  0  0
 22 36  1  0  0  0
 23 24  1  0  0  0
 24 25  2  0  0  0
 24 27  1  0  0  0
 27 28  1  0  0  0
 28 29  1  0  0  0
 28 35  1  0  0  0
 29 30  1  0  0  0
 30 31  1  0  0  0
 31 32  1  0  0  0
 31 35  1  0  0  0
 32 33  1  0  0  0
 33 34  1  0  0  0
 34 35  1  0  0  0
 36 42  1  0  0  0
 37 38  2  0  0  0
 37 42  1  0  0  0
 38 39  1  0  0  0
 39 40  2  0  0  0
 40 41  1  0  0  0
 41 42  2  0  0  0
  9 16  1  0  0  0
  9 17  1  0  0  0
  2  3  1  0  0  0
 23 26  1  0  0  0
M  END
> <minimizedAffinity>
-8.48653

$$$$
3T3C_017_A_201


 42 45  0  0  0  0  0  0  0  0999 V2000
   -2.4959   -2.5302  -20.9037 C   0  0  0  0  0  0  0  0  0  0  0  0
   -2.8774   -2.1324  -19.5890 O   0  0  0  0  0  0  0  0  0  0  0  0
   -3.7445   -1.6987  -19.6212 H   0  0  0  0  0  0  0  0  0  0  0  0
   -2.3487   -1.2758  -21.7888 C   0  0  0  0  0  0  0  0  0  0  0  0
   -1.0428   -0.6602  -21.4419 N   0  0  0  0  0  0  0  0  0  0  0  0
    0.2828   -1.5841  -21.7763 S   0  0  0  0  0  0  0  0  0  0  0  0
    1.3596   -0.7455  -22.1887 O   0  0  0  0  0  0  0  0  0  0  0  0
   -0.1278   -2.5165  -22.7819 O   0  0  0  0  0  0  0  0  0  0  0  0
    2.1085   -4.4278  -17.0815 N   0  0  0  0  0  0  0  0  0  0  0  0
    1.6649   -3.7481  -18.1757 C   0  0  0  0  0  0  0  0  0  0  0  0
    1.0820   -4.4443  -19.2299 C   0  0  0  0  0  0  0  0  0  0  0  0
    0.6400   -3.7597  -20.3638 C   0  0  0  0  0  0  0  0  0  0  0  0
    0.7850   -2.3746  -20.4455 C   0  0  0  0  0  0  0  0  0  0  0  0
    1.3549   -1.6815  -19.3659 C   0  0  0  0  0  0  0  0  0  0  0  0
    1.8155   -2.3607  -18.2405 C   0  0  0  0  0  0  0  0  0  0  0  0
    2.0036   -5.4056  -17.0334 H   0  0  0  0  0  0  0  0  0  0  0  0
    2.5340   -3.9413  -16.3388 H   0  0  0  0  0  0  0  0  0  0  0  0
   -0.9348    0.7225  -21.9418 C   0  0  0  0  0  0  0  0  0  0  0  0
   -1.7462    0.9521  -23.2244 C   0  0  0  0  0  0  0  0  0  0  0  0
   -2.2480    2.3946  -23.3382 C   0  0  0  0  0  0  0  0  0  0  0  0
   -0.8475    0.6353  -24.4081 C   0  0  0  0  0  0  0  0  0  0  0  0
   -3.4296   -3.6345  -21.4926 C   0  0  0  0  0  0  0  0  0  0  0  0
   -4.1602   -3.0150  -22.6056 N   0  0  0  0  0  0  0  0  0  0  0  0
   -5.3355   -3.4723  -23.0412 C   0  0  0  0  0  0  0  0  0  0  0  0
   -5.9620   -4.4394  -22.5997 O   0  0  0  0  0  0  0  0  0  0  0  0
   -3.7662   -2.2292  -23.0491 H   0  0  0  0  0  0  0  0  0  0  0  0
   -5.8888   -2.7137  -24.1291 O   0  0  0  0  0  0  0  0  0  0  0  0
   -5.6350   -3.0964  -25.4843 C   0  0  0  0  0  0  0  0  0  0  0  0
   -7.0202   -3.1130  -26.1024 C   0  0  0  0  0  0  0  0  0  0  0  0
   -7.3187   -1.7334  -26.2387 O   0  0  0  0  0  0  0  0  0  0  0  0
   -6.1142   -1.0412  -26.6063 C   0  0  0  0  0  0  0  0  0  0  0  0
   -5.9884    0.1702  -25.8694 O   0  0  0  0  0  0  0  0  0  0  0  0
   -4.8778    0.1422  -24.9587 C   0  0  0  0  0  0  0  0  0  0  0  0
   -4.0352   -1.0677  -25.3592 C   0  0  0  0  0  0  0  0  0  0  0  0
   -4.9579   -1.9428  -26.2102 C   0  0  0  0  0  0  0  0  0  0  0  0
   -2.7430   -4.8794  -22.0824 C   0  0  0  0  0  0  0  0  0  0  0  0
   -1.8700   -6.3568  -20.2052 C   0  0  0  0  0  0  0  0  0  0  0  0
   -1.9814   -7.4305  -19.3074 C   0  0  0  0  0  0  0  0  0  0  0  0
   -3.1252   -8.2277  -19.3045 C   0  0  0  0  0  0  0  0  0  0  0  0
   -4.1641   -7.9361  -20.1938 C   0  0  0  0  0  0  0  0  0  0  0  0
   -4.0601   -6.8540  -21.0903 C   0  0  0  0  0  0  0  0  0  0  0  0
   -2.9020   -6.0545  -21.0987 C   0  0  0  0  0  0  0  0  0  0  0  0
  9 10  1  0  0  0
 10 11  2  0  0  0
 10 15  1  0  0  0
 11 12  1  0  0  0
 12 13  2  0  0  0
 13 14  1  0  0  0
 13  6  1  0  0  0
 14 15  2  0  0  0
  6  7  2  0  0  0
  6  8  2  0  0  0
  6  5  1  0  0  0
  5 18  1  0  0  0
  5  4  1  0  0  0
 18 19  1  0  0  0
 19 20  1  0  0  0
 19 21  1  0  0  0
  4  1  1  0  0  0
  1  2  1  0  0  0
  1 22  1  0  0  0
 22 23  1  0  0  0
 22 36  1  0  0  0
 23 24  1  0  0  0
 24 25  2  0  0  0
 24 27  1  0  0  0
 27 28  1  0  0  0
 28 29  1  0  0  0
 28 35  1  0  0  0
 29 30  1  0  0  0
 30 31  1  0  0  0
 31 32  1  0  0  0
 31 35  1  0  0  0
 32 33  1  0  0  0
 33 34  1  0  0  0
 34 35  1  0  0  0
 36 42  1  0  0  0
 37 38  2  0  0  0
 37 42  1  0  0  0
 38 39  1  0  0  0
 39 40  2  0  0  0
 40 41  1  0  0  0
 41 42  2  0  0  0
  9 16  1  0  0  0
  9 17  1  0  0  0
  2  3  1  0  0  0
 23 26  1  0  0  0
M  END
> <minimizedAffinity>
-8.41475

$$$$
3T3C_017_A_201


 42 45  0  0  0  0  0  0  0  0999 V2000
   -1.9269   -3.1031  -20.7341 C   0  0  0  0  0  0  0  0  0  0  0  0
   -2.3242   -1.7756  -20.3991 O   0  0  0  0  0  0  0  0  0  0  0  0
   -2.5833   -1.3025  -21.2053 H   0  0  0  0  0  0  0  0  0  0  0  0
   -0.6872   -3.0440  -21.6496 C   0  0  0  0  0  0  0  0  0  0  0  0
    0.4223   -2.4947  -20.8298 N   0  0  0  0  0  0  0  0  0  0  0  0
    0.7215   -0.8853  -21.0367 S   0  0  0  0  0  0  0  0  0  0  0  0
    2.1282   -0.6535  -21.0190 O   0  0  0  0  0  0  0  0  0  0  0  0
    0.0224   -0.2139  -19.9833 O   0  0  0  0  0  0  0  0  0  0  0  0
   -1.2026    0.9721  -26.1659 N   0  0  0  0  0  0  0  0  0  0  0  0
   -0.7515    0.5154  -24.9642 C   0  0  0  0  0  0  0  0  0  0  0  0
   -1.4746    0.7889  -23.8075 C   0  0  0  0  0  0  0  0  0  0  0  0
   -1.0123    0.3409  -22.5684 C   0  0  0  0  0  0  0  0  0  0  0  0
    0.1794   -0.3798  -22.4853 C   0  0  0  0  0  0  0  0  0  0  0  0
    0.8882   -0.6678  -23.6622 C   0  0  0  0  0  0  0  0  0  0  0  0
    0.4425   -0.2070  -24.8988 C   0  0  0  0  0  0  0  0  0  0  0  0
   -2.0437    1.4815  -26.2147 H   0  0  0  0  0  0  0  0  0  0  0  0
   -0.6874    0.7929  -26.9855 H   0  0  0  0  0  0  0  0  0  0  0  0
    0.3120   -2.8933  -19.4148 C   0  0  0  0  0  0  0  0  0  0  0  0
    1.5730   -3.6015  -18.9004 C   0  0  0  0  0  0  0  0  0  0  0  0
    2.4475   -2.6754  -18.0500 C   0  0  0  0  0  0  0  0  0  0  0  0
    1.1319   -4.7897  -18.0621 C   0  0  0  0  0  0  0  0  0  0  0  0
   -3.1061   -3.9610  -21.2923 C   0  0  0  0  0  0  0  0  0  0  0  0
   -3.7248   -3.1734  -22.3662 N   0  0  0  0  0  0  0  0  0  0  0  0
   -4.9420   -3.4365  -22.8450 C   0  0  0  0  0  0  0  0  0  0  0  0
   -5.7013   -4.3380  -22.4795 O   0  0  0  0  0  0  0  0  0  0  0  0
   -3.2203   -2.4195  -22.7489 H   0  0  0  0  0  0  0  0  0  0  0  0
   -5.3670   -2.5371  -23.8823 O   0  0  0  0  0  0  0  0  0  0  0  0
   -5.6484   -3.0262  -25.1973 C   0  0  0  0  0  0  0  0  0  0  0  0
   -7.1641   -3.0083  -25.2540 C   0  0  0  0  0  0  0  0  0  0  0  0
   -7.4561   -1.6269  -25.3867 O   0  0  0  0  0  0  0  0  0  0  0  0
   -6.4590   -1.0299  -26.2318 C   0  0  0  0  0  0  0  0  0  0  0  0
   -6.0355    0.2207  -25.6997 O   0  0  0  0  0  0  0  0  0  0  0  0
   -4.6661    0.1939  -25.2667 C   0  0  0  0  0  0  0  0  0  0  0  0
   -4.0659   -1.0858  -25.8468 C   0  0  0  0  0  0  0  0  0  0  0  0
   -5.2621   -1.9650  -26.2175 C   0  0  0  0  0  0  0  0  0  0  0  0
   -2.7384   -5.3156  -21.9237 C   0  0  0  0  0  0  0  0  0  0  0  0
   -1.7070   -6.5407  -19.9479 C   0  0  0  0  0  0  0  0  0  0  0  0
   -1.7104   -7.5335  -18.9551 C   0  0  0  0  0  0  0  0  0  0  0  0
   -2.7841   -8.4165  -18.8486 C   0  0  0  0  0  0  0  0  0  0  0  0
   -3.8620   -8.2917  -19.7305 C   0  0  0  0  0  0  0  0  0  0  0  0
   -3.8667   -7.2910  -20.7224 C   0  0  0  0  0  0  0  0  0  0  0  0
   -2.7790   -6.4051  -20.8350 C   0  0  0  0  0  0  0  0  0  0  0  0
  9 10  1  0  0  0
 10 11  2  0  0  0
 10 15  1  0  0  0
 11 12  1  0  0  0
 12 13  2  0  0  0
 13 14  1  0  0  0
 13  6  1  0  0  0
 14 15  2  0  0  0
  6  7  2  0  0  0
  6  8  2  0  0  0
  6  5  1  0  0  0
  5 18  1  0  0  0
  5  4  1  0  0  0
 18 19  1  0  0  0
 19 20  1  0  0  0
 19 21  1  0  0  0
  4  1  1  0  0  0
  1  2  1  0  0  0
  1 22  1  0  0  0
 22 23  1  0  0  0
 22 36  1  0  0  0
 23 24  1  0  0  0
 24 25  2  0  0  0
 24 27  1  0  0  0
 27 28  1  0  0  0
 28 29  1  0  0  0
 28 35  1  0  0  0
 29 30  1  0  0  0
 30 31  1  0  0  0
 31 32  1  0  0  0
 31 35  1  0  0  0
 32 33  1  0  0  0
 33 34  1  0  0  0
 34 35  1  0  0  0
 36 42  1  0  0  0
 37 38  2  0  0  0
 37 42  1  0  0  0
 38 39  1  0  0  0
 39 40  2  0  0  0
 40 41  1  0  0  0
 41 42  2  0  0  0
  9 16  1  0  0  0
  9 17  1  0  0  0
  2  3  1  0  0  0
 23 26  1  0  0  0
M  END
> <minimizedAffinity>
-8.38529

$$$$
3T3C_017_A_201


 42 45  0  0  0  0  0  0  0  0999 V2000
   -2.2831   -1.5794  -21.6663 C   0  0  0  0  0  0  0  0  0  0  0  0
   -3.6501   -1.7220  -21.2879 O   0  0  0  0  0  0  0  0  0  0  0  0
   -3.8755   -2.6642  -21.2392 H   0  0  0  0  0  0  0  0  0  0  0  0
   -2.0843   -2.1720  -23.0762 C   0  0  0  0  0  0  0  0  0  0  0  0
   -2.4919   -1.1205  -24.0420 N   0  0  0  0  0  0  0  0  0  0  0  0
   -1.2510   -0.3375  -24.7967 S   0  0  0  0  0  0  0  0  0  0  0  0
   -1.2829   -0.6236  -26.1932 O   0  0  0  0  0  0  0  0  0  0  0  0
   -0.0523   -0.7827  -24.1534 O   0  0  0  0  0  0  0  0  0  0  0  0
   -1.7816    5.3909  -24.1932 N   0  0  0  0  0  0  0  0  0  0  0  0
   -1.6668    4.0428  -24.3530 C   0  0  0  0  0  0  0  0  0  0  0  0
   -2.2624    3.1865  -23.4323 C   0  0  0  0  0  0  0  0  0  0  0  0
   -2.1362    1.8034  -23.5766 C   0  0  0  0  0  0  0  0  0  0  0  0
   -1.4083    1.2748  -24.6430 C   0  0  0  0  0  0  0  0  0  0  0  0
   -0.8307    2.1491  -25.5770 C   0  0  0  0  0  0  0  0  0  0  0  0
   -0.9365    3.5299  -25.4279 C   0  0  0  0  0  0  0  0  0  0  0  0
   -2.2957    5.7549  -23.4365 H   0  0  0  0  0  0  0  0  0  0  0  0
   -1.3505    6.0011  -24.8343 H   0  0  0  0  0  0  0  0  0  0  0  0
   -3.5343   -1.5974  -24.9690 C   0  0  0  0  0  0  0  0  0  0  0  0
   -4.8837   -0.8992  -24.7505 C   0  0  0  0  0  0  0  0  0  0  0  0
   -4.9737    0.4299  -25.5062 C   0  0  0  0  0  0  0  0  0  0  0  0
   -5.9774   -1.8335  -25.2401 C   0  0  0  0  0  0  0  0  0  0  0  0
   -1.2994   -2.1299  -20.5858 C   0  0  0  0  0  0  0  0  0  0  0  0
   -1.7714   -3.4760  -20.2373 N   0  0  0  0  0  0  0  0  0  0  0  0
   -2.6266   -3.7052  -19.2392 C   0  0  0  0  0  0  0  0  0  0  0  0
   -3.1302   -2.8645  -18.4893 O   0  0  0  0  0  0  0  0  0  0  0  0
   -1.4430   -4.2415  -20.7621 H   0  0  0  0  0  0  0  0  0  0  0  0
   -2.9726   -5.0904  -19.0749 O   0  0  0  0  0  0  0  0  0  0  0  0
   -1.9567   -6.0981  -19.0790 C   0  0  0  0  0  0  0  0  0  0  0  0
   -2.2272   -6.8647  -17.7984 C   0  0  0  0  0  0  0  0  0  0  0  0
   -3.3858   -7.6157  -18.1219 O   0  0  0  0  0  0  0  0  0  0  0  0
   -3.2842   -8.0425  -19.4903 C   0  0  0  0  0  0  0  0  0  0  0  0
   -4.5290   -7.8751  -20.1604 O   0  0  0  0  0  0  0  0  0  0  0  0
   -4.4655   -6.8725  -21.1872 C   0  0  0  0  0  0  0  0  0  0  0  0
   -2.9806   -6.5851  -21.4039 C   0  0  0  0  0  0  0  0  0  0  0  0
   -2.2754   -7.1236  -20.1574 C   0  0  0  0  0  0  0  0  0  0  0  0
    0.1709   -2.2970  -21.0090 C   0  0  0  0  0  0  0  0  0  0  0  0
    1.1323   -4.3119  -19.7906 C   0  0  0  0  0  0  0  0  0  0  0  0
    1.8352   -4.9132  -18.7344 C   0  0  0  0  0  0  0  0  0  0  0  0
    2.3628   -4.1320  -17.7072 C   0  0  0  0  0  0  0  0  0  0  0  0
    2.1974   -2.7442  -17.7498 C   0  0  0  0  0  0  0  0  0  0  0  0
    1.5004   -2.1358  -18.8126 C   0  0  0  0  0  0  0  0  0  0  0  0
    0.9607   -2.9254  -19.8450 C   0  0  0  0  0  0  0  0  0  0  0  0
  9 10  1  0  0  0
 10 11  2  0  0  0
 10 15  1  0  0  0
 11 12  1  0  0  0
 12 13  2  0  0  0
 13 14  1  0  0  0
 13  6  1  0  0  0
 14 15  2  0  0  0
  6  7  2  0  0  0
  6  8  2  0  0  0
  6  5  1  0  0  0
  5 18  1  0  0  0
  5  4  1  0  0  0
 18 19  1  0  0  0
 19 20  1  0  0  0
 19 21  1  0  0  0
  4  1  1  0  0  0
  1  2  1  0  0  0
  1 22  1  0  0  0
 22 23  1  0  0  0
 22 36  1  0  0  0
 23 24  1  0  0  0
 24 25  2  0  0  0
 24 27  1  0  0  0
 27 28  1  0  0  0
 28 29  1  0  0  0
 28 35  1  0  0  0
 29 30  1  0  0  0
 30 31  1  0  0  0
 31 32  1  0  0  0
 31 35  1  0  0  0
 32 33  1  0  0  0
 33 34  1  0  0  0
 34 35  1  0  0  0
 36 42  1  0  0  0
 37 38  2  0  0  0
 37 42  1  0  0  0
 38 39  1  0  0  0
 39 40  2  0  0  0
 40 41  1  0  0  0
 41 42  2  0  0  0
  9 16  1  0  0  0
  9 17  1  0  0  0
  2  3  1  0  0  0
 23 26  1  0  0  0
M  END
> <minimizedAffinity>
-8.25395

$$$$
