3OHI_HDX_A_341


 25 25  0  0  0  0  0  0  0  0999 V2000
   14.5558    5.3856   14.6400 O   0  0  0  0  0  0  0  0  0  0  0  0
   14.7060    2.7308   15.1844 O   0  0  0  0  0  0  0  0  0  0  0  0
   11.1212    3.4725   15.5158 C   0  0  0  0  0  0  0  0  0  0  0  0
   11.1171    4.8372   15.2202 C   0  0  0  0  0  0  0  0  0  0  0  0
   13.4898    4.7696   14.9043 C   0  0  0  0  0  0  0  0  0  0  0  0
   12.3122    2.7430   15.5131 C   0  0  0  0  0  0  0  0  0  0  0  0
   13.5096    3.3970   15.1991 C   0  0  0  0  0  0  0  0  0  0  0  0
   12.2574    5.4865   14.9213 N   0  0  0  0  0  0  0  0  0  0  0  0
   15.4949    3.1893   14.9712 H   0  0  0  0  0  0  0  0  0  0  0  0
   12.2507    1.2613   15.8517 C   0  0  0  0  0  0  0  0  0  0  0  0
   13.1447    0.9148   17.0564 C   0  0  0  0  0  0  0  0  0  0  0  0
   14.1694   -0.0335   16.6893 O   0  0  0  0  0  0  0  0  0  0  0  0
   15.9589   -1.2954   17.7955 O   0  0  0  0  0  0  0  0  0  0  0  0
   16.5319    0.3514   15.9170 O   0  0  0  0  0  0  0  0  0  0  0  0
   15.7609    1.2310   18.1345 O   0  0  0  0  0  0  0  0  0  0  0  0
   15.7230    0.0685   17.1685 P   0  0  0  0  0  0  0  0  0  0  0  0
   16.8708   -1.3479   18.1219 H   0  0  0  0  0  0  0  0  0  0  0  0
   17.4713    0.4220   16.1482 H   0  0  0  0  0  0  0  0  0  0  0  0
   12.2744    6.9099   14.6084 C   0  0  0  0  0  0  0  0  0  0  0  0
   11.7655    6.1212   12.1254 O   0  0  0  0  0  0  0  0  0  0  0  0
   11.4682    8.5675   12.6247 O   0  0  0  0  0  0  0  0  0  0  0  0
   13.7839    7.5274   12.6022 O   0  0  0  0  0  0  0  0  0  0  0  0
   12.2926    7.3312   12.8638 P   0  0  0  0  0  0  0  0  0  0  0  0
   11.7566    6.3024   11.1725 H   0  0  0  0  0  0  0  0  0  0  0  0
   13.9205    7.7635   11.6713 H   0  0  0  0  0  0  0  0  0  0  0  0
  1  5  2  0  0  0
 20 23  1  0  0  0
 13 16  1  0  0  0
  2  7  1  0  0  0
 21 23  2  0  0  0
 22 23  1  0  0  0
 14 16  1  0  0  0
 15 16  2  0  0  0
  3  4  2  0  0  0
  3  6  1  0  0  0
  4  8  1  0  0  0
 11 10  1  0  0  0
 11 12  1  0  0  0
 10  6  1  0  0  0
 19  8  1  0  0  0
 19 23  1  0  0  0
 12 16  1  0  0  0
  5  7  1  0  0  0
  5  8  1  0  0  0
  6  7  2  0  0  0
 20 24  1  0  0  0
 13 17  1  0  0  0
  2  9  1  0  0  0
 22 25  1  0  0  0
 14 18  1  0  0  0
M  END
> <minimizedAffinity>
-7.26312

$$$$
3OHI_HDX_A_341


 25 25  0  0  0  0  0  0  0  0999 V2000
   11.4722    0.8245   16.4600 O   0  0  0  0  0  0  0  0  0  0  0  0
   10.4578    2.9874   15.1718 O   0  0  0  0  0  0  0  0  0  0  0  0
   14.0766    3.6301   15.2074 C   0  0  0  0  0  0  0  0  0  0  0  0
   14.5295    2.4885   15.8720 C   0  0  0  0  0  0  0  0  0  0  0  0
   12.2736    1.7056   16.0513 C   0  0  0  0  0  0  0  0  0  0  0  0
   12.7153    3.8229   14.9621 C   0  0  0  0  0  0  0  0  0  0  0  0
   11.8034    2.8479   15.3840 C   0  0  0  0  0  0  0  0  0  0  0  0
   13.6696    1.5418   16.2911 N   0  0  0  0  0  0  0  0  0  0  0  0
    9.8660    2.3218   15.4630 H   0  0  0  0  0  0  0  0  0  0  0  0
   12.2854    5.0912   14.2408 C   0  0  0  0  0  0  0  0  0  0  0  0
   12.3452    6.3206   15.1659 C   0  0  0  0  0  0  0  0  0  0  0  0
   11.2256    6.3422   16.0770 O   0  0  0  0  0  0  0  0  0  0  0  0
    9.2257    7.4857   16.9204 O   0  0  0  0  0  0  0  0  0  0  0  0
    9.8658    7.6915   14.4471 O   0  0  0  0  0  0  0  0  0  0  0  0
    9.0017    5.5053   15.3188 O   0  0  0  0  0  0  0  0  0  0  0  0
    9.7167    6.7931   15.6601 P   0  0  0  0  0  0  0  0  0  0  0  0
    8.3187    7.8011   16.7835 H   0  0  0  0  0  0  0  0  0  0  0  0
    8.9899    7.9900   14.1563 H   0  0  0  0  0  0  0  0  0  0  0  0
   14.1220    0.3426   16.9850 C   0  0  0  0  0  0  0  0  0  0  0  0
   16.5215    0.3123   15.8502 O   0  0  0  0  0  0  0  0  0  0  0  0
   16.3770    1.2487   18.1793 O   0  0  0  0  0  0  0  0  0  0  0  0
   16.0220   -1.2299   17.7609 O   0  0  0  0  0  0  0  0  0  0  0  0
   15.8949    0.1926   17.2215 P   0  0  0  0  0  0  0  0  0  0  0  0
   17.4855    0.2369   15.9276 H   0  0  0  0  0  0  0  0  0  0  0  0
   16.9560   -1.4293   17.9300 H   0  0  0  0  0  0  0  0  0  0  0  0
  1  5  2  0  0  0
 20 23  1  0  0  0
 13 16  1  0  0  0
  2  7  1  0  0  0
 21 23  2  0  0  0
 22 23  1  0  0  0
 14 16  1  0  0  0
 15 16  2  0  0  0
  3  4  2  0  0  0
  3  6  1  0  0  0
  4  8  1  0  0  0
 11 10  1  0  0  0
 11 12  1  0  0  0
 10  6  1  0  0  0
 19  8  1  0  0  0
 19 23  1  0  0  0
 12 16  1  0  0  0
  5  7  1  0  0  0
  5  8  1  0  0  0
  6  7  2  0  0  0
 20 24  1  0  0  0
 13 17  1  0  0  0
  2  9  1  0  0  0
 22 25  1  0  0  0
 14 18  1  0  0  0
M  END
> <minimizedAffinity>
-7.04502

$$$$
3OHI_HDX_A_341


 25 25  0  0  0  0  0  0  0  0999 V2000
   11.3896    0.9269   16.4277 O   0  0  0  0  0  0  0  0  0  0  0  0
   10.3851    3.2170   15.3725 O   0  0  0  0  0  0  0  0  0  0  0  0
   14.0221    3.7267   15.2219 C   0  0  0  0  0  0  0  0  0  0  0  0
   14.4690    2.5221   15.7689 C   0  0  0  0  0  0  0  0  0  0  0  0
   12.1989    1.8079   16.0348 C   0  0  0  0  0  0  0  0  0  0  0  0
   12.6571    3.9858   15.0801 C   0  0  0  0  0  0  0  0  0  0  0  0
   11.7346    3.0141   15.4863 C   0  0  0  0  0  0  0  0  0  0  0  0
   13.5993    1.5770   16.1710 N   0  0  0  0  0  0  0  0  0  0  0  0
    9.7863    2.5522   15.6509 H   0  0  0  0  0  0  0  0  0  0  0  0
   12.2347    5.3202   14.4847 C   0  0  0  0  0  0  0  0  0  0  0  0
   11.6689    5.1556   13.0622 C   0  0  0  0  0  0  0  0  0  0  0  0
   12.0017    6.2905   12.2343 O   0  0  0  0  0  0  0  0  0  0  0  0
   12.1052    8.6430   11.5465 O   0  0  0  0  0  0  0  0  0  0  0  0
    9.9072    7.3438   11.3235 O   0  0  0  0  0  0  0  0  0  0  0  0
   10.7502    7.9577   13.6035 O   0  0  0  0  0  0  0  0  0  0  0  0
   11.1256    7.6623   12.1689 P   0  0  0  0  0  0  0  0  0  0  0  0
   11.6816    9.5111   11.4582 H   0  0  0  0  0  0  0  0  0  0  0  0
    9.3477    8.1330   11.2523 H   0  0  0  0  0  0  0  0  0  0  0  0
   14.0452    0.3127   16.7429 C   0  0  0  0  0  0  0  0  0  0  0  0
   16.5501    0.3082   15.8642 O   0  0  0  0  0  0  0  0  0  0  0  0
   16.1441    1.3056   18.1363 O   0  0  0  0  0  0  0  0  0  0  0  0
   15.8865   -1.1915   17.7586 O   0  0  0  0  0  0  0  0  0  0  0  0
   15.7866    0.2119   17.1661 P   0  0  0  0  0  0  0  0  0  0  0  0
   17.5021    0.2580   16.0432 H   0  0  0  0  0  0  0  0  0  0  0  0
   16.8018   -1.3637   18.0296 H   0  0  0  0  0  0  0  0  0  0  0  0
  1  5  2  0  0  0
 20 23  1  0  0  0
 13 16  1  0  0  0
  2  7  1  0  0  0
 21 23  2  0  0  0
 22 23  1  0  0  0
 14 16  1  0  0  0
 15 16  2  0  0  0
  3  4  2  0  0  0
  3  6  1  0  0  0
  4  8  1  0  0  0
 11 10  1  0  0  0
 11 12  1  0  0  0
 10  6  1  0  0  0
 19  8  1  0  0  0
 19 23  1  0  0  0
 12 16  1  0  0  0
  5  7  1  0  0  0
  5  8  1  0  0  0
  6  7  2  0  0  0
 20 24  1  0  0  0
 13 17  1  0  0  0
  2  9  1  0  0  0
 22 25  1  0  0  0
 14 18  1  0  0  0
M  END
> <minimizedAffinity>
-6.89072

$$$$
3OHI_HDX_A_341


 25 25  0  0  0  0  0  0  0  0999 V2000
   10.6041    7.2478   11.8024 O   0  0  0  0  0  0  0  0  0  0  0  0
   11.2767    4.6205   11.9122 O   0  0  0  0  0  0  0  0  0  0  0  0
   10.5015    5.4539   15.4072 C   0  0  0  0  0  0  0  0  0  0  0  0
   10.1623    6.8021   15.2763 C   0  0  0  0  0  0  0  0  0  0  0  0
   10.5661    6.6684   12.9197 C   0  0  0  0  0  0  0  0  0  0  0  0
   10.8813    4.7000   14.2947 C   0  0  0  0  0  0  0  0  0  0  0  0
   10.9094    5.3120   13.0357 C   0  0  0  0  0  0  0  0  0  0  0  0
   10.1881    7.4114   14.0765 N   0  0  0  0  0  0  0  0  0  0  0  0
   11.2881    5.0510   11.0800 H   0  0  0  0  0  0  0  0  0  0  0  0
   11.2468    3.2385   14.5050 C   0  0  0  0  0  0  0  0  0  0  0  0
   11.4813    2.9184   15.9927 C   0  0  0  0  0  0  0  0  0  0  0  0
   12.4299    1.8417   16.1509 O   0  0  0  0  0  0  0  0  0  0  0  0
   10.5703    0.4346   16.9124 O   0  0  0  0  0  0  0  0  0  0  0  0
   12.7040   -0.6539   16.0005 O   0  0  0  0  0  0  0  0  0  0  0  0
   12.7628    0.4989   18.2261 O   0  0  0  0  0  0  0  0  0  0  0  0
   12.0893    0.4226   16.8746 P   0  0  0  0  0  0  0  0  0  0  0  0
   10.2509   -0.3799   17.3313 H   0  0  0  0  0  0  0  0  0  0  0  0
   12.5289   -1.5252   16.3893 H   0  0  0  0  0  0  0  0  0  0  0  0
    9.8362    8.8169   13.9183 C   0  0  0  0  0  0  0  0  0  0  0  0
    7.3263    8.0325   13.5559 O   0  0  0  0  0  0  0  0  0  0  0  0
    7.7808    9.5088   15.5399 O   0  0  0  0  0  0  0  0  0  0  0  0
    7.9544   10.4290   13.1803 O   0  0  0  0  0  0  0  0  0  0  0  0
    8.0956    9.2166   14.0974 P   0  0  0  0  0  0  0  0  0  0  0  0
    6.3745    8.2032   13.6319 H   0  0  0  0  0  0  0  0  0  0  0  0
    7.0359   10.7405   13.1953 H   0  0  0  0  0  0  0  0  0  0  0  0
  1  5  2  0  0  0
 20 23  1  0  0  0
 13 16  1  0  0  0
  2  7  1  0  0  0
 21 23  2  0  0  0
 22 23  1  0  0  0
 14 16  1  0  0  0
 15 16  2  0  0  0
  3  4  2  0  0  0
  3  6  1  0  0  0
  4  8  1  0  0  0
 11 10  1  0  0  0
 11 12  1  0  0  0
 10  6  1  0  0  0
 19  8  1  0  0  0
 19 23  1  0  0  0
 12 16  1  0  0  0
  5  7  1  0  0  0
  5  8  1  0  0  0
  6  7  2  0  0  0
 20 24  1  0  0  0
 13 17  1  0  0  0
  2  9  1  0  0  0
 22 25  1  0  0  0
 14 18  1  0  0  0
M  END
> <minimizedAffinity>
-6.82010

$$$$
3OHI_HDX_A_341


 25 25  0  0  0  0  0  0  0  0999 V2000
    9.9305    7.7851   11.5225 O   0  0  0  0  0  0  0  0  0  0  0  0
   11.9654    6.0426   11.9581 O   0  0  0  0  0  0  0  0  0  0  0  0
   12.2273    8.3882   14.7760 C   0  0  0  0  0  0  0  0  0  0  0  0
   11.1595    9.2427   14.4935 C   0  0  0  0  0  0  0  0  0  0  0  0
   10.6512    7.9522   12.5415 C   0  0  0  0  0  0  0  0  0  0  0  0
   12.5206    7.3085   13.9400 C   0  0  0  0  0  0  0  0  0  0  0  0
   11.7211    7.0843   12.8127 C   0  0  0  0  0  0  0  0  0  0  0  0
   10.3821    9.0488   13.4122 N   0  0  0  0  0  0  0  0  0  0  0  0
   11.4169    5.9120   11.2098 H   0  0  0  0  0  0  0  0  0  0  0  0
   13.7019    6.4198   14.2981 C   0  0  0  0  0  0  0  0  0  0  0  0
   13.2774    5.2420   15.1945 C   0  0  0  0  0  0  0  0  0  0  0  0
   12.6790    4.1838   14.4159 O   0  0  0  0  0  0  0  0  0  0  0  0
   10.6518    3.6638   13.1359 O   0  0  0  0  0  0  0  0  0  0  0  0
   11.1913    2.3418   15.2643 O   0  0  0  0  0  0  0  0  0  0  0  0
   10.4778    4.7381   15.4494 O   0  0  0  0  0  0  0  0  0  0  0  0
   11.1341    3.6924   14.5765 P   0  0  0  0  0  0  0  0  0  0  0  0
    9.7249    3.3791   13.1109 H   0  0  0  0  0  0  0  0  0  0  0  0
   10.2908    2.0020   15.3850 H   0  0  0  0  0  0  0  0  0  0  0  0
    9.2621    9.9280   13.1007 C   0  0  0  0  0  0  0  0  0  0  0  0
    7.3133    8.1661   13.4806 O   0  0  0  0  0  0  0  0  0  0  0  0
    7.8909    9.6584   15.4201 O   0  0  0  0  0  0  0  0  0  0  0  0
    6.7805   10.6107   13.3454 O   0  0  0  0  0  0  0  0  0  0  0  0
    7.7145    9.5536   13.9291 P   0  0  0  0  0  0  0  0  0  0  0  0
    6.4770    7.9183   13.9049 H   0  0  0  0  0  0  0  0  0  0  0  0
    5.8949   10.5059   13.7270 H   0  0  0  0  0  0  0  0  0  0  0  0
  1  5  2  0  0  0
 20 23  1  0  0  0
 13 16  1  0  0  0
  2  7  1  0  0  0
 21 23  2  0  0  0
 22 23  1  0  0  0
 14 16  1  0  0  0
 15 16  2  0  0  0
  3  4  2  0  0  0
  3  6  1  0  0  0
  4  8  1  0  0  0
 11 10  1  0  0  0
 11 12  1  0  0  0
 10  6  1  0  0  0
 19  8  1  0  0  0
 19 23  1  0  0  0
 12 16  1  0  0  0
  5  7  1  0  0  0
  5  8  1  0  0  0
  6  7  2  0  0  0
 20 24  1  0  0  0
 13 17  1  0  0  0
  2  9  1  0  0  0
 22 25  1  0  0  0
 14 18  1  0  0  0
M  END
> <minimizedAffinity>
-6.72585

$$$$
3OHI_HDX_A_341


 25 25  0  0  0  0  0  0  0  0999 V2000
   13.9855    8.1845   14.0401 O   0  0  0  0  0  0  0  0  0  0  0  0
   16.0836    6.5574   14.6036 O   0  0  0  0  0  0  0  0  0  0  0  0
   13.1606    4.3753   15.0569 C   0  0  0  0  0  0  0  0  0  0  0  0
   12.1302    5.2660   14.7488 C   0  0  0  0  0  0  0  0  0  0  0  0
   13.7461    6.9873   14.3484 C   0  0  0  0  0  0  0  0  0  0  0  0
   14.4956    4.7840   15.0182 C   0  0  0  0  0  0  0  0  0  0  0  0
   14.7928    6.1031   14.6551 C   0  0  0  0  0  0  0  0  0  0  0  0
   12.3934    6.5398   14.4031 N   0  0  0  0  0  0  0  0  0  0  0  0
   16.2587    7.4445   14.3579 H   0  0  0  0  0  0  0  0  0  0  0  0
   15.5709    3.7683   15.3725 C   0  0  0  0  0  0  0  0  0  0  0  0
   14.9619    2.4280   15.8237 C   0  0  0  0  0  0  0  0  0  0  0  0
   15.9550    1.3802   15.8300 O   0  0  0  0  0  0  0  0  0  0  0  0
   15.6039    1.2204   18.2527 O   0  0  0  0  0  0  0  0  0  0  0  0
   15.8320   -0.9144   16.8527 O   0  0  0  0  0  0  0  0  0  0  0  0
   17.8427    0.5363   17.2246 O   0  0  0  0  0  0  0  0  0  0  0  0
   16.3339    0.4880   17.1393 P   0  0  0  0  0  0  0  0  0  0  0  0
   15.7622    0.7674   19.0957 H   0  0  0  0  0  0  0  0  0  0  0  0
   16.0338   -1.4904   17.6066 H   0  0  0  0  0  0  0  0  0  0  0  0
   11.3326    7.4844   14.0764 C   0  0  0  0  0  0  0  0  0  0  0  0
   10.8741    6.0786   11.8719 O   0  0  0  0  0  0  0  0  0  0  0  0
    9.4167    8.0902   12.2612 O   0  0  0  0  0  0  0  0  0  0  0  0
   11.8788    8.3682   11.7088 O   0  0  0  0  0  0  0  0  0  0  0  0
   10.8006    7.5074   12.3623 P   0  0  0  0  0  0  0  0  0  0  0  0
   10.5940    6.0405   10.9440 H   0  0  0  0  0  0  0  0  0  0  0  0
   11.6937    8.4536   10.7605 H   0  0  0  0  0  0  0  0  0  0  0  0
  1  5  2  0  0  0
 20 23  1  0  0  0
 13 16  1  0  0  0
  2  7  1  0  0  0
 21 23  2  0  0  0
 22 23  1  0  0  0
 14 16  1  0  0  0
 15 16  2  0  0  0
  3  4  2  0  0  0
  3  6  1  0  0  0
  4  8  1  0  0  0
 11 10  1  0  0  0
 11 12  1  0  0  0
 10  6  1  0  0  0
 19  8  1  0  0  0
 19 23  1  0  0  0
 12 16  1  0  0  0
  5  7  1  0  0  0
  5  8  1  0  0  0
  6  7  2  0  0  0
 20 24  1  0  0  0
 13 17  1  0  0  0
  2  9  1  0  0  0
 22 25  1  0  0  0
 14 18  1  0  0  0
M  END
> <minimizedAffinity>
-6.61478

$$$$
3OHI_HDX_A_341


 25 25  0  0  0  0  0  0  0  0999 V2000
   10.6809    6.7076   11.8562 O   0  0  0  0  0  0  0  0  0  0  0  0
   11.2310    4.0831   12.2760 O   0  0  0  0  0  0  0  0  0  0  0  0
   11.1816    5.5017   15.6666 C   0  0  0  0  0  0  0  0  0  0  0  0
   10.8909    6.8366   15.3777 C   0  0  0  0  0  0  0  0  0  0  0  0
   10.8288    6.3113   13.0423 C   0  0  0  0  0  0  0  0  0  0  0  0
   11.3035    4.5582   14.6441 C   0  0  0  0  0  0  0  0  0  0  0  0
   11.1203    4.9657   13.3172 C   0  0  0  0  0  0  0  0  0  0  0  0
   10.7167    7.2507   14.1091 N   0  0  0  0  0  0  0  0  0  0  0  0
   11.1041    4.3785   11.3959 H   0  0  0  0  0  0  0  0  0  0  0  0
   11.6295    3.1218   15.0238 C   0  0  0  0  0  0  0  0  0  0  0  0
   13.0516    2.9938   15.6001 C   0  0  0  0  0  0  0  0  0  0  0  0
   14.0358    3.5095   14.6785 O   0  0  0  0  0  0  0  0  0  0  0  0
   15.8520    5.0826   15.1735 O   0  0  0  0  0  0  0  0  0  0  0  0
   15.8558    2.7523   16.2407 O   0  0  0  0  0  0  0  0  0  0  0  0
   16.3043    2.9840   13.7848 O   0  0  0  0  0  0  0  0  0  0  0  0
   15.6316    3.5897   14.9960 P   0  0  0  0  0  0  0  0  0  0  0  0
   16.7869    5.2503   15.3704 H   0  0  0  0  0  0  0  0  0  0  0  0
   16.7970    2.7665   16.4747 H   0  0  0  0  0  0  0  0  0  0  0  0
   10.4112    8.6388   13.7867 C   0  0  0  0  0  0  0  0  0  0  0  0
    8.5244   10.3308   12.9969 O   0  0  0  0  0  0  0  0  0  0  0  0
    7.8194    7.9524   13.4074 O   0  0  0  0  0  0  0  0  0  0  0  0
    8.5092    9.4457   15.3410 O   0  0  0  0  0  0  0  0  0  0  0  0
    8.6785    9.1009   13.8635 P   0  0  0  0  0  0  0  0  0  0  0  0
    7.5985   10.6196   13.0072 H   0  0  0  0  0  0  0  0  0  0  0  0
    7.5924    9.7157   15.5070 H   0  0  0  0  0  0  0  0  0  0  0  0
  1  5  2  0  0  0
 20 23  1  0  0  0
 13 16  1  0  0  0
  2  7  1  0  0  0
 21 23  2  0  0  0
 22 23  1  0  0  0
 14 16  1  0  0  0
 15 16  2  0  0  0
  3  4  2  0  0  0
  3  6  1  0  0  0
  4  8  1  0  0  0
 11 10  1  0  0  0
 11 12  1  0  0  0
 10  6  1  0  0  0
 19  8  1  0  0  0
 19 23  1  0  0  0
 12 16  1  0  0  0
  5  7  1  0  0  0
  5  8  1  0  0  0
  6  7  2  0  0  0
 20 24  1  0  0  0
 13 17  1  0  0  0
  2  9  1  0  0  0
 22 25  1  0  0  0
 14 18  1  0  0  0
M  END
> <minimizedAffinity>
-6.38497

$$$$
3OHI_HDX_A_341


 25 25  0  0  0  0  0  0  0  0999 V2000
   14.5152    3.4858   14.5288 O   0  0  0  0  0  0  0  0  0  0  0  0
   16.9742    4.6220   14.7003 O   0  0  0  0  0  0  0  0  0  0  0  0
   14.7512    7.1664   16.1477 C   0  0  0  0  0  0  0  0  0  0  0  0
   13.5188    6.5198   16.0333 C   0  0  0  0  0  0  0  0  0  0  0  0
   14.6085    4.6314   15.0430 C   0  0  0  0  0  0  0  0  0  0  0  0
   15.9253    6.5527   15.7058 C   0  0  0  0  0  0  0  0  0  0  0  0
   15.8548    5.2688   15.1517 C   0  0  0  0  0  0  0  0  0  0  0  0
   13.4277    5.2881   15.4986 N   0  0  0  0  0  0  0  0  0  0  0  0
   16.9028    3.7629   14.3331 H   0  0  0  0  0  0  0  0  0  0  0  0
   17.2348    7.3130   15.8508 C   0  0  0  0  0  0  0  0  0  0  0  0
   17.5201    8.1955   14.6218 C   0  0  0  0  0  0  0  0  0  0  0  0
   16.9027    7.6521   13.4353 O   0  0  0  0  0  0  0  0  0  0  0  0
   15.6370    9.7489   13.2954 O   0  0  0  0  0  0  0  0  0  0  0  0
   16.3186    8.5240   11.1496 O   0  0  0  0  0  0  0  0  0  0  0  0
   14.5473    7.5357   12.6233 O   0  0  0  0  0  0  0  0  0  0  0  0
   15.7679    8.4259   12.5595 P   0  0  0  0  0  0  0  0  0  0  0  0
   14.9743   10.3013   12.8520 H   0  0  0  0  0  0  0  0  0  0  0  0
   15.6769    8.9800   10.5829 H   0  0  0  0  0  0  0  0  0  0  0  0
   12.1516    4.5956   15.3718 C   0  0  0  0  0  0  0  0  0  0  0  0
   12.0801    5.8232   13.0194 O   0  0  0  0  0  0  0  0  0  0  0  0
   10.7376    3.7087   13.2395 O   0  0  0  0  0  0  0  0  0  0  0  0
   10.0483    5.8103   14.4856 O   0  0  0  0  0  0  0  0  0  0  0  0
   11.1906    4.9801   13.9055 P   0  0  0  0  0  0  0  0  0  0  0  0
   11.6009    6.0572   12.2091 H   0  0  0  0  0  0  0  0  0  0  0  0
    9.4504    6.0813   13.7715 H   0  0  0  0  0  0  0  0  0  0  0  0
  1  5  2  0  0  0
 20 23  1  0  0  0
 13 16  1  0  0  0
  2  7  1  0  0  0
 21 23  2  0  0  0
 22 23  1  0  0  0
 14 16  1  0  0  0
 15 16  2  0  0  0
  3  4  2  0  0  0
  3  6  1  0  0  0
  4  8  1  0  0  0
 11 10  1  0  0  0
 11 12  1  0  0  0
 10  6  1  0  0  0
 19  8  1  0  0  0
 19 23  1  0  0  0
 12 16  1  0  0  0
  5  7  1  0  0  0
  5  8  1  0  0  0
  6  7  2  0  0  0
 20 24  1  0  0  0
 13 17  1  0  0  0
  2  9  1  0  0  0
 22 25  1  0  0  0
 14 18  1  0  0  0
M  END
> <minimizedAffinity>
-6.18912

$$$$
3OHI_HDX_A_341


 25 25  0  0  0  0  0  0  0  0999 V2000
   16.5132    4.7092   15.4307 O   0  0  0  0  0  0  0  0  0  0  0  0
   14.6540    2.8048   14.8985 O   0  0  0  0  0  0  0  0  0  0  0  0
   12.6786    5.8977   15.1035 C   0  0  0  0  0  0  0  0  0  0  0  0
   13.6880    6.8250   15.3707 C   0  0  0  0  0  0  0  0  0  0  0  0
   15.3111    5.0653   15.3136 C   0  0  0  0  0  0  0  0  0  0  0  0
   12.9757    4.5425   14.9432 C   0  0  0  0  0  0  0  0  0  0  0  0
   14.3071    4.1215   15.0443 C   0  0  0  0  0  0  0  0  0  0  0  0
   14.9734    6.4409   15.4775 N   0  0  0  0  0  0  0  0  0  0  0  0
   15.5518    2.5461   14.9702 H   0  0  0  0  0  0  0  0  0  0  0  0
   11.8303    3.5819   14.6621 C   0  0  0  0  0  0  0  0  0  0  0  0
   11.4419    2.7763   15.9154 C   0  0  0  0  0  0  0  0  0  0  0  0
   12.4450    1.7871   16.2307 O   0  0  0  0  0  0  0  0  0  0  0  0
   10.6357    0.4604   17.2229 O   0  0  0  0  0  0  0  0  0  0  0  0
   12.5327   -0.7119   15.9595 O   0  0  0  0  0  0  0  0  0  0  0  0
   13.0013    0.3418   18.1858 O   0  0  0  0  0  0  0  0  0  0  0  0
   12.1276    0.3613   16.9519 P   0  0  0  0  0  0  0  0  0  0  0  0
   10.3318   -0.3508   17.6594 H   0  0  0  0  0  0  0  0  0  0  0  0
   12.3630   -1.5869   16.3423 H   0  0  0  0  0  0  0  0  0  0  0  0
   16.0417    7.3929   15.7543 C   0  0  0  0  0  0  0  0  0  0  0  0
   15.9714    7.9759   13.1655 O   0  0  0  0  0  0  0  0  0  0  0  0
   17.4800    9.3795   14.6064 O   0  0  0  0  0  0  0  0  0  0  0  0
   18.0256    6.9409   14.1592 O   0  0  0  0  0  0  0  0  0  0  0  0
   16.9412    8.0025   14.3257 P   0  0  0  0  0  0  0  0  0  0  0  0
   16.4151    8.2988   12.3657 H   0  0  0  0  0  0  0  0  0  0  0  0
   18.5865    7.1678   13.4010 H   0  0  0  0  0  0  0  0  0  0  0  0
  1  5  2  0  0  0
 20 23  1  0  0  0
 13 16  1  0  0  0
  2  7  1  0  0  0
 21 23  2  0  0  0
 22 23  1  0  0  0
 14 16  1  0  0  0
 15 16  2  0  0  0
  3  4  2  0  0  0
  3  6  1  0  0  0
  4  8  1  0  0  0
 11 10  1  0  0  0
 11 12  1  0  0  0
 10  6  1  0  0  0
 19  8  1  0  0  0
 19 23  1  0  0  0
 12 16  1  0  0  0
  5  7  1  0  0  0
  5  8  1  0  0  0
  6  7  2  0  0  0
 20 24  1  0  0  0
 13 17  1  0  0  0
  2  9  1  0  0  0
 22 25  1  0  0  0
 14 18  1  0  0  0
M  END
> <minimizedAffinity>
-6.01986

$$$$
3OHI_HDX_A_341


 25 25  0  0  0  0  0  0  0  0999 V2000
   10.6221    8.5639   16.2629 O   0  0  0  0  0  0  0  0  0  0  0  0
   12.0422    6.4044   17.0917 O   0  0  0  0  0  0  0  0  0  0  0  0
   11.1731    5.5769   13.6175 C   0  0  0  0  0  0  0  0  0  0  0  0
   10.4571    6.7203   13.2569 C   0  0  0  0  0  0  0  0  0  0  0  0
   10.8137    7.6260   15.4447 C   0  0  0  0  0  0  0  0  0  0  0  0
   11.7132    5.4449   14.8987 C   0  0  0  0  0  0  0  0  0  0  0  0
   11.5363    6.4827   15.8216 C   0  0  0  0  0  0  0  0  0  0  0  0
   10.2703    7.7270   14.1304 N   0  0  0  0  0  0  0  0  0  0  0  0
   11.9114    7.1115   17.6925 H   0  0  0  0  0  0  0  0  0  0  0  0
   12.4756    4.1715   15.2318 C   0  0  0  0  0  0  0  0  0  0  0  0
   11.5233    2.9953   15.5156 C   0  0  0  0  0  0  0  0  0  0  0  0
   12.2521    1.7570   15.6564 O   0  0  0  0  0  0  0  0  0  0  0  0
   10.8295    1.2852   17.5985 O   0  0  0  0  0  0  0  0  0  0  0  0
   11.8047   -0.6505   16.2305 O   0  0  0  0  0  0  0  0  0  0  0  0
   13.3257    0.7357   17.6625 O   0  0  0  0  0  0  0  0  0  0  0  0
   12.0336    0.7019   16.8781 P   0  0  0  0  0  0  0  0  0  0  0  0
   10.6059    0.7264   18.3592 H   0  0  0  0  0  0  0  0  0  0  0  0
   11.6681   -1.3198   16.9192 H   0  0  0  0  0  0  0  0  0  0  0  0
    9.5276    8.9291   13.7733 C   0  0  0  0  0  0  0  0  0  0  0  0
    7.0942    9.8607   13.2663 O   0  0  0  0  0  0  0  0  0  0  0  0
    7.2450    7.5569   14.2623 O   0  0  0  0  0  0  0  0  0  0  0  0
    7.8648    9.5996   15.6362 O   0  0  0  0  0  0  0  0  0  0  0  0
    7.7983    8.9565   14.2532 P   0  0  0  0  0  0  0  0  0  0  0  0
    6.1507    9.9071   13.4865 H   0  0  0  0  0  0  0  0  0  0  0  0
    6.9700    9.6687   16.0040 H   0  0  0  0  0  0  0  0  0  0  0  0
  1  5  2  0  0  0
 20 23  1  0  0  0
 13 16  1  0  0  0
  2  7  1  0  0  0
 21 23  2  0  0  0
 22 23  1  0  0  0
 14 16  1  0  0  0
 15 16  2  0  0  0
  3  4  2  0  0  0
  3  6  1  0  0  0
  4  8  1  0  0  0
 11 10  1  0  0  0
 11 12  1  0  0  0
 10  6  1  0  0  0
 19  8  1  0  0  0
 19 23  1  0  0  0
 12 16  1  0  0  0
  5  7  1  0  0  0
  5  8  1  0  0  0
  6  7  2  0  0  0
 20 24  1  0  0  0
 13 17  1  0  0  0
  2  9  1  0  0  0
 22 25  1  0  0  0
 14 18  1  0  0  0
M  END
> <minimizedAffinity>
-5.89481

$$$$
