6CZC_TTP_A_302


 35 36  0  0  0  0  0  0  0  0999 V2000
    0.5027  -34.2135   20.2862 C   0  0  0  0  0  0  0  0  0  0  0  0
    0.9951  -35.4632   21.0392 C   0  0  0  0  0  0  0  0  0  0  0  0
    0.9133  -35.4077   22.4784 O   0  0  0  0  0  0  0  0  0  0  0  0
    0.3057  -36.7657   20.6626 C   0  0  0  0  0  0  0  0  0  0  0  0
    1.0154  -37.4318   19.6208 O   0  0  0  0  0  0  0  0  0  0  0  0
    0.3954  -37.6474   21.8917 C   0  0  0  0  0  0  0  0  0  0  0  0
    1.0713  -36.7650   22.9385 C   0  0  0  0  0  0  0  0  0  0  0  0
    1.9244  -37.6077   19.9099 H   0  0  0  0  0  0  0  0  0  0  0  0
    0.5299  -37.0721   24.2741 N   0  0  0  0  0  0  0  0  0  0  0  0
    1.2058  -37.9808   25.1318 C   0  0  0  0  0  0  0  0  0  0  0  0
    2.2789  -38.5147   24.7679 O   0  0  0  0  0  0  0  0  0  0  0  0
    0.7216  -38.2877   26.3448 N   0  0  0  0  0  0  0  0  0  0  0  0
   -0.4207  -37.7543   26.7880 C   0  0  0  0  0  0  0  0  0  0  0  0
   -0.8630  -38.0453   27.9240 O   0  0  0  0  0  0  0  0  0  0  0  0
   -1.1562  -36.8074   25.9132 C   0  0  0  0  0  0  0  0  0  0  0  0
   -2.4472  -36.1860   26.3797 C   0  0  0  0  0  0  0  0  0  0  0  0
   -0.6278  -36.5121   24.6613 C   0  0  0  0  0  0  0  0  0  0  0  0
    1.2164  -38.9167   26.9183 H   0  0  0  0  0  0  0  0  0  0  0  0
   -0.6624  -33.4920   20.7682 O   0  0  0  0  0  0  0  0  0  0  0  0
   -2.0488  -33.6643   19.9231 P   0  0  0  0  0  0  0  0  0  0  0  0
   -2.3101  -32.3783   19.1562 O   0  0  0  0  0  0  0  0  0  0  0  0
   -2.0705  -34.8401   18.9808 O   0  0  0  0  0  0  0  0  0  0  0  0
   -2.9240  -34.8701   18.5208 H   0  0  0  0  0  0  0  0  0  0  0  0
   -3.1933  -33.9611   21.0094 O   0  0  0  0  0  0  0  0  0  0  0  0
   -3.8237  -35.4257   21.2268 P   0  0  0  0  0  0  0  0  0  0  0  0
   -2.8740  -36.3464   21.9883 O   0  0  0  0  0  0  0  0  0  0  0  0
   -4.2603  -36.0367   19.9172 O   0  0  0  0  0  0  0  0  0  0  0  0
   -3.4784  -36.2801   19.3974 H   0  0  0  0  0  0  0  0  0  0  0  0
   -5.1405  -35.0471   22.0353 O   0  0  0  0  0  0  0  0  0  0  0  0
   -6.1779  -34.0197   21.3917 P   0  0  0  0  0  0  0  0  0  0  0  0
   -7.5028  -34.7328   21.2803 O   0  0  0  0  0  0  0  0  0  0  0  0
   -6.2890  -32.8043   22.2702 O   0  0  0  0  0  0  0  0  0  0  0  0
   -5.6879  -33.5573   20.0441 O   0  0  0  0  0  0  0  0  0  0  0  0
   -6.6033  -33.0683   23.1491 H   0  0  0  0  0  0  0  0  0  0  0  0
   -5.6050  -34.3203   19.4509 H   0  0  0  0  0  0  0  0  0  0  0  0
 20 21  2  0  0  0
 20 22  1  0  0  0
 20 24  1  0  0  0
 20 19  1  0  0  0
 24 25  1  0  0  0
 25 26  2  0  0  0
 25 27  1  0  0  0
 25 29  1  0  0  0
 29 30  1  0  0  0
 30 31  2  0  0  0
 30 32  1  0  0  0
 30 33  1  0  0  0
 19  1  1  0  0  0
  1  2  1  0  0  0
  2  3  1  0  0  0
  2  4  1  0  0  0
  3  7  1  0  0  0
  4  5  1  0  0  0
  4  6  1  0  0  0
  6  7  1  0  0  0
  7  9  1  0  0  0
  9 10  1  0  0  0
  9 17  1  0  0  0
 10 11  2  0  0  0
 10 12  1  0  0  0
 12 13  1  0  0  0
 13 14  2  0  0  0
 13 15  1  0  0  0
 15 16  1  0  0  0
 15 17  2  0  0  0
 22 23  1  0  0  0
 27 28  1  0  0  0
 32 34  1  0  0  0
 33 35  1  0  0  0
  5  8  1  0  0  0
 12 18  1  0  0  0
M  END
> <minimizedAffinity>
-9.47205

$$$$
6CZC_TTP_A_302


 35 36  0  0  0  0  0  0  0  0999 V2000
   -6.0649  -38.6182   21.4339 C   0  0  0  0  0  0  0  0  0  0  0  0
   -4.6375  -39.1697   21.2620 C   0  0  0  0  0  0  0  0  0  0  0  0
   -3.6460  -38.2272   20.8043 O   0  0  0  0  0  0  0  0  0  0  0  0
   -4.0275  -39.7999   22.5047 C   0  0  0  0  0  0  0  0  0  0  0  0
   -4.2863  -41.2014   22.5413 O   0  0  0  0  0  0  0  0  0  0  0  0
   -2.5290  -39.6312   22.3565 C   0  0  0  0  0  0  0  0  0  0  0  0
   -2.3663  -38.8398   21.0610 C   0  0  0  0  0  0  0  0  0  0  0  0
   -3.9232  -41.6182   21.7442 H   0  0  0  0  0  0  0  0  0  0  0  0
   -1.2139  -37.9286   21.1747 N   0  0  0  0  0  0  0  0  0  0  0  0
   -0.6590  -37.3237   20.0152 C   0  0  0  0  0  0  0  0  0  0  0  0
   -1.1568  -37.5445   18.8872 O   0  0  0  0  0  0  0  0  0  0  0  0
    0.4007  -36.5047   20.0940 N   0  0  0  0  0  0  0  0  0  0  0  0
    0.9787  -36.2336   21.2680 C   0  0  0  0  0  0  0  0  0  0  0  0
    1.9664  -35.4648   21.3312 O   0  0  0  0  0  0  0  0  0  0  0  0
    0.4287  -36.8560   22.4981 C   0  0  0  0  0  0  0  0  0  0  0  0
    1.0541  -36.5730   23.8394 C   0  0  0  0  0  0  0  0  0  0  0  0
   -0.6693  -37.7013   22.3812 C   0  0  0  0  0  0  0  0  0  0  0  0
    0.7586  -36.0963   19.2728 H   0  0  0  0  0  0  0  0  0  0  0  0
   -6.4466  -37.3827   20.7719 O   0  0  0  0  0  0  0  0  0  0  0  0
   -7.1135  -36.2152   21.6982 P   0  0  0  0  0  0  0  0  0  0  0  0
   -8.2075  -35.5287   20.8969 O   0  0  0  0  0  0  0  0  0  0  0  0
   -7.6636  -36.6943   23.0169 O   0  0  0  0  0  0  0  0  0  0  0  0
   -8.0391  -35.9433   23.5026 H   0  0  0  0  0  0  0  0  0  0  0  0
   -5.9177  -35.2101   22.0695 O   0  0  0  0  0  0  0  0  0  0  0  0
   -5.8097  -33.7265   21.4555 P   0  0  0  0  0  0  0  0  0  0  0  0
   -6.5594  -32.7036   22.3046 O   0  0  0  0  0  0  0  0  0  0  0  0
   -6.2618  -33.6928   20.0155 O   0  0  0  0  0  0  0  0  0  0  0  0
   -7.2242  -33.8073   19.9760 H   0  0  0  0  0  0  0  0  0  0  0  0
   -4.2304  -33.5350   21.4607 O   0  0  0  0  0  0  0  0  0  0  0  0
   -3.2951  -34.7928   21.1625 P   0  0  0  0  0  0  0  0  0  0  0  0
   -1.9416  -34.2588   20.7635 O   0  0  0  0  0  0  0  0  0  0  0  0
   -3.1982  -35.6479   22.3956 O   0  0  0  0  0  0  0  0  0  0  0  0
   -3.8937  -35.6425   20.0718 O   0  0  0  0  0  0  0  0  0  0  0  0
   -2.8150  -35.1287   23.1198 H   0  0  0  0  0  0  0  0  0  0  0  0
   -3.9703  -35.1186   19.2591 H   0  0  0  0  0  0  0  0  0  0  0  0
 20 21  2  0  0  0
 20 22  1  0  0  0
 20 24  1  0  0  0
 20 19  1  0  0  0
 24 25  1  0  0  0
 25 26  2  0  0  0
 25 27  1  0  0  0
 25 29  1  0  0  0
 29 30  1  0  0  0
 30 31  2  0  0  0
 30 32  1  0  0  0
 30 33  1  0  0  0
 19  1  1  0  0  0
  1  2  1  0  0  0
  2  3  1  0  0  0
  2  4  1  0  0  0
  3  7  1  0  0  0
  4  5  1  0  0  0
  4  6  1  0  0  0
  6  7  1  0  0  0
  7  9  1  0  0  0
  9 10  1  0  0  0
  9 17  1  0  0  0
 10 11  2  0  0  0
 10 12  1  0  0  0
 12 13  1  0  0  0
 13 14  2  0  0  0
 13 15  1  0  0  0
 15 16  1  0  0  0
 15 17  2  0  0  0
 22 23  1  0  0  0
 27 28  1  0  0  0
 32 34  1  0  0  0
 33 35  1  0  0  0
  5  8  1  0  0  0
 12 18  1  0  0  0
M  END
> <minimizedAffinity>
-9.24833

$$$$
6CZC_TTP_A_302


 35 36  0  0  0  0  0  0  0  0999 V2000
   -3.9255  -37.4377   22.5280 C   0  0  0  0  0  0  0  0  0  0  0  0
   -5.2566  -37.6238   21.7766 C   0  0  0  0  0  0  0  0  0  0  0  0
   -6.3961  -37.9788   22.5867 O   0  0  0  0  0  0  0  0  0  0  0  0
   -5.7193  -36.4253   20.9623 C   0  0  0  0  0  0  0  0  0  0  0  0
   -5.2476  -36.5123   19.6197 O   0  0  0  0  0  0  0  0  0  0  0  0
   -7.2302  -36.5257   20.9070 C   0  0  0  0  0  0  0  0  0  0  0  0
   -7.5572  -37.7463   21.7640 C   0  0  0  0  0  0  0  0  0  0  0  0
   -5.5701  -37.3334   19.2163 H   0  0  0  0  0  0  0  0  0  0  0  0
   -8.8310  -37.5311   22.4728 N   0  0  0  0  0  0  0  0  0  0  0  0
  -10.0500  -38.0077   21.9205 C   0  0  0  0  0  0  0  0  0  0  0  0
  -10.0507  -38.6324   20.8347 O   0  0  0  0  0  0  0  0  0  0  0  0
  -11.2229  -37.8077   22.5404 N   0  0  0  0  0  0  0  0  0  0  0  0
  -11.2878  -37.1448   23.6989 C   0  0  0  0  0  0  0  0  0  0  0  0
  -12.3882  -36.9659   24.2715 O   0  0  0  0  0  0  0  0  0  0  0  0
  -10.0333  -36.6263   24.2991 C   0  0  0  0  0  0  0  0  0  0  0  0
  -10.0679  -35.8747   25.6046 C   0  0  0  0  0  0  0  0  0  0  0  0
   -8.8349  -36.8494   23.6299 C   0  0  0  0  0  0  0  0  0  0  0  0
  -12.0499  -38.1554   22.1349 H   0  0  0  0  0  0  0  0  0  0  0  0
   -2.9808  -36.4270   22.0848 O   0  0  0  0  0  0  0  0  0  0  0  0
   -1.8264  -36.8963   21.0299 P   0  0  0  0  0  0  0  0  0  0  0  0
   -0.9978  -37.9939   21.6772 O   0  0  0  0  0  0  0  0  0  0  0  0
   -2.3452  -37.3620   19.6938 O   0  0  0  0  0  0  0  0  0  0  0  0
   -1.5997  -37.6211   19.1300 H   0  0  0  0  0  0  0  0  0  0  0  0
   -0.9529  -35.5852   20.7201 O   0  0  0  0  0  0  0  0  0  0  0  0
   -1.5309  -34.3346   19.8886 P   0  0  0  0  0  0  0  0  0  0  0  0
   -1.2287  -33.0060   20.5761 O   0  0  0  0  0  0  0  0  0  0  0  0
   -3.0060  -34.4939   19.6096 O   0  0  0  0  0  0  0  0  0  0  0  0
   -3.5052  -34.3768   20.4330 H   0  0  0  0  0  0  0  0  0  0  0  0
   -0.7636  -34.5358   18.5096 O   0  0  0  0  0  0  0  0  0  0  0  0
    0.7878  -34.9081   18.5319 P   0  0  0  0  0  0  0  0  0  0  0  0
    1.4039  -34.3316   17.2810 O   0  0  0  0  0  0  0  0  0  0  0  0
    1.4238  -34.3290   19.7653 O   0  0  0  0  0  0  0  0  0  0  0  0
    0.9660  -36.4028   18.5934 O   0  0  0  0  0  0  0  0  0  0  0  0
    1.3262  -33.3640   19.7568 H   0  0  0  0  0  0  0  0  0  0  0  0
    0.5652  -36.8088   17.8089 H   0  0  0  0  0  0  0  0  0  0  0  0
 20 21  2  0  0  0
 20 22  1  0  0  0
 20 24  1  0  0  0
 20 19  1  0  0  0
 24 25  1  0  0  0
 25 26  2  0  0  0
 25 27  1  0  0  0
 25 29  1  0  0  0
 29 30  1  0  0  0
 30 31  2  0  0  0
 30 32  1  0  0  0
 30 33  1  0  0  0
 19  1  1  0  0  0
  1  2  1  0  0  0
  2  3  1  0  0  0
  2  4  1  0  0  0
  3  7  1  0  0  0
  4  5  1  0  0  0
  4  6  1  0  0  0
  6  7  1  0  0  0
  7  9  1  0  0  0
  9 10  1  0  0  0
  9 17  1  0  0  0
 10 11  2  0  0  0
 10 12  1  0  0  0
 12 13  1  0  0  0
 13 14  2  0  0  0
 13 15  1  0  0  0
 15 16  1  0  0  0
 15 17  2  0  0  0
 22 23  1  0  0  0
 27 28  1  0  0  0
 32 34  1  0  0  0
 33 35  1  0  0  0
  5  8  1  0  0  0
 12 18  1  0  0  0
M  END
> <minimizedAffinity>
-9.16240

$$$$
6CZC_TTP_A_302


 35 36  0  0  0  0  0  0  0  0999 V2000
   -6.9477  -35.5827   21.6718 C   0  0  0  0  0  0  0  0  0  0  0  0
   -7.7136  -36.8817   21.9834 C   0  0  0  0  0  0  0  0  0  0  0  0
   -8.4791  -36.8869   23.2061 O   0  0  0  0  0  0  0  0  0  0  0  0
   -8.6934  -37.3345   20.9118 C   0  0  0  0  0  0  0  0  0  0  0  0
   -8.0657  -38.2299   19.9970 O   0  0  0  0  0  0  0  0  0  0  0  0
   -9.7617  -38.1245   21.6403 C   0  0  0  0  0  0  0  0  0  0  0  0
   -9.3711  -38.0158   23.1122 C   0  0  0  0  0  0  0  0  0  0  0  0
   -7.7225  -38.9978   20.4802 H   0  0  0  0  0  0  0  0  0  0  0  0
  -10.5839  -37.9648   23.9475 N   0  0  0  0  0  0  0  0  0  0  0  0
  -10.5196  -38.2915   25.3285 C   0  0  0  0  0  0  0  0  0  0  0  0
   -9.4269  -38.6076   25.8532 O   0  0  0  0  0  0  0  0  0  0  0  0
  -11.6145  -38.2682   26.1034 N   0  0  0  0  0  0  0  0  0  0  0  0
  -12.8096  -37.9434   25.6012 C   0  0  0  0  0  0  0  0  0  0  0  0
  -13.8259  -37.9217   26.3343 O   0  0  0  0  0  0  0  0  0  0  0  0
  -12.9131  -37.6045   24.1599 C   0  0  0  0  0  0  0  0  0  0  0  0
  -14.2439  -37.2328   23.5590 C   0  0  0  0  0  0  0  0  0  0  0  0
  -11.7593  -37.6400   23.3846 C   0  0  0  0  0  0  0  0  0  0  0  0
  -11.5363  -38.4944   27.0584 H   0  0  0  0  0  0  0  0  0  0  0  0
   -5.9760  -35.5582   20.5922 O   0  0  0  0  0  0  0  0  0  0  0  0
   -4.7211  -36.5979   20.6942 P   0  0  0  0  0  0  0  0  0  0  0  0
   -4.4292  -36.8600   22.1627 O   0  0  0  0  0  0  0  0  0  0  0  0
   -4.9231  -37.9027   19.9678 O   0  0  0  0  0  0  0  0  0  0  0  0
   -4.1362  -38.4592   20.0779 H   0  0  0  0  0  0  0  0  0  0  0  0
   -3.4911  -35.8784   19.9545 O   0  0  0  0  0  0  0  0  0  0  0  0
   -2.9352  -34.4355   20.4002 P   0  0  0  0  0  0  0  0  0  0  0  0
   -3.6024  -33.9394   21.6801 O   0  0  0  0  0  0  0  0  0  0  0  0
   -3.0589  -33.4289   19.2820 O   0  0  0  0  0  0  0  0  0  0  0  0
   -3.9931  -33.2020   19.1531 H   0  0  0  0  0  0  0  0  0  0  0  0
   -1.3889  -34.7701   20.5675 O   0  0  0  0  0  0  0  0  0  0  0  0
   -0.4885  -34.9513   19.2628 P   0  0  0  0  0  0  0  0  0  0  0  0
    0.7415  -35.7233   19.6721 O   0  0  0  0  0  0  0  0  0  0  0  0
   -1.2702  -35.6938   18.2145 O   0  0  0  0  0  0  0  0  0  0  0  0
   -0.1268  -33.6072   18.6863 O   0  0  0  0  0  0  0  0  0  0  0  0
   -1.5196  -36.5670   18.5552 H   0  0  0  0  0  0  0  0  0  0  0  0
    0.3802  -33.1008   19.3400 H   0  0  0  0  0  0  0  0  0  0  0  0
 20 21  2  0  0  0
 20 22  1  0  0  0
 20 24  1  0  0  0
 20 19  1  0  0  0
 24 25  1  0  0  0
 25 26  2  0  0  0
 25 27  1  0  0  0
 25 29  1  0  0  0
 29 30  1  0  0  0
 30 31  2  0  0  0
 30 32  1  0  0  0
 30 33  1  0  0  0
 19  1  1  0  0  0
  1  2  1  0  0  0
  2  3  1  0  0  0
  2  4  1  0  0  0
  3  7  1  0  0  0
  4  5  1  0  0  0
  4  6  1  0  0  0
  6  7  1  0  0  0
  7  9  1  0  0  0
  9 10  1  0  0  0
  9 17  1  0  0  0
 10 11  2  0  0  0
 10 12  1  0  0  0
 12 13  1  0  0  0
 13 14  2  0  0  0
 13 15  1  0  0  0
 15 16  1  0  0  0
 15 17  2  0  0  0
 22 23  1  0  0  0
 27 28  1  0  0  0
 32 34  1  0  0  0
 33 35  1  0  0  0
  5  8  1  0  0  0
 12 18  1  0  0  0
M  END
> <minimizedAffinity>
-8.97815

$$$$
6CZC_TTP_A_302


 35 36  0  0  0  0  0  0  0  0999 V2000
   -3.5948  -35.7953   21.4871 C   0  0  0  0  0  0  0  0  0  0  0  0
   -5.0497  -35.8090   20.9831 C   0  0  0  0  0  0  0  0  0  0  0  0
   -5.8586  -36.9225   21.4154 O   0  0  0  0  0  0  0  0  0  0  0  0
   -5.8716  -34.5767   21.3289 C   0  0  0  0  0  0  0  0  0  0  0  0
   -5.7929  -33.6065   20.2872 O   0  0  0  0  0  0  0  0  0  0  0  0
   -7.3109  -35.0468   21.3867 C   0  0  0  0  0  0  0  0  0  0  0  0
   -7.2248  -36.5515   21.1424 C   0  0  0  0  0  0  0  0  0  0  0  0
   -6.1103  -33.9963   19.4576 H   0  0  0  0  0  0  0  0  0  0  0  0
   -8.2620  -37.2442   21.9272 N   0  0  0  0  0  0  0  0  0  0  0  0
   -9.4780  -37.6474   21.3133 C   0  0  0  0  0  0  0  0  0  0  0  0
   -9.6717  -37.4347   20.0941 O   0  0  0  0  0  0  0  0  0  0  0  0
  -10.4426  -38.2639   22.0129 N   0  0  0  0  0  0  0  0  0  0  0  0
  -10.2971  -38.5149   23.3174 C   0  0  0  0  0  0  0  0  0  0  0  0
  -11.2030  -39.0941   23.9613 O   0  0  0  0  0  0  0  0  0  0  0  0
   -9.0417  -38.0991   23.9913 C   0  0  0  0  0  0  0  0  0  0  0  0
   -8.8422  -38.3660   25.4608 C   0  0  0  0  0  0  0  0  0  0  0  0
   -8.0629  -37.4608   23.2376 C   0  0  0  0  0  0  0  0  0  0  0  0
  -11.2718  -38.5362   21.5574 H   0  0  0  0  0  0  0  0  0  0  0  0
   -2.8922  -34.5321   21.6320 O   0  0  0  0  0  0  0  0  0  0  0  0
   -2.0690  -33.9831   20.3332 P   0  0  0  0  0  0  0  0  0  0  0  0
   -3.0579  -33.3556   19.3644 O   0  0  0  0  0  0  0  0  0  0  0  0
   -0.9682  -33.0046   20.6521 O   0  0  0  0  0  0  0  0  0  0  0  0
   -0.5320  -32.7296   19.8306 H   0  0  0  0  0  0  0  0  0  0  0  0
   -1.3370  -35.2647   19.7011 O   0  0  0  0  0  0  0  0  0  0  0  0
    0.1903  -35.2294   19.1954 P   0  0  0  0  0  0  0  0  0  0  0  0
    0.4381  -34.0874   18.2137 O   0  0  0  0  0  0  0  0  0  0  0  0
    0.6097  -36.5599   18.6186 O   0  0  0  0  0  0  0  0  0  0  0  0
    0.1674  -36.6968   17.7663 H   0  0  0  0  0  0  0  0  0  0  0  0
    0.9425  -35.0579   20.5867 O   0  0  0  0  0  0  0  0  0  0  0  0
    0.9259  -36.2635   21.6317 P   0  0  0  0  0  0  0  0  0  0  0  0
    0.4631  -35.7028   22.9538 O   0  0  0  0  0  0  0  0  0  0  0  0
   -0.0065  -37.3371   21.1424 O   0  0  0  0  0  0  0  0  0  0  0  0
    2.2975  -36.8763   21.7448 O   0  0  0  0  0  0  0  0  0  0  0  0
   -0.9020  -36.9739   21.0583 H   0  0  0  0  0  0  0  0  0  0  0  0
    2.9256  -36.2073   22.0594 H   0  0  0  0  0  0  0  0  0  0  0  0
 20 21  2  0  0  0
 20 22  1  0  0  0
 20 24  1  0  0  0
 20 19  1  0  0  0
 24 25  1  0  0  0
 25 26  2  0  0  0
 25 27  1  0  0  0
 25 29  1  0  0  0
 29 30  1  0  0  0
 30 31  2  0  0  0
 30 32  1  0  0  0
 30 33  1  0  0  0
 19  1  1  0  0  0
  1  2  1  0  0  0
  2  3  1  0  0  0
  2  4  1  0  0  0
  3  7  1  0  0  0
  4  5  1  0  0  0
  4  6  1  0  0  0
  6  7  1  0  0  0
  7  9  1  0  0  0
  9 10  1  0  0  0
  9 17  1  0  0  0
 10 11  2  0  0  0
 10 12  1  0  0  0
 12 13  1  0  0  0
 13 14  2  0  0  0
 13 15  1  0  0  0
 15 16  1  0  0  0
 15 17  2  0  0  0
 22 23  1  0  0  0
 27 28  1  0  0  0
 32 34  1  0  0  0
 33 35  1  0  0  0
  5  8  1  0  0  0
 12 18  1  0  0  0
M  END
> <minimizedAffinity>
-8.93776

$$$$
6CZC_TTP_A_302


 35 36  0  0  0  0  0  0  0  0999 V2000
   -3.4249  -35.9475   21.4909 C   0  0  0  0  0  0  0  0  0  0  0  0
   -4.8892  -35.7302   21.0672 C   0  0  0  0  0  0  0  0  0  0  0  0
   -5.8437  -36.6835   21.5783 O   0  0  0  0  0  0  0  0  0  0  0  0
   -5.4749  -34.3708   21.4173 C   0  0  0  0  0  0  0  0  0  0  0  0
   -5.2987  -33.4511   20.3423 O   0  0  0  0  0  0  0  0  0  0  0  0
   -6.9661  -34.5934   21.5682 C   0  0  0  0  0  0  0  0  0  0  0  0
   -7.1438  -36.0965   21.3681 C   0  0  0  0  0  0  0  0  0  0  0  0
   -5.7243  -33.8014   19.5440 H   0  0  0  0  0  0  0  0  0  0  0  0
   -8.2330  -36.5890   22.2298 N   0  0  0  0  0  0  0  0  0  0  0  0
   -9.4737  -36.9862   21.6632 C   0  0  0  0  0  0  0  0  0  0  0  0
   -9.6464  -36.9396   20.4234 O   0  0  0  0  0  0  0  0  0  0  0  0
  -10.4844  -37.4213   22.4307 N   0  0  0  0  0  0  0  0  0  0  0  0
  -10.3630  -37.4897   23.7597 C   0  0  0  0  0  0  0  0  0  0  0  0
  -11.3122  -37.9003   24.4675 O   0  0  0  0  0  0  0  0  0  0  0  0
   -9.0823  -37.0742   24.3845 C   0  0  0  0  0  0  0  0  0  0  0  0
   -8.9088  -37.1383   25.8799 C   0  0  0  0  0  0  0  0  0  0  0  0
   -8.0555  -36.6266   23.5605 C   0  0  0  0  0  0  0  0  0  0  0  0
  -11.3302  -37.6949   22.0075 H   0  0  0  0  0  0  0  0  0  0  0  0
   -2.3918  -36.0801   20.4781 O   0  0  0  0  0  0  0  0  0  0  0  0
   -1.8862  -37.5910   20.1215 P   0  0  0  0  0  0  0  0  0  0  0  0
   -2.8503  -38.5840   20.7500 O   0  0  0  0  0  0  0  0  0  0  0  0
   -1.7403  -37.8757   18.6489 O   0  0  0  0  0  0  0  0  0  0  0  0
   -1.4379  -38.7890   18.5245 H   0  0  0  0  0  0  0  0  0  0  0  0
   -0.4073  -37.7171   20.7338 O   0  0  0  0  0  0  0  0  0  0  0  0
    0.6717  -36.5264   20.6468 P   0  0  0  0  0  0  0  0  0  0  0  0
    2.0236  -36.9409   21.2210 O   0  0  0  0  0  0  0  0  0  0  0  0
    0.1538  -35.2661   21.2967 O   0  0  0  0  0  0  0  0  0  0  0  0
    0.1309  -35.3846   22.2592 H   0  0  0  0  0  0  0  0  0  0  0  0
    0.6880  -36.2769   19.0756 O   0  0  0  0  0  0  0  0  0  0  0  0
    0.5700  -34.7837   18.5257 P   0  0  0  0  0  0  0  0  0  0  0  0
    1.6279  -33.9653   19.2239 O   0  0  0  0  0  0  0  0  0  0  0  0
    0.7781  -34.7810   17.0365 O   0  0  0  0  0  0  0  0  0  0  0  0
   -0.8093  -34.2375   18.7881 O   0  0  0  0  0  0  0  0  0  0  0  0
    1.6606  -35.1284   16.8327 H   0  0  0  0  0  0  0  0  0  0  0  0
   -0.9761  -34.2257   19.7436 H   0  0  0  0  0  0  0  0  0  0  0  0
 20 21  2  0  0  0
 20 22  1  0  0  0
 20 24  1  0  0  0
 20 19  1  0  0  0
 24 25  1  0  0  0
 25 26  2  0  0  0
 25 27  1  0  0  0
 25 29  1  0  0  0
 29 30  1  0  0  0
 30 31  2  0  0  0
 30 32  1  0  0  0
 30 33  1  0  0  0
 19  1  1  0  0  0
  1  2  1  0  0  0
  2  3  1  0  0  0
  2  4  1  0  0  0
  3  7  1  0  0  0
  4  5  1  0  0  0
  4  6  1  0  0  0
  6  7  1  0  0  0
  7  9  1  0  0  0
  9 10  1  0  0  0
  9 17  1  0  0  0
 10 11  2  0  0  0
 10 12  1  0  0  0
 12 13  1  0  0  0
 13 14  2  0  0  0
 13 15  1  0  0  0
 15 16  1  0  0  0
 15 17  2  0  0  0
 22 23  1  0  0  0
 27 28  1  0  0  0
 32 34  1  0  0  0
 33 35  1  0  0  0
  5  8  1  0  0  0
 12 18  1  0  0  0
M  END
> <minimizedAffinity>
-8.91071

$$$$
6CZC_TTP_A_302


 35 36  0  0  0  0  0  0  0  0999 V2000
   -4.3187  -36.5379   20.8640 C   0  0  0  0  0  0  0  0  0  0  0  0
   -5.8425  -36.4666   20.6548 C   0  0  0  0  0  0  0  0  0  0  0  0
   -6.6030  -37.5854   21.1558 O   0  0  0  0  0  0  0  0  0  0  0  0
   -6.5251  -35.2408   21.2423 C   0  0  0  0  0  0  0  0  0  0  0  0
   -6.6044  -34.1939   20.2778 O   0  0  0  0  0  0  0  0  0  0  0  0
   -7.9463  -35.6693   21.5467 C   0  0  0  0  0  0  0  0  0  0  0  0
   -7.9778  -37.1518   21.1829 C   0  0  0  0  0  0  0  0  0  0  0  0
   -7.0932  -34.5066   19.5005 H   0  0  0  0  0  0  0  0  0  0  0  0
   -8.8748  -37.8722   22.1036 N   0  0  0  0  0  0  0  0  0  0  0  0
   -8.9499  -39.2904   22.0707 C   0  0  0  0  0  0  0  0  0  0  0  0
   -8.2395  -39.9428   21.2714 O   0  0  0  0  0  0  0  0  0  0  0  0
   -9.7723  -39.9653   22.8880 N   0  0  0  0  0  0  0  0  0  0  0  0
  -10.5581  -39.3259   23.7594 C   0  0  0  0  0  0  0  0  0  0  0  0
  -11.3208  -39.9659   24.5207 O   0  0  0  0  0  0  0  0  0  0  0  0
  -10.5102  -37.8435   23.8137 C   0  0  0  0  0  0  0  0  0  0  0  0
  -11.3815  -37.0886   24.7840 C   0  0  0  0  0  0  0  0  0  0  0  0
   -9.6480  -37.1746   22.9517 C   0  0  0  0  0  0  0  0  0  0  0  0
   -9.7973  -40.9486   22.8450 H   0  0  0  0  0  0  0  0  0  0  0  0
   -3.4356  -35.7552   20.0167 O   0  0  0  0  0  0  0  0  0  0  0  0
   -2.9432  -34.3073   20.5885 P   0  0  0  0  0  0  0  0  0  0  0  0
   -2.9698  -33.3031   19.4478 O   0  0  0  0  0  0  0  0  0  0  0  0
   -3.7429  -33.7848   21.7540 O   0  0  0  0  0  0  0  0  0  0  0  0
   -3.3874  -32.9259   22.0310 H   0  0  0  0  0  0  0  0  0  0  0  0
   -1.4581  -34.5382   21.1533 O   0  0  0  0  0  0  0  0  0  0  0  0
   -0.1416  -34.1167   20.3293 P   0  0  0  0  0  0  0  0  0  0  0  0
    0.4903  -32.8414   20.8804 O   0  0  0  0  0  0  0  0  0  0  0  0
   -0.4308  -34.0010   18.8522 O   0  0  0  0  0  0  0  0  0  0  0  0
   -0.9740  -33.2140   18.6897 H   0  0  0  0  0  0  0  0  0  0  0  0
    0.7483  -35.4189   20.5373 O   0  0  0  0  0  0  0  0  0  0  0  0
    0.5951  -36.6349   19.5156 P   0  0  0  0  0  0  0  0  0  0  0  0
    1.3867  -37.7911   20.0750 O   0  0  0  0  0  0  0  0  0  0  0  0
   -0.8592  -36.9910   19.3761 O   0  0  0  0  0  0  0  0  0  0  0  0
    1.0937  -36.2370   18.1508 O   0  0  0  0  0  0  0  0  0  0  0  0
   -1.2123  -37.2529   20.2408 H   0  0  0  0  0  0  0  0  0  0  0  0
    2.0327  -36.0002   18.2059 H   0  0  0  0  0  0  0  0  0  0  0  0
 20 21  2  0  0  0
 20 22  1  0  0  0
 20 24  1  0  0  0
 20 19  1  0  0  0
 24 25  1  0  0  0
 25 26  2  0  0  0
 25 27  1  0  0  0
 25 29  1  0  0  0
 29 30  1  0  0  0
 30 31  2  0  0  0
 30 32  1  0  0  0
 30 33  1  0  0  0
 19  1  1  0  0  0
  1  2  1  0  0  0
  2  3  1  0  0  0
  2  4  1  0  0  0
  3  7  1  0  0  0
  4  5  1  0  0  0
  4  6  1  0  0  0
  6  7  1  0  0  0
  7  9  1  0  0  0
  9 10  1  0  0  0
  9 17  1  0  0  0
 10 11  2  0  0  0
 10 12  1  0  0  0
 12 13  1  0  0  0
 13 14  2  0  0  0
 13 15  1  0  0  0
 15 16  1  0  0  0
 15 17  2  0  0  0
 22 23  1  0  0  0
 27 28  1  0  0  0
 32 34  1  0  0  0
 33 35  1  0  0  0
  5  8  1  0  0  0
 12 18  1  0  0  0
M  END
> <minimizedAffinity>
-8.85953

$$$$
6CZC_TTP_A_302


 35 36  0  0  0  0  0  0  0  0999 V2000
   -1.9626  -38.0254   20.9602 C   0  0  0  0  0  0  0  0  0  0  0  0
   -3.1162  -37.0241   21.1540 C   0  0  0  0  0  0  0  0  0  0  0  0
   -4.3865  -37.4048   20.5863 O   0  0  0  0  0  0  0  0  0  0  0  0
   -3.4306  -36.6624   22.5976 C   0  0  0  0  0  0  0  0  0  0  0  0
   -2.7024  -35.5046   23.0001 O   0  0  0  0  0  0  0  0  0  0  0  0
   -4.8990  -36.2891   22.6163 C   0  0  0  0  0  0  0  0  0  0  0  0
   -5.3667  -36.5321   21.1834 C   0  0  0  0  0  0  0  0  0  0  0  0
   -2.9246  -34.7634   22.4152 H   0  0  0  0  0  0  0  0  0  0  0  0
   -6.7587  -37.0154   21.1884 N   0  0  0  0  0  0  0  0  0  0  0  0
   -7.8375  -36.1003   21.0577 C   0  0  0  0  0  0  0  0  0  0  0  0
   -7.6143  -34.8757   20.9175 O   0  0  0  0  0  0  0  0  0  0  0  0
   -9.1127  -36.5168   21.0769 N   0  0  0  0  0  0  0  0  0  0  0  0
   -9.4151  -37.8096   21.2278 C   0  0  0  0  0  0  0  0  0  0  0  0
  -10.6096  -38.1887   21.2415 O   0  0  0  0  0  0  0  0  0  0  0  0
   -8.3116  -38.7912   21.3754 C   0  0  0  0  0  0  0  0  0  0  0  0
   -8.6146  -40.2572   21.5469 C   0  0  0  0  0  0  0  0  0  0  0  0
   -7.0013  -38.3261   21.3528 C   0  0  0  0  0  0  0  0  0  0  0  0
   -9.8381  -35.8585   20.9782 H   0  0  0  0  0  0  0  0  0  0  0  0
   -0.6343  -37.7012   21.4510 O   0  0  0  0  0  0  0  0  0  0  0  0
    0.3886  -36.9710   20.4087 P   0  0  0  0  0  0  0  0  0  0  0  0
    1.5968  -37.8709   20.2072 O   0  0  0  0  0  0  0  0  0  0  0  0
   -0.2176  -36.6156   19.0756 O   0  0  0  0  0  0  0  0  0  0  0  0
    0.4525  -36.1884   18.5193 H   0  0  0  0  0  0  0  0  0  0  0  0
    0.7862  -35.5718   21.0884 O   0  0  0  0  0  0  0  0  0  0  0  0
    0.2822  -34.1551   20.5153 P   0  0  0  0  0  0  0  0  0  0  0  0
    0.5347  -34.0258   19.0157 O   0  0  0  0  0  0  0  0  0  0  0  0
    0.8873  -33.0045   21.2828 O   0  0  0  0  0  0  0  0  0  0  0  0
    1.8303  -32.9323   21.0671 H   0  0  0  0  0  0  0  0  0  0  0  0
   -1.2584  -34.2267   20.9057 O   0  0  0  0  0  0  0  0  0  0  0  0
   -2.3504  -33.7441   19.8471 P   0  0  0  0  0  0  0  0  0  0  0  0
   -2.4183  -34.7933   18.7650 O   0  0  0  0  0  0  0  0  0  0  0  0
   -3.6788  -33.5880   20.5344 O   0  0  0  0  0  0  0  0  0  0  0  0
   -1.9741  -32.3982   19.2844 O   0  0  0  0  0  0  0  0  0  0  0  0
   -3.9510  -34.4402   20.9093 H   0  0  0  0  0  0  0  0  0  0  0  0
   -1.1184  -32.4644   18.8326 H   0  0  0  0  0  0  0  0  0  0  0  0
 20 21  2  0  0  0
 20 22  1  0  0  0
 20 24  1  0  0  0
 20 19  1  0  0  0
 24 25  1  0  0  0
 25 26  2  0  0  0
 25 27  1  0  0  0
 25 29  1  0  0  0
 29 30  1  0  0  0
 30 31  2  0  0  0
 30 32  1  0  0  0
 30 33  1  0  0  0
 19  1  1  0  0  0
  1  2  1  0  0  0
  2  3  1  0  0  0
  2  4  1  0  0  0
  3  7  1  0  0  0
  4  5  1  0  0  0
  4  6  1  0  0  0
  6  7  1  0  0  0
  7  9  1  0  0  0
  9 10  1  0  0  0
  9 17  1  0  0  0
 10 11  2  0  0  0
 10 12  1  0  0  0
 12 13  1  0  0  0
 13 14  2  0  0  0
 13 15  1  0  0  0
 15 16  1  0  0  0
 15 17  2  0  0  0
 22 23  1  0  0  0
 27 28  1  0  0  0
 32 34  1  0  0  0
 33 35  1  0  0  0
  5  8  1  0  0  0
 12 18  1  0  0  0
M  END
> <minimizedAffinity>
-8.74164

$$$$
6CZC_TTP_A_302


 35 36  0  0  0  0  0  0  0  0999 V2000
   -3.7635  -37.3069   20.9108 C   0  0  0  0  0  0  0  0  0  0  0  0
   -5.0797  -36.5220   20.7604 C   0  0  0  0  0  0  0  0  0  0  0  0
   -6.2870  -37.2443   21.0791 O   0  0  0  0  0  0  0  0  0  0  0  0
   -5.1708  -35.2390   21.5724 C   0  0  0  0  0  0  0  0  0  0  0  0
   -4.7197  -34.1228   20.8086 O   0  0  0  0  0  0  0  0  0  0  0  0
   -6.6473  -35.0252   21.8371 C   0  0  0  0  0  0  0  0  0  0  0  0
   -7.3206  -36.2490   21.2204 C   0  0  0  0  0  0  0  0  0  0  0  0
   -5.2539  -34.0454   20.0027 H   0  0  0  0  0  0  0  0  0  0  0  0
   -8.4939  -36.6314   22.0257 N   0  0  0  0  0  0  0  0  0  0  0  0
   -9.6396  -37.1954   21.4034 C   0  0  0  0  0  0  0  0  0  0  0  0
   -9.6554  -37.3907   20.1662 O   0  0  0  0  0  0  0  0  0  0  0  0
  -10.7250  -37.5348   22.1152 N   0  0  0  0  0  0  0  0  0  0  0  0
  -10.7706  -37.3470   23.4375 C   0  0  0  0  0  0  0  0  0  0  0  0
  -11.7883  -37.6702   24.0937 O   0  0  0  0  0  0  0  0  0  0  0  0
   -9.5933  -36.7520   24.1177 C   0  0  0  0  0  0  0  0  0  0  0  0
   -9.6085  -36.5261   25.6074 C   0  0  0  0  0  0  0  0  0  0  0  0
   -8.4852  -36.4101   23.3504 C   0  0  0  0  0  0  0  0  0  0  0  0
  -11.5012  -37.9290   21.6554 H   0  0  0  0  0  0  0  0  0  0  0  0
   -2.5249  -36.5962   21.1775 O   0  0  0  0  0  0  0  0  0  0  0  0
   -1.3414  -36.7142   20.0589 P   0  0  0  0  0  0  0  0  0  0  0  0
   -0.3414  -37.7609   20.5223 O   0  0  0  0  0  0  0  0  0  0  0  0
   -1.8197  -37.0386   18.6672 O   0  0  0  0  0  0  0  0  0  0  0  0
   -1.0589  -37.0903   18.0677 H   0  0  0  0  0  0  0  0  0  0  0  0
   -0.6820  -35.2537   19.9589 O   0  0  0  0  0  0  0  0  0  0  0  0
    0.5335  -34.9177   18.9592 P   0  0  0  0  0  0  0  0  0  0  0  0
    0.1866  -33.7783   18.0048 O   0  0  0  0  0  0  0  0  0  0  0  0
    0.9892  -36.1488   18.2138 O   0  0  0  0  0  0  0  0  0  0  0  0
    0.3165  -36.3992   17.5613 H   0  0  0  0  0  0  0  0  0  0  0  0
    1.6696  -34.5535   20.0116 O   0  0  0  0  0  0  0  0  0  0  0  0
    1.3904  -33.4126   21.0915 P   0  0  0  0  0  0  0  0  0  0  0  0
    2.4323  -32.3404   20.8888 O   0  0  0  0  0  0  0  0  0  0  0  0
    0.0039  -32.8649   20.8938 O   0  0  0  0  0  0  0  0  0  0  0  0
    1.4539  -33.9840   22.4841 O   0  0  0  0  0  0  0  0  0  0  0  0
   -0.0708  -32.4879   20.0032 H   0  0  0  0  0  0  0  0  0  0  0  0
    2.3389  -34.3471   22.6445 H   0  0  0  0  0  0  0  0  0  0  0  0
 20 21  2  0  0  0
 20 22  1  0  0  0
 20 24  1  0  0  0
 20 19  1  0  0  0
 24 25  1  0  0  0
 25 26  2  0  0  0
 25 27  1  0  0  0
 25 29  1  0  0  0
 29 30  1  0  0  0
 30 31  2  0  0  0
 30 32  1  0  0  0
 30 33  1  0  0  0
 19  1  1  0  0  0
  1  2  1  0  0  0
  2  3  1  0  0  0
  2  4  1  0  0  0
  3  7  1  0  0  0
  4  5  1  0  0  0
  4  6  1  0  0  0
  6  7  1  0  0  0
  7  9  1  0  0  0
  9 10  1  0  0  0
  9 17  1  0  0  0
 10 11  2  0  0  0
 10 12  1  0  0  0
 12 13  1  0  0  0
 13 14  2  0  0  0
 13 15  1  0  0  0
 15 16  1  0  0  0
 15 17  2  0  0  0
 22 23  1  0  0  0
 27 28  1  0  0  0
 32 34  1  0  0  0
 33 35  1  0  0  0
  5  8  1  0  0  0
 12 18  1  0  0  0
M  END
> <minimizedAffinity>
-8.74097

$$$$
6CZC_TTP_A_302


 35 36  0  0  0  0  0  0  0  0999 V2000
   -3.6849  -35.0213   20.3766 C   0  0  0  0  0  0  0  0  0  0  0  0
   -2.1477  -35.0590   20.2953 C   0  0  0  0  0  0  0  0  0  0  0  0
   -1.4515  -35.2141   21.5492 O   0  0  0  0  0  0  0  0  0  0  0  0
   -1.5682  -36.1393   19.3949 C   0  0  0  0  0  0  0  0  0  0  0  0
   -1.3675  -35.6436   18.0733 O   0  0  0  0  0  0  0  0  0  0  0  0
   -0.1985  -36.4539   19.9613 C   0  0  0  0  0  0  0  0  0  0  0  0
   -0.0991  -35.5817   21.2105 C   0  0  0  0  0  0  0  0  0  0  0  0
   -0.7715  -34.8789   18.1018 H   0  0  0  0  0  0  0  0  0  0  0  0
    0.6692  -36.2872   22.2513 N   0  0  0  0  0  0  0  0  0  0  0  0
    1.8052  -35.6748   22.8451 C   0  0  0  0  0  0  0  0  0  0  0  0
    2.1529  -34.5211   22.5028 O   0  0  0  0  0  0  0  0  0  0  0  0
    2.5290  -36.3059   23.7820 N   0  0  0  0  0  0  0  0  0  0  0  0
    2.2111  -37.5394   24.1861 C   0  0  0  0  0  0  0  0  0  0  0  0
    2.8920  -38.1192   25.0641 O   0  0  0  0  0  0  0  0  0  0  0  0
    1.0346  -38.2111   23.5798 C   0  0  0  0  0  0  0  0  0  0  0  0
    0.6459  -39.6016   24.0110 C   0  0  0  0  0  0  0  0  0  0  0  0
    0.3071  -37.5297   22.6102 C   0  0  0  0  0  0  0  0  0  0  0  0
    3.3076  -35.8525   24.1787 H   0  0  0  0  0  0  0  0  0  0  0  0
   -4.3334  -34.6253   21.6148 O   0  0  0  0  0  0  0  0  0  0  0  0
   -5.9106  -34.2113   21.5316 P   0  0  0  0  0  0  0  0  0  0  0  0
   -6.0950  -32.8698   22.2219 O   0  0  0  0  0  0  0  0  0  0  0  0
   -6.4745  -34.1544   20.1352 O   0  0  0  0  0  0  0  0  0  0  0  0
   -7.4105  -33.9028   20.1745 H   0  0  0  0  0  0  0  0  0  0  0  0
   -6.7146  -35.3863   22.2737 O   0  0  0  0  0  0  0  0  0  0  0  0
   -7.6577  -36.4244   21.4846 P   0  0  0  0  0  0  0  0  0  0  0  0
   -8.8395  -35.7257   20.8179 O   0  0  0  0  0  0  0  0  0  0  0  0
   -8.1112  -37.5489   22.3840 O   0  0  0  0  0  0  0  0  0  0  0  0
   -8.7557  -37.2103   23.0250 H   0  0  0  0  0  0  0  0  0  0  0  0
   -6.6064  -37.0338   20.4578 O   0  0  0  0  0  0  0  0  0  0  0  0
   -5.6048  -38.1715   20.9561 P   0  0  0  0  0  0  0  0  0  0  0  0
   -6.4067  -39.4413   21.1003 O   0  0  0  0  0  0  0  0  0  0  0  0
   -4.4992  -38.3402   19.9509 O   0  0  0  0  0  0  0  0  0  0  0  0
   -4.9683  -37.7724   22.2620 O   0  0  0  0  0  0  0  0  0  0  0  0
   -4.8766  -38.5982   19.0954 H   0  0  0  0  0  0  0  0  0  0  0  0
   -5.6571  -37.6550   22.9349 H   0  0  0  0  0  0  0  0  0  0  0  0
 20 21  2  0  0  0
 20 22  1  0  0  0
 20 24  1  0  0  0
 20 19  1  0  0  0
 24 25  1  0  0  0
 25 26  2  0  0  0
 25 27  1  0  0  0
 25 29  1  0  0  0
 29 30  1  0  0  0
 30 31  2  0  0  0
 30 32  1  0  0  0
 30 33  1  0  0  0
 19  1  1  0  0  0
  1  2  1  0  0  0
  2  3  1  0  0  0
  2  4  1  0  0  0
  3  7  1  0  0  0
  4  5  1  0  0  0
  4  6  1  0  0  0
  6  7  1  0  0  0
  7  9  1  0  0  0
  9 10  1  0  0  0
  9 17  1  0  0  0
 10 11  2  0  0  0
 10 12  1  0  0  0
 12 13  1  0  0  0
 13 14  2  0  0  0
 13 15  1  0  0  0
 15 16  1  0  0  0
 15 17  2  0  0  0
 22 23  1  0  0  0
 27 28  1  0  0  0
 32 34  1  0  0  0
 33 35  1  0  0  0
  5  8  1  0  0  0
 12 18  1  0  0  0
M  END
> <minimizedAffinity>
-8.73345

$$$$
