3DAZ_MZM_A_263


 16 16  0  0  0  0  0  0  0  0999 V2000
   -4.8302    2.5357   12.2978 C   0  0  0  0  0  0  0  0  0  0  0  0
   -4.4853    1.3326   13.4854 S   0  0  0  0  0  0  0  0  0  0  0  0
   -5.3447    2.2969   14.5999 C   0  0  0  0  0  0  0  0  0  0  0  0
   -5.7599    3.3958   14.1260 N   0  0  0  0  0  0  0  0  0  0  0  0
   -6.4977    4.4163   14.9121 C   0  0  0  0  0  0  0  0  0  0  0  0
   -5.5188    3.5340   12.7786 N   0  0  0  0  0  0  0  0  0  0  0  0
   -5.3848    1.7455   15.8734 N   0  0  0  0  0  0  0  0  0  0  0  0
   -4.8831    1.3274   10.3103 N   0  0  0  0  0  0  0  0  0  0  0  0
   -4.3159    2.2557   10.7013 S   0  0  0  0  0  0  0  0  0  0  0  0
   -3.1226    2.1970   10.6256 O   0  0  0  0  0  0  0  0  0  0  0  0
   -4.8099    3.0881   10.1379 O   0  0  0  0  0  0  0  0  0  0  0  0
   -5.8871    1.4726   10.4167 H   0  0  0  0  0  0  0  0  0  0  0  0
   -4.5998    0.5059   10.8444 H   0  0  0  0  0  0  0  0  0  0  0  0
   -5.0563    0.7635   16.5411 C   0  0  0  0  0  0  0  0  0  0  0  0
   -4.0202    0.1010   16.6458 O   0  0  0  0  0  0  0  0  0  0  0  0
   -6.1429    0.3601   17.2843 C   0  0  0  0  0  0  0  0  0  0  0  0
  5  4  1  0  0  0
  4  3  1  0  0  0
  4  6  1  0  0  0
 16 14  1  0  0  0
  7  3  2  0  0  0
  7 14  1  0  0  0
  3  2  1  0  0  0
 14 15  2  0  0  0
  6  1  2  0  0  0
  2  1  1  0  0  0
  1  9  1  0  0  0
  9 11  2  0  0  0
  9  8  1  0  0  0
  9 10  2  0  0  0
  8 12  1  0  0  0
  8 13  1  0  0  0
M  END
> <minimizedAffinity>
-6.73032

$$$$
3DAZ_MZM_A_263


 16 16  0  0  0  0  0  0  0  0999 V2000
   -5.2291    1.6696   15.2828 C   0  0  0  0  0  0  0  0  0  0  0  0
   -4.5362    1.4194   13.7226 S   0  0  0  0  0  0  0  0  0  0  0  0
   -5.3103    2.8587   13.2331 C   0  0  0  0  0  0  0  0  0  0  0  0
   -6.0356    3.3894   14.1258 N   0  0  0  0  0  0  0  0  0  0  0  0
   -6.8366    4.6228   13.9239 C   0  0  0  0  0  0  0  0  0  0  0  0
   -5.9636    2.7463   15.3399 N   0  0  0  0  0  0  0  0  0  0  0  0
   -5.0728    3.1745   11.9022 N   0  0  0  0  0  0  0  0  0  0  0  0
   -5.2113   -0.4705   16.1952 N   0  0  0  0  0  0  0  0  0  0  0  0
   -4.8333    0.5725   16.5202 S   0  0  0  0  0  0  0  0  0  0  0  0
   -5.2243    0.9500   17.5869 O   0  0  0  0  0  0  0  0  0  0  0  0
   -3.7242    0.4672   16.4054 O   0  0  0  0  0  0  0  0  0  0  0  0
   -4.8260   -0.7017   15.2795 H   0  0  0  0  0  0  0  0  0  0  0  0
   -6.2300   -0.4619   16.1431 H   0  0  0  0  0  0  0  0  0  0  0  0
   -4.4606    2.8232   10.8923 C   0  0  0  0  0  0  0  0  0  0  0  0
   -4.5515    1.8646   10.1201 O   0  0  0  0  0  0  0  0  0  0  0  0
   -3.4553    3.7337   10.6549 C   0  0  0  0  0  0  0  0  0  0  0  0
  5  4  1  0  0  0
  4  3  1  0  0  0
  4  6  1  0  0  0
 16 14  1  0  0  0
  7  3  2  0  0  0
  7 14  1  0  0  0
  3  2  1  0  0  0
 14 15  2  0  0  0
  6  1  2  0  0  0
  2  1  1  0  0  0
  1  9  1  0  0  0
  9 11  2  0  0  0
  9  8  1  0  0  0
  9 10  2  0  0  0
  8 12  1  0  0  0
  8 13  1  0  0  0
M  END
> <minimizedAffinity>
-6.68463

$$$$
3DAZ_MZM_A_263


 16 16  0  0  0  0  0  0  0  0999 V2000
   -4.1814    1.0143   14.2731 C   0  0  0  0  0  0  0  0  0  0  0  0
   -4.0667    2.5165   13.4324 S   0  0  0  0  0  0  0  0  0  0  0  0
   -4.3101    1.6393   11.9896 C   0  0  0  0  0  0  0  0  0  0  0  0
   -4.3934    0.3855   12.1502 N   0  0  0  0  0  0  0  0  0  0  0  0
   -4.5664   -0.5867   11.0419 C   0  0  0  0  0  0  0  0  0  0  0  0
   -4.3737    0.0030   13.4716 N   0  0  0  0  0  0  0  0  0  0  0  0
   -4.3041    2.4454   10.8593 N   0  0  0  0  0  0  0  0  0  0  0  0
   -4.0848   -0.0581   16.3355 N   0  0  0  0  0  0  0  0  0  0  0  0
   -4.1039    1.0390   15.9716 S   0  0  0  0  0  0  0  0  0  0  0  0
   -4.9677    1.7207   16.4432 O   0  0  0  0  0  0  0  0  0  0  0  0
   -3.0505    1.3684   16.1615 O   0  0  0  0  0  0  0  0  0  0  0  0
   -3.3189   -0.5542   15.8798 H   0  0  0  0  0  0  0  0  0  0  0  0
   -4.9691   -0.5093   16.1016 H   0  0  0  0  0  0  0  0  0  0  0  0
   -4.2234    3.6124   10.4723 C   0  0  0  0  0  0  0  0  0  0  0  0
   -5.0483    4.4972   10.2270 O   0  0  0  0  0  0  0  0  0  0  0  0
   -2.8954    3.9103   10.2643 C   0  0  0  0  0  0  0  0  0  0  0  0
  5  4  1  0  0  0
  4  3  1  0  0  0
  4  6  1  0  0  0
 16 14  1  0  0  0
  7  3  2  0  0  0
  7 14  1  0  0  0
  3  2  1  0  0  0
 14 15  2  0  0  0
  6  1  2  0  0  0
  2  1  1  0  0  0
  1  9  1  0  0  0
  9 11  2  0  0  0
  9  8  1  0  0  0
  9 10  2  0  0  0
  8 12  1  0  0  0
  8 13  1  0  0  0
M  END
> <minimizedAffinity>
-6.59219

$$$$
3DAZ_MZM_A_263


 16 16  0  0  0  0  0  0  0  0999 V2000
   -4.7794    1.4042   14.7587 C   0  0  0  0  0  0  0  0  0  0  0  0
   -5.3599    3.0271   14.8354 S   0  0  0  0  0  0  0  0  0  0  0  0
   -5.4074    3.0088   13.1302 C   0  0  0  0  0  0  0  0  0  0  0  0
   -4.9747    1.9386   12.6086 N   0  0  0  0  0  0  0  0  0  0  0  0
   -4.8819    1.7029   11.1459 C   0  0  0  0  0  0  0  0  0  0  0  0
   -4.6531    0.9727   13.5340 N   0  0  0  0  0  0  0  0  0  0  0  0
   -5.8488    4.2086   12.5888 N   0  0  0  0  0  0  0  0  0  0  0  0
   -4.9311   -0.4966   16.0918 N   0  0  0  0  0  0  0  0  0  0  0  0
   -4.5203    0.5763   16.2212 S   0  0  0  0  0  0  0  0  0  0  0  0
   -4.9575    1.1833   17.1559 O   0  0  0  0  0  0  0  0  0  0  0  0
   -3.4133    0.4072   16.2114 O   0  0  0  0  0  0  0  0  0  0  0  0
   -4.5014   -0.9288   15.2740 H   0  0  0  0  0  0  0  0  0  0  0  0
   -5.9426   -0.4604   15.9653 H   0  0  0  0  0  0  0  0  0  0  0  0
   -6.2764    5.3287   12.8732 C   0  0  0  0  0  0  0  0  0  0  0  0
   -7.3498    5.7557   13.3079 O   0  0  0  0  0  0  0  0  0  0  0  0
   -5.2955    6.2528   12.5909 C   0  0  0  0  0  0  0  0  0  0  0  0
  5  4  1  0  0  0
  4  3  1  0  0  0
  4  6  1  0  0  0
 16 14  1  0  0  0
  7  3  2  0  0  0
  7 14  1  0  0  0
  3  2  1  0  0  0
 14 15  2  0  0  0
  6  1  2  0  0  0
  2  1  1  0  0  0
  1  9  1  0  0  0
  9 11  2  0  0  0
  9  8  1  0  0  0
  9 10  2  0  0  0
  8 12  1  0  0  0
  8 13  1  0  0  0
M  END
> <minimizedAffinity>
-6.47168

$$$$
3DAZ_MZM_A_263


 16 16  0  0  0  0  0  0  0  0999 V2000
   -3.6522    1.1584   12.5969 C   0  0  0  0  0  0  0  0  0  0  0  0
   -4.5183    0.4098   13.8877 S   0  0  0  0  0  0  0  0  0  0  0  0
   -4.2069    1.8127   14.8073 C   0  0  0  0  0  0  0  0  0  0  0  0
   -3.4900    2.6740   14.2166 N   0  0  0  0  0  0  0  0  0  0  0  0
   -3.0549    3.9554   14.8267 C   0  0  0  0  0  0  0  0  0  0  0  0
   -3.1990    2.3399   12.9141 N   0  0  0  0  0  0  0  0  0  0  0  0
   -4.7350    1.7467   16.0895 N   0  0  0  0  0  0  0  0  0  0  0  0
   -4.5114    0.5895   10.5110 N   0  0  0  0  0  0  0  0  0  0  0  0
   -3.5575    0.3347   11.1123 S   0  0  0  0  0  0  0  0  0  0  0  0
   -3.3463   -0.8334   11.2679 O   0  0  0  0  0  0  0  0  0  0  0  0
   -2.7716    0.9138   10.5634 O   0  0  0  0  0  0  0  0  0  0  0  0
   -4.6037    1.6023   10.4329 H   0  0  0  0  0  0  0  0  0  0  0  0
   -5.3274    0.2098   10.9910 H   0  0  0  0  0  0  0  0  0  0  0  0
   -5.4067    1.0501   16.8522 C   0  0  0  0  0  0  0  0  0  0  0  0
   -5.1880    0.0186   17.4936 O   0  0  0  0  0  0  0  0  0  0  0  0
   -6.6712    1.5890   16.9326 C   0  0  0  0  0  0  0  0  0  0  0  0
  5  4  1  0  0  0
  4  3  1  0  0  0
  4  6  1  0  0  0
 16 14  1  0  0  0
  7  3  2  0  0  0
  7 14  1  0  0  0
  3  2  1  0  0  0
 14 15  2  0  0  0
  6  1  2  0  0  0
  2  1  1  0  0  0
  1  9  1  0  0  0
  9 11  2  0  0  0
  9  8  1  0  0  0
  9 10  2  0  0  0
  8 12  1  0  0  0
  8 13  1  0  0  0
M  END
> <minimizedAffinity>
-6.19441

$$$$
3DAZ_MZM_A_263


 16 16  0  0  0  0  0  0  0  0999 V2000
   -5.5295    1.0487   15.9407 C   0  0  0  0  0  0  0  0  0  0  0  0
   -6.0258    2.6574   15.5633 S   0  0  0  0  0  0  0  0  0  0  0  0
   -5.1972    2.4830   14.0822 C   0  0  0  0  0  0  0  0  0  0  0  0
   -4.5868    1.3804   13.9538 N   0  0  0  0  0  0  0  0  0  0  0  0
   -3.7669    1.0149   12.7714 C   0  0  0  0  0  0  0  0  0  0  0  0
   -4.8073    0.5107   14.9967 N   0  0  0  0  0  0  0  0  0  0  0  0
   -5.2696    3.6176   13.2855 N   0  0  0  0  0  0  0  0  0  0  0  0
   -7.2300    0.3833   17.3824 N   0  0  0  0  0  0  0  0  0  0  0  0
   -6.0742    0.3638   17.3987 S   0  0  0  0  0  0  0  0  0  0  0  0
   -5.5660    0.8854   18.3488 O   0  0  0  0  0  0  0  0  0  0  0  0
   -5.8551   -0.7247   17.2520 O   0  0  0  0  0  0  0  0  0  0  0  0
   -7.5661   -0.0824   16.5395 H   0  0  0  0  0  0  0  0  0  0  0  0
   -7.5538    1.3505   17.3887 H   0  0  0  0  0  0  0  0  0  0  0  0
   -5.7533    4.7482   13.2092 C   0  0  0  0  0  0  0  0  0  0  0  0
   -6.8845    5.1873   12.9834 O   0  0  0  0  0  0  0  0  0  0  0  0
   -4.7451    5.6660   13.4013 C   0  0  0  0  0  0  0  0  0  0  0  0
  5  4  1  0  0  0
  4  3  1  0  0  0
  4  6  1  0  0  0
 16 14  1  0  0  0
  7  3  2  0  0  0
  7 14  1  0  0  0
  3  2  1  0  0  0
 14 15  2  0  0  0
  6  1  2  0  0  0
  2  1  1  0  0  0
  1  9  1  0  0  0
  9 11  2  0  0  0
  9  8  1  0  0  0
  9 10  2  0  0  0
  8 12  1  0  0  0
  8 13  1  0  0  0
M  END
> <minimizedAffinity>
-6.08058

$$$$
3DAZ_MZM_A_263


 16 16  0  0  0  0  0  0  0  0999 V2000
   -4.8271    1.4101   15.1311 C   0  0  0  0  0  0  0  0  0  0  0  0
   -4.3311    0.4342   13.7976 S   0  0  0  0  0  0  0  0  0  0  0  0
   -3.7426    1.8615   13.0715 C   0  0  0  0  0  0  0  0  0  0  0  0
   -3.9671    2.9153   13.7377 N   0  0  0  0  0  0  0  0  0  0  0  0
   -3.5849    4.2791   13.2932 C   0  0  0  0  0  0  0  0  0  0  0  0
   -4.5489    2.6733   14.9607 N   0  0  0  0  0  0  0  0  0  0  0  0
   -3.1739    1.6389   11.8248 N   0  0  0  0  0  0  0  0  0  0  0  0
   -5.2969   -0.4943   16.3821 N   0  0  0  0  0  0  0  0  0  0  0  0
   -5.5232    0.6355   16.4753 S   0  0  0  0  0  0  0  0  0  0  0  0
   -6.6800    0.9183   16.5980 O   0  0  0  0  0  0  0  0  0  0  0  0
   -4.8443    0.9434   17.3111 O   0  0  0  0  0  0  0  0  0  0  0  0
   -4.2913   -0.6326   16.2824 H   0  0  0  0  0  0  0  0  0  0  0  0
   -5.7747   -0.8704   15.5631 H   0  0  0  0  0  0  0  0  0  0  0  0
   -2.8797    0.7631   11.0096 C   0  0  0  0  0  0  0  0  0  0  0  0
   -3.5327    0.0093   10.2824 O   0  0  0  0  0  0  0  0  0  0  0  0
   -1.5088    0.6387   10.9812 C   0  0  0  0  0  0  0  0  0  0  0  0
  5  4  1  0  0  0
  4  3  1  0  0  0
  4  6  1  0  0  0
 16 14  1  0  0  0
  7  3  2  0  0  0
  7 14  1  0  0  0
  3  2  1  0  0  0
 14 15  2  0  0  0
  6  1  2  0  0  0
  2  1  1  0  0  0
  1  9  1  0  0  0
  9 11  2  0  0  0
  9  8  1  0  0  0
  9 10  2  0  0  0
  8 12  1  0  0  0
  8 13  1  0  0  0
M  END
> <minimizedAffinity>
-5.98439

$$$$
3DAZ_MZM_A_263


 16 16  0  0  0  0  0  0  0  0999 V2000
   -4.5045    1.7505   14.9233 C   0  0  0  0  0  0  0  0  0  0  0  0
   -4.3244    1.7097   13.2079 S   0  0  0  0  0  0  0  0  0  0  0  0
   -4.2100    3.4112   13.2569 C   0  0  0  0  0  0  0  0  0  0  0  0
   -4.3596    3.9101   14.4116 N   0  0  0  0  0  0  0  0  0  0  0  0
   -4.3396    5.3664   14.6989 C   0  0  0  0  0  0  0  0  0  0  0  0
   -4.4800    2.9636   15.4028 N   0  0  0  0  0  0  0  0  0  0  0  0
   -4.0425    3.9780   12.0007 N   0  0  0  0  0  0  0  0  0  0  0  0
   -5.6676    0.2175   16.2311 N   0  0  0  0  0  0  0  0  0  0  0  0
   -4.6167    0.2701   15.7523 S   0  0  0  0  0  0  0  0  0  0  0  0
   -3.7009    0.1164   16.5079 O   0  0  0  0  0  0  0  0  0  0  0  0
   -4.7016   -0.4702   14.9162 O   0  0  0  0  0  0  0  0  0  0  0  0
   -6.3765    0.3594   15.5115 H   0  0  0  0  0  0  0  0  0  0  0  0
   -5.7543    0.9442   16.9416 H   0  0  0  0  0  0  0  0  0  0  0  0
   -3.9007    3.7178   10.8047 C   0  0  0  0  0  0  0  0  0  0  0  0
   -4.6438    3.2693    9.9272 O   0  0  0  0  0  0  0  0  0  0  0  0
   -2.5967    3.9859   10.4534 C   0  0  0  0  0  0  0  0  0  0  0  0
  5  4  1  0  0  0
  4  3  1  0  0  0
  4  6  1  0  0  0
 16 14  1  0  0  0
  7  3  2  0  0  0
  7 14  1  0  0  0
  3  2  1  0  0  0
 14 15  2  0  0  0
  6  1  2  0  0  0
  2  1  1  0  0  0
  1  9  1  0  0  0
  9 11  2  0  0  0
  9  8  1  0  0  0
  9 10  2  0  0  0
  8 12  1  0  0  0
  8 13  1  0  0  0
M  END
> <minimizedAffinity>
-5.84557

$$$$
3DAZ_MZM_A_263


 16 16  0  0  0  0  0  0  0  0999 V2000
   -4.8253    2.4062   15.3284 C   0  0  0  0  0  0  0  0  0  0  0  0
   -3.5427    3.5499   15.1755 S   0  0  0  0  0  0  0  0  0  0  0  0
   -4.6816    4.6193   14.4901 C   0  0  0  0  0  0  0  0  0  0  0  0
   -5.8397    4.1260   14.3486 N   0  0  0  0  0  0  0  0  0  0  0  0
   -6.9850    4.8495   13.7415 C   0  0  0  0  0  0  0  0  0  0  0  0
   -5.9611    2.8609   14.8753 N   0  0  0  0  0  0  0  0  0  0  0  0
   -4.1280    5.8407   14.1305 N   0  0  0  0  0  0  0  0  0  0  0  0
   -3.3412    0.8511   16.2182 N   0  0  0  0  0  0  0  0  0  0  0  0
   -4.4869    0.9190   16.0803 S   0  0  0  0  0  0  0  0  0  0  0  0
   -4.9879    0.0035   15.4938 O   0  0  0  0  0  0  0  0  0  0  0  0
   -4.8404    1.0915   17.1289 O   0  0  0  0  0  0  0  0  0  0  0  0
   -3.0105    1.6717   16.7258 H   0  0  0  0  0  0  0  0  0  0  0  0
   -2.8904    0.8122   15.3041 H   0  0  0  0  0  0  0  0  0  0  0  0
   -3.0893    6.5032   14.1460 C   0  0  0  0  0  0  0  0  0  0  0  0
   -2.4971    7.1558   15.0102 O   0  0  0  0  0  0  0  0  0  0  0  0
   -2.5444    6.4866   12.8816 C   0  0  0  0  0  0  0  0  0  0  0  0
  5  4  1  0  0  0
  4  3  1  0  0  0
  4  6  1  0  0  0
 16 14  1  0  0  0
  7  3  2  0  0  0
  7 14  1  0  0  0
  3  2  1  0  0  0
 14 15  2  0  0  0
  6  1  2  0  0  0
  2  1  1  0  0  0
  1  9  1  0  0  0
  9 11  2  0  0  0
  9  8  1  0  0  0
  9 10  2  0  0  0
  8 12  1  0  0  0
  8 13  1  0  0  0
M  END
> <minimizedAffinity>
-5.72593

$$$$
3DAZ_MZM_A_263


 16 16  0  0  0  0  0  0  0  0999 V2000
   -2.5168    1.8683   11.9206 C   0  0  0  0  0  0  0  0  0  0  0  0
   -4.0947    1.8039   12.6156 S   0  0  0  0  0  0  0  0  0  0  0  0
   -3.7180    3.2633   13.4148 C   0  0  0  0  0  0  0  0  0  0  0  0
   -2.5367    3.6757   13.2166 N   0  0  0  0  0  0  0  0  0  0  0  0
   -1.9669    4.8995   13.8341 C   0  0  0  0  0  0  0  0  0  0  0  0
   -1.8372    2.9109   12.3118 N   0  0  0  0  0  0  0  0  0  0  0  0
   -4.7542    3.7241   14.2156 N   0  0  0  0  0  0  0  0  0  0  0  0
   -1.2996    1.1133   10.0872 N   0  0  0  0  0  0  0  0  0  0  0  0
   -2.0825    0.6593   10.8065 S   0  0  0  0  0  0  0  0  0  0  0  0
   -3.0438    0.1777   10.2802 O   0  0  0  0  0  0  0  0  0  0  0  0
   -1.4578   -0.0310   11.4291 O   0  0  0  0  0  0  0  0  0  0  0  0
   -0.5234    1.4960   10.6271 H   0  0  0  0  0  0  0  0  0  0  0  0
   -1.7321    1.8572    9.5395 H   0  0  0  0  0  0  0  0  0  0  0  0
   -5.9138    3.4991   14.5661 C   0  0  0  0  0  0  0  0  0  0  0  0
   -6.4388    2.6914   15.3377 O   0  0  0  0  0  0  0  0  0  0  0  0
   -6.7479    4.3567   13.8843 C   0  0  0  0  0  0  0  0  0  0  0  0
  5  4  1  0  0  0
  4  3  1  0  0  0
  4  6  1  0  0  0
 16 14  1  0  0  0
  7  3  2  0  0  0
  7 14  1  0  0  0
  3  2  1  0  0  0
 14 15  2  0  0  0
  6  1  2  0  0  0
  2  1  1  0  0  0
  1  9  1  0  0  0
  9 11  2  0  0  0
  9  8  1  0  0  0
  9 10  2  0  0  0
  8 12  1  0  0  0
  8 13  1  0  0  0
M  END
> <minimizedAffinity>
-5.66027

$$$$
