1V16_TDP_A_601


 30 31  0  0  0  0  0  0  0  0999 V2000
   75.4931    2.1985    6.8061 N   0  0  0  0  0  0  0  0  0  0  0  0
   75.5828    3.4484    6.0759 C   0  0  0  0  0  0  0  0  0  0  0  0
   73.8152    3.7381    5.7242 S   0  0  0  0  0  0  0  0  0  0  0  0
   73.1900    2.2792    6.4437 C   0  0  0  0  0  0  0  0  0  0  0  0
   74.2897    1.5772    6.9316 C   0  0  0  0  0  0  0  0  0  0  0  0
   74.2157    0.1803    7.6217 C   0  0  0  0  0  0  0  0  0  0  0  0
   76.8018    1.6363    7.2284 C   0  0  0  0  0  0  0  0  0  0  0  0
   77.0010    0.8485   10.9957 N   0  0  0  0  0  0  0  0  0  0  0  0
   77.2619    2.0199   11.5511 C   0  0  0  0  0  0  0  0  0  0  0  0
   77.4202    2.1843   13.0909 C   0  0  0  0  0  0  0  0  0  0  0  0
   77.3289    3.1187   10.7468 N   0  0  0  0  0  0  0  0  0  0  0  0
   77.2371    3.0695    9.3842 C   0  0  0  0  0  0  0  0  0  0  0  0
   77.3770    4.2418    8.7228 N   0  0  0  0  0  0  0  0  0  0  0  0
   76.9642    1.8106    8.7772 C   0  0  0  0  0  0  0  0  0  0  0  0
   76.8220    0.7226    9.6574 C   0  0  0  0  0  0  0  0  0  0  0  0
   77.5657    5.0692    9.2219 H   0  0  0  0  0  0  0  0  0  0  0  0
   77.2900    4.2673    7.7425 H   0  0  0  0  0  0  0  0  0  0  0  0
   71.6947    2.0021    6.4175 C   0  0  0  0  0  0  0  0  0  0  0  0
   70.9297    3.0859    7.1918 C   0  0  0  0  0  0  0  0  0  0  0  0
   69.5317    3.0561    6.9034 O   0  0  0  0  0  0  0  0  0  0  0  0
   68.5263    3.9164    7.6580 P   0  0  0  0  0  0  0  0  0  0  0  0
   69.0900    4.3339    8.9604 O   0  0  0  0  0  0  0  0  0  0  0  0
   67.2406    3.1498    7.6496 O   0  0  0  0  0  0  0  0  0  0  0  0
   66.9925    2.9446    6.7346 H   0  0  0  0  0  0  0  0  0  0  0  0
   68.3859    5.2509    6.7746 O   0  0  0  0  0  0  0  0  0  0  0  0
   68.3178    5.3945    5.1325 P   0  0  0  0  0  0  0  0  0  0  0  0
   67.4232    6.6072    4.8397 O   0  0  0  0  0  0  0  0  0  0  0  0
   69.7358    5.5867    4.6194 O   0  0  0  0  0  0  0  0  0  0  0  0
   67.7076    4.1390    4.6145 O   0  0  0  0  0  0  0  0  0  0  0  0
   66.8062    4.0504    4.9618 H   0  0  0  0  0  0  0  0  0  0  0  0
  8  9  2  0  0  0
  8 15  1  0  0  0
  9 10  1  0  0  0
  9 11  1  0  0  0
 11 12  2  0  0  0
 12 13  1  0  0  0
 12 14  1  0  0  0
 14 15  2  0  0  0
 14  7  1  0  0  0
  7  1  1  0  0  0
  1  2  2  0  0  0
  1  5  1  0  0  0
  2  3  1  0  0  0
  3  4  1  0  0  0
  4  5  2  0  0  0
  4 18  1  0  0  0
  5  6  1  0  0  0
 18 19  1  0  0  0
 19 20  1  0  0  0
 20 21  1  0  0  0
 21 25  1  0  0  0
 21 22  2  0  0  0
 21 23  1  0  0  0
 25 26  1  0  0  0
 26 27  2  0  0  0
 26 28  1  0  0  0
 26 29  1  0  0  0
 13 16  1  0  0  0
 13 17  1  0  0  0
 23 24  1  0  0  0
 29 30  1  0  0  0
M  CHG 1   1   1
M  CHG 1  28  -1
M  END
> <minimizedAffinity>
-10.48998

$$$$
1V16_TDP_A_601


 30 31  0  0  0  0  0  0  0  0999 V2000
   75.1441    2.0932    6.4857 N   0  0  0  0  0  0  0  0  0  0  0  0
   74.1807    1.3038    7.2288 C   0  0  0  0  0  0  0  0  0  0  0  0
   72.6262    2.0102    6.5835 S   0  0  0  0  0  0  0  0  0  0  0  0
   73.3306    3.2194    5.5448 C   0  0  0  0  0  0  0  0  0  0  0  0
   74.7116    3.1051    5.6863 C   0  0  0  0  0  0  0  0  0  0  0  0
   75.7552    4.0208    4.9755 C   0  0  0  0  0  0  0  0  0  0  0  0
   76.5637    1.7932    6.8048 C   0  0  0  0  0  0  0  0  0  0  0  0
   76.8570    0.8700   10.5351 N   0  0  0  0  0  0  0  0  0  0  0  0
   77.1752    2.0124   11.1203 C   0  0  0  0  0  0  0  0  0  0  0  0
   77.3882    2.1184   12.6586 C   0  0  0  0  0  0  0  0  0  0  0  0
   77.2535    3.1355   10.3513 N   0  0  0  0  0  0  0  0  0  0  0  0
   77.1163    3.1363    8.9916 C   0  0  0  0  0  0  0  0  0  0  0  0
   77.2745    4.3255    8.3653 N   0  0  0  0  0  0  0  0  0  0  0  0
   76.7816    1.9087    8.3524 C   0  0  0  0  0  0  0  0  0  0  0  0
   76.6309    0.7963    9.2000 C   0  0  0  0  0  0  0  0  0  0  0  0
   77.5070    5.1286    8.8852 H   0  0  0  0  0  0  0  0  0  0  0  0
   77.1569    4.3876    7.3898 H   0  0  0  0  0  0  0  0  0  0  0  0
   72.4307    4.1417    4.7369 C   0  0  0  0  0  0  0  0  0  0  0  0
   71.1867    3.3880    4.2431 C   0  0  0  0  0  0  0  0  0  0  0  0
   70.1217    4.2806    3.9154 O   0  0  0  0  0  0  0  0  0  0  0  0
   69.0697    4.7012    4.9336 P   0  0  0  0  0  0  0  0  0  0  0  0
   67.7158    4.3924    4.4236 O   0  0  0  0  0  0  0  0  0  0  0  0
   69.3901    6.1180    5.2950 O   0  0  0  0  0  0  0  0  0  0  0  0
   70.3053    6.1718    5.6120 H   0  0  0  0  0  0  0  0  0  0  0  0
   69.3119    3.7354    6.1943 O   0  0  0  0  0  0  0  0  0  0  0  0
   68.8154    3.9372    7.7546 P   0  0  0  0  0  0  0  0  0  0  0  0
   69.7258    3.0523    8.6176 O   0  0  0  0  0  0  0  0  0  0  0  0
   68.9470    5.4114    8.1016 O   0  0  0  0  0  0  0  0  0  0  0  0
   67.4006    3.4777    7.8200 O   0  0  0  0  0  0  0  0  0  0  0  0
   67.3558    2.5356    7.5933 H   0  0  0  0  0  0  0  0  0  0  0  0
  8  9  2  0  0  0
  8 15  1  0  0  0
  9 10  1  0  0  0
  9 11  1  0  0  0
 11 12  2  0  0  0
 12 13  1  0  0  0
 12 14  1  0  0  0
 14 15  2  0  0  0
 14  7  1  0  0  0
  7  1  1  0  0  0
  1  2  2  0  0  0
  1  5  1  0  0  0
  2  3  1  0  0  0
  3  4  1  0  0  0
  4  5  2  0  0  0
  4 18  1  0  0  0
  5  6  1  0  0  0
 18 19  1  0  0  0
 19 20  1  0  0  0
 20 21  1  0  0  0
 21 25  1  0  0  0
 21 22  2  0  0  0
 21 23  1  0  0  0
 25 26  1  0  0  0
 26 27  2  0  0  0
 26 28  1  0  0  0
 26 29  1  0  0  0
 13 16  1  0  0  0
 13 17  1  0  0  0
 23 24  1  0  0  0
 29 30  1  0  0  0
M  CHG 1   1   1
M  CHG 1  28  -1
M  END
> <minimizedAffinity>
-9.57736

$$$$
1V16_TDP_A_601


 30 31  0  0  0  0  0  0  0  0999 V2000
   75.6492    2.3919    6.7970 N   0  0  0  0  0  0  0  0  0  0  0  0
   75.7946    1.1604    7.5491 C   0  0  0  0  0  0  0  0  0  0  0  0
   74.0707    0.5614    7.5135 S   0  0  0  0  0  0  0  0  0  0  0  0
   73.3722    1.9058    6.6522 C   0  0  0  0  0  0  0  0  0  0  0  0
   74.4123    2.7982    6.4035 C   0  0  0  0  0  0  0  0  0  0  0  0
   74.2479    4.1763    5.6916 C   0  0  0  0  0  0  0  0  0  0  0  0
   76.9002    3.1814    6.6598 C   0  0  0  0  0  0  0  0  0  0  0  0
   78.2979    1.1599    3.6912 N   0  0  0  0  0  0  0  0  0  0  0  0
   78.7907    2.0832    2.8830 C   0  0  0  0  0  0  0  0  0  0  0  0
   79.4788    1.7162    1.5357 C   0  0  0  0  0  0  0  0  0  0  0  0
   78.7454    3.3860    3.2823 N   0  0  0  0  0  0  0  0  0  0  0  0
   78.1336    3.8083    4.4289 C   0  0  0  0  0  0  0  0  0  0  0  0
   78.1274    5.1419    4.6590 N   0  0  0  0  0  0  0  0  0  0  0  0
   77.5930    2.8211    5.3012 C   0  0  0  0  0  0  0  0  0  0  0  0
   77.7389    1.4861    4.8829 C   0  0  0  0  0  0  0  0  0  0  0  0
   78.5242    5.7569    4.0005 H   0  0  0  0  0  0  0  0  0  0  0  0
   77.7260    5.4971    5.4848 H   0  0  0  0  0  0  0  0  0  0  0  0
   71.8819    1.9193    6.3489 C   0  0  0  0  0  0  0  0  0  0  0  0
   71.1568    2.9368    7.2425 C   0  0  0  0  0  0  0  0  0  0  0  0
   69.7550    2.6755    7.3135 O   0  0  0  0  0  0  0  0  0  0  0  0
   68.7504    3.7350    7.7477 P   0  0  0  0  0  0  0  0  0  0  0  0
   69.1595    4.3243    9.0414 O   0  0  0  0  0  0  0  0  0  0  0  0
   67.4036    3.0887    7.6520 O   0  0  0  0  0  0  0  0  0  0  0  0
   67.2712    2.7488    6.7532 H   0  0  0  0  0  0  0  0  0  0  0  0
   68.8882    4.9022    6.6525 O   0  0  0  0  0  0  0  0  0  0  0  0
   67.8565    5.2864    5.4239 P   0  0  0  0  0  0  0  0  0  0  0  0
   66.5091    5.6234    6.0780 O   0  0  0  0  0  0  0  0  0  0  0  0
   68.4437    6.4693    4.6710 O   0  0  0  0  0  0  0  0  0  0  0  0
   67.7469    4.0794    4.5590 O   0  0  0  0  0  0  0  0  0  0  0  0
   67.3695    3.3475    5.0716 H   0  0  0  0  0  0  0  0  0  0  0  0
  8  9  2  0  0  0
  8 15  1  0  0  0
  9 10  1  0  0  0
  9 11  1  0  0  0
 11 12  2  0  0  0
 12 13  1  0  0  0
 12 14  1  0  0  0
 14 15  2  0  0  0
 14  7  1  0  0  0
  7  1  1  0  0  0
  1  2  2  0  0  0
  1  5  1  0  0  0
  2  3  1  0  0  0
  3  4  1  0  0  0
  4  5  2  0  0  0
  4 18  1  0  0  0
  5  6  1  0  0  0
 18 19  1  0  0  0
 19 20  1  0  0  0
 20 21  1  0  0  0
 21 25  1  0  0  0
 21 22  2  0  0  0
 21 23  1  0  0  0
 25 26  1  0  0  0
 26 27  2  0  0  0
 26 28  1  0  0  0
 26 29  1  0  0  0
 13 16  1  0  0  0
 13 17  1  0  0  0
 23 24  1  0  0  0
 29 30  1  0  0  0
M  CHG 1   1   1
M  CHG 1  28  -1
M  END
> <minimizedAffinity>
-8.67729

$$$$
1V16_TDP_A_601


 30 31  0  0  0  0  0  0  0  0999 V2000
   75.0230    2.5819    6.5059 N   0  0  0  0  0  0  0  0  0  0  0  0
   75.0462    3.8915    5.8832 C   0  0  0  0  0  0  0  0  0  0  0  0
   73.2545    4.1855    5.6953 S   0  0  0  0  0  0  0  0  0  0  0  0
   72.6981    2.6610    6.3304 C   0  0  0  0  0  0  0  0  0  0  0  0
   73.8377    1.9350    6.6688 C   0  0  0  0  0  0  0  0  0  0  0  0
   73.8282    0.4827    7.2377 C   0  0  0  0  0  0  0  0  0  0  0  0
   76.3648    2.0039    6.7753 C   0  0  0  0  0  0  0  0  0  0  0  0
   76.7409    0.9645   10.4673 N   0  0  0  0  0  0  0  0  0  0  0  0
   77.1671    2.0647   11.0645 C   0  0  0  0  0  0  0  0  0  0  0  0
   77.4503    2.1145   12.5944 C   0  0  0  0  0  0  0  0  0  0  0  0
   77.2974    3.1986   10.3190 N   0  0  0  0  0  0  0  0  0  0  0  0
   77.1052    3.2451    8.9668 C   0  0  0  0  0  0  0  0  0  0  0  0
   77.3258    4.4354    8.3619 N   0  0  0  0  0  0  0  0  0  0  0  0
   76.6539    2.0625    8.3144 C   0  0  0  0  0  0  0  0  0  0  0  0
   76.4555    0.9425    9.1418 C   0  0  0  0  0  0  0  0  0  0  0  0
   77.6387    5.2053    8.8897 H   0  0  0  0  0  0  0  0  0  0  0  0
   77.1734    4.5314    7.3940 H   0  0  0  0  0  0  0  0  0  0  0  0
   71.2075    2.3659    6.3953 C   0  0  0  0  0  0  0  0  0  0  0  0
   70.4115    3.6539    6.6541 C   0  0  0  0  0  0  0  0  0  0  0  0
   69.1521    3.6426    5.9817 O   0  0  0  0  0  0  0  0  0  0  0  0
   68.7296    4.7508    5.0257 P   0  0  0  0  0  0  0  0  0  0  0  0
   69.4147    6.0141    5.3765 O   0  0  0  0  0  0  0  0  0  0  0  0
   67.2329    4.7313    5.0089 O   0  0  0  0  0  0  0  0  0  0  0  0
   66.9238    3.8451    4.7641 H   0  0  0  0  0  0  0  0  0  0  0  0
   69.3095    4.3008    3.5966 O   0  0  0  0  0  0  0  0  0  0  0  0
   68.5561    3.4444    2.4047 P   0  0  0  0  0  0  0  0  0  0  0  0
   69.4664    2.2497    2.0870 O   0  0  0  0  0  0  0  0  0  0  0  0
   67.1962    3.0102    2.9272 O   0  0  0  0  0  0  0  0  0  0  0  0
   68.4335    4.3534    1.2318 O   0  0  0  0  0  0  0  0  0  0  0  0
   69.3182    4.6087    0.9268 H   0  0  0  0  0  0  0  0  0  0  0  0
  8  9  2  0  0  0
  8 15  1  0  0  0
  9 10  1  0  0  0
  9 11  1  0  0  0
 11 12  2  0  0  0
 12 13  1  0  0  0
 12 14  1  0  0  0
 14 15  2  0  0  0
 14  7  1  0  0  0
  7  1  1  0  0  0
  1  2  2  0  0  0
  1  5  1  0  0  0
  2  3  1  0  0  0
  3  4  1  0  0  0
  4  5  2  0  0  0
  4 18  1  0  0  0
  5  6  1  0  0  0
 18 19  1  0  0  0
 19 20  1  0  0  0
 20 21  1  0  0  0
 21 25  1  0  0  0
 21 22  2  0  0  0
 21 23  1  0  0  0
 25 26  1  0  0  0
 26 27  2  0  0  0
 26 28  1  0  0  0
 26 29  1  0  0  0
 13 16  1  0  0  0
 13 17  1  0  0  0
 23 24  1  0  0  0
 29 30  1  0  0  0
M  CHG 1   1   1
M  CHG 1  28  -1
M  END
> <minimizedAffinity>
-8.36520

$$$$
1V16_TDP_A_601


 30 31  0  0  0  0  0  0  0  0999 V2000
   74.9435    3.4924    5.5820 N   0  0  0  0  0  0  0  0  0  0  0  0
   74.2895    4.4365    4.6965 C   0  0  0  0  0  0  0  0  0  0  0  0
   72.5494    3.9365    4.9284 S   0  0  0  0  0  0  0  0  0  0  0  0
   72.8306    2.6036    6.0153 C   0  0  0  0  0  0  0  0  0  0  0  0
   74.2097    2.5249    6.1947 C   0  0  0  0  0  0  0  0  0  0  0  0
   74.9319    1.4454    7.0584 C   0  0  0  0  0  0  0  0  0  0  0  0
   76.4251    3.5982    5.6098 C   0  0  0  0  0  0  0  0  0  0  0  0
   77.2657    2.1726    2.1293 N   0  0  0  0  0  0  0  0  0  0  0  0
   78.0789    1.1625    2.3884 C   0  0  0  0  0  0  0  0  0  0  0  0
   78.6733    0.2728    1.2578 C   0  0  0  0  0  0  0  0  0  0  0  0
   78.3460    0.8625    3.6912 N   0  0  0  0  0  0  0  0  0  0  0  0
   77.8990    1.6039    4.7486 C   0  0  0  0  0  0  0  0  0  0  0  0
   78.2950    1.2067    5.9802 N   0  0  0  0  0  0  0  0  0  0  0  0
   77.0293    2.6984    4.4779 C   0  0  0  0  0  0  0  0  0  0  0  0
   76.7185    2.9152    3.1233 C   0  0  0  0  0  0  0  0  0  0  0  0
   78.9004    0.4365    6.0781 H   0  0  0  0  0  0  0  0  0  0  0  0
   77.9776    1.6878    6.7783 H   0  0  0  0  0  0  0  0  0  0  0  0
   71.6558    1.7909    6.5375 C   0  0  0  0  0  0  0  0  0  0  0  0
   70.8153    2.6229    7.5178 C   0  0  0  0  0  0  0  0  0  0  0  0
   69.7248    3.2712    6.8629 O   0  0  0  0  0  0  0  0  0  0  0  0
   68.4918    3.7519    7.6172 P   0  0  0  0  0  0  0  0  0  0  0  0
   68.8245    3.9864    9.0394 O   0  0  0  0  0  0  0  0  0  0  0  0
   67.4035    2.7776    7.2901 O   0  0  0  0  0  0  0  0  0  0  0  0
   67.2950    2.7251    6.3276 H   0  0  0  0  0  0  0  0  0  0  0  0
   68.1609    5.1910    6.9844 O   0  0  0  0  0  0  0  0  0  0  0  0
   68.0447    5.6127    5.3936 P   0  0  0  0  0  0  0  0  0  0  0  0
   67.7158    4.3244    4.6262 O   0  0  0  0  0  0  0  0  0  0  0  0
   66.9475    6.6569    5.2643 O   0  0  0  0  0  0  0  0  0  0  0  0
   69.3728    6.1531    4.9923 O   0  0  0  0  0  0  0  0  0  0  0  0
   70.0457    5.4609    5.0876 H   0  0  0  0  0  0  0  0  0  0  0  0
  8  9  2  0  0  0
  8 15  1  0  0  0
  9 10  1  0  0  0
  9 11  1  0  0  0
 11 12  2  0  0  0
 12 13  1  0  0  0
 12 14  1  0  0  0
 14 15  2  0  0  0
 14  7  1  0  0  0
  7  1  1  0  0  0
  1  2  2  0  0  0
  1  5  1  0  0  0
  2  3  1  0  0  0
  3  4  1  0  0  0
  4  5  2  0  0  0
  4 18  1  0  0  0
  5  6  1  0  0  0
 18 19  1  0  0  0
 19 20  1  0  0  0
 20 21  1  0  0  0
 21 25  1  0  0  0
 21 22  2  0  0  0
 21 23  1  0  0  0
 25 26  1  0  0  0
 26 27  2  0  0  0
 26 28  1  0  0  0
 26 29  1  0  0  0
 13 16  1  0  0  0
 13 17  1  0  0  0
 23 24  1  0  0  0
 29 30  1  0  0  0
M  CHG 1   1   1
M  CHG 1  28  -1
M  END
> <minimizedAffinity>
-8.17277

$$$$
1V16_TDP_A_601


 30 31  0  0  0  0  0  0  0  0999 V2000
   75.5596    2.6603    6.5216 N   0  0  0  0  0  0  0  0  0  0  0  0
   75.9732    3.8596    5.8187 C   0  0  0  0  0  0  0  0  0  0  0  0
   74.3427    4.6064    5.4784 S   0  0  0  0  0  0  0  0  0  0  0  0
   73.3577    3.3447    6.1676 C   0  0  0  0  0  0  0  0  0  0  0  0
   74.2357    2.3706    6.6369 C   0  0  0  0  0  0  0  0  0  0  0  0
   73.7992    1.0262    7.2965 C   0  0  0  0  0  0  0  0  0  0  0  0
   76.6760    1.7682    6.9277 C   0  0  0  0  0  0  0  0  0  0  0  0
   76.8606    0.7404   10.6375 N   0  0  0  0  0  0  0  0  0  0  0  0
   77.1778    1.8621   11.2618 C   0  0  0  0  0  0  0  0  0  0  0  0
   77.3522    1.9235   12.8074 C   0  0  0  0  0  0  0  0  0  0  0  0
   77.2902    3.0045   10.5262 N   0  0  0  0  0  0  0  0  0  0  0  0
   77.1885    3.0440    9.1640 C   0  0  0  0  0  0  0  0  0  0  0  0
   77.3778    4.2476    8.5749 N   0  0  0  0  0  0  0  0  0  0  0  0
   76.8550    1.8387    8.4830 C   0  0  0  0  0  0  0  0  0  0  0  0
   76.6684    0.7059    9.2956 C   0  0  0  0  0  0  0  0  0  0  0  0
   77.6069    5.0330    9.1224 H   0  0  0  0  0  0  0  0  0  0  0  0
   77.2865    4.3376    7.5988 H   0  0  0  0  0  0  0  0  0  0  0  0
   71.8418    3.4664    6.1396 C   0  0  0  0  0  0  0  0  0  0  0  0
   71.2416    2.5136    5.0949 C   0  0  0  0  0  0  0  0  0  0  0  0
   69.9080    2.8838    4.7444 O   0  0  0  0  0  0  0  0  0  0  0  0
   69.5208    3.2874    3.3276 P   0  0  0  0  0  0  0  0  0  0  0  0
   68.5762    2.3018    2.7579 O   0  0  0  0  0  0  0  0  0  0  0  0
   70.8075    3.5424    2.6062 O   0  0  0  0  0  0  0  0  0  0  0  0
   71.3234    4.2061    3.0901 H   0  0  0  0  0  0  0  0  0  0  0  0
   68.6988    4.6565    3.5028 O   0  0  0  0  0  0  0  0  0  0  0  0
   68.3465    5.4737    4.8920 P   0  0  0  0  0  0  0  0  0  0  0  0
   67.7894    4.4359    5.8766 O   0  0  0  0  0  0  0  0  0  0  0  0
   69.6287    6.1164    5.3959 O   0  0  0  0  0  0  0  0  0  0  0  0
   67.3169    6.4917    4.5445 O   0  0  0  0  0  0  0  0  0  0  0  0
   66.5156    6.0461    4.2279 H   0  0  0  0  0  0  0  0  0  0  0  0
  8  9  2  0  0  0
  8 15  1  0  0  0
  9 10  1  0  0  0
  9 11  1  0  0  0
 11 12  2  0  0  0
 12 13  1  0  0  0
 12 14  1  0  0  0
 14 15  2  0  0  0
 14  7  1  0  0  0
  7  1  1  0  0  0
  1  2  2  0  0  0
  1  5  1  0  0  0
  2  3  1  0  0  0
  3  4  1  0  0  0
  4  5  2  0  0  0
  4 18  1  0  0  0
  5  6  1  0  0  0
 18 19  1  0  0  0
 19 20  1  0  0  0
 20 21  1  0  0  0
 21 25  1  0  0  0
 21 22  2  0  0  0
 21 23  1  0  0  0
 25 26  1  0  0  0
 26 27  2  0  0  0
 26 28  1  0  0  0
 26 29  1  0  0  0
 13 16  1  0  0  0
 13 17  1  0  0  0
 23 24  1  0  0  0
 29 30  1  0  0  0
M  CHG 1   1   1
M  CHG 1  28  -1
M  END
> <minimizedAffinity>
-8.04183

$$$$
1V16_TDP_A_601


 30 31  0  0  0  0  0  0  0  0999 V2000
   72.6143    3.8621    5.8909 N   0  0  0  0  0  0  0  0  0  0  0  0
   72.7259    2.4162    5.8735 C   0  0  0  0  0  0  0  0  0  0  0  0
   71.3266    1.9767    6.9602 S   0  0  0  0  0  0  0  0  0  0  0  0
   70.8192    3.5961    7.3568 C   0  0  0  0  0  0  0  0  0  0  0  0
   71.6918    4.4563    6.6945 C   0  0  0  0  0  0  0  0  0  0  0  0
   71.6489    6.0124    6.7930 C   0  0  0  0  0  0  0  0  0  0  0  0
   73.6600    4.5702    5.1083 C   0  0  0  0  0  0  0  0  0  0  0  0
   76.8677    3.4011    6.8962 N   0  0  0  0  0  0  0  0  0  0  0  0
   77.5192    2.7224    5.9668 C   0  0  0  0  0  0  0  0  0  0  0  0
   78.9015    2.0632    6.2454 C   0  0  0  0  0  0  0  0  0  0  0  0
   76.9839    2.6596    4.7145 N   0  0  0  0  0  0  0  0  0  0  0  0
   75.7631    3.1766    4.3832 C   0  0  0  0  0  0  0  0  0  0  0  0
   75.3473    2.9856    3.1096 N   0  0  0  0  0  0  0  0  0  0  0  0
   75.0511    3.9021    5.3805 C   0  0  0  0  0  0  0  0  0  0  0  0
   75.6844    4.0085    6.6319 C   0  0  0  0  0  0  0  0  0  0  0  0
   75.9033    2.4692    2.4825 H   0  0  0  0  0  0  0  0  0  0  0  0
   74.4887    3.3631    2.8103 H   0  0  0  0  0  0  0  0  0  0  0  0
   69.6365    3.8127    8.2882 C   0  0  0  0  0  0  0  0  0  0  0  0
   68.3381    3.9795    7.4846 C   0  0  0  0  0  0  0  0  0  0  0  0
   68.2749    5.2508    6.8379 O   0  0  0  0  0  0  0  0  0  0  0  0
   67.6074    5.4422    5.4821 P   0  0  0  0  0  0  0  0  0  0  0  0
   68.3362    6.4611    4.6953 O   0  0  0  0  0  0  0  0  0  0  0  0
   66.1547    5.6646    5.7664 O   0  0  0  0  0  0  0  0  0  0  0  0
   65.8097    4.9224    6.2869 H   0  0  0  0  0  0  0  0  0  0  0  0
   67.8191    4.0431    4.7212 O   0  0  0  0  0  0  0  0  0  0  0  0
   68.6501    3.7462    3.3273 P   0  0  0  0  0  0  0  0  0  0  0  0
   68.0361    4.6559    2.2539 O   0  0  0  0  0  0  0  0  0  0  0  0
   70.1160    4.0601    3.5794 O   0  0  0  0  0  0  0  0  0  0  0  0
   68.4407    2.3093    2.9979 O   0  0  0  0  0  0  0  0  0  0  0  0
   67.4969    2.1471    2.8440 H   0  0  0  0  0  0  0  0  0  0  0  0
  8  9  2  0  0  0
  8 15  1  0  0  0
  9 10  1  0  0  0
  9 11  1  0  0  0
 11 12  2  0  0  0
 12 13  1  0  0  0
 12 14  1  0  0  0
 14 15  2  0  0  0
 14  7  1  0  0  0
  7  1  1  0  0  0
  1  2  2  0  0  0
  1  5  1  0  0  0
  2  3  1  0  0  0
  3  4  1  0  0  0
  4  5  2  0  0  0
  4 18  1  0  0  0
  5  6  1  0  0  0
 18 19  1  0  0  0
 19 20  1  0  0  0
 20 21  1  0  0  0
 21 25  1  0  0  0
 21 22  2  0  0  0
 21 23  1  0  0  0
 25 26  1  0  0  0
 26 27  2  0  0  0
 26 28  1  0  0  0
 26 29  1  0  0  0
 13 16  1  0  0  0
 13 17  1  0  0  0
 23 24  1  0  0  0
 29 30  1  0  0  0
M  CHG 1   1   1
M  CHG 1  28  -1
M  END
> <minimizedAffinity>
-7.74987

$$$$
