5DLX_5D2_A_201


 36 40  0  0  0  0  0  0  0  0999 V2000
  -18.5293    4.2975   -3.5607 N   0  0  0  0  0  0  0  0  0  0  0  0
  -19.8351    4.0680   -3.5802 C   0  0  0  0  0  0  0  0  0  0  0  0
  -20.6952    4.7055   -2.9300 O   0  0  0  0  0  0  0  0  0  0  0  0
  -17.9063    3.6861   -4.0159 H   0  0  0  0  0  0  0  0  0  0  0  0
  -20.1668    2.9777   -4.5699 C   0  0  0  0  0  0  0  0  0  0  0  0
  -18.7707    2.3809   -4.9833 C   0  0  0  0  0  0  0  0  0  0  0  0
  -18.7022    1.6601   -6.3478 C   0  0  0  0  0  0  0  0  0  0  0  0
  -21.0274    3.5603   -5.7096 C   0  0  0  0  0  0  0  0  0  0  0  0
  -21.0398    2.4627   -6.7661 C   0  0  0  0  0  0  0  0  0  0  0  0
  -19.6133    2.3572   -7.2875 N   0  0  0  0  0  0  0  0  0  0  0  0
  -19.1539    3.0741   -8.3064 C   0  0  0  0  0  0  0  0  0  0  0  0
  -18.1638    3.9699   -8.1052 N   0  0  0  0  0  0  0  0  0  0  0  0
  -17.7655    4.7778   -9.1534 N   0  0  0  0  0  0  0  0  0  0  0  0
  -16.8615    5.7344   -9.1996 C   0  0  0  0  0  0  0  0  0  0  0  0
  -16.0150    6.0952   -7.9955 C   0  0  0  0  0  0  0  0  0  0  0  0
  -16.7380    6.2468  -10.4395 N   0  0  0  0  0  0  0  0  0  0  0  0
  -17.6383    5.5494  -11.2058 N   0  0  0  0  0  0  0  0  0  0  0  0
  -18.2647    4.6587  -10.3997 C   0  0  0  0  0  0  0  0  0  0  0  0
  -19.2184    3.7170  -10.6157 C   0  0  0  0  0  0  0  0  0  0  0  0
  -19.7474    2.9150   -9.5885 C   0  0  0  0  0  0  0  0  0  0  0  0
  -18.0406    5.4519   -2.8649 C   0  0  0  0  0  0  0  0  0  0  0  0
  -17.6441    6.5197   -3.7699 C   0  0  0  0  0  0  0  0  0  0  0  0
  -18.1676    7.8243   -3.2168 C   0  0  0  0  0  0  0  0  0  0  0  0
  -16.3425   10.8059   -5.3669 N   0  0  0  0  0  0  0  0  0  0  0  0
  -15.5998   10.2987   -4.1932 C   0  0  0  0  0  0  0  0  0  0  0  0
  -16.0232    8.9541   -3.9668 C   0  0  0  0  0  0  0  0  0  0  0  0
  -17.8096   10.8578   -5.2552 C   0  0  0  0  0  0  0  0  0  0  0  0
  -18.3081    9.5624   -4.7483 C   0  0  0  0  0  0  0  0  0  0  0  0
  -17.4737    9.0307   -3.6765 N   0  0  0  0  0  0  0  0  0  0  0  0
  -15.0870   10.2054   -7.2711 C   0  0  0  0  0  0  0  0  0  0  0  0
  -14.3734   10.7018   -8.3710 C   0  0  0  0  0  0  0  0  0  0  0  0
  -13.7581    9.6168   -9.1773 Cl  0  0  0  0  0  0  0  0  0  0  0  0
  -14.3150   12.0072   -8.8211 C   0  0  0  0  0  0  0  0  0  0  0  0
  -14.9179   12.9551   -8.0380 C   0  0  0  0  0  0  0  0  0  0  0  0
  -15.5764   12.4994   -6.9060 C   0  0  0  0  0  0  0  0  0  0  0  0
  -15.6723   11.1459   -6.4801 C   0  0  0  0  0  0  0  0  0  0  0  0
 15 14  1  0  0  0
 16 14  2  0  0  0
 16 17  1  0  0  0
 14 13  1  0  0  0
 17 18  2  0  0  0
 13 18  1  0  0  0
 13 12  1  0  0  0
 18 19  1  0  0  0
 12 11  2  0  0  0
 19 20  2  0  0  0
 11 20  1  0  0  0
 11 10  1  0  0  0
  7 10  1  0  0  0
  7  6  1  0  0  0
 10  9  1  0  0  0
  6  5  1  0  0  0
  9  8  1  0  0  0
  8  5  1  0  0  0
  5  2  1  0  0  0
  2  3  2  0  0  0
  2  1  1  0  0  0
  1 21  1  0  0  0
 21 22  1  0  0  0
 22 23  1  0  0  0
 34 35  2  0  0  0
 34 33  1  0  0  0
 26 25  1  0  0  0
 26 29  1  0  0  0
 35 36  1  0  0  0
 25 24  1  0  0  0
 33 31  2  0  0  0
 23 29  1  0  0  0
 29 28  1  0  0  0
 36 24  1  0  0  0
 36 30  2  0  0  0
 24 27  1  0  0  0
 31 30  1  0  0  0
 31 32  1  0  0  0
 28 27  1  0  0  0
  1  4  1  0  0  0
M  END
> <minimizedAffinity>
-7.99527

$$$$
5DLX_5D2_A_201


 36 40  0  0  0  0  0  0  0  0999 V2000
  -14.3737    6.9075   -1.2321 N   0  0  0  0  0  0  0  0  0  0  0  0
  -14.3398    7.9383   -2.0655 C   0  0  0  0  0  0  0  0  0  0  0  0
  -13.4430    8.8118   -2.1054 O   0  0  0  0  0  0  0  0  0  0  0  0
  -15.1651    6.3234   -1.1898 H   0  0  0  0  0  0  0  0  0  0  0  0
  -15.4952    7.8746   -3.0347 C   0  0  0  0  0  0  0  0  0  0  0  0
  -14.8551    7.3687   -4.3803 C   0  0  0  0  0  0  0  0  0  0  0  0
  -15.6126    7.7158   -5.6810 C   0  0  0  0  0  0  0  0  0  0  0  0
  -16.2023    9.2444   -3.0848 C   0  0  0  0  0  0  0  0  0  0  0  0
  -17.1327    9.1401   -4.2866 C   0  0  0  0  0  0  0  0  0  0  0  0
  -16.2354    9.0511   -5.5134 N   0  0  0  0  0  0  0  0  0  0  0  0
  -15.8008   10.1151   -6.1783 C   0  0  0  0  0  0  0  0  0  0  0  0
  -15.0139    9.9540   -7.2637 N   0  0  0  0  0  0  0  0  0  0  0  0
  -14.4892   11.0713   -7.8850 N   0  0  0  0  0  0  0  0  0  0  0  0
  -13.6821   11.1736   -8.9206 C   0  0  0  0  0  0  0  0  0  0  0  0
  -13.1955    9.9558   -9.6802 C   0  0  0  0  0  0  0  0  0  0  0  0
  -13.4485   12.4594   -9.2481 N   0  0  0  0  0  0  0  0  0  0  0  0
  -14.1675   13.1959   -8.3398 N   0  0  0  0  0  0  0  0  0  0  0  0
  -14.7927   12.3290   -7.5072 C   0  0  0  0  0  0  0  0  0  0  0  0
  -15.6318   12.4915   -6.4525 C   0  0  0  0  0  0  0  0  0  0  0  0
  -16.1387   11.4128   -5.7057 C   0  0  0  0  0  0  0  0  0  0  0  0
  -13.2377    6.6586   -0.3937 C   0  0  0  0  0  0  0  0  0  0  0  0
  -13.1673    5.2751    0.0505 C   0  0  0  0  0  0  0  0  0  0  0  0
  -13.0141    5.2704    1.5533 C   0  0  0  0  0  0  0  0  0  0  0  0
   -9.0675    5.6741    2.6049 N   0  0  0  0  0  0  0  0  0  0  0  0
   -9.4280    4.4338    1.8851 C   0  0  0  0  0  0  0  0  0  0  0  0
  -10.5809    4.7184    1.0924 C   0  0  0  0  0  0  0  0  0  0  0  0
  -10.0709    6.2210    3.5331 C   0  0  0  0  0  0  0  0  0  0  0  0
  -11.3820    6.2851    2.8546 C   0  0  0  0  0  0  0  0  0  0  0  0
  -11.6458    5.0976    2.0496 N   0  0  0  0  0  0  0  0  0  0  0  0
   -6.8310    6.1270    3.2012 C   0  0  0  0  0  0  0  0  0  0  0  0
   -5.6786    6.8437    2.8496 C   0  0  0  0  0  0  0  0  0  0  0  0
   -4.5754    6.6464    3.8241 Cl  0  0  0  0  0  0  0  0  0  0  0  0
   -5.4462    7.5520    1.6858 C   0  0  0  0  0  0  0  0  0  0  0  0
   -6.5020    7.6808    0.8232 C   0  0  0  0  0  0  0  0  0  0  0  0
   -7.6772    7.0361    1.1781 C   0  0  0  0  0  0  0  0  0  0  0  0
   -7.8885    6.2671    2.3557 C   0  0  0  0  0  0  0  0  0  0  0  0
 15 14  1  0  0  0
 16 14  2  0  0  0
 16 17  1  0  0  0
 14 13  1  0  0  0
 17 18  2  0  0  0
 13 18  1  0  0  0
 13 12  1  0  0  0
 18 19  1  0  0  0
 12 11  2  0  0  0
 19 20  2  0  0  0
 11 20  1  0  0  0
 11 10  1  0  0  0
  7 10  1  0  0  0
  7  6  1  0  0  0
 10  9  1  0  0  0
  6  5  1  0  0  0
  9  8  1  0  0  0
  8  5  1  0  0  0
  5  2  1  0  0  0
  2  3  2  0  0  0
  2  1  1  0  0  0
  1 21  1  0  0  0
 21 22  1  0  0  0
 22 23  1  0  0  0
 34 35  2  0  0  0
 34 33  1  0  0  0
 26 25  1  0  0  0
 26 29  1  0  0  0
 35 36  1  0  0  0
 25 24  1  0  0  0
 33 31  2  0  0  0
 23 29  1  0  0  0
 29 28  1  0  0  0
 36 24  1  0  0  0
 36 30  2  0  0  0
 24 27  1  0  0  0
 31 30  1  0  0  0
 31 32  1  0  0  0
 28 27  1  0  0  0
  1  4  1  0  0  0
M  END
> <minimizedAffinity>
-7.63851

$$$$
5DLX_5D2_A_201


 36 40  0  0  0  0  0  0  0  0999 V2000
  -19.8832    7.1120   -2.8269 N   0  0  0  0  0  0  0  0  0  0  0  0
  -20.6740    7.9897   -2.2250 C   0  0  0  0  0  0  0  0  0  0  0  0
  -21.3014    7.7918   -1.1590 O   0  0  0  0  0  0  0  0  0  0  0  0
  -19.5088    7.3031   -3.7172 H   0  0  0  0  0  0  0  0  0  0  0  0
  -20.6525    9.3105   -2.9552 C   0  0  0  0  0  0  0  0  0  0  0  0
  -19.4902    9.1626   -4.0056 C   0  0  0  0  0  0  0  0  0  0  0  0
  -18.8459   10.4711   -4.5144 C   0  0  0  0  0  0  0  0  0  0  0  0
  -20.5135   10.4605   -1.9369 C   0  0  0  0  0  0  0  0  0  0  0  0
  -20.2079   11.6825   -2.7937 C   0  0  0  0  0  0  0  0  0  0  0  0
  -18.8303   11.4460   -3.3972 N   0  0  0  0  0  0  0  0  0  0  0  0
  -17.7007   11.8125   -2.8030 C   0  0  0  0  0  0  0  0  0  0  0  0
  -17.2653   11.1413   -1.7152 N   0  0  0  0  0  0  0  0  0  0  0  0
  -16.1425   11.5960   -1.0502 N   0  0  0  0  0  0  0  0  0  0  0  0
  -15.5499   11.1430    0.0352 C   0  0  0  0  0  0  0  0  0  0  0  0
  -16.0440    9.9078    0.7612 C   0  0  0  0  0  0  0  0  0  0  0  0
  -14.4382   11.8451    0.3287 N   0  0  0  0  0  0  0  0  0  0  0  0
  -14.3493   12.8004   -0.6530 N   0  0  0  0  0  0  0  0  0  0  0  0
  -15.4062   12.6379   -1.4849 C   0  0  0  0  0  0  0  0  0  0  0  0
  -15.8106   13.2760   -2.6128 C   0  0  0  0  0  0  0  0  0  0  0  0
  -16.9902   12.9389   -3.3007 C   0  0  0  0  0  0  0  0  0  0  0  0
  -19.5829    5.8797   -2.1585 C   0  0  0  0  0  0  0  0  0  0  0  0
  -18.2433    5.3974   -2.4573 C   0  0  0  0  0  0  0  0  0  0  0  0
  -17.2589    6.4812   -2.0858 C   0  0  0  0  0  0  0  0  0  0  0  0
  -15.2504    8.4143   -5.0979 N   0  0  0  0  0  0  0  0  0  0  0  0
  -15.5907    6.9967   -5.3448 C   0  0  0  0  0  0  0  0  0  0  0  0
  -16.7446    6.6907   -4.5615 C   0  0  0  0  0  0  0  0  0  0  0  0
  -14.9098    8.7863   -3.7147 C   0  0  0  0  0  0  0  0  0  0  0  0
  -15.9366    8.2511   -2.7968 C   0  0  0  0  0  0  0  0  0  0  0  0
  -16.3411    6.8951   -3.1510 N   0  0  0  0  0  0  0  0  0  0  0  0
  -15.5142   10.6233   -5.8812 C   0  0  0  0  0  0  0  0  0  0  0  0
  -15.6099   11.4241   -7.0279 C   0  0  0  0  0  0  0  0  0  0  0  0
  -15.8414   12.8533   -6.6972 Cl  0  0  0  0  0  0  0  0  0  0  0  0
  -15.3814   11.0527   -8.3394 C   0  0  0  0  0  0  0  0  0  0  0  0
  -15.1577    9.7217   -8.5714 C   0  0  0  0  0  0  0  0  0  0  0  0
  -15.1234    8.8938   -7.4596 C   0  0  0  0  0  0  0  0  0  0  0  0
  -15.3101    9.2969   -6.1086 C   0  0  0  0  0  0  0  0  0  0  0  0
 15 14  1  0  0  0
 16 14  2  0  0  0
 16 17  1  0  0  0
 14 13  1  0  0  0
 17 18  2  0  0  0
 13 18  1  0  0  0
 13 12  1  0  0  0
 18 19  1  0  0  0
 12 11  2  0  0  0
 19 20  2  0  0  0
 11 20  1  0  0  0
 11 10  1  0  0  0
  7 10  1  0  0  0
  7  6  1  0  0  0
 10  9  1  0  0  0
  6  5  1  0  0  0
  9  8  1  0  0  0
  8  5  1  0  0  0
  5  2  1  0  0  0
  2  3  2  0  0  0
  2  1  1  0  0  0
  1 21  1  0  0  0
 21 22  1  0  0  0
 22 23  1  0  0  0
 34 35  2  0  0  0
 34 33  1  0  0  0
 26 25  1  0  0  0
 26 29  1  0  0  0
 35 36  1  0  0  0
 25 24  1  0  0  0
 33 31  2  0  0  0
 23 29  1  0  0  0
 29 28  1  0  0  0
 36 24  1  0  0  0
 36 30  2  0  0  0
 24 27  1  0  0  0
 31 30  1  0  0  0
 31 32  1  0  0  0
 28 27  1  0  0  0
  1  4  1  0  0  0
M  END
> <minimizedAffinity>
-7.63558

$$$$
5DLX_5D2_A_201


 36 40  0  0  0  0  0  0  0  0999 V2000
  -16.0929    8.4528   -0.9600 N   0  0  0  0  0  0  0  0  0  0  0  0
  -15.2906    8.5496   -2.0112 C   0  0  0  0  0  0  0  0  0  0  0  0
  -14.0653    8.8063   -1.9695 O   0  0  0  0  0  0  0  0  0  0  0  0
  -17.0652    8.3537   -1.0793 H   0  0  0  0  0  0  0  0  0  0  0  0
  -16.0377    8.2194   -3.2805 C   0  0  0  0  0  0  0  0  0  0  0  0
  -14.9171    7.7905   -4.2986 C   0  0  0  0  0  0  0  0  0  0  0  0
  -15.2564    7.9262   -5.7995 C   0  0  0  0  0  0  0  0  0  0  0  0
  -16.9130    9.4211   -3.6911 C   0  0  0  0  0  0  0  0  0  0  0  0
  -17.3680    9.0850   -5.1056 C   0  0  0  0  0  0  0  0  0  0  0  0
  -16.1184    9.1200   -5.9747 N   0  0  0  0  0  0  0  0  0  0  0  0
  -15.6795   10.2186   -6.5776 C   0  0  0  0  0  0  0  0  0  0  0  0
  -14.8719   10.1167   -7.6549 N   0  0  0  0  0  0  0  0  0  0  0  0
  -14.3440   11.2670   -8.2100 N   0  0  0  0  0  0  0  0  0  0  0  0
  -13.5190   11.4259   -9.2242 C   0  0  0  0  0  0  0  0  0  0  0  0
  -13.0102   10.2506  -10.0345 C   0  0  0  0  0  0  0  0  0  0  0  0
  -13.2887   12.7279   -9.4829 N   0  0  0  0  0  0  0  0  0  0  0  0
  -14.0292   13.4135   -8.5523 N   0  0  0  0  0  0  0  0  0  0  0  0
  -14.6632   12.5023   -7.7757 C   0  0  0  0  0  0  0  0  0  0  0  0
  -15.5224   12.6066   -6.7297 C   0  0  0  0  0  0  0  0  0  0  0  0
  -16.0350   11.4889   -6.0471 C   0  0  0  0  0  0  0  0  0  0  0  0
  -15.5197    8.4950    0.3534 C   0  0  0  0  0  0  0  0  0  0  0  0
  -16.2230    9.4117    1.2375 C   0  0  0  0  0  0  0  0  0  0  0  0
  -15.7953   10.8190    0.8933 C   0  0  0  0  0  0  0  0  0  0  0  0
  -17.0588   13.1956   -2.2050 N   0  0  0  0  0  0  0  0  0  0  0  0
  -18.0757   12.3012   -1.6113 C   0  0  0  0  0  0  0  0  0  0  0  0
  -17.6897   12.0518   -0.2595 C   0  0  0  0  0  0  0  0  0  0  0  0
  -15.6786   12.6867   -2.2663 C   0  0  0  0  0  0  0  0  0  0  0  0
  -15.2976   12.1445   -0.9456 C   0  0  0  0  0  0  0  0  0  0  0  0
  -16.3745   11.3745   -0.3332 N   0  0  0  0  0  0  0  0  0  0  0  0
  -18.6759   14.6943   -3.0426 C   0  0  0  0  0  0  0  0  0  0  0  0
  -18.8947   16.0049   -3.4896 C   0  0  0  0  0  0  0  0  0  0  0  0
  -20.2906   16.2153   -3.9510 Cl  0  0  0  0  0  0  0  0  0  0  0  0
  -18.0297   17.0799   -3.4110 C   0  0  0  0  0  0  0  0  0  0  0  0
  -16.7631   16.8183   -2.9608 C   0  0  0  0  0  0  0  0  0  0  0  0
  -16.4980   15.5137   -2.5732 C   0  0  0  0  0  0  0  0  0  0  0  0
  -17.4131   14.4257   -2.6114 C   0  0  0  0  0  0  0  0  0  0  0  0
 15 14  1  0  0  0
 16 14  2  0  0  0
 16 17  1  0  0  0
 14 13  1  0  0  0
 17 18  2  0  0  0
 13 18  1  0  0  0
 13 12  1  0  0  0
 18 19  1  0  0  0
 12 11  2  0  0  0
 19 20  2  0  0  0
 11 20  1  0  0  0
 11 10  1  0  0  0
  7 10  1  0  0  0
  7  6  1  0  0  0
 10  9  1  0  0  0
  6  5  1  0  0  0
  9  8  1  0  0  0
  8  5  1  0  0  0
  5  2  1  0  0  0
  2  3  2  0  0  0
  2  1  1  0  0  0
  1 21  1  0  0  0
 21 22  1  0  0  0
 22 23  1  0  0  0
 34 35  2  0  0  0
 34 33  1  0  0  0
 26 25  1  0  0  0
 26 29  1  0  0  0
 35 36  1  0  0  0
 25 24  1  0  0  0
 33 31  2  0  0  0
 23 29  1  0  0  0
 29 28  1  0  0  0
 36 24  1  0  0  0
 36 30  2  0  0  0
 24 27  1  0  0  0
 31 30  1  0  0  0
 31 32  1  0  0  0
 28 27  1  0  0  0
  1  4  1  0  0  0
M  END
> <minimizedAffinity>
-7.59273

$$$$
5DLX_5D2_A_201


 36 40  0  0  0  0  0  0  0  0999 V2000
  -14.9833    6.6714   -1.7363 N   0  0  0  0  0  0  0  0  0  0  0  0
  -14.7345    7.6501   -2.5957 C   0  0  0  0  0  0  0  0  0  0  0  0
  -13.7014    8.3581   -2.6121 O   0  0  0  0  0  0  0  0  0  0  0  0
  -15.8636    6.2308   -1.7199 H   0  0  0  0  0  0  0  0  0  0  0  0
  -15.8359    7.7458   -3.6233 C   0  0  0  0  0  0  0  0  0  0  0  0
  -15.1678    7.2657   -4.9648 C   0  0  0  0  0  0  0  0  0  0  0  0
  -15.8201    7.7543   -6.2769 C   0  0  0  0  0  0  0  0  0  0  0  0
  -16.4203    9.1731   -3.6215 C   0  0  0  0  0  0  0  0  0  0  0  0
  -17.2883    9.2224   -4.8725 C   0  0  0  0  0  0  0  0  0  0  0  0
  -16.3356    9.1271   -6.0562 N   0  0  0  0  0  0  0  0  0  0  0  0
  -15.7761   10.1861   -6.6296 C   0  0  0  0  0  0  0  0  0  0  0  0
  -14.9448   10.0202   -7.6806 N   0  0  0  0  0  0  0  0  0  0  0  0
  -14.2937   11.1218   -8.2026 N   0  0  0  0  0  0  0  0  0  0  0  0
  -13.4231   11.2133   -9.1865 C   0  0  0  0  0  0  0  0  0  0  0  0
  -12.9977   10.0039   -9.9946 C   0  0  0  0  0  0  0  0  0  0  0  0
  -13.0643   12.4907   -9.4202 N   0  0  0  0  0  0  0  0  0  0  0  0
  -13.7697   13.2330   -8.5060 N   0  0  0  0  0  0  0  0  0  0  0  0
  -14.5119   12.3771   -7.7630 C   0  0  0  0  0  0  0  0  0  0  0  0
  -15.3932   12.5505   -6.7451 C   0  0  0  0  0  0  0  0  0  0  0  0
  -16.0305   11.4786   -6.0947 C   0  0  0  0  0  0  0  0  0  0  0  0
  -13.9478    6.2662   -0.8313 C   0  0  0  0  0  0  0  0  0  0  0  0
  -14.1374    6.8045    0.5069 C   0  0  0  0  0  0  0  0  0  0  0  0
  -15.6216    6.8880    0.7749 C   0  0  0  0  0  0  0  0  0  0  0  0
  -17.2702   10.5377   -0.1228 N   0  0  0  0  0  0  0  0  0  0  0  0
  -16.0710   10.5578    0.7421 C   0  0  0  0  0  0  0  0  0  0  0  0
  -15.3115    9.3850    0.4483 C   0  0  0  0  0  0  0  0  0  0  0  0
  -18.1949    9.4047    0.0468 C   0  0  0  0  0  0  0  0  0  0  0  0
  -17.4287    8.1412    0.0332 C   0  0  0  0  0  0  0  0  0  0  0  0
  -16.1867    8.2403    0.7917 N   0  0  0  0  0  0  0  0  0  0  0  0
  -16.5023   12.4664   -1.2424 C   0  0  0  0  0  0  0  0  0  0  0  0
  -16.8338   13.4433   -2.1916 C   0  0  0  0  0  0  0  0  0  0  0  0
  -15.7639   14.4615   -2.3468 Cl  0  0  0  0  0  0  0  0  0  0  0  0
  -17.9259   13.4626   -3.0384 C   0  0  0  0  0  0  0  0  0  0  0  0
  -18.8661   12.4845   -2.8516 C   0  0  0  0  0  0  0  0  0  0  0  0
  -18.5955   11.5408   -1.8724 C   0  0  0  0  0  0  0  0  0  0  0  0
  -17.4424   11.5028   -1.0409 C   0  0  0  0  0  0  0  0  0  0  0  0
 15 14  1  0  0  0
 16 14  2  0  0  0
 16 17  1  0  0  0
 14 13  1  0  0  0
 17 18  2  0  0  0
 13 18  1  0  0  0
 13 12  1  0  0  0
 18 19  1  0  0  0
 12 11  2  0  0  0
 19 20  2  0  0  0
 11 20  1  0  0  0
 11 10  1  0  0  0
  7 10  1  0  0  0
  7  6  1  0  0  0
 10  9  1  0  0  0
  6  5  1  0  0  0
  9  8  1  0  0  0
  8  5  1  0  0  0
  5  2  1  0  0  0
  2  3  2  0  0  0
  2  1  1  0  0  0
  1 21  1  0  0  0
 21 22  1  0  0  0
 22 23  1  0  0  0
 34 35  2  0  0  0
 34 33  1  0  0  0
 26 25  1  0  0  0
 26 29  1  0  0  0
 35 36  1  0  0  0
 25 24  1  0  0  0
 33 31  2  0  0  0
 23 29  1  0  0  0
 29 28  1  0  0  0
 36 24  1  0  0  0
 36 30  2  0  0  0
 24 27  1  0  0  0
 31 30  1  0  0  0
 31 32  1  0  0  0
 28 27  1  0  0  0
  1  4  1  0  0  0
M  END
> <minimizedAffinity>
-7.33477

$$$$
5DLX_5D2_A_201


 36 40  0  0  0  0  0  0  0  0999 V2000
  -17.7420    9.4425   -0.0769 N   0  0  0  0  0  0  0  0  0  0  0  0
  -18.5331    9.2380   -1.1213 C   0  0  0  0  0  0  0  0  0  0  0  0
  -19.0060   10.1313   -1.8611 O   0  0  0  0  0  0  0  0  0  0  0  0
  -17.4973    8.6984    0.5194 H   0  0  0  0  0  0  0  0  0  0  0  0
  -18.7236    7.7599   -1.3605 C   0  0  0  0  0  0  0  0  0  0  0  0
  -17.2671    7.1647   -1.3367 C   0  0  0  0  0  0  0  0  0  0  0  0
  -17.0532    5.8275   -2.0797 C   0  0  0  0  0  0  0  0  0  0  0  0
  -19.5295    7.5473   -2.6582 C   0  0  0  0  0  0  0  0  0  0  0  0
  -19.3966    6.0559   -2.9396 C   0  0  0  0  0  0  0  0  0  0  0  0
  -17.9312    5.8145   -3.2746 N   0  0  0  0  0  0  0  0  0  0  0  0
  -17.4404    5.9001   -4.5055 C   0  0  0  0  0  0  0  0  0  0  0  0
  -17.8508    5.0315   -5.4544 N   0  0  0  0  0  0  0  0  0  0  0  0
  -17.2582    5.0703   -6.7022 N   0  0  0  0  0  0  0  0  0  0  0  0
  -17.4563    4.3200   -7.7663 C   0  0  0  0  0  0  0  0  0  0  0  0
  -18.4979    3.2193   -7.7875 C   0  0  0  0  0  0  0  0  0  0  0  0
  -16.7057    4.7232   -8.8099 N   0  0  0  0  0  0  0  0  0  0  0  0
  -15.9944    5.8006   -8.3434 N   0  0  0  0  0  0  0  0  0  0  0  0
  -16.3396    5.9942   -7.0477 C   0  0  0  0  0  0  0  0  0  0  0  0
  -15.9704    6.9053   -6.1115 C   0  0  0  0  0  0  0  0  0  0  0  0
  -16.4536    6.8831   -4.7908 C   0  0  0  0  0  0  0  0  0  0  0  0
  -17.2494   10.7663    0.1684 C   0  0  0  0  0  0  0  0  0  0  0  0
  -15.8337   10.8984   -0.1397 C   0  0  0  0  0  0  0  0  0  0  0  0
  -15.6633   12.0709   -1.0768 C   0  0  0  0  0  0  0  0  0  0  0  0
  -16.2428   11.4540   -5.0927 N   0  0  0  0  0  0  0  0  0  0  0  0
  -16.9486   12.6109   -4.5012 C   0  0  0  0  0  0  0  0  0  0  0  0
  -16.1982   13.0338   -3.3625 C   0  0  0  0  0  0  0  0  0  0  0  0
  -16.0910   10.2611   -4.2434 C   0  0  0  0  0  0  0  0  0  0  0  0
  -15.5699   10.6648   -2.9209 C   0  0  0  0  0  0  0  0  0  0  0  0
  -16.1999   11.8846   -2.4279 N   0  0  0  0  0  0  0  0  0  0  0  0
  -15.4483   10.4402   -7.0685 C   0  0  0  0  0  0  0  0  0  0  0  0
  -14.8745   10.6821   -8.3245 C   0  0  0  0  0  0  0  0  0  0  0  0
  -14.5811    9.4252   -9.0593 Cl  0  0  0  0  0  0  0  0  0  0  0  0
  -14.7019   11.9001   -8.9543 C   0  0  0  0  0  0  0  0  0  0  0  0
  -15.0080   13.0181   -8.2251 C   0  0  0  0  0  0  0  0  0  0  0  0
  -15.5164   12.8102   -6.9519 C   0  0  0  0  0  0  0  0  0  0  0  0
  -15.7370   11.5488   -6.3333 C   0  0  0  0  0  0  0  0  0  0  0  0
 15 14  1  0  0  0
 16 14  2  0  0  0
 16 17  1  0  0  0
 14 13  1  0  0  0
 17 18  2  0  0  0
 13 18  1  0  0  0
 13 12  1  0  0  0
 18 19  1  0  0  0
 12 11  2  0  0  0
 19 20  2  0  0  0
 11 20  1  0  0  0
 11 10  1  0  0  0
  7 10  1  0  0  0
  7  6  1  0  0  0
 10  9  1  0  0  0
  6  5  1  0  0  0
  9  8  1  0  0  0
  8  5  1  0  0  0
  5  2  1  0  0  0
  2  3  2  0  0  0
  2  1  1  0  0  0
  1 21  1  0  0  0
 21 22  1  0  0  0
 22 23  1  0  0  0
 34 35  2  0  0  0
 34 33  1  0  0  0
 26 25  1  0  0  0
 26 29  1  0  0  0
 35 36  1  0  0  0
 25 24  1  0  0  0
 33 31  2  0  0  0
 23 29  1  0  0  0
 29 28  1  0  0  0
 36 24  1  0  0  0
 36 30  2  0  0  0
 24 27  1  0  0  0
 31 30  1  0  0  0
 31 32  1  0  0  0
 28 27  1  0  0  0
  1  4  1  0  0  0
M  END
> <minimizedAffinity>
-7.20013

$$$$
5DLX_5D2_A_201


 36 40  0  0  0  0  0  0  0  0999 V2000
  -18.8804    9.7599   -2.1486 N   0  0  0  0  0  0  0  0  0  0  0  0
  -19.1158    8.8974   -3.1279 C   0  0  0  0  0  0  0  0  0  0  0  0
  -19.1131    9.1675   -4.3510 O   0  0  0  0  0  0  0  0  0  0  0  0
  -19.0052    9.4964   -1.2083 H   0  0  0  0  0  0  0  0  0  0  0  0
  -19.3050    7.5059   -2.5745 C   0  0  0  0  0  0  0  0  0  0  0  0
  -17.8612    6.8799   -2.5767 C   0  0  0  0  0  0  0  0  0  0  0  0
  -17.7750    5.3379   -2.6052 C   0  0  0  0  0  0  0  0  0  0  0  0
  -20.3749    6.7634   -3.4009 C   0  0  0  0  0  0  0  0  0  0  0  0
  -20.2583    5.3142   -2.9458 C   0  0  0  0  0  0  0  0  0  0  0  0
  -18.8988    4.8250   -3.4256 N   0  0  0  0  0  0  0  0  0  0  0  0
  -18.7011    4.2712   -4.6162 C   0  0  0  0  0  0  0  0  0  0  0  0
  -17.8712    4.8619   -5.5026 N   0  0  0  0  0  0  0  0  0  0  0  0
  -17.7531    4.3275   -6.7715 N   0  0  0  0  0  0  0  0  0  0  0  0
  -17.0478    4.7326   -7.8073 C   0  0  0  0  0  0  0  0  0  0  0  0
  -16.1418    5.9453   -7.7344 C   0  0  0  0  0  0  0  0  0  0  0  0
  -17.1679    3.8928   -8.8540 N   0  0  0  0  0  0  0  0  0  0  0  0
  -18.0134    2.9016   -8.4217 N   0  0  0  0  0  0  0  0  0  0  0  0
  -18.3684    3.1883   -7.1461 C   0  0  0  0  0  0  0  0  0  0  0  0
  -19.1563    2.5618   -6.2352 C   0  0  0  0  0  0  0  0  0  0  0  0
  -19.4056    3.0830   -4.9529 C   0  0  0  0  0  0  0  0  0  0  0  0
  -18.4408   11.0828   -2.4834 C   0  0  0  0  0  0  0  0  0  0  0  0
  -17.2753   11.4922   -1.7151 C   0  0  0  0  0  0  0  0  0  0  0  0
  -16.0394   11.1139   -2.4969 C   0  0  0  0  0  0  0  0  0  0  0  0
  -15.5666   10.7555   -6.5579 N   0  0  0  0  0  0  0  0  0  0  0  0
  -16.3264   11.9348   -6.0905 C   0  0  0  0  0  0  0  0  0  0  0  0
  -15.8804   12.2346   -4.7677 C   0  0  0  0  0  0  0  0  0  0  0  0
  -15.7261    9.5118   -5.7864 C   0  0  0  0  0  0  0  0  0  0  0  0
  -15.5510    9.8021   -4.3481 C   0  0  0  0  0  0  0  0  0  0  0  0
  -16.2075   11.0428   -3.9512 N   0  0  0  0  0  0  0  0  0  0  0  0
  -14.3229   12.0892   -8.0537 C   0  0  0  0  0  0  0  0  0  0  0  0
  -13.5109   12.0692   -9.1963 C   0  0  0  0  0  0  0  0  0  0  0  0
  -13.1026   13.4331   -9.6191 Cl  0  0  0  0  0  0  0  0  0  0  0  0
  -12.9770   10.9657   -9.8344 C   0  0  0  0  0  0  0  0  0  0  0  0
  -13.3828    9.7382   -9.3827 C   0  0  0  0  0  0  0  0  0  0  0  0
  -14.2402    9.7289   -8.2930 C   0  0  0  0  0  0  0  0  0  0  0  0
  -14.7432   10.8719   -7.6126 C   0  0  0  0  0  0  0  0  0  0  0  0
 15 14  1  0  0  0
 16 14  2  0  0  0
 16 17  1  0  0  0
 14 13  1  0  0  0
 17 18  2  0  0  0
 13 18  1  0  0  0
 13 12  1  0  0  0
 18 19  1  0  0  0
 12 11  2  0  0  0
 19 20  2  0  0  0
 11 20  1  0  0  0
 11 10  1  0  0  0
  7 10  1  0  0  0
  7  6  1  0  0  0
 10  9  1  0  0  0
  6  5  1  0  0  0
  9  8  1  0  0  0
  8  5  1  0  0  0
  5  2  1  0  0  0
  2  3  2  0  0  0
  2  1  1  0  0  0
  1 21  1  0  0  0
 21 22  1  0  0  0
 22 23  1  0  0  0
 34 35  2  0  0  0
 34 33  1  0  0  0
 26 25  1  0  0  0
 26 29  1  0  0  0
 35 36  1  0  0  0
 25 24  1  0  0  0
 33 31  2  0  0  0
 23 29  1  0  0  0
 29 28  1  0  0  0
 36 24  1  0  0  0
 36 30  2  0  0  0
 24 27  1  0  0  0
 31 30  1  0  0  0
 31 32  1  0  0  0
 28 27  1  0  0  0
  1  4  1  0  0  0
M  END
> <minimizedAffinity>
-7.16254

$$$$
5DLX_5D2_A_201


 36 40  0  0  0  0  0  0  0  0999 V2000
  -19.2115    7.3890   -2.2950 N   0  0  0  0  0  0  0  0  0  0  0  0
  -18.7123    6.4156   -3.0442 C   0  0  0  0  0  0  0  0  0  0  0  0
  -19.3818    5.5409   -3.6406 O   0  0  0  0  0  0  0  0  0  0  0  0
  -18.6167    7.9741   -1.7723 H   0  0  0  0  0  0  0  0  0  0  0  0
  -17.2134    6.5507   -3.1591 C   0  0  0  0  0  0  0  0  0  0  0  0
  -16.8634    7.8183   -2.2948 C   0  0  0  0  0  0  0  0  0  0  0  0
  -15.5452    8.5473   -2.6370 C   0  0  0  0  0  0  0  0  0  0  0  0
  -16.8130    6.6045   -4.6476 C   0  0  0  0  0  0  0  0  0  0  0  0
  -15.3514    7.0334   -4.6254 C   0  0  0  0  0  0  0  0  0  0  0  0
  -15.3348    8.4632   -4.1024 N   0  0  0  0  0  0  0  0  0  0  0  0
  -15.4414    9.5287   -4.8877 C   0  0  0  0  0  0  0  0  0  0  0  0
  -15.2594    9.4025   -6.2197 N   0  0  0  0  0  0  0  0  0  0  0  0
  -15.2754   10.5359   -7.0103 N   0  0  0  0  0  0  0  0  0  0  0  0
  -15.0922   10.6762   -8.3069 C   0  0  0  0  0  0  0  0  0  0  0  0
  -14.8522    9.4870   -9.2152 C   0  0  0  0  0  0  0  0  0  0  0  0
  -15.2438   11.9565   -8.6981 N   0  0  0  0  0  0  0  0  0  0  0  0
  -15.5398   12.6484   -7.5501 N   0  0  0  0  0  0  0  0  0  0  0  0
  -15.5472   11.7633   -6.5243 C   0  0  0  0  0  0  0  0  0  0  0  0
  -15.7890   11.8815   -5.1937 C   0  0  0  0  0  0  0  0  0  0  0  0
  -15.7033   10.7974   -4.3019 C   0  0  0  0  0  0  0  0  0  0  0  0
  -20.6327    7.5746   -2.2594 C   0  0  0  0  0  0  0  0  0  0  0  0
  -21.1138    7.9298   -0.9332 C   0  0  0  0  0  0  0  0  0  0  0  0
  -21.0735    9.4344   -0.8052 C   0  0  0  0  0  0  0  0  0  0  0  0
  -18.2575   12.0199   -2.2982 N   0  0  0  0  0  0  0  0  0  0  0  0
  -19.1857   11.4251   -3.2837 C   0  0  0  0  0  0  0  0  0  0  0  0
  -20.3927   11.1005   -2.5935 C   0  0  0  0  0  0  0  0  0  0  0  0
  -17.8580   11.1716   -1.1631 C   0  0  0  0  0  0  0  0  0  0  0  0
  -19.0618   10.5650   -0.5578 C   0  0  0  0  0  0  0  0  0  0  0  0
  -20.0139   10.1061   -1.5631 N   0  0  0  0  0  0  0  0  0  0  0  0
  -18.6693   14.2269   -3.0211 C   0  0  0  0  0  0  0  0  0  0  0  0
  -18.1108   15.5051   -3.1614 C   0  0  0  0  0  0  0  0  0  0  0  0
  -19.0483   16.4600   -3.8053 Cl  0  0  0  0  0  0  0  0  0  0  0  0
  -16.9058   15.9604   -2.6605 C   0  0  0  0  0  0  0  0  0  0  0  0
  -16.0972   15.0301   -2.0637 C   0  0  0  0  0  0  0  0  0  0  0  0
  -16.5972   13.7402   -1.9699 C   0  0  0  0  0  0  0  0  0  0  0  0
  -17.8617   13.2949   -2.4449 C   0  0  0  0  0  0  0  0  0  0  0  0
 15 14  1  0  0  0
 16 14  2  0  0  0
 16 17  1  0  0  0
 14 13  1  0  0  0
 17 18  2  0  0  0
 13 18  1  0  0  0
 13 12  1  0  0  0
 18 19  1  0  0  0
 12 11  2  0  0  0
 19 20  2  0  0  0
 11 20  1  0  0  0
 11 10  1  0  0  0
  7 10  1  0  0  0
  7  6  1  0  0  0
 10  9  1  0  0  0
  6  5  1  0  0  0
  9  8  1  0  0  0
  8  5  1  0  0  0
  5  2  1  0  0  0
  2  3  2  0  0  0
  2  1  1  0  0  0
  1 21  1  0  0  0
 21 22  1  0  0  0
 22 23  1  0  0  0
 34 35  2  0  0  0
 34 33  1  0  0  0
 26 25  1  0  0  0
 26 29  1  0  0  0
 35 36  1  0  0  0
 25 24  1  0  0  0
 33 31  2  0  0  0
 23 29  1  0  0  0
 29 28  1  0  0  0
 36 24  1  0  0  0
 36 30  2  0  0  0
 24 27  1  0  0  0
 31 30  1  0  0  0
 31 32  1  0  0  0
 28 27  1  0  0  0
  1  4  1  0  0  0
M  END
> <minimizedAffinity>
-7.14786

$$$$
5DLX_5D2_A_201


 36 40  0  0  0  0  0  0  0  0999 V2000
  -17.1941    9.5350   -0.2873 N   0  0  0  0  0  0  0  0  0  0  0  0
  -16.4429    9.6331    0.8010 C   0  0  0  0  0  0  0  0  0  0  0  0
  -16.4111    8.8043    1.7397 O   0  0  0  0  0  0  0  0  0  0  0  0
  -17.2438   10.2788   -0.9304 H   0  0  0  0  0  0  0  0  0  0  0  0
  -15.5514   10.8485    0.7219 C   0  0  0  0  0  0  0  0  0  0  0  0
  -16.3047   11.9466    1.5604 C   0  0  0  0  0  0  0  0  0  0  0  0
  -15.9697   13.4186    1.2333 C   0  0  0  0  0  0  0  0  0  0  0  0
  -15.2717   11.1875   -0.7565 C   0  0  0  0  0  0  0  0  0  0  0  0
  -14.6305   12.5686   -0.7077 C   0  0  0  0  0  0  0  0  0  0  0  0
  -15.7126   13.5238   -0.2234 N   0  0  0  0  0  0  0  0  0  0  0  0
  -16.5532   14.1484   -1.0397 C   0  0  0  0  0  0  0  0  0  0  0  0
  -17.8785   13.9043   -0.9548 N   0  0  0  0  0  0  0  0  0  0  0  0
  -18.7291   14.4860   -1.8756 N   0  0  0  0  0  0  0  0  0  0  0  0
  -20.0336   14.3783   -2.0214 C   0  0  0  0  0  0  0  0  0  0  0  0
  -20.8789   13.5461   -1.0782 C   0  0  0  0  0  0  0  0  0  0  0  0
  -20.4918   15.1587   -3.0194 N   0  0  0  0  0  0  0  0  0  0  0  0
  -19.3795   15.7878   -3.5207 N   0  0  0  0  0  0  0  0  0  0  0  0
  -18.3072   15.3578   -2.8130 C   0  0  0  0  0  0  0  0  0  0  0  0
  -16.9822   15.6492   -2.8603 C   0  0  0  0  0  0  0  0  0  0  0  0
  -16.0339   15.0346   -2.0228 C   0  0  0  0  0  0  0  0  0  0  0  0
  -17.9326    8.3267   -0.5110 C   0  0  0  0  0  0  0  0  0  0  0  0
  -18.5101    8.2672   -1.8449 C   0  0  0  0  0  0  0  0  0  0  0  0
  -18.6163    9.6776   -2.3753 C   0  0  0  0  0  0  0  0  0  0  0  0
  -15.8823   11.2402   -5.0073 N   0  0  0  0  0  0  0  0  0  0  0  0
  -15.4882    9.9910   -4.3213 C   0  0  0  0  0  0  0  0  0  0  0  0
  -16.6865    9.2949   -3.9775 C   0  0  0  0  0  0  0  0  0  0  0  0
  -16.6969   12.1946   -4.2371 C   0  0  0  0  0  0  0  0  0  0  0  0
  -17.8258   11.4783   -3.6077 C   0  0  0  0  0  0  0  0  0  0  0  0
  -17.4231   10.1898   -3.0552 N   0  0  0  0  0  0  0  0  0  0  0  0
  -15.1480   10.3943   -7.0829 C   0  0  0  0  0  0  0  0  0  0  0  0
  -14.7573   10.7421   -8.3835 C   0  0  0  0  0  0  0  0  0  0  0  0
  -14.3438    9.5594   -9.1810 Cl  0  0  0  0  0  0  0  0  0  0  0  0
  -14.8519   11.9795   -8.9919 C   0  0  0  0  0  0  0  0  0  0  0  0
  -15.2560   13.0233   -8.2028 C   0  0  0  0  0  0  0  0  0  0  0  0
  -15.5863   12.7195   -6.8909 C   0  0  0  0  0  0  0  0  0  0  0  0
  -15.5328   11.4316   -6.2899 C   0  0  0  0  0  0  0  0  0  0  0  0
 15 14  1  0  0  0
 16 14  2  0  0  0
 16 17  1  0  0  0
 14 13  1  0  0  0
 17 18  2  0  0  0
 13 18  1  0  0  0
 13 12  1  0  0  0
 18 19  1  0  0  0
 12 11  2  0  0  0
 19 20  2  0  0  0
 11 20  1  0  0  0
 11 10  1  0  0  0
  7 10  1  0  0  0
  7  6  1  0  0  0
 10  9  1  0  0  0
  6  5  1  0  0  0
  9  8  1  0  0  0
  8  5  1  0  0  0
  5  2  1  0  0  0
  2  3  2  0  0  0
  2  1  1  0  0  0
  1 21  1  0  0  0
 21 22  1  0  0  0
 22 23  1  0  0  0
 34 35  2  0  0  0
 34 33  1  0  0  0
 26 25  1  0  0  0
 26 29  1  0  0  0
 35 36  1  0  0  0
 25 24  1  0  0  0
 33 31  2  0  0  0
 23 29  1  0  0  0
 29 28  1  0  0  0
 36 24  1  0  0  0
 36 30  2  0  0  0
 24 27  1  0  0  0
 31 30  1  0  0  0
 31 32  1  0  0  0
 28 27  1  0  0  0
  1  4  1  0  0  0
M  END
> <minimizedAffinity>
-7.13675

$$$$
5DLX_5D2_A_201


 36 40  0  0  0  0  0  0  0  0999 V2000
  -17.5588    7.5331   -1.7813 N   0  0  0  0  0  0  0  0  0  0  0  0
  -18.7008    7.0678   -2.2685 C   0  0  0  0  0  0  0  0  0  0  0  0
  -18.9736    5.8594   -2.4540 O   0  0  0  0  0  0  0  0  0  0  0  0
  -17.3786    8.5008   -1.7643 H   0  0  0  0  0  0  0  0  0  0  0  0
  -19.6794    8.1948   -2.4934 C   0  0  0  0  0  0  0  0  0  0  0  0
  -19.2246    8.8482   -3.8507 C   0  0  0  0  0  0  0  0  0  0  0  0
  -19.6380   10.3181   -4.0845 C   0  0  0  0  0  0  0  0  0  0  0  0
  -19.6938    9.1192   -1.2589 C   0  0  0  0  0  0  0  0  0  0  0  0
  -20.4708   10.3457   -1.7204 C   0  0  0  0  0  0  0  0  0  0  0  0
  -19.6106   11.0214   -2.7793 N   0  0  0  0  0  0  0  0  0  0  0  0
  -18.6938   11.9397   -2.4975 C   0  0  0  0  0  0  0  0  0  0  0  0
  -18.8724   13.2146   -2.9051 N   0  0  0  0  0  0  0  0  0  0  0  0
  -17.8647   14.1358   -2.6911 N   0  0  0  0  0  0  0  0  0  0  0  0
  -17.7863   15.4086   -3.0199 C   0  0  0  0  0  0  0  0  0  0  0  0
  -18.9240   16.1274   -3.7168 C   0  0  0  0  0  0  0  0  0  0  0  0
  -16.6451   15.9708   -2.5762 N   0  0  0  0  0  0  0  0  0  0  0  0
  -15.9770   14.9609   -1.9296 N   0  0  0  0  0  0  0  0  0  0  0  0
  -16.7354   13.8416   -2.0167 C   0  0  0  0  0  0  0  0  0  0  0  0
  -16.5822   12.5743   -1.5547 C   0  0  0  0  0  0  0  0  0  0  0  0
  -17.5139   11.5511   -1.8060 C   0  0  0  0  0  0  0  0  0  0  0  0
  -16.5909    6.6020   -1.2795 C   0  0  0  0  0  0  0  0  0  0  0  0
  -15.2548    7.1734   -1.2085 C   0  0  0  0  0  0  0  0  0  0  0  0
  -14.6523    7.1353   -2.5931 C   0  0  0  0  0  0  0  0  0  0  0  0
  -15.6351    9.4297   -5.8510 N   0  0  0  0  0  0  0  0  0  0  0  0
  -15.8824   10.0372   -4.5259 C   0  0  0  0  0  0  0  0  0  0  0  0
  -14.9696    9.4407   -3.6042 C   0  0  0  0  0  0  0  0  0  0  0  0
  -15.8379    7.9759   -5.9655 C   0  0  0  0  0  0  0  0  0  0  0  0
  -15.1368    7.2950   -4.8572 C   0  0  0  0  0  0  0  0  0  0  0  0
  -15.2977    7.9963   -3.5883 N   0  0  0  0  0  0  0  0  0  0  0  0
  -14.4814    9.6743   -7.8936 C   0  0  0  0  0  0  0  0  0  0  0  0
  -14.0425   10.5971   -8.8533 C   0  0  0  0  0  0  0  0  0  0  0  0
  -13.2605    9.9506   -9.9378 Cl  0  0  0  0  0  0  0  0  0  0  0  0
  -14.3700   11.9363   -8.9497 C   0  0  0  0  0  0  0  0  0  0  0  0
  -15.1075   12.4643   -7.9236 C   0  0  0  0  0  0  0  0  0  0  0  0
  -15.5005   11.5868   -6.9245 C   0  0  0  0  0  0  0  0  0  0  0  0
  -15.1992   10.1982   -6.8625 C   0  0  0  0  0  0  0  0  0  0  0  0
 15 14  1  0  0  0
 16 14  2  0  0  0
 16 17  1  0  0  0
 14 13  1  0  0  0
 17 18  2  0  0  0
 13 18  1  0  0  0
 13 12  1  0  0  0
 18 19  1  0  0  0
 12 11  2  0  0  0
 19 20  2  0  0  0
 11 20  1  0  0  0
 11 10  1  0  0  0
  7 10  1  0  0  0
  7  6  1  0  0  0
 10  9  1  0  0  0
  6  5  1  0  0  0
  9  8  1  0  0  0
  8  5  1  0  0  0
  5  2  1  0  0  0
  2  3  2  0  0  0
  2  1  1  0  0  0
  1 21  1  0  0  0
 21 22  1  0  0  0
 22 23  1  0  0  0
 34 35  2  0  0  0
 34 33  1  0  0  0
 26 25  1  0  0  0
 26 29  1  0  0  0
 35 36  1  0  0  0
 25 24  1  0  0  0
 33 31  2  0  0  0
 23 29  1  0  0  0
 29 28  1  0  0  0
 36 24  1  0  0  0
 36 30  2  0  0  0
 24 27  1  0  0  0
 31 30  1  0  0  0
 31 32  1  0  0  0
 28 27  1  0  0  0
  1  4  1  0  0  0
M  END
> <minimizedAffinity>
-7.13473

$$$$
