1BN3_AL6_A_555


 25 27  0  0  0  0  0  0  0  0999 V2000
   -4.5051    2.1454   14.9592 C   0  0  0  0  0  0  0  0  0  0  0  0
   -4.5433    6.7161   14.0612 C   0  0  0  0  0  0  0  0  0  0  0  0
   -4.4682    5.7330   15.0358 C   0  0  0  0  0  0  0  0  0  0  0  0
   -4.4260    3.3546   15.6099 C   0  0  0  0  0  0  0  0  0  0  0  0
   -4.4101    4.3856   14.7030 C   0  0  0  0  0  0  0  0  0  0  0  0
   -4.4227    3.9742   13.3856 C   0  0  0  0  0  0  0  0  0  0  0  0
   -4.5273    2.3013   13.2610 S   0  0  0  0  0  0  0  0  0  0  0  0
   -4.3224    5.1324   12.1350 S   0  0  0  0  0  0  0  0  0  0  0  0
   -2.9629    5.0979   11.7860 O   0  0  0  0  0  0  0  0  0  0  0  0
   -5.0692    4.6312   11.0189 O   0  0  0  0  0  0  0  0  0  0  0  0
   -4.5217    6.5351   12.6604 N   0  0  0  0  0  0  0  0  0  0  0  0
   -5.1150    7.5432   12.0051 C   0  0  0  0  0  0  0  0  0  0  0  0
   -6.5214    7.5727   12.0241 C   0  0  0  0  0  0  0  0  0  0  0  0
   -7.2076    8.6141   11.4054 C   0  0  0  0  0  0  0  0  0  0  0  0
   -6.4942    9.6313   10.7763 C   0  0  0  0  0  0  0  0  0  0  0  0
   -5.0751    9.5915   10.7743 C   0  0  0  0  0  0  0  0  0  0  0  0
   -4.3816    8.5504   11.3857 C   0  0  0  0  0  0  0  0  0  0  0  0
   -4.3273   10.5090   10.2226 O   0  0  0  0  0  0  0  0  0  0  0  0
   -4.1182   11.7479   10.9444 C   0  0  0  0  0  0  0  0  0  0  0  0
   -4.6502   -0.2882   14.6744 O   0  0  0  0  0  0  0  0  0  0  0  0
   -3.4036    0.4734   16.4841 O   0  0  0  0  0  0  0  0  0  0  0  0
   -5.8869    0.4575   16.6293 N   0  0  0  0  0  0  0  0  0  0  0  0
   -4.5853    0.6196   15.7271 S   0  0  0  0  0  0  0  0  0  0  0  0
   -6.7186    0.5691   16.0495 H   0  0  0  0  0  0  0  0  0  0  0  0
   -5.8843    1.1685   17.3607 H   0  0  0  0  0  0  0  0  0  0  0  0
  1 23  1  0  0  0
  1  4  2  0  0  0
  1  7  1  0  0  0
 18 16  1  0  0  0
 18 19  1  0  0  0
  2  3  2  0  0  0
  2 11  1  0  0  0
  3  5  1  0  0  0
 12 13  2  0  0  0
 12 17  1  0  0  0
 12 11  1  0  0  0
 13 14  1  0  0  0
 14 15  2  0  0  0
 15 16  1  0  0  0
 16 17  2  0  0  0
 20 23  2  0  0  0
 21 23  2  0  0  0
 22 23  1  0  0  0
  4  5  1  0  0  0
  5  6  2  0  0  0
  6  7  1  0  0  0
  6  8  1  0  0  0
  8  9  2  0  0  0
  8 10  2  0  0  0
  8 11  1  0  0  0
 22 24  1  0  0  0
 22 25  1  0  0  0
M  END
> <minimizedAffinity>
-7.45110

$$$$
1BN3_AL6_A_555


 25 27  0  0  0  0  0  0  0  0999 V2000
   -4.8329    2.2425   15.0439 C   0  0  0  0  0  0  0  0  0  0  0  0
   -6.4141    6.3839   13.6128 C   0  0  0  0  0  0  0  0  0  0  0  0
   -6.5278    5.3664   14.5477 C   0  0  0  0  0  0  0  0  0  0  0  0
   -5.7590    3.2001   15.3865 C   0  0  0  0  0  0  0  0  0  0  0  0
   -5.6541    4.2865   14.5533 C   0  0  0  0  0  0  0  0  0  0  0  0
   -4.6357    4.1870   13.6270 C   0  0  0  0  0  0  0  0  0  0  0  0
   -3.8432    2.7088   13.7357 S   0  0  0  0  0  0  0  0  0  0  0  0
   -4.3201    5.4910   12.5710 S   0  0  0  0  0  0  0  0  0  0  0  0
   -3.2427    6.1422   13.1925 O   0  0  0  0  0  0  0  0  0  0  0  0
   -3.8413    4.9430   11.3362 O   0  0  0  0  0  0  0  0  0  0  0  0
   -5.4289    6.5170   12.6093 N   0  0  0  0  0  0  0  0  0  0  0  0
   -5.8494    7.2592   11.5748 C   0  0  0  0  0  0  0  0  0  0  0  0
   -5.5830    8.6393   11.6333 C   0  0  0  0  0  0  0  0  0  0  0  0
   -5.9477    9.4675   10.5754 C   0  0  0  0  0  0  0  0  0  0  0  0
   -6.5684    8.9210    9.4550 C   0  0  0  0  0  0  0  0  0  0  0  0
   -6.8216    7.5248    9.4077 C   0  0  0  0  0  0  0  0  0  0  0  0
   -6.4653    6.6907   10.4642 C   0  0  0  0  0  0  0  0  0  0  0  0
   -7.3842    6.9264    8.3924 O   0  0  0  0  0  0  0  0  0  0  0  0
   -7.3088    5.4812    8.3211 C   0  0  0  0  0  0  0  0  0  0  0  0
   -4.6029   -0.1845   14.7592 O   0  0  0  0  0  0  0  0  0  0  0  0
   -3.4544    0.7654   16.5446 O   0  0  0  0  0  0  0  0  0  0  0  0
   -5.9015    0.3632   16.7393 N   0  0  0  0  0  0  0  0  0  0  0  0
   -4.6592    0.7243   15.8115 S   0  0  0  0  0  0  0  0  0  0  0  0
   -6.7518    0.3429   16.1763 H   0  0  0  0  0  0  0  0  0  0  0  0
   -5.9952    1.0674   17.4713 H   0  0  0  0  0  0  0  0  0  0  0  0
  1 23  1  0  0  0
  1  4  2  0  0  0
  1  7  1  0  0  0
 18 16  1  0  0  0
 18 19  1  0  0  0
  2  3  2  0  0  0
  2 11  1  0  0  0
  3  5  1  0  0  0
 12 13  2  0  0  0
 12 17  1  0  0  0
 12 11  1  0  0  0
 13 14  1  0  0  0
 14 15  2  0  0  0
 15 16  1  0  0  0
 16 17  2  0  0  0
 20 23  2  0  0  0
 21 23  2  0  0  0
 22 23  1  0  0  0
  4  5  1  0  0  0
  5  6  2  0  0  0
  6  7  1  0  0  0
  6  8  1  0  0  0
  8  9  2  0  0  0
  8 10  2  0  0  0
  8 11  1  0  0  0
 22 24  1  0  0  0
 22 25  1  0  0  0
M  END
> <minimizedAffinity>
-7.44138

$$$$
1BN3_AL6_A_555


 25 27  0  0  0  0  0  0  0  0999 V2000
   -5.7692    2.0937   16.5124 C   0  0  0  0  0  0  0  0  0  0  0  0
   -4.8534    5.2796   13.2396 C   0  0  0  0  0  0  0  0  0  0  0  0
   -5.6619    4.9235   14.3081 C   0  0  0  0  0  0  0  0  0  0  0  0
   -6.2147    3.3174   16.0696 C   0  0  0  0  0  0  0  0  0  0  0  0
   -5.4097    3.7821   15.0588 C   0  0  0  0  0  0  0  0  0  0  0  0
   -4.3405    2.9589   14.7695 C   0  0  0  0  0  0  0  0  0  0  0  0
   -4.3654    1.5616   15.7032 S   0  0  0  0  0  0  0  0  0  0  0  0
   -3.1980    3.4351   13.5933 S   0  0  0  0  0  0  0  0  0  0  0  0
   -2.1538    3.9640   14.3687 O   0  0  0  0  0  0  0  0  0  0  0  0
   -2.7078    2.2470   12.9588 O   0  0  0  0  0  0  0  0  0  0  0  0
   -3.6862    4.6207   12.7935 N   0  0  0  0  0  0  0  0  0  0  0  0
   -3.4298    4.8547   11.4985 C   0  0  0  0  0  0  0  0  0  0  0  0
   -2.1067    5.1964   11.1644 C   0  0  0  0  0  0  0  0  0  0  0  0
   -1.7535    5.4085    9.8346 C   0  0  0  0  0  0  0  0  0  0  0  0
   -2.7145    5.2709    8.8362 C   0  0  0  0  0  0  0  0  0  0  0  0
   -4.0432    4.9164    9.1893 C   0  0  0  0  0  0  0  0  0  0  0  0
   -4.4057    4.7084   10.5175 C   0  0  0  0  0  0  0  0  0  0  0  0
   -5.0026    4.7514    8.3189 O   0  0  0  0  0  0  0  0  0  0  0  0
   -6.1774    5.5927    8.4264 C   0  0  0  0  0  0  0  0  0  0  0  0
   -7.8097    0.9574   17.2670 O   0  0  0  0  0  0  0  0  0  0  0  0
   -5.7905   -0.0463   17.8369 O   0  0  0  0  0  0  0  0  0  0  0  0
   -6.5850    1.9244   19.1303 N   0  0  0  0  0  0  0  0  0  0  0  0
   -6.5152    1.1601   17.7355 S   0  0  0  0  0  0  0  0  0  0  0  0
   -7.1147    2.7888   19.0182 H   0  0  0  0  0  0  0  0  0  0  0  0
   -5.6400    2.1432   19.4458 H   0  0  0  0  0  0  0  0  0  0  0  0
  1 23  1  0  0  0
  1  4  2  0  0  0
  1  7  1  0  0  0
 18 16  1  0  0  0
 18 19  1  0  0  0
  2  3  2  0  0  0
  2 11  1  0  0  0
  3  5  1  0  0  0
 12 13  2  0  0  0
 12 17  1  0  0  0
 12 11  1  0  0  0
 13 14  1  0  0  0
 14 15  2  0  0  0
 15 16  1  0  0  0
 16 17  2  0  0  0
 20 23  2  0  0  0
 21 23  2  0  0  0
 22 23  1  0  0  0
  4  5  1  0  0  0
  5  6  2  0  0  0
  6  7  1  0  0  0
  6  8  1  0  0  0
  8  9  2  0  0  0
  8 10  2  0  0  0
  8 11  1  0  0  0
 22 24  1  0  0  0
 22 25  1  0  0  0
M  END
> <minimizedAffinity>
-7.36743

$$$$
1BN3_AL6_A_555


 25 27  0  0  0  0  0  0  0  0999 V2000
   -5.7342    2.0949   16.2635 C   0  0  0  0  0  0  0  0  0  0  0  0
   -4.7828    5.1654   12.8921 C   0  0  0  0  0  0  0  0  0  0  0  0
   -5.5702    4.8701   13.9943 C   0  0  0  0  0  0  0  0  0  0  0  0
   -6.1370    3.3288   15.8084 C   0  0  0  0  0  0  0  0  0  0  0  0
   -5.3461    3.7340   14.7615 C   0  0  0  0  0  0  0  0  0  0  0  0
   -4.3268    2.8552   14.4556 C   0  0  0  0  0  0  0  0  0  0  0  0
   -4.3849    1.4804   15.4206 S   0  0  0  0  0  0  0  0  0  0  0  0
   -3.2040    3.2525   13.2320 S   0  0  0  0  0  0  0  0  0  0  0  0
   -2.1106    3.7474   13.9606 O   0  0  0  0  0  0  0  0  0  0  0  0
   -2.7914    2.0296   12.6084 O   0  0  0  0  0  0  0  0  0  0  0  0
   -3.6633    4.4430   12.4226 N   0  0  0  0  0  0  0  0  0  0  0  0
   -3.4405    4.6378   11.1149 C   0  0  0  0  0  0  0  0  0  0  0  0
   -4.5700    4.8431   10.3017 C   0  0  0  0  0  0  0  0  0  0  0  0
   -4.4157    5.0983    8.9419 C   0  0  0  0  0  0  0  0  0  0  0  0
   -3.1373    5.1589    8.3930 C   0  0  0  0  0  0  0  0  0  0  0  0
   -2.0076    4.9586    9.2292 C   0  0  0  0  0  0  0  0  0  0  0  0
   -2.1537    4.6971   10.5890 C   0  0  0  0  0  0  0  0  0  0  0  0
   -0.7744    5.0126    8.8029 O   0  0  0  0  0  0  0  0  0  0  0  0
    0.2168    4.1902    9.4668 C   0  0  0  0  0  0  0  0  0  0  0  0
   -7.7855    1.0286   17.0879 O   0  0  0  0  0  0  0  0  0  0  0  0
   -5.7783    0.0073   17.6685 O   0  0  0  0  0  0  0  0  0  0  0  0
   -6.5162    2.0408   18.8966 N   0  0  0  0  0  0  0  0  0  0  0  0
   -6.4808    1.2232   17.5311 S   0  0  0  0  0  0  0  0  0  0  0  0
   -7.0306    2.9107   18.7588 H   0  0  0  0  0  0  0  0  0  0  0  0
   -5.5628    2.2526   19.1909 H   0  0  0  0  0  0  0  0  0  0  0  0
  1 23  1  0  0  0
  1  4  2  0  0  0
  1  7  1  0  0  0
 18 16  1  0  0  0
 18 19  1  0  0  0
  2  3  2  0  0  0
  2 11  1  0  0  0
  3  5  1  0  0  0
 12 13  2  0  0  0
 12 17  1  0  0  0
 12 11  1  0  0  0
 13 14  1  0  0  0
 14 15  2  0  0  0
 15 16  1  0  0  0
 16 17  2  0  0  0
 20 23  2  0  0  0
 21 23  2  0  0  0
 22 23  1  0  0  0
  4  5  1  0  0  0
  5  6  2  0  0  0
  6  7  1  0  0  0
  6  8  1  0  0  0
  8  9  2  0  0  0
  8 10  2  0  0  0
  8 11  1  0  0  0
 22 24  1  0  0  0
 22 25  1  0  0  0
M  END
> <minimizedAffinity>
-7.11677

$$$$
1BN3_AL6_A_555


 25 27  0  0  0  0  0  0  0  0999 V2000
    0.6107    4.5395   11.5753 C   0  0  0  0  0  0  0  0  0  0  0  0
   -3.1557    5.2375   14.2260 C   0  0  0  0  0  0  0  0  0  0  0  0
   -1.9534    5.7568   13.7710 C   0  0  0  0  0  0  0  0  0  0  0  0
    0.0543    5.4915   12.3974 C   0  0  0  0  0  0  0  0  0  0  0  0
   -1.1855    5.0866   12.8271 C   0  0  0  0  0  0  0  0  0  0  0  0
   -1.5931    3.8763   12.3038 C   0  0  0  0  0  0  0  0  0  0  0  0
   -0.4074    3.1939   11.3275 S   0  0  0  0  0  0  0  0  0  0  0  0
   -3.1466    3.2725   12.6748 S   0  0  0  0  0  0  0  0  0  0  0  0
   -3.9001    3.6364   11.5474 O   0  0  0  0  0  0  0  0  0  0  0  0
   -3.0621    1.8419   12.6963 O   0  0  0  0  0  0  0  0  0  0  0  0
   -3.7893    4.0487   13.8008 N   0  0  0  0  0  0  0  0  0  0  0  0
   -4.6124    3.5463   14.7324 C   0  0  0  0  0  0  0  0  0  0  0  0
   -5.8505    4.1926   14.9013 C   0  0  0  0  0  0  0  0  0  0  0  0
   -6.7771    3.7010   15.8167 C   0  0  0  0  0  0  0  0  0  0  0  0
   -6.4757    2.5605   16.5568 C   0  0  0  0  0  0  0  0  0  0  0  0
   -5.2255    1.9148   16.3677 C   0  0  0  0  0  0  0  0  0  0  0  0
   -4.2912    2.4037   15.4584 C   0  0  0  0  0  0  0  0  0  0  0  0
   -4.8665    0.8339   17.0067 O   0  0  0  0  0  0  0  0  0  0  0  0
   -5.8571    0.1577   17.8198 C   0  0  0  0  0  0  0  0  0  0  0  0
    2.1708    5.8932   10.2494 O   0  0  0  0  0  0  0  0  0  0  0  0
    3.1059    4.5527   11.9040 O   0  0  0  0  0  0  0  0  0  0  0  0
    2.3981    3.5251    9.7520 N   0  0  0  0  0  0  0  0  0  0  0  0
    2.1607    4.6430   10.8603 S   0  0  0  0  0  0  0  0  0  0  0  0
    1.6981    3.6216    9.0163 H   0  0  0  0  0  0  0  0  0  0  0  0
    2.3185    2.6017   10.1779 H   0  0  0  0  0  0  0  0  0  0  0  0
  1 23  1  0  0  0
  1  4  2  0  0  0
  1  7  1  0  0  0
 18 16  1  0  0  0
 18 19  1  0  0  0
  2  3  2  0  0  0
  2 11  1  0  0  0
  3  5  1  0  0  0
 12 13  2  0  0  0
 12 17  1  0  0  0
 12 11  1  0  0  0
 13 14  1  0  0  0
 14 15  2  0  0  0
 15 16  1  0  0  0
 16 17  2  0  0  0
 20 23  2  0  0  0
 21 23  2  0  0  0
 22 23  1  0  0  0
  4  5  1  0  0  0
  5  6  2  0  0  0
  6  7  1  0  0  0
  6  8  1  0  0  0
  8  9  2  0  0  0
  8 10  2  0  0  0
  8 11  1  0  0  0
 22 24  1  0  0  0
 22 25  1  0  0  0
M  END
> <minimizedAffinity>
-7.11285

$$$$
1BN3_AL6_A_555


 25 27  0  0  0  0  0  0  0  0999 V2000
   -5.3310    2.2033   16.1739 C   0  0  0  0  0  0  0  0  0  0  0  0
   -2.3523    5.1147   14.0881 C   0  0  0  0  0  0  0  0  0  0  0  0
   -2.5078    3.9195   14.7733 C   0  0  0  0  0  0  0  0  0  0  0  0
   -3.9924    2.3197   15.8798 C   0  0  0  0  0  0  0  0  0  0  0  0
   -3.7647    3.4439   15.1249 C   0  0  0  0  0  0  0  0  0  0  0  0
   -4.9093    4.1445   14.8023 C   0  0  0  0  0  0  0  0  0  0  0  0
   -6.2746    3.4516   15.4957 S   0  0  0  0  0  0  0  0  0  0  0  0
   -4.8054    5.5215   13.7980 S   0  0  0  0  0  0  0  0  0  0  0  0
   -5.1589    5.0153   12.5370 O   0  0  0  0  0  0  0  0  0  0  0  0
   -5.8350    6.4326   14.2034 O   0  0  0  0  0  0  0  0  0  0  0  0
   -3.3736    5.9688   13.6158 N   0  0  0  0  0  0  0  0  0  0  0  0
   -2.9573    7.2357   13.4765 C   0  0  0  0  0  0  0  0  0  0  0  0
   -3.1132    7.8195   12.2061 C   0  0  0  0  0  0  0  0  0  0  0  0
   -2.7473    9.1462   11.9964 C   0  0  0  0  0  0  0  0  0  0  0  0
   -2.2355    9.8950   13.0532 C   0  0  0  0  0  0  0  0  0  0  0  0
   -2.0933    9.2935   14.3313 C   0  0  0  0  0  0  0  0  0  0  0  0
   -2.4515    7.9655   14.5477 C   0  0  0  0  0  0  0  0  0  0  0  0
   -1.6373    9.9242   15.3800 O   0  0  0  0  0  0  0  0  0  0  0  0
   -0.2189   10.2135   15.4425 C   0  0  0  0  0  0  0  0  0  0  0  0
   -5.6107   -0.2129   16.5027 O   0  0  0  0  0  0  0  0  0  0  0  0
   -5.4950    1.0906   18.4254 O   0  0  0  0  0  0  0  0  0  0  0  0
   -7.6154    1.0112   17.1271 N   0  0  0  0  0  0  0  0  0  0  0  0
   -6.0241    0.9617   17.1238 S   0  0  0  0  0  0  0  0  0  0  0  0
   -7.9605    0.9153   16.1720 H   0  0  0  0  0  0  0  0  0  0  0  0
   -7.9270    1.9023   17.5134 H   0  0  0  0  0  0  0  0  0  0  0  0
  1 23  1  0  0  0
  1  4  2  0  0  0
  1  7  1  0  0  0
 18 16  1  0  0  0
 18 19  1  0  0  0
  2  3  2  0  0  0
  2 11  1  0  0  0
  3  5  1  0  0  0
 12 13  2  0  0  0
 12 17  1  0  0  0
 12 11  1  0  0  0
 13 14  1  0  0  0
 14 15  2  0  0  0
 15 16  1  0  0  0
 16 17  2  0  0  0
 20 23  2  0  0  0
 21 23  2  0  0  0
 22 23  1  0  0  0
  4  5  1  0  0  0
  5  6  2  0  0  0
  6  7  1  0  0  0
  6  8  1  0  0  0
  8  9  2  0  0  0
  8 10  2  0  0  0
  8 11  1  0  0  0
 22 24  1  0  0  0
 22 25  1  0  0  0
M  END
> <minimizedAffinity>
-7.09712

$$$$
1BN3_AL6_A_555


 25 27  0  0  0  0  0  0  0  0999 V2000
   -1.4950    8.3446   14.2924 C   0  0  0  0  0  0  0  0  0  0  0  0
   -4.6300    4.9384   14.8108 C   0  0  0  0  0  0  0  0  0  0  0  0
   -4.3056    6.2584   15.0838 C   0  0  0  0  0  0  0  0  0  0  0  0
   -2.7287    8.1156   14.8560 C   0  0  0  0  0  0  0  0  0  0  0  0
   -3.1622    6.8470   14.5586 C   0  0  0  0  0  0  0  0  0  0  0  0
   -2.3051    6.1384   13.7413 C   0  0  0  0  0  0  0  0  0  0  0  0
   -0.9154    7.0170   13.3923 S   0  0  0  0  0  0  0  0  0  0  0  0
   -2.7388    4.5742   13.2114 S   0  0  0  0  0  0  0  0  0  0  0  0
   -3.2411    4.8097   11.9217 O   0  0  0  0  0  0  0  0  0  0  0  0
   -1.5323    3.8127   13.0742 O   0  0  0  0  0  0  0  0  0  0  0  0
   -3.9333    4.0429   13.9693 N   0  0  0  0  0  0  0  0  0  0  0  0
   -4.1509    2.7605   14.2950 C   0  0  0  0  0  0  0  0  0  0  0  0
   -4.1234    1.8250   13.2447 C   0  0  0  0  0  0  0  0  0  0  0  0
   -4.2945    0.4693   13.5110 C   0  0  0  0  0  0  0  0  0  0  0  0
   -4.4830    0.0435   14.8235 C   0  0  0  0  0  0  0  0  0  0  0  0
   -4.4987    0.9995   15.8729 C   0  0  0  0  0  0  0  0  0  0  0  0
   -4.3343    2.3578   15.6141 C   0  0  0  0  0  0  0  0  0  0  0  0
   -4.6541    0.6883   17.1316 O   0  0  0  0  0  0  0  0  0  0  0  0
   -5.9884    0.7506   17.6932 C   0  0  0  0  0  0  0  0  0  0  0  0
   -0.8482   10.2032   15.7591 O   0  0  0  0  0  0  0  0  0  0  0  0
    0.7642    9.4533   14.2602 O   0  0  0  0  0  0  0  0  0  0  0  0
   -1.0703   10.9245   13.4488 N   0  0  0  0  0  0  0  0  0  0  0  0
   -0.5925    9.7878   14.4559 S   0  0  0  0  0  0  0  0  0  0  0  0
   -2.0527   11.1391   13.6197 H   0  0  0  0  0  0  0  0  0  0  0  0
   -0.9553   10.5987   12.4891 H   0  0  0  0  0  0  0  0  0  0  0  0
  1 23  1  0  0  0
  1  4  2  0  0  0
  1  7  1  0  0  0
 18 16  1  0  0  0
 18 19  1  0  0  0
  2  3  2  0  0  0
  2 11  1  0  0  0
  3  5  1  0  0  0
 12 13  2  0  0  0
 12 17  1  0  0  0
 12 11  1  0  0  0
 13 14  1  0  0  0
 14 15  2  0  0  0
 15 16  1  0  0  0
 16 17  2  0  0  0
 20 23  2  0  0  0
 21 23  2  0  0  0
 22 23  1  0  0  0
  4  5  1  0  0  0
  5  6  2  0  0  0
  6  7  1  0  0  0
  6  8  1  0  0  0
  8  9  2  0  0  0
  8 10  2  0  0  0
  8 11  1  0  0  0
 22 24  1  0  0  0
 22 25  1  0  0  0
M  END
> <minimizedAffinity>
-7.00221

$$$$
1BN3_AL6_A_555


 25 27  0  0  0  0  0  0  0  0999 V2000
   -5.3746    2.2124   16.1570 C   0  0  0  0  0  0  0  0  0  0  0  0
   -2.4540    5.2006   14.0978 C   0  0  0  0  0  0  0  0  0  0  0  0
   -2.5871    3.9920   14.7639 C   0  0  0  0  0  0  0  0  0  0  0  0
   -4.0401    2.3529   15.8546 C   0  0  0  0  0  0  0  0  0  0  0  0
   -3.8344    3.4927   15.1170 C   0  0  0  0  0  0  0  0  0  0  0  0
   -4.9913    4.1821   14.8151 C   0  0  0  0  0  0  0  0  0  0  0  0
   -6.3411    3.4582   15.5071 S   0  0  0  0  0  0  0  0  0  0  0  0
   -4.9149    5.5771   13.8334 S   0  0  0  0  0  0  0  0  0  0  0  0
   -5.2711    5.0871   12.5668 O   0  0  0  0  0  0  0  0  0  0  0  0
   -5.9540    6.4664   14.2620 O   0  0  0  0  0  0  0  0  0  0  0  0
   -3.4910    6.0478   13.6477 N   0  0  0  0  0  0  0  0  0  0  0  0
   -3.0939    7.3227   13.5267 C   0  0  0  0  0  0  0  0  0  0  0  0
   -2.4197    7.8851   14.6258 C   0  0  0  0  0  0  0  0  0  0  0  0
   -1.9361    9.1888   14.5573 C   0  0  0  0  0  0  0  0  0  0  0  0
   -2.1146    9.9294   13.3916 C   0  0  0  0  0  0  0  0  0  0  0  0
   -2.7889    9.3437   12.2880 C   0  0  0  0  0  0  0  0  0  0  0  0
   -3.2807    8.0426   12.3507 C   0  0  0  0  0  0  0  0  0  0  0  0
   -2.9870    9.9587   11.1531 O   0  0  0  0  0  0  0  0  0  0  0  0
   -4.1555   10.8064   11.0279 C   0  0  0  0  0  0  0  0  0  0  0  0
   -7.4162    1.0798   16.9143 O   0  0  0  0  0  0  0  0  0  0  0  0
   -5.5532   -0.2659   16.5577 O   0  0  0  0  0  0  0  0  0  0  0  0
   -5.7054    1.0855   18.6406 N   0  0  0  0  0  0  0  0  0  0  0  0
   -6.0425    0.9452   17.0910 S   0  0  0  0  0  0  0  0  0  0  0  0
   -6.0735    1.9702   18.9900 H   0  0  0  0  0  0  0  0  0  0  0  0
   -4.6941    1.0624   18.7720 H   0  0  0  0  0  0  0  0  0  0  0  0
  1 23  1  0  0  0
  1  4  2  0  0  0
  1  7  1  0  0  0
 18 16  1  0  0  0
 18 19  1  0  0  0
  2  3  2  0  0  0
  2 11  1  0  0  0
  3  5  1  0  0  0
 12 13  2  0  0  0
 12 17  1  0  0  0
 12 11  1  0  0  0
 13 14  1  0  0  0
 14 15  2  0  0  0
 15 16  1  0  0  0
 16 17  2  0  0  0
 20 23  2  0  0  0
 21 23  2  0  0  0
 22 23  1  0  0  0
  4  5  1  0  0  0
  5  6  2  0  0  0
  6  7  1  0  0  0
  6  8  1  0  0  0
  8  9  2  0  0  0
  8 10  2  0  0  0
  8 11  1  0  0  0
 22 24  1  0  0  0
 22 25  1  0  0  0
M  END
> <minimizedAffinity>
-6.96567

$$$$
1BN3_AL6_A_555


 25 27  0  0  0  0  0  0  0  0999 V2000
   -5.7807    2.2429   16.4338 C   0  0  0  0  0  0  0  0  0  0  0  0
   -5.1381    5.5294   13.1957 C   0  0  0  0  0  0  0  0  0  0  0  0
   -5.9460    5.0636   14.2216 C   0  0  0  0  0  0  0  0  0  0  0  0
   -6.3661    3.3941   15.9606 C   0  0  0  0  0  0  0  0  0  0  0  0
   -5.5798    3.9669   14.9914 C   0  0  0  0  0  0  0  0  0  0  0  0
   -4.3933    3.2993   14.7646 C   0  0  0  0  0  0  0  0  0  0  0  0
   -4.2756    1.9106   15.7040 S   0  0  0  0  0  0  0  0  0  0  0  0
   -3.2658    3.9302   13.6482 S   0  0  0  0  0  0  0  0  0  0  0  0
   -2.3476    4.5969   14.4751 O   0  0  0  0  0  0  0  0  0  0  0  0
   -2.5833    2.8220   13.0479 O   0  0  0  0  0  0  0  0  0  0  0  0
   -3.8690    5.0384   12.8165 N   0  0  0  0  0  0  0  0  0  0  0  0
   -3.5782    5.3074   11.5356 C   0  0  0  0  0  0  0  0  0  0  0  0
   -4.3064    4.6054   10.5579 C   0  0  0  0  0  0  0  0  0  0  0  0
   -4.0933    4.8644    9.2067 C   0  0  0  0  0  0  0  0  0  0  0  0
   -3.1627    5.8289    8.8286 C   0  0  0  0  0  0  0  0  0  0  0  0
   -2.4428    6.5351    9.8280 C   0  0  0  0  0  0  0  0  0  0  0  0
   -2.6460    6.2777   11.1813 C   0  0  0  0  0  0  0  0  0  0  0  0
   -1.5641    7.4646    9.5648 O   0  0  0  0  0  0  0  0  0  0  0  0
   -1.7894    8.7920   10.1006 C   0  0  0  0  0  0  0  0  0  0  0  0
   -7.7557    0.9900   17.1782 O   0  0  0  0  0  0  0  0  0  0  0  0
   -5.6859    0.0312   17.6311 O   0  0  0  0  0  0  0  0  0  0  0  0
   -6.5101    1.8935   19.0594 N   0  0  0  0  0  0  0  0  0  0  0  0
   -6.4556    1.2136   17.6209 S   0  0  0  0  0  0  0  0  0  0  0  0
   -7.0734    2.7426   19.0130 H   0  0  0  0  0  0  0  0  0  0  0  0
   -5.5644    2.1289   19.3603 H   0  0  0  0  0  0  0  0  0  0  0  0
  1 23  1  0  0  0
  1  4  2  0  0  0
  1  7  1  0  0  0
 18 16  1  0  0  0
 18 19  1  0  0  0
  2  3  2  0  0  0
  2 11  1  0  0  0
  3  5  1  0  0  0
 12 13  2  0  0  0
 12 17  1  0  0  0
 12 11  1  0  0  0
 13 14  1  0  0  0
 14 15  2  0  0  0
 15 16  1  0  0  0
 16 17  2  0  0  0
 20 23  2  0  0  0
 21 23  2  0  0  0
 22 23  1  0  0  0
  4  5  1  0  0  0
  5  6  2  0  0  0
  6  7  1  0  0  0
  6  8  1  0  0  0
  8  9  2  0  0  0
  8 10  2  0  0  0
  8 11  1  0  0  0
 22 24  1  0  0  0
 22 25  1  0  0  0
M  END
> <minimizedAffinity>
-6.76789

$$$$
1BN3_AL6_A_555


 25 27  0  0  0  0  0  0  0  0999 V2000
   -4.7502    2.0575   14.8827 C   0  0  0  0  0  0  0  0  0  0  0  0
   -4.4555    5.2937   11.5450 C   0  0  0  0  0  0  0  0  0  0  0  0
   -4.2723    3.9604   11.8779 C   0  0  0  0  0  0  0  0  0  0  0  0
   -4.4039    2.1859   13.5577 C   0  0  0  0  0  0  0  0  0  0  0  0
   -4.6368    3.4680   13.1246 C   0  0  0  0  0  0  0  0  0  0  0  0
   -5.1989    4.2897   14.0805 C   0  0  0  0  0  0  0  0  0  0  0  0
   -5.3772    3.4958   15.5512 S   0  0  0  0  0  0  0  0  0  0  0  0
   -5.6268    5.8922   13.6751 S   0  0  0  0  0  0  0  0  0  0  0  0
   -7.0052    5.7939   13.4270 O   0  0  0  0  0  0  0  0  0  0  0  0
   -5.4540    6.6972   14.8484 O   0  0  0  0  0  0  0  0  0  0  0  0
   -5.0506    6.2993   12.3388 N   0  0  0  0  0  0  0  0  0  0  0  0
   -4.6335    7.5289   12.0042 C   0  0  0  0  0  0  0  0  0  0  0  0
   -5.5597    8.3557   11.3427 C   0  0  0  0  0  0  0  0  0  0  0  0
   -5.2151    9.6616   11.0048 C   0  0  0  0  0  0  0  0  0  0  0  0
   -3.9524   10.1479   11.3340 C   0  0  0  0  0  0  0  0  0  0  0  0
   -3.0327    9.3035   12.0099 C   0  0  0  0  0  0  0  0  0  0  0  0
   -3.3677    7.9945   12.3460 C   0  0  0  0  0  0  0  0  0  0  0  0
   -1.8353    9.6808   12.3698 O   0  0  0  0  0  0  0  0  0  0  0  0
   -1.6874   10.3818   13.6292 C   0  0  0  0  0  0  0  0  0  0  0  0
   -4.5230   -0.3863   14.8606 O   0  0  0  0  0  0  0  0  0  0  0  0
   -3.3762    0.7485   16.5358 O   0  0  0  0  0  0  0  0  0  0  0  0
   -5.8241    0.3724   16.7681 N   0  0  0  0  0  0  0  0  0  0  0  0
   -4.5798    0.6303   15.8091 S   0  0  0  0  0  0  0  0  0  0  0  0
   -6.6735    0.2928   16.2090 H   0  0  0  0  0  0  0  0  0  0  0  0
   -5.9181    1.1512   17.4201 H   0  0  0  0  0  0  0  0  0  0  0  0
  1 23  1  0  0  0
  1  4  2  0  0  0
  1  7  1  0  0  0
 18 16  1  0  0  0
 18 19  1  0  0  0
  2  3  2  0  0  0
  2 11  1  0  0  0
  3  5  1  0  0  0
 12 13  2  0  0  0
 12 17  1  0  0  0
 12 11  1  0  0  0
 13 14  1  0  0  0
 14 15  2  0  0  0
 15 16  1  0  0  0
 16 17  2  0  0  0
 20 23  2  0  0  0
 21 23  2  0  0  0
 22 23  1  0  0  0
  4  5  1  0  0  0
  5  6  2  0  0  0
  6  7  1  0  0  0
  6  8  1  0  0  0
  8  9  2  0  0  0
  8 10  2  0  0  0
  8 11  1  0  0  0
 22 24  1  0  0  0
 22 25  1  0  0  0
M  END
> <minimizedAffinity>
-6.68786

$$$$
