4U5O_3D5_A_501


 28 29  0  0  0  0  0  0  0  0999 V2000
   -1.0363   29.1630   11.7562 N   0  0  0  0  0  0  0  0  0  0  0  0
   -1.8679   28.5866   11.8851 H   0  0  0  0  0  0  0  0  0  0  0  0
   -0.6851   29.8534   13.0056 C   0  0  0  0  0  0  0  0  0  0  0  0
    0.6859   33.7033   12.3301 C   0  0  0  0  0  0  0  0  0  0  0  0
   -0.5862   33.3480   11.8915 C   0  0  0  0  0  0  0  0  0  0  0  0
   -1.0571   32.0550   12.1103 C   0  0  0  0  0  0  0  0  0  0  0  0
    1.4576   32.8026   13.0478 C   0  0  0  0  0  0  0  0  0  0  0  0
    1.0079   31.5068   13.2431 C   0  0  0  0  0  0  0  0  0  0  0  0
   -0.2519   31.1435   12.7856 C   0  0  0  0  0  0  0  0  0  0  0  0
    1.7228   35.6675   13.2343 C   0  0  0  0  0  0  0  0  0  0  0  0
    2.2135   36.9578   13.0974 C   0  0  0  0  0  0  0  0  0  0  0  0
    2.1937   37.5628   11.8468 C   0  0  0  0  0  0  0  0  0  0  0  0
    1.6528   36.8679   10.7550 N   0  0  0  0  0  0  0  0  0  0  0  0
    1.1390   35.5790   10.8968 C   0  0  0  0  0  0  0  0  0  0  0  0
    1.1467   34.9989   12.1596 C   0  0  0  0  0  0  0  0  0  0  0  0
    0.1335   28.3253   11.4521 C   0  0  0  0  0  0  0  0  0  0  0  0
   -0.3274   26.8539   11.3215 C   0  0  0  0  0  0  0  0  0  0  0  0
    0.3486   25.9347   11.7899 O   0  0  0  0  0  0  0  0  0  0  0  0
   -1.5044   26.6726   10.7133 N   0  0  0  0  0  0  0  0  0  0  0  0
   -1.9995   27.4461   10.3585 H   0  0  0  0  0  0  0  0  0  0  0  0
   -1.8759   25.7656   10.6203 H   0  0  0  0  0  0  0  0  0  0  0  0
    0.8462   28.8194   10.1916 C   0  0  0  0  0  0  0  0  0  0  0  0
    2.2196   29.3953   10.5881 C   0  0  0  0  0  0  0  0  0  0  0  0
    2.6410   30.5912    9.7098 C   0  0  0  0  0  0  0  0  0  0  0  0
    1.3789   31.4180    9.3946 C   0  0  0  0  0  0  0  0  0  0  0  0
    1.2512   31.8033    7.9720 N   0  0  0  0  0  0  0  0  0  0  0  0
    1.1746   30.9636    7.3979 H   0  0  0  0  0  0  0  0  0  0  0  0
    2.0742   32.3350    7.6885 H   0  0  0  0  0  0  0  0  0  0  0  0
 26 25  1  0  0  0
 25 24  1  0  0  0
 24 23  1  0  0  0
 23 22  1  0  0  0
 22 16  1  0  0  0
 16  1  1  0  0  0
 16 17  1  0  0  0
  1  3  1  0  0  0
  6  5  2  0  0  0
  6  9  1  0  0  0
  5  4  1  0  0  0
  3  9  1  0  0  0
 17 19  1  0  0  0
 17 18  2  0  0  0
  9  8  2  0  0  0
 14 13  2  0  0  0
 14 15  1  0  0  0
  4 15  1  0  0  0
  4  7  2  0  0  0
 13 12  1  0  0  0
 15 10  2  0  0  0
  8  7  1  0  0  0
 12 11  2  0  0  0
 10 11  1  0  0  0
  1  2  1  0  0  0
 19 20  1  0  0  0
 19 21  1  0  0  0
 26 27  1  0  0  0
 26 28  1  0  0  0
M  END
> <minimizedAffinity>
-5.69452

$$$$
4U5O_3D5_A_501


 28 29  0  0  0  0  0  0  0  0999 V2000
    0.3958   29.9778   10.3611 N   0  0  0  0  0  0  0  0  0  0  0  0
   -0.0457   29.9796    9.4416 H   0  0  0  0  0  0  0  0  0  0  0  0
    1.8491   29.7936   10.2382 C   0  0  0  0  0  0  0  0  0  0  0  0
    3.1312   29.5904    6.3047 C   0  0  0  0  0  0  0  0  0  0  0  0
    2.5728   28.4615    6.8968 C   0  0  0  0  0  0  0  0  0  0  0  0
    2.1406   28.5168    8.2203 C   0  0  0  0  0  0  0  0  0  0  0  0
    3.1924   30.7890    6.9985 C   0  0  0  0  0  0  0  0  0  0  0  0
    2.7919   30.8434    8.3237 C   0  0  0  0  0  0  0  0  0  0  0  0
    2.2559   29.7115    8.9236 C   0  0  0  0  0  0  0  0  0  0  0  0
    2.7749   28.8285    4.0589 C   0  0  0  0  0  0  0  0  0  0  0  0
    3.1227   28.7909    2.7165 C   0  0  0  0  0  0  0  0  0  0  0  0
    4.1923   29.5571    2.2703 C   0  0  0  0  0  0  0  0  0  0  0  0
    4.9157   30.3304    3.1904 N   0  0  0  0  0  0  0  0  0  0  0  0
    4.5802   30.3511    4.5440 C   0  0  0  0  0  0  0  0  0  0  0  0
    3.5215   29.5609    4.9755 C   0  0  0  0  0  0  0  0  0  0  0  0
    0.2402   31.2863   11.0140 C   0  0  0  0  0  0  0  0  0  0  0  0
   -1.0658   31.2772   11.8439 C   0  0  0  0  0  0  0  0  0  0  0  0
   -1.8137   32.2580   11.8583 O   0  0  0  0  0  0  0  0  0  0  0  0
   -1.3275   30.1364   12.4905 N   0  0  0  0  0  0  0  0  0  0  0  0
   -0.6918   29.3862   12.4421 H   0  0  0  0  0  0  0  0  0  0  0  0
   -2.1558   30.0466   13.0149 H   0  0  0  0  0  0  0  0  0  0  0  0
    1.4640   31.6184   11.8702 C   0  0  0  0  0  0  0  0  0  0  0  0
    1.7033   33.1404   11.8296 C   0  0  0  0  0  0  0  0  0  0  0  0
    1.5216   33.7353   10.4182 C   0  0  0  0  0  0  0  0  0  0  0  0
    0.6338   34.9893   10.5410 C   0  0  0  0  0  0  0  0  0  0  0  0
   -0.7987   34.7421   10.2669 N   0  0  0  0  0  0  0  0  0  0  0  0
   -1.1670   34.0821   10.9518 H   0  0  0  0  0  0  0  0  0  0  0  0
   -0.9034   34.3534    9.3297 H   0  0  0  0  0  0  0  0  0  0  0  0
 26 25  1  0  0  0
 25 24  1  0  0  0
 24 23  1  0  0  0
 23 22  1  0  0  0
 22 16  1  0  0  0
 16  1  1  0  0  0
 16 17  1  0  0  0
  1  3  1  0  0  0
  6  5  2  0  0  0
  6  9  1  0  0  0
  5  4  1  0  0  0
  3  9  1  0  0  0
 17 19  1  0  0  0
 17 18  2  0  0  0
  9  8  2  0  0  0
 14 13  2  0  0  0
 14 15  1  0  0  0
  4 15  1  0  0  0
  4  7  2  0  0  0
 13 12  1  0  0  0
 15 10  2  0  0  0
  8  7  1  0  0  0
 12 11  2  0  0  0
 10 11  1  0  0  0
  1  2  1  0  0  0
 19 20  1  0  0  0
 19 21  1  0  0  0
 26 27  1  0  0  0
 26 28  1  0  0  0
M  END
> <minimizedAffinity>
-5.63232

$$$$
4U5O_3D5_A_501


 28 29  0  0  0  0  0  0  0  0999 V2000
   -0.7751   28.4412   11.9536 N   0  0  0  0  0  0  0  0  0  0  0  0
   -1.6862   28.0085   11.8018 H   0  0  0  0  0  0  0  0  0  0  0  0
   -0.7963   29.2866   13.1560 C   0  0  0  0  0  0  0  0  0  0  0  0
    0.3930   33.1802   12.3928 C   0  0  0  0  0  0  0  0  0  0  0  0
    1.2701   32.3165   13.0419 C   0  0  0  0  0  0  0  0  0  0  0  0
    0.8802   31.0053   13.3068 C   0  0  0  0  0  0  0  0  0  0  0  0
   -0.8363   32.7242   11.9426 C   0  0  0  0  0  0  0  0  0  0  0  0
   -1.2421   31.4308   12.2285 C   0  0  0  0  0  0  0  0  0  0  0  0
   -0.3773   30.5741   12.8968 C   0  0  0  0  0  0  0  0  0  0  0  0
    1.5324   35.2001   13.0035 C   0  0  0  0  0  0  0  0  0  0  0  0
    1.9620   36.4886   12.7212 C   0  0  0  0  0  0  0  0  0  0  0  0
    1.7039   37.0313   11.4685 C   0  0  0  0  0  0  0  0  0  0  0  0
    0.9905   36.2766   10.5256 N   0  0  0  0  0  0  0  0  0  0  0  0
    0.5391   34.9895   10.8169 C   0  0  0  0  0  0  0  0  0  0  0  0
    0.7869   34.4721   12.0826 C   0  0  0  0  0  0  0  0  0  0  0  0
    0.2442   27.4191   12.2349 C   0  0  0  0  0  0  0  0  0  0  0  0
   -0.4105   26.2699   13.0381 C   0  0  0  0  0  0  0  0  0  0  0  0
   -0.0155   25.9842   14.1711 O   0  0  0  0  0  0  0  0  0  0  0  0
   -1.4361   25.6595   12.4351 N   0  0  0  0  0  0  0  0  0  0  0  0
   -1.7065   25.9310   11.5283 H   0  0  0  0  0  0  0  0  0  0  0  0
   -1.9209   24.9384   12.8981 H   0  0  0  0  0  0  0  0  0  0  0  0
    0.8903   26.9213   10.9404 C   0  0  0  0  0  0  0  0  0  0  0  0
    0.0894   27.4659    9.7414 C   0  0  0  0  0  0  0  0  0  0  0  0
   -0.2005   26.3868    8.6782 C   0  0  0  0  0  0  0  0  0  0  0  0
   -1.7197   26.1266    8.6663 C   0  0  0  0  0  0  0  0  0  0  0  0
   -2.4345   26.6795    9.8376 N   0  0  0  0  0  0  0  0  0  0  0  0
   -2.3342   27.6945    9.8491 H   0  0  0  0  0  0  0  0  0  0  0  0
   -2.0388   26.2890   10.6928 H   0  0  0  0  0  0  0  0  0  0  0  0
 26 25  1  0  0  0
 25 24  1  0  0  0
 24 23  1  0  0  0
 23 22  1  0  0  0
 22 16  1  0  0  0
 16  1  1  0  0  0
 16 17  1  0  0  0
  1  3  1  0  0  0
  6  5  2  0  0  0
  6  9  1  0  0  0
  5  4  1  0  0  0
  3  9  1  0  0  0
 17 19  1  0  0  0
 17 18  2  0  0  0
  9  8  2  0  0  0
 14 13  2  0  0  0
 14 15  1  0  0  0
  4 15  1  0  0  0
  4  7  2  0  0  0
 13 12  1  0  0  0
 15 10  2  0  0  0
  8  7  1  0  0  0
 12 11  2  0  0  0
 10 11  1  0  0  0
  1  2  1  0  0  0
 19 20  1  0  0  0
 19 21  1  0  0  0
 26 27  1  0  0  0
 26 28  1  0  0  0
M  END
> <minimizedAffinity>
-5.42745

$$$$
4U5O_3D5_A_501


 28 29  0  0  0  0  0  0  0  0999 V2000
    1.3677   36.4538    9.0082 N   0  0  0  0  0  0  0  0  0  0  0  0
    1.0914   35.5333    8.6665 H   0  0  0  0  0  0  0  0  0  0  0  0
    1.3862   36.4774   10.4779 C   0  0  0  0  0  0  0  0  0  0  0  0
    0.6547   32.7146   12.0474 C   0  0  0  0  0  0  0  0  0  0  0  0
    1.6513   33.5047   12.6125 C   0  0  0  0  0  0  0  0  0  0  0  0
    1.9085   34.7711   12.0912 C   0  0  0  0  0  0  0  0  0  0  0  0
   -0.1326   33.2075   11.0184 C   0  0  0  0  0  0  0  0  0  0  0  0
    0.1370   34.4536   10.4760 C   0  0  0  0  0  0  0  0  0  0  0  0
    1.1466   35.2342   11.0234 C   0  0  0  0  0  0  0  0  0  0  0  0
    1.2389   30.8928   13.4934 C   0  0  0  0  0  0  0  0  0  0  0  0
    0.9673   29.6604   14.0695 C   0  0  0  0  0  0  0  0  0  0  0  0
   -0.2393   29.0310   13.7898 C   0  0  0  0  0  0  0  0  0  0  0  0
   -1.1453   29.6408   12.9093 N   0  0  0  0  0  0  0  0  0  0  0  0
   -0.8629   30.8694   12.3125 C   0  0  0  0  0  0  0  0  0  0  0  0
    0.3585   31.4729   12.5866 C   0  0  0  0  0  0  0  0  0  0  0  0
    2.7508   36.7600    8.6134 C   0  0  0  0  0  0  0  0  0  0  0  0
    3.3896   35.4876    8.0071 C   0  0  0  0  0  0  0  0  0  0  0  0
    4.0408   34.7100    8.7090 O   0  0  0  0  0  0  0  0  0  0  0  0
    3.1481   35.2873    6.7072 N   0  0  0  0  0  0  0  0  0  0  0  0
    2.6209   35.9443    6.1975 H   0  0  0  0  0  0  0  0  0  0  0  0
    3.4974   34.4829    6.2599 H   0  0  0  0  0  0  0  0  0  0  0  0
    2.7929   37.9431    7.6441 C   0  0  0  0  0  0  0  0  0  0  0  0
    1.3808   38.1673    7.0687 C   0  0  0  0  0  0  0  0  0  0  0  0
    1.3883   38.4019    5.5442 C   0  0  0  0  0  0  0  0  0  0  0  0
    1.0494   39.8838    5.2893 C   0  0  0  0  0  0  0  0  0  0  0  0
    1.2188   40.3067    3.8818 N   0  0  0  0  0  0  0  0  0  0  0  0
    0.5800   39.7774    3.2885 H   0  0  0  0  0  0  0  0  0  0  0  0
    2.1797   40.1319    3.5876 H   0  0  0  0  0  0  0  0  0  0  0  0
 26 25  1  0  0  0
 25 24  1  0  0  0
 24 23  1  0  0  0
 23 22  1  0  0  0
 22 16  1  0  0  0
 16  1  1  0  0  0
 16 17  1  0  0  0
  1  3  1  0  0  0
  6  5  2  0  0  0
  6  9  1  0  0  0
  5  4  1  0  0  0
  3  9  1  0  0  0
 17 19  1  0  0  0
 17 18  2  0  0  0
  9  8  2  0  0  0
 14 13  2  0  0  0
 14 15  1  0  0  0
  4 15  1  0  0  0
  4  7  2  0  0  0
 13 12  1  0  0  0
 15 10  2  0  0  0
  8  7  1  0  0  0
 12 11  2  0  0  0
 10 11  1  0  0  0
  1  2  1  0  0  0
 19 20  1  0  0  0
 19 21  1  0  0  0
 26 27  1  0  0  0
 26 28  1  0  0  0
M  END
> <minimizedAffinity>
-5.42190

$$$$
4U5O_3D5_A_501


 28 29  0  0  0  0  0  0  0  0999 V2000
    5.2278   32.3754    5.3543 N   0  0  0  0  0  0  0  0  0  0  0  0
    4.4333   33.0083    5.2613 H   0  0  0  0  0  0  0  0  0  0  0  0
    4.9205   31.2926    6.2999 C   0  0  0  0  0  0  0  0  0  0  0  0
    2.0156   32.4479    9.0173 C   0  0  0  0  0  0  0  0  0  0  0  0
    1.7775   31.3526    8.1924 C   0  0  0  0  0  0  0  0  0  0  0  0
    2.7460   30.9563    7.2723 C   0  0  0  0  0  0  0  0  0  0  0  0
    3.2378   33.1011    8.9811 C   0  0  0  0  0  0  0  0  0  0  0  0
    4.1934   32.7312    8.0488 C   0  0  0  0  0  0  0  0  0  0  0  0
    3.9485   31.6529    7.2087 C   0  0  0  0  0  0  0  0  0  0  0  0
    0.2465   31.8586   10.5252 C   0  0  0  0  0  0  0  0  0  0  0  0
   -0.6892   32.1916   11.4938 C   0  0  0  0  0  0  0  0  0  0  0  0
   -0.7431   33.4974   11.9655 C   0  0  0  0  0  0  0  0  0  0  0  0
    0.1299   34.4576   11.4331 N   0  0  0  0  0  0  0  0  0  0  0  0
    1.0557   34.1282   10.4433 C   0  0  0  0  0  0  0  0  0  0  0  0
    1.0795   32.8226    9.9679 C   0  0  0  0  0  0  0  0  0  0  0  0
    5.4986   31.6920    4.0807 C   0  0  0  0  0  0  0  0  0  0  0  0
    6.4249   32.5861    3.2222 C   0  0  0  0  0  0  0  0  0  0  0  0
    7.6460   32.5846    3.3967 O   0  0  0  0  0  0  0  0  0  0  0  0
    5.8125   33.3067    2.2768 N   0  0  0  0  0  0  0  0  0  0  0  0
    4.8331   33.2675    2.1850 H   0  0  0  0  0  0  0  0  0  0  0  0
    6.3411   33.8765    1.6724 H   0  0  0  0  0  0  0  0  0  0  0  0
    6.0989   30.3054    4.3218 C   0  0  0  0  0  0  0  0  0  0  0  0
    5.4876   29.3145    3.3119 C   0  0  0  0  0  0  0  0  0  0  0  0
    3.9454   29.3373    3.3129 C   0  0  0  0  0  0  0  0  0  0  0  0
    3.4673   29.2454    1.8503 C   0  0  0  0  0  0  0  0  0  0  0  0
    3.9068   30.3741    1.0011 N   0  0  0  0  0  0  0  0  0  0  0  0
    4.9256   30.3862    0.9522 H   0  0  0  0  0  0  0  0  0  0  0  0
    3.5752   31.2511    1.4028 H   0  0  0  0  0  0  0  0  0  0  0  0
 26 25  1  0  0  0
 25 24  1  0  0  0
 24 23  1  0  0  0
 23 22  1  0  0  0
 22 16  1  0  0  0
 16  1  1  0  0  0
 16 17  1  0  0  0
  1  3  1  0  0  0
  6  5  2  0  0  0
  6  9  1  0  0  0
  5  4  1  0  0  0
  3  9  1  0  0  0
 17 19  1  0  0  0
 17 18  2  0  0  0
  9  8  2  0  0  0
 14 13  2  0  0  0
 14 15  1  0  0  0
  4 15  1  0  0  0
  4  7  2  0  0  0
 13 12  1  0  0  0
 15 10  2  0  0  0
  8  7  1  0  0  0
 12 11  2  0  0  0
 10 11  1  0  0  0
  1  2  1  0  0  0
 19 20  1  0  0  0
 19 21  1  0  0  0
 26 27  1  0  0  0
 26 28  1  0  0  0
M  END
> <minimizedAffinity>
-5.39230

$$$$
4U5O_3D5_A_501


 28 29  0  0  0  0  0  0  0  0999 V2000
    0.4006   30.0867   10.4455 N   0  0  0  0  0  0  0  0  0  0  0  0
   -0.0678   30.6825    9.7629 H   0  0  0  0  0  0  0  0  0  0  0  0
    1.8606   30.2039   10.3208 C   0  0  0  0  0  0  0  0  0  0  0  0
    3.0700   29.8590    6.3741 C   0  0  0  0  0  0  0  0  0  0  0  0
    3.2105   31.0818    7.0237 C   0  0  0  0  0  0  0  0  0  0  0  0
    2.8045   31.2107    8.3504 C   0  0  0  0  0  0  0  0  0  0  0  0
    2.5980   28.7504    7.0597 C   0  0  0  0  0  0  0  0  0  0  0  0
    2.1651   28.8786    8.3695 C   0  0  0  0  0  0  0  0  0  0  0  0
    2.2828   30.1039    9.0122 C   0  0  0  0  0  0  0  0  0  0  0  0
    2.8185   28.8678    4.2050 C   0  0  0  0  0  0  0  0  0  0  0  0
    3.2196   28.7047    2.8870 C   0  0  0  0  0  0  0  0  0  0  0  0
    4.2900   29.4484    2.4059 C   0  0  0  0  0  0  0  0  0  0  0  0
    4.9604   30.3273    3.2695 N   0  0  0  0  0  0  0  0  0  0  0  0
    4.5714   30.4750    4.6008 C   0  0  0  0  0  0  0  0  0  0  0  0
    3.5130   29.7063    5.0700 C   0  0  0  0  0  0  0  0  0  0  0  0
    0.1066   30.5359   11.8145 C   0  0  0  0  0  0  0  0  0  0  0  0
   -0.4096   29.3297   12.6349 C   0  0  0  0  0  0  0  0  0  0  0  0
   -0.4152   29.3584   13.8681 O   0  0  0  0  0  0  0  0  0  0  0  0
   -0.8733   28.3021   11.9157 N   0  0  0  0  0  0  0  0  0  0  0  0
   -0.8425   28.3360   10.9323 H   0  0  0  0  0  0  0  0  0  0  0  0
   -1.2454   27.5117   12.3697 H   0  0  0  0  0  0  0  0  0  0  0  0
    1.3374   31.1822   12.4535 C   0  0  0  0  0  0  0  0  0  0  0  0
    0.9904   32.6298   12.8529 C   0  0  0  0  0  0  0  0  0  0  0  0
   -0.2392   33.1777   12.1000 C   0  0  0  0  0  0  0  0  0  0  0  0
    0.2565   34.2050   11.0633 C   0  0  0  0  0  0  0  0  0  0  0  0
   -0.8183   34.7840   10.2278 N   0  0  0  0  0  0  0  0  0  0  0  0
   -1.4732   35.2933   10.8212 H   0  0  0  0  0  0  0  0  0  0  0  0
   -1.3116   34.0353    9.7416 H   0  0  0  0  0  0  0  0  0  0  0  0
 26 25  1  0  0  0
 25 24  1  0  0  0
 24 23  1  0  0  0
 23 22  1  0  0  0
 22 16  1  0  0  0
 16  1  1  0  0  0
 16 17  1  0  0  0
  1  3  1  0  0  0
  6  5  2  0  0  0
  6  9  1  0  0  0
  5  4  1  0  0  0
  3  9  1  0  0  0
 17 19  1  0  0  0
 17 18  2  0  0  0
  9  8  2  0  0  0
 14 13  2  0  0  0
 14 15  1  0  0  0
  4 15  1  0  0  0
  4  7  2  0  0  0
 13 12  1  0  0  0
 15 10  2  0  0  0
  8  7  1  0  0  0
 12 11  2  0  0  0
 10 11  1  0  0  0
  1  2  1  0  0  0
 19 20  1  0  0  0
 19 21  1  0  0  0
 26 27  1  0  0  0
 26 28  1  0  0  0
M  END
> <minimizedAffinity>
-5.30651

$$$$
4U5O_3D5_A_501


 28 29  0  0  0  0  0  0  0  0999 V2000
    3.9969   30.0540    5.1003 N   0  0  0  0  0  0  0  0  0  0  0  0
    3.2524   29.8897    4.4227 H   0  0  0  0  0  0  0  0  0  0  0  0
    3.8545   29.1559    6.2553 C   0  0  0  0  0  0  0  0  0  0  0  0
    1.5472   30.8737    9.2357 C   0  0  0  0  0  0  0  0  0  0  0  0
    2.0918   29.6096    9.4413 C   0  0  0  0  0  0  0  0  0  0  0  0
    2.8672   29.0203    8.4448 C   0  0  0  0  0  0  0  0  0  0  0  0
    1.8318   31.5805    8.0776 C   0  0  0  0  0  0  0  0  0  0  0  0
    2.5772   30.9890    7.0707 C   0  0  0  0  0  0  0  0  0  0  0  0
    3.1021   29.7181    7.2645 C   0  0  0  0  0  0  0  0  0  0  0  0
    0.9510   31.0555   11.5514 C   0  0  0  0  0  0  0  0  0  0  0  0
    0.2485   31.6597   12.5839 C   0  0  0  0  0  0  0  0  0  0  0  0
   -0.5493   32.7631   12.3079 C   0  0  0  0  0  0  0  0  0  0  0  0
   -0.6503   33.2260   10.9876 N   0  0  0  0  0  0  0  0  0  0  0  0
    0.0384   32.6051    9.9457 C   0  0  0  0  0  0  0  0  0  0  0  0
    0.8135   31.4892   10.2373 C   0  0  0  0  0  0  0  0  0  0  0  0
    5.3067   29.7149    4.5242 C   0  0  0  0  0  0  0  0  0  0  0  0
    5.1195   29.3744    3.0263 C   0  0  0  0  0  0  0  0  0  0  0  0
    5.4328   28.2660    2.5850 O   0  0  0  0  0  0  0  0  0  0  0  0
    4.5678   30.3390    2.2826 N   0  0  0  0  0  0  0  0  0  0  0  0
    4.3387   31.2051    2.6909 H   0  0  0  0  0  0  0  0  0  0  0  0
    4.3907   30.1832    1.3268 H   0  0  0  0  0  0  0  0  0  0  0  0
    6.3073   30.8531    4.7350 C   0  0  0  0  0  0  0  0  0  0  0  0
    5.5458   32.1048    5.2131 C   0  0  0  0  0  0  0  0  0  0  0  0
    6.1000   33.4090    4.6040 C   0  0  0  0  0  0  0  0  0  0  0  0
    6.6895   33.0745    3.2196 C   0  0  0  0  0  0  0  0  0  0  0  0
    5.7484   33.2845    2.0976 N   0  0  0  0  0  0  0  0  0  0  0  0
    5.4901   34.2701    2.0505 H   0  0  0  0  0  0  0  0  0  0  0  0
    4.9116   32.7204    2.2457 H   0  0  0  0  0  0  0  0  0  0  0  0
 26 25  1  0  0  0
 25 24  1  0  0  0
 24 23  1  0  0  0
 23 22  1  0  0  0
 22 16  1  0  0  0
 16  1  1  0  0  0
 16 17  1  0  0  0
  1  3  1  0  0  0
  6  5  2  0  0  0
  6  9  1  0  0  0
  5  4  1  0  0  0
  3  9  1  0  0  0
 17 19  1  0  0  0
 17 18  2  0  0  0
  9  8  2  0  0  0
 14 13  2  0  0  0
 14 15  1  0  0  0
  4 15  1  0  0  0
  4  7  2  0  0  0
 13 12  1  0  0  0
 15 10  2  0  0  0
  8  7  1  0  0  0
 12 11  2  0  0  0
 10 11  1  0  0  0
  1  2  1  0  0  0
 19 20  1  0  0  0
 19 21  1  0  0  0
 26 27  1  0  0  0
 26 28  1  0  0  0
M  END
> <minimizedAffinity>
-5.25721

$$$$
4U5O_3D5_A_501


 28 29  0  0  0  0  0  0  0  0999 V2000
    1.2495   32.5371   10.3017 N   0  0  0  0  0  0  0  0  0  0  0  0
    0.4921   32.5198    9.6187 H   0  0  0  0  0  0  0  0  0  0  0  0
    2.4839   33.0548    9.6941 C   0  0  0  0  0  0  0  0  0  0  0  0
    3.6696   30.9261    6.3445 C   0  0  0  0  0  0  0  0  0  0  0  0
    2.6310   30.4346    7.1297 C   0  0  0  0  0  0  0  0  0  0  0  0
    2.2253   31.1404    8.2605 C   0  0  0  0  0  0  0  0  0  0  0  0
    4.2530   32.1490    6.6379 C   0  0  0  0  0  0  0  0  0  0  0  0
    3.8749   32.8412    7.7768 C   0  0  0  0  0  0  0  0  0  0  0  0
    2.8545   32.3407    8.5746 C   0  0  0  0  0  0  0  0  0  0  0  0
    3.2162   29.2798    4.6607 C   0  0  0  0  0  0  0  0  0  0  0  0
    3.5537   28.6028    3.4978 C   0  0  0  0  0  0  0  0  0  0  0  0
    4.7097   28.9601    2.8151 C   0  0  0  0  0  0  0  0  0  0  0  0
    5.5260   29.9780    3.3302 N   0  0  0  0  0  0  0  0  0  0  0  0
    5.1986   30.6438    4.5112 C   0  0  0  0  0  0  0  0  0  0  0  0
    4.0504   30.2573    5.1921 C   0  0  0  0  0  0  0  0  0  0  0  0
    0.9460   33.4795   11.3891 C   0  0  0  0  0  0  0  0  0  0  0  0
   -0.4989   34.0025   11.2068 C   0  0  0  0  0  0  0  0  0  0  0  0
   -1.3344   33.8813   12.1061 O   0  0  0  0  0  0  0  0  0  0  0  0
   -0.7456   34.6150   10.0440 N   0  0  0  0  0  0  0  0  0  0  0  0
   -0.0381   34.6812    9.3626 H   0  0  0  0  0  0  0  0  0  0  0  0
   -1.6348   34.9998    9.8693 H   0  0  0  0  0  0  0  0  0  0  0  0
    1.1521   32.8219   12.7551 C   0  0  0  0  0  0  0  0  0  0  0  0
    1.3598   31.3081   12.5540 C   0  0  0  0  0  0  0  0  0  0  0  0
    0.3788   30.4559   13.3850 C   0  0  0  0  0  0  0  0  0  0  0  0
   -0.9573   30.3865   12.6195 C   0  0  0  0  0  0  0  0  0  0  0  0
   -1.0644   29.2337   11.6985 N   0  0  0  0  0  0  0  0  0  0  0  0
   -1.0133   28.3661   12.2324 H   0  0  0  0  0  0  0  0  0  0  0  0
   -0.2988   29.2642   11.0252 H   0  0  0  0  0  0  0  0  0  0  0  0
 26 25  1  0  0  0
 25 24  1  0  0  0
 24 23  1  0  0  0
 23 22  1  0  0  0
 22 16  1  0  0  0
 16  1  1  0  0  0
 16 17  1  0  0  0
  1  3  1  0  0  0
  6  5  2  0  0  0
  6  9  1  0  0  0
  5  4  1  0  0  0
  3  9  1  0  0  0
 17 19  1  0  0  0
 17 18  2  0  0  0
  9  8  2  0  0  0
 14 13  2  0  0  0
 14 15  1  0  0  0
  4 15  1  0  0  0
  4  7  2  0  0  0
 13 12  1  0  0  0
 15 10  2  0  0  0
  8  7  1  0  0  0
 12 11  2  0  0  0
 10 11  1  0  0  0
  1  2  1  0  0  0
 19 20  1  0  0  0
 19 21  1  0  0  0
 26 27  1  0  0  0
 26 28  1  0  0  0
M  END
> <minimizedAffinity>
-5.10549

$$$$
4U5O_3D5_A_501


 28 29  0  0  0  0  0  0  0  0999 V2000
   -0.0395   29.1831   13.9821 N   0  0  0  0  0  0  0  0  0  0  0  0
    0.8858   29.5935   14.1072 H   0  0  0  0  0  0  0  0  0  0  0  0
   -0.8073   29.9318   12.9766 C   0  0  0  0  0  0  0  0  0  0  0  0
    0.6446   33.7632   12.3679 C   0  0  0  0  0  0  0  0  0  0  0  0
    1.4507   32.8240   13.0041 C   0  0  0  0  0  0  0  0  0  0  0  0
    0.9721   31.5328   13.2171 C   0  0  0  0  0  0  0  0  0  0  0  0
   -0.6016   33.4024   11.8793 C   0  0  0  0  0  0  0  0  0  0  0  0
   -1.0953   32.1293   12.1135 C   0  0  0  0  0  0  0  0  0  0  0  0
   -0.3014   31.1974   12.7690 C   0  0  0  0  0  0  0  0  0  0  0  0
    1.6700   35.7865   13.1463 C   0  0  0  0  0  0  0  0  0  0  0  0
    2.1809   37.0567   12.9224 C   0  0  0  0  0  0  0  0  0  0  0  0
    2.2153   37.5561   11.6264 C   0  0  0  0  0  0  0  0  0  0  0  0
    1.7076   36.7779   10.5756 N   0  0  0  0  0  0  0  0  0  0  0  0
    1.1735   35.5098   10.8033 C   0  0  0  0  0  0  0  0  0  0  0  0
    1.1268   35.0362   12.1090 C   0  0  0  0  0  0  0  0  0  0  0  0
    0.0661   27.8230   13.4330 C   0  0  0  0  0  0  0  0  0  0  0  0
   -0.8916   26.8935   14.2161 C   0  0  0  0  0  0  0  0  0  0  0  0
   -1.5520   26.0294   13.6341 O   0  0  0  0  0  0  0  0  0  0  0  0
   -0.9105   27.0730   15.5411 N   0  0  0  0  0  0  0  0  0  0  0  0
   -0.3610   27.7803   15.9498 H   0  0  0  0  0  0  0  0  0  0  0  0
   -1.4738   26.4979   16.1078 H   0  0  0  0  0  0  0  0  0  0  0  0
   -0.2254   27.8162   11.9310 C   0  0  0  0  0  0  0  0  0  0  0  0
    1.0771   27.4974   11.1713 C   0  0  0  0  0  0  0  0  0  0  0  0
    1.1853   28.2515    9.8302 C   0  0  0  0  0  0  0  0  0  0  0  0
    1.7760   29.6465   10.1151 C   0  0  0  0  0  0  0  0  0  0  0  0
    1.0558   30.7531    9.4478 N   0  0  0  0  0  0  0  0  0  0  0  0
    0.0963   30.7905    9.7917 H   0  0  0  0  0  0  0  0  0  0  0  0
    1.0499   30.5961    8.4400 H   0  0  0  0  0  0  0  0  0  0  0  0
 26 25  1  0  0  0
 25 24  1  0  0  0
 24 23  1  0  0  0
 23 22  1  0  0  0
 22 16  1  0  0  0
 16  1  1  0  0  0
 16 17  1  0  0  0
  1  3  1  0  0  0
  6  5  2  0  0  0
  6  9  1  0  0  0
  5  4  1  0  0  0
  3  9  1  0  0  0
 17 19  1  0  0  0
 17 18  2  0  0  0
  9  8  2  0  0  0
 14 13  2  0  0  0
 14 15  1  0  0  0
  4 15  1  0  0  0
  4  7  2  0  0  0
 13 12  1  0  0  0
 15 10  2  0  0  0
  8  7  1  0  0  0
 12 11  2  0  0  0
 10 11  1  0  0  0
  1  2  1  0  0  0
 19 20  1  0  0  0
 19 21  1  0  0  0
 26 27  1  0  0  0
 26 28  1  0  0  0
M  END
> <minimizedAffinity>
-5.05568

$$$$
4U5O_3D5_A_501


 28 29  0  0  0  0  0  0  0  0999 V2000
    4.4625   29.2401    5.3651 N   0  0  0  0  0  0  0  0  0  0  0  0
    5.3906   28.8574    5.1843 H   0  0  0  0  0  0  0  0  0  0  0  0
    4.5609   30.5934    5.9307 C   0  0  0  0  0  0  0  0  0  0  0  0
    1.7738   31.2194    8.9304 C   0  0  0  0  0  0  0  0  0  0  0  0
    2.1933   32.2974    8.1566 C   0  0  0  0  0  0  0  0  0  0  0  0
    3.1326   32.0997    7.1466 C   0  0  0  0  0  0  0  0  0  0  0  0
    2.2282   29.9390    8.6549 C   0  0  0  0  0  0  0  0  0  0  0  0
    3.1840   29.7398    7.6720 C   0  0  0  0  0  0  0  0  0  0  0  0
    3.6213   30.8181    6.9142 C   0  0  0  0  0  0  0  0  0  0  0  0
    0.5482   30.3680   10.8076 C   0  0  0  0  0  0  0  0  0  0  0  0
   -0.3990   30.5140   11.8106 C   0  0  0  0  0  0  0  0  0  0  0  0
   -1.0475   31.7335   11.9601 C   0  0  0  0  0  0  0  0  0  0  0  0
   -0.7519   32.7826   11.0770 N   0  0  0  0  0  0  0  0  0  0  0  0
    0.1841   32.6292   10.0545 C   0  0  0  0  0  0  0  0  0  0  0  0
    0.8060   31.3952    9.9063 C   0  0  0  0  0  0  0  0  0  0  0  0
    3.7195   29.4149    4.1082 C   0  0  0  0  0  0  0  0  0  0  0  0
    4.7198   29.3759    2.9282 C   0  0  0  0  0  0  0  0  0  0  0  0
    5.2816   28.3253    2.6087 O   0  0  0  0  0  0  0  0  0  0  0  0
    4.8867   30.5325    2.2782 N   0  0  0  0  0  0  0  0  0  0  0  0
    4.4108   31.3399    2.5799 H   0  0  0  0  0  0  0  0  0  0  0  0
    5.4853   30.5768    1.4978 H   0  0  0  0  0  0  0  0  0  0  0  0
    2.6241   28.3558    3.9694 C   0  0  0  0  0  0  0  0  0  0  0  0
    2.9020   27.2165    4.9695 C   0  0  0  0  0  0  0  0  0  0  0  0
    1.6181   26.4858    5.4129 C   0  0  0  0  0  0  0  0  0  0  0  0
    1.6698   26.3201    6.9445 C   0  0  0  0  0  0  0  0  0  0  0  0
    0.5258   26.9320    7.6554 N   0  0  0  0  0  0  0  0  0  0  0  0
   -0.3389   26.4767    7.3633 H   0  0  0  0  0  0  0  0  0  0  0  0
    0.4789   27.9261    7.4317 H   0  0  0  0  0  0  0  0  0  0  0  0
 26 25  1  0  0  0
 25 24  1  0  0  0
 24 23  1  0  0  0
 23 22  1  0  0  0
 22 16  1  0  0  0
 16  1  1  0  0  0
 16 17  1  0  0  0
  1  3  1  0  0  0
  6  5  2  0  0  0
  6  9  1  0  0  0
  5  4  1  0  0  0
  3  9  1  0  0  0
 17 19  1  0  0  0
 17 18  2  0  0  0
  9  8  2  0  0  0
 14 13  2  0  0  0
 14 15  1  0  0  0
  4 15  1  0  0  0
  4  7  2  0  0  0
 13 12  1  0  0  0
 15 10  2  0  0  0
  8  7  1  0  0  0
 12 11  2  0  0  0
 10 11  1  0  0  0
  1  2  1  0  0  0
 19 20  1  0  0  0
 19 21  1  0  0  0
 26 27  1  0  0  0
 26 28  1  0  0  0
M  END
> <minimizedAffinity>
-4.81535

$$$$
