5F1R_42O_A_301


 28 32  0  0  0  0  0  0  0  0999 V2000
    7.8562    5.8087   16.6222 C   0  0  0  0  0  0  0  0  0  0  0  0
    7.6312    6.1303   18.0952 C   0  0  0  0  0  0  0  0  0  0  0  0
    6.4713    3.9700   17.3809 C   0  0  0  0  0  0  0  0  0  0  0  0
    5.6102    2.9059   17.1935 C   0  0  0  0  0  0  0  0  0  0  0  0
    5.2233    2.5781   15.8354 C   0  0  0  0  0  0  0  0  0  0  0  0
    7.1018    4.5899   18.8862 S   0  0  0  0  0  0  0  0  0  0  0  0
    5.6994    3.3005   14.8066 C   0  0  0  0  0  0  0  0  0  0  0  0
    6.5813    4.3958   14.9634 C   0  0  0  0  0  0  0  0  0  0  0  0
    7.0295    5.0694   14.0502 O   0  0  0  0  0  0  0  0  0  0  0  0
    6.9457    4.7020   16.2802 N   0  0  0  0  0  0  0  0  0  0  0  0
   10.1611    6.0865   16.9911 O   0  0  0  0  0  0  0  0  0  0  0  0
    9.2998    5.3731   16.4056 C   0  0  0  0  0  0  0  0  0  0  0  0
    9.6384    4.3813   15.7021 O   0  0  0  0  0  0  0  0  0  0  0  0
    8.9838    3.8641   15.2755 H   0  0  0  0  0  0  0  0  0  0  0  0
    5.0812    2.0957   18.3963 C   0  0  0  0  0  0  0  0  0  0  0  0
    5.0540    0.5776   18.4488 C   0  0  0  0  0  0  0  0  0  0  0  0
    5.9748    1.3527   19.3749 C   0  0  0  0  0  0  0  0  0  0  0  0
    4.2834    1.4171   15.6159 C   0  0  0  0  0  0  0  0  0  0  0  0
    4.9762    0.3510   14.7441 C   0  0  0  0  0  0  0  0  0  0  0  0
    6.3339    0.1738   14.8284 C   0  0  0  0  0  0  0  0  0  0  0  0
    6.9788   -0.7903   14.0431 C   0  0  0  0  0  0  0  0  0  0  0  0
    6.2499   -1.5889   13.1599 C   0  0  0  0  0  0  0  0  0  0  0  0
    4.8506   -1.4217   13.0575 C   0  0  0  0  0  0  0  0  0  0  0  0
    4.0936   -2.2161   12.1723 C   0  0  0  0  0  0  0  0  0  0  0  0
    2.7137   -2.0373   12.0854 C   0  0  0  0  0  0  0  0  0  0  0  0
    2.0779   -1.0739   12.8722 C   0  0  0  0  0  0  0  0  0  0  0  0
    2.8132   -0.2799   13.7518 C   0  0  0  0  0  0  0  0  0  0  0  0
    4.2121   -0.4433   13.8581 C   0  0  0  0  0  0  0  0  0  0  0  0
 25 24  2  0  0  0
 25 26  1  0  0  0
 24 23  1  0  0  0
 26 27  2  0  0  0
 23 22  2  0  0  0
 23 28  1  0  0  0
 22 21  1  0  0  0
  9  8  2  0  0  0
 27 28  1  0  0  0
 28 19  2  0  0  0
 21 20  2  0  0  0
  8  7  1  0  0  0
  8 10  1  0  0  0
  7  5  2  0  0  0
 19 20  1  0  0  0
 19 18  1  0  0  0
 11 12  2  0  0  0
 12  1  1  0  0  0
 12 13  1  0  0  0
 10  1  1  0  0  0
 10  3  1  0  0  0
  1  2  1  0  0  0
  5 18  1  0  0  0
  5  4  1  0  0  0
  3  4  2  0  0  0
  3  6  1  0  0  0
  4 15  1  0  0  0
  2  6  1  0  0  0
 15 16  1  0  0  0
 15 17  1  0  0  0
 16 17  1  0  0  0
 13 14  1  0  0  0
M  END
> <minimizedAffinity>
-11.02888

$$$$
5F1R_42O_A_301


 28 32  0  0  0  0  0  0  0  0999 V2000
    1.8923   -0.5918   13.9560 C   0  0  0  0  0  0  0  0  0  0  0  0
    2.2080   -1.1604   12.5773 C   0  0  0  0  0  0  0  0  0  0  0  0
    4.3115   -0.7390   13.9631 C   0  0  0  0  0  0  0  0  0  0  0  0
    5.5726   -0.4182   14.4276 C   0  0  0  0  0  0  0  0  0  0  0  0
    5.6712    0.5217   15.5269 C   0  0  0  0  0  0  0  0  0  0  0  0
    3.8891   -1.8276   12.6653 S   0  0  0  0  0  0  0  0  0  0  0  0
    4.5576    1.0519   16.0615 C   0  0  0  0  0  0  0  0  0  0  0  0
    3.2521    0.7458   15.6096 C   0  0  0  0  0  0  0  0  0  0  0  0
    2.2242    1.2104   16.0742 O   0  0  0  0  0  0  0  0  0  0  0  0
    3.1717   -0.1622   14.5468 N   0  0  0  0  0  0  0  0  0  0  0  0
    0.2878   -1.2824   15.5290 O   0  0  0  0  0  0  0  0  0  0  0  0
    1.2607   -1.6716   14.8253 C   0  0  0  0  0  0  0  0  0  0  0  0
    1.6571   -2.8696   14.8597 O   0  0  0  0  0  0  0  0  0  0  0  0
    2.3812   -3.1389   14.3296 H   0  0  0  0  0  0  0  0  0  0  0  0
    6.8321   -1.0447   13.7921 C   0  0  0  0  0  0  0  0  0  0  0  0
    6.7974   -2.0216   12.6291 C   0  0  0  0  0  0  0  0  0  0  0  0
    7.3898   -0.6363   12.4391 C   0  0  0  0  0  0  0  0  0  0  0  0
    7.0432    0.8807   16.0450 C   0  0  0  0  0  0  0  0  0  0  0  0
    6.9623    2.1919   16.8518 C   0  0  0  0  0  0  0  0  0  0  0  0
    7.0279    3.3996   16.2046 C   0  0  0  0  0  0  0  0  0  0  0  0
    6.9562    4.6001   16.9228 C   0  0  0  0  0  0  0  0  0  0  0  0
    6.8161    4.5881   18.3118 C   0  0  0  0  0  0  0  0  0  0  0  0
    6.7473    3.3546   18.9976 C   0  0  0  0  0  0  0  0  0  0  0  0
    6.6066    3.3176   20.3999 C   0  0  0  0  0  0  0  0  0  0  0  0
    6.5397    2.0910   21.0592 C   0  0  0  0  0  0  0  0  0  0  0  0
    6.6117    0.8981   20.3358 C   0  0  0  0  0  0  0  0  0  0  0  0
    6.7519    0.9186   18.9484 C   0  0  0  0  0  0  0  0  0  0  0  0
    6.8208    2.1490   18.2582 C   0  0  0  0  0  0  0  0  0  0  0  0
 25 24  2  0  0  0
 25 26  1  0  0  0
 24 23  1  0  0  0
 26 27  2  0  0  0
 23 22  2  0  0  0
 23 28  1  0  0  0
 22 21  1  0  0  0
  9  8  2  0  0  0
 27 28  1  0  0  0
 28 19  2  0  0  0
 21 20  2  0  0  0
  8  7  1  0  0  0
  8 10  1  0  0  0
  7  5  2  0  0  0
 19 20  1  0  0  0
 19 18  1  0  0  0
 11 12  2  0  0  0
 12  1  1  0  0  0
 12 13  1  0  0  0
 10  1  1  0  0  0
 10  3  1  0  0  0
  1  2  1  0  0  0
  5 18  1  0  0  0
  5  4  1  0  0  0
  3  4  2  0  0  0
  3  6  1  0  0  0
  4 15  1  0  0  0
  2  6  1  0  0  0
 15 16  1  0  0  0
 15 17  1  0  0  0
 16 17  1  0  0  0
 13 14  1  0  0  0
M  END
> <minimizedAffinity>
-10.90463

$$$$
5F1R_42O_A_301


 28 32  0  0  0  0  0  0  0  0999 V2000
    7.3160    6.2740   16.8585 C   0  0  0  0  0  0  0  0  0  0  0  0
    6.7878    6.5186   18.2674 C   0  0  0  0  0  0  0  0  0  0  0  0
    7.0647    4.0335   17.7479 C   0  0  0  0  0  0  0  0  0  0  0  0
    6.9406    2.6618   17.6380 C   0  0  0  0  0  0  0  0  0  0  0  0
    6.9483    2.0848   16.3082 C   0  0  0  0  0  0  0  0  0  0  0  0
    7.0863    4.9974   19.2032 S   0  0  0  0  0  0  0  0  0  0  0  0
    7.0731    2.8785   15.2305 C   0  0  0  0  0  0  0  0  0  0  0  0
    7.2012    4.2856   15.3074 C   0  0  0  0  0  0  0  0  0  0  0  0
    7.3159    5.0310   14.3485 O   0  0  0  0  0  0  0  0  0  0  0  0
    7.1911    4.8294   16.5977 N   0  0  0  0  0  0  0  0  0  0  0  0
    9.1351    7.5444   17.6349 O   0  0  0  0  0  0  0  0  0  0  0  0
    8.7802    6.6866   16.7794 C   0  0  0  0  0  0  0  0  0  0  0  0
    9.5979    6.2242   15.9363 O   0  0  0  0  0  0  0  0  0  0  0  0
    9.3149    5.5880   15.3092 H   0  0  0  0  0  0  0  0  0  0  0  0
    6.7992    1.7777   18.8955 C   0  0  0  0  0  0  0  0  0  0  0  0
    6.1957    2.2573   20.2046 C   0  0  0  0  0  0  0  0  0  0  0  0
    5.4799    1.2013   19.3809 C   0  0  0  0  0  0  0  0  0  0  0  0
    6.8142    0.5869   16.1735 C   0  0  0  0  0  0  0  0  0  0  0  0
    5.4692    0.2486   15.5004 C   0  0  0  0  0  0  0  0  0  0  0  0
    4.2954    0.6949   16.0526 C   0  0  0  0  0  0  0  0  0  0  0  0
    3.0649    0.3960   15.4537 C   0  0  0  0  0  0  0  0  0  0  0  0
    3.0117   -0.3620   14.2825 C   0  0  0  0  0  0  0  0  0  0  0  0
    4.2094   -0.8318   13.6981 C   0  0  0  0  0  0  0  0  0  0  0  0
    4.1806   -1.5995   12.5160 C   0  0  0  0  0  0  0  0  0  0  0  0
    5.3726   -2.0538   11.9535 C   0  0  0  0  0  0  0  0  0  0  0  0
    6.5958   -1.7513   12.5566 C   0  0  0  0  0  0  0  0  0  0  0  0
    6.6404   -0.9938   13.7267 C   0  0  0  0  0  0  0  0  0  0  0  0
    5.4461   -0.5215   14.3146 C   0  0  0  0  0  0  0  0  0  0  0  0
 25 24  2  0  0  0
 25 26  1  0  0  0
 24 23  1  0  0  0
 26 27  2  0  0  0
 23 22  2  0  0  0
 23 28  1  0  0  0
 22 21  1  0  0  0
  9  8  2  0  0  0
 27 28  1  0  0  0
 28 19  2  0  0  0
 21 20  2  0  0  0
  8  7  1  0  0  0
  8 10  1  0  0  0
  7  5  2  0  0  0
 19 20  1  0  0  0
 19 18  1  0  0  0
 11 12  2  0  0  0
 12  1  1  0  0  0
 12 13  1  0  0  0
 10  1  1  0  0  0
 10  3  1  0  0  0
  1  2  1  0  0  0
  5 18  1  0  0  0
  5  4  1  0  0  0
  3  4  2  0  0  0
  3  6  1  0  0  0
  4 15  1  0  0  0
  2  6  1  0  0  0
 15 16  1  0  0  0
 15 17  1  0  0  0
 16 17  1  0  0  0
 13 14  1  0  0  0
M  END
> <minimizedAffinity>
-10.80727

$$$$
5F1R_42O_A_301


 28 32  0  0  0  0  0  0  0  0999 V2000
    6.0771   -1.9893   12.3608 C   0  0  0  0  0  0  0  0  0  0  0  0
    4.8857   -2.8174   11.8932 C   0  0  0  0  0  0  0  0  0  0  0  0
    4.2067   -0.9553   13.5039 C   0  0  0  0  0  0  0  0  0  0  0  0
    3.6328   -0.1717   14.4866 C   0  0  0  0  0  0  0  0  0  0  0  0
    4.5124    0.4546   15.4538 C   0  0  0  0  0  0  0  0  0  0  0  0
    3.4062   -1.8255   12.2194 S   0  0  0  0  0  0  0  0  0  0  0  0
    5.8409    0.2646   15.3779 C   0  0  0  0  0  0  0  0  0  0  0  0
    6.4606   -0.5315   14.3858 C   0  0  0  0  0  0  0  0  0  0  0  0
    7.6620   -0.7222   14.2915 O   0  0  0  0  0  0  0  0  0  0  0  0
    5.5993   -1.1312   13.4590 N   0  0  0  0  0  0  0  0  0  0  0  0
    6.2812   -1.5419   10.0621 O   0  0  0  0  0  0  0  0  0  0  0  0
    6.5835   -1.1237   11.2142 C   0  0  0  0  0  0  0  0  0  0  0  0
    7.2541   -0.0661   11.3728 O   0  0  0  0  0  0  0  0  0  0  0  0
    7.4683    0.2278   12.2363 H   0  0  0  0  0  0  0  0  0  0  0  0
    2.1031    0.0268   14.5464 C   0  0  0  0  0  0  0  0  0  0  0  0
    1.1237   -0.6490   13.6019 C   0  0  0  0  0  0  0  0  0  0  0  0
    1.1342   -1.0173   15.0751 C   0  0  0  0  0  0  0  0  0  0  0  0
    3.8987    1.3142   16.5328 C   0  0  0  0  0  0  0  0  0  0  0  0
    4.8983    2.4122   16.9474 C   0  0  0  0  0  0  0  0  0  0  0  0
    5.2465    3.3940   16.0549 C   0  0  0  0  0  0  0  0  0  0  0  0
    6.1534    4.3987   16.4157 C   0  0  0  0  0  0  0  0  0  0  0  0
    6.7193    4.4184   17.6918 C   0  0  0  0  0  0  0  0  0  0  0  0
    6.3744    3.4157   18.6257 C   0  0  0  0  0  0  0  0  0  0  0  0
    6.9335    3.4146   19.9200 C   0  0  0  0  0  0  0  0  0  0  0  0
    6.5807    2.4174   20.8282 C   0  0  0  0  0  0  0  0  0  0  0  0
    5.6753    1.4190   20.4609 C   0  0  0  0  0  0  0  0  0  0  0  0
    5.1146    1.4062   19.1841 C   0  0  0  0  0  0  0  0  0  0  0  0
    5.4558    2.4065   18.2470 C   0  0  0  0  0  0  0  0  0  0  0  0
 25 24  2  0  0  0
 25 26  1  0  0  0
 24 23  1  0  0  0
 26 27  2  0  0  0
 23 22  2  0  0  0
 23 28  1  0  0  0
 22 21  1  0  0  0
  9  8  2  0  0  0
 27 28  1  0  0  0
 28 19  2  0  0  0
 21 20  2  0  0  0
  8  7  1  0  0  0
  8 10  1  0  0  0
  7  5  2  0  0  0
 19 20  1  0  0  0
 19 18  1  0  0  0
 11 12  2  0  0  0
 12  1  1  0  0  0
 12 13  1  0  0  0
 10  1  1  0  0  0
 10  3  1  0  0  0
  1  2  1  0  0  0
  5 18  1  0  0  0
  5  4  1  0  0  0
  3  4  2  0  0  0
  3  6  1  0  0  0
  4 15  1  0  0  0
  2  6  1  0  0  0
 15 16  1  0  0  0
 15 17  1  0  0  0
 16 17  1  0  0  0
 13 14  1  0  0  0
M  END
> <minimizedAffinity>
-10.59795

$$$$
5F1R_42O_A_301


 28 32  0  0  0  0  0  0  0  0999 V2000
    1.7793   -0.7422   14.0070 C   0  0  0  0  0  0  0  0  0  0  0  0
    2.1969   -1.3418   12.6692 C   0  0  0  0  0  0  0  0  0  0  0  0
    4.1999   -0.7187   14.1259 C   0  0  0  0  0  0  0  0  0  0  0  0
    5.4131   -0.2918   14.6307 C   0  0  0  0  0  0  0  0  0  0  0  0
    5.3961    0.6958   15.6918 C   0  0  0  0  0  0  0  0  0  0  0  0
    3.9138   -1.8852   12.8590 S   0  0  0  0  0  0  0  0  0  0  0  0
    4.2252    1.1674   16.1540 C   0  0  0  0  0  0  0  0  0  0  0  0
    2.9661    0.7525   15.6592 C   0  0  0  0  0  0  0  0  0  0  0  0
    1.8883    1.1619   16.0582 O   0  0  0  0  0  0  0  0  0  0  0  0
    2.9975   -0.2006   14.6340 N   0  0  0  0  0  0  0  0  0  0  0  0
    0.1970   -1.4603   15.5903 O   0  0  0  0  0  0  0  0  0  0  0  0
    1.1833   -1.8282   14.8936 C   0  0  0  0  0  0  0  0  0  0  0  0
    1.6196   -3.0115   14.9480 O   0  0  0  0  0  0  0  0  0  0  0  0
    2.3530   -3.2650   14.4228 H   0  0  0  0  0  0  0  0  0  0  0  0
    6.7408   -0.8532   14.0782 C   0  0  0  0  0  0  0  0  0  0  0  0
    6.8272   -1.8721   12.9547 C   0  0  0  0  0  0  0  0  0  0  0  0
    7.3340   -0.4572   12.7367 C   0  0  0  0  0  0  0  0  0  0  0  0
    6.7147    1.1707   16.2533 C   0  0  0  0  0  0  0  0  0  0  0  0
    6.5193    1.6246   17.7136 C   0  0  0  0  0  0  0  0  0  0  0  0
    6.0851    0.7285   18.6572 C   0  0  0  0  0  0  0  0  0  0  0  0
    5.9023    1.1248   19.9882 C   0  0  0  0  0  0  0  0  0  0  0  0
    6.1594    2.4405   20.3782 C   0  0  0  0  0  0  0  0  0  0  0  0
    6.6066    3.3791   19.4214 C   0  0  0  0  0  0  0  0  0  0  0  0
    6.8721    4.7134   19.7915 C   0  0  0  0  0  0  0  0  0  0  0  0
    7.3135    5.6253   18.8337 C   0  0  0  0  0  0  0  0  0  0  0  0
    7.4936    5.2222   17.5084 C   0  0  0  0  0  0  0  0  0  0  0  0
    7.2343    3.9062   17.1268 C   0  0  0  0  0  0  0  0  0  0  0  0
    6.7874    2.9640   18.0795 C   0  0  0  0  0  0  0  0  0  0  0  0
 25 24  2  0  0  0
 25 26  1  0  0  0
 24 23  1  0  0  0
 26 27  2  0  0  0
 23 22  2  0  0  0
 23 28  1  0  0  0
 22 21  1  0  0  0
  9  8  2  0  0  0
 27 28  1  0  0  0
 28 19  2  0  0  0
 21 20  2  0  0  0
  8  7  1  0  0  0
  8 10  1  0  0  0
  7  5  2  0  0  0
 19 20  1  0  0  0
 19 18  1  0  0  0
 11 12  2  0  0  0
 12  1  1  0  0  0
 12 13  1  0  0  0
 10  1  1  0  0  0
 10  3  1  0  0  0
  1  2  1  0  0  0
  5 18  1  0  0  0
  5  4  1  0  0  0
  3  4  2  0  0  0
  3  6  1  0  0  0
  4 15  1  0  0  0
  2  6  1  0  0  0
 15 16  1  0  0  0
 15 17  1  0  0  0
 16 17  1  0  0  0
 13 14  1  0  0  0
M  END
> <minimizedAffinity>
-10.56159

$$$$
5F1R_42O_A_301


 28 32  0  0  0  0  0  0  0  0999 V2000
    6.1468   -1.9006   12.4691 C   0  0  0  0  0  0  0  0  0  0  0  0
    4.9939   -2.8046   12.0477 C   0  0  0  0  0  0  0  0  0  0  0  0
    4.2313   -0.8928   13.5597 C   0  0  0  0  0  0  0  0  0  0  0  0
    3.6224   -0.0851   14.5009 C   0  0  0  0  0  0  0  0  0  0  0  0
    4.4724    0.6298   15.4324 C   0  0  0  0  0  0  0  0  0  0  0  0
    3.4713   -1.8641   12.3241 S   0  0  0  0  0  0  0  0  0  0  0  0
    5.8082    0.4958   15.3642 C   0  0  0  0  0  0  0  0  0  0  0  0
    6.4635   -0.3228   14.4141 C   0  0  0  0  0  0  0  0  0  0  0  0
    7.6723   -0.4642   14.3278 O   0  0  0  0  0  0  0  0  0  0  0  0
    5.6304   -1.0083   13.5216 N   0  0  0  0  0  0  0  0  0  0  0  0
    6.3169   -1.5571   10.1499 O   0  0  0  0  0  0  0  0  0  0  0  0
    6.6145   -1.0746   11.2777 C   0  0  0  0  0  0  0  0  0  0  0  0
    7.2508    0.0109   11.3793 O   0  0  0  0  0  0  0  0  0  0  0  0
    7.4622    0.3526   12.2258 H   0  0  0  0  0  0  0  0  0  0  0  0
    2.0853    0.0476   14.5529 C   0  0  0  0  0  0  0  0  0  0  0  0
    1.1387   -0.7027   13.6315 C   0  0  0  0  0  0  0  0  0  0  0  0
    1.1623   -1.0196   15.1165 C   0  0  0  0  0  0  0  0  0  0  0  0
    3.8203    1.5166   16.4659 C   0  0  0  0  0  0  0  0  0  0  0  0
    4.8449    1.8691   17.5625 C   0  0  0  0  0  0  0  0  0  0  0  0
    4.9987    1.0434   18.6472 C   0  0  0  0  0  0  0  0  0  0  0  0
    5.9250    1.3494   19.6524 C   0  0  0  0  0  0  0  0  0  0  0  0
    6.7090    2.5014   19.5676 C   0  0  0  0  0  0  0  0  0  0  0  0
    6.5653    3.3655   18.4589 C   0  0  0  0  0  0  0  0  0  0  0  0
    7.3455    4.5349   18.3518 C   0  0  0  0  0  0  0  0  0  0  0  0
    7.1904    5.3751   17.2501 C   0  0  0  0  0  0  0  0  0  0  0  0
    6.2647    5.0628   16.2516 C   0  0  0  0  0  0  0  0  0  0  0  0
    5.4851    3.9103   16.3439 C   0  0  0  0  0  0  0  0  0  0  0  0
    5.6251    3.0431   17.4500 C   0  0  0  0  0  0  0  0  0  0  0  0
 25 24  2  0  0  0
 25 26  1  0  0  0
 24 23  1  0  0  0
 26 27  2  0  0  0
 23 22  2  0  0  0
 23 28  1  0  0  0
 22 21  1  0  0  0
  9  8  2  0  0  0
 27 28  1  0  0  0
 28 19  2  0  0  0
 21 20  2  0  0  0
  8  7  1  0  0  0
  8 10  1  0  0  0
  7  5  2  0  0  0
 19 20  1  0  0  0
 19 18  1  0  0  0
 11 12  2  0  0  0
 12  1  1  0  0  0
 12 13  1  0  0  0
 10  1  1  0  0  0
 10  3  1  0  0  0
  1  2  1  0  0  0
  5 18  1  0  0  0
  5  4  1  0  0  0
  3  4  2  0  0  0
  3  6  1  0  0  0
  4 15  1  0  0  0
  2  6  1  0  0  0
 15 16  1  0  0  0
 15 17  1  0  0  0
 16 17  1  0  0  0
 13 14  1  0  0  0
M  END
> <minimizedAffinity>
-10.13485

$$$$
5F1R_42O_A_301


 28 32  0  0  0  0  0  0  0  0999 V2000
    6.6430    0.9602   19.1782 C   0  0  0  0  0  0  0  0  0  0  0  0
    8.0556    1.5331   19.1772 C   0  0  0  0  0  0  0  0  0  0  0  0
    6.7838    2.0713   17.0288 C   0  0  0  0  0  0  0  0  0  0  0  0
    6.3846    2.3121   15.7282 C   0  0  0  0  0  0  0  0  0  0  0  0
    5.2632    1.5523   15.2117 C   0  0  0  0  0  0  0  0  0  0  0  0
    8.0888    2.8257   17.9094 S   0  0  0  0  0  0  0  0  0  0  0  0
    4.6468    0.6472   15.9913 C   0  0  0  0  0  0  0  0  0  0  0  0
    5.0303    0.3758   17.3260 C   0  0  0  0  0  0  0  0  0  0  0  0
    4.4909   -0.4386   18.0570 O   0  0  0  0  0  0  0  0  0  0  0  0
    6.1153    1.1158   17.8114 N   0  0  0  0  0  0  0  0  0  0  0  0
    5.8109    1.3185   21.3473 O   0  0  0  0  0  0  0  0  0  0  0  0
    5.7733    1.7382   20.1574 C   0  0  0  0  0  0  0  0  0  0  0  0
    5.0610    2.7288   19.8338 O   0  0  0  0  0  0  0  0  0  0  0  0
    5.0466    3.0251   18.9449 H   0  0  0  0  0  0  0  0  0  0  0  0
    7.1135    3.3587   14.8585 C   0  0  0  0  0  0  0  0  0  0  0  0
    6.4075    4.4710   14.1020 C   0  0  0  0  0  0  0  0  0  0  0  0
    7.3177    4.8068   15.2702 C   0  0  0  0  0  0  0  0  0  0  0  0
    4.8159    1.8058   13.7921 C   0  0  0  0  0  0  0  0  0  0  0  0
    5.3039    0.6584   12.8855 C   0  0  0  0  0  0  0  0  0  0  0  0
    6.5610    0.7050   12.3384 C   0  0  0  0  0  0  0  0  0  0  0  0
    7.0196   -0.3292   11.5124 C   0  0  0  0  0  0  0  0  0  0  0  0
    6.2041   -1.4270   11.2314 C   0  0  0  0  0  0  0  0  0  0  0  0
    4.9056   -1.4937   11.7845 C   0  0  0  0  0  0  0  0  0  0  0  0
    4.0638   -2.5920   11.5144 C   0  0  0  0  0  0  0  0  0  0  0  0
    2.7859   -2.6408   12.0696 C   0  0  0  0  0  0  0  0  0  0  0  0
    2.3360   -1.6056   12.8926 C   0  0  0  0  0  0  0  0  0  0  0  0
    3.1566   -0.5123   13.1682 C   0  0  0  0  0  0  0  0  0  0  0  0
    4.4556   -0.4410   12.6181 C   0  0  0  0  0  0  0  0  0  0  0  0
 25 24  2  0  0  0
 25 26  1  0  0  0
 24 23  1  0  0  0
 26 27  2  0  0  0
 23 22  2  0  0  0
 23 28  1  0  0  0
 22 21  1  0  0  0
  9  8  2  0  0  0
 27 28  1  0  0  0
 28 19  2  0  0  0
 21 20  2  0  0  0
  8  7  1  0  0  0
  8 10  1  0  0  0
  7  5  2  0  0  0
 19 20  1  0  0  0
 19 18  1  0  0  0
 11 12  2  0  0  0
 12  1  1  0  0  0
 12 13  1  0  0  0
 10  1  1  0  0  0
 10  3  1  0  0  0
  1  2  1  0  0  0
  5 18  1  0  0  0
  5  4  1  0  0  0
  3  4  2  0  0  0
  3  6  1  0  0  0
  4 15  1  0  0  0
  2  6  1  0  0  0
 15 16  1  0  0  0
 15 17  1  0  0  0
 16 17  1  0  0  0
 13 14  1  0  0  0
M  END
> <minimizedAffinity>
-10.13253

$$$$
5F1R_42O_A_301


 28 32  0  0  0  0  0  0  0  0999 V2000
    7.3139    1.2552   18.9968 C   0  0  0  0  0  0  0  0  0  0  0  0
    8.6962    1.6267   18.4725 C   0  0  0  0  0  0  0  0  0  0  0  0
    6.8717    1.9297   16.7113 C   0  0  0  0  0  0  0  0  0  0  0  0
    6.1131    1.9813   15.5577 C   0  0  0  0  0  0  0  0  0  0  0  0
    4.8360    1.2954   15.5550 C   0  0  0  0  0  0  0  0  0  0  0  0
    8.4339    2.6521   17.0033 S   0  0  0  0  0  0  0  0  0  0  0  0
    4.4234    0.6362   16.6514 C   0  0  0  0  0  0  0  0  0  0  0  0
    5.1753    0.5629   17.8479 C   0  0  0  0  0  0  0  0  0  0  0  0
    4.8275   -0.0269   18.8577 O   0  0  0  0  0  0  0  0  0  0  0  0
    6.4070    1.2287   17.8360 N   0  0  0  0  0  0  0  0  0  0  0  0
    6.6469    1.8742   21.1643 O   0  0  0  0  0  0  0  0  0  0  0  0
    6.8428    2.3057   19.9943 C   0  0  0  0  0  0  0  0  0  0  0  0
    6.6548    3.5195   19.7031 O   0  0  0  0  0  0  0  0  0  0  0  0
    6.8059    3.8203   18.8286 H   0  0  0  0  0  0  0  0  0  0  0  0
    6.6151    2.7473   14.3150 C   0  0  0  0  0  0  0  0  0  0  0  0
    5.7359    3.6445   13.4607 C   0  0  0  0  0  0  0  0  0  0  0  0
    6.8592    4.2466   14.2864 C   0  0  0  0  0  0  0  0  0  0  0  0
    3.9962    1.3442   14.3012 C   0  0  0  0  0  0  0  0  0  0  0  0
    3.8026   -0.0844   13.7549 C   0  0  0  0  0  0  0  0  0  0  0  0
    2.7534   -0.8501   14.1961 C   0  0  0  0  0  0  0  0  0  0  0  0
    2.5634   -2.1500   13.7100 C   0  0  0  0  0  0  0  0  0  0  0  0
    3.4397   -2.6895   12.7665 C   0  0  0  0  0  0  0  0  0  0  0  0
    4.5272   -1.9174   12.2997 C   0  0  0  0  0  0  0  0  0  0  0  0
    5.4256   -2.4411   11.3477 C   0  0  0  0  0  0  0  0  0  0  0  0
    6.4924   -1.6641   10.8983 C   0  0  0  0  0  0  0  0  0  0  0  0
    6.6749   -0.3685   11.3878 C   0  0  0  0  0  0  0  0  0  0  0  0
    5.7953    0.1630   12.3304 C   0  0  0  0  0  0  0  0  0  0  0  0
    4.7064   -0.6046   12.7999 C   0  0  0  0  0  0  0  0  0  0  0  0
 25 24  2  0  0  0
 25 26  1  0  0  0
 24 23  1  0  0  0
 26 27  2  0  0  0
 23 22  2  0  0  0
 23 28  1  0  0  0
 22 21  1  0  0  0
  9  8  2  0  0  0
 27 28  1  0  0  0
 28 19  2  0  0  0
 21 20  2  0  0  0
  8  7  1  0  0  0
  8 10  1  0  0  0
  7  5  2  0  0  0
 19 20  1  0  0  0
 19 18  1  0  0  0
 11 12  2  0  0  0
 12  1  1  0  0  0
 12 13  1  0  0  0
 10  1  1  0  0  0
 10  3  1  0  0  0
  1  2  1  0  0  0
  5 18  1  0  0  0
  5  4  1  0  0  0
  3  4  2  0  0  0
  3  6  1  0  0  0
  4 15  1  0  0  0
  2  6  1  0  0  0
 15 16  1  0  0  0
 15 17  1  0  0  0
 16 17  1  0  0  0
 13 14  1  0  0  0
M  END
> <minimizedAffinity>
-9.90010

$$$$
5F1R_42O_A_301


 28 32  0  0  0  0  0  0  0  0999 V2000
    7.2306    5.9575   16.6701 C   0  0  0  0  0  0  0  0  0  0  0  0
    6.8562    5.8196   18.1413 C   0  0  0  0  0  0  0  0  0  0  0  0
    7.0643    3.5585   16.9722 C   0  0  0  0  0  0  0  0  0  0  0  0
    6.9225    2.2587   16.5257 C   0  0  0  0  0  0  0  0  0  0  0  0
    6.7862    2.0434   15.0986 C   0  0  0  0  0  0  0  0  0  0  0  0
    7.2450    4.1161   18.6167 S   0  0  0  0  0  0  0  0  0  0  0  0
    6.7997    3.0901   14.2553 C   0  0  0  0  0  0  0  0  0  0  0  0
    6.9422    4.4326   14.6790 C   0  0  0  0  0  0  0  0  0  0  0  0
    6.9580    5.4020   13.9384 O   0  0  0  0  0  0  0  0  0  0  0  0
    7.0717    4.6261   16.0597 N   0  0  0  0  0  0  0  0  0  0  0  0
    9.4628    5.5507   16.0557 O   0  0  0  0  0  0  0  0  0  0  0  0
    8.6802    6.4098   16.5486 C   0  0  0  0  0  0  0  0  0  0  0  0
    9.0953    7.5477   16.9037 O   0  0  0  0  0  0  0  0  0  0  0  0
    8.4984    8.1716   17.2675 H   0  0  0  0  0  0  0  0  0  0  0  0
    6.9111    1.0780   17.5201 C   0  0  0  0  0  0  0  0  0  0  0  0
    7.1091    1.2308   19.0185 C   0  0  0  0  0  0  0  0  0  0  0  0
    5.7642    0.7847   18.4724 C   0  0  0  0  0  0  0  0  0  0  0  0
    6.6312    0.6279   14.5966 C   0  0  0  0  0  0  0  0  0  0  0  0
    5.4353    0.5533   13.6266 C   0  0  0  0  0  0  0  0  0  0  0  0
    5.4947    1.1947   12.4154 C   0  0  0  0  0  0  0  0  0  0  0  0
    4.4168    1.1371   11.5227 C   0  0  0  0  0  0  0  0  0  0  0  0
    3.2618    0.4245   11.8505 C   0  0  0  0  0  0  0  0  0  0  0  0
    3.1804   -0.2426   13.0934 C   0  0  0  0  0  0  0  0  0  0  0  0
    2.0241   -0.9678   13.4466 C   0  0  0  0  0  0  0  0  0  0  0  0
    1.9622   -1.6203   14.6771 C   0  0  0  0  0  0  0  0  0  0  0  0
    3.0415   -1.5583   15.5618 C   0  0  0  0  0  0  0  0  0  0  0  0
    4.1916   -0.8441   15.2271 C   0  0  0  0  0  0  0  0  0  0  0  0
    4.2782   -0.1758   13.9857 C   0  0  0  0  0  0  0  0  0  0  0  0
 25 24  2  0  0  0
 25 26  1  0  0  0
 24 23  1  0  0  0
 26 27  2  0  0  0
 23 22  2  0  0  0
 23 28  1  0  0  0
 22 21  1  0  0  0
  9  8  2  0  0  0
 27 28  1  0  0  0
 28 19  2  0  0  0
 21 20  2  0  0  0
  8  7  1  0  0  0
  8 10  1  0  0  0
  7  5  2  0  0  0
 19 20  1  0  0  0
 19 18  1  0  0  0
 11 12  2  0  0  0
 12  1  1  0  0  0
 12 13  1  0  0  0
 10  1  1  0  0  0
 10  3  1  0  0  0
  1  2  1  0  0  0
  5 18  1  0  0  0
  5  4  1  0  0  0
  3  4  2  0  0  0
  3  6  1  0  0  0
  4 15  1  0  0  0
  2  6  1  0  0  0
 15 16  1  0  0  0
 15 17  1  0  0  0
 16 17  1  0  0  0
 13 14  1  0  0  0
M  END
> <minimizedAffinity>
-9.86176

$$$$
5F1R_42O_A_301


 28 32  0  0  0  0  0  0  0  0999 V2000
    3.3616   -2.1518   13.5360 C   0  0  0  0  0  0  0  0  0  0  0  0
    2.4246   -2.1212   14.7380 C   0  0  0  0  0  0  0  0  0  0  0  0
    3.8935   -0.0369   14.5936 C   0  0  0  0  0  0  0  0  0  0  0  0
    4.6964    1.0606   14.8381 C   0  0  0  0  0  0  0  0  0  0  0  0
    5.9696    1.1360   14.1492 C   0  0  0  0  0  0  0  0  0  0  0  0
    2.3255   -0.3940   15.2729 S   0  0  0  0  0  0  0  0  0  0  0  0
    6.3369    0.1574   13.3040 C   0  0  0  0  0  0  0  0  0  0  0  0
    5.5397   -0.9795   13.0317 C   0  0  0  0  0  0  0  0  0  0  0  0
    5.8459   -1.8826   12.2707 O   0  0  0  0  0  0  0  0  0  0  0  0
    4.3134   -1.0400   13.7048 N   0  0  0  0  0  0  0  0  0  0  0  0
    2.6556   -2.8976   11.4214 O   0  0  0  0  0  0  0  0  0  0  0  0
    2.5612   -1.9543   12.2550 C   0  0  0  0  0  0  0  0  0  0  0  0
    1.8504   -0.9384   12.0179 O   0  0  0  0  0  0  0  0  0  0  0  0
    1.7934   -0.2487   12.6496 H   0  0  0  0  0  0  0  0  0  0  0  0
    4.2456    2.1679   15.8147 C   0  0  0  0  0  0  0  0  0  0  0  0
    2.8964    2.1837   16.5128 C   0  0  0  0  0  0  0  0  0  0  0  0
    4.1669    1.9872   17.3211 C   0  0  0  0  0  0  0  0  0  0  0  0
    6.8568    2.3303   14.4065 C   0  0  0  0  0  0  0  0  0  0  0  0
    7.2821    2.3464   15.8882 C   0  0  0  0  0  0  0  0  0  0  0  0
    7.7862    1.2102   16.4686 C   0  0  0  0  0  0  0  0  0  0  0  0
    8.1770    1.2079   17.8137 C   0  0  0  0  0  0  0  0  0  0  0  0
    8.0605    2.3638   18.5880 C   0  0  0  0  0  0  0  0  0  0  0  0
    7.5430    3.5444   18.0094 C   0  0  0  0  0  0  0  0  0  0  0  0
    7.4153    4.7235   18.7717 C   0  0  0  0  0  0  0  0  0  0  0  0
    6.9032    5.8791   18.1834 C   0  0  0  0  0  0  0  0  0  0  0  0
    6.5159    5.8733   16.8412 C   0  0  0  0  0  0  0  0  0  0  0  0
    6.6352    4.7146   16.0746 C   0  0  0  0  0  0  0  0  0  0  0  0
    7.1523    3.5319   16.6481 C   0  0  0  0  0  0  0  0  0  0  0  0
 25 24  2  0  0  0
 25 26  1  0  0  0
 24 23  1  0  0  0
 26 27  2  0  0  0
 23 22  2  0  0  0
 23 28  1  0  0  0
 22 21  1  0  0  0
  9  8  2  0  0  0
 27 28  1  0  0  0
 28 19  2  0  0  0
 21 20  2  0  0  0
  8  7  1  0  0  0
  8 10  1  0  0  0
  7  5  2  0  0  0
 19 20  1  0  0  0
 19 18  1  0  0  0
 11 12  2  0  0  0
 12  1  1  0  0  0
 12 13  1  0  0  0
 10  1  1  0  0  0
 10  3  1  0  0  0
  1  2  1  0  0  0
  5 18  1  0  0  0
  5  4  1  0  0  0
  3  4  2  0  0  0
  3  6  1  0  0  0
  4 15  1  0  0  0
  2  6  1  0  0  0
 15 16  1  0  0  0
 15 17  1  0  0  0
 16 17  1  0  0  0
 13 14  1  0  0  0
M  END
> <minimizedAffinity>
-9.69555

$$$$
