5LUD_76X_A_201


 12 12  0  0  0  0  0  0  0  0999 V2000
   -5.2554   22.5940   -9.5242 N   0  0  0  0  0  0  0  0  0  0  0  0
   -5.5910   21.3407   -9.1987 C   0  0  0  0  0  0  0  0  0  0  0  0
   -6.6596   20.6309   -9.7852 C   0  0  0  0  0  0  0  0  0  0  0  0
   -7.3728   21.2156  -10.7592 N   0  0  0  0  0  0  0  0  0  0  0  0
   -4.8720   20.7588   -8.2167 C   0  0  0  0  0  0  0  0  0  0  0  0
   -5.1934   19.5121   -7.7878 C   0  0  0  0  0  0  0  0  0  0  0  0
   -6.1750   18.7975   -8.3899 C   0  0  0  0  0  0  0  0  0  0  0  0
   -6.9187   19.3318   -9.3805 N   0  0  0  0  0  0  0  0  0  0  0  0
   -5.7471   23.0667  -10.2341 H   0  0  0  0  0  0  0  0  0  0  0  0
   -4.5167   23.0438   -9.0538 H   0  0  0  0  0  0  0  0  0  0  0  0
   -7.1705   22.1403  -11.0302 H   0  0  0  0  0  0  0  0  0  0  0  0
   -8.0986   20.7202  -11.2031 H   0  0  0  0  0  0  0  0  0  0  0  0
  1  2  1  0  0  0
  4  3  1  0  0  0
  2  3  2  0  0  0
  2  5  1  0  0  0
  3  8  1  0  0  0
  5  6  2  0  0  0
  8  7  2  0  0  0
  7  6  1  0  0  0
  1  9  1  0  0  0
  1 10  1  0  0  0
  4 11  1  0  0  0
  4 12  1  0  0  0
M  END
> <minimizedAffinity>
-4.80727

$$$$
5LUD_76X_A_201


 12 12  0  0  0  0  0  0  0  0999 V2000
   -7.1417   20.8910  -10.7695 N   0  0  0  0  0  0  0  0  0  0  0  0
   -6.3153   20.4329   -9.8226 C   0  0  0  0  0  0  0  0  0  0  0  0
   -5.3315   21.2172   -9.1851 C   0  0  0  0  0  0  0  0  0  0  0  0
   -5.2259   22.5157   -9.5050 N   0  0  0  0  0  0  0  0  0  0  0  0
   -6.4243   19.1259   -9.5070 C   0  0  0  0  0  0  0  0  0  0  0  0
   -5.5781   18.5736   -8.6012 C   0  0  0  0  0  0  0  0  0  0  0  0
   -4.6744   19.3331   -7.9355 C   0  0  0  0  0  0  0  0  0  0  0  0
   -4.5306   20.6461   -8.2099 N   0  0  0  0  0  0  0  0  0  0  0  0
   -7.1053   21.8372  -11.0389 H   0  0  0  0  0  0  0  0  0  0  0  0
   -7.7864   20.2820  -11.1970 H   0  0  0  0  0  0  0  0  0  0  0  0
   -5.8060   22.8997  -10.2016 H   0  0  0  0  0  0  0  0  0  0  0  0
   -4.5684   23.0845   -9.0432 H   0  0  0  0  0  0  0  0  0  0  0  0
  1  2  1  0  0  0
  4  3  1  0  0  0
  2  3  2  0  0  0
  2  5  1  0  0  0
  3  8  1  0  0  0
  5  6  2  0  0  0
  8  7  2  0  0  0
  7  6  1  0  0  0
  1  9  1  0  0  0
  1 10  1  0  0  0
  4 11  1  0  0  0
  4 12  1  0  0  0
M  END
> <minimizedAffinity>
-4.78417

$$$$
5LUD_76X_A_201


 12 12  0  0  0  0  0  0  0  0999 V2000
   -7.2855   20.3714   -8.8308 N   0  0  0  0  0  0  0  0  0  0  0  0
   -6.0783   19.9735   -8.4139 C   0  0  0  0  0  0  0  0  0  0  0  0
   -5.5951   18.6540   -8.5363 C   0  0  0  0  0  0  0  0  0  0  0  0
   -6.3615   17.7333   -9.1398 N   0  0  0  0  0  0  0  0  0  0  0  0
   -5.3131   20.9030   -7.8053 C   0  0  0  0  0  0  0  0  0  0  0  0
   -4.1018   20.5593   -7.2991 C   0  0  0  0  0  0  0  0  0  0  0  0
   -3.6014   19.3116   -7.4704 C   0  0  0  0  0  0  0  0  0  0  0  0
   -4.3243   18.3480   -8.0777 N   0  0  0  0  0  0  0  0  0  0  0  0
   -7.8855   19.7340   -9.2813 H   0  0  0  0  0  0  0  0  0  0  0  0
   -7.5740   21.3016   -8.6870 H   0  0  0  0  0  0  0  0  0  0  0  0
   -7.2617   17.9739   -9.4577 H   0  0  0  0  0  0  0  0  0  0  0  0
   -6.0239   16.8170   -9.2650 H   0  0  0  0  0  0  0  0  0  0  0  0
  1  2  1  0  0  0
  4  3  1  0  0  0
  2  3  2  0  0  0
  2  5  1  0  0  0
  3  8  1  0  0  0
  5  6  2  0  0  0
  8  7  2  0  0  0
  7  6  1  0  0  0
  1  9  1  0  0  0
  1 10  1  0  0  0
  4 11  1  0  0  0
  4 12  1  0  0  0
M  END
> <minimizedAffinity>
-4.58663

$$$$
5LUD_76X_A_201


 12 12  0  0  0  0  0  0  0  0999 V2000
   -8.6000   21.9101  -10.7337 N   0  0  0  0  0  0  0  0  0  0  0  0
   -7.7927   21.6595   -9.6969 C   0  0  0  0  0  0  0  0  0  0  0  0
   -6.8212   20.6370   -9.6807 C   0  0  0  0  0  0  0  0  0  0  0  0
   -6.6525   19.8818  -10.7764 N   0  0  0  0  0  0  0  0  0  0  0  0
   -7.9688   22.4203   -8.5969 C   0  0  0  0  0  0  0  0  0  0  0  0
   -7.2307   22.1840   -7.4829 C   0  0  0  0  0  0  0  0  0  0  0  0
   -6.2500   21.2485   -7.4800 C   0  0  0  0  0  0  0  0  0  0  0  0
   -6.0299   20.4662   -8.5567 N   0  0  0  0  0  0  0  0  0  0  0  0
   -8.5151   21.3847  -11.5619 H   0  0  0  0  0  0  0  0  0  0  0  0
   -9.2790   22.6200  -10.6685 H   0  0  0  0  0  0  0  0  0  0  0  0
   -7.2269   20.0213  -11.5636 H   0  0  0  0  0  0  0  0  0  0  0  0
   -5.9542   19.1880  -10.7933 H   0  0  0  0  0  0  0  0  0  0  0  0
  1  2  1  0  0  0
  4  3  1  0  0  0
  2  3  2  0  0  0
  2  5  1  0  0  0
  3  8  1  0  0  0
  5  6  2  0  0  0
  8  7  2  0  0  0
  7  6  1  0  0  0
  1  9  1  0  0  0
  1 10  1  0  0  0
  4 11  1  0  0  0
  4 12  1  0  0  0
M  END
> <minimizedAffinity>
-4.42616

$$$$
5LUD_76X_A_201


 12 12  0  0  0  0  0  0  0  0999 V2000
   -6.5409   19.6720  -10.8068 N   0  0  0  0  0  0  0  0  0  0  0  0
   -6.7054   20.4163   -9.7076 C   0  0  0  0  0  0  0  0  0  0  0  0
   -7.6286   21.4776   -9.6025 C   0  0  0  0  0  0  0  0  0  0  0  0
   -8.4286   21.7501  -10.6442 N   0  0  0  0  0  0  0  0  0  0  0  0
   -5.8963   20.1394   -8.6643 C   0  0  0  0  0  0  0  0  0  0  0  0
   -5.9604   20.8925   -7.5372 C   0  0  0  0  0  0  0  0  0  0  0  0
   -6.8887   21.8707   -7.4022 C   0  0  0  0  0  0  0  0  0  0  0  0
   -7.7252   22.1821   -8.4138 N   0  0  0  0  0  0  0  0  0  0  0  0
   -7.1046   19.8311  -11.5980 H   0  0  0  0  0  0  0  0  0  0  0  0
   -5.8560   18.9649  -10.8246 H   0  0  0  0  0  0  0  0  0  0  0  0
   -8.3417   21.2360  -11.4793 H   0  0  0  0  0  0  0  0  0  0  0  0
   -9.1026   22.4642  -10.5736 H   0  0  0  0  0  0  0  0  0  0  0  0
  1  2  1  0  0  0
  4  3  1  0  0  0
  2  3  2  0  0  0
  2  5  1  0  0  0
  3  8  1  0  0  0
  5  6  2  0  0  0
  8  7  2  0  0  0
  7  6  1  0  0  0
  1  9  1  0  0  0
  1 10  1  0  0  0
  4 11  1  0  0  0
  4 12  1  0  0  0
M  END
> <minimizedAffinity>
-4.40583

$$$$
5LUD_76X_A_201


 12 12  0  0  0  0  0  0  0  0999 V2000
   -8.7622   21.8663  -10.7518 N   0  0  0  0  0  0  0  0  0  0  0  0
   -7.5936   21.8635  -10.1007 C   0  0  0  0  0  0  0  0  0  0  0  0
   -6.6627   22.9224  -10.1430 C   0  0  0  0  0  0  0  0  0  0  0  0
   -6.9641   24.0267  -10.8422 N   0  0  0  0  0  0  0  0  0  0  0  0
   -7.2948   20.7492   -9.4015 C   0  0  0  0  0  0  0  0  0  0  0  0
   -6.0998   20.6465   -8.7665 C   0  0  0  0  0  0  0  0  0  0  0  0
   -5.2278   21.6838   -8.7465 C   0  0  0  0  0  0  0  0  0  0  0  0
   -5.4827   22.8219   -9.4245 N   0  0  0  0  0  0  0  0  0  0  0  0
   -9.0307   22.6539  -11.2779 H   0  0  0  0  0  0  0  0  0  0  0  0
   -9.3536   21.0807  -10.7050 H   0  0  0  0  0  0  0  0  0  0  0  0
   -7.8089   24.0754  -11.3455 H   0  0  0  0  0  0  0  0  0  0  0  0
   -6.3406   24.7886  -10.8520 H   0  0  0  0  0  0  0  0  0  0  0  0
  1  2  1  0  0  0
  4  3  1  0  0  0
  2  3  2  0  0  0
  2  5  1  0  0  0
  3  8  1  0  0  0
  5  6  2  0  0  0
  8  7  2  0  0  0
  7  6  1  0  0  0
  1  9  1  0  0  0
  1 10  1  0  0  0
  4 11  1  0  0  0
  4 12  1  0  0  0
M  END
> <minimizedAffinity>
-4.17589

$$$$
5LUD_76X_A_201


 12 12  0  0  0  0  0  0  0  0999 V2000
   -9.2033   21.3195   -9.0175 N   0  0  0  0  0  0  0  0  0  0  0  0
   -8.0231   21.9182   -8.8220 C   0  0  0  0  0  0  0  0  0  0  0  0
   -6.9404   21.8443   -9.7230 C   0  0  0  0  0  0  0  0  0  0  0  0
   -7.0944   21.1692  -10.8719 N   0  0  0  0  0  0  0  0  0  0  0  0
   -7.8732   22.5934   -7.6638 C   0  0  0  0  0  0  0  0  0  0  0  0
   -6.6833   23.1738   -7.3657 C   0  0  0  0  0  0  0  0  0  0  0  0
   -5.6594   23.1646   -8.2536 C   0  0  0  0  0  0  0  0  0  0  0  0
   -5.7614   22.5089   -9.4282 N   0  0  0  0  0  0  0  0  0  0  0  0
   -9.3671   20.8130   -9.8457 H   0  0  0  0  0  0  0  0  0  0  0  0
   -9.9080   21.3854   -8.3332 H   0  0  0  0  0  0  0  0  0  0  0  0
   -7.9416   20.7043  -11.0599 H   0  0  0  0  0  0  0  0  0  0  0  0
   -6.3602   21.1386  -11.5271 H   0  0  0  0  0  0  0  0  0  0  0  0
  1  2  1  0  0  0
  4  3  1  0  0  0
  2  3  2  0  0  0
  2  5  1  0  0  0
  3  8  1  0  0  0
  5  6  2  0  0  0
  8  7  2  0  0  0
  7  6  1  0  0  0
  1  9  1  0  0  0
  1 10  1  0  0  0
  4 11  1  0  0  0
  4 12  1  0  0  0
M  END
> <minimizedAffinity>
-4.15515

$$$$
5LUD_76X_A_201


 12 12  0  0  0  0  0  0  0  0999 V2000
   -3.2885   21.7692   -7.5867 N   0  0  0  0  0  0  0  0  0  0  0  0
   -4.2429   20.9843   -8.0991 C   0  0  0  0  0  0  0  0  0  0  0  0
   -5.2246   21.4260   -9.0105 C   0  0  0  0  0  0  0  0  0  0  0  0
   -5.1950   22.6988   -9.4332 N   0  0  0  0  0  0  0  0  0  0  0  0
   -4.2694   19.7062   -7.6683 C   0  0  0  0  0  0  0  0  0  0  0  0
   -5.2464   18.8664   -8.0947 C   0  0  0  0  0  0  0  0  0  0  0  0
   -6.1536   19.2627   -9.0203 C   0  0  0  0  0  0  0  0  0  0  0  0
   -6.1655   20.5283   -9.4873 N   0  0  0  0  0  0  0  0  0  0  0  0
   -3.2230   22.7109   -7.8660 H   0  0  0  0  0  0  0  0  0  0  0  0
   -2.6516   21.4050   -6.9302 H   0  0  0  0  0  0  0  0  0  0  0  0
   -4.5169   23.3190   -9.0802 H   0  0  0  0  0  0  0  0  0  0  0  0
   -5.8514   23.0126  -10.0965 H   0  0  0  0  0  0  0  0  0  0  0  0
  1  2  1  0  0  0
  4  3  1  0  0  0
  2  3  2  0  0  0
  2  5  1  0  0  0
  3  8  1  0  0  0
  5  6  2  0  0  0
  8  7  2  0  0  0
  7  6  1  0  0  0
  1  9  1  0  0  0
  1 10  1  0  0  0
  4 11  1  0  0  0
  4 12  1  0  0  0
M  END
> <minimizedAffinity>
-4.12840

$$$$
5LUD_76X_A_201


 12 12  0  0  0  0  0  0  0  0999 V2000
   -5.6582   24.0847   -9.4089 N   0  0  0  0  0  0  0  0  0  0  0  0
   -5.8119   22.7561   -9.3809 C   0  0  0  0  0  0  0  0  0  0  0  0
   -4.8166   21.8542   -8.9500 C   0  0  0  0  0  0  0  0  0  0  0  0
   -3.6497   22.3389   -8.4996 N   0  0  0  0  0  0  0  0  0  0  0  0
   -6.9863   22.2745   -9.8376 C   0  0  0  0  0  0  0  0  0  0  0  0
   -7.1922   20.9345   -9.8995 C   0  0  0  0  0  0  0  0  0  0  0  0
   -6.2685   20.0630   -9.4263 C   0  0  0  0  0  0  0  0  0  0  0  0
   -5.0810   20.4945   -8.9535 N   0  0  0  0  0  0  0  0  0  0  0  0
   -4.8207   24.4902   -9.0876 H   0  0  0  0  0  0  0  0  0  0  0  0
   -6.3827   24.6569   -9.7509 H   0  0  0  0  0  0  0  0  0  0  0  0
   -3.4842   23.3093   -8.5068 H   0  0  0  0  0  0  0  0  0  0  0  0
   -2.9589   21.7241   -8.1619 H   0  0  0  0  0  0  0  0  0  0  0  0
  1  2  1  0  0  0
  4  3  1  0  0  0
  2  3  2  0  0  0
  2  5  1  0  0  0
  3  8  1  0  0  0
  5  6  2  0  0  0
  8  7  2  0  0  0
  7  6  1  0  0  0
  1  9  1  0  0  0
  1 10  1  0  0  0
  4 11  1  0  0  0
  4 12  1  0  0  0
M  END
> <minimizedAffinity>
-4.11479

$$$$
5LUD_76X_A_201


 12 12  0  0  0  0  0  0  0  0999 V2000
   -4.4388   19.4780   -7.5209 N   0  0  0  0  0  0  0  0  0  0  0  0
   -5.3520   20.0493   -8.3141 C   0  0  0  0  0  0  0  0  0  0  0  0
   -6.3301   19.3341   -9.0362 C   0  0  0  0  0  0  0  0  0  0  0  0
   -6.3914   18.0006   -8.9041 N   0  0  0  0  0  0  0  0  0  0  0  0
   -5.2837   21.3902   -8.4452 C   0  0  0  0  0  0  0  0  0  0  0  0
   -6.1360   22.0346   -9.2818 C   0  0  0  0  0  0  0  0  0  0  0  0
   -7.1208   21.3644   -9.9281 C   0  0  0  0  0  0  0  0  0  0  0  0
   -7.2356   20.0242   -9.8251 N   0  0  0  0  0  0  0  0  0  0  0  0
   -4.4423   18.5024   -7.3894 H   0  0  0  0  0  0  0  0  0  0  0  0
   -3.7632   20.0333   -7.0686 H   0  0  0  0  0  0  0  0  0  0  0  0
   -5.7368   17.5314   -8.3379 H   0  0  0  0  0  0  0  0  0  0  0  0
   -7.0909   17.4911   -9.3734 H   0  0  0  0  0  0  0  0  0  0  0  0
  1  2  1  0  0  0
  4  3  1  0  0  0
  2  3  2  0  0  0
  2  5  1  0  0  0
  3  8  1  0  0  0
  5  6  2  0  0  0
  8  7  2  0  0  0
  7  6  1  0  0  0
  1  9  1  0  0  0
  1 10  1  0  0  0
  4 11  1  0  0  0
  4 12  1  0  0  0
M  END
> <minimizedAffinity>
-4.10749

$$$$
