6F9G_PUT_A_401


 10  9  0  0  0  0  0  0  0  0999 V2000
   51.6119   72.1945   39.8332 C   0  0  0  0  0  0  0  0  0  0  0  0
   53.4114   71.5000   41.3224 N   0  0  0  0  0  0  0  0  0  0  0  0
   52.5040   71.0408   40.2865 C   0  0  0  0  0  0  0  0  0  0  0  0
   54.0050   70.7264   41.6218 H   0  0  0  0  0  0  0  0  0  0  0  0
   52.8733   71.8433   42.1180 H   0  0  0  0  0  0  0  0  0  0  0  0
   52.2765   72.9485   38.6840 C   0  0  0  0  0  0  0  0  0  0  0  0
   52.0788   74.4514   38.8743 C   0  0  0  0  0  0  0  0  0  0  0  0
   53.2547   75.1552   38.3953 N   0  0  0  0  0  0  0  0  0  0  0  0
   54.0726   74.8484   38.9219 H   0  0  0  0  0  0  0  0  0  0  0  0
   53.1254   76.1590   38.5224 H   0  0  0  0  0  0  0  0  0  0  0  0
  2  3  1  0  0  0
  3  1  1  0  0  0
  1  6  1  0  0  0
  6  7  1  0  0  0
  7  8  1  0  0  0
  2  4  1  0  0  0
  2  5  1  0  0  0
  8  9  1  0  0  0
  8 10  1  0  0  0
M  END
> <minimizedAffinity>
-4.32440

$$$$
6F9G_PUT_A_401


 10  9  0  0  0  0  0  0  0  0999 V2000
   52.2112   72.9677   38.6603 C   0  0  0  0  0  0  0  0  0  0  0  0
   53.2658   75.1441   38.3608 N   0  0  0  0  0  0  0  0  0  0  0  0
   52.0688   74.4775   38.8408 C   0  0  0  0  0  0  0  0  0  0  0  0
   53.1661   76.1518   38.4833 H   0  0  0  0  0  0  0  0  0  0  0  0
   53.3989   74.9333   37.3717 H   0  0  0  0  0  0  0  0  0  0  0  0
   51.5926   72.2386   39.8506 C   0  0  0  0  0  0  0  0  0  0  0  0
   52.4785   71.0584   40.2459 C   0  0  0  0  0  0  0  0  0  0  0  0
   53.3737   71.4660   41.3137 N   0  0  0  0  0  0  0  0  0  0  0  0
   53.9567   72.2387   40.9922 H   0  0  0  0  0  0  0  0  0  0  0  0
   53.9670   70.6797   41.5786 H   0  0  0  0  0  0  0  0  0  0  0  0
  2  3  1  0  0  0
  3  1  1  0  0  0
  1  6  1  0  0  0
  6  7  1  0  0  0
  7  8  1  0  0  0
  2  4  1  0  0  0
  2  5  1  0  0  0
  8  9  1  0  0  0
  8 10  1  0  0  0
M  END
> <minimizedAffinity>
-4.32245

$$$$
6F9G_PUT_A_401


 10  9  0  0  0  0  0  0  0  0999 V2000
   51.5646   71.8437   39.6041 C   0  0  0  0  0  0  0  0  0  0  0  0
   53.7490   71.0132   40.2946 N   0  0  0  0  0  0  0  0  0  0  0  0
   52.3554   71.1144   40.6881 C   0  0  0  0  0  0  0  0  0  0  0  0
   54.2730   70.5256   41.0213 H   0  0  0  0  0  0  0  0  0  0  0  0
   54.1350   71.9487   40.1668 H   0  0  0  0  0  0  0  0  0  0  0  0
   51.9340   73.3251   39.5954 C   0  0  0  0  0  0  0  0  0  0  0  0
   52.4583   73.7148   38.2144 C   0  0  0  0  0  0  0  0  0  0  0  0
   53.5080   72.7923   37.8210 N   0  0  0  0  0  0  0  0  0  0  0  0
   54.2684   72.8331   38.4997 H   0  0  0  0  0  0  0  0  0  0  0  0
   53.8604   73.0512   36.8995 H   0  0  0  0  0  0  0  0  0  0  0  0
  2  3  1  0  0  0
  3  1  1  0  0  0
  1  6  1  0  0  0
  6  7  1  0  0  0
  7  8  1  0  0  0
  2  4  1  0  0  0
  2  5  1  0  0  0
  8  9  1  0  0  0
  8 10  1  0  0  0
M  END
> <minimizedAffinity>
-4.03661

$$$$
6F9G_PUT_A_401


 10  9  0  0  0  0  0  0  0  0999 V2000
   51.9640   73.2751   39.5765 C   0  0  0  0  0  0  0  0  0  0  0  0
   53.5783   72.7939   37.8156 N   0  0  0  0  0  0  0  0  0  0  0  0
   52.4424   73.6258   38.1692 C   0  0  0  0  0  0  0  0  0  0  0  0
   53.8943   73.0317   36.8753 H   0  0  0  0  0  0  0  0  0  0  0  0
   53.3027   71.8123   37.8436 H   0  0  0  0  0  0  0  0  0  0  0  0
   51.5818   71.7985   39.6454 C   0  0  0  0  0  0  0  0  0  0  0  0
   52.3995   71.1075   40.7352 C   0  0  0  0  0  0  0  0  0  0  0  0
   53.7813   70.9991   40.3033 N   0  0  0  0  0  0  0  0  0  0  0  0
   53.8268   70.4527   39.4432 H   0  0  0  0  0  0  0  0  0  0  0  0
   54.3291   70.5370   41.0291 H   0  0  0  0  0  0  0  0  0  0  0  0
  2  3  1  0  0  0
  3  1  1  0  0  0
  1  6  1  0  0  0
  6  7  1  0  0  0
  7  8  1  0  0  0
  2  4  1  0  0  0
  2  5  1  0  0  0
  8  9  1  0  0  0
  8 10  1  0  0  0
M  END
> <minimizedAffinity>
-4.03531

$$$$
6F9G_PUT_A_401


 10  9  0  0  0  0  0  0  0  0999 V2000
   52.2855   72.7227   38.7619 C   0  0  0  0  0  0  0  0  0  0  0  0
   52.6624   71.6854   40.9346 N   0  0  0  0  0  0  0  0  0  0  0  0
   51.7682   71.7203   39.7915 C   0  0  0  0  0  0  0  0  0  0  0  0
   52.3130   71.0149   41.6192 H   0  0  0  0  0  0  0  0  0  0  0  0
   52.7082   72.6119   41.3588 H   0  0  0  0  0  0  0  0  0  0  0  0
   51.8220   74.1313   39.1255 C   0  0  0  0  0  0  0  0  0  0  0  0
   52.7187   75.1596   38.4384 C   0  0  0  0  0  0  0  0  0  0  0  0
   52.0918   76.4672   38.5087 N   0  0  0  0  0  0  0  0  0  0  0  0
   51.1863   76.4357   38.0403 H   0  0  0  0  0  0  0  0  0  0  0  0
   52.6884   77.1554   38.0495 H   0  0  0  0  0  0  0  0  0  0  0  0
  2  3  1  0  0  0
  3  1  1  0  0  0
  1  6  1  0  0  0
  6  7  1  0  0  0
  7  8  1  0  0  0
  2  4  1  0  0  0
  2  5  1  0  0  0
  8  9  1  0  0  0
  8 10  1  0  0  0
M  END
> <minimizedAffinity>
-3.71920

$$$$
6F9G_PUT_A_401


 10  9  0  0  0  0  0  0  0  0999 V2000
   51.7409   73.6173   39.2661 C   0  0  0  0  0  0  0  0  0  0  0  0
   53.5163   72.7378   37.8474 N   0  0  0  0  0  0  0  0  0  0  0  0
   52.5018   72.3709   38.8188 C   0  0  0  0  0  0  0  0  0  0  0  0
   54.0217   71.9026   37.5517 H   0  0  0  0  0  0  0  0  0  0  0  0
   54.1687   73.3982   38.2701 H   0  0  0  0  0  0  0  0  0  0  0  0
   52.5311   74.8713   38.9000 C   0  0  0  0  0  0  0  0  0  0  0  0
   51.6016   75.8890   38.2410 C   0  0  0  0  0  0  0  0  0  0  0  0
   52.2179   77.2026   38.2865 N   0  0  0  0  0  0  0  0  0  0  0  0
   52.3819   77.4678   39.2577 H   0  0  0  0  0  0  0  0  0  0  0  0
   51.5985   77.8841   37.8480 H   0  0  0  0  0  0  0  0  0  0  0  0
  2  3  1  0  0  0
  3  1  1  0  0  0
  1  6  1  0  0  0
  6  7  1  0  0  0
  7  8  1  0  0  0
  2  4  1  0  0  0
  2  5  1  0  0  0
  8  9  1  0  0  0
  8 10  1  0  0  0
M  END
> <minimizedAffinity>
-3.42659

$$$$
6F9G_PUT_A_401


 10  9  0  0  0  0  0  0  0  0999 V2000
   57.3679   74.1874   35.0642 C   0  0  0  0  0  0  0  0  0  0  0  0
   55.5872   75.4564   36.1400 N   0  0  0  0  0  0  0  0  0  0  0  0
   56.1915   75.1393   34.8587 C   0  0  0  0  0  0  0  0  0  0  0  0
   54.8024   76.0921   35.9978 H   0  0  0  0  0  0  0  0  0  0  0  0
   56.2803   75.9012   36.7419 H   0  0  0  0  0  0  0  0  0  0  0  0
   56.8581   72.7616   35.2599 C   0  0  0  0  0  0  0  0  0  0  0  0
   56.0534   72.3320   34.0345 C   0  0  0  0  0  0  0  0  0  0  0  0
   55.0857   71.3226   34.4247 N   0  0  0  0  0  0  0  0  0  0  0  0
   55.5739   70.5158   34.8134 H   0  0  0  0  0  0  0  0  0  0  0  0
   54.5478   71.0334   33.6078 H   0  0  0  0  0  0  0  0  0  0  0  0
  2  3  1  0  0  0
  3  1  1  0  0  0
  1  6  1  0  0  0
  6  7  1  0  0  0
  7  8  1  0  0  0
  2  4  1  0  0  0
  2  5  1  0  0  0
  8  9  1  0  0  0
  8 10  1  0  0  0
M  END
> <minimizedAffinity>
-3.28669

$$$$
6F9G_PUT_A_401


 10  9  0  0  0  0  0  0  0  0999 V2000
   56.6308   73.2120   34.0420 C   0  0  0  0  0  0  0  0  0  0  0  0
   55.1238   71.3136   34.2942 N   0  0  0  0  0  0  0  0  0  0  0  0
   55.9865   72.2298   35.0180 C   0  0  0  0  0  0  0  0  0  0  0  0
   54.6959   70.6599   34.9499 H   0  0  0  0  0  0  0  0  0  0  0  0
   55.6753   70.7964   33.6096 H   0  0  0  0  0  0  0  0  0  0  0  0
   57.0863   74.4649   34.7861 C   0  0  0  0  0  0  0  0  0  0  0  0
   55.9766   75.5142   34.7508 C   0  0  0  0  0  0  0  0  0  0  0  0
   55.3513   75.5966   36.0584 N   0  0  0  0  0  0  0  0  0  0  0  0
   54.9561   74.6889   36.3041 H   0  0  0  0  0  0  0  0  0  0  0  0
   54.6091   76.2959   36.0369 H   0  0  0  0  0  0  0  0  0  0  0  0
  2  3  1  0  0  0
  3  1  1  0  0  0
  1  6  1  0  0  0
  6  7  1  0  0  0
  7  8  1  0  0  0
  2  4  1  0  0  0
  2  5  1  0  0  0
  8  9  1  0  0  0
  8 10  1  0  0  0
M  END
> <minimizedAffinity>
-3.24848

$$$$
6F9G_PUT_A_401


 10  9  0  0  0  0  0  0  0  0999 V2000
   57.7070   72.7090   35.5236 C   0  0  0  0  0  0  0  0  0  0  0  0
   56.8252   71.0986   37.1259 N   0  0  0  0  0  0  0  0  0  0  0  0
   57.8009   72.1582   36.9450 C   0  0  0  0  0  0  0  0  0  0  0  0
   56.8916   70.7339   38.0762 H   0  0  0  0  0  0  0  0  0  0  0  0
   57.0106   70.3484   36.4601 H   0  0  0  0  0  0  0  0  0  0  0  0
   56.2502   72.9996   35.1712 C   0  0  0  0  0  0  0  0  0  0  0  0
   55.8600   72.2180   33.9179 C   0  0  0  0  0  0  0  0  0  0  0  0
   54.9892   71.1176   34.2895 N   0  0  0  0  0  0  0  0  0  0  0  0
   55.4782   70.5013   34.9386 H   0  0  0  0  0  0  0  0  0  0  0  0
   54.7282   70.5935   33.4543 H   0  0  0  0  0  0  0  0  0  0  0  0
  2  3  1  0  0  0
  3  1  1  0  0  0
  1  6  1  0  0  0
  6  7  1  0  0  0
  7  8  1  0  0  0
  2  4  1  0  0  0
  2  5  1  0  0  0
  8  9  1  0  0  0
  8 10  1  0  0  0
M  END
> <minimizedAffinity>
-3.23308

$$$$
6F9G_PUT_A_401


 10  9  0  0  0  0  0  0  0  0999 V2000
   52.6014   75.0620   39.1995 C   0  0  0  0  0  0  0  0  0  0  0  0
   52.1951   77.2453   38.1964 N   0  0  0  0  0  0  0  0  0  0  0  0
   51.7552   75.8620   38.2113 C   0  0  0  0  0  0  0  0  0  0  0  0
   51.6274   77.7755   37.5353 H   0  0  0  0  0  0  0  0  0  0  0  0
   53.1743   77.2877   37.9140 H   0  0  0  0  0  0  0  0  0  0  0  0
   51.9793   73.6861   39.4255 C   0  0  0  0  0  0  0  0  0  0  0  0
   52.2273   72.8040   38.2031 C   0  0  0  0  0  0  0  0  0  0  0  0
   53.6474   72.7883   37.9020 N   0  0  0  0  0  0  0  0  0  0  0  0
   53.9644   73.7383   37.7084 H   0  0  0  0  0  0  0  0  0  0  0  0
   53.8153   72.2008   37.0853 H   0  0  0  0  0  0  0  0  0  0  0  0
  2  3  1  0  0  0
  3  1  1  0  0  0
  1  6  1  0  0  0
  6  7  1  0  0  0
  7  8  1  0  0  0
  2  4  1  0  0  0
  2  5  1  0  0  0
  8  9  1  0  0  0
  8 10  1  0  0  0
M  END
> <minimizedAffinity>
-3.18177

$$$$
