3F7G_389_E_1


 38 40  0  0  0  0  0  0  0  0999 V2000
   22.2198   45.5218   -2.8162 C   0  0  0  0  0  0  0  0  0  0  0  0
   23.0087   46.2952   -2.2657 O   0  0  0  0  0  0  0  0  0  0  0  0
   21.3233   44.7976   -2.1295 N   0  0  0  0  0  0  0  0  0  0  0  0
   21.3587   44.8177   -0.6720 C   0  0  0  0  0  0  0  0  0  0  0  0
   20.0917   44.0479   -0.2736 C   0  0  0  0  0  0  0  0  0  0  0  0
   19.7340   43.2317   -1.4496 C   0  0  0  0  0  0  0  0  0  0  0  0
   20.2433   43.9501   -2.6571 C   0  0  0  0  0  0  0  0  0  0  0  0
   22.6334   44.1422   -0.1333 C   0  0  0  0  0  0  0  0  0  0  0  0
   22.7994   42.9325   -0.3033 O   0  0  0  0  0  0  0  0  0  0  0  0
   23.5398   44.8998    0.4896 N   0  0  0  0  0  0  0  0  0  0  0  0
   23.3519   45.8483    0.6746 H   0  0  0  0  0  0  0  0  0  0  0  0
   24.8182   44.3056    0.8957 C   0  0  0  0  0  0  0  0  0  0  0  0
   25.0796   44.3446    2.3959 C   0  0  0  0  0  0  0  0  0  0  0  0
   26.1190   43.3318    2.6914 C   0  0  0  0  0  0  0  0  0  0  0  0
   27.4709   43.6167    2.5136 C   0  0  0  0  0  0  0  0  0  0  0  0
   28.4271   42.6439    2.8012 C   0  0  0  0  0  0  0  0  0  0  0  0
   28.0325   41.3949    3.2632 C   0  0  0  0  0  0  0  0  0  0  0  0
   26.6794   41.1110    3.4360 C   0  0  0  0  0  0  0  0  0  0  0  0
   25.7236   42.0785    3.1495 C   0  0  0  0  0  0  0  0  0  0  0  0
   25.4215   45.6933    2.9374 C   0  0  0  0  0  0  0  0  0  0  0  0
   25.7568   46.7795    2.1263 C   0  0  0  0  0  0  0  0  0  0  0  0
   26.0426   48.0138    2.6926 C   0  0  0  0  0  0  0  0  0  0  0  0
   25.9981   48.1924    4.0668 C   0  0  0  0  0  0  0  0  0  0  0  0
   25.6602   47.1143    4.8789 C   0  0  0  0  0  0  0  0  0  0  0  0
   25.3726   45.8742    4.3187 C   0  0  0  0  0  0  0  0  0  0  0  0
   22.2229   45.3653   -4.3391 C   0  0  0  0  0  0  0  0  0  0  0  0
   22.0727   47.3998   -5.7174 C   0  0  0  0  0  0  0  0  0  0  0  0
   20.9323   47.1572   -6.1022 O   0  0  0  0  0  0  0  0  0  0  0  0
   22.7693   46.5895   -4.9220 N   0  0  0  0  0  0  0  0  0  0  0  0
   23.7019   46.8279   -4.7157 H   0  0  0  0  0  0  0  0  0  0  0  0
   22.4192   48.9588   -7.5996 N   0  0  0  0  0  0  0  0  0  0  0  0
   22.7969   48.6562   -6.1914 C   0  0  0  0  0  0  0  0  0  0  0  0
   22.4864   49.8388   -5.2836 C   0  0  0  0  0  0  0  0  0  0  0  0
   22.9069   49.7994   -7.9093 H   0  0  0  0  0  0  0  0  0  0  0  0
   21.4120   49.1096   -7.6566 H   0  0  0  0  0  0  0  0  0  0  0  0
   23.0495   44.0974   -4.7128 C   0  0  0  0  0  0  0  0  0  0  0  0
   22.4213   43.3517   -5.9010 C   0  0  0  0  0  0  0  0  0  0  0  0
   24.5164   44.4493   -4.9921 C   0  0  0  0  0  0  0  0  0  0  0  0
 31 32  1  0  0  0
 32 33  1  0  0  0
 32 27  1  0  0  0
 27 28  2  0  0  0
 27 29  1  0  0  0
 29 26  1  0  0  0
 26 36  1  0  0  0
 26  1  1  0  0  0
 36 37  1  0  0  0
 36 38  1  0  0  0
  1  2  2  0  0  0
  1  3  1  0  0  0
  3  4  1  0  0  0
  3  7  1  0  0  0
  4  5  1  0  0  0
  4  8  1  0  0  0
  5  6  1  0  0  0
  6  7  1  0  0  0
  8  9  2  0  0  0
  8 10  1  0  0  0
 12 10  1  0  0  0
 12 13  1  0  0  0
 13 14  1  0  0  0
 13 20  1  0  0  0
 14 15  2  0  0  0
 14 19  1  0  0  0
 15 16  1  0  0  0
 16 17  2  0  0  0
 17 18  1  0  0  0
 18 19  2  0  0  0
 20 21  2  0  0  0
 20 25  1  0  0  0
 21 22  1  0  0  0
 22 23  2  0  0  0
 23 24  1  0  0  0
 24 25  2  0  0  0
 31 34  1  0  0  0
 31 35  1  0  0  0
 29 30  1  0  0  0
 10 11  1  0  0  0
M  END
> <minimizedAffinity>
-7.80930

$$$$
3F7G_389_E_1


 38 40  0  0  0  0  0  0  0  0999 V2000
   22.7064   45.3672   -2.4549 C   0  0  0  0  0  0  0  0  0  0  0  0
   23.5043   45.9799   -1.7398 O   0  0  0  0  0  0  0  0  0  0  0  0
   21.5596   44.8567   -1.9816 N   0  0  0  0  0  0  0  0  0  0  0  0
   21.2961   44.9073   -0.5484 C   0  0  0  0  0  0  0  0  0  0  0  0
   19.8451   44.4193   -0.4349 C   0  0  0  0  0  0  0  0  0  0  0  0
   19.5806   43.6614   -1.6729 C   0  0  0  0  0  0  0  0  0  0  0  0
   20.4633   44.2306   -2.7361 C   0  0  0  0  0  0  0  0  0  0  0  0
   22.2681   44.0032    0.2320 C   0  0  0  0  0  0  0  0  0  0  0  0
   22.3952   42.8212   -0.0947 O   0  0  0  0  0  0  0  0  0  0  0  0
   22.9670   44.5384    1.2363 N   0  0  0  0  0  0  0  0  0  0  0  0
   22.7958   45.4647    1.5224 H   0  0  0  0  0  0  0  0  0  0  0  0
   23.9923   43.7333    1.9093 C   0  0  0  0  0  0  0  0  0  0  0  0
   25.4142   44.2486    1.7269 C   0  0  0  0  0  0  0  0  0  0  0  0
   25.5568   45.4622    2.5636 C   0  0  0  0  0  0  0  0  0  0  0  0
   25.4327   45.3979    3.9496 C   0  0  0  0  0  0  0  0  0  0  0  0
   25.5732   46.5568    4.7118 C   0  0  0  0  0  0  0  0  0  0  0  0
   25.8357   47.7710    4.0906 C   0  0  0  0  0  0  0  0  0  0  0  0
   25.9549   47.8334    2.7037 C   0  0  0  0  0  0  0  0  0  0  0  0
   25.8148   46.6800    1.9411 C   0  0  0  0  0  0  0  0  0  0  0  0
   26.4841   43.2409    1.9894 C   0  0  0  0  0  0  0  0  0  0  0  0
   27.7421   43.5764    2.4943 C   0  0  0  0  0  0  0  0  0  0  0  0
   28.6852   42.5877    2.7370 C   0  0  0  0  0  0  0  0  0  0  0  0
   28.3974   41.2546    2.4872 C   0  0  0  0  0  0  0  0  0  0  0  0
   27.1437   40.9148    1.9882 C   0  0  0  0  0  0  0  0  0  0  0  0
   26.1934   41.9002    1.7422 C   0  0  0  0  0  0  0  0  0  0  0  0
   22.9926   45.1735   -3.9464 C   0  0  0  0  0  0  0  0  0  0  0  0
   22.2882   47.0985   -5.3101 C   0  0  0  0  0  0  0  0  0  0  0  0
   21.2289   46.5786   -5.6493 O   0  0  0  0  0  0  0  0  0  0  0  0
   23.1950   46.4910   -4.5465 N   0  0  0  0  0  0  0  0  0  0  0  0
   24.0472   46.9541   -4.3772 H   0  0  0  0  0  0  0  0  0  0  0  0
   22.1447   48.6897   -7.1918 N   0  0  0  0  0  0  0  0  0  0  0  0
   22.6592   48.4919   -5.8086 C   0  0  0  0  0  0  0  0  0  0  0  0
   22.1198   49.5660   -4.8735 C   0  0  0  0  0  0  0  0  0  0  0  0
   22.3964   49.6228   -7.5180 H   0  0  0  0  0  0  0  0  0  0  0  0
   21.1295   48.5910   -7.1943 H   0  0  0  0  0  0  0  0  0  0  0  0
   24.2322   44.2413   -4.1037 C   0  0  0  0  0  0  0  0  0  0  0  0
   24.0241   42.9071   -3.3694 C   0  0  0  0  0  0  0  0  0  0  0  0
   24.5753   44.0131   -5.5815 C   0  0  0  0  0  0  0  0  0  0  0  0
 31 32  1  0  0  0
 32 33  1  0  0  0
 32 27  1  0  0  0
 27 28  2  0  0  0
 27 29  1  0  0  0
 29 26  1  0  0  0
 26 36  1  0  0  0
 26  1  1  0  0  0
 36 37  1  0  0  0
 36 38  1  0  0  0
  1  2  2  0  0  0
  1  3  1  0  0  0
  3  4  1  0  0  0
  3  7  1  0  0  0
  4  5  1  0  0  0
  4  8  1  0  0  0
  5  6  1  0  0  0
  6  7  1  0  0  0
  8  9  2  0  0  0
  8 10  1  0  0  0
 12 10  1  0  0  0
 12 13  1  0  0  0
 13 14  1  0  0  0
 13 20  1  0  0  0
 14 15  2  0  0  0
 14 19  1  0  0  0
 15 16  1  0  0  0
 16 17  2  0  0  0
 17 18  1  0  0  0
 18 19  2  0  0  0
 20 21  2  0  0  0
 20 25  1  0  0  0
 21 22  1  0  0  0
 22 23  2  0  0  0
 23 24  1  0  0  0
 24 25  2  0  0  0
 31 34  1  0  0  0
 31 35  1  0  0  0
 29 30  1  0  0  0
 10 11  1  0  0  0
M  END
> <minimizedAffinity>
-7.72027

$$$$
3F7G_389_E_1


 38 40  0  0  0  0  0  0  0  0999 V2000
   22.4100   45.5036   -3.0843 C   0  0  0  0  0  0  0  0  0  0  0  0
   23.1448   46.3203   -2.5217 O   0  0  0  0  0  0  0  0  0  0  0  0
   21.4810   44.7958   -2.4243 N   0  0  0  0  0  0  0  0  0  0  0  0
   21.4146   44.8897   -0.9708 C   0  0  0  0  0  0  0  0  0  0  0  0
   20.1369   44.1141   -0.6211 C   0  0  0  0  0  0  0  0  0  0  0  0
   19.8764   43.2324   -1.7752 C   0  0  0  0  0  0  0  0  0  0  0  0
   20.4556   43.9001   -2.9803 C   0  0  0  0  0  0  0  0  0  0  0  0
   22.6606   44.2695   -0.3119 C   0  0  0  0  0  0  0  0  0  0  0  0
   22.9149   43.0768   -0.4931 O   0  0  0  0  0  0  0  0  0  0  0  0
   23.4479   45.0562    0.4262 N   0  0  0  0  0  0  0  0  0  0  0  0
   23.1855   45.9865    0.6133 H   0  0  0  0  0  0  0  0  0  0  0  0
   24.7072   44.5214    0.9558 C   0  0  0  0  0  0  0  0  0  0  0  0
   24.7412   44.3825    2.4724 C   0  0  0  0  0  0  0  0  0  0  0  0
   25.2338   45.6653    3.0243 C   0  0  0  0  0  0  0  0  0  0  0  0
   25.5274   46.7412    2.1896 C   0  0  0  0  0  0  0  0  0  0  0  0
   25.9884   47.9372    2.7378 C   0  0  0  0  0  0  0  0  0  0  0  0
   26.1546   48.0550    4.1117 C   0  0  0  0  0  0  0  0  0  0  0  0
   25.8646   46.9758    4.9441 C   0  0  0  0  0  0  0  0  0  0  0  0
   25.4053   45.7819    4.4006 C   0  0  0  0  0  0  0  0  0  0  0  0
   23.4535   43.9478    3.0906 C   0  0  0  0  0  0  0  0  0  0  0  0
   22.5292   44.8404    3.6376 C   0  0  0  0  0  0  0  0  0  0  0  0
   21.3395   44.3723    4.1774 C   0  0  0  0  0  0  0  0  0  0  0  0
   21.0457   43.0173    4.1816 C   0  0  0  0  0  0  0  0  0  0  0  0
   21.9615   42.1244    3.6338 C   0  0  0  0  0  0  0  0  0  0  0  0
   23.1561   42.5860    3.0909 C   0  0  0  0  0  0  0  0  0  0  0  0
   22.5218   45.2710   -4.5934 C   0  0  0  0  0  0  0  0  0  0  0  0
   22.1853   47.3881   -5.8043 C   0  0  0  0  0  0  0  0  0  0  0  0
   20.9809   47.2065   -5.9589 O   0  0  0  0  0  0  0  0  0  0  0  0
   22.9922   46.5093   -5.2118 N   0  0  0  0  0  0  0  0  0  0  0  0
   23.9570   46.7042   -5.1892 H   0  0  0  0  0  0  0  0  0  0  0  0
   22.3352   48.9436   -7.7151 N   0  0  0  0  0  0  0  0  0  0  0  0
   22.8531   48.6462   -6.3512 C   0  0  0  0  0  0  0  0  0  0  0  0
   22.6301   49.8298   -5.4194 C   0  0  0  0  0  0  0  0  0  0  0  0
   22.7859   49.7853   -8.0739 H   0  0  0  0  0  0  0  0  0  0  0  0
   21.3267   49.0903   -7.6714 H   0  0  0  0  0  0  0  0  0  0  0  0
   23.4796   44.0675   -4.8473 C   0  0  0  0  0  0  0  0  0  0  0  0
   23.5765   43.7375   -6.3454 C   0  0  0  0  0  0  0  0  0  0  0  0
   24.8674   44.3214   -4.2446 C   0  0  0  0  0  0  0  0  0  0  0  0
 31 32  1  0  0  0
 32 33  1  0  0  0
 32 27  1  0  0  0
 27 28  2  0  0  0
 27 29  1  0  0  0
 29 26  1  0  0  0
 26 36  1  0  0  0
 26  1  1  0  0  0
 36 37  1  0  0  0
 36 38  1  0  0  0
  1  2  2  0  0  0
  1  3  1  0  0  0
  3  4  1  0  0  0
  3  7  1  0  0  0
  4  5  1  0  0  0
  4  8  1  0  0  0
  5  6  1  0  0  0
  6  7  1  0  0  0
  8  9  2  0  0  0
  8 10  1  0  0  0
 12 10  1  0  0  0
 12 13  1  0  0  0
 13 14  1  0  0  0
 13 20  1  0  0  0
 14 15  2  0  0  0
 14 19  1  0  0  0
 15 16  1  0  0  0
 16 17  2  0  0  0
 17 18  1  0  0  0
 18 19  2  0  0  0
 20 21  2  0  0  0
 20 25  1  0  0  0
 21 22  1  0  0  0
 22 23  2  0  0  0
 23 24  1  0  0  0
 24 25  2  0  0  0
 31 34  1  0  0  0
 31 35  1  0  0  0
 29 30  1  0  0  0
 10 11  1  0  0  0
M  END
> <minimizedAffinity>
-7.70952

$$$$
3F7G_389_E_1


 38 40  0  0  0  0  0  0  0  0999 V2000
   23.4653   44.8013   -2.3295 C   0  0  0  0  0  0  0  0  0  0  0  0
   23.5420   45.9622   -2.7418 O   0  0  0  0  0  0  0  0  0  0  0  0
   24.1039   43.7820   -2.9235 N   0  0  0  0  0  0  0  0  0  0  0  0
   24.8114   44.0189   -4.1762 C   0  0  0  0  0  0  0  0  0  0  0  0
   25.5524   42.6973   -4.4229 C   0  0  0  0  0  0  0  0  0  0  0  0
   24.8333   41.6821   -3.6296 C   0  0  0  0  0  0  0  0  0  0  0  0
   24.2128   42.3880   -2.4676 C   0  0  0  0  0  0  0  0  0  0  0  0
   23.8328   44.3496   -5.3183 C   0  0  0  0  0  0  0  0  0  0  0  0
   22.6856   43.8992   -5.2863 O   0  0  0  0  0  0  0  0  0  0  0  0
   24.2548   45.1403   -6.3084 N   0  0  0  0  0  0  0  0  0  0  0  0
   25.1953   45.4290   -6.3470 H   0  0  0  0  0  0  0  0  0  0  0  0
   23.3042   45.5747   -7.3378 C   0  0  0  0  0  0  0  0  0  0  0  0
   23.3382   47.0689   -7.6325 C   0  0  0  0  0  0  0  0  0  0  0  0
   22.6514   47.2813   -8.9273 C   0  0  0  0  0  0  0  0  0  0  0  0
   21.3039   46.9657   -9.0861 C   0  0  0  0  0  0  0  0  0  0  0  0
   20.6835   47.1776  -10.3164 C   0  0  0  0  0  0  0  0  0  0  0  0
   21.4071   47.7014  -11.3800 C   0  0  0  0  0  0  0  0  0  0  0  0
   22.7560   48.0120  -11.2198 C   0  0  0  0  0  0  0  0  0  0  0  0
   23.3775   47.8014   -9.9947 C   0  0  0  0  0  0  0  0  0  0  0  0
   22.7937   47.9345   -6.5447 C   0  0  0  0  0  0  0  0  0  0  0  0
   21.9674   47.4532   -5.5270 C   0  0  0  0  0  0  0  0  0  0  0  0
   21.5130   48.3072   -4.5320 C   0  0  0  0  0  0  0  0  0  0  0  0
   21.8708   49.6468   -4.5272 C   0  0  0  0  0  0  0  0  0  0  0  0
   22.6976   50.1301   -5.5367 C   0  0  0  0  0  0  0  0  0  0  0  0
   23.1569   49.2803   -6.5374 C   0  0  0  0  0  0  0  0  0  0  0  0
   22.6317   44.4731   -1.0880 C   0  0  0  0  0  0  0  0  0  0  0  0
   24.2511   44.6648    0.7565 C   0  0  0  0  0  0  0  0  0  0  0  0
   24.7363   43.5544    0.5588 O   0  0  0  0  0  0  0  0  0  0  0  0
   23.2302   45.1573    0.0568 N   0  0  0  0  0  0  0  0  0  0  0  0
   22.8588   46.0287    0.3251 H   0  0  0  0  0  0  0  0  0  0  0  0
   23.9063   45.3916    3.0902 N   0  0  0  0  0  0  0  0  0  0  0  0
   24.7722   45.5449    1.8886 C   0  0  0  0  0  0  0  0  0  0  0  0
   26.2194   45.2058    2.2197 C   0  0  0  0  0  0  0  0  0  0  0  0
   24.2607   45.9825    3.8423 H   0  0  0  0  0  0  0  0  0  0  0  0
   23.9125   44.4172    3.3918 H   0  0  0  0  0  0  0  0  0  0  0  0
   21.1556   44.9038   -1.3449 C   0  0  0  0  0  0  0  0  0  0  0  0
   20.5601   44.1630   -2.5529 C   0  0  0  0  0  0  0  0  0  0  0  0
   20.2907   44.7078   -0.0930 C   0  0  0  0  0  0  0  0  0  0  0  0
 31 32  1  0  0  0
 32 33  1  0  0  0
 32 27  1  0  0  0
 27 28  2  0  0  0
 27 29  1  0  0  0
 29 26  1  0  0  0
 26 36  1  0  0  0
 26  1  1  0  0  0
 36 37  1  0  0  0
 36 38  1  0  0  0
  1  2  2  0  0  0
  1  3  1  0  0  0
  3  4  1  0  0  0
  3  7  1  0  0  0
  4  5  1  0  0  0
  4  8  1  0  0  0
  5  6  1  0  0  0
  6  7  1  0  0  0
  8  9  2  0  0  0
  8 10  1  0  0  0
 12 10  1  0  0  0
 12 13  1  0  0  0
 13 14  1  0  0  0
 13 20  1  0  0  0
 14 15  2  0  0  0
 14 19  1  0  0  0
 15 16  1  0  0  0
 16 17  2  0  0  0
 17 18  1  0  0  0
 18 19  2  0  0  0
 20 21  2  0  0  0
 20 25  1  0  0  0
 21 22  1  0  0  0
 22 23  2  0  0  0
 23 24  1  0  0  0
 24 25  2  0  0  0
 31 34  1  0  0  0
 31 35  1  0  0  0
 29 30  1  0  0  0
 10 11  1  0  0  0
M  END
> <minimizedAffinity>
-7.70313

$$$$
3F7G_389_E_1


 38 40  0  0  0  0  0  0  0  0999 V2000
   23.5914   44.4833   -2.1783 C   0  0  0  0  0  0  0  0  0  0  0  0
   23.8934   45.5996   -2.6098 O   0  0  0  0  0  0  0  0  0  0  0  0
   24.1730   43.3582   -2.6206 N   0  0  0  0  0  0  0  0  0  0  0  0
   25.1026   43.4311   -3.7415 C   0  0  0  0  0  0  0  0  0  0  0  0
   25.6856   42.0129   -3.8143 C   0  0  0  0  0  0  0  0  0  0  0  0
   24.7135   41.1454   -3.1219 C   0  0  0  0  0  0  0  0  0  0  0  0
   24.0132   41.9895   -2.1067 C   0  0  0  0  0  0  0  0  0  0  0  0
   24.3799   43.8216   -5.0440 C   0  0  0  0  0  0  0  0  0  0  0  0
   23.6878   42.9864   -5.6300 O   0  0  0  0  0  0  0  0  0  0  0  0
   24.5093   45.0729   -5.4924 N   0  0  0  0  0  0  0  0  0  0  0  0
   25.1232   45.6997   -5.0457 H   0  0  0  0  0  0  0  0  0  0  0  0
   23.7283   45.5049   -6.6567 C   0  0  0  0  0  0  0  0  0  0  0  0
   22.3044   45.9377   -6.3314 C   0  0  0  0  0  0  0  0  0  0  0  0
   22.3516   47.3682   -5.9513 C   0  0  0  0  0  0  0  0  0  0  0  0
   23.1047   48.2821   -6.6849 C   0  0  0  0  0  0  0  0  0  0  0  0
   23.1291   49.6230   -6.3042 C   0  0  0  0  0  0  0  0  0  0  0  0
   22.4051   50.0456   -5.1968 C   0  0  0  0  0  0  0  0  0  0  0  0
   21.6563   49.1286   -4.4620 C   0  0  0  0  0  0  0  0  0  0  0  0
   21.6303   47.7911   -4.8386 C   0  0  0  0  0  0  0  0  0  0  0  0
   21.3049   45.6614   -7.4055 C   0  0  0  0  0  0  0  0  0  0  0  0
   20.4898   46.6489   -7.9628 C   0  0  0  0  0  0  0  0  0  0  0  0
   19.5959   46.3294   -8.9751 C   0  0  0  0  0  0  0  0  0  0  0  0
   19.4973   45.0313   -9.4523 C   0  0  0  0  0  0  0  0  0  0  0  0
   20.3105   44.0447   -8.9033 C   0  0  0  0  0  0  0  0  0  0  0  0
   21.2087   44.3572   -7.8883 C   0  0  0  0  0  0  0  0  0  0  0  0
   22.5279   44.3357   -1.0868 C   0  0  0  0  0  0  0  0  0  0  0  0
   23.8640   44.4341    0.9788 C   0  0  0  0  0  0  0  0  0  0  0  0
   24.2519   43.2731    0.8839 O   0  0  0  0  0  0  0  0  0  0  0  0
   23.0178   45.0001    0.1197 N   0  0  0  0  0  0  0  0  0  0  0  0
   22.7057   45.9148    0.3073 H   0  0  0  0  0  0  0  0  0  0  0  0
   24.5995   44.4414    3.3351 N   0  0  0  0  0  0  0  0  0  0  0  0
   24.3006   45.3005    2.1563 C   0  0  0  0  0  0  0  0  0  0  0  0
   25.5092   46.1506    1.7879 C   0  0  0  0  0  0  0  0  0  0  0  0
   24.8905   45.0272    4.1177 H   0  0  0  0  0  0  0  0  0  0  0  0
   25.3490   43.7907    3.1003 H   0  0  0  0  0  0  0  0  0  0  0  0
   21.1872   44.9385   -1.6061 C   0  0  0  0  0  0  0  0  0  0  0  0
   20.7715   44.3054   -2.9436 C   0  0  0  0  0  0  0  0  0  0  0  0
   20.0730   44.8057   -0.5599 C   0  0  0  0  0  0  0  0  0  0  0  0
 31 32  1  0  0  0
 32 33  1  0  0  0
 32 27  1  0  0  0
 27 28  2  0  0  0
 27 29  1  0  0  0
 29 26  1  0  0  0
 26 36  1  0  0  0
 26  1  1  0  0  0
 36 37  1  0  0  0
 36 38  1  0  0  0
  1  2  2  0  0  0
  1  3  1  0  0  0
  3  4  1  0  0  0
  3  7  1  0  0  0
  4  5  1  0  0  0
  4  8  1  0  0  0
  5  6  1  0  0  0
  6  7  1  0  0  0
  8  9  2  0  0  0
  8 10  1  0  0  0
 12 10  1  0  0  0
 12 13  1  0  0  0
 13 14  1  0  0  0
 13 20  1  0  0  0
 14 15  2  0  0  0
 14 19  1  0  0  0
 15 16  1  0  0  0
 16 17  2  0  0  0
 17 18  1  0  0  0
 18 19  2  0  0  0
 20 21  2  0  0  0
 20 25  1  0  0  0
 21 22  1  0  0  0
 22 23  2  0  0  0
 23 24  1  0  0  0
 24 25  2  0  0  0
 31 34  1  0  0  0
 31 35  1  0  0  0
 29 30  1  0  0  0
 10 11  1  0  0  0
M  END
> <minimizedAffinity>
-7.64413

$$$$
3F7G_389_E_1


 38 40  0  0  0  0  0  0  0  0999 V2000
   22.7412   45.5102   -3.0542 C   0  0  0  0  0  0  0  0  0  0  0  0
   23.5465   46.2149   -2.4390 O   0  0  0  0  0  0  0  0  0  0  0  0
   21.6809   44.9417   -2.4606 N   0  0  0  0  0  0  0  0  0  0  0  0
   21.5353   45.0451   -1.0136 C   0  0  0  0  0  0  0  0  0  0  0  0
   20.1409   44.4586   -0.7525 C   0  0  0  0  0  0  0  0  0  0  0  0
   19.8330   43.6220   -1.9282 C   0  0  0  0  0  0  0  0  0  0  0  0
   20.5770   44.1999   -3.0884 C   0  0  0  0  0  0  0  0  0  0  0  0
   22.6361   44.2549   -0.2819 C   0  0  0  0  0  0  0  0  0  0  0  0
   22.6982   43.0310   -0.4164 O   0  0  0  0  0  0  0  0  0  0  0  0
   23.5121   44.9296    0.4670 N   0  0  0  0  0  0  0  0  0  0  0  0
   23.3987   45.8963    0.6146 H   0  0  0  0  0  0  0  0  0  0  0  0
   24.6451   44.2169    1.0675 C   0  0  0  0  0  0  0  0  0  0  0  0
   24.8144   44.4548    2.5626 C   0  0  0  0  0  0  0  0  0  0  0  0
   23.5526   44.0475    3.2222 C   0  0  0  0  0  0  0  0  0  0  0  0
   23.0773   42.7420    3.1200 C   0  0  0  0  0  0  0  0  0  0  0  0
   21.8868   42.3871    3.7527 C   0  0  0  0  0  0  0  0  0  0  0  0
   21.1773   43.3325    4.4821 C   0  0  0  0  0  0  0  0  0  0  0  0
   21.6526   44.6387    4.5790 C   0  0  0  0  0  0  0  0  0  0  0  0
   22.8387   44.9959    3.9489 C   0  0  0  0  0  0  0  0  0  0  0  0
   26.0147   43.8054    3.1683 C   0  0  0  0  0  0  0  0  0  0  0  0
   26.1706   43.6199    4.5436 C   0  0  0  0  0  0  0  0  0  0  0  0
   27.3017   42.9882    5.0407 C   0  0  0  0  0  0  0  0  0  0  0  0
   28.2924   42.5288    4.1862 C   0  0  0  0  0  0  0  0  0  0  0  0
   28.1396   42.7074    2.8148 C   0  0  0  0  0  0  0  0  0  0  0  0
   27.0087   43.3397    2.3090 C   0  0  0  0  0  0  0  0  0  0  0  0
   22.9157   45.2630   -4.5550 C   0  0  0  0  0  0  0  0  0  0  0  0
   22.3017   47.3017   -5.7912 C   0  0  0  0  0  0  0  0  0  0  0  0
   21.1290   46.9660   -5.9307 O   0  0  0  0  0  0  0  0  0  0  0  0
   23.2191   46.5417   -5.1953 N   0  0  0  0  0  0  0  0  0  0  0  0
   24.1513   46.8581   -5.1854 H   0  0  0  0  0  0  0  0  0  0  0  0
   22.1664   48.8772   -7.6867 N   0  0  0  0  0  0  0  0  0  0  0  0
   22.7990   48.6262   -6.3623 C   0  0  0  0  0  0  0  0  0  0  0  0
   22.5149   49.7737   -5.4025 C   0  0  0  0  0  0  0  0  0  0  0  0
   22.5035   49.7637   -8.0619 H   0  0  0  0  0  0  0  0  0  0  0  0
   21.1531   48.9176   -7.5773 H   0  0  0  0  0  0  0  0  0  0  0  0
   24.0389   44.2021   -4.7628 C   0  0  0  0  0  0  0  0  0  0  0  0
   23.6763   42.8669   -4.0931 C   0  0  0  0  0  0  0  0  0  0  0  0
   24.3550   44.0078   -6.2514 C   0  0  0  0  0  0  0  0  0  0  0  0
 31 32  1  0  0  0
 32 33  1  0  0  0
 32 27  1  0  0  0
 27 28  2  0  0  0
 27 29  1  0  0  0
 29 26  1  0  0  0
 26 36  1  0  0  0
 26  1  1  0  0  0
 36 37  1  0  0  0
 36 38  1  0  0  0
  1  2  2  0  0  0
  1  3  1  0  0  0
  3  4  1  0  0  0
  3  7  1  0  0  0
  4  5  1  0  0  0
  4  8  1  0  0  0
  5  6  1  0  0  0
  6  7  1  0  0  0
  8  9  2  0  0  0
  8 10  1  0  0  0
 12 10  1  0  0  0
 12 13  1  0  0  0
 13 14  1  0  0  0
 13 20  1  0  0  0
 14 15  2  0  0  0
 14 19  1  0  0  0
 15 16  1  0  0  0
 16 17  2  0  0  0
 17 18  1  0  0  0
 18 19  2  0  0  0
 20 21  2  0  0  0
 20 25  1  0  0  0
 21 22  1  0  0  0
 22 23  2  0  0  0
 23 24  1  0  0  0
 24 25  2  0  0  0
 31 34  1  0  0  0
 31 35  1  0  0  0
 29 30  1  0  0  0
 10 11  1  0  0  0
M  END
> <minimizedAffinity>
-6.70415

$$$$
3F7G_389_E_1


 38 40  0  0  0  0  0  0  0  0999 V2000
   23.7863   43.8474   -3.6450 C   0  0  0  0  0  0  0  0  0  0  0  0
   24.0481   45.0433   -3.8028 O   0  0  0  0  0  0  0  0  0  0  0  0
   24.3994   42.8778   -4.3405 N   0  0  0  0  0  0  0  0  0  0  0  0
   25.3151   43.2429   -5.4148 C   0  0  0  0  0  0  0  0  0  0  0  0
   25.9427   41.9018   -5.8199 C   0  0  0  0  0  0  0  0  0  0  0  0
   25.0058   40.8639   -5.3488 C   0  0  0  0  0  0  0  0  0  0  0  0
   24.2887   41.4221   -4.1623 C   0  0  0  0  0  0  0  0  0  0  0  0
   24.5675   43.9039   -6.5876 C   0  0  0  0  0  0  0  0  0  0  0  0
   23.9504   43.2000   -7.3899 O   0  0  0  0  0  0  0  0  0  0  0  0
   24.5931   45.2353   -6.6885 N   0  0  0  0  0  0  0  0  0  0  0  0
   25.1503   45.7692   -6.0772 H   0  0  0  0  0  0  0  0  0  0  0  0
   23.7833   45.8950   -7.7187 C   0  0  0  0  0  0  0  0  0  0  0  0
   22.3447   46.1737   -7.3026 C   0  0  0  0  0  0  0  0  0  0  0  0
   22.3574   47.3794   -6.4427 C   0  0  0  0  0  0  0  0  0  0  0  0
   22.9665   48.5581   -6.8670 C   0  0  0  0  0  0  0  0  0  0  0  0
   22.9618   49.6778   -6.0364 C   0  0  0  0  0  0  0  0  0  0  0  0
   22.3519   49.6175   -4.7900 C   0  0  0  0  0  0  0  0  0  0  0  0
   21.7473   48.4359   -4.3661 C   0  0  0  0  0  0  0  0  0  0  0  0
   21.7508   47.3177   -5.1915 C   0  0  0  0  0  0  0  0  0  0  0  0
   21.3759   46.2848   -8.4332 C   0  0  0  0  0  0  0  0  0  0  0  0
   21.7670   46.5066   -9.7553 C   0  0  0  0  0  0  0  0  0  0  0  0
   20.8163   46.5774  -10.7637 C   0  0  0  0  0  0  0  0  0  0  0  0
   19.4674   46.4271  -10.4804 C   0  0  0  0  0  0  0  0  0  0  0  0
   19.0731   46.2014   -9.1653 C   0  0  0  0  0  0  0  0  0  0  0  0
   20.0200   46.1294   -8.1491 C   0  0  0  0  0  0  0  0  0  0  0  0
   22.7389   43.4121   -2.6167 C   0  0  0  0  0  0  0  0  0  0  0  0
   23.8499   43.7906   -0.4524 C   0  0  0  0  0  0  0  0  0  0  0  0
   24.4894   42.7437   -0.5015 O   0  0  0  0  0  0  0  0  0  0  0  0
   22.9722   44.1614   -1.3834 N   0  0  0  0  0  0  0  0  0  0  0  0
   22.4529   44.9841   -1.2327 H   0  0  0  0  0  0  0  0  0  0  0  0
   22.8325   44.5472    1.6655 N   0  0  0  0  0  0  0  0  0  0  0  0
   23.9894   44.7254    0.7452 C   0  0  0  0  0  0  0  0  0  0  0  0
   25.3029   44.4815    1.4761 C   0  0  0  0  0  0  0  0  0  0  0  0
   22.9327   45.1750    2.4632 H   0  0  0  0  0  0  0  0  0  0  0  0
   22.8049   43.5819    1.9940 H   0  0  0  0  0  0  0  0  0  0  0  0
   21.3186   43.6553   -3.2115 C   0  0  0  0  0  0  0  0  0  0  0  0
   20.6994   44.9521   -2.6661 C   0  0  0  0  0  0  0  0  0  0  0  0
   21.3484   43.6576   -4.7454 C   0  0  0  0  0  0  0  0  0  0  0  0
 31 32  1  0  0  0
 32 33  1  0  0  0
 32 27  1  0  0  0
 27 28  2  0  0  0
 27 29  1  0  0  0
 29 26  1  0  0  0
 26 36  1  0  0  0
 26  1  1  0  0  0
 36 37  1  0  0  0
 36 38  1  0  0  0
  1  2  2  0  0  0
  1  3  1  0  0  0
  3  4  1  0  0  0
  3  7  1  0  0  0
  4  5  1  0  0  0
  4  8  1  0  0  0
  5  6  1  0  0  0
  6  7  1  0  0  0
  8  9  2  0  0  0
  8 10  1  0  0  0
 12 10  1  0  0  0
 12 13  1  0  0  0
 13 14  1  0  0  0
 13 20  1  0  0  0
 14 15  2  0  0  0
 14 19  1  0  0  0
 15 16  1  0  0  0
 16 17  2  0  0  0
 17 18  1  0  0  0
 18 19  2  0  0  0
 20 21  2  0  0  0
 20 25  1  0  0  0
 21 22  1  0  0  0
 22 23  2  0  0  0
 23 24  1  0  0  0
 24 25  2  0  0  0
 31 34  1  0  0  0
 31 35  1  0  0  0
 29 30  1  0  0  0
 10 11  1  0  0  0
M  END
> <minimizedAffinity>
-6.66008

$$$$
3F7G_389_E_1


 38 40  0  0  0  0  0  0  0  0999 V2000
   22.8407   44.2576    3.8382 C   0  0  0  0  0  0  0  0  0  0  0  0
   22.0076   44.8365    3.1351 O   0  0  0  0  0  0  0  0  0  0  0  0
   24.1569   44.4981    3.7415 N   0  0  0  0  0  0  0  0  0  0  0  0
   24.6441   45.3757    2.6839 C   0  0  0  0  0  0  0  0  0  0  0  0
   26.1313   45.5501    3.0217 C   0  0  0  0  0  0  0  0  0  0  0  0
   26.4833   44.4024    3.8796 C   0  0  0  0  0  0  0  0  0  0  0  0
   25.2393   43.9903    4.5980 C   0  0  0  0  0  0  0  0  0  0  0  0
   24.4419   44.7438    1.2942 C   0  0  0  0  0  0  0  0  0  0  0  0
   25.0045   43.6813    1.0210 O   0  0  0  0  0  0  0  0  0  0  0  0
   23.6376   45.3619    0.4255 N   0  0  0  0  0  0  0  0  0  0  0  0
   23.2568   46.2436    0.6418 H   0  0  0  0  0  0  0  0  0  0  0  0
   23.3266   44.7148   -0.8539 C   0  0  0  0  0  0  0  0  0  0  0  0
   22.0871   45.2632   -1.5492 C   0  0  0  0  0  0  0  0  0  0  0  0
   22.3919   45.3499   -2.9958 C   0  0  0  0  0  0  0  0  0  0  0  0
   21.5433   46.0258   -3.8696 C   0  0  0  0  0  0  0  0  0  0  0  0
   21.8567   46.0921   -5.2264 C   0  0  0  0  0  0  0  0  0  0  0  0
   23.0110   45.4857   -5.7048 C   0  0  0  0  0  0  0  0  0  0  0  0
   23.8558   44.8063   -4.8294 C   0  0  0  0  0  0  0  0  0  0  0  0
   23.5460   44.7380   -3.4763 C   0  0  0  0  0  0  0  0  0  0  0  0
   20.8283   44.5099   -1.2715 C   0  0  0  0  0  0  0  0  0  0  0  0
   20.5511   43.2565   -1.8215 C   0  0  0  0  0  0  0  0  0  0  0  0
   19.3708   42.5990   -1.5047 C   0  0  0  0  0  0  0  0  0  0  0  0
   18.4502   43.1691   -0.6386 C   0  0  0  0  0  0  0  0  0  0  0  0
   18.7239   44.4157   -0.0847 C   0  0  0  0  0  0  0  0  0  0  0  0
   19.9047   45.0809   -0.3975 C   0  0  0  0  0  0  0  0  0  0  0  0
   22.3945   43.2300    4.8817 C   0  0  0  0  0  0  0  0  0  0  0  0
   21.4686   44.6525    6.6651 C   0  0  0  0  0  0  0  0  0  0  0  0
   22.5714   44.9637    7.1061 O   0  0  0  0  0  0  0  0  0  0  0  0
   21.2933   43.8087    5.6494 N   0  0  0  0  0  0  0  0  0  0  0  0
   20.3729   43.5615    5.4026 H   0  0  0  0  0  0  0  0  0  0  0  0
   20.5450   46.2027    8.3495 N   0  0  0  0  0  0  0  0  0  0  0  0
   20.1971   45.1893    7.3155 C   0  0  0  0  0  0  0  0  0  0  0  0
   19.2608   45.7831    6.2716 C   0  0  0  0  0  0  0  0  0  0  0  0
   19.6905   46.5568    8.7795 H   0  0  0  0  0  0  0  0  0  0  0  0
   21.0508   46.9736    7.9134 H   0  0  0  0  0  0  0  0  0  0  0  0
   21.9944   41.9123    4.1511 C   0  0  0  0  0  0  0  0  0  0  0  0
   20.5300   41.9543    3.6861 C   0  0  0  0  0  0  0  0  0  0  0  0
   22.9396   41.6139    2.9800 C   0  0  0  0  0  0  0  0  0  0  0  0
 31 32  1  0  0  0
 32 33  1  0  0  0
 32 27  1  0  0  0
 27 28  2  0  0  0
 27 29  1  0  0  0
 29 26  1  0  0  0
 26 36  1  0  0  0
 26  1  1  0  0  0
 36 37  1  0  0  0
 36 38  1  0  0  0
  1  2  2  0  0  0
  1  3  1  0  0  0
  3  4  1  0  0  0
  3  7  1  0  0  0
  4  5  1  0  0  0
  4  8  1  0  0  0
  5  6  1  0  0  0
  6  7  1  0  0  0
  8  9  2  0  0  0
  8 10  1  0  0  0
 12 10  1  0  0  0
 12 13  1  0  0  0
 13 14  1  0  0  0
 13 20  1  0  0  0
 14 15  2  0  0  0
 14 19  1  0  0  0
 15 16  1  0  0  0
 16 17  2  0  0  0
 17 18  1  0  0  0
 18 19  2  0  0  0
 20 21  2  0  0  0
 20 25  1  0  0  0
 21 22  1  0  0  0
 22 23  2  0  0  0
 23 24  1  0  0  0
 24 25  2  0  0  0
 31 34  1  0  0  0
 31 35  1  0  0  0
 29 30  1  0  0  0
 10 11  1  0  0  0
M  END
> <minimizedAffinity>
-6.46932

$$$$
3F7G_389_E_1


 38 40  0  0  0  0  0  0  0  0999 V2000
   22.0143   44.4656   -6.0754 C   0  0  0  0  0  0  0  0  0  0  0  0
   21.4109   44.0471   -5.0832 O   0  0  0  0  0  0  0  0  0  0  0  0
   23.2219   44.0030   -6.4325 N   0  0  0  0  0  0  0  0  0  0  0  0
   23.9136   43.0671   -5.5542 C   0  0  0  0  0  0  0  0  0  0  0  0
   25.1321   42.6351   -6.3818 C   0  0  0  0  0  0  0  0  0  0  0  0
   25.3263   43.6949   -7.3898 C   0  0  0  0  0  0  0  0  0  0  0  0
   23.9879   44.3067   -7.6506 C   0  0  0  0  0  0  0  0  0  0  0  0
   24.3274   43.7406   -4.2326 C   0  0  0  0  0  0  0  0  0  0  0  0
   25.4064   44.3330   -4.1632 O   0  0  0  0  0  0  0  0  0  0  0  0
   23.4861   43.6798   -3.1972 N   0  0  0  0  0  0  0  0  0  0  0  0
   22.6638   43.1416   -3.2562 H   0  0  0  0  0  0  0  0  0  0  0  0
   23.7984   44.4225   -1.9712 C   0  0  0  0  0  0  0  0  0  0  0  0
   23.3328   43.7424   -0.6901 C   0  0  0  0  0  0  0  0  0  0  0  0
   24.2942   44.1018    0.3775 C   0  0  0  0  0  0  0  0  0  0  0  0
   24.4569   45.4248    0.7822 C   0  0  0  0  0  0  0  0  0  0  0  0
   25.3686   45.7332    1.7907 C   0  0  0  0  0  0  0  0  0  0  0  0
   26.1123   44.7243    2.3894 C   0  0  0  0  0  0  0  0  0  0  0  0
   25.9509   43.4023    1.9795 C   0  0  0  0  0  0  0  0  0  0  0  0
   25.0432   43.0917    0.9740 C   0  0  0  0  0  0  0  0  0  0  0  0
   21.9177   44.0270   -0.3084 C   0  0  0  0  0  0  0  0  0  0  0  0
   21.0511   44.7851   -1.0986 C   0  0  0  0  0  0  0  0  0  0  0  0
   19.7395   44.9939   -0.6964 C   0  0  0  0  0  0  0  0  0  0  0  0
   19.2655   44.4545    0.4897 C   0  0  0  0  0  0  0  0  0  0  0  0
   20.1239   43.6947    1.2784 C   0  0  0  0  0  0  0  0  0  0  0  0
   21.4399   43.4812    0.8820 C   0  0  0  0  0  0  0  0  0  0  0  0
   21.3888   45.5424   -6.9661 C   0  0  0  0  0  0  0  0  0  0  0  0
   22.0400   47.5483   -5.6957 C   0  0  0  0  0  0  0  0  0  0  0  0
   21.2468   47.3320   -4.7838 O   0  0  0  0  0  0  0  0  0  0  0  0
   22.1418   46.7815   -6.7802 N   0  0  0  0  0  0  0  0  0  0  0  0
   22.7570   47.0645   -7.4948 H   0  0  0  0  0  0  0  0  0  0  0  0
   23.4519   49.0736   -7.0273 N   0  0  0  0  0  0  0  0  0  0  0  0
   22.9408   48.7791   -5.6601 C   0  0  0  0  0  0  0  0  0  0  0  0
   22.1983   49.9808   -5.0912 C   0  0  0  0  0  0  0  0  0  0  0  0
   24.0529   49.8971   -6.9955 H   0  0  0  0  0  0  0  0  0  0  0  0
   22.6662   49.2500   -7.6533 H   0  0  0  0  0  0  0  0  0  0  0  0
   21.4018   45.0435   -8.4430 C   0  0  0  0  0  0  0  0  0  0  0  0
   20.3089   43.9904   -8.6862 C   0  0  0  0  0  0  0  0  0  0  0  0
   21.2745   46.2124   -9.4284 C   0  0  0  0  0  0  0  0  0  0  0  0
 31 32  1  0  0  0
 32 33  1  0  0  0
 32 27  1  0  0  0
 27 28  2  0  0  0
 27 29  1  0  0  0
 29 26  1  0  0  0
 26 36  1  0  0  0
 26  1  1  0  0  0
 36 37  1  0  0  0
 36 38  1  0  0  0
  1  2  2  0  0  0
  1  3  1  0  0  0
  3  4  1  0  0  0
  3  7  1  0  0  0
  4  5  1  0  0  0
  4  8  1  0  0  0
  5  6  1  0  0  0
  6  7  1  0  0  0
  8  9  2  0  0  0
  8 10  1  0  0  0
 12 10  1  0  0  0
 12 13  1  0  0  0
 13 14  1  0  0  0
 13 20  1  0  0  0
 14 15  2  0  0  0
 14 19  1  0  0  0
 15 16  1  0  0  0
 16 17  2  0  0  0
 17 18  1  0  0  0
 18 19  2  0  0  0
 20 21  2  0  0  0
 20 25  1  0  0  0
 21 22  1  0  0  0
 22 23  2  0  0  0
 23 24  1  0  0  0
 24 25  2  0  0  0
 31 34  1  0  0  0
 31 35  1  0  0  0
 29 30  1  0  0  0
 10 11  1  0  0  0
M  END
> <minimizedAffinity>
-6.28898

$$$$
3F7G_389_E_1


 38 40  0  0  0  0  0  0  0  0999 V2000
   22.2692   45.6958   -3.1963 C   0  0  0  0  0  0  0  0  0  0  0  0
   22.9806   46.6157   -2.7824 O   0  0  0  0  0  0  0  0  0  0  0  0
   21.5237   44.9376   -2.3783 N   0  0  0  0  0  0  0  0  0  0  0  0
   21.6491   45.1112   -0.9360 C   0  0  0  0  0  0  0  0  0  0  0  0
   20.5250   44.2312   -0.3717 C   0  0  0  0  0  0  0  0  0  0  0  0
   20.2058   43.2600   -1.4355 C   0  0  0  0  0  0  0  0  0  0  0  0
   20.5360   43.9098   -2.7402 C   0  0  0  0  0  0  0  0  0  0  0  0
   23.0348   44.6624   -0.4362 C   0  0  0  0  0  0  0  0  0  0  0  0
   23.8973   45.5088   -0.1922 O   0  0  0  0  0  0  0  0  0  0  0  0
   23.2550   43.3570   -0.2600 N   0  0  0  0  0  0  0  0  0  0  0  0
   22.5750   42.6978   -0.5286 H   0  0  0  0  0  0  0  0  0  0  0  0
   24.5197   42.9145    0.3375 C   0  0  0  0  0  0  0  0  0  0  0  0
   24.4529   42.6731    1.8401 C   0  0  0  0  0  0  0  0  0  0  0  0
   25.4224   41.6004    2.1605 C   0  0  0  0  0  0  0  0  0  0  0  0
   25.4720   41.0331    3.4318 C   0  0  0  0  0  0  0  0  0  0  0  0
   26.3944   40.0238    3.7041 C   0  0  0  0  0  0  0  0  0  0  0  0
   27.2610   39.5862    2.7108 C   0  0  0  0  0  0  0  0  0  0  0  0
   27.2124   40.1585    1.4413 C   0  0  0  0  0  0  0  0  0  0  0  0
   26.2943   41.1652    1.1668 C   0  0  0  0  0  0  0  0  0  0  0  0
   24.6471   43.8924    2.6797 C   0  0  0  0  0  0  0  0  0  0  0  0
   23.7131   44.3275    3.6222 C   0  0  0  0  0  0  0  0  0  0  0  0
   23.9651   45.4578    4.3868 C   0  0  0  0  0  0  0  0  0  0  0  0
   25.1439   46.1715    4.2329 C   0  0  0  0  0  0  0  0  0  0  0  0
   26.0796   45.7393    3.2982 C   0  0  0  0  0  0  0  0  0  0  0  0
   25.8341   44.6074    2.5281 C   0  0  0  0  0  0  0  0  0  0  0  0
   22.1961   45.3858   -4.6937 C   0  0  0  0  0  0  0  0  0  0  0  0
   22.0420   47.3196   -6.2097 C   0  0  0  0  0  0  0  0  0  0  0  0
   20.8551   47.1339   -6.4632 O   0  0  0  0  0  0  0  0  0  0  0  0
   22.7603   46.5207   -5.4222 N   0  0  0  0  0  0  0  0  0  0  0  0
   23.7227   46.7044   -5.3256 H   0  0  0  0  0  0  0  0  0  0  0  0
   22.1570   48.8497   -8.1433 N   0  0  0  0  0  0  0  0  0  0  0  0
   22.7959   48.4814   -6.8498 C   0  0  0  0  0  0  0  0  0  0  0  0
   22.8462   49.6802   -5.9121 C   0  0  0  0  0  0  0  0  0  0  0  0
   22.6661   49.6265   -8.5650 H   0  0  0  0  0  0  0  0  0  0  0  0
   21.1895   49.1273   -7.9778 H   0  0  0  0  0  0  0  0  0  0  0  0
   22.9564   44.0531   -4.9692 C   0  0  0  0  0  0  0  0  0  0  0  0
   22.3325   43.2876   -6.1471 C   0  0  0  0  0  0  0  0  0  0  0  0
   24.4528   44.3011   -5.1996 C   0  0  0  0  0  0  0  0  0  0  0  0
 31 32  1  0  0  0
 32 33  1  0  0  0
 32 27  1  0  0  0
 27 28  2  0  0  0
 27 29  1  0  0  0
 29 26  1  0  0  0
 26 36  1  0  0  0
 26  1  1  0  0  0
 36 37  1  0  0  0
 36 38  1  0  0  0
  1  2  2  0  0  0
  1  3  1  0  0  0
  3  4  1  0  0  0
  3  7  1  0  0  0
  4  5  1  0  0  0
  4  8  1  0  0  0
  5  6  1  0  0  0
  6  7  1  0  0  0
  8  9  2  0  0  0
  8 10  1  0  0  0
 12 10  1  0  0  0
 12 13  1  0  0  0
 13 14  1  0  0  0
 13 20  1  0  0  0
 14 15  2  0  0  0
 14 19  1  0  0  0
 15 16  1  0  0  0
 16 17  2  0  0  0
 17 18  1  0  0  0
 18 19  2  0  0  0
 20 21  2  0  0  0
 20 25  1  0  0  0
 21 22  1  0  0  0
 22 23  2  0  0  0
 23 24  1  0  0  0
 24 25  2  0  0  0
 31 34  1  0  0  0
 31 35  1  0  0  0
 29 30  1  0  0  0
 10 11  1  0  0  0
M  END
> <minimizedAffinity>
-6.22640

$$$$
