2Y80_439_A_1245


 34 38  0  0  0  0  0  0  0  0999 V2000
    7.9331    6.2671   21.8273 O   0  0  0  0  0  0  0  0  0  0  0  0
    6.7821    6.1230   21.4740 C   0  0  0  0  0  0  0  0  0  0  0  0
    6.3756    5.3032   20.4799 N   0  0  0  0  0  0  0  0  0  0  0  0
    5.5746    6.7886   22.0959 C   0  0  0  0  0  0  0  0  0  0  0  0
    4.4958    6.6283   21.0022 C   0  0  0  0  0  0  0  0  0  0  0  0
    4.9259    5.3633   20.2422 C   0  0  0  0  0  0  0  0  0  0  0  0
    7.1959    4.4258   19.7578 C   0  0  0  0  0  0  0  0  0  0  0  0
    7.1747    3.0775   20.0980 C   0  0  0  0  0  0  0  0  0  0  0  0
    8.0250    4.8621   18.7208 C   0  0  0  0  0  0  0  0  0  0  0  0
    8.8194    3.9464   18.0458 C   0  0  0  0  0  0  0  0  0  0  0  0
    8.7899    2.5863   18.3871 C   0  0  0  0  0  0  0  0  0  0  0  0
    7.9664    2.1676   19.4202 C   0  0  0  0  0  0  0  0  0  0  0  0
    8.1051    0.6750   19.6225 C   0  0  0  0  0  0  0  0  0  0  0  0
    9.4266    0.3206   18.9113 C   0  0  0  0  0  0  0  0  0  0  0  0
    9.5505    1.3949   17.8101 C   0  0  0  0  0  0  0  0  0  0  0  0
    9.1436    0.9590   16.4523 N   0  0  0  0  0  0  0  0  0  0  0  0
    7.8048    1.5118   16.1831 C   0  0  0  0  0  0  0  0  0  0  0  0
    9.0357   -0.5153   16.3507 C   0  0  0  0  0  0  0  0  0  0  0  0
    5.8356    8.1872   22.4319 N   0  0  0  0  0  0  0  0  0  0  0  0
    5.0389    8.7124   22.0715 H   0  0  0  0  0  0  0  0  0  0  0  0
    6.0681    8.7206   23.9374 S   0  0  0  0  0  0  0  0  0  0  0  0
    5.7336   10.0900   23.7877 O   0  0  0  0  0  0  0  0  0  0  0  0
    5.3763    7.8937   24.8640 O   0  0  0  0  0  0  0  0  0  0  0  0
    7.7951    8.5897   24.3140 C   0  0  0  0  0  0  0  0  0  0  0  0
    8.1958    7.8862   25.4213 C   0  0  0  0  0  0  0  0  0  0  0  0
    9.5801    7.7683   25.7161 C   0  0  0  0  0  0  0  0  0  0  0  0
   10.5160    8.3873   24.8346 C   0  0  0  0  0  0  0  0  0  0  0  0
   10.0625    9.0880   23.6971 C   0  0  0  0  0  0  0  0  0  0  0  0
    8.7207    9.1916   23.4548 C   0  0  0  0  0  0  0  0  0  0  0  0
   10.0485    7.0616   26.8475 C   0  0  0  0  0  0  0  0  0  0  0  0
   11.3962    6.9735   27.0805 C   0  0  0  0  0  0  0  0  0  0  0  0
   12.2996    7.5799   26.2128 C   0  0  0  0  0  0  0  0  0  0  0  0
   14.0155    7.4692   26.4965 Cl  0  0  0  0  0  0  0  0  0  0  0  0
   11.8912    8.2670   25.1108 C   0  0  0  0  0  0  0  0  0  0  0  0
  1  2  2  0  0  0
  2  3  1  0  0  0
  2  4  1  0  0  0
  3  7  1  0  0  0
  3  6  1  0  0  0
  7  8  1  0  0  0
  7  9  2  0  0  0
  8 12  2  0  0  0
  9 10  1  0  0  0
 10 11  2  0  0  0
 11 12  1  0  0  0
 11 15  1  0  0  0
 12 13  1  0  0  0
 13 14  1  0  0  0
 14 15  1  0  0  0
 15 16  1  0  0  0
 16 17  1  0  0  0
 16 18  1  0  0  0
  4  5  1  0  0  0
  4 19  1  0  0  0
  5  6  1  0  0  0
 19 21  1  0  0  0
 21 22  2  0  0  0
 21 23  2  0  0  0
 21 24  1  0  0  0
 24 25  1  0  0  0
 24 29  2  0  0  0
 25 26  2  0  0  0
 26 27  1  0  0  0
 26 30  1  0  0  0
 27 28  2  0  0  0
 27 34  1  0  0  0
 28 29  1  0  0  0
 30 31  2  0  0  0
 31 32  1  0  0  0
 32 33  1  0  0  0
 32 34  2  0  0  0
 19 20  1  0  0  0
M  END
> <minimizedAffinity>
-10.83517

$$$$
2Y80_439_A_1245


 34 38  0  0  0  0  0  0  0  0999 V2000
    7.9846    7.0638   20.3463 O   0  0  0  0  0  0  0  0  0  0  0  0
    6.8056    6.7959   20.2535 C   0  0  0  0  0  0  0  0  0  0  0  0
    6.3086    5.6941   19.6499 N   0  0  0  0  0  0  0  0  0  0  0  0
    5.6651    7.6072   20.8269 C   0  0  0  0  0  0  0  0  0  0  0  0
    4.4451    7.0874   20.0351 C   0  0  0  0  0  0  0  0  0  0  0  0
    4.8389    5.6521   19.6507 C   0  0  0  0  0  0  0  0  0  0  0  0
    7.0665    4.6441   19.1141 C   0  0  0  0  0  0  0  0  0  0  0  0
    6.9953    3.4007   19.7329 C   0  0  0  0  0  0  0  0  0  0  0  0
    7.8825    4.8097   17.9915 C   0  0  0  0  0  0  0  0  0  0  0  0
    8.6142    3.7335   17.5104 C   0  0  0  0  0  0  0  0  0  0  0  0
    8.5343    2.4792   18.1330 C   0  0  0  0  0  0  0  0  0  0  0  0
    7.7246    2.3297   19.2478 C   0  0  0  0  0  0  0  0  0  0  0  0
    7.8025    0.9084   19.7594 C   0  0  0  0  0  0  0  0  0  0  0  0
    9.0847    0.3461   19.1130 C   0  0  0  0  0  0  0  0  0  0  0  0
    9.2230    1.1563   17.8067 C   0  0  0  0  0  0  0  0  0  0  0  0
    8.7559    0.4647   16.5808 N   0  0  0  0  0  0  0  0  0  0  0  0
    7.2872    0.3715   16.6470 C   0  0  0  0  0  0  0  0  0  0  0  0
    9.2776   -0.9191   16.4902 C   0  0  0  0  0  0  0  0  0  0  0  0
    5.8785    9.0435   20.6578 N   0  0  0  0  0  0  0  0  0  0  0  0
    5.1233    9.3669   20.0532 H   0  0  0  0  0  0  0  0  0  0  0  0
    5.9399   10.0925   21.8829 S   0  0  0  0  0  0  0  0  0  0  0  0
    6.6130   11.1782   21.2684 O   0  0  0  0  0  0  0  0  0  0  0  0
    4.6481   10.2584   22.4528 O   0  0  0  0  0  0  0  0  0  0  0  0
    6.9809    9.4130   23.1462 C   0  0  0  0  0  0  0  0  0  0  0  0
    8.3440    9.4626   23.0004 C   0  0  0  0  0  0  0  0  0  0  0  0
    9.1795    8.9316   24.0188 C   0  0  0  0  0  0  0  0  0  0  0  0
    8.5633    8.3655   25.1745 C   0  0  0  0  0  0  0  0  0  0  0  0
    7.1574    8.3493   25.2927 C   0  0  0  0  0  0  0  0  0  0  0  0
    6.3863    8.8575   24.2842 C   0  0  0  0  0  0  0  0  0  0  0  0
   10.5896    8.9495   23.9172 C   0  0  0  0  0  0  0  0  0  0  0  0
   11.3480    8.4291   24.9333 C   0  0  0  0  0  0  0  0  0  0  0  0
   10.7359    7.8812   26.0564 C   0  0  0  0  0  0  0  0  0  0  0  0
   11.6909    7.2221   27.3567 Cl  0  0  0  0  0  0  0  0  0  0  0  0
    9.3820    7.8467   26.1955 C   0  0  0  0  0  0  0  0  0  0  0  0
  1  2  2  0  0  0
  2  3  1  0  0  0
  2  4  1  0  0  0
  3  7  1  0  0  0
  3  6  1  0  0  0
  7  8  1  0  0  0
  7  9  2  0  0  0
  8 12  2  0  0  0
  9 10  1  0  0  0
 10 11  2  0  0  0
 11 12  1  0  0  0
 11 15  1  0  0  0
 12 13  1  0  0  0
 13 14  1  0  0  0
 14 15  1  0  0  0
 15 16  1  0  0  0
 16 17  1  0  0  0
 16 18  1  0  0  0
  4  5  1  0  0  0
  4 19  1  0  0  0
  5  6  1  0  0  0
 19 21  1  0  0  0
 21 22  2  0  0  0
 21 23  2  0  0  0
 21 24  1  0  0  0
 24 25  1  0  0  0
 24 29  2  0  0  0
 25 26  2  0  0  0
 26 27  1  0  0  0
 26 30  1  0  0  0
 27 28  2  0  0  0
 27 34  1  0  0  0
 28 29  1  0  0  0
 30 31  2  0  0  0
 31 32  1  0  0  0
 32 33  1  0  0  0
 32 34  2  0  0  0
 19 20  1  0  0  0
M  END
> <minimizedAffinity>
-9.94975

$$$$
2Y80_439_A_1245


 34 38  0  0  0  0  0  0  0  0999 V2000
    7.1266    5.9630   21.0584 O   0  0  0  0  0  0  0  0  0  0  0  0
    6.4246    6.6188   20.3185 C   0  0  0  0  0  0  0  0  0  0  0  0
    6.1848    6.3275   19.0212 N   0  0  0  0  0  0  0  0  0  0  0  0
    5.6464    7.8575   20.7030 C   0  0  0  0  0  0  0  0  0  0  0  0
    5.3441    8.5084   19.3353 C   0  0  0  0  0  0  0  0  0  0  0  0
    5.3301    7.3227   18.3572 C   0  0  0  0  0  0  0  0  0  0  0  0
    6.6302    5.1836   18.3450 C   0  0  0  0  0  0  0  0  0  0  0  0
    7.9230    4.7355   18.5940 C   0  0  0  0  0  0  0  0  0  0  0  0
    5.8232    4.4909   17.4381 C   0  0  0  0  0  0  0  0  0  0  0  0
    6.3223    3.3675   16.7947 C   0  0  0  0  0  0  0  0  0  0  0  0
    7.6242    2.9145   17.0538 C   0  0  0  0  0  0  0  0  0  0  0  0
    8.4152    3.6130   17.9521 C   0  0  0  0  0  0  0  0  0  0  0  0
    9.7745    2.9590   18.0650 C   0  0  0  0  0  0  0  0  0  0  0  0
    9.8692    2.0702   16.8084 C   0  0  0  0  0  0  0  0  0  0  0  0
    8.3987    1.7255   16.4907 C   0  0  0  0  0  0  0  0  0  0  0  0
    7.9515    0.3853   16.9414 N   0  0  0  0  0  0  0  0  0  0  0  0
    9.1051   -0.5271   16.8578 C   0  0  0  0  0  0  0  0  0  0  0  0
    6.8914   -0.1699   16.0677 C   0  0  0  0  0  0  0  0  0  0  0  0
    6.4150    8.7316   21.5876 N   0  0  0  0  0  0  0  0  0  0  0  0
    6.1395    9.6833   21.3450 H   0  0  0  0  0  0  0  0  0  0  0  0
    6.3559    8.6547   23.1987 S   0  0  0  0  0  0  0  0  0  0  0  0
    5.8591    9.9460   23.5073 O   0  0  0  0  0  0  0  0  0  0  0  0
    5.6616    7.4842   23.6096 O   0  0  0  0  0  0  0  0  0  0  0  0
    8.0135    8.5164   23.8108 C   0  0  0  0  0  0  0  0  0  0  0  0
    8.2426    7.8960   25.0125 C   0  0  0  0  0  0  0  0  0  0  0  0
    9.5717    7.7714   25.4971 C   0  0  0  0  0  0  0  0  0  0  0  0
   10.6347    8.2961   24.7029 C   0  0  0  0  0  0  0  0  0  0  0  0
   10.3573    8.9124   23.4645 C   0  0  0  0  0  0  0  0  0  0  0  0
    9.0628    9.0260   23.0384 C   0  0  0  0  0  0  0  0  0  0  0  0
    9.8646    7.1483   26.7320 C   0  0  0  0  0  0  0  0  0  0  0  0
   11.1666    7.0495   27.1483 C   0  0  0  0  0  0  0  0  0  0  0  0
   12.1952    7.5633   26.3644 C   0  0  0  0  0  0  0  0  0  0  0  0
   13.8547    7.4378   26.8816 Cl  0  0  0  0  0  0  0  0  0  0  0  0
   11.9573    8.1680   25.1680 C   0  0  0  0  0  0  0  0  0  0  0  0
  1  2  2  0  0  0
  2  3  1  0  0  0
  2  4  1  0  0  0
  3  7  1  0  0  0
  3  6  1  0  0  0
  7  8  1  0  0  0
  7  9  2  0  0  0
  8 12  2  0  0  0
  9 10  1  0  0  0
 10 11  2  0  0  0
 11 12  1  0  0  0
 11 15  1  0  0  0
 12 13  1  0  0  0
 13 14  1  0  0  0
 14 15  1  0  0  0
 15 16  1  0  0  0
 16 17  1  0  0  0
 16 18  1  0  0  0
  4  5  1  0  0  0
  4 19  1  0  0  0
  5  6  1  0  0  0
 19 21  1  0  0  0
 21 22  2  0  0  0
 21 23  2  0  0  0
 21 24  1  0  0  0
 24 25  1  0  0  0
 24 29  2  0  0  0
 25 26  2  0  0  0
 26 27  1  0  0  0
 26 30  1  0  0  0
 27 28  2  0  0  0
 27 34  1  0  0  0
 28 29  1  0  0  0
 30 31  2  0  0  0
 31 32  1  0  0  0
 32 33  1  0  0  0
 32 34  2  0  0  0
 19 20  1  0  0  0
M  END
> <minimizedAffinity>
-9.77776

$$$$
2Y80_439_A_1245


 34 38  0  0  0  0  0  0  0  0999 V2000
    6.7354    7.1101   20.1818 O   0  0  0  0  0  0  0  0  0  0  0  0
    6.0879    6.4664   20.9798 C   0  0  0  0  0  0  0  0  0  0  0  0
    5.7845    5.1562   20.8512 N   0  0  0  0  0  0  0  0  0  0  0  0
    5.5321    6.9803   22.2893 C   0  0  0  0  0  0  0  0  0  0  0  0
    4.4529    5.9315   22.6366 C   0  0  0  0  0  0  0  0  0  0  0  0
    4.9502    4.6490   21.9505 C   0  0  0  0  0  0  0  0  0  0  0  0
    6.2368    4.3093   19.8302 C   0  0  0  0  0  0  0  0  0  0  0  0
    7.6063    4.0993   19.7099 C   0  0  0  0  0  0  0  0  0  0  0  0
    5.3621    3.6800   18.9401 C   0  0  0  0  0  0  0  0  0  0  0  0
    5.8702    2.8567   17.9455 C   0  0  0  0  0  0  0  0  0  0  0  0
    7.2515    2.6418   17.8319 C   0  0  0  0  0  0  0  0  0  0  0  0
    8.1081    3.2752   18.7183 C   0  0  0  0  0  0  0  0  0  0  0  0
    9.5424    2.9131   18.4031 C   0  0  0  0  0  0  0  0  0  0  0  0
    9.4835    2.3635   16.9634 C   0  0  0  0  0  0  0  0  0  0  0  0
    8.0530    1.7963   16.8453 C   0  0  0  0  0  0  0  0  0  0  0  0
    7.9400    0.3263   17.0063 N   0  0  0  0  0  0  0  0  0  0  0  0
    9.2693   -0.2583   16.7582 C   0  0  0  0  0  0  0  0  0  0  0  0
    7.0093   -0.2710   16.0204 C   0  0  0  0  0  0  0  0  0  0  0  0
    4.9868    8.3304   22.1579 N   0  0  0  0  0  0  0  0  0  0  0  0
    4.0027    8.2584   22.4161 H   0  0  0  0  0  0  0  0  0  0  0  0
    5.5579    9.6110   22.9573 S   0  0  0  0  0  0  0  0  0  0  0  0
    5.5980   10.5750   21.9188 O   0  0  0  0  0  0  0  0  0  0  0  0
    4.7955    9.8343   24.1362 O   0  0  0  0  0  0  0  0  0  0  0  0
    7.2157    9.2525   23.4717 C   0  0  0  0  0  0  0  0  0  0  0  0
    7.4392    8.7223   24.7169 C   0  0  0  0  0  0  0  0  0  0  0  0
    8.7658    8.4210   25.1248 C   0  0  0  0  0  0  0  0  0  0  0  0
    9.8307    8.6770   24.2102 C   0  0  0  0  0  0  0  0  0  0  0  0
    9.5560    9.2078   22.9323 C   0  0  0  0  0  0  0  0  0  0  0  0
    8.2666    9.4982   22.5814 C   0  0  0  0  0  0  0  0  0  0  0  0
    9.0543    7.8805   26.3990 C   0  0  0  0  0  0  0  0  0  0  0  0
   10.3527    7.6023   26.7381 C   0  0  0  0  0  0  0  0  0  0  0  0
   11.3829    7.8545   25.8372 C   0  0  0  0  0  0  0  0  0  0  0  0
   13.0368    7.4991   26.2560 Cl  0  0  0  0  0  0  0  0  0  0  0  0
   11.1486    8.3713   24.5996 C   0  0  0  0  0  0  0  0  0  0  0  0
  1  2  2  0  0  0
  2  3  1  0  0  0
  2  4  1  0  0  0
  3  7  1  0  0  0
  3  6  1  0  0  0
  7  8  1  0  0  0
  7  9  2  0  0  0
  8 12  2  0  0  0
  9 10  1  0  0  0
 10 11  2  0  0  0
 11 12  1  0  0  0
 11 15  1  0  0  0
 12 13  1  0  0  0
 13 14  1  0  0  0
 14 15  1  0  0  0
 15 16  1  0  0  0
 16 17  1  0  0  0
 16 18  1  0  0  0
  4  5  1  0  0  0
  4 19  1  0  0  0
  5  6  1  0  0  0
 19 21  1  0  0  0
 21 22  2  0  0  0
 21 23  2  0  0  0
 21 24  1  0  0  0
 24 25  1  0  0  0
 24 29  2  0  0  0
 25 26  2  0  0  0
 26 27  1  0  0  0
 26 30  1  0  0  0
 27 28  2  0  0  0
 27 34  1  0  0  0
 28 29  1  0  0  0
 30 31  2  0  0  0
 31 32  1  0  0  0
 32 33  1  0  0  0
 32 34  2  0  0  0
 19 20  1  0  0  0
M  END
> <minimizedAffinity>
-9.53786

$$$$
2Y80_439_A_1245


 34 38  0  0  0  0  0  0  0  0999 V2000
    9.5076    3.4124   18.3007 O   0  0  0  0  0  0  0  0  0  0  0  0
    8.6063    3.5412   17.4997 C   0  0  0  0  0  0  0  0  0  0  0  0
    7.5135    4.3142   17.6836 N   0  0  0  0  0  0  0  0  0  0  0  0
    8.5427    2.9067   16.1282 C   0  0  0  0  0  0  0  0  0  0  0  0
    7.0442    3.0170   15.7707 C   0  0  0  0  0  0  0  0  0  0  0  0
    6.5653    4.2447   16.5621 C   0  0  0  0  0  0  0  0  0  0  0  0
    7.2835    5.1560   18.7802 C   0  0  0  0  0  0  0  0  0  0  0  0
    6.3012    4.7900   19.6941 C   0  0  0  0  0  0  0  0  0  0  0  0
    8.0024    6.3382   18.9775 C   0  0  0  0  0  0  0  0  0  0  0  0
    7.7254    7.1339   20.0798 C   0  0  0  0  0  0  0  0  0  0  0  0
    6.7389    6.7578   21.0031 C   0  0  0  0  0  0  0  0  0  0  0  0
    6.0305    5.5852   20.7934 C   0  0  0  0  0  0  0  0  0  0  0  0
    5.0156    5.3871   21.8974 C   0  0  0  0  0  0  0  0  0  0  0  0
    4.8790    6.7835   22.5373 C   0  0  0  0  0  0  0  0  0  0  0  0
    6.2503    7.4422   22.2773 C   0  0  0  0  0  0  0  0  0  0  0  0
    7.1884    7.4249   23.4259 N   0  0  0  0  0  0  0  0  0  0  0  0
    6.3878    7.4360   24.6625 C   0  0  0  0  0  0  0  0  0  0  0  0
    8.0536    8.6273   23.4551 C   0  0  0  0  0  0  0  0  0  0  0  0
    9.0199    1.5250   16.1439 N   0  0  0  0  0  0  0  0  0  0  0  0
    9.8385    1.5212   16.7524 H   0  0  0  0  0  0  0  0  0  0  0  0
    8.1197    0.2695   16.6112 S   0  0  0  0  0  0  0  0  0  0  0  0
    7.1509    0.2388   15.5769 O   0  0  0  0  0  0  0  0  0  0  0  0
    8.9463   -0.8565   16.8754 O   0  0  0  0  0  0  0  0  0  0  0  0
    7.3194    0.6944   18.1345 C   0  0  0  0  0  0  0  0  0  0  0  0
    5.9667    0.9219   18.1489 C   0  0  0  0  0  0  0  0  0  0  0  0
    5.3219    1.2481   19.3715 C   0  0  0  0  0  0  0  0  0  0  0  0
    6.1130    1.3209   20.5568 C   0  0  0  0  0  0  0  0  0  0  0  0
    7.4991    1.0635   20.5012 C   0  0  0  0  0  0  0  0  0  0  0  0
    8.0861    0.7664   19.3025 C   0  0  0  0  0  0  0  0  0  0  0  0
    3.9324    1.4996   19.4428 C   0  0  0  0  0  0  0  0  0  0  0  0
    3.3607    1.8036   20.6507 C   0  0  0  0  0  0  0  0  0  0  0  0
    4.1421    1.8701   21.8003 C   0  0  0  0  0  0  0  0  0  0  0  0
    3.4243    2.2501   23.3423 Cl  0  0  0  0  0  0  0  0  0  0  0  0
    5.4823    1.6321   21.7763 C   0  0  0  0  0  0  0  0  0  0  0  0
  1  2  2  0  0  0
  2  3  1  0  0  0
  2  4  1  0  0  0
  3  7  1  0  0  0
  3  6  1  0  0  0
  7  8  1  0  0  0
  7  9  2  0  0  0
  8 12  2  0  0  0
  9 10  1  0  0  0
 10 11  2  0  0  0
 11 12  1  0  0  0
 11 15  1  0  0  0
 12 13  1  0  0  0
 13 14  1  0  0  0
 14 15  1  0  0  0
 15 16  1  0  0  0
 16 17  1  0  0  0
 16 18  1  0  0  0
  4  5  1  0  0  0
  4 19  1  0  0  0
  5  6  1  0  0  0
 19 21  1  0  0  0
 21 22  2  0  0  0
 21 23  2  0  0  0
 21 24  1  0  0  0
 24 25  1  0  0  0
 24 29  2  0  0  0
 25 26  2  0  0  0
 26 27  1  0  0  0
 26 30  1  0  0  0
 27 28  2  0  0  0
 27 34  1  0  0  0
 28 29  1  0  0  0
 30 31  2  0  0  0
 31 32  1  0  0  0
 32 33  1  0  0  0
 32 34  2  0  0  0
 19 20  1  0  0  0
M  END
> <minimizedAffinity>
-9.07809

$$$$
2Y80_439_A_1245


 34 38  0  0  0  0  0  0  0  0999 V2000
    4.9852    5.2744   21.2378 O   0  0  0  0  0  0  0  0  0  0  0  0
    4.1853    5.4750   22.1268 C   0  0  0  0  0  0  0  0  0  0  0  0
    4.1748    6.5644   22.9259 N   0  0  0  0  0  0  0  0  0  0  0  0
    3.0216    4.5796   22.4900 C   0  0  0  0  0  0  0  0  0  0  0  0
    2.6601    5.0517   23.9155 C   0  0  0  0  0  0  0  0  0  0  0  0
    3.1160    6.5194   23.9449 C   0  0  0  0  0  0  0  0  0  0  0  0
    5.0222    7.6741   22.8051 C   0  0  0  0  0  0  0  0  0  0  0  0
    6.3572    7.5228   23.1641 C   0  0  0  0  0  0  0  0  0  0  0  0
    4.5690    8.9126   22.3423 C   0  0  0  0  0  0  0  0  0  0  0  0
    5.4546    9.9766   22.2499 C   0  0  0  0  0  0  0  0  0  0  0  0
    6.8019    9.8181   22.6062 C   0  0  0  0  0  0  0  0  0  0  0  0
    7.2374    8.5859   23.0676 C   0  0  0  0  0  0  0  0  0  0  0  0
    8.7108    8.6484   23.4040 C   0  0  0  0  0  0  0  0  0  0  0  0
    9.0046   10.1573   23.5264 C   0  0  0  0  0  0  0  0  0  0  0  0
    7.9614   10.8112   22.5957 C   0  0  0  0  0  0  0  0  0  0  0  0
    8.4666   11.2074   21.2588 N   0  0  0  0  0  0  0  0  0  0  0  0
    7.7919   12.4593   20.8743 C   0  0  0  0  0  0  0  0  0  0  0  0
    8.1429   10.2004   20.2213 C   0  0  0  0  0  0  0  0  0  0  0  0
    3.3854    3.1646   22.4384 N   0  0  0  0  0  0  0  0  0  0  0  0
    2.8664    2.7170   23.1938 H   0  0  0  0  0  0  0  0  0  0  0  0
    3.1679    2.2284   21.1417 S   0  0  0  0  0  0  0  0  0  0  0  0
    2.5205    1.1115   21.7271 O   0  0  0  0  0  0  0  0  0  0  0  0
    2.5503    2.9703   20.0981 O   0  0  0  0  0  0  0  0  0  0  0  0
    4.7591    1.7225   20.5470 C   0  0  0  0  0  0  0  0  0  0  0  0
    4.9128    1.3837   19.2266 C   0  0  0  0  0  0  0  0  0  0  0  0
    6.1904    0.9922   18.7456 C   0  0  0  0  0  0  0  0  0  0  0  0
    7.2832    0.9724   19.6629 C   0  0  0  0  0  0  0  0  0  0  0  0
    7.0857    1.3442   21.0095 C   0  0  0  0  0  0  0  0  0  0  0  0
    5.8373    1.7017   21.4382 C   0  0  0  0  0  0  0  0  0  0  0  0
    6.4042    0.6258   17.3969 C   0  0  0  0  0  0  0  0  0  0  0  0
    7.6598    0.2627   16.9849 C   0  0  0  0  0  0  0  0  0  0  0  0
    8.7183    0.2488   17.8883 C   0  0  0  0  0  0  0  0  0  0  0  0
   10.3201   -0.2059   17.3737 Cl  0  0  0  0  0  0  0  0  0  0  0  0
    8.5566    0.5970   19.1944 C   0  0  0  0  0  0  0  0  0  0  0  0
  1  2  2  0  0  0
  2  3  1  0  0  0
  2  4  1  0  0  0
  3  7  1  0  0  0
  3  6  1  0  0  0
  7  8  1  0  0  0
  7  9  2  0  0  0
  8 12  2  0  0  0
  9 10  1  0  0  0
 10 11  2  0  0  0
 11 12  1  0  0  0
 11 15  1  0  0  0
 12 13  1  0  0  0
 13 14  1  0  0  0
 14 15  1  0  0  0
 15 16  1  0  0  0
 16 17  1  0  0  0
 16 18  1  0  0  0
  4  5  1  0  0  0
  4 19  1  0  0  0
  5  6  1  0  0  0
 19 21  1  0  0  0
 21 22  2  0  0  0
 21 23  2  0  0  0
 21 24  1  0  0  0
 24 25  1  0  0  0
 24 29  2  0  0  0
 25 26  2  0  0  0
 26 27  1  0  0  0
 26 30  1  0  0  0
 27 28  2  0  0  0
 27 34  1  0  0  0
 28 29  1  0  0  0
 30 31  2  0  0  0
 31 32  1  0  0  0
 32 33  1  0  0  0
 32 34  2  0  0  0
 19 20  1  0  0  0
M  END
> <minimizedAffinity>
-8.97893

$$$$
2Y80_439_A_1245


 34 38  0  0  0  0  0  0  0  0999 V2000
    5.5239    5.3012   19.8292 O   0  0  0  0  0  0  0  0  0  0  0  0
    5.2187    4.5567   20.7364 C   0  0  0  0  0  0  0  0  0  0  0  0
    5.5001    3.2360   20.7804 N   0  0  0  0  0  0  0  0  0  0  0  0
    4.5089    4.9575   22.0105 C   0  0  0  0  0  0  0  0  0  0  0  0
    3.9813    3.6082   22.5458 C   0  0  0  0  0  0  0  0  0  0  0  0
    4.9705    2.5753   21.9824 C   0  0  0  0  0  0  0  0  0  0  0  0
    6.2603    2.5309   19.8375 C   0  0  0  0  0  0  0  0  0  0  0  0
    7.5411    2.9905   19.5507 C   0  0  0  0  0  0  0  0  0  0  0  0
    5.7731    1.3953   19.1844 C   0  0  0  0  0  0  0  0  0  0  0  0
    6.5711    0.7426   18.2557 C   0  0  0  0  0  0  0  0  0  0  0  0
    7.8650    1.2051   17.9745 C   0  0  0  0  0  0  0  0  0  0  0  0
    8.3343    2.3346   18.6261 C   0  0  0  0  0  0  0  0  0  0  0  0
    9.7370    2.6574   18.1611 C   0  0  0  0  0  0  0  0  0  0  0  0
    9.8840    1.8758   16.8399 C   0  0  0  0  0  0  0  0  0  0  0  0
    8.9279    0.6768   17.0143 C   0  0  0  0  0  0  0  0  0  0  0  0
    9.5772   -0.5993   17.4005 N   0  0  0  0  0  0  0  0  0  0  0  0
   10.9360   -0.2880   17.8770 C   0  0  0  0  0  0  0  0  0  0  0  0
    9.7187   -1.5217   16.2497 C   0  0  0  0  0  0  0  0  0  0  0  0
    3.4402    5.9228   21.7589 N   0  0  0  0  0  0  0  0  0  0  0  0
    2.6520    5.6192   22.3307 H   0  0  0  0  0  0  0  0  0  0  0  0
    3.5844    7.5095   22.0171 S   0  0  0  0  0  0  0  0  0  0  0  0
    3.8205    7.9720   20.6981 O   0  0  0  0  0  0  0  0  0  0  0  0
    2.4802    7.9863   22.7749 O   0  0  0  0  0  0  0  0  0  0  0  0
    5.0395    7.7853   22.9908 C   0  0  0  0  0  0  0  0  0  0  0  0
    6.2299    8.0613   22.3674 C   0  0  0  0  0  0  0  0  0  0  0  0
    7.3934    8.2970   23.1469 C   0  0  0  0  0  0  0  0  0  0  0  0
    7.2791    8.2448   24.5682 C   0  0  0  0  0  0  0  0  0  0  0  0
    6.0321    7.9738   25.1700 C   0  0  0  0  0  0  0  0  0  0  0  0
    4.9373    7.7382   24.3853 C   0  0  0  0  0  0  0  0  0  0  0  0
    8.6471    8.5784   22.5570 C   0  0  0  0  0  0  0  0  0  0  0  0
    9.7363    8.8046   23.3575 C   0  0  0  0  0  0  0  0  0  0  0  0
    9.6124    8.7528   24.7425 C   0  0  0  0  0  0  0  0  0  0  0  0
   10.9897    9.0445   25.7698 Cl  0  0  0  0  0  0  0  0  0  0  0  0
    8.4236    8.4882   25.3511 C   0  0  0  0  0  0  0  0  0  0  0  0
  1  2  2  0  0  0
  2  3  1  0  0  0
  2  4  1  0  0  0
  3  7  1  0  0  0
  3  6  1  0  0  0
  7  8  1  0  0  0
  7  9  2  0  0  0
  8 12  2  0  0  0
  9 10  1  0  0  0
 10 11  2  0  0  0
 11 12  1  0  0  0
 11 15  1  0  0  0
 12 13  1  0  0  0
 13 14  1  0  0  0
 14 15  1  0  0  0
 15 16  1  0  0  0
 16 17  1  0  0  0
 16 18  1  0  0  0
  4  5  1  0  0  0
  4 19  1  0  0  0
  5  6  1  0  0  0
 19 21  1  0  0  0
 21 22  2  0  0  0
 21 23  2  0  0  0
 21 24  1  0  0  0
 24 25  1  0  0  0
 24 29  2  0  0  0
 25 26  2  0  0  0
 26 27  1  0  0  0
 26 30  1  0  0  0
 27 28  2  0  0  0
 27 34  1  0  0  0
 28 29  1  0  0  0
 30 31  2  0  0  0
 31 32  1  0  0  0
 32 33  1  0  0  0
 32 34  2  0  0  0
 19 20  1  0  0  0
M  END
> <minimizedAffinity>
-8.53363

$$$$
2Y80_439_A_1245


 34 38  0  0  0  0  0  0  0  0999 V2000
    5.5348    5.7934   21.8546 O   0  0  0  0  0  0  0  0  0  0  0  0
    4.5065    5.1984   22.0974 C   0  0  0  0  0  0  0  0  0  0  0  0
    4.2459    3.9242   21.7312 N   0  0  0  0  0  0  0  0  0  0  0  0
    3.3364    5.7382   22.8894 C   0  0  0  0  0  0  0  0  0  0  0  0
    2.1866    4.7876   22.4899 C   0  0  0  0  0  0  0  0  0  0  0  0
    2.9015    3.4770   22.1239 C   0  0  0  0  0  0  0  0  0  0  0  0
    5.1443    3.0574   21.0944 C   0  0  0  0  0  0  0  0  0  0  0  0
    5.2113    3.0858   19.7055 C   0  0  0  0  0  0  0  0  0  0  0  0
    5.9624    2.1755   21.8060 C   0  0  0  0  0  0  0  0  0  0  0  0
    6.8283    1.3368   21.1190 C   0  0  0  0  0  0  0  0  0  0  0  0
    6.8980    1.3735   19.7186 C   0  0  0  0  0  0  0  0  0  0  0  0
    6.0784    2.2497   19.0249 C   0  0  0  0  0  0  0  0  0  0  0  0
    6.3099    2.1096   17.5367 C   0  0  0  0  0  0  0  0  0  0  0  0
    7.0184    0.7474   17.3933 C   0  0  0  0  0  0  0  0  0  0  0  0
    7.7521    0.5716   18.7397 C   0  0  0  0  0  0  0  0  0  0  0  0
    9.1986    0.8984   18.7193 N   0  0  0  0  0  0  0  0  0  0  0  0
    9.3320    2.3381   18.4372 C   0  0  0  0  0  0  0  0  0  0  0  0
    9.9170    0.1745   17.6445 C   0  0  0  0  0  0  0  0  0  0  0  0
    3.0547    7.1350   22.5625 N   0  0  0  0  0  0  0  0  0  0  0  0
    2.0504    7.1824   22.3903 H   0  0  0  0  0  0  0  0  0  0  0  0
    3.3907    8.3720   23.5433 S   0  0  0  0  0  0  0  0  0  0  0  0
    2.7677    9.4383   22.8475 O   0  0  0  0  0  0  0  0  0  0  0  0
    3.0231    8.0538   24.8792 O   0  0  0  0  0  0  0  0  0  0  0  0
    5.1445    8.6287   23.5350 C   0  0  0  0  0  0  0  0  0  0  0  0
    5.9196    8.0437   24.5038 C   0  0  0  0  0  0  0  0  0  0  0  0
    7.3266    8.2366   24.4898 C   0  0  0  0  0  0  0  0  0  0  0  0
    7.8908    9.0359   23.4511 C   0  0  0  0  0  0  0  0  0  0  0  0
    7.0595    9.6063   22.4641 C   0  0  0  0  0  0  0  0  0  0  0  0
    5.7075    9.4093   22.5196 C   0  0  0  0  0  0  0  0  0  0  0  0
    8.1720    7.6637   25.4675 C   0  0  0  0  0  0  0  0  0  0  0  0
    9.5243    7.8770   25.4020 C   0  0  0  0  0  0  0  0  0  0  0  0
   10.0633    8.6570   24.3834 C   0  0  0  0  0  0  0  0  0  0  0  0
   11.7819    8.9299   24.2875 Cl  0  0  0  0  0  0  0  0  0  0  0  0
    9.2856    9.2244   23.4208 C   0  0  0  0  0  0  0  0  0  0  0  0
  1  2  2  0  0  0
  2  3  1  0  0  0
  2  4  1  0  0  0
  3  7  1  0  0  0
  3  6  1  0  0  0
  7  8  1  0  0  0
  7  9  2  0  0  0
  8 12  2  0  0  0
  9 10  1  0  0  0
 10 11  2  0  0  0
 11 12  1  0  0  0
 11 15  1  0  0  0
 12 13  1  0  0  0
 13 14  1  0  0  0
 14 15  1  0  0  0
 15 16  1  0  0  0
 16 17  1  0  0  0
 16 18  1  0  0  0
  4  5  1  0  0  0
  4 19  1  0  0  0
  5  6  1  0  0  0
 19 21  1  0  0  0
 21 22  2  0  0  0
 21 23  2  0  0  0
 21 24  1  0  0  0
 24 25  1  0  0  0
 24 29  2  0  0  0
 25 26  2  0  0  0
 26 27  1  0  0  0
 26 30  1  0  0  0
 27 28  2  0  0  0
 27 34  1  0  0  0
 28 29  1  0  0  0
 30 31  2  0  0  0
 31 32  1  0  0  0
 32 33  1  0  0  0
 32 34  2  0  0  0
 19 20  1  0  0  0
M  END
> <minimizedAffinity>
-8.25626

$$$$
2Y80_439_A_1245


 34 38  0  0  0  0  0  0  0  0999 V2000
    9.6180    7.9793   19.3729 O   0  0  0  0  0  0  0  0  0  0  0  0
    8.6394    7.8458   20.0763 C   0  0  0  0  0  0  0  0  0  0  0  0
    7.6768    6.9156   19.8929 N   0  0  0  0  0  0  0  0  0  0  0  0
    8.3219    8.6538   21.3149 C   0  0  0  0  0  0  0  0  0  0  0  0
    6.8119    8.3960   21.5124 C   0  0  0  0  0  0  0  0  0  0  0  0
    6.5866    7.0157   20.8743 C   0  0  0  0  0  0  0  0  0  0  0  0
    7.6927    5.9040   18.9232 C   0  0  0  0  0  0  0  0  0  0  0  0
    8.5979    4.8597   19.0786 C   0  0  0  0  0  0  0  0  0  0  0  0
    6.8372    5.9158   17.8180 C   0  0  0  0  0  0  0  0  0  0  0  0
    6.9036    4.8885   16.8878 C   0  0  0  0  0  0  0  0  0  0  0  0
    7.8130    3.8334   17.0518 C   0  0  0  0  0  0  0  0  0  0  0  0
    8.6585    3.8360   18.1500 C   0  0  0  0  0  0  0  0  0  0  0  0
    9.5570    2.6196   18.1165 C   0  0  0  0  0  0  0  0  0  0  0  0
    9.4747    2.1317   16.6560 C   0  0  0  0  0  0  0  0  0  0  0  0
    8.0806    2.6022   16.1897 C   0  0  0  0  0  0  0  0  0  0  0  0
    7.0255    1.5600   16.1985 N   0  0  0  0  0  0  0  0  0  0  0  0
    7.6704    0.2675   16.4880 C   0  0  0  0  0  0  0  0  0  0  0  0
    6.3608    1.4308   14.8806 C   0  0  0  0  0  0  0  0  0  0  0  0
    8.6348   10.0707   21.1368 N   0  0  0  0  0  0  0  0  0  0  0  0
    8.8929   10.1765   20.1556 H   0  0  0  0  0  0  0  0  0  0  0  0
    7.5958   11.2658   21.4487 S   0  0  0  0  0  0  0  0  0  0  0  0
    6.7334   10.6311   22.3775 O   0  0  0  0  0  0  0  0  0  0  0  0
    8.3001   12.4516   21.7936 O   0  0  0  0  0  0  0  0  0  0  0  0
    6.6870   11.6144   19.9675 C   0  0  0  0  0  0  0  0  0  0  0  0
    6.8409   10.8041   18.8714 C   0  0  0  0  0  0  0  0  0  0  0  0
    6.1022   11.0737   17.6888 C   0  0  0  0  0  0  0  0  0  0  0  0
    5.2100   12.1872   17.6859 C   0  0  0  0  0  0  0  0  0  0  0  0
    5.0690   12.9860   18.8403 C   0  0  0  0  0  0  0  0  0  0  0  0
    5.8082   12.7029   19.9553 C   0  0  0  0  0  0  0  0  0  0  0  0
    6.2274   10.2762   16.5281 C   0  0  0  0  0  0  0  0  0  0  0  0
    5.4851   10.5779   15.4162 C   0  0  0  0  0  0  0  0  0  0  0  0
    4.6169   11.6654   15.4257 C   0  0  0  0  0  0  0  0  0  0  0  0
    3.6641   12.0545   14.0193 Cl  0  0  0  0  0  0  0  0  0  0  0  0
    4.4641   12.4570   16.5228 C   0  0  0  0  0  0  0  0  0  0  0  0
  1  2  2  0  0  0
  2  3  1  0  0  0
  2  4  1  0  0  0
  3  7  1  0  0  0
  3  6  1  0  0  0
  7  8  1  0  0  0
  7  9  2  0  0  0
  8 12  2  0  0  0
  9 10  1  0  0  0
 10 11  2  0  0  0
 11 12  1  0  0  0
 11 15  1  0  0  0
 12 13  1  0  0  0
 13 14  1  0  0  0
 14 15  1  0  0  0
 15 16  1  0  0  0
 16 17  1  0  0  0
 16 18  1  0  0  0
  4  5  1  0  0  0
  4 19  1  0  0  0
  5  6  1  0  0  0
 19 21  1  0  0  0
 21 22  2  0  0  0
 21 23  2  0  0  0
 21 24  1  0  0  0
 24 25  1  0  0  0
 24 29  2  0  0  0
 25 26  2  0  0  0
 26 27  1  0  0  0
 26 30  1  0  0  0
 27 28  2  0  0  0
 27 34  1  0  0  0
 28 29  1  0  0  0
 30 31  2  0  0  0
 31 32  1  0  0  0
 32 33  1  0  0  0
 32 34  2  0  0  0
 19 20  1  0  0  0
M  END
> <minimizedAffinity>
-8.04051

$$$$
2Y80_439_A_1245


 34 38  0  0  0  0  0  0  0  0999 V2000
    9.5068    8.1074   19.6928 O   0  0  0  0  0  0  0  0  0  0  0  0
    8.7693    7.7033   20.5664 C   0  0  0  0  0  0  0  0  0  0  0  0
    7.9345    6.6478   20.4462 N   0  0  0  0  0  0  0  0  0  0  0  0
    8.6666    8.2626   21.9680 C   0  0  0  0  0  0  0  0  0  0  0  0
    7.3097    7.7103   22.4569 C   0  0  0  0  0  0  0  0  0  0  0  0
    7.1280    6.4128   21.6529 C   0  0  0  0  0  0  0  0  0  0  0  0
    7.8462    5.7985   19.3349 C   0  0  0  0  0  0  0  0  0  0  0  0
    8.7046    4.7060   19.2738 C   0  0  0  0  0  0  0  0  0  0  0  0
    6.9335    6.0167   18.2992 C   0  0  0  0  0  0  0  0  0  0  0  0
    6.8971    5.1437   17.2214 C   0  0  0  0  0  0  0  0  0  0  0  0
    7.7596    4.0390   17.1669 C   0  0  0  0  0  0  0  0  0  0  0  0
    8.6627    3.8365   18.1985 C   0  0  0  0  0  0  0  0  0  0  0  0
    9.4953    2.6036   17.9253 C   0  0  0  0  0  0  0  0  0  0  0  0
    9.3090    2.3513   16.4155 C   0  0  0  0  0  0  0  0  0  0  0  0
    7.9172    2.9458   16.1129 C   0  0  0  0  0  0  0  0  0  0  0  0
    6.8128    1.9597   16.0281 N   0  0  0  0  0  0  0  0  0  0  0  0
    7.3851    0.6208   16.2522 C   0  0  0  0  0  0  0  0  0  0  0  0
    6.1814    1.9459   14.6878 C   0  0  0  0  0  0  0  0  0  0  0  0
    8.7187    9.7236   21.9772 N   0  0  0  0  0  0  0  0  0  0  0  0
    9.4484    9.9793   21.3120 H   0  0  0  0  0  0  0  0  0  0  0  0
    7.4575   10.6692   21.6304 S   0  0  0  0  0  0  0  0  0  0  0  0
    6.5341   10.2532   22.6222 O   0  0  0  0  0  0  0  0  0  0  0  0
    7.8717   12.0259   21.5366 O   0  0  0  0  0  0  0  0  0  0  0  0
    6.8354   10.2054   20.0368 C   0  0  0  0  0  0  0  0  0  0  0  0
    5.6862    9.4616   19.9481 C   0  0  0  0  0  0  0  0  0  0  0  0
    5.1787    9.1018   18.6715 C   0  0  0  0  0  0  0  0  0  0  0  0
    5.8872    9.5388   17.5126 C   0  0  0  0  0  0  0  0  0  0  0  0
    7.0566   10.3165   17.6475 C   0  0  0  0  0  0  0  0  0  0  0  0
    7.5219   10.6307   18.8944 C   0  0  0  0  0  0  0  0  0  0  0  0
    4.0032    8.3305   18.5218 C   0  0  0  0  0  0  0  0  0  0  0  0
    3.5544    8.0176   17.2652 C   0  0  0  0  0  0  0  0  0  0  0  0
    4.2528    8.4509   16.1423 C   0  0  0  0  0  0  0  0  0  0  0  0
    3.6877    8.0636   14.5398 Cl  0  0  0  0  0  0  0  0  0  0  0  0
    5.3867    9.1977   16.2417 C   0  0  0  0  0  0  0  0  0  0  0  0
  1  2  2  0  0  0
  2  3  1  0  0  0
  2  4  1  0  0  0
  3  7  1  0  0  0
  3  6  1  0  0  0
  7  8  1  0  0  0
  7  9  2  0  0  0
  8 12  2  0  0  0
  9 10  1  0  0  0
 10 11  2  0  0  0
 11 12  1  0  0  0
 11 15  1  0  0  0
 12 13  1  0  0  0
 13 14  1  0  0  0
 14 15  1  0  0  0
 15 16  1  0  0  0
 16 17  1  0  0  0
 16 18  1  0  0  0
  4  5  1  0  0  0
  4 19  1  0  0  0
  5  6  1  0  0  0
 19 21  1  0  0  0
 21 22  2  0  0  0
 21 23  2  0  0  0
 21 24  1  0  0  0
 24 25  1  0  0  0
 24 29  2  0  0  0
 25 26  2  0  0  0
 26 27  1  0  0  0
 26 30  1  0  0  0
 27 28  2  0  0  0
 27 34  1  0  0  0
 28 29  1  0  0  0
 30 31  2  0  0  0
 31 32  1  0  0  0
 32 33  1  0  0  0
 32 34  2  0  0  0
 19 20  1  0  0  0
M  END
> <minimizedAffinity>
-8.00846

$$$$
