184L_I4B_A_401


 10 10  0  0  0  0  0  0  0  0999 V2000
   27.2615    6.9044    3.8686 C   0  0  0  0  0  0  0  0  0  0  0  0
   26.6880    5.7589    3.3741 C   0  0  0  0  0  0  0  0  0  0  0  0
   25.8153    4.9930    4.1843 C   0  0  0  0  0  0  0  0  0  0  0  0
   25.5854    5.3777    5.4890 C   0  0  0  0  0  0  0  0  0  0  0  0
   26.1498    6.5511    5.9808 C   0  0  0  0  0  0  0  0  0  0  0  0
   26.9839    7.3258    5.1620 C   0  0  0  0  0  0  0  0  0  0  0  0
   28.2047    7.6714    2.9974 C   0  0  0  0  0  0  0  0  0  0  0  0
   27.4033    8.2860    1.8683 C   0  0  0  0  0  0  0  0  0  0  0  0
   28.2877    8.3618    0.6594 C   0  0  0  0  0  0  0  0  0  0  0  0
   26.8840    9.6485    2.2470 C   0  0  0  0  0  0  0  0  0  0  0  0
  1  2  2  0  0  0
  1  6  1  0  0  0
  1  7  1  0  0  0
  2  3  1  0  0  0
  3  4  2  0  0  0
  4  5  1  0  0  0
  5  6  2  0  0  0
  7  8  1  0  0  0
  8  9  1  0  0  0
  8 10  1  0  0  0
M  END
> <minimizedAffinity>
-6.99770

$$$$
184L_I4B_A_401


 10 10  0  0  0  0  0  0  0  0999 V2000
   27.2912    6.8764    3.8653 C   0  0  0  0  0  0  0  0  0  0  0  0
   27.0161    7.2722    5.1511 C   0  0  0  0  0  0  0  0  0  0  0  0
   26.1426    6.5060    5.9601 C   0  0  0  0  0  0  0  0  0  0  0  0
   25.5311    5.3881    5.4314 C   0  0  0  0  0  0  0  0  0  0  0  0
   25.8288    4.9764    4.1357 C   0  0  0  0  0  0  0  0  0  0  0  0
   26.7234    5.7184    3.3513 C   0  0  0  0  0  0  0  0  0  0  0  0
   28.1917    7.7271    3.0272 C   0  0  0  0  0  0  0  0  0  0  0  0
   27.3684    8.3046    1.8943 C   0  0  0  0  0  0  0  0  0  0  0  0
   28.2458    8.3924    0.6811 C   0  0  0  0  0  0  0  0  0  0  0  0
   26.8105    9.6555    2.2595 C   0  0  0  0  0  0  0  0  0  0  0  0
  1  2  2  0  0  0
  1  6  1  0  0  0
  1  7  1  0  0  0
  2  3  1  0  0  0
  3  4  2  0  0  0
  4  5  1  0  0  0
  5  6  2  0  0  0
  7  8  1  0  0  0
  8  9  1  0  0  0
  8 10  1  0  0  0
M  END
> <minimizedAffinity>
-6.96786

$$$$
184L_I4B_A_401


 10 10  0  0  0  0  0  0  0  0999 V2000
   27.3219    7.7550    3.4107 C   0  0  0  0  0  0  0  0  0  0  0  0
   26.6076    8.9275    3.3835 C   0  0  0  0  0  0  0  0  0  0  0  0
   26.6378    9.7527    2.2334 C   0  0  0  0  0  0  0  0  0  0  0  0
   27.4290    9.3961    1.1610 C   0  0  0  0  0  0  0  0  0  0  0  0
   28.1341    8.1963    1.1819 C   0  0  0  0  0  0  0  0  0  0  0  0
   28.0713    7.3646    2.3091 C   0  0  0  0  0  0  0  0  0  0  0  0
   27.2944    6.9239    4.6538 C   0  0  0  0  0  0  0  0  0  0  0  0
   25.9887    6.1562    4.6742 C   0  0  0  0  0  0  0  0  0  0  0  0
   25.6761    5.8103    6.0997 C   0  0  0  0  0  0  0  0  0  0  0  0
   26.0711    4.9174    3.8208 C   0  0  0  0  0  0  0  0  0  0  0  0
  1  2  2  0  0  0
  1  6  1  0  0  0
  1  7  1  0  0  0
  2  3  1  0  0  0
  3  4  2  0  0  0
  4  5  1  0  0  0
  5  6  2  0  0  0
  7  8  1  0  0  0
  8  9  1  0  0  0
  8 10  1  0  0  0
M  END
> <minimizedAffinity>
-6.72381

$$$$
184L_I4B_A_401


 10 10  0  0  0  0  0  0  0  0999 V2000
   27.3505    7.8182    3.4745 C   0  0  0  0  0  0  0  0  0  0  0  0
   28.1206    7.4244    2.4079 C   0  0  0  0  0  0  0  0  0  0  0  0
   28.1537    8.2050    1.2272 C   0  0  0  0  0  0  0  0  0  0  0  0
   27.3685    9.3358    1.1372 C   0  0  0  0  0  0  0  0  0  0  0  0
   26.6063    9.7451    2.2275 C   0  0  0  0  0  0  0  0  0  0  0  0
   26.6061    8.9882    3.4079 C   0  0  0  0  0  0  0  0  0  0  0  0
   27.3126    6.9527    4.6936 C   0  0  0  0  0  0  0  0  0  0  0  0
   26.0025    6.1921    4.6865 C   0  0  0  0  0  0  0  0  0  0  0  0
   25.6808    5.8090    6.1003 C   0  0  0  0  0  0  0  0  0  0  0  0
   26.0825    4.9768    3.7997 C   0  0  0  0  0  0  0  0  0  0  0  0
  1  2  2  0  0  0
  1  6  1  0  0  0
  1  7  1  0  0  0
  2  3  1  0  0  0
  3  4  2  0  0  0
  4  5  1  0  0  0
  5  6  2  0  0  0
  7  8  1  0  0  0
  8  9  1  0  0  0
  8 10  1  0  0  0
M  END
> <minimizedAffinity>
-6.71329

$$$$
184L_I4B_A_401


 10 10  0  0  0  0  0  0  0  0999 V2000
   26.5031    6.9628    4.0021 C   0  0  0  0  0  0  0  0  0  0  0  0
   25.8361    6.2625    4.9769 C   0  0  0  0  0  0  0  0  0  0  0  0
   25.7382    4.8522    4.8994 C   0  0  0  0  0  0  0  0  0  0  0  0
   26.2735    4.1920    3.8128 C   0  0  0  0  0  0  0  0  0  0  0  0
   26.9685    4.9014    2.8376 C   0  0  0  0  0  0  0  0  0  0  0  0
   27.0943    6.2943    2.9385 C   0  0  0  0  0  0  0  0  0  0  0  0
   26.5586    8.4543    4.0973 C   0  0  0  0  0  0  0  0  0  0  0  0
   27.8715    8.9127    3.4967 C   0  0  0  0  0  0  0  0  0  0  0  0
   28.6782    9.5590    4.5833 C   0  0  0  0  0  0  0  0  0  0  0  0
   27.6443    9.8638    2.3507 C   0  0  0  0  0  0  0  0  0  0  0  0
  1  2  2  0  0  0
  1  6  1  0  0  0
  1  7  1  0  0  0
  2  3  1  0  0  0
  3  4  2  0  0  0
  4  5  1  0  0  0
  5  6  2  0  0  0
  7  8  1  0  0  0
  8  9  1  0  0  0
  8 10  1  0  0  0
M  END
> <minimizedAffinity>
-6.42266

$$$$
184L_I4B_A_401


 10 10  0  0  0  0  0  0  0  0999 V2000
   26.4792    7.2094    4.2017 C   0  0  0  0  0  0  0  0  0  0  0  0
   26.4950    7.3636    5.5661 C   0  0  0  0  0  0  0  0  0  0  0  0
   26.1211    6.2886    6.4083 C   0  0  0  0  0  0  0  0  0  0  0  0
   25.6930    5.1028    5.8480 C   0  0  0  0  0  0  0  0  0  0  0  0
   25.6994    4.9414    4.4656 C   0  0  0  0  0  0  0  0  0  0  0  0
   26.1060    5.9972    3.6373 C   0  0  0  0  0  0  0  0  0  0  0  0
   26.8477    8.3757    3.3411 C   0  0  0  0  0  0  0  0  0  0  0  0
   27.8363    7.8941    2.2992 C   0  0  0  0  0  0  0  0  0  0  0  0
   29.1826    7.7873    2.9515 C   0  0  0  0  0  0  0  0  0  0  0  0
   27.8789    8.8259    1.1162 C   0  0  0  0  0  0  0  0  0  0  0  0
  1  2  2  0  0  0
  1  6  1  0  0  0
  1  7  1  0  0  0
  2  3  1  0  0  0
  3  4  2  0  0  0
  4  5  1  0  0  0
  5  6  2  0  0  0
  7  8  1  0  0  0
  8  9  1  0  0  0
  8 10  1  0  0  0
M  END
> <minimizedAffinity>
-6.11533

$$$$
184L_I4B_A_401


 10 10  0  0  0  0  0  0  0  0999 V2000
   27.4728    7.1286    2.8048 C   0  0  0  0  0  0  0  0  0  0  0  0
   27.4222    7.9607    1.7136 C   0  0  0  0  0  0  0  0  0  0  0  0
   27.7378    9.3341    1.8506 C   0  0  0  0  0  0  0  0  0  0  0  0
   28.0469    9.8400    3.0963 C   0  0  0  0  0  0  0  0  0  0  0  0
   28.1195    8.9905    4.1965 C   0  0  0  0  0  0  0  0  0  0  0  0
   27.8421    7.6240    4.0480 C   0  0  0  0  0  0  0  0  0  0  0  0
   27.1008    5.6904    2.6313 C   0  0  0  0  0  0  0  0  0  0  0  0
   26.4717    5.2110    3.9233 C   0  0  0  0  0  0  0  0  0  0  0  0
   26.5859    3.7163    3.9682 C   0  0  0  0  0  0  0  0  0  0  0  0
   25.0338    5.6487    4.0248 C   0  0  0  0  0  0  0  0  0  0  0  0
  1  2  2  0  0  0
  1  6  1  0  0  0
  1  7  1  0  0  0
  2  3  1  0  0  0
  3  4  2  0  0  0
  4  5  1  0  0  0
  5  6  2  0  0  0
  7  8  1  0  0  0
  8  9  1  0  0  0
  8 10  1  0  0  0
M  END
> <minimizedAffinity>
-5.14778

$$$$
184L_I4B_A_401


 10 10  0  0  0  0  0  0  0  0999 V2000
   27.4684    7.2033    2.7544 C   0  0  0  0  0  0  0  0  0  0  0  0
   28.1311    7.5808    3.8963 C   0  0  0  0  0  0  0  0  0  0  0  0
   28.4234    8.9461    4.1312 C   0  0  0  0  0  0  0  0  0  0  0  0
   28.0829    9.8876    3.1821 C   0  0  0  0  0  0  0  0  0  0  0  0
   27.3913    9.5055    2.0362 C   0  0  0  0  0  0  0  0  0  0  0  0
   27.0716    8.1565    1.8262 C   0  0  0  0  0  0  0  0  0  0  0  0
   27.2054    5.7495    2.5218 C   0  0  0  0  0  0  0  0  0  0  0  0
   26.5627    5.1847    3.7719 C   0  0  0  0  0  0  0  0  0  0  0  0
   26.6075    3.6884    3.6812 C   0  0  0  0  0  0  0  0  0  0  0  0
   25.1473    5.6768    3.9271 C   0  0  0  0  0  0  0  0  0  0  0  0
  1  2  2  0  0  0
  1  6  1  0  0  0
  1  7  1  0  0  0
  2  3  1  0  0  0
  3  4  2  0  0  0
  4  5  1  0  0  0
  5  6  2  0  0  0
  7  8  1  0  0  0
  8  9  1  0  0  0
  8 10  1  0  0  0
M  END
> <minimizedAffinity>
-4.89342

$$$$
184L_I4B_A_401


 10 10  0  0  0  0  0  0  0  0999 V2000
   27.1572    7.2870    3.0578 C   0  0  0  0  0  0  0  0  0  0  0  0
   26.9616    7.2634    4.4168 C   0  0  0  0  0  0  0  0  0  0  0  0
   27.4060    8.3423    5.2187 C   0  0  0  0  0  0  0  0  0  0  0  0
   28.0810    9.3928    4.6321 C   0  0  0  0  0  0  0  0  0  0  0  0
   28.2581    9.4252    3.2520 C   0  0  0  0  0  0  0  0  0  0  0  0
   27.7831    8.3715    2.4581 C   0  0  0  0  0  0  0  0  0  0  0  0
   26.7054    6.1157    2.2449 C   0  0  0  0  0  0  0  0  0  0  0  0
   27.2125    4.8565    2.9172 C   0  0  0  0  0  0  0  0  0  0  0  0
   27.6249    3.8921    1.8451 C   0  0  0  0  0  0  0  0  0  0  0  0
   26.1608    4.2552    3.8127 C   0  0  0  0  0  0  0  0  0  0  0  0
  1  2  2  0  0  0
  1  6  1  0  0  0
  1  7  1  0  0  0
  2  3  1  0  0  0
  3  4  2  0  0  0
  4  5  1  0  0  0
  5  6  2  0  0  0
  7  8  1  0  0  0
  8  9  1  0  0  0
  8 10  1  0  0  0
M  END
> <minimizedAffinity>
-4.29952

$$$$
