3L4X_NR3_A_1001


 34 34  0  0  0  0  0  0  0  0999 V2000
    2.7573  -20.8766   21.0145 C   0  0  0  0  0  0  0  0  0  0  0  0
    2.9087  -19.0658   22.6343 O   0  0  0  0  0  0  0  0  0  0  0  0
    3.1280  -19.3940   21.2589 C   0  0  0  0  0  0  0  0  0  0  0  0
    3.1414  -18.1364   22.7860 H   0  0  0  0  0  0  0  0  0  0  0  0
    2.3324  -18.4547   20.3526 C   0  0  0  0  0  0  0  0  0  0  0  0
   -0.9167  -14.8083   20.7511 O   0  0  0  0  0  0  0  0  0  0  0  0
    0.2049  -14.8264   18.1036 O   0  0  0  0  0  0  0  0  0  0  0  0
    1.1994  -16.0143   21.5089 C   0  0  0  0  0  0  0  0  0  0  0  0
    0.2206  -15.6654   20.3678 C   0  0  0  0  0  0  0  0  0  0  0  0
    1.0522  -14.9948   19.2491 C   0  0  0  0  0  0  0  0  0  0  0  0
    2.1541  -16.0382   18.9288 C   0  0  0  0  0  0  0  0  0  0  0  0
    2.6339  -16.6912   20.5656 S   0  0  0  0  0  0  0  0  0  0  0  0
   -1.4271  -15.2427   21.4523 H   0  0  0  0  0  0  0  0  0  0  0  0
   -0.4842  -14.1738   18.3042 H   0  0  0  0  0  0  0  0  0  0  0  0
    3.9749  -14.3656   18.7606 O   0  0  0  0  0  0  0  0  0  0  0  0
    3.3438  -15.4939   18.1223 C   0  0  0  0  0  0  0  0  0  0  0  0
    4.7167  -14.0591   18.2159 H   0  0  0  0  0  0  0  0  0  0  0  0
    3.9883  -21.7489   22.9165 O   0  0  0  0  0  0  0  0  0  0  0  0
    2.6647  -21.5402   22.4236 C   0  0  0  0  0  0  0  0  0  0  0  0
    3.9454  -22.1616   23.7933 H   0  0  0  0  0  0  0  0  0  0  0  0
    2.6598  -23.9320   22.0746 O   0  0  0  0  0  0  0  0  0  0  0  0
    1.8770  -22.8490   22.5836 C   0  0  0  0  0  0  0  0  0  0  0  0
    2.1668  -24.7616   22.1733 H   0  0  0  0  0  0  0  0  0  0  0  0
   -0.0349  -23.5063   24.0149 O   0  0  0  0  0  0  0  0  0  0  0  0
    1.3770  -23.1636   24.0118 C   0  0  0  0  0  0  0  0  0  0  0  0
   -0.3191  -23.6980   24.9223 H   0  0  0  0  0  0  0  0  0  0  0  0
    3.5320  -23.8431   25.0308 O   0  0  0  0  0  0  0  0  0  0  0  0
    2.2086  -24.3046   24.6498 C   0  0  0  0  0  0  0  0  0  0  0  0
    4.0287  -24.5764   25.4263 H   0  0  0  0  0  0  0  0  0  0  0  0
    3.7680  -21.4494   20.1587 O   0  0  0  0  0  0  0  0  0  0  0  0
    2.6134  -21.1553   18.0557 O   0  0  0  0  0  0  0  0  0  0  0  0
    4.7194  -22.3796   18.1484 O   0  0  0  0  0  0  0  0  0  0  0  0
    2.7036  -23.2558   19.1150 O   0  0  0  0  0  0  0  0  0  0  0  0
    3.4435  -22.0643   18.8829 S   0  0  0  0  0  0  0  0  0  0  0  0
 27 28  1  0  0  0
 15 16  1  0  0  0
 24 25  1  0  0  0
  6  9  1  0  0  0
  2  3  1  0  0  0
 21 22  1  0  0  0
  7 10  1  0  0  0
 18 19  1  0  0  0
 31 34  2  0  0  0
 32 34  1  0  0  0
 33 34  2  0  0  0
 28 25  1  0  0  0
 16 11  1  0  0  0
  8  9  1  0  0  0
  8 12  1  0  0  0
  5  3  1  0  0  0
  5 12  1  0  0  0
 30  1  1  0  0  0
 30 34  1  0  0  0
 25 22  1  0  0  0
  9 10  1  0  0  0
  3  1  1  0  0  0
 22 19  1  0  0  0
 10 11  1  0  0  0
 19  1  1  0  0  0
 11 12  1  0  0  0
 27 29  1  0  0  0
 15 17  1  0  0  0
 24 26  1  0  0  0
  6 13  1  0  0  0
  2  4  1  0  0  0
 21 23  1  0  0  0
  7 14  1  0  0  0
 18 20  1  0  0  0
M  CHG 1  12   1
M  CHG 1  32  -1
M  END
> <minimizedAffinity>
-7.33873

$$$$
3L4X_NR3_A_1001


 34 34  0  0  0  0  0  0  0  0999 V2000
    3.0818  -20.9754   21.3908 C   0  0  0  0  0  0  0  0  0  0  0  0
    5.1823  -20.7711   22.6039 O   0  0  0  0  0  0  0  0  0  0  0  0
    4.1560  -21.6987   22.2383 C   0  0  0  0  0  0  0  0  0  0  0  0
    5.8548  -21.2257   23.1349 H   0  0  0  0  0  0  0  0  0  0  0  0
    4.7552  -22.8919   21.4942 C   0  0  0  0  0  0  0  0  0  0  0  0
    2.4596  -26.7381   23.4815 O   0  0  0  0  0  0  0  0  0  0  0  0
    2.9321  -24.7407   25.4952 O   0  0  0  0  0  0  0  0  0  0  0  0
    4.4127  -25.7134   22.2000 C   0  0  0  0  0  0  0  0  0  0  0  0
    3.2908  -25.5428   23.2459 C   0  0  0  0  0  0  0  0  0  0  0  0
    3.9651  -25.0836   24.5602 C   0  0  0  0  0  0  0  0  0  0  0  0
    4.7399  -23.8033   24.1528 C   0  0  0  0  0  0  0  0  0  0  0  0
    5.4372  -24.2110   22.5147 S   0  0  0  0  0  0  0  0  0  0  0  0
    2.0446  -27.0126   22.6488 H   0  0  0  0  0  0  0  0  0  0  0  0
    2.4477  -25.5416   25.7498 H   0  0  0  0  0  0  0  0  0  0  0  0
    6.7036  -22.3626   24.6107 O   0  0  0  0  0  0  0  0  0  0  0  0
    5.8013  -23.3417   25.1640 C   0  0  0  0  0  0  0  0  0  0  0  0
    7.3521  -22.1036   25.2840 H   0  0  0  0  0  0  0  0  0  0  0  0
    2.7026  -19.1965   22.9988 O   0  0  0  0  0  0  0  0  0  0  0  0
    3.2356  -19.4537   21.6995 C   0  0  0  0  0  0  0  0  0  0  0  0
    2.7919  -18.2527   23.2039 H   0  0  0  0  0  0  0  0  0  0  0  0
    1.3574  -18.8833   20.2888 O   0  0  0  0  0  0  0  0  0  0  0  0
    2.6421  -18.4285   20.7218 C   0  0  0  0  0  0  0  0  0  0  0  0
    0.9778  -18.2392   19.6708 H   0  0  0  0  0  0  0  0  0  0  0  0
    3.4739  -16.1038   20.5224 O   0  0  0  0  0  0  0  0  0  0  0  0
    2.5583  -16.9746   21.2395 C   0  0  0  0  0  0  0  0  0  0  0  0
    3.3990  -15.2007   20.8684 H   0  0  0  0  0  0  0  0  0  0  0  0
    0.7603  -15.6376   22.2995 O   0  0  0  0  0  0  0  0  0  0  0  0
    1.1101  -16.4338   21.1362 C   0  0  0  0  0  0  0  0  0  0  0  0
   -0.1491  -15.3131   22.2077 H   0  0  0  0  0  0  0  0  0  0  0  0
    1.7951  -21.5221   21.7482 O   0  0  0  0  0  0  0  0  0  0  0  0
    1.1523  -21.7793   19.4323 O   0  0  0  0  0  0  0  0  0  0  0  0
    1.4428  -23.7349   20.8587 O   0  0  0  0  0  0  0  0  0  0  0  0
   -0.3735  -22.1966   21.1760 O   0  0  0  0  0  0  0  0  0  0  0  0
    0.9974  -22.2973   20.8134 S   0  0  0  0  0  0  0  0  0  0  0  0
 27 28  1  0  0  0
 15 16  1  0  0  0
 24 25  1  0  0  0
  6  9  1  0  0  0
  2  3  1  0  0  0
 21 22  1  0  0  0
  7 10  1  0  0  0
 18 19  1  0  0  0
 31 34  2  0  0  0
 32 34  1  0  0  0
 33 34  2  0  0  0
 28 25  1  0  0  0
 16 11  1  0  0  0
  8  9  1  0  0  0
  8 12  1  0  0  0
  5  3  1  0  0  0
  5 12  1  0  0  0
 30  1  1  0  0  0
 30 34  1  0  0  0
 25 22  1  0  0  0
  9 10  1  0  0  0
  3  1  1  0  0  0
 22 19  1  0  0  0
 10 11  1  0  0  0
 19  1  1  0  0  0
 11 12  1  0  0  0
 27 29  1  0  0  0
 15 17  1  0  0  0
 24 26  1  0  0  0
  6 13  1  0  0  0
  2  4  1  0  0  0
 21 23  1  0  0  0
  7 14  1  0  0  0
 18 20  1  0  0  0
M  CHG 1  12   1
M  CHG 1  32  -1
M  END
> <minimizedAffinity>
-7.03636

$$$$
3L4X_NR3_A_1001


 34 34  0  0  0  0  0  0  0  0999 V2000
    2.9385  -20.7811   21.1128 C   0  0  0  0  0  0  0  0  0  0  0  0
    2.8615  -19.0074   22.7782 O   0  0  0  0  0  0  0  0  0  0  0  0
    3.1641  -19.2783   21.4061 C   0  0  0  0  0  0  0  0  0  0  0  0
    3.0033  -18.0653   22.9606 H   0  0  0  0  0  0  0  0  0  0  0  0
    2.3240  -18.3901   20.4887 C   0  0  0  0  0  0  0  0  0  0  0  0
   -0.9802  -14.7771   20.6897 O   0  0  0  0  0  0  0  0  0  0  0  0
    0.1672  -14.9001   18.0561 O   0  0  0  0  0  0  0  0  0  0  0  0
    1.1454  -15.9161   21.5213 C   0  0  0  0  0  0  0  0  0  0  0  0
    0.1729  -15.6342   20.3566 C   0  0  0  0  0  0  0  0  0  0  0  0
    1.0057  -15.0034   19.2159 C   0  0  0  0  0  0  0  0  0  0  0  0
    2.1253  -16.0442   18.9538 C   0  0  0  0  0  0  0  0  0  0  0  0
    2.5984  -16.6144   20.6231 S   0  0  0  0  0  0  0  0  0  0  0  0
   -1.4912  -15.1863   21.4056 H   0  0  0  0  0  0  0  0  0  0  0  0
   -0.5329  -14.2491   18.2203 H   0  0  0  0  0  0  0  0  0  0  0  0
    3.9558  -14.3858   18.7519 O   0  0  0  0  0  0  0  0  0  0  0  0
    3.3150  -15.5200   18.1339 C   0  0  0  0  0  0  0  0  0  0  0  0
    4.6972  -14.0926   18.1994 H   0  0  0  0  0  0  0  0  0  0  0  0
    0.9760  -21.4956   19.8750 O   0  0  0  0  0  0  0  0  0  0  0  0
    2.2412  -20.8526   19.7188 C   0  0  0  0  0  0  0  0  0  0  0  0
    0.5310  -21.5469   19.0147 H   0  0  0  0  0  0  0  0  0  0  0  0
    3.5637  -22.7417   18.9942 O   0  0  0  0  0  0  0  0  0  0  0  0
    2.9792  -21.5159   18.5465 C   0  0  0  0  0  0  0  0  0  0  0  0
    4.0314  -23.1651   18.2574 H   0  0  0  0  0  0  0  0  0  0  0  0
    1.0822  -20.7615   17.1436 O   0  0  0  0  0  0  0  0  0  0  0  0
    2.1418  -21.7477   17.2683 C   0  0  0  0  0  0  0  0  0  0  0  0
    0.5753  -20.9321   16.3344 H   0  0  0  0  0  0  0  0  0  0  0  0
    4.4472  -21.6420   16.3637 O   0  0  0  0  0  0  0  0  0  0  0  0
    3.0420  -21.7319   16.0074 C   0  0  0  0  0  0  0  0  0  0  0  0
    4.9855  -21.6341   15.5568 H   0  0  0  0  0  0  0  0  0  0  0  0
    2.1542  -21.3292   22.1928 O   0  0  0  0  0  0  0  0  0  0  0  0
    1.4734  -22.9496   23.8521 O   0  0  0  0  0  0  0  0  0  0  0  0
    2.2863  -23.6795   21.6728 O   0  0  0  0  0  0  0  0  0  0  0  0
    3.7405  -22.6592   23.2882 O   0  0  0  0  0  0  0  0  0  0  0  0
    2.4228  -22.6418   22.7551 S   0  0  0  0  0  0  0  0  0  0  0  0
 27 28  1  0  0  0
 15 16  1  0  0  0
 24 25  1  0  0  0
  6  9  1  0  0  0
  2  3  1  0  0  0
 21 22  1  0  0  0
  7 10  1  0  0  0
 18 19  1  0  0  0
 31 34  2  0  0  0
 32 34  1  0  0  0
 33 34  2  0  0  0
 28 25  1  0  0  0
 16 11  1  0  0  0
  8  9  1  0  0  0
  8 12  1  0  0  0
  5  3  1  0  0  0
  5 12  1  0  0  0
 30  1  1  0  0  0
 30 34  1  0  0  0
 25 22  1  0  0  0
  9 10  1  0  0  0
  3  1  1  0  0  0
 22 19  1  0  0  0
 10 11  1  0  0  0
 19  1  1  0  0  0
 11 12  1  0  0  0
 27 29  1  0  0  0
 15 17  1  0  0  0
 24 26  1  0  0  0
  6 13  1  0  0  0
  2  4  1  0  0  0
 21 23  1  0  0  0
  7 14  1  0  0  0
 18 20  1  0  0  0
M  CHG 1  12   1
M  CHG 1  32  -1
M  END
> <minimizedAffinity>
-7.02835

$$$$
3L4X_NR3_A_1001


 34 34  0  0  0  0  0  0  0  0999 V2000
    2.1716  -22.5074   22.2344 C   0  0  0  0  0  0  0  0  0  0  0  0
    4.3377  -21.4863   22.6711 O   0  0  0  0  0  0  0  0  0  0  0  0
    3.6123  -22.7165   22.7596 C   0  0  0  0  0  0  0  0  0  0  0  0
    5.2404  -21.6188   23.0006 H   0  0  0  0  0  0  0  0  0  0  0  0
    4.3394  -23.8212   21.9933 C   0  0  0  0  0  0  0  0  0  0  0  0
    3.8814  -27.7530   24.8819 O   0  0  0  0  0  0  0  0  0  0  0  0
    4.1898  -25.3923   26.4942 O   0  0  0  0  0  0  0  0  0  0  0  0
    5.0579  -26.4688   23.0181 C   0  0  0  0  0  0  0  0  0  0  0  0
    4.2242  -26.4347   24.3163 C   0  0  0  0  0  0  0  0  0  0  0  0
    5.0210  -25.5950   25.3424 C   0  0  0  0  0  0  0  0  0  0  0  0
    5.2445  -24.2405   24.6207 C   0  0  0  0  0  0  0  0  0  0  0  0
    5.6172  -24.7143   22.8967 S   0  0  0  0  0  0  0  0  0  0  0  0
    3.3828  -28.2660   24.2268 H   0  0  0  0  0  0  0  0  0  0  0  0
    4.0501  -26.2396   26.9454 H   0  0  0  0  0  0  0  0  0  0  0  0
    6.6178  -22.1852   24.4437 O   0  0  0  0  0  0  0  0  0  0  0  0
    6.3241  -23.3449   25.2487 C   0  0  0  0  0  0  0  0  0  0  0  0
    7.3019  -21.6536   24.8799 H   0  0  0  0  0  0  0  0  0  0  0  0
    2.3143  -20.2390   21.3812 O   0  0  0  0  0  0  0  0  0  0  0  0
    2.2967  -21.6053   20.9674 C   0  0  0  0  0  0  0  0  0  0  0  0
    2.3918  -19.6662   20.6022 H   0  0  0  0  0  0  0  0  0  0  0  0
   -0.0486  -21.6208   20.3824 O   0  0  0  0  0  0  0  0  0  0  0  0
    1.2667  -21.7553   19.8379 C   0  0  0  0  0  0  0  0  0  0  0  0
   -0.7034  -21.7148   19.6729 H   0  0  0  0  0  0  0  0  0  0  0  0
    2.8469  -20.4393   18.4568 O   0  0  0  0  0  0  0  0  0  0  0  0
    1.4532  -20.8127   18.6273 C   0  0  0  0  0  0  0  0  0  0  0  0
    2.9323  -19.8493   17.6916 H   0  0  0  0  0  0  0  0  0  0  0  0
   -0.0045  -22.5525   17.6311 O   0  0  0  0  0  0  0  0  0  0  0  0
    0.9086  -21.4636   17.3310 C   0  0  0  0  0  0  0  0  0  0  0  0
   -0.3287  -22.9401   16.8032 H   0  0  0  0  0  0  0  0  0  0  0  0
    1.3935  -21.9226   23.2996 O   0  0  0  0  0  0  0  0  0  0  0  0
   -0.7191  -23.0106   22.8572 O   0  0  0  0  0  0  0  0  0  0  0  0
    0.7505  -23.8351   24.6189 O   0  0  0  0  0  0  0  0  0  0  0  0
   -0.3900  -21.7303   24.8053 O   0  0  0  0  0  0  0  0  0  0  0  0
    0.2601  -22.6087   23.8961 S   0  0  0  0  0  0  0  0  0  0  0  0
 27 28  1  0  0  0
 15 16  1  0  0  0
 24 25  1  0  0  0
  6  9  1  0  0  0
  2  3  1  0  0  0
 21 22  1  0  0  0
  7 10  1  0  0  0
 18 19  1  0  0  0
 31 34  2  0  0  0
 32 34  1  0  0  0
 33 34  2  0  0  0
 28 25  1  0  0  0
 16 11  1  0  0  0
  8  9  1  0  0  0
  8 12  1  0  0  0
  5  3  1  0  0  0
  5 12  1  0  0  0
 30  1  1  0  0  0
 30 34  1  0  0  0
 25 22  1  0  0  0
  9 10  1  0  0  0
  3  1  1  0  0  0
 22 19  1  0  0  0
 10 11  1  0  0  0
 19  1  1  0  0  0
 11 12  1  0  0  0
 27 29  1  0  0  0
 15 17  1  0  0  0
 24 26  1  0  0  0
  6 13  1  0  0  0
  2  4  1  0  0  0
 21 23  1  0  0  0
  7 14  1  0  0  0
 18 20  1  0  0  0
M  CHG 1  12   1
M  CHG 1  32  -1
M  END
> <minimizedAffinity>
-6.82051

$$$$
3L4X_NR3_A_1001


 34 34  0  0  0  0  0  0  0  0999 V2000
    2.1172  -22.6995   22.5777 C   0  0  0  0  0  0  0  0  0  0  0  0
    0.3281  -24.3149   22.9170 O   0  0  0  0  0  0  0  0  0  0  0  0
    0.5916  -22.9578   22.5478 C   0  0  0  0  0  0  0  0  0  0  0  0
   -0.6283  -24.4753   22.8979 H   0  0  0  0  0  0  0  0  0  0  0  0
   -0.0076  -22.6521   21.1752 C   0  0  0  0  0  0  0  0  0  0  0  0
    1.4340  -21.6303   16.6046 O   0  0  0  0  0  0  0  0  0  0  0  0
   -1.3276  -22.4310   16.5972 O   0  0  0  0  0  0  0  0  0  0  0  0
    1.6643  -22.9307   18.7870 C   0  0  0  0  0  0  0  0  0  0  0  0
    0.7544  -22.1774   17.7938 C   0  0  0  0  0  0  0  0  0  0  0  0
   -0.3658  -23.1584   17.3748 C   0  0  0  0  0  0  0  0  0  0  0  0
   -1.0065  -23.5876   18.7205 C   0  0  0  0  0  0  0  0  0  0  0  0
    0.4190  -23.7893   19.8444 S   0  0  0  0  0  0  0  0  0  0  0  0
    2.1324  -21.0181   16.8844 H   0  0  0  0  0  0  0  0  0  0  0  0
   -0.9267  -22.1627   15.7557 H   0  0  0  0  0  0  0  0  0  0  0  0
   -2.0993  -25.2886   17.2874 O   0  0  0  0  0  0  0  0  0  0  0  0
   -1.8965  -24.8381   18.6420 C   0  0  0  0  0  0  0  0  0  0  0  0
   -2.6648  -26.0767   17.2900 H   0  0  0  0  0  0  0  0  0  0  0  0
    2.2741  -23.5179   24.8579 O   0  0  0  0  0  0  0  0  0  0  0  0
    2.7230  -23.7787   23.5279 C   0  0  0  0  0  0  0  0  0  0  0  0
    2.6438  -24.1824   25.4601 H   0  0  0  0  0  0  0  0  0  0  0  0
    4.8458  -23.1630   22.5495 O   0  0  0  0  0  0  0  0  0  0  0  0
    4.2458  -23.9758   23.5615 C   0  0  0  0  0  0  0  0  0  0  0  0
    5.8081  -23.2836   22.5663 H   0  0  0  0  0  0  0  0  0  0  0  0
    4.6708  -24.8286   25.8480 O   0  0  0  0  0  0  0  0  0  0  0  0
    4.9261  -23.7334   24.9280 C   0  0  0  0  0  0  0  0  0  0  0  0
    5.1091  -24.6486   26.6944 H   0  0  0  0  0  0  0  0  0  0  0  0
    6.7717  -22.1126   24.5953 O   0  0  0  0  0  0  0  0  0  0  0  0
    6.4510  -23.5201   24.7561 C   0  0  0  0  0  0  0  0  0  0  0  0
    7.7305  -22.0095   24.4901 H   0  0  0  0  0  0  0  0  0  0  0  0
    2.3270  -21.3416   23.0184 O   0  0  0  0  0  0  0  0  0  0  0  0
    2.1979  -20.3201   20.8316 O   0  0  0  0  0  0  0  0  0  0  0  0
    2.7225  -18.9741   22.7953 O   0  0  0  0  0  0  0  0  0  0  0  0
    4.2624  -20.5996   21.9281 O   0  0  0  0  0  0  0  0  0  0  0  0
    2.8851  -20.3227   22.1459 S   0  0  0  0  0  0  0  0  0  0  0  0
 27 28  1  0  0  0
 15 16  1  0  0  0
 24 25  1  0  0  0
  6  9  1  0  0  0
  2  3  1  0  0  0
 21 22  1  0  0  0
  7 10  1  0  0  0
 18 19  1  0  0  0
 31 34  2  0  0  0
 32 34  1  0  0  0
 33 34  2  0  0  0
 28 25  1  0  0  0
 16 11  1  0  0  0
  8  9  1  0  0  0
  8 12  1  0  0  0
  5  3  1  0  0  0
  5 12  1  0  0  0
 30  1  1  0  0  0
 30 34  1  0  0  0
 25 22  1  0  0  0
  9 10  1  0  0  0
  3  1  1  0  0  0
 22 19  1  0  0  0
 10 11  1  0  0  0
 19  1  1  0  0  0
 11 12  1  0  0  0
 27 29  1  0  0  0
 15 17  1  0  0  0
 24 26  1  0  0  0
  6 13  1  0  0  0
  2  4  1  0  0  0
 21 23  1  0  0  0
  7 14  1  0  0  0
 18 20  1  0  0  0
M  CHG 1  12   1
M  CHG 1  32  -1
M  END
> <minimizedAffinity>
-6.42843

$$$$
3L4X_NR3_A_1001


 34 34  0  0  0  0  0  0  0  0999 V2000
    1.7261  -21.2255   19.0676 C   0  0  0  0  0  0  0  0  0  0  0  0
    3.1028  -20.0453   20.6916 O   0  0  0  0  0  0  0  0  0  0  0  0
    2.6810  -20.0349   19.3244 C   0  0  0  0  0  0  0  0  0  0  0  0
    3.7011  -19.2987   20.8511 H   0  0  0  0  0  0  0  0  0  0  0  0
    2.0251  -18.6983   18.9782 C   0  0  0  0  0  0  0  0  0  0  0  0
   -0.3209  -15.1300   21.3815 O   0  0  0  0  0  0  0  0  0  0  0  0
    0.4232  -14.2110   18.7606 O   0  0  0  0  0  0  0  0  0  0  0  0
    1.5795  -16.8197   21.1801 C   0  0  0  0  0  0  0  0  0  0  0  0
    0.5557  -15.9010   20.4803 C   0  0  0  0  0  0  0  0  0  0  0  0
    1.3574  -14.9508   19.5598 C   0  0  0  0  0  0  0  0  0  0  0  0
    2.1691  -15.9106   18.6514 C   0  0  0  0  0  0  0  0  0  0  0  0
    2.7097  -17.2387   19.7827 S   0  0  0  0  0  0  0  0  0  0  0  0
   -0.8157  -15.7398   21.9510 H   0  0  0  0  0  0  0  0  0  0  0  0
   -0.0843  -13.6108   19.3290 H   0  0  0  0  0  0  0  0  0  0  0  0
    4.2536  -14.5757   18.7712 O   0  0  0  0  0  0  0  0  0  0  0  0
    3.3320  -15.2521   17.8924 C   0  0  0  0  0  0  0  0  0  0  0  0
    4.9667  -14.1779   18.2477 H   0  0  0  0  0  0  0  0  0  0  0  0
    2.4605  -23.5119   19.4236 O   0  0  0  0  0  0  0  0  0  0  0  0
    2.0998  -22.3175   20.1176 C   0  0  0  0  0  0  0  0  0  0  0  0
    2.6955  -24.2003   20.0653 H   0  0  0  0  0  0  0  0  0  0  0  0
    0.5204  -23.9625   20.9191 O   0  0  0  0  0  0  0  0  0  0  0  0
    1.0849  -22.6816   21.2114 C   0  0  0  0  0  0  0  0  0  0  0  0
   -0.1216  -24.1975   21.6072 H   0  0  0  0  0  0  0  0  0  0  0  0
    2.1565  -21.3315   22.9904 O   0  0  0  0  0  0  0  0  0  0  0  0
    1.6149  -22.6392   22.6626 C   0  0  0  0  0  0  0  0  0  0  0  0
    2.4804  -21.3356   23.9047 H   0  0  0  0  0  0  0  0  0  0  0  0
   -0.8139  -22.9288   23.0639 O   0  0  0  0  0  0  0  0  0  0  0  0
    0.5028  -23.0282   23.6688 C   0  0  0  0  0  0  0  0  0  0  0  0
   -1.4885  -23.1775   23.7150 H   0  0  0  0  0  0  0  0  0  0  0  0
    1.8983  -21.6424   17.6970 O   0  0  0  0  0  0  0  0  0  0  0  0
    0.1749  -20.7960   16.2287 O   0  0  0  0  0  0  0  0  0  0  0  0
    1.2481  -22.9362   15.7696 O   0  0  0  0  0  0  0  0  0  0  0  0
   -0.2222  -22.6351   17.6438 O   0  0  0  0  0  0  0  0  0  0  0  0
    0.7734  -22.0021   16.8507 S   0  0  0  0  0  0  0  0  0  0  0  0
 27 28  1  0  0  0
 15 16  1  0  0  0
 24 25  1  0  0  0
  6  9  1  0  0  0
  2  3  1  0  0  0
 21 22  1  0  0  0
  7 10  1  0  0  0
 18 19  1  0  0  0
 31 34  2  0  0  0
 32 34  1  0  0  0
 33 34  2  0  0  0
 28 25  1  0  0  0
 16 11  1  0  0  0
  8  9  1  0  0  0
  8 12  1  0  0  0
  5  3  1  0  0  0
  5 12  1  0  0  0
 30  1  1  0  0  0
 30 34  1  0  0  0
 25 22  1  0  0  0
  9 10  1  0  0  0
  3  1  1  0  0  0
 22 19  1  0  0  0
 10 11  1  0  0  0
 19  1  1  0  0  0
 11 12  1  0  0  0
 27 29  1  0  0  0
 15 17  1  0  0  0
 24 26  1  0  0  0
  6 13  1  0  0  0
  2  4  1  0  0  0
 21 23  1  0  0  0
  7 14  1  0  0  0
 18 20  1  0  0  0
M  CHG 1  12   1
M  CHG 1  32  -1
M  END
> <minimizedAffinity>
-6.30401

$$$$
3L4X_NR3_A_1001


 34 34  0  0  0  0  0  0  0  0999 V2000
    2.8397  -22.7330   22.3479 C   0  0  0  0  0  0  0  0  0  0  0  0
    1.3896  -24.6830   22.4912 O   0  0  0  0  0  0  0  0  0  0  0  0
    1.5219  -23.3960   21.8799 C   0  0  0  0  0  0  0  0  0  0  0  0
    0.5633  -25.0973   22.1970 H   0  0  0  0  0  0  0  0  0  0  0  0
    1.4597  -23.5192   20.3576 C   0  0  0  0  0  0  0  0  0  0  0  0
   -2.2092  -24.9465   17.4396 O   0  0  0  0  0  0  0  0  0  0  0  0
   -0.0615  -23.8818   15.8516 O   0  0  0  0  0  0  0  0  0  0  0  0
   -1.2962  -23.5475   19.3673 C   0  0  0  0  0  0  0  0  0  0  0  0
   -1.0394  -24.2659   18.0258 C   0  0  0  0  0  0  0  0  0  0  0  0
   -0.4809  -23.2069   17.0464 C   0  0  0  0  0  0  0  0  0  0  0  0
    0.7603  -22.6381   17.7821 C   0  0  0  0  0  0  0  0  0  0  0  0
    0.2222  -22.5102   19.5228 S   0  0  0  0  0  0  0  0  0  0  0  0
   -2.5467  -25.6062   18.0655 H   0  0  0  0  0  0  0  0  0  0  0  0
   -0.8380  -24.2374   15.3917 H   0  0  0  0  0  0  0  0  0  0  0  0
    1.5429  -20.3323   18.2429 O   0  0  0  0  0  0  0  0  0  0  0  0
    1.2957  -21.3135   17.2156 C   0  0  0  0  0  0  0  0  0  0  0  0
    1.8782  -19.5173   17.8376 H   0  0  0  0  0  0  0  0  0  0  0  0
    2.8408  -23.3727   24.6899 O   0  0  0  0  0  0  0  0  0  0  0  0
    3.4423  -23.6798   23.4319 C   0  0  0  0  0  0  0  0  0  0  0  0
    3.2069  -23.9548   25.3740 H   0  0  0  0  0  0  0  0  0  0  0  0
    5.4842  -22.3931   23.5662 O   0  0  0  0  0  0  0  0  0  0  0  0
    4.9657  -23.7245   23.6225 C   0  0  0  0  0  0  0  0  0  0  0  0
    6.4465  -22.4156   23.6860 H   0  0  0  0  0  0  0  0  0  0  0  0
    5.3409  -23.6027   26.0680 O   0  0  0  0  0  0  0  0  0  0  0  0
    5.4642  -24.4490   24.8935 C   0  0  0  0  0  0  0  0  0  0  0  0
    5.6606  -24.0831   26.8477 H   0  0  0  0  0  0  0  0  0  0  0  0
    3.8700  -25.7259   26.2979 O   0  0  0  0  0  0  0  0  0  0  0  0
    4.6997  -25.7796   25.1070 C   0  0  0  0  0  0  0  0  0  0  0  0
    3.4046  -26.5700   26.4060 H   0  0  0  0  0  0  0  0  0  0  0  0
    2.5219  -21.4110   22.8309 O   0  0  0  0  0  0  0  0  0  0  0  0
    4.4475  -20.2969   21.8857 O   0  0  0  0  0  0  0  0  0  0  0  0
    2.2479  -20.0416   20.8659 O   0  0  0  0  0  0  0  0  0  0  0  0
    2.7672  -19.0885   23.0078 O   0  0  0  0  0  0  0  0  0  0  0  0
    2.9932  -20.2096   22.1633 S   0  0  0  0  0  0  0  0  0  0  0  0
 27 28  1  0  0  0
 15 16  1  0  0  0
 24 25  1  0  0  0
  6  9  1  0  0  0
  2  3  1  0  0  0
 21 22  1  0  0  0
  7 10  1  0  0  0
 18 19  1  0  0  0
 31 34  2  0  0  0
 32 34  1  0  0  0
 33 34  2  0  0  0
 28 25  1  0  0  0
 16 11  1  0  0  0
  8  9  1  0  0  0
  8 12  1  0  0  0
  5  3  1  0  0  0
  5 12  1  0  0  0
 30  1  1  0  0  0
 30 34  1  0  0  0
 25 22  1  0  0  0
  9 10  1  0  0  0
  3  1  1  0  0  0
 22 19  1  0  0  0
 10 11  1  0  0  0
 19  1  1  0  0  0
 11 12  1  0  0  0
 27 29  1  0  0  0
 15 17  1  0  0  0
 24 26  1  0  0  0
  6 13  1  0  0  0
  2  4  1  0  0  0
 21 23  1  0  0  0
  7 14  1  0  0  0
 18 20  1  0  0  0
M  CHG 1  12   1
M  CHG 1  32  -1
M  END
> <minimizedAffinity>
-6.28444

$$$$
3L4X_NR3_A_1001


 34 34  0  0  0  0  0  0  0  0999 V2000
    2.1475  -22.2908   21.8233 C   0  0  0  0  0  0  0  0  0  0  0  0
    3.5044  -24.2638   22.2608 O   0  0  0  0  0  0  0  0  0  0  0  0
    2.4242  -23.7702   21.4627 C   0  0  0  0  0  0  0  0  0  0  0  0
    3.6766  -25.1910   22.0338 H   0  0  0  0  0  0  0  0  0  0  0  0
    2.7368  -23.9417   19.9764 C   0  0  0  0  0  0  0  0  0  0  0  0
   -0.7185  -22.8116   16.6906 O   0  0  0  0  0  0  0  0  0  0  0  0
   -1.9468  -23.4758   19.2041 O   0  0  0  0  0  0  0  0  0  0  0  0
    1.2767  -24.2069   17.4517 C   0  0  0  0  0  0  0  0  0  0  0  0
    0.0349  -23.3715   17.8282 C   0  0  0  0  0  0  0  0  0  0  0  0
   -0.8761  -24.2793   18.6877 C   0  0  0  0  0  0  0  0  0  0  0  0
    0.0419  -24.7296   19.8539 C   0  0  0  0  0  0  0  0  0  0  0  0
    1.6525  -25.0448   19.0525 S   0  0  0  0  0  0  0  0  0  0  0  0
   -0.1337  -22.2457   16.1627 H   0  0  0  0  0  0  0  0  0  0  0  0
   -2.5207  -23.1943   18.4746 H   0  0  0  0  0  0  0  0  0  0  0  0
   -0.6038  -25.6424   22.0656 O   0  0  0  0  0  0  0  0  0  0  0  0
   -0.4788  -25.9312   20.6585 C   0  0  0  0  0  0  0  0  0  0  0  0
   -0.9344  -26.4280   22.5288 H   0  0  0  0  0  0  0  0  0  0  0  0
    4.3014  -21.4829   22.5994 O   0  0  0  0  0  0  0  0  0  0  0  0
    3.4442  -21.5037   21.4577 C   0  0  0  0  0  0  0  0  0  0  0  0
    5.1126  -20.9960   22.3858 H   0  0  0  0  0  0  0  0  0  0  0  0
    2.8900  -20.1181   19.5562 O   0  0  0  0  0  0  0  0  0  0  0  0
    3.3224  -20.0708   20.9183 C   0  0  0  0  0  0  0  0  0  0  0  0
    2.8113  -19.2153   19.2104 H   0  0  0  0  0  0  0  0  0  0  0  0
    2.7547  -19.1697   23.1548 O   0  0  0  0  0  0  0  0  0  0  0  0
    2.4273  -19.1158   21.7403 C   0  0  0  0  0  0  0  0  0  0  0  0
    2.1782  -18.5617   23.6435 H   0  0  0  0  0  0  0  0  0  0  0  0
    1.3635  -16.8848   21.5542 O   0  0  0  0  0  0  0  0  0  0  0  0
    2.5429  -17.6622   21.2167 C   0  0  0  0  0  0  0  0  0  0  0  0
    1.4635  -15.9816   21.2149 H   0  0  0  0  0  0  0  0  0  0  0  0
    1.7988  -22.2347   23.2224 O   0  0  0  0  0  0  0  0  0  0  0  0
    0.4914  -23.9382   24.3318 O   0  0  0  0  0  0  0  0  0  0  0  0
    0.0280  -21.5765   24.7199 O   0  0  0  0  0  0  0  0  0  0  0  0
   -0.4273  -22.6242   22.6080 O   0  0  0  0  0  0  0  0  0  0  0  0
    0.4764  -22.5942   23.7049 S   0  0  0  0  0  0  0  0  0  0  0  0
 27 28  1  0  0  0
 15 16  1  0  0  0
 24 25  1  0  0  0
  6  9  1  0  0  0
  2  3  1  0  0  0
 21 22  1  0  0  0
  7 10  1  0  0  0
 18 19  1  0  0  0
 31 34  2  0  0  0
 32 34  1  0  0  0
 33 34  2  0  0  0
 28 25  1  0  0  0
 16 11  1  0  0  0
  8  9  1  0  0  0
  8 12  1  0  0  0
  5  3  1  0  0  0
  5 12  1  0  0  0
 30  1  1  0  0  0
 30 34  1  0  0  0
 25 22  1  0  0  0
  9 10  1  0  0  0
  3  1  1  0  0  0
 22 19  1  0  0  0
 10 11  1  0  0  0
 19  1  1  0  0  0
 11 12  1  0  0  0
 27 29  1  0  0  0
 15 17  1  0  0  0
 24 26  1  0  0  0
  6 13  1  0  0  0
  2  4  1  0  0  0
 21 23  1  0  0  0
  7 14  1  0  0  0
 18 20  1  0  0  0
M  CHG 1  12   1
M  CHG 1  32  -1
M  END
> <minimizedAffinity>
-6.18498

$$$$
3L4X_NR3_A_1001


 34 34  0  0  0  0  0  0  0  0999 V2000
    2.2449  -20.5396   20.5776 C   0  0  0  0  0  0  0  0  0  0  0  0
    1.3671  -20.5560   18.3072 O   0  0  0  0  0  0  0  0  0  0  0  0
    1.6158  -19.7090   19.4333 C   0  0  0  0  0  0  0  0  0  0  0  0
    0.9728  -20.0342   17.5909 H   0  0  0  0  0  0  0  0  0  0  0  0
    2.5066  -18.5338   19.0309 C   0  0  0  0  0  0  0  0  0  0  0  0
   -0.6721  -15.2148   20.7317 O   0  0  0  0  0  0  0  0  0  0  0  0
    1.1388  -13.9670   18.8794 O   0  0  0  0  0  0  0  0  0  0  0  0
    1.1334  -16.9792   21.0982 C   0  0  0  0  0  0  0  0  0  0  0  0
    0.5143  -15.8998   20.1853 C   0  0  0  0  0  0  0  0  0  0  0  0
    1.6330  -14.8788   19.8709 C   0  0  0  0  0  0  0  0  0  0  0  0
    2.7652  -15.7446   19.2592 C   0  0  0  0  0  0  0  0  0  0  0  0
    2.7631  -17.2598   20.2790 S   0  0  0  0  0  0  0  0  0  0  0  0
   -1.3630  -15.8681   20.9232 H   0  0  0  0  0  0  0  0  0  0  0  0
    0.4308  -13.4257   19.2622 H   0  0  0  0  0  0  0  0  0  0  0  0
    4.0651  -13.7166   18.6771 O   0  0  0  0  0  0  0  0  0  0  0  0
    4.1396  -15.0596   19.1965 C   0  0  0  0  0  0  0  0  0  0  0  0
    4.9536  -13.3280   18.6571 H   0  0  0  0  0  0  0  0  0  0  0  0
    3.4528  -22.3114   19.4395 O   0  0  0  0  0  0  0  0  0  0  0  0
    3.6277  -21.0321   20.0487 C   0  0  0  0  0  0  0  0  0  0  0  0
    4.3061  -22.6300   19.1057 H   0  0  0  0  0  0  0  0  0  0  0  0
    4.4980  -20.3874   22.2096 O   0  0  0  0  0  0  0  0  0  0  0  0
    4.8132  -21.1178   21.0215 C   0  0  0  0  0  0  0  0  0  0  0  0
    5.2437  -20.4382   22.8279 H   0  0  0  0  0  0  0  0  0  0  0  0
    6.3811  -22.9640   20.5024 O   0  0  0  0  0  0  0  0  0  0  0  0
    5.2952  -22.5440   21.3715 C   0  0  0  0  0  0  0  0  0  0  0  0
    6.6615  -23.8602   20.7455 H   0  0  0  0  0  0  0  0  0  0  0  0
    4.5998  -22.9235   23.7202 O   0  0  0  0  0  0  0  0  0  0  0  0
    5.7300  -22.6316   22.8560 C   0  0  0  0  0  0  0  0  0  0  0  0
    4.9009  -22.9724   24.6410 H   0  0  0  0  0  0  0  0  0  0  0  0
    1.3274  -21.6033   20.9076 O   0  0  0  0  0  0  0  0  0  0  0  0
    0.0302  -22.6303   22.6697 O   0  0  0  0  0  0  0  0  0  0  0  0
    2.1591  -23.5964   21.9787 O   0  0  0  0  0  0  0  0  0  0  0  0
    2.0398  -21.4960   23.1360 O   0  0  0  0  0  0  0  0  0  0  0  0
    1.3916  -22.3156   22.1723 S   0  0  0  0  0  0  0  0  0  0  0  0
 27 28  1  0  0  0
 15 16  1  0  0  0
 24 25  1  0  0  0
  6  9  1  0  0  0
  2  3  1  0  0  0
 21 22  1  0  0  0
  7 10  1  0  0  0
 18 19  1  0  0  0
 31 34  2  0  0  0
 32 34  1  0  0  0
 33 34  2  0  0  0
 28 25  1  0  0  0
 16 11  1  0  0  0
  8  9  1  0  0  0
  8 12  1  0  0  0
  5  3  1  0  0  0
  5 12  1  0  0  0
 30  1  1  0  0  0
 30 34  1  0  0  0
 25 22  1  0  0  0
  9 10  1  0  0  0
  3  1  1  0  0  0
 22 19  1  0  0  0
 10 11  1  0  0  0
 19  1  1  0  0  0
 11 12  1  0  0  0
 27 29  1  0  0  0
 15 17  1  0  0  0
 24 26  1  0  0  0
  6 13  1  0  0  0
  2  4  1  0  0  0
 21 23  1  0  0  0
  7 14  1  0  0  0
 18 20  1  0  0  0
M  CHG 1  12   1
M  CHG 1  32  -1
M  END
> <minimizedAffinity>
-6.16011

$$$$
3L4X_NR3_A_1001


 34 34  0  0  0  0  0  0  0  0999 V2000
    2.4906  -22.0810   22.9696 C   0  0  0  0  0  0  0  0  0  0  0  0
    3.0605  -19.7866   22.3894 O   0  0  0  0  0  0  0  0  0  0  0  0
    2.9364  -21.1072   21.8525 C   0  0  0  0  0  0  0  0  0  0  0  0
    3.3399  -19.1774   21.6882 H   0  0  0  0  0  0  0  0  0  0  0  0
    1.9638  -21.1148   20.6733 C   0  0  0  0  0  0  0  0  0  0  0  0
    1.1551  -21.1636   15.8405 O   0  0  0  0  0  0  0  0  0  0  0  0
   -1.0594  -22.3841   17.2094 O   0  0  0  0  0  0  0  0  0  0  0  0
    2.5673  -21.7566   17.8805 C   0  0  0  0  0  0  0  0  0  0  0  0
    1.1736  -21.4680   17.2835 C   0  0  0  0  0  0  0  0  0  0  0  0
    0.2880  -22.6987   17.5895 C   0  0  0  0  0  0  0  0  0  0  0  0
    0.3706  -22.8420   19.1316 C   0  0  0  0  0  0  0  0  0  0  0  0
    2.1204  -22.4864   19.5155 S   0  0  0  0  0  0  0  0  0  0  0  0
    1.7145  -20.3905   15.6660 H   0  0  0  0  0  0  0  0  0  0  0  0
   -1.1107  -22.2946   16.2449 H   0  0  0  0  0  0  0  0  0  0  0  0
    0.6294  -24.6086   20.8502 O   0  0  0  0  0  0  0  0  0  0  0  0
   -0.1060  -24.1961   19.6806 C   0  0  0  0  0  0  0  0  0  0  0  0
    0.2935  -25.4648   21.1581 H   0  0  0  0  0  0  0  0  0  0  0  0
    2.8812  -24.4310   22.5022 O   0  0  0  0  0  0  0  0  0  0  0  0
    3.5274  -23.2470   22.9702 C   0  0  0  0  0  0  0  0  0  0  0  0
    3.5153  -25.1651   22.4974 H   0  0  0  0  0  0  0  0  0  0  0  0
    3.3975  -24.3105   25.1369 O   0  0  0  0  0  0  0  0  0  0  0  0
    4.2727  -23.5845   24.2700 C   0  0  0  0  0  0  0  0  0  0  0  0
    3.8634  -24.5264   25.9599 H   0  0  0  0  0  0  0  0  0  0  0  0
    5.6885  -25.0053   22.8164 O   0  0  0  0  0  0  0  0  0  0  0  0
    5.6149  -24.3321   24.1018 C   0  0  0  0  0  0  0  0  0  0  0  0
    6.5395  -25.4643   22.7400 H   0  0  0  0  0  0  0  0  0  0  0  0
    6.6433  -22.5145   25.4370 O   0  0  0  0  0  0  0  0  0  0  0  0
    6.8121  -23.3633   24.2706 C   0  0  0  0  0  0  0  0  0  0  0  0
    7.4055  -21.9200   25.5174 H   0  0  0  0  0  0  0  0  0  0  0  0
    1.1386  -22.4947   22.6815 O   0  0  0  0  0  0  0  0  0  0  0  0
    0.5840  -23.9616   24.5209 O   0  0  0  0  0  0  0  0  0  0  0  0
    0.0787  -21.5798   24.6440 O   0  0  0  0  0  0  0  0  0  0  0  0
   -1.0906  -23.0448   23.1433 O   0  0  0  0  0  0  0  0  0  0  0  0
    0.1746  -22.7741   23.7322 S   0  0  0  0  0  0  0  0  0  0  0  0
 27 28  1  0  0  0
 15 16  1  0  0  0
 24 25  1  0  0  0
  6  9  1  0  0  0
  2  3  1  0  0  0
 21 22  1  0  0  0
  7 10  1  0  0  0
 18 19  1  0  0  0
 31 34  2  0  0  0
 32 34  1  0  0  0
 33 34  2  0  0  0
 28 25  1  0  0  0
 16 11  1  0  0  0
  8  9  1  0  0  0
  8 12  1  0  0  0
  5  3  1  0  0  0
  5 12  1  0  0  0
 30  1  1  0  0  0
 30 34  1  0  0  0
 25 22  1  0  0  0
  9 10  1  0  0  0
  3  1  1  0  0  0
 22 19  1  0  0  0
 10 11  1  0  0  0
 19  1  1  0  0  0
 11 12  1  0  0  0
 27 29  1  0  0  0
 15 17  1  0  0  0
 24 26  1  0  0  0
  6 13  1  0  0  0
  2  4  1  0  0  0
 21 23  1  0  0  0
  7 14  1  0  0  0
 18 20  1  0  0  0
M  CHG 1  12   1
M  CHG 1  32  -1
M  END
> <minimizedAffinity>
-6.15953

$$$$
