1D6V_HOP_H_401


 31 33  0  0  0  0  0  0  0  0999 V2000
    8.7211   13.4339   -5.8083 C   0  0  0  0  0  0  0  0  0  0  0  0
    7.6694   12.7884   -6.5568 C   0  0  0  0  0  0  0  0  0  0  0  0
    7.1547   13.3753   -7.7183 C   0  0  0  0  0  0  0  0  0  0  0  0
    7.6680   14.6323   -8.1905 C   0  0  0  0  0  0  0  0  0  0  0  0
    8.6995   15.2728   -7.4365 C   0  0  0  0  0  0  0  0  0  0  0  0
    9.2301   14.6938   -6.2589 C   0  0  0  0  0  0  0  0  0  0  0  0
   10.1012   10.2868   -2.8704 C   0  0  0  0  0  0  0  0  0  0  0  0
   11.1354   11.2635   -3.5423 C   0  0  0  0  0  0  0  0  0  0  0  0
   10.5983   11.9430   -4.8258 C   0  0  0  0  0  0  0  0  0  0  0  0
    9.2771   12.7286   -4.5079 C   0  0  0  0  0  0  0  0  0  0  0  0
    8.2048   11.7306   -3.8852 C   0  0  0  0  0  0  0  0  0  0  0  0
    8.7448   11.0379   -2.5932 C   0  0  0  0  0  0  0  0  0  0  0  0
   11.6216   12.8097   -5.3696 O   0  0  0  0  0  0  0  0  0  0  0  0
   11.8509   13.4889   -4.7161 H   0  0  0  0  0  0  0  0  0  0  0  0
   11.6100    8.4002    0.8177 C   0  0  0  0  0  0  0  0  0  0  0  0
   11.9394    9.7602    0.5220 C   0  0  0  0  0  0  0  0  0  0  0  0
   10.8032    7.6495   -0.0760 C   0  0  0  0  0  0  0  0  0  0  0  0
   10.3158    8.2438   -1.2726 C   0  0  0  0  0  0  0  0  0  0  0  0
   10.6386    9.6134   -1.5875 C   0  0  0  0  0  0  0  0  0  0  0  0
   11.4532   10.3615   -0.6701 C   0  0  0  0  0  0  0  0  0  0  0  0
    7.0934   15.2550   -9.4253 C   0  0  0  0  0  0  0  0  0  0  0  0
    7.5956   16.2937   -9.8744 O   0  0  0  0  0  0  0  0  0  0  0  0
    6.0245   14.6359  -10.0242 N   0  0  0  0  0  0  0  0  0  0  0  0
    5.6924   13.8267   -9.5723 H   0  0  0  0  0  0  0  0  0  0  0  0
    5.2973   15.0262  -11.2707 C   0  0  0  0  0  0  0  0  0  0  0  0
    4.5312   13.7888  -11.8359 C   0  0  0  0  0  0  0  0  0  0  0  0
    4.8819   13.4940  -13.3172 C   0  0  0  0  0  0  0  0  0  0  0  0
    5.3847   12.0943  -13.5957 C   0  0  0  0  0  0  0  0  0  0  0  0
    4.6651   11.0852  -13.5261 O   0  0  0  0  0  0  0  0  0  0  0  0
    6.7403   12.0795  -13.9163 O   0  0  0  0  0  0  0  0  0  0  0  0
    7.2225   12.8821  -13.9504 H   0  0  0  0  0  0  0  0  0  0  0  0
 15 16  1  0  0  0
 15 17  2  0  0  0
 16 20  2  0  0  0
 17 18  1  0  0  0
 18 19  2  0  0  0
 19 20  1  0  0  0
 19  7  1  0  0  0
  7  8  1  0  0  0
  7 12  1  0  0  0
  8  9  1  0  0  0
  9 10  1  0  0  0
  9 13  1  0  0  0
 10 11  1  0  0  0
 10  1  1  0  0  0
 11 12  1  0  0  0
  1  2  2  0  0  0
  1  6  1  0  0  0
  2  3  1  0  0  0
  3  4  2  0  0  0
  4  5  1  0  0  0
  4 21  1  0  0  0
  5  6  2  0  0  0
 21 22  2  0  0  0
 21 23  1  0  0  0
 23 25  1  0  0  0
 25 26  1  0  0  0
 26 27  1  0  0  0
 27 28  1  0  0  0
 28 29  2  0  0  0
 28 30  1  0  0  0
 13 14  1  0  0  0
 23 24  1  0  0  0
 30 31  1  0  0  0
M  END
> <minimizedAffinity>
-11.77000

$$$$
1D6V_HOP_H_401


 31 33  0  0  0  0  0  0  0  0999 V2000
    8.6615   13.4148   -5.8983 C   0  0  0  0  0  0  0  0  0  0  0  0
    9.2106   14.6857   -6.3065 C   0  0  0  0  0  0  0  0  0  0  0  0
    8.7350   15.3353   -7.4512 C   0  0  0  0  0  0  0  0  0  0  0  0
    7.6861   14.7497   -8.2407 C   0  0  0  0  0  0  0  0  0  0  0  0
    7.1570   13.4844   -7.8386 C   0  0  0  0  0  0  0  0  0  0  0  0
    7.6276   12.8132   -6.6846 C   0  0  0  0  0  0  0  0  0  0  0  0
   10.0877   10.3017   -2.9463 C   0  0  0  0  0  0  0  0  0  0  0  0
   11.1057   11.2985   -3.6134 C   0  0  0  0  0  0  0  0  0  0  0  0
   10.5628   11.9646   -4.9015 C   0  0  0  0  0  0  0  0  0  0  0  0
    9.2238   12.7233   -4.5932 C   0  0  0  0  0  0  0  0  0  0  0  0
    8.1683   11.7044   -3.9754 C   0  0  0  0  0  0  0  0  0  0  0  0
    8.7144   11.0252   -2.6788 C   0  0  0  0  0  0  0  0  0  0  0  0
   11.5715   12.8513   -5.4404 O   0  0  0  0  0  0  0  0  0  0  0  0
   11.7826   13.5362   -4.7867 H   0  0  0  0  0  0  0  0  0  0  0  0
   11.6121    8.4529    0.7546 C   0  0  0  0  0  0  0  0  0  0  0  0
   11.9219    9.8165    0.4545 C   0  0  0  0  0  0  0  0  0  0  0  0
   10.8199    7.6865   -0.1389 C   0  0  0  0  0  0  0  0  0  0  0  0
   10.3278    8.2685   -1.3395 C   0  0  0  0  0  0  0  0  0  0  0  0
   10.6308    9.6417   -1.6588 C   0  0  0  0  0  0  0  0  0  0  0  0
   11.4307   10.4057   -0.7416 C   0  0  0  0  0  0  0  0  0  0  0  0
    7.2017   15.4498   -9.4726 C   0  0  0  0  0  0  0  0  0  0  0  0
    7.4977   16.6381   -9.6546 O   0  0  0  0  0  0  0  0  0  0  0  0
    6.4466   14.7342  -10.3683 N   0  0  0  0  0  0  0  0  0  0  0  0
    6.2542   13.8024  -10.1152 H   0  0  0  0  0  0  0  0  0  0  0  0
    5.8774   15.1805  -11.6767 C   0  0  0  0  0  0  0  0  0  0  0  0
    4.5638   14.3896  -11.9702 C   0  0  0  0  0  0  0  0  0  0  0  0
    4.1360   13.4816  -10.7884 C   0  0  0  0  0  0  0  0  0  0  0  0
    3.1618   14.1064   -9.8137 C   0  0  0  0  0  0  0  0  0  0  0  0
    1.9318   13.9563   -9.8887 O   0  0  0  0  0  0  0  0  0  0  0  0
    3.8082   14.8748   -8.8481 O   0  0  0  0  0  0  0  0  0  0  0  0
    4.7427   14.9433   -8.8522 H   0  0  0  0  0  0  0  0  0  0  0  0
 15 16  1  0  0  0
 15 17  2  0  0  0
 16 20  2  0  0  0
 17 18  1  0  0  0
 18 19  2  0  0  0
 19 20  1  0  0  0
 19  7  1  0  0  0
  7  8  1  0  0  0
  7 12  1  0  0  0
  8  9  1  0  0  0
  9 10  1  0  0  0
  9 13  1  0  0  0
 10 11  1  0  0  0
 10  1  1  0  0  0
 11 12  1  0  0  0
  1  2  2  0  0  0
  1  6  1  0  0  0
  2  3  1  0  0  0
  3  4  2  0  0  0
  4  5  1  0  0  0
  4 21  1  0  0  0
  5  6  2  0  0  0
 21 22  2  0  0  0
 21 23  1  0  0  0
 23 25  1  0  0  0
 25 26  1  0  0  0
 26 27  1  0  0  0
 27 28  1  0  0  0
 28 29  2  0  0  0
 28 30  1  0  0  0
 13 14  1  0  0  0
 23 24  1  0  0  0
 30 31  1  0  0  0
M  END
> <minimizedAffinity>
-11.33268

$$$$
1D6V_HOP_H_401


 31 33  0  0  0  0  0  0  0  0999 V2000
    8.7461   13.3731   -5.7072 C   0  0  0  0  0  0  0  0  0  0  0  0
    7.7215   12.7131   -6.4803 C   0  0  0  0  0  0  0  0  0  0  0  0
    7.2145   13.3010   -7.6447 C   0  0  0  0  0  0  0  0  0  0  0  0
    7.7088   14.5734   -8.0954 C   0  0  0  0  0  0  0  0  0  0  0  0
    8.7132   15.2278   -7.3172 C   0  0  0  0  0  0  0  0  0  0  0  0
    9.2356   14.6481   -6.1363 C   0  0  0  0  0  0  0  0  0  0  0  0
   10.1040   10.2224   -2.7628 C   0  0  0  0  0  0  0  0  0  0  0  0
   11.1441   11.1954   -3.4309 C   0  0  0  0  0  0  0  0  0  0  0  0
   10.6144   11.8762   -4.7168 C   0  0  0  0  0  0  0  0  0  0  0  0
    9.2946   12.6664   -4.4044 C   0  0  0  0  0  0  0  0  0  0  0  0
    8.2165   11.6723   -3.7855 C   0  0  0  0  0  0  0  0  0  0  0  0
    8.7491   10.9783   -2.4912 C   0  0  0  0  0  0  0  0  0  0  0  0
   11.6428   12.7393   -5.2569 O   0  0  0  0  0  0  0  0  0  0  0  0
   11.8718   13.4179   -4.6028 H   0  0  0  0  0  0  0  0  0  0  0  0
   11.6396    8.2628    0.8758 C   0  0  0  0  0  0  0  0  0  0  0  0
   10.7865    7.5442   -0.0194 C   0  0  0  0  0  0  0  0  0  0  0  0
   11.9901    9.6102    0.6024 C   0  0  0  0  0  0  0  0  0  0  0  0
   11.4960   10.2564   -0.5641 C   0  0  0  0  0  0  0  0  0  0  0  0
   10.6341    9.5478   -1.4774 C   0  0  0  0  0  0  0  0  0  0  0  0
   10.2917    8.1824   -1.1886 C   0  0  0  0  0  0  0  0  0  0  0  0
    7.1424   15.1963   -9.3338 C   0  0  0  0  0  0  0  0  0  0  0  0
    7.2580   16.4163   -9.5100 O   0  0  0  0  0  0  0  0  0  0  0  0
    6.5174   14.3778  -10.2415 N   0  0  0  0  0  0  0  0  0  0  0  0
    6.4642   13.4268   -9.9923 H   0  0  0  0  0  0  0  0  0  0  0  0
    5.9068   14.7374  -11.5579 C   0  0  0  0  0  0  0  0  0  0  0  0
    6.8164   14.2148  -12.7141 C   0  0  0  0  0  0  0  0  0  0  0  0
    8.0619   15.1088  -12.9456 C   0  0  0  0  0  0  0  0  0  0  0  0
    7.8505   16.2822  -13.8773 C   0  0  0  0  0  0  0  0  0  0  0  0
    7.0106   17.1729  -13.6719 O   0  0  0  0  0  0  0  0  0  0  0  0
    8.6909   16.2270  -14.9870 O   0  0  0  0  0  0  0  0  0  0  0  0
    9.3026   15.5230  -15.0769 H   0  0  0  0  0  0  0  0  0  0  0  0
 15 16  1  0  0  0
 15 17  2  0  0  0
 16 20  2  0  0  0
 17 18  1  0  0  0
 18 19  2  0  0  0
 19 20  1  0  0  0
 19  7  1  0  0  0
  7  8  1  0  0  0
  7 12  1  0  0  0
  8  9  1  0  0  0
  9 10  1  0  0  0
  9 13  1  0  0  0
 10 11  1  0  0  0
 10  1  1  0  0  0
 11 12  1  0  0  0
  1  2  2  0  0  0
  1  6  1  0  0  0
  2  3  1  0  0  0
  3  4  2  0  0  0
  4  5  1  0  0  0
  4 21  1  0  0  0
  5  6  2  0  0  0
 21 22  2  0  0  0
 21 23  1  0  0  0
 23 25  1  0  0  0
 25 26  1  0  0  0
 26 27  1  0  0  0
 27 28  1  0  0  0
 28 29  2  0  0  0
 28 30  1  0  0  0
 13 14  1  0  0  0
 23 24  1  0  0  0
 30 31  1  0  0  0
M  END
> <minimizedAffinity>
-10.77672

$$$$
1D6V_HOP_H_401


 31 33  0  0  0  0  0  0  0  0999 V2000
    8.7181   13.4174   -5.8047 C   0  0  0  0  0  0  0  0  0  0  0  0
    7.6719   12.7678   -6.5574 C   0  0  0  0  0  0  0  0  0  0  0  0
    7.1629   13.3505   -7.7235 C   0  0  0  0  0  0  0  0  0  0  0  0
    7.6764   14.6072   -8.1963 C   0  0  0  0  0  0  0  0  0  0  0  0
    8.7023   15.2518   -7.4382 C   0  0  0  0  0  0  0  0  0  0  0  0
    9.2272   14.6771   -6.2559 C   0  0  0  0  0  0  0  0  0  0  0  0
   10.0755   10.2803   -2.8457 C   0  0  0  0  0  0  0  0  0  0  0  0
   11.1163   11.2472   -3.5216 C   0  0  0  0  0  0  0  0  0  0  0  0
   10.5852   11.9219   -4.8102 C   0  0  0  0  0  0  0  0  0  0  0  0
    9.2680   12.7169   -4.4992 C   0  0  0  0  0  0  0  0  0  0  0  0
    8.1890   11.7287   -3.8723 C   0  0  0  0  0  0  0  0  0  0  0  0
    8.7229   11.0408   -2.5753 C   0  0  0  0  0  0  0  0  0  0  0  0
   11.6143   12.7796   -5.3574 O   0  0  0  0  0  0  0  0  0  0  0  0
   11.8463   13.4614   -4.7076 H   0  0  0  0  0  0  0  0  0  0  0  0
   11.6147    8.3375    0.8005 C   0  0  0  0  0  0  0  0  0  0  0  0
   10.7513    7.6186   -0.0846 C   0  0  0  0  0  0  0  0  0  0  0  0
   11.9744    9.6799    0.5145 C   0  0  0  0  0  0  0  0  0  0  0  0
   11.4792   10.3207   -0.6546 C   0  0  0  0  0  0  0  0  0  0  0  0
   10.6070    9.6117   -1.5578 C   0  0  0  0  0  0  0  0  0  0  0  0
   10.2555    8.2514   -1.2563 C   0  0  0  0  0  0  0  0  0  0  0  0
    7.1078   15.2252   -9.4361 C   0  0  0  0  0  0  0  0  0  0  0  0
    5.8856   15.1878   -9.6304 O   0  0  0  0  0  0  0  0  0  0  0  0
    7.9745   15.8256  -10.3153 N   0  0  0  0  0  0  0  0  0  0  0  0
    8.9275   15.7805  -10.0724 H   0  0  0  0  0  0  0  0  0  0  0  0
    7.6647   16.5388  -11.5922 C   0  0  0  0  0  0  0  0  0  0  0  0
    8.6451   16.0585  -12.7081 C   0  0  0  0  0  0  0  0  0  0  0  0
    9.7437   17.1044  -13.0294 C   0  0  0  0  0  0  0  0  0  0  0  0
   10.3086   17.8364  -11.8316 C   0  0  0  0  0  0  0  0  0  0  0  0
   10.8630   17.2619  -10.8810 O   0  0  0  0  0  0  0  0  0  0  0  0
   10.1138   19.2130  -11.9200 O   0  0  0  0  0  0  0  0  0  0  0  0
    9.6863   19.5785  -12.6694 H   0  0  0  0  0  0  0  0  0  0  0  0
 15 16  1  0  0  0
 15 17  2  0  0  0
 16 20  2  0  0  0
 17 18  1  0  0  0
 18 19  2  0  0  0
 19 20  1  0  0  0
 19  7  1  0  0  0
  7  8  1  0  0  0
  7 12  1  0  0  0
  8  9  1  0  0  0
  9 10  1  0  0  0
  9 13  1  0  0  0
 10 11  1  0  0  0
 10  1  1  0  0  0
 11 12  1  0  0  0
  1  2  2  0  0  0
  1  6  1  0  0  0
  2  3  1  0  0  0
  3  4  2  0  0  0
  4  5  1  0  0  0
  4 21  1  0  0  0
  5  6  2  0  0  0
 21 22  2  0  0  0
 21 23  1  0  0  0
 23 25  1  0  0  0
 25 26  1  0  0  0
 26 27  1  0  0  0
 27 28  1  0  0  0
 28 29  2  0  0  0
 28 30  1  0  0  0
 13 14  1  0  0  0
 23 24  1  0  0  0
 30 31  1  0  0  0
M  END
> <minimizedAffinity>
-10.66186

$$$$
1D6V_HOP_H_401


 31 33  0  0  0  0  0  0  0  0999 V2000
    8.7253   13.3116   -5.7515 C   0  0  0  0  0  0  0  0  0  0  0  0
    9.2615   14.5894   -6.1551 C   0  0  0  0  0  0  0  0  0  0  0  0
    8.7735   15.2424   -7.2925 C   0  0  0  0  0  0  0  0  0  0  0  0
    7.7242   14.6535   -8.0790 C   0  0  0  0  0  0  0  0  0  0  0  0
    7.2077   13.3815   -7.6816 C   0  0  0  0  0  0  0  0  0  0  0  0
    7.6911   12.7067   -6.5350 C   0  0  0  0  0  0  0  0  0  0  0  0
   10.0602   10.1833   -2.7730 C   0  0  0  0  0  0  0  0  0  0  0  0
   11.1158   11.0745   -3.5255 C   0  0  0  0  0  0  0  0  0  0  0  0
   10.5578   11.7435   -4.8057 C   0  0  0  0  0  0  0  0  0  0  0  0
    9.3015   12.6163   -4.4545 C   0  0  0  0  0  0  0  0  0  0  0  0
    8.2042   11.7046   -3.7485 C   0  0  0  0  0  0  0  0  0  0  0  0
    8.7647   11.0226   -2.4595 C   0  0  0  0  0  0  0  0  0  0  0  0
   11.6024   12.5296   -5.4261 O   0  0  0  0  0  0  0  0  0  0  0  0
   11.9020   13.2145   -4.8080 H   0  0  0  0  0  0  0  0  0  0  0  0
   11.6310    8.3275    0.9049 C   0  0  0  0  0  0  0  0  0  0  0  0
   11.9798    9.6752    0.5769 C   0  0  0  0  0  0  0  0  0  0  0  0
   10.7848    7.5790    0.0465 C   0  0  0  0  0  0  0  0  0  0  0  0
   10.2770    8.1632   -1.1465 C   0  0  0  0  0  0  0  0  0  0  0  0
   10.6188    9.5204   -1.4936 C   0  0  0  0  0  0  0  0  0  0  0  0
   11.4733   10.2666   -0.6117 C   0  0  0  0  0  0  0  0  0  0  0  0
    7.2262   15.3575   -9.3033 C   0  0  0  0  0  0  0  0  0  0  0  0
    7.9069   16.2612   -9.8061 O   0  0  0  0  0  0  0  0  0  0  0  0
    6.0231   14.9613   -9.8326 N   0  0  0  0  0  0  0  0  0  0  0  0
    5.5558   14.2471   -9.3419 H   0  0  0  0  0  0  0  0  0  0  0  0
    5.3276   15.4694  -11.0546 C   0  0  0  0  0  0  0  0  0  0  0  0
    4.5629   16.7859  -10.7091 C   0  0  0  0  0  0  0  0  0  0  0  0
    5.1902   18.0352  -11.3799 C   0  0  0  0  0  0  0  0  0  0  0  0
    4.2211   18.9174  -12.1363 C   0  0  0  0  0  0  0  0  0  0  0  0
    3.8698   18.6973  -13.3064 O   0  0  0  0  0  0  0  0  0  0  0  0
    3.7946   20.0013  -11.3721 O   0  0  0  0  0  0  0  0  0  0  0  0
    4.1018   20.1046  -10.4930 H   0  0  0  0  0  0  0  0  0  0  0  0
 15 16  1  0  0  0
 15 17  2  0  0  0
 16 20  2  0  0  0
 17 18  1  0  0  0
 18 19  2  0  0  0
 19 20  1  0  0  0
 19  7  1  0  0  0
  7  8  1  0  0  0
  7 12  1  0  0  0
  8  9  1  0  0  0
  9 10  1  0  0  0
  9 13  1  0  0  0
 10 11  1  0  0  0
 10  1  1  0  0  0
 11 12  1  0  0  0
  1  2  2  0  0  0
  1  6  1  0  0  0
  2  3  1  0  0  0
  3  4  2  0  0  0
  4  5  1  0  0  0
  4 21  1  0  0  0
  5  6  2  0  0  0
 21 22  2  0  0  0
 21 23  1  0  0  0
 23 25  1  0  0  0
 25 26  1  0  0  0
 26 27  1  0  0  0
 27 28  1  0  0  0
 28 29  2  0  0  0
 28 30  1  0  0  0
 13 14  1  0  0  0
 23 24  1  0  0  0
 30 31  1  0  0  0
M  END
> <minimizedAffinity>
-10.45046

$$$$
1D6V_HOP_H_401


 31 33  0  0  0  0  0  0  0  0999 V2000
    8.7020   12.9208   -5.8562 C   0  0  0  0  0  0  0  0  0  0  0  0
    9.3586   14.2052   -5.9040 C   0  0  0  0  0  0  0  0  0  0  0  0
    8.9116   15.2046   -6.7756 C   0  0  0  0  0  0  0  0  0  0  0  0
    7.7854   14.9715   -7.6381 C   0  0  0  0  0  0  0  0  0  0  0  0
    7.1490   13.6924   -7.5957 C   0  0  0  0  0  0  0  0  0  0  0  0
    7.5893   12.6701   -6.7213 C   0  0  0  0  0  0  0  0  0  0  0  0
   10.2697   10.8935   -2.1316 C   0  0  0  0  0  0  0  0  0  0  0  0
    8.8079   10.6131   -2.6410 C   0  0  0  0  0  0  0  0  0  0  0  0
    8.2761   11.6931   -3.6150 C   0  0  0  0  0  0  0  0  0  0  0  0
    9.2366   11.8263   -4.8493 C   0  0  0  0  0  0  0  0  0  0  0  0
   10.7053   12.1721   -4.3422 C   0  0  0  0  0  0  0  0  0  0  0  0
   11.2435   11.0881   -3.3542 C   0  0  0  0  0  0  0  0  0  0  0  0
    6.9288   11.3503   -4.0166 O   0  0  0  0  0  0  0  0  0  0  0  0
    6.9334   10.4883   -4.4612 H   0  0  0  0  0  0  0  0  0  0  0  0
   11.7994    7.7824    0.5921 C   0  0  0  0  0  0  0  0  0  0  0  0
   10.8608    7.4403   -0.4314 C   0  0  0  0  0  0  0  0  0  0  0  0
   12.2373    9.1237    0.7412 C   0  0  0  0  0  0  0  0  0  0  0  0
   11.7463   10.1382   -0.1261 C   0  0  0  0  0  0  0  0  0  0  0  0
   10.7990    9.8118   -1.1631 C   0  0  0  0  0  0  0  0  0  0  0  0
   10.3686    8.4481   -1.3039 C   0  0  0  0  0  0  0  0  0  0  0  0
    7.3315   16.0457   -8.5774 C   0  0  0  0  0  0  0  0  0  0  0  0
    7.7940   17.1887   -8.4655 O   0  0  0  0  0  0  0  0  0  0  0  0
    6.4155   15.7141   -9.5447 N   0  0  0  0  0  0  0  0  0  0  0  0
    6.0994   14.7818   -9.5310 H   0  0  0  0  0  0  0  0  0  0  0  0
    5.8337   16.5795  -10.6160 C   0  0  0  0  0  0  0  0  0  0  0  0
    6.4407   16.1776  -11.9971 C   0  0  0  0  0  0  0  0  0  0  0  0
    5.8447   14.8575  -12.5507 C   0  0  0  0  0  0  0  0  0  0  0  0
    6.7085   13.6296  -12.3617 C   0  0  0  0  0  0  0  0  0  0  0  0
    7.1263   13.2541  -11.2547 O   0  0  0  0  0  0  0  0  0  0  0  0
    6.9870   12.9949  -13.5701 O   0  0  0  0  0  0  0  0  0  0  0  0
    6.6366   13.3352  -14.3697 H   0  0  0  0  0  0  0  0  0  0  0  0
 15 16  1  0  0  0
 15 17  2  0  0  0
 16 20  2  0  0  0
 17 18  1  0  0  0
 18 19  2  0  0  0
 19 20  1  0  0  0
 19  7  1  0  0  0
  7  8  1  0  0  0
  7 12  1  0  0  0
  8  9  1  0  0  0
  9 10  1  0  0  0
  9 13  1  0  0  0
 10 11  1  0  0  0
 10  1  1  0  0  0
 11 12  1  0  0  0
  1  2  2  0  0  0
  1  6  1  0  0  0
  2  3  1  0  0  0
  3  4  2  0  0  0
  4  5  1  0  0  0
  4 21  1  0  0  0
  5  6  2  0  0  0
 21 22  2  0  0  0
 21 23  1  0  0  0
 23 25  1  0  0  0
 25 26  1  0  0  0
 26 27  1  0  0  0
 27 28  1  0  0  0
 28 29  2  0  0  0
 28 30  1  0  0  0
 13 14  1  0  0  0
 23 24  1  0  0  0
 30 31  1  0  0  0
M  END
> <minimizedAffinity>
-10.41001

$$$$
1D6V_HOP_H_401


 31 33  0  0  0  0  0  0  0  0999 V2000
    8.6753   12.9252   -5.8441 C   0  0  0  0  0  0  0  0  0  0  0  0
    9.3216   14.2150   -5.8884 C   0  0  0  0  0  0  0  0  0  0  0  0
    8.8640   15.2145   -6.7544 C   0  0  0  0  0  0  0  0  0  0  0  0
    7.7371   14.9762   -7.6144 C   0  0  0  0  0  0  0  0  0  0  0  0
    7.1108   13.6920   -7.5756 C   0  0  0  0  0  0  0  0  0  0  0  0
    7.5619   12.6695   -6.7069 C   0  0  0  0  0  0  0  0  0  0  0  0
   10.2540   10.8910   -2.1280 C   0  0  0  0  0  0  0  0  0  0  0  0
    8.7997   10.5919   -2.6482 C   0  0  0  0  0  0  0  0  0  0  0  0
    8.2564   11.6717   -3.6159 C   0  0  0  0  0  0  0  0  0  0  0  0
    9.2215   11.8307   -4.8435 C   0  0  0  0  0  0  0  0  0  0  0  0
   10.6816   12.1953   -4.3250 C   0  0  0  0  0  0  0  0  0  0  0  0
   11.2315   11.1115   -3.3433 C   0  0  0  0  0  0  0  0  0  0  0  0
    6.9169   11.3110   -4.0282 O   0  0  0  0  0  0  0  0  0  0  0  0
    6.9378   10.4530   -4.4801 H   0  0  0  0  0  0  0  0  0  0  0  0
   11.7774    7.8308    0.6563 C   0  0  0  0  0  0  0  0  0  0  0  0
   12.2045    9.1900    0.7818 C   0  0  0  0  0  0  0  0  0  0  0  0
   10.8683    7.4587   -0.3675 C   0  0  0  0  0  0  0  0  0  0  0  0
   10.3747    8.4347   -1.2767 C   0  0  0  0  0  0  0  0  0  0  0  0
   10.7950    9.8095   -1.1657 C   0  0  0  0  0  0  0  0  0  0  0  0
   11.7129   10.1711   -0.1209 C   0  0  0  0  0  0  0  0  0  0  0  0
    7.2718   16.0508   -8.5477 C   0  0  0  0  0  0  0  0  0  0  0  0
    7.4499   17.2385   -8.2469 O   0  0  0  0  0  0  0  0  0  0  0  0
    6.6670   15.6715   -9.7203 N   0  0  0  0  0  0  0  0  0  0  0  0
    6.5585   14.7016   -9.8498 H   0  0  0  0  0  0  0  0  0  0  0  0
    6.1510   16.5343  -10.8268 C   0  0  0  0  0  0  0  0  0  0  0  0
    5.2489   15.6823  -11.7742 C   0  0  0  0  0  0  0  0  0  0  0  0
    3.7366   15.8695  -11.4876 C   0  0  0  0  0  0  0  0  0  0  0  0
    3.3703   16.0257  -10.0278 C   0  0  0  0  0  0  0  0  0  0  0  0
    3.6208   15.1673   -9.1667 O   0  0  0  0  0  0  0  0  0  0  0  0
    2.7099   17.2269   -9.7798 O   0  0  0  0  0  0  0  0  0  0  0  0
    2.5546   17.8295  -10.4803 H   0  0  0  0  0  0  0  0  0  0  0  0
 15 16  1  0  0  0
 15 17  2  0  0  0
 16 20  2  0  0  0
 17 18  1  0  0  0
 18 19  2  0  0  0
 19 20  1  0  0  0
 19  7  1  0  0  0
  7  8  1  0  0  0
  7 12  1  0  0  0
  8  9  1  0  0  0
  9 10  1  0  0  0
  9 13  1  0  0  0
 10 11  1  0  0  0
 10  1  1  0  0  0
 11 12  1  0  0  0
  1  2  2  0  0  0
  1  6  1  0  0  0
  2  3  1  0  0  0
  3  4  2  0  0  0
  4  5  1  0  0  0
  4 21  1  0  0  0
  5  6  2  0  0  0
 21 22  2  0  0  0
 21 23  1  0  0  0
 23 25  1  0  0  0
 25 26  1  0  0  0
 26 27  1  0  0  0
 27 28  1  0  0  0
 28 29  2  0  0  0
 28 30  1  0  0  0
 13 14  1  0  0  0
 23 24  1  0  0  0
 30 31  1  0  0  0
M  END
> <minimizedAffinity>
-10.21353

$$$$
1D6V_HOP_H_401


 31 33  0  0  0  0  0  0  0  0999 V2000
    8.7542   12.9492   -5.8371 C   0  0  0  0  0  0  0  0  0  0  0  0
    7.6370   12.6447   -6.6987 C   0  0  0  0  0  0  0  0  0  0  0  0
    7.1572   13.5930   -7.6092 C   0  0  0  0  0  0  0  0  0  0  0  0
    7.7720   14.8888   -7.7063 C   0  0  0  0  0  0  0  0  0  0  0  0
    8.8687   15.1885   -6.8401 C   0  0  0  0  0  0  0  0  0  0  0  0
    9.3654   14.2416   -5.9125 C   0  0  0  0  0  0  0  0  0  0  0  0
   10.2560   10.8828   -2.1069 C   0  0  0  0  0  0  0  0  0  0  0  0
    8.7994   10.6168   -2.6384 C   0  0  0  0  0  0  0  0  0  0  0  0
    8.2888   11.7079   -3.6113 C   0  0  0  0  0  0  0  0  0  0  0  0
    9.2671   11.8434   -4.8313 C   0  0  0  0  0  0  0  0  0  0  0  0
   10.7311   12.1747   -4.3014 C   0  0  0  0  0  0  0  0  0  0  0  0
   11.2479   11.0795   -3.3145 C   0  0  0  0  0  0  0  0  0  0  0  0
    6.9447   11.3777   -4.0340 O   0  0  0  0  0  0  0  0  0  0  0  0
    6.9494   10.5190   -4.4851 H   0  0  0  0  0  0  0  0  0  0  0  0
   11.7237    7.7391    0.6136 C   0  0  0  0  0  0  0  0  0  0  0  0
   10.7485    7.4251   -0.3844 C   0  0  0  0  0  0  0  0  0  0  0  0
   12.2181    9.0631    0.7385 C   0  0  0  0  0  0  0  0  0  0  0  0
   11.7479   10.0881   -0.1280 C   0  0  0  0  0  0  0  0  0  0  0  0
   10.7643    9.7901   -1.1395 C   0  0  0  0  0  0  0  0  0  0  0  0
   10.2766    8.4434   -1.2559 C   0  0  0  0  0  0  0  0  0  0  0  0
    7.2345   15.8977   -8.6734 C   0  0  0  0  0  0  0  0  0  0  0  0
    6.0445   15.8447   -9.0112 O   0  0  0  0  0  0  0  0  0  0  0  0
    8.0912   16.8605   -9.1463 N   0  0  0  0  0  0  0  0  0  0  0  0
    9.0207   16.7979   -8.8277 H   0  0  0  0  0  0  0  0  0  0  0  0
    7.8016   17.9914  -10.0803 C   0  0  0  0  0  0  0  0  0  0  0  0
    8.6754   19.2252   -9.6911 C   0  0  0  0  0  0  0  0  0  0  0  0
    9.0175   19.2625   -8.1793 C   0  0  0  0  0  0  0  0  0  0  0  0
    7.8611   19.6000   -7.2636 C   0  0  0  0  0  0  0  0  0  0  0  0
    7.5394   18.9042   -6.2871 O   0  0  0  0  0  0  0  0  0  0  0  0
    7.2016   20.7613   -7.6599 O   0  0  0  0  0  0  0  0  0  0  0  0
    7.5008   21.2374   -8.4095 H   0  0  0  0  0  0  0  0  0  0  0  0
 15 16  1  0  0  0
 15 17  2  0  0  0
 16 20  2  0  0  0
 17 18  1  0  0  0
 18 19  2  0  0  0
 19 20  1  0  0  0
 19  7  1  0  0  0
  7  8  1  0  0  0
  7 12  1  0  0  0
  8  9  1  0  0  0
  9 10  1  0  0  0
  9 13  1  0  0  0
 10 11  1  0  0  0
 10  1  1  0  0  0
 11 12  1  0  0  0
  1  2  2  0  0  0
  1  6  1  0  0  0
  2  3  1  0  0  0
  3  4  2  0  0  0
  4  5  1  0  0  0
  4 21  1  0  0  0
  5  6  2  0  0  0
 21 22  2  0  0  0
 21 23  1  0  0  0
 23 25  1  0  0  0
 25 26  1  0  0  0
 26 27  1  0  0  0
 27 28  1  0  0  0
 28 29  2  0  0  0
 28 30  1  0  0  0
 13 14  1  0  0  0
 23 24  1  0  0  0
 30 31  1  0  0  0
M  END
> <minimizedAffinity>
-9.84720

$$$$
1D6V_HOP_H_401


 31 33  0  0  0  0  0  0  0  0999 V2000
    8.7414   13.0178   -5.8316 C   0  0  0  0  0  0  0  0  0  0  0  0
   10.0942   13.1265   -5.3406 C   0  0  0  0  0  0  0  0  0  0  0  0
   10.5174   12.3744   -4.2389 C   0  0  0  0  0  0  0  0  0  0  0  0
    9.6121   11.4749   -3.5774 C   0  0  0  0  0  0  0  0  0  0  0  0
    8.2700   11.3829   -4.0601 C   0  0  0  0  0  0  0  0  0  0  0  0
    7.8252   12.1376   -5.1720 C   0  0  0  0  0  0  0  0  0  0  0  0
    6.7016   16.0814   -8.4572 C   0  0  0  0  0  0  0  0  0  0  0  0
    8.2245   16.2277   -8.0907 C   0  0  0  0  0  0  0  0  0  0  0  0
    8.6439   15.3965   -6.8534 C   0  0  0  0  0  0  0  0  0  0  0  0
    8.3117   13.8800   -7.0844 C   0  0  0  0  0  0  0  0  0  0  0  0
    6.7586   13.7197   -7.3942 C   0  0  0  0  0  0  0  0  0  0  0  0
    6.3296   14.5617   -8.6383 C   0  0  0  0  0  0  0  0  0  0  0  0
   10.0524   15.6050   -6.5948 O   0  0  0  0  0  0  0  0  0  0  0  0
   10.5682   15.3203   -7.3654 H   0  0  0  0  0  0  0  0  0  0  0  0
    5.5658   18.4370  -12.0067 C   0  0  0  0  0  0  0  0  0  0  0  0
    6.6105   18.8975  -11.1453 C   0  0  0  0  0  0  0  0  0  0  0  0
    4.8852   17.2253  -11.7205 C   0  0  0  0  0  0  0  0  0  0  0  0
    5.2370   16.4595  -10.5749 C   0  0  0  0  0  0  0  0  0  0  0  0
    6.2871   16.9088   -9.6948 C   0  0  0  0  0  0  0  0  0  0  0  0
    6.9695   18.1358  -10.0008 C   0  0  0  0  0  0  0  0  0  0  0  0
   10.0764   10.6911   -2.3889 C   0  0  0  0  0  0  0  0  0  0  0  0
   11.0858   11.0582   -1.7731 O   0  0  0  0  0  0  0  0  0  0  0  0
    9.3493    9.5872   -2.0182 N   0  0  0  0  0  0  0  0  0  0  0  0
    8.5763    9.3742   -2.5894 H   0  0  0  0  0  0  0  0  0  0  0  0
    9.5744    8.6653   -0.8630 C   0  0  0  0  0  0  0  0  0  0  0  0
   10.8595    7.8159   -1.1172 C   0  0  0  0  0  0  0  0  0  0  0  0
   11.8268    7.8180    0.0946 C   0  0  0  0  0  0  0  0  0  0  0  0
   11.9430    9.1374    0.8260 C   0  0  0  0  0  0  0  0  0  0  0  0
   11.3870    9.3660    1.9122 O   0  0  0  0  0  0  0  0  0  0  0  0
   12.7248   10.0554    0.1281 O   0  0  0  0  0  0  0  0  0  0  0  0
   13.1148    9.8132   -0.6887 H   0  0  0  0  0  0  0  0  0  0  0  0
 15 16  1  0  0  0
 15 17  2  0  0  0
 16 20  2  0  0  0
 17 18  1  0  0  0
 18 19  2  0  0  0
 19 20  1  0  0  0
 19  7  1  0  0  0
  7  8  1  0  0  0
  7 12  1  0  0  0
  8  9  1  0  0  0
  9 10  1  0  0  0
  9 13  1  0  0  0
 10 11  1  0  0  0
 10  1  1  0  0  0
 11 12  1  0  0  0
  1  2  2  0  0  0
  1  6  1  0  0  0
  2  3  1  0  0  0
  3  4  2  0  0  0
  4  5  1  0  0  0
  4 21  1  0  0  0
  5  6  2  0  0  0
 21 22  2  0  0  0
 21 23  1  0  0  0
 23 25  1  0  0  0
 25 26  1  0  0  0
 26 27  1  0  0  0
 27 28  1  0  0  0
 28 29  2  0  0  0
 28 30  1  0  0  0
 13 14  1  0  0  0
 23 24  1  0  0  0
 30 31  1  0  0  0
M  END
> <minimizedAffinity>
-9.60452

$$$$
1D6V_HOP_H_401


 31 33  0  0  0  0  0  0  0  0999 V2000
    8.7188   12.9649   -5.8515 C   0  0  0  0  0  0  0  0  0  0  0  0
    9.3725   14.2515   -5.8727 C   0  0  0  0  0  0  0  0  0  0  0  0
    8.9341   15.2619   -6.7361 C   0  0  0  0  0  0  0  0  0  0  0  0
    7.8200   15.0380   -7.6164 C   0  0  0  0  0  0  0  0  0  0  0  0
    7.1866   13.7569   -7.6003 C   0  0  0  0  0  0  0  0  0  0  0  0
    7.6182   12.7235   -6.7345 C   0  0  0  0  0  0  0  0  0  0  0  0
   10.2396   10.8890   -2.1342 C   0  0  0  0  0  0  0  0  0  0  0  0
    8.7869   10.6101   -2.6696 C   0  0  0  0  0  0  0  0  0  0  0  0
    8.2649   11.7022   -3.6353 C   0  0  0  0  0  0  0  0  0  0  0  0
    9.2431   11.8579   -4.8529 C   0  0  0  0  0  0  0  0  0  0  0  0
   10.7025   12.2022   -4.3188 C   0  0  0  0  0  0  0  0  0  0  0  0
   11.2307   11.1059   -3.3390 C   0  0  0  0  0  0  0  0  0  0  0  0
    6.9253   11.3598   -4.0621 O   0  0  0  0  0  0  0  0  0  0  0  0
    6.9404   10.5044   -4.5194 H   0  0  0  0  0  0  0  0  0  0  0  0
   11.7047    7.7954    0.6444 C   0  0  0  0  0  0  0  0  0  0  0  0
   12.2062    9.1320    0.7312 C   0  0  0  0  0  0  0  0  0  0  0  0
   10.7400    7.4562   -0.3391 C   0  0  0  0  0  0  0  0  0  0  0  0
   10.2642    8.4429   -1.2462 C   0  0  0  0  0  0  0  0  0  0  0  0
   10.7592    9.7953   -1.1740 C   0  0  0  0  0  0  0  0  0  0  0  0
   11.7329   10.1238   -0.1696 C   0  0  0  0  0  0  0  0  0  0  0  0
    7.3755   16.1241   -8.5465 C   0  0  0  0  0  0  0  0  0  0  0  0
    6.2885   16.0199   -9.1301 O   0  0  0  0  0  0  0  0  0  0  0  0
    8.1972   17.2115   -8.7103 N   0  0  0  0  0  0  0  0  0  0  0  0
    9.0469   17.1826   -8.2139 H   0  0  0  0  0  0  0  0  0  0  0  0
    7.9743   18.4339   -9.5417 C   0  0  0  0  0  0  0  0  0  0  0  0
    7.4866   19.6028   -8.6289 C   0  0  0  0  0  0  0  0  0  0  0  0
    7.3415   20.9413   -9.3981 C   0  0  0  0  0  0  0  0  0  0  0  0
    6.5962   20.8537  -10.7120 C   0  0  0  0  0  0  0  0  0  0  0  0
    5.3889   20.5764  -10.7936 O   0  0  0  0  0  0  0  0  0  0  0  0
    7.4273   21.1005  -11.8024 O   0  0  0  0  0  0  0  0  0  0  0  0
    8.3316   21.3044  -11.6656 H   0  0  0  0  0  0  0  0  0  0  0  0
 15 16  1  0  0  0
 15 17  2  0  0  0
 16 20  2  0  0  0
 17 18  1  0  0  0
 18 19  2  0  0  0
 19 20  1  0  0  0
 19  7  1  0  0  0
  7  8  1  0  0  0
  7 12  1  0  0  0
  8  9  1  0  0  0
  9 10  1  0  0  0
  9 13  1  0  0  0
 10 11  1  0  0  0
 10  1  1  0  0  0
 11 12  1  0  0  0
  1  2  2  0  0  0
  1  6  1  0  0  0
  2  3  1  0  0  0
  3  4  2  0  0  0
  4  5  1  0  0  0
  4 21  1  0  0  0
  5  6  2  0  0  0
 21 22  2  0  0  0
 21 23  1  0  0  0
 23 25  1  0  0  0
 25 26  1  0  0  0
 26 27  1  0  0  0
 27 28  1  0  0  0
 28 29  2  0  0  0
 28 30  1  0  0  0
 13 14  1  0  0  0
 23 24  1  0  0  0
 30 31  1  0  0  0
M  END
> <minimizedAffinity>
-9.54569

$$$$
