5YA5_6TD_A_1401


 27 31  0  0  0  0  0  0  0  0999 V2000
   14.7275   -9.4116  -20.9284 C   0  0  0  0  0  0  0  0  0  0  0  0
   15.3461   -8.2571  -21.1193 N   0  0  0  0  0  0  0  0  0  0  0  0
   14.6871   -7.3042  -20.4532 N   0  0  0  0  0  0  0  0  0  0  0  0
   13.6273   -7.8388  -19.8190 C   0  0  0  0  0  0  0  0  0  0  0  0
   12.2559   -7.5858  -18.7891 S   0  0  0  0  0  0  0  0  0  0  0  0
   13.6271   -9.1673  -20.1058 N   0  0  0  0  0  0  0  0  0  0  0  0
   12.6304   -9.9393  -19.5584 N   0  0  0  0  0  0  0  0  0  0  0  0
   11.7717   -9.2699  -18.7814 C   0  0  0  0  0  0  0  0  0  0  0  0
   10.5869   -9.8534  -18.1297 C   0  0  0  0  0  0  0  0  0  0  0  0
   10.2323  -11.2045  -18.1356 C   0  0  0  0  0  0  0  0  0  0  0  0
    8.9837  -11.2670  -17.4375 C   0  0  0  0  0  0  0  0  0  0  0  0
    8.1198  -12.3337  -17.0897 C   0  0  0  0  0  0  0  0  0  0  0  0
    6.9437  -12.0705  -16.3851 C   0  0  0  0  0  0  0  0  0  0  0  0
    6.6080  -10.7587  -16.0218 C   0  0  0  0  0  0  0  0  0  0  0  0
    7.4554   -9.7069  -16.3580 C   0  0  0  0  0  0  0  0  0  0  0  0
    8.6556   -9.9774  -17.0744 C   0  0  0  0  0  0  0  0  0  0  0  0
    9.6399   -9.1359  -17.5238 N   0  0  0  0  0  0  0  0  0  0  0  0
    9.6468   -8.1573  -17.4163 H   0  0  0  0  0  0  0  0  0  0  0  0
   15.1002  -10.7534  -21.4891 C   0  0  0  0  0  0  0  0  0  0  0  0
   16.7544  -13.2995  -18.4894 C   0  0  0  0  0  0  0  0  0  0  0  0
   15.5428  -13.6117  -19.0858 C   0  0  0  0  0  0  0  0  0  0  0  0
   15.0130  -12.7780  -20.0568 C   0  0  0  0  0  0  0  0  0  0  0  0
   17.4393  -12.1572  -18.8665 C   0  0  0  0  0  0  0  0  0  0  0  0
   16.9119  -11.3211  -19.8438 C   0  0  0  0  0  0  0  0  0  0  0  0
   15.6956  -11.6347  -20.4400 C   0  0  0  0  0  0  0  0  0  0  0  0
   16.4606  -15.1363  -17.0143 C   0  0  0  0  0  0  0  0  0  0  0  0
   17.2654  -14.1380  -17.5292 O   0  0  0  0  0  0  0  0  0  0  0  0
 19  1  1  0  0  0
 19 25  1  0  0  0
  2  1  2  0  0  0
  2  3  1  0  0  0
  1  6  1  0  0  0
 25 22  2  0  0  0
 25 24  1  0  0  0
  3  4  2  0  0  0
 22 21  1  0  0  0
  6  4  1  0  0  0
  6  7  1  0  0  0
 24 23  2  0  0  0
  4  5  1  0  0  0
  7  8  2  0  0  0
 21 20  2  0  0  0
 23 20  1  0  0  0
  8  5  1  0  0  0
  8  9  1  0  0  0
 20 27  1  0  0  0
 10  9  2  0  0  0
 10 11  1  0  0  0
  9 17  1  0  0  0
 27 26  1  0  0  0
 11 12  2  0  0  0
 11 16  1  0  0  0
 17 16  1  0  0  0
 12 13  1  0  0  0
 16 15  2  0  0  0
 13 14  2  0  0  0
 15 14  1  0  0  0
 17 18  1  0  0  0
M  END
> <minimizedAffinity>
-9.62554

$$$$
5YA5_6TD_A_1401


 27 31  0  0  0  0  0  0  0  0999 V2000
   13.5308  -12.9608  -19.9471 C   0  0  0  0  0  0  0  0  0  0  0  0
   14.4859  -12.2065  -20.4675 N   0  0  0  0  0  0  0  0  0  0  0  0
   14.1733  -10.9227  -20.2670 N   0  0  0  0  0  0  0  0  0  0  0  0
   13.0031  -10.8343  -19.6083 C   0  0  0  0  0  0  0  0  0  0  0  0
   11.7940   -9.8132  -18.9008 S   0  0  0  0  0  0  0  0  0  0  0  0
   12.5739  -12.1067  -19.3977 N   0  0  0  0  0  0  0  0  0  0  0  0
   11.3864  -12.2779  -18.7271 N   0  0  0  0  0  0  0  0  0  0  0  0
   10.7945  -11.1410  -18.3449 C   0  0  0  0  0  0  0  0  0  0  0  0
    9.4903  -11.0512  -17.6666 C   0  0  0  0  0  0  0  0  0  0  0  0
    8.5703  -12.0923  -17.5221 C   0  0  0  0  0  0  0  0  0  0  0  0
    7.4426  -11.5064  -16.8623 C   0  0  0  0  0  0  0  0  0  0  0  0
    6.2024  -12.0253  -16.4173 C   0  0  0  0  0  0  0  0  0  0  0  0
    5.2850  -11.1821  -15.7878 C   0  0  0  0  0  0  0  0  0  0  0  0
    5.5788   -9.8248  -15.5954 C   0  0  0  0  0  0  0  0  0  0  0  0
    6.7977   -9.3104  -16.0277 C   0  0  0  0  0  0  0  0  0  0  0  0
    7.7332  -10.1723  -16.6672 C   0  0  0  0  0  0  0  0  0  0  0  0
    8.9781   -9.9192  -17.1821 N   0  0  0  0  0  0  0  0  0  0  0  0
    9.4234   -9.0412  -17.1925 H   0  0  0  0  0  0  0  0  0  0  0  0
   13.4483  -14.4597  -19.9430 C   0  0  0  0  0  0  0  0  0  0  0  0
   15.2104  -16.0943  -16.4160 C   0  0  0  0  0  0  0  0  0  0  0  0
   16.0020  -15.4997  -17.3859 C   0  0  0  0  0  0  0  0  0  0  0  0
   15.4211  -14.9740  -18.5282 C   0  0  0  0  0  0  0  0  0  0  0  0
   13.8380  -16.1594  -16.5845 C   0  0  0  0  0  0  0  0  0  0  0  0
   13.2520  -15.6287  -17.7280 C   0  0  0  0  0  0  0  0  0  0  0  0
   14.0476  -15.0339  -18.7009 C   0  0  0  0  0  0  0  0  0  0  0  0
   15.0067  -16.9741  -14.2203 C   0  0  0  0  0  0  0  0  0  0  0  0
   15.8031  -16.6094  -15.2891 O   0  0  0  0  0  0  0  0  0  0  0  0
 19  1  1  0  0  0
 19 25  1  0  0  0
  2  1  2  0  0  0
  2  3  1  0  0  0
  1  6  1  0  0  0
 25 22  2  0  0  0
 25 24  1  0  0  0
  3  4  2  0  0  0
 22 21  1  0  0  0
  6  4  1  0  0  0
  6  7  1  0  0  0
 24 23  2  0  0  0
  4  5  1  0  0  0
  7  8  2  0  0  0
 21 20  2  0  0  0
 23 20  1  0  0  0
  8  5  1  0  0  0
  8  9  1  0  0  0
 20 27  1  0  0  0
 10  9  2  0  0  0
 10 11  1  0  0  0
  9 17  1  0  0  0
 27 26  1  0  0  0
 11 12  2  0  0  0
 11 16  1  0  0  0
 17 16  1  0  0  0
 12 13  1  0  0  0
 16 15  2  0  0  0
 13 14  2  0  0  0
 15 14  1  0  0  0
 17 18  1  0  0  0
M  END
> <minimizedAffinity>
-8.52825

$$$$
5YA5_6TD_A_1401


 27 31  0  0  0  0  0  0  0  0999 V2000
   14.4498  -12.0498  -20.4773 C   0  0  0  0  0  0  0  0  0  0  0  0
   15.4105  -11.2529  -20.9178 N   0  0  0  0  0  0  0  0  0  0  0  0
   16.5256  -11.5052  -20.2257 N   0  0  0  0  0  0  0  0  0  0  0  0
   16.2943  -12.4769  -19.3238 C   0  0  0  0  0  0  0  0  0  0  0  0
   16.9247  -13.4839  -18.0614 S   0  0  0  0  0  0  0  0  0  0  0  0
   14.9902  -12.8356  -19.4587 N   0  0  0  0  0  0  0  0  0  0  0  0
   14.5127  -13.8301  -18.6389 N   0  0  0  0  0  0  0  0  0  0  0  0
   15.4194  -14.3418  -17.7990 C   0  0  0  0  0  0  0  0  0  0  0  0
   15.1462  -15.3716  -16.7822 C   0  0  0  0  0  0  0  0  0  0  0  0
   15.0916  -16.7490  -17.0074 C   0  0  0  0  0  0  0  0  0  0  0  0
   14.7322  -17.3208  -15.7448 C   0  0  0  0  0  0  0  0  0  0  0  0
   14.5352  -18.6522  -15.3043 C   0  0  0  0  0  0  0  0  0  0  0  0
   14.1835  -18.8969  -13.9757 C   0  0  0  0  0  0  0  0  0  0  0  0
   14.0200  -17.8360  -13.0739 C   0  0  0  0  0  0  0  0  0  0  0  0
   14.2159  -16.5257  -13.5006 C   0  0  0  0  0  0  0  0  0  0  0  0
   14.5769  -16.2781  -14.8554 C   0  0  0  0  0  0  0  0  0  0  0  0
   14.8176  -15.1026  -15.5180 N   0  0  0  0  0  0  0  0  0  0  0  0
   14.7575  -14.2027  -15.1233 H   0  0  0  0  0  0  0  0  0  0  0  0
   13.0261  -12.1146  -20.9491 C   0  0  0  0  0  0  0  0  0  0  0  0
   10.3068  -10.6735  -17.9919 C   0  0  0  0  0  0  0  0  0  0  0  0
   10.1945  -11.9662  -18.4790 C   0  0  0  0  0  0  0  0  0  0  0  0
   11.0804  -12.4241  -19.4403 C   0  0  0  0  0  0  0  0  0  0  0  0
   11.3071   -9.8397  -18.4611 C   0  0  0  0  0  0  0  0  0  0  0  0
   12.2003  -10.2981  -19.4227 C   0  0  0  0  0  0  0  0  0  0  0  0
   12.0853  -11.5946  -19.9116 C   0  0  0  0  0  0  0  0  0  0  0  0
    8.1947  -10.8643  -16.9247 C   0  0  0  0  0  0  0  0  0  0  0  0
    9.4204  -10.2364  -17.0381 O   0  0  0  0  0  0  0  0  0  0  0  0
 19  1  1  0  0  0
 19 25  1  0  0  0
  2  1  2  0  0  0
  2  3  1  0  0  0
  1  6  1  0  0  0
 25 22  2  0  0  0
 25 24  1  0  0  0
  3  4  2  0  0  0
 22 21  1  0  0  0
  6  4  1  0  0  0
  6  7  1  0  0  0
 24 23  2  0  0  0
  4  5  1  0  0  0
  7  8  2  0  0  0
 21 20  2  0  0  0
 23 20  1  0  0  0
  8  5  1  0  0  0
  8  9  1  0  0  0
 20 27  1  0  0  0
 10  9  2  0  0  0
 10 11  1  0  0  0
  9 17  1  0  0  0
 27 26  1  0  0  0
 11 12  2  0  0  0
 11 16  1  0  0  0
 17 16  1  0  0  0
 12 13  1  0  0  0
 16 15  2  0  0  0
 13 14  2  0  0  0
 15 14  1  0  0  0
 17 18  1  0  0  0
M  END
> <minimizedAffinity>
-8.50366

$$$$
5YA5_6TD_A_1401


 27 31  0  0  0  0  0  0  0  0999 V2000
   16.6448  -12.9163  -19.1672 C   0  0  0  0  0  0  0  0  0  0  0  0
   17.5445  -13.2693  -18.2628 N   0  0  0  0  0  0  0  0  0  0  0  0
   16.9382  -13.9931  -17.3170 N   0  0  0  0  0  0  0  0  0  0  0  0
   15.6292  -14.1166  -17.6042 C   0  0  0  0  0  0  0  0  0  0  0  0
   14.0847  -14.7607  -17.1515 S   0  0  0  0  0  0  0  0  0  0  0  0
   15.4165  -13.4425  -18.7651 N   0  0  0  0  0  0  0  0  0  0  0  0
   14.1392  -13.4303  -19.2724 N   0  0  0  0  0  0  0  0  0  0  0  0
   13.2461  -14.1128  -18.5471 C   0  0  0  0  0  0  0  0  0  0  0  0
   11.8062  -14.2031  -18.8427 C   0  0  0  0  0  0  0  0  0  0  0  0
   11.1130  -13.4301  -19.7770 C   0  0  0  0  0  0  0  0  0  0  0  0
    9.7441  -13.8316  -19.6533 C   0  0  0  0  0  0  0  0  0  0  0  0
    8.5566  -13.4465  -20.3217 C   0  0  0  0  0  0  0  0  0  0  0  0
    7.3415  -14.0370  -19.9700 C   0  0  0  0  0  0  0  0  0  0  0  0
    7.2855  -15.0056  -18.9579 C   0  0  0  0  0  0  0  0  0  0  0  0
    8.4502  -15.3904  -18.3001 C   0  0  0  0  0  0  0  0  0  0  0  0
    9.6890  -14.7890  -18.6619 C   0  0  0  0  0  0  0  0  0  0  0  0
   10.9552  -14.9825  -18.1741 N   0  0  0  0  0  0  0  0  0  0  0  0
   11.1980  -15.5990  -17.4459 H   0  0  0  0  0  0  0  0  0  0  0  0
   16.8629  -12.0899  -20.4013 C   0  0  0  0  0  0  0  0  0  0  0  0
   14.5959   -8.4751  -20.3000 C   0  0  0  0  0  0  0  0  0  0  0  0
   14.2273   -9.5120  -21.1426 C   0  0  0  0  0  0  0  0  0  0  0  0
   14.9707  -10.6805  -21.1700 C   0  0  0  0  0  0  0  0  0  0  0  0
   15.7039   -8.6071  -19.4809 C   0  0  0  0  0  0  0  0  0  0  0  0
   16.4492   -9.7804  -19.5033 C   0  0  0  0  0  0  0  0  0  0  0  0
   16.0792  -10.8191  -20.3504 C   0  0  0  0  0  0  0  0  0  0  0  0
   12.8687   -7.1738  -19.3203 C   0  0  0  0  0  0  0  0  0  0  0  0
   13.8467   -7.3240  -20.2849 O   0  0  0  0  0  0  0  0  0  0  0  0
 19  1  1  0  0  0
 19 25  1  0  0  0
  2  1  2  0  0  0
  2  3  1  0  0  0
  1  6  1  0  0  0
 25 22  2  0  0  0
 25 24  1  0  0  0
  3  4  2  0  0  0
 22 21  1  0  0  0
  6  4  1  0  0  0
  6  7  1  0  0  0
 24 23  2  0  0  0
  4  5  1  0  0  0
  7  8  2  0  0  0
 21 20  2  0  0  0
 23 20  1  0  0  0
  8  5  1  0  0  0
  8  9  1  0  0  0
 20 27  1  0  0  0
 10  9  2  0  0  0
 10 11  1  0  0  0
  9 17  1  0  0  0
 27 26  1  0  0  0
 11 12  2  0  0  0
 11 16  1  0  0  0
 17 16  1  0  0  0
 12 13  1  0  0  0
 16 15  2  0  0  0
 13 14  2  0  0  0
 15 14  1  0  0  0
 17 18  1  0  0  0
M  END
> <minimizedAffinity>
-8.30620

$$$$
5YA5_6TD_A_1401


 27 31  0  0  0  0  0  0  0  0999 V2000
   13.4289  -15.1988  -18.2992 C   0  0  0  0  0  0  0  0  0  0  0  0
   14.1085  -16.0324  -17.5277 N   0  0  0  0  0  0  0  0  0  0  0  0
   13.5513  -16.0409  -16.3130 N   0  0  0  0  0  0  0  0  0  0  0  0
   12.4960  -15.2060  -16.2880 C   0  0  0  0  0  0  0  0  0  0  0  0
   11.1946  -14.5173  -15.3731 S   0  0  0  0  0  0  0  0  0  0  0  0
   12.3992  -14.6582  -17.5281 N   0  0  0  0  0  0  0  0  0  0  0  0
   11.3789  -13.7656  -17.7547 N   0  0  0  0  0  0  0  0  0  0  0  0
   10.5813  -13.5536  -16.7020 C   0  0  0  0  0  0  0  0  0  0  0  0
    9.4575  -12.6023  -16.6685 C   0  0  0  0  0  0  0  0  0  0  0  0
    9.5358  -11.2341  -16.9387 C   0  0  0  0  0  0  0  0  0  0  0  0
    8.2143  -10.7315  -16.7124 C   0  0  0  0  0  0  0  0  0  0  0  0
    7.6332   -9.4454  -16.8280 C   0  0  0  0  0  0  0  0  0  0  0  0
    6.2805   -9.2677  -16.5324 C   0  0  0  0  0  0  0  0  0  0  0  0
    5.4924  -10.3508  -16.1182 C   0  0  0  0  0  0  0  0  0  0  0  0
    6.0577  -11.6178  -16.0064 C   0  0  0  0  0  0  0  0  0  0  0  0
    7.4368  -11.7976  -16.3107 C   0  0  0  0  0  0  0  0  0  0  0  0
    8.2232  -12.9198  -16.2758 N   0  0  0  0  0  0  0  0  0  0  0  0
    7.9243  -13.8176  -16.0040 H   0  0  0  0  0  0  0  0  0  0  0  0
   13.6952  -14.8589  -19.7369 C   0  0  0  0  0  0  0  0  0  0  0  0
   15.3295  -10.9376  -20.1484 C   0  0  0  0  0  0  0  0  0  0  0  0
   13.9864  -11.1689  -20.4009 C   0  0  0  0  0  0  0  0  0  0  0  0
   13.4658  -12.4454  -20.2667 C   0  0  0  0  0  0  0  0  0  0  0  0
   16.1515  -11.9803  -19.7570 C   0  0  0  0  0  0  0  0  0  0  0  0
   15.6305  -13.2616  -19.6174 C   0  0  0  0  0  0  0  0  0  0  0  0
   14.2834  -13.4924  -19.8726 C   0  0  0  0  0  0  0  0  0  0  0  0
   14.9979   -8.5894  -20.0369 C   0  0  0  0  0  0  0  0  0  0  0  0
   15.8286   -9.6654  -20.2854 O   0  0  0  0  0  0  0  0  0  0  0  0
 19  1  1  0  0  0
 19 25  1  0  0  0
  2  1  2  0  0  0
  2  3  1  0  0  0
  1  6  1  0  0  0
 25 22  2  0  0  0
 25 24  1  0  0  0
  3  4  2  0  0  0
 22 21  1  0  0  0
  6  4  1  0  0  0
  6  7  1  0  0  0
 24 23  2  0  0  0
  4  5  1  0  0  0
  7  8  2  0  0  0
 21 20  2  0  0  0
 23 20  1  0  0  0
  8  5  1  0  0  0
  8  9  1  0  0  0
 20 27  1  0  0  0
 10  9  2  0  0  0
 10 11  1  0  0  0
  9 17  1  0  0  0
 27 26  1  0  0  0
 11 12  2  0  0  0
 11 16  1  0  0  0
 17 16  1  0  0  0
 12 13  1  0  0  0
 16 15  2  0  0  0
 13 14  2  0  0  0
 15 14  1  0  0  0
 17 18  1  0  0  0
M  END
> <minimizedAffinity>
-8.17415

$$$$
5YA5_6TD_A_1401


 27 31  0  0  0  0  0  0  0  0999 V2000
   15.2731  -11.1842  -20.4794 C   0  0  0  0  0  0  0  0  0  0  0  0
   15.9867  -10.0866  -20.6744 N   0  0  0  0  0  0  0  0  0  0  0  0
   15.2639   -9.0322  -20.2848 N   0  0  0  0  0  0  0  0  0  0  0  0
   14.0658   -9.4421  -19.8291 C   0  0  0  0  0  0  0  0  0  0  0  0
   12.5299   -9.0089  -19.1520 S   0  0  0  0  0  0  0  0  0  0  0  0
   14.0439  -10.7962  -19.9448 N   0  0  0  0  0  0  0  0  0  0  0  0
   12.9107  -11.4548  -19.5309 N   0  0  0  0  0  0  0  0  0  0  0  0
   11.9529  -10.6598  -19.0413 C   0  0  0  0  0  0  0  0  0  0  0  0
   10.6260  -11.1116  -18.5891 C   0  0  0  0  0  0  0  0  0  0  0  0
    9.8702  -10.5340  -17.5663 C   0  0  0  0  0  0  0  0  0  0  0  0
    8.7032  -11.3559  -17.4533 C   0  0  0  0  0  0  0  0  0  0  0  0
    7.5536  -11.2992  -16.6284 C   0  0  0  0  0  0  0  0  0  0  0  0
    6.5586  -12.2696  -16.7597 C   0  0  0  0  0  0  0  0  0  0  0  0
    6.6888  -13.3024  -17.6989 C   0  0  0  0  0  0  0  0  0  0  0  0
    7.8150  -13.3608  -18.5147 C   0  0  0  0  0  0  0  0  0  0  0  0
    8.8276  -12.3689  -18.3810 C   0  0  0  0  0  0  0  0  0  0  0  0
   10.0152  -12.2056  -19.0458 N   0  0  0  0  0  0  0  0  0  0  0  0
   10.3621  -12.8013  -19.7487 H   0  0  0  0  0  0  0  0  0  0  0  0
   15.6708  -12.6001  -20.7799 C   0  0  0  0  0  0  0  0  0  0  0  0
   15.6270  -15.0166  -17.2621 C   0  0  0  0  0  0  0  0  0  0  0  0
   14.6911  -15.2182  -18.2644 C   0  0  0  0  0  0  0  0  0  0  0  0
   14.7121  -14.4273  -19.4014 C   0  0  0  0  0  0  0  0  0  0  0  0
   16.5869  -14.0286  -17.3976 C   0  0  0  0  0  0  0  0  0  0  0  0
   16.6129  -13.2364  -18.5396 C   0  0  0  0  0  0  0  0  0  0  0  0
   15.6725  -13.4387  -19.5435 C   0  0  0  0  0  0  0  0  0  0  0  0
   15.1898  -17.1269  -16.2660 C   0  0  0  0  0  0  0  0  0  0  0  0
   15.5921  -15.8107  -16.1419 O   0  0  0  0  0  0  0  0  0  0  0  0
 19  1  1  0  0  0
 19 25  1  0  0  0
  2  1  2  0  0  0
  2  3  1  0  0  0
  1  6  1  0  0  0
 25 22  2  0  0  0
 25 24  1  0  0  0
  3  4  2  0  0  0
 22 21  1  0  0  0
  6  4  1  0  0  0
  6  7  1  0  0  0
 24 23  2  0  0  0
  4  5  1  0  0  0
  7  8  2  0  0  0
 21 20  2  0  0  0
 23 20  1  0  0  0
  8  5  1  0  0  0
  8  9  1  0  0  0
 20 27  1  0  0  0
 10  9  2  0  0  0
 10 11  1  0  0  0
  9 17  1  0  0  0
 27 26  1  0  0  0
 11 12  2  0  0  0
 11 16  1  0  0  0
 17 16  1  0  0  0
 12 13  1  0  0  0
 16 15  2  0  0  0
 13 14  2  0  0  0
 15 14  1  0  0  0
 17 18  1  0  0  0
M  END
> <minimizedAffinity>
-7.95504

$$$$
5YA5_6TD_A_1401


 27 31  0  0  0  0  0  0  0  0999 V2000
   15.5748  -14.3522  -18.6969 C   0  0  0  0  0  0  0  0  0  0  0  0
   16.3872  -15.1241  -17.9926 N   0  0  0  0  0  0  0  0  0  0  0  0
   15.7948  -15.4212  -16.8321 N   0  0  0  0  0  0  0  0  0  0  0  0
   14.5825  -14.8396  -16.7752 C   0  0  0  0  0  0  0  0  0  0  0  0
   13.1248  -14.5767  -15.8746 S   0  0  0  0  0  0  0  0  0  0  0  0
   14.4204  -14.1550  -17.9382 N   0  0  0  0  0  0  0  0  0  0  0  0
   13.2401  -13.4747  -18.1203 N   0  0  0  0  0  0  0  0  0  0  0  0
   12.3720  -13.5863  -17.1088 C   0  0  0  0  0  0  0  0  0  0  0  0
   11.0671  -12.9076  -17.0334 C   0  0  0  0  0  0  0  0  0  0  0  0
   10.8485  -11.5363  -17.1840 C   0  0  0  0  0  0  0  0  0  0  0  0
    9.4459  -11.3540  -16.9615 C   0  0  0  0  0  0  0  0  0  0  0  0
    8.5995  -10.2190  -16.9876 C   0  0  0  0  0  0  0  0  0  0  0  0
    7.2364  -10.3657  -16.7246 C   0  0  0  0  0  0  0  0  0  0  0  0
    6.6980  -11.6264  -16.4311 C   0  0  0  0  0  0  0  0  0  0  0  0
    7.5247  -12.7459  -16.4076 C   0  0  0  0  0  0  0  0  0  0  0  0
    8.9143  -12.5949  -16.6785 C   0  0  0  0  0  0  0  0  0  0  0  0
    9.9262  -13.5188  -16.7117 N   0  0  0  0  0  0  0  0  0  0  0  0
    9.8267  -14.4808  -16.5274 H   0  0  0  0  0  0  0  0  0  0  0  0
   15.8205  -13.7643  -20.0562 C   0  0  0  0  0  0  0  0  0  0  0  0
   15.4423   -9.5131  -20.0226 C   0  0  0  0  0  0  0  0  0  0  0  0
   14.4148  -10.3059  -20.5093 C   0  0  0  0  0  0  0  0  0  0  0  0
   14.5478  -11.6846  -20.5180 C   0  0  0  0  0  0  0  0  0  0  0  0
   16.6006  -10.0975  -19.5400 C   0  0  0  0  0  0  0  0  0  0  0  0
   16.7349  -11.4812  -19.5437 C   0  0  0  0  0  0  0  0  0  0  0  0
   15.7040  -12.2751  -20.0337 C   0  0  0  0  0  0  0  0  0  0  0  0
   14.2473   -7.5870  -20.7286 C   0  0  0  0  0  0  0  0  0  0  0  0
   15.2930   -8.1478  -20.0204 O   0  0  0  0  0  0  0  0  0  0  0  0
 19  1  1  0  0  0
 19 25  1  0  0  0
  2  1  2  0  0  0
  2  3  1  0  0  0
  1  6  1  0  0  0
 25 22  2  0  0  0
 25 24  1  0  0  0
  3  4  2  0  0  0
 22 21  1  0  0  0
  6  4  1  0  0  0
  6  7  1  0  0  0
 24 23  2  0  0  0
  4  5  1  0  0  0
  7  8  2  0  0  0
 21 20  2  0  0  0
 23 20  1  0  0  0
  8  5  1  0  0  0
  8  9  1  0  0  0
 20 27  1  0  0  0
 10  9  2  0  0  0
 10 11  1  0  0  0
  9 17  1  0  0  0
 27 26  1  0  0  0
 11 12  2  0  0  0
 11 16  1  0  0  0
 17 16  1  0  0  0
 12 13  1  0  0  0
 16 15  2  0  0  0
 13 14  2  0  0  0
 15 14  1  0  0  0
 17 18  1  0  0  0
M  END
> <minimizedAffinity>
-7.91128

$$$$
5YA5_6TD_A_1401


 27 31  0  0  0  0  0  0  0  0999 V2000
    8.3476  -13.6860  -17.2113 C   0  0  0  0  0  0  0  0  0  0  0  0
    8.4328  -14.6442  -16.3022 N   0  0  0  0  0  0  0  0  0  0  0  0
    9.7227  -14.8554  -16.0238 N   0  0  0  0  0  0  0  0  0  0  0  0
   10.4903  -14.0276  -16.7563 C   0  0  0  0  0  0  0  0  0  0  0  0
   12.0859  -13.4833  -17.1602 S   0  0  0  0  0  0  0  0  0  0  0  0
    9.6474  -13.2813  -17.5178 N   0  0  0  0  0  0  0  0  0  0  0  0
   10.2033  -12.3452  -18.3567 N   0  0  0  0  0  0  0  0  0  0  0  0
   11.5382  -12.2761  -18.3063 C   0  0  0  0  0  0  0  0  0  0  0  0
   12.3736  -11.4009  -19.1460 C   0  0  0  0  0  0  0  0  0  0  0  0
   13.2851  -11.8251  -20.1156 C   0  0  0  0  0  0  0  0  0  0  0  0
   13.8948  -10.6260  -20.6064 C   0  0  0  0  0  0  0  0  0  0  0  0
   14.8732  -10.3716  -21.5980 C   0  0  0  0  0  0  0  0  0  0  0  0
   15.2702   -9.0588  -21.8581 C   0  0  0  0  0  0  0  0  0  0  0  0
   14.7117   -7.9896  -21.1435 C   0  0  0  0  0  0  0  0  0  0  0  0
   13.7471   -8.2337  -20.1702 C   0  0  0  0  0  0  0  0  0  0  0  0
   13.3415   -9.5731  -19.9081 C   0  0  0  0  0  0  0  0  0  0  0  0
   12.4319  -10.0751  -19.0139 N   0  0  0  0  0  0  0  0  0  0  0  0
   11.9053   -9.5417  -18.3757 H   0  0  0  0  0  0  0  0  0  0  0  0
    7.1030  -13.1230  -17.8340 C   0  0  0  0  0  0  0  0  0  0  0  0
    5.1519  -10.3524  -15.2390 C   0  0  0  0  0  0  0  0  0  0  0  0
    4.5691  -11.5770  -15.5252 C   0  0  0  0  0  0  0  0  0  0  0  0
    5.2090  -12.4686  -16.3703 C   0  0  0  0  0  0  0  0  0  0  0  0
    6.3763  -10.0204  -15.7928 C   0  0  0  0  0  0  0  0  0  0  0  0
    7.0227  -10.9152  -16.6379 C   0  0  0  0  0  0  0  0  0  0  0  0
    6.4360  -12.1425  -16.9253 C   0  0  0  0  0  0  0  0  0  0  0  0
    4.6249   -9.6529  -13.0324 C   0  0  0  0  0  0  0  0  0  0  0  0
    4.5039   -9.4810  -14.3982 O   0  0  0  0  0  0  0  0  0  0  0  0
 19  1  1  0  0  0
 19 25  1  0  0  0
  2  1  2  0  0  0
  2  3  1  0  0  0
  1  6  1  0  0  0
 25 22  2  0  0  0
 25 24  1  0  0  0
  3  4  2  0  0  0
 22 21  1  0  0  0
  6  4  1  0  0  0
  6  7  1  0  0  0
 24 23  2  0  0  0
  4  5  1  0  0  0
  7  8  2  0  0  0
 21 20  2  0  0  0
 23 20  1  0  0  0
  8  5  1  0  0  0
  8  9  1  0  0  0
 20 27  1  0  0  0
 10  9  2  0  0  0
 10 11  1  0  0  0
  9 17  1  0  0  0
 27 26  1  0  0  0
 11 12  2  0  0  0
 11 16  1  0  0  0
 17 16  1  0  0  0
 12 13  1  0  0  0
 16 15  2  0  0  0
 13 14  2  0  0  0
 15 14  1  0  0  0
 17 18  1  0  0  0
M  END
> <minimizedAffinity>
-7.69002

$$$$
5YA5_6TD_A_1401


 27 31  0  0  0  0  0  0  0  0999 V2000
   15.0100  -14.1162  -18.1011 C   0  0  0  0  0  0  0  0  0  0  0  0
   15.6359  -14.1267  -16.9348 N   0  0  0  0  0  0  0  0  0  0  0  0
   14.7314  -14.2989  -15.9662 N   0  0  0  0  0  0  0  0  0  0  0  0
   13.5013  -14.4032  -16.5021 C   0  0  0  0  0  0  0  0  0  0  0  0
   11.8025  -14.6253  -16.2380 S   0  0  0  0  0  0  0  0  0  0  0  0
   13.6484  -14.2869  -17.8483 N   0  0  0  0  0  0  0  0  0  0  0  0
   12.5170  -14.3694  -18.6244 N   0  0  0  0  0  0  0  0  0  0  0  0
   11.3862  -14.5722  -17.9393 C   0  0  0  0  0  0  0  0  0  0  0  0
   10.0383  -14.6373  -18.5293 C   0  0  0  0  0  0  0  0  0  0  0  0
    9.3172  -13.5568  -19.0428 C   0  0  0  0  0  0  0  0  0  0  0  0
    8.0524  -14.1025  -19.4334 C   0  0  0  0  0  0  0  0  0  0  0  0
    6.8978  -13.5419  -20.0316 C   0  0  0  0  0  0  0  0  0  0  0  0
    5.7939  -14.3532  -20.3002 C   0  0  0  0  0  0  0  0  0  0  0  0
    5.8166  -15.7179  -19.9797 C   0  0  0  0  0  0  0  0  0  0  0  0
    6.9503  -16.2748  -19.3949 C   0  0  0  0  0  0  0  0  0  0  0  0
    8.0760  -15.4464  -19.1239 C   0  0  0  0  0  0  0  0  0  0  0  0
    9.2897  -15.7407  -18.5589 N   0  0  0  0  0  0  0  0  0  0  0  0
    9.5651  -16.6259  -18.2276 H   0  0  0  0  0  0  0  0  0  0  0  0
   15.6156  -13.9394  -19.4633 C   0  0  0  0  0  0  0  0  0  0  0  0
   14.9171  -10.0111  -20.9788 C   0  0  0  0  0  0  0  0  0  0  0  0
   13.9457  -10.9927  -21.0973 C   0  0  0  0  0  0  0  0  0  0  0  0
   14.1826  -12.2652  -20.6042 C   0  0  0  0  0  0  0  0  0  0  0  0
   16.1230  -10.2990  -20.3634 C   0  0  0  0  0  0  0  0  0  0  0  0
   16.3617  -11.5742  -19.8639 C   0  0  0  0  0  0  0  0  0  0  0  0
   15.3870  -12.5583  -19.9849 C   0  0  0  0  0  0  0  0  0  0  0  0
   14.2605   -7.7611  -20.6010 C   0  0  0  0  0  0  0  0  0  0  0  0
   14.6648   -8.7544  -21.4724 O   0  0  0  0  0  0  0  0  0  0  0  0
 19  1  1  0  0  0
 19 25  1  0  0  0
  2  1  2  0  0  0
  2  3  1  0  0  0
  1  6  1  0  0  0
 25 22  2  0  0  0
 25 24  1  0  0  0
  3  4  2  0  0  0
 22 21  1  0  0  0
  6  4  1  0  0  0
  6  7  1  0  0  0
 24 23  2  0  0  0
  4  5  1  0  0  0
  7  8  2  0  0  0
 21 20  2  0  0  0
 23 20  1  0  0  0
  8  5  1  0  0  0
  8  9  1  0  0  0
 20 27  1  0  0  0
 10  9  2  0  0  0
 10 11  1  0  0  0
  9 17  1  0  0  0
 27 26  1  0  0  0
 11 12  2  0  0  0
 11 16  1  0  0  0
 17 16  1  0  0  0
 12 13  1  0  0  0
 16 15  2  0  0  0
 13 14  2  0  0  0
 15 14  1  0  0  0
 17 18  1  0  0  0
M  END
> <minimizedAffinity>
-7.59405

$$$$
5YA5_6TD_A_1401


 27 31  0  0  0  0  0  0  0  0999 V2000
   10.3815  -15.5903  -16.9233 C   0  0  0  0  0  0  0  0  0  0  0  0
    9.2570  -16.2086  -17.2476 N   0  0  0  0  0  0  0  0  0  0  0  0
    8.7510  -15.6295  -18.3406 N   0  0  0  0  0  0  0  0  0  0  0  0
    9.5514  -14.6230  -18.7373 C   0  0  0  0  0  0  0  0  0  0  0  0
    9.8540  -13.3558  -19.8809 S   0  0  0  0  0  0  0  0  0  0  0  0
   10.5861  -14.5739  -17.8572 N   0  0  0  0  0  0  0  0  0  0  0  0
   11.5528  -13.6181  -18.0599 N   0  0  0  0  0  0  0  0  0  0  0  0
   11.3546  -12.8455  -19.1337 C   0  0  0  0  0  0  0  0  0  0  0  0
   12.2099  -11.7152  -19.5336 C   0  0  0  0  0  0  0  0  0  0  0  0
   12.0250  -10.3800  -19.1674 C   0  0  0  0  0  0  0  0  0  0  0  0
   13.0568   -9.6584  -19.8492 C   0  0  0  0  0  0  0  0  0  0  0  0
   13.4237   -8.2911  -19.8830 C   0  0  0  0  0  0  0  0  0  0  0  0
   14.5088   -7.8844  -20.6614 C   0  0  0  0  0  0  0  0  0  0  0  0
   15.2368   -8.8172  -21.4134 C   0  0  0  0  0  0  0  0  0  0  0  0
   14.8827  -10.1629  -21.3811 C   0  0  0  0  0  0  0  0  0  0  0  0
   13.7773  -10.5762  -20.5847 C   0  0  0  0  0  0  0  0  0  0  0  0
   13.2291  -11.8170  -20.3877 N   0  0  0  0  0  0  0  0  0  0  0  0
   13.5386  -12.6509  -20.8097 H   0  0  0  0  0  0  0  0  0  0  0  0
   11.2878  -15.8872  -15.7640 C   0  0  0  0  0  0  0  0  0  0  0  0
   15.3863  -15.3000  -16.8007 C   0  0  0  0  0  0  0  0  0  0  0  0
   14.7228  -14.3763  -16.0085 C   0  0  0  0  0  0  0  0  0  0  0  0
   13.3920  -14.5745  -15.6792 C   0  0  0  0  0  0  0  0  0  0  0  0
   14.7221  -16.4243  -17.2599 C   0  0  0  0  0  0  0  0  0  0  0  0
   13.3877  -16.6278  -16.9273 C   0  0  0  0  0  0  0  0  0  0  0  0
   12.7230  -15.6995  -16.1339 C   0  0  0  0  0  0  0  0  0  0  0  0
   17.0258  -14.1069  -18.0355 C   0  0  0  0  0  0  0  0  0  0  0  0
   16.7061  -15.0881  -17.1165 O   0  0  0  0  0  0  0  0  0  0  0  0
 19  1  1  0  0  0
 19 25  1  0  0  0
  2  1  2  0  0  0
  2  3  1  0  0  0
  1  6  1  0  0  0
 25 22  2  0  0  0
 25 24  1  0  0  0
  3  4  2  0  0  0
 22 21  1  0  0  0
  6  4  1  0  0  0
  6  7  1  0  0  0
 24 23  2  0  0  0
  4  5  1  0  0  0
  7  8  2  0  0  0
 21 20  2  0  0  0
 23 20  1  0  0  0
  8  5  1  0  0  0
  8  9  1  0  0  0
 20 27  1  0  0  0
 10  9  2  0  0  0
 10 11  1  0  0  0
  9 17  1  0  0  0
 27 26  1  0  0  0
 11 12  2  0  0  0
 11 16  1  0  0  0
 17 16  1  0  0  0
 12 13  1  0  0  0
 16 15  2  0  0  0
 13 14  2  0  0  0
 15 14  1  0  0  0
 17 18  1  0  0  0
M  END
> <minimizedAffinity>
-7.52620

$$$$
