2V2V_V12_A_1277


 35 38  0  0  0  0  0  0  0  0999 V2000
   15.2133   -7.1168   25.9232 C   0  0  0  0  0  0  0  0  0  0  0  0
   15.0135   -6.9110   24.4745 O   0  0  0  0  0  0  0  0  0  0  0  0
   16.7301   -7.0281   26.1790 C   0  0  0  0  0  0  0  0  0  0  0  0
   17.0295   -5.9152   27.0499 O   0  0  0  0  0  0  0  0  0  0  0  0
   17.3313   -6.8244   24.7867 C   0  0  0  0  0  0  0  0  0  0  0  0
   18.3440   -5.8203   24.8401 O   0  0  0  0  0  0  0  0  0  0  0  0
   16.1847   -6.3092   23.9362 C   0  0  0  0  0  0  0  0  0  0  0  0
   16.6917   -5.0959   26.6554 H   0  0  0  0  0  0  0  0  0  0  0  0
   17.9650   -4.9970   25.1856 H   0  0  0  0  0  0  0  0  0  0  0  0
   12.4286   -7.9725   25.6497 O   0  0  0  0  0  0  0  0  0  0  0  0
   13.2605   -8.7886   26.0529 C   0  0  0  0  0  0  0  0  0  0  0  0
   12.8466  -10.0340   26.3454 N   0  0  0  0  0  0  0  0  0  0  0  0
   13.6822  -10.9918   26.7835 C   0  0  0  0  0  0  0  0  0  0  0  0
   13.2257  -12.2104   27.0591 N   0  0  0  0  0  0  0  0  0  0  0  0
   15.0348  -10.7307   26.9591 C   0  0  0  0  0  0  0  0  0  0  0  0
   15.5182   -9.4643   26.6709 C   0  0  0  0  0  0  0  0  0  0  0  0
   14.6311   -8.4652   26.2154 N   0  0  0  0  0  0  0  0  0  0  0  0
   12.2702  -12.4164   26.9414 H   0  0  0  0  0  0  0  0  0  0  0  0
   13.8433  -12.9064   27.3808 H   0  0  0  0  0  0  0  0  0  0  0  0
   16.3923   -6.8997   22.5376 C   0  0  0  0  0  0  0  0  0  0  0  0
   15.2088   -6.7075   21.6814 N   0  0  0  0  0  0  0  0  0  0  0  0
   15.1178   -5.7501   20.7544 C   0  0  0  0  0  0  0  0  0  0  0  0
   15.9982   -4.9231   20.5136 O   0  0  0  0  0  0  0  0  0  0  0  0
   14.4446   -7.3169   21.7987 H   0  0  0  0  0  0  0  0  0  0  0  0
   13.7979   -5.7526   19.9725 C   0  0  0  0  0  0  0  0  0  0  0  0
   13.7732   -6.8080   18.8572 C   0  0  0  0  0  0  0  0  0  0  0  0
   14.5614   -7.8826   18.8206 N   0  0  0  0  0  0  0  0  0  0  0  0
   14.2792   -8.5788   17.7252 C   0  0  0  0  0  0  0  0  0  0  0  0
   14.7934   -9.7649   17.2025 C   0  0  0  0  0  0  0  0  0  0  0  0
   14.2864  -10.2673   16.0042 C   0  0  0  0  0  0  0  0  0  0  0  0
   13.2709   -9.5836   15.3335 C   0  0  0  0  0  0  0  0  0  0  0  0
   12.7597   -8.3973   15.8601 C   0  0  0  0  0  0  0  0  0  0  0  0
   13.2671   -7.8977   17.0593 C   0  0  0  0  0  0  0  0  0  0  0  0
   12.9816   -6.8174   17.7818 N   0  0  0  0  0  0  0  0  0  0  0  0
   12.3021   -6.1400   17.5610 H   0  0  0  0  0  0  0  0  0  0  0  0
 10 11  2  0  0  0
 11 12  1  0  0  0
 11 17  1  0  0  0
 12 13  2  0  0  0
 13 14  1  0  0  0
 13 15  1  0  0  0
 15 16  2  0  0  0
 16 17  1  0  0  0
 17  1  1  0  0  0
  1  2  1  0  0  0
  1  3  1  0  0  0
  2  7  1  0  0  0
  3  4  1  0  0  0
  3  5  1  0  0  0
  5  6  1  0  0  0
  5  7  1  0  0  0
  7 20  1  0  0  0
 20 21  1  0  0  0
 21 22  1  0  0  0
 22 23  2  0  0  0
 22 25  1  0  0  0
 25 26  1  0  0  0
 26 27  2  0  0  0
 26 34  1  0  0  0
 27 28  1  0  0  0
 28 29  1  0  0  0
 28 33  2  0  0  0
 29 30  2  0  0  0
 30 31  1  0  0  0
 31 32  2  0  0  0
 32 33  1  0  0  0
 33 34  1  0  0  0
 14 18  1  0  0  0
 14 19  1  0  0  0
  4  8  1  0  0  0
  6  9  1  0  0  0
 21 24  1  0  0  0
 34 35  1  0  0  0
M  END
> <minimizedAffinity>
-10.56308

$$$$
2V2V_V12_A_1277


 35 38  0  0  0  0  0  0  0  0999 V2000
   16.9919   -8.4265   27.0826 C   0  0  0  0  0  0  0  0  0  0  0  0
   16.1531   -9.5761   26.6878 O   0  0  0  0  0  0  0  0  0  0  0  0
   16.1109   -7.5139   27.9572 C   0  0  0  0  0  0  0  0  0  0  0  0
   16.6545   -7.4187   29.2921 O   0  0  0  0  0  0  0  0  0  0  0  0
   14.7455   -8.2047   27.9588 C   0  0  0  0  0  0  0  0  0  0  0  0
   14.2025   -8.1982   29.2785 O   0  0  0  0  0  0  0  0  0  0  0  0
   15.0327   -9.6412   27.5619 C   0  0  0  0  0  0  0  0  0  0  0  0
   16.7286   -8.3067   29.6752 H   0  0  0  0  0  0  0  0  0  0  0  0
   14.8208   -8.6352   29.8848 H   0  0  0  0  0  0  0  0  0  0  0  0
   18.3147   -5.8439   26.7049 O   0  0  0  0  0  0  0  0  0  0  0  0
   18.0619   -6.5291   25.7113 C   0  0  0  0  0  0  0  0  0  0  0  0
   18.4091   -6.0559   24.5016 N   0  0  0  0  0  0  0  0  0  0  0  0
   18.1810   -6.7353   23.3642 C   0  0  0  0  0  0  0  0  0  0  0  0
   18.5438   -6.2260   22.1902 N   0  0  0  0  0  0  0  0  0  0  0  0
   17.5622   -7.9783   23.3894 C   0  0  0  0  0  0  0  0  0  0  0  0
   17.1843   -8.5168   24.6092 C   0  0  0  0  0  0  0  0  0  0  0  0
   17.4252   -7.7927   25.7968 N   0  0  0  0  0  0  0  0  0  0  0  0
   18.9838   -5.3462   22.1501 H   0  0  0  0  0  0  0  0  0  0  0  0
   18.3722   -6.7287   21.3613 H   0  0  0  0  0  0  0  0  0  0  0  0
   13.8343  -10.0999   26.7246 C   0  0  0  0  0  0  0  0  0  0  0  0
   13.2423   -8.9874   25.9612 N   0  0  0  0  0  0  0  0  0  0  0  0
   12.0911   -9.0843   25.2909 C   0  0  0  0  0  0  0  0  0  0  0  0
   11.4013  -10.1027   25.2281 O   0  0  0  0  0  0  0  0  0  0  0  0
   13.7207   -8.1271   25.9442 H   0  0  0  0  0  0  0  0  0  0  0  0
   11.6623   -7.7921   24.5837 C   0  0  0  0  0  0  0  0  0  0  0  0
   12.3282   -7.6205   23.2106 C   0  0  0  0  0  0  0  0  0  0  0  0
   13.6351   -7.7575   22.9858 N   0  0  0  0  0  0  0  0  0  0  0  0
   13.8688   -7.5421   21.6961 C   0  0  0  0  0  0  0  0  0  0  0  0
   15.0361   -7.5559   20.9335 C   0  0  0  0  0  0  0  0  0  0  0  0
   14.9703   -7.2857   19.5668 C   0  0  0  0  0  0  0  0  0  0  0  0
   13.7412   -7.0019   18.9688 C   0  0  0  0  0  0  0  0  0  0  0  0
   12.5761   -6.9890   19.7356 C   0  0  0  0  0  0  0  0  0  0  0  0
   12.6442   -7.2612   21.1018 C   0  0  0  0  0  0  0  0  0  0  0  0
   11.7223   -7.3183   22.0596 N   0  0  0  0  0  0  0  0  0  0  0  0
   10.7573   -7.1639   21.9400 H   0  0  0  0  0  0  0  0  0  0  0  0
 10 11  2  0  0  0
 11 12  1  0  0  0
 11 17  1  0  0  0
 12 13  2  0  0  0
 13 14  1  0  0  0
 13 15  1  0  0  0
 15 16  2  0  0  0
 16 17  1  0  0  0
 17  1  1  0  0  0
  1  2  1  0  0  0
  1  3  1  0  0  0
  2  7  1  0  0  0
  3  4  1  0  0  0
  3  5  1  0  0  0
  5  6  1  0  0  0
  5  7  1  0  0  0
  7 20  1  0  0  0
 20 21  1  0  0  0
 21 22  1  0  0  0
 22 23  2  0  0  0
 22 25  1  0  0  0
 25 26  1  0  0  0
 26 27  2  0  0  0
 26 34  1  0  0  0
 27 28  1  0  0  0
 28 29  1  0  0  0
 28 33  2  0  0  0
 29 30  2  0  0  0
 30 31  1  0  0  0
 31 32  2  0  0  0
 32 33  1  0  0  0
 33 34  1  0  0  0
 14 18  1  0  0  0
 14 19  1  0  0  0
  4  8  1  0  0  0
  6  9  1  0  0  0
 21 24  1  0  0  0
 34 35  1  0  0  0
M  END
> <minimizedAffinity>
-10.06764

$$$$
2V2V_V12_A_1277


 35 38  0  0  0  0  0  0  0  0999 V2000
   11.1272   -7.6172   24.1667 C   0  0  0  0  0  0  0  0  0  0  0  0
   11.7328   -6.5558   24.9962 O   0  0  0  0  0  0  0  0  0  0  0  0
   12.0068   -8.8705   24.3380 C   0  0  0  0  0  0  0  0  0  0  0  0
   11.2471   -9.9396   24.9435 O   0  0  0  0  0  0  0  0  0  0  0  0
   13.1427   -8.4063   25.2521 C   0  0  0  0  0  0  0  0  0  0  0  0
   13.3990   -9.3980   26.2458 O   0  0  0  0  0  0  0  0  0  0  0  0
   12.6099   -7.1617   25.9381 C   0  0  0  0  0  0  0  0  0  0  0  0
   10.8914   -9.6414   25.7952 H   0  0  0  0  0  0  0  0  0  0  0  0
   12.5875   -9.5689   26.7489 H   0  0  0  0  0  0  0  0  0  0  0  0
    9.3111   -5.6301   23.0199 O   0  0  0  0  0  0  0  0  0  0  0  0
   10.1940   -6.1068   22.3030 C   0  0  0  0  0  0  0  0  0  0  0  0
   10.2800   -5.6877   21.0284 N   0  0  0  0  0  0  0  0  0  0  0  0
   11.2138   -6.1449   20.1760 C   0  0  0  0  0  0  0  0  0  0  0  0
   11.2596   -5.6992   18.9236 N   0  0  0  0  0  0  0  0  0  0  0  0
   12.1464   -7.0904   20.5821 C   0  0  0  0  0  0  0  0  0  0  0  0
   12.1068   -7.5570   21.8864 C   0  0  0  0  0  0  0  0  0  0  0  0
   11.1195   -7.0730   22.7716 N   0  0  0  0  0  0  0  0  0  0  0  0
   10.6077   -5.0289   18.6155 H   0  0  0  0  0  0  0  0  0  0  0  0
   11.9455   -6.0396   18.3047 H   0  0  0  0  0  0  0  0  0  0  0  0
   13.8082   -6.2217   26.1069 C   0  0  0  0  0  0  0  0  0  0  0  0
   14.9686   -6.6672   25.3157 N   0  0  0  0  0  0  0  0  0  0  0  0
   16.2344   -6.5097   25.7117 C   0  0  0  0  0  0  0  0  0  0  0  0
   16.5762   -5.9758   26.7677 O   0  0  0  0  0  0  0  0  0  0  0  0
   14.8021   -7.1039   24.4492 H   0  0  0  0  0  0  0  0  0  0  0  0
   17.2757   -7.0664   24.7321 C   0  0  0  0  0  0  0  0  0  0  0  0
   16.7921   -7.0364   23.2749 C   0  0  0  0  0  0  0  0  0  0  0  0
   16.2952   -5.9578   22.6691 N   0  0  0  0  0  0  0  0  0  0  0  0
   15.9775   -6.2808   21.4205 C   0  0  0  0  0  0  0  0  0  0  0  0
   15.4301   -5.5496   20.3669 C   0  0  0  0  0  0  0  0  0  0  0  0
   15.2038   -6.1725   19.1396 C   0  0  0  0  0  0  0  0  0  0  0  0
   15.5231   -7.5208   18.9706 C   0  0  0  0  0  0  0  0  0  0  0  0
   16.0704   -8.2483   20.0275 C   0  0  0  0  0  0  0  0  0  0  0  0
   16.2973   -7.6230   21.2532 C   0  0  0  0  0  0  0  0  0  0  0  0
   16.7946   -8.0537   22.4099 N   0  0  0  0  0  0  0  0  0  0  0  0
   17.1106   -8.9673   22.5963 H   0  0  0  0  0  0  0  0  0  0  0  0
 10 11  2  0  0  0
 11 12  1  0  0  0
 11 17  1  0  0  0
 12 13  2  0  0  0
 13 14  1  0  0  0
 13 15  1  0  0  0
 15 16  2  0  0  0
 16 17  1  0  0  0
 17  1  1  0  0  0
  1  2  1  0  0  0
  1  3  1  0  0  0
  2  7  1  0  0  0
  3  4  1  0  0  0
  3  5  1  0  0  0
  5  6  1  0  0  0
  5  7  1  0  0  0
  7 20  1  0  0  0
 20 21  1  0  0  0
 21 22  1  0  0  0
 22 23  2  0  0  0
 22 25  1  0  0  0
 25 26  1  0  0  0
 26 27  2  0  0  0
 26 34  1  0  0  0
 27 28  1  0  0  0
 28 29  1  0  0  0
 28 33  2  0  0  0
 29 30  2  0  0  0
 30 31  1  0  0  0
 31 32  2  0  0  0
 32 33  1  0  0  0
 33 34  1  0  0  0
 14 18  1  0  0  0
 14 19  1  0  0  0
  4  8  1  0  0  0
  6  9  1  0  0  0
 21 24  1  0  0  0
 34 35  1  0  0  0
M  END
> <minimizedAffinity>
-10.01670

$$$$
2V2V_V12_A_1277


 35 38  0  0  0  0  0  0  0  0999 V2000
   15.8744   -8.9372   25.6331 C   0  0  0  0  0  0  0  0  0  0  0  0
   14.4923   -8.7911   25.1334 O   0  0  0  0  0  0  0  0  0  0  0  0
   15.8759   -8.4310   27.0883 C   0  0  0  0  0  0  0  0  0  0  0  0
   16.2261   -9.5013   27.9932 O   0  0  0  0  0  0  0  0  0  0  0  0
   14.4404   -7.9536   27.3182 C   0  0  0  0  0  0  0  0  0  0  0  0
   13.9844   -8.3923   28.5973 O   0  0  0  0  0  0  0  0  0  0  0  0
   13.6198   -8.6498   26.2480 C   0  0  0  0  0  0  0  0  0  0  0  0
   15.6054  -10.2378   27.8784 H   0  0  0  0  0  0  0  0  0  0  0  0
   14.0483   -9.3588   28.6493 H   0  0  0  0  0  0  0  0  0  0  0  0
   15.6130   -6.0901   25.0105 O   0  0  0  0  0  0  0  0  0  0  0  0
   16.5142   -6.7333   24.4674 C   0  0  0  0  0  0  0  0  0  0  0  0
   17.3348   -6.0930   23.6163 N   0  0  0  0  0  0  0  0  0  0  0  0
   18.3487   -6.7096   22.9843 C   0  0  0  0  0  0  0  0  0  0  0  0
   19.1349   -6.0333   22.1514 N   0  0  0  0  0  0  0  0  0  0  0  0
   18.5955   -8.0614   23.1848 C   0  0  0  0  0  0  0  0  0  0  0  0
   17.7825   -8.7718   24.0537 C   0  0  0  0  0  0  0  0  0  0  0  0
   16.7184   -8.1151   24.7087 N   0  0  0  0  0  0  0  0  0  0  0  0
   18.9772   -5.0741   21.9952 H   0  0  0  0  0  0  0  0  0  0  0  0
   19.8746   -6.4918   21.6911 H   0  0  0  0  0  0  0  0  0  0  0  0
   12.5240   -7.6597   25.8395 C   0  0  0  0  0  0  0  0  0  0  0  0
   11.9881   -7.9589   24.5000 N   0  0  0  0  0  0  0  0  0  0  0  0
   11.1090   -7.1776   23.8670 C   0  0  0  0  0  0  0  0  0  0  0  0
   10.6448   -6.1326   24.3245 O   0  0  0  0  0  0  0  0  0  0  0  0
   12.2942   -8.7780   24.0477 H   0  0  0  0  0  0  0  0  0  0  0  0
   10.7055   -7.6812   22.4751 C   0  0  0  0  0  0  0  0  0  0  0  0
   11.7212   -7.2961   21.3895 C   0  0  0  0  0  0  0  0  0  0  0  0
   13.0432   -7.3007   21.5605 N   0  0  0  0  0  0  0  0  0  0  0  0
   13.6192   -6.9168   20.4268 C   0  0  0  0  0  0  0  0  0  0  0  0
   14.9527   -6.7472   20.0562 C   0  0  0  0  0  0  0  0  0  0  0  0
   15.2607   -6.3237   18.7634 C   0  0  0  0  0  0  0  0  0  0  0  0
   14.2373   -6.0706   17.8484 C   0  0  0  0  0  0  0  0  0  0  0  0
   12.9047   -6.2414   18.2237 C   0  0  0  0  0  0  0  0  0  0  0  0
   12.5993   -6.6665   19.5164 C   0  0  0  0  0  0  0  0  0  0  0  0
   11.4495   -6.9097   20.1404 N   0  0  0  0  0  0  0  0  0  0  0  0
   10.5511   -6.8199   19.7480 H   0  0  0  0  0  0  0  0  0  0  0  0
 10 11  2  0  0  0
 11 12  1  0  0  0
 11 17  1  0  0  0
 12 13  2  0  0  0
 13 14  1  0  0  0
 13 15  1  0  0  0
 15 16  2  0  0  0
 16 17  1  0  0  0
 17  1  1  0  0  0
  1  2  1  0  0  0
  1  3  1  0  0  0
  2  7  1  0  0  0
  3  4  1  0  0  0
  3  5  1  0  0  0
  5  6  1  0  0  0
  5  7  1  0  0  0
  7 20  1  0  0  0
 20 21  1  0  0  0
 21 22  1  0  0  0
 22 23  2  0  0  0
 22 25  1  0  0  0
 25 26  1  0  0  0
 26 27  2  0  0  0
 26 34  1  0  0  0
 27 28  1  0  0  0
 28 29  1  0  0  0
 28 33  2  0  0  0
 29 30  2  0  0  0
 30 31  1  0  0  0
 31 32  2  0  0  0
 32 33  1  0  0  0
 33 34  1  0  0  0
 14 18  1  0  0  0
 14 19  1  0  0  0
  4  8  1  0  0  0
  6  9  1  0  0  0
 21 24  1  0  0  0
 34 35  1  0  0  0
M  END
> <minimizedAffinity>
-9.85572

$$$$
2V2V_V12_A_1277


 35 38  0  0  0  0  0  0  0  0999 V2000
   13.5676   -8.2568   27.0565 C   0  0  0  0  0  0  0  0  0  0  0  0
   14.3905   -7.0624   26.7782 O   0  0  0  0  0  0  0  0  0  0  0  0
   14.5445   -9.4294   27.2677 C   0  0  0  0  0  0  0  0  0  0  0  0
   14.4247   -9.9487   28.6104 O   0  0  0  0  0  0  0  0  0  0  0  0
   15.9243   -8.8123   27.0294 C   0  0  0  0  0  0  0  0  0  0  0  0
   16.8368   -9.2699   28.0266 O   0  0  0  0  0  0  0  0  0  0  0  0
   15.7219   -7.3188   27.2087 C   0  0  0  0  0  0  0  0  0  0  0  0
   14.5881   -9.2366   29.2483 H   0  0  0  0  0  0  0  0  0  0  0  0
   16.4952   -9.0435   28.9058 H   0  0  0  0  0  0  0  0  0  0  0  0
   12.4336  -10.7273   25.9736 O   0  0  0  0  0  0  0  0  0  0  0  0
   12.1814   -9.6626   25.4049 C   0  0  0  0  0  0  0  0  0  0  0  0
   11.3947   -9.6892   24.3149 N   0  0  0  0  0  0  0  0  0  0  0  0
   11.0596   -8.5788   23.6349 C   0  0  0  0  0  0  0  0  0  0  0  0
   10.2771   -8.6556   22.5621 N   0  0  0  0  0  0  0  0  0  0  0  0
   11.5228   -7.3323   24.0349 C   0  0  0  0  0  0  0  0  0  0  0  0
   12.3359   -7.2442   25.1537 C   0  0  0  0  0  0  0  0  0  0  0  0
   12.6846   -8.4171   25.8576 N   0  0  0  0  0  0  0  0  0  0  0  0
    9.9380   -9.5296   22.2616 H   0  0  0  0  0  0  0  0  0  0  0  0
   10.0371   -7.8383   22.0684 H   0  0  0  0  0  0  0  0  0  0  0  0
   16.6587   -6.6381   26.2053 C   0  0  0  0  0  0  0  0  0  0  0  0
   16.6912   -7.3512   24.9164 N   0  0  0  0  0  0  0  0  0  0  0  0
   16.3880   -6.7773   23.7491 C   0  0  0  0  0  0  0  0  0  0  0  0
   16.0446   -5.6021   23.6152 O   0  0  0  0  0  0  0  0  0  0  0  0
   16.9501   -8.3011   24.9156 H   0  0  0  0  0  0  0  0  0  0  0  0
   16.5081   -7.7105   22.5373 C   0  0  0  0  0  0  0  0  0  0  0  0
   15.4877   -7.3850   21.4367 C   0  0  0  0  0  0  0  0  0  0  0  0
   15.7161   -7.5319   20.1316 N   0  0  0  0  0  0  0  0  0  0  0  0
   14.6285   -7.1606   19.4658 C   0  0  0  0  0  0  0  0  0  0  0  0
   14.3252   -7.1123   18.1057 C   0  0  0  0  0  0  0  0  0  0  0  0
   13.0688   -6.6674   17.6945 C   0  0  0  0  0  0  0  0  0  0  0  0
   12.1228   -6.2720   18.6419 C   0  0  0  0  0  0  0  0  0  0  0  0
   12.4307   -6.3218   20.0015 C   0  0  0  0  0  0  0  0  0  0  0  0
   13.6870   -6.7685   20.4102 C   0  0  0  0  0  0  0  0  0  0  0  0
   14.2477   -6.9196   21.6075 N   0  0  0  0  0  0  0  0  0  0  0  0
   13.8209   -6.7218   22.4724 H   0  0  0  0  0  0  0  0  0  0  0  0
 10 11  2  0  0  0
 11 12  1  0  0  0
 11 17  1  0  0  0
 12 13  2  0  0  0
 13 14  1  0  0  0
 13 15  1  0  0  0
 15 16  2  0  0  0
 16 17  1  0  0  0
 17  1  1  0  0  0
  1  2  1  0  0  0
  1  3  1  0  0  0
  2  7  1  0  0  0
  3  4  1  0  0  0
  3  5  1  0  0  0
  5  6  1  0  0  0
  5  7  1  0  0  0
  7 20  1  0  0  0
 20 21  1  0  0  0
 21 22  1  0  0  0
 22 23  2  0  0  0
 22 25  1  0  0  0
 25 26  1  0  0  0
 26 27  2  0  0  0
 26 34  1  0  0  0
 27 28  1  0  0  0
 28 29  1  0  0  0
 28 33  2  0  0  0
 29 30  2  0  0  0
 30 31  1  0  0  0
 31 32  2  0  0  0
 32 33  1  0  0  0
 33 34  1  0  0  0
 14 18  1  0  0  0
 14 19  1  0  0  0
  4  8  1  0  0  0
  6  9  1  0  0  0
 21 24  1  0  0  0
 34 35  1  0  0  0
M  END
> <minimizedAffinity>
-9.75918

$$$$
2V2V_V12_A_1277


 35 38  0  0  0  0  0  0  0  0999 V2000
   16.0868   -7.8714   27.4950 C   0  0  0  0  0  0  0  0  0  0  0  0
   14.7985   -8.1934   26.8487 O   0  0  0  0  0  0  0  0  0  0  0  0
   16.7811   -6.8241   26.6034 C   0  0  0  0  0  0  0  0  0  0  0  0
   16.9572   -5.5855   27.3255 O   0  0  0  0  0  0  0  0  0  0  0  0
   15.8257   -6.6494   25.4209 C   0  0  0  0  0  0  0  0  0  0  0  0
   15.6931   -5.2635   25.1078 O   0  0  0  0  0  0  0  0  0  0  0  0
   14.4871   -7.1621   25.9197 C   0  0  0  0  0  0  0  0  0  0  0  0
   16.0952   -5.2665   27.6353 H   0  0  0  0  0  0  0  0  0  0  0  0
   15.3790   -4.7838   25.8902 H   0  0  0  0  0  0  0  0  0  0  0  0
   18.3332   -8.5575   29.2399 O   0  0  0  0  0  0  0  0  0  0  0  0
   17.9069   -9.4136   28.4614 C   0  0  0  0  0  0  0  0  0  0  0  0
   18.4950  -10.6227   28.4543 N   0  0  0  0  0  0  0  0  0  0  0  0
   18.0940  -11.6196   27.6463 C   0  0  0  0  0  0  0  0  0  0  0  0
   18.7069  -12.7997   27.6761 N   0  0  0  0  0  0  0  0  0  0  0  0
   17.0362  -11.4394   26.7647 C   0  0  0  0  0  0  0  0  0  0  0  0
   16.3907  -10.2136   26.7304 C   0  0  0  0  0  0  0  0  0  0  0  0
   16.8228   -9.1727   27.5804 N   0  0  0  0  0  0  0  0  0  0  0  0
   19.4590  -12.9482   28.2938 H   0  0  0  0  0  0  0  0  0  0  0  0
   18.4086  -13.5245   27.0805 H   0  0  0  0  0  0  0  0  0  0  0  0
   13.8108   -7.8285   24.7170 C   0  0  0  0  0  0  0  0  0  0  0  0
   14.6132   -7.6856   23.4896 N   0  0  0  0  0  0  0  0  0  0  0  0
   14.0811   -7.4887   22.2804 C   0  0  0  0  0  0  0  0  0  0  0  0
   12.8735   -7.4104   22.0514 O   0  0  0  0  0  0  0  0  0  0  0  0
   15.5934   -7.7380   23.5647 H   0  0  0  0  0  0  0  0  0  0  0  0
   15.1119   -7.3526   21.1522 C   0  0  0  0  0  0  0  0  0  0  0  0
   14.5007   -7.5811   19.7620 C   0  0  0  0  0  0  0  0  0  0  0  0
   14.7822   -8.6222   18.9783 N   0  0  0  0  0  0  0  0  0  0  0  0
   14.0836   -8.5085   17.8544 C   0  0  0  0  0  0  0  0  0  0  0  0
   13.9986   -9.3031   16.7117 C   0  0  0  0  0  0  0  0  0  0  0  0
   13.1577   -8.9207   15.6667 C   0  0  0  0  0  0  0  0  0  0  0  0
   12.4076   -7.7476   15.7666 C   0  0  0  0  0  0  0  0  0  0  0  0
   12.4959   -6.9557   16.9115 C   0  0  0  0  0  0  0  0  0  0  0  0
   13.3362   -7.3410   17.9558 C   0  0  0  0  0  0  0  0  0  0  0  0
   13.6166   -6.7986   19.1382 N   0  0  0  0  0  0  0  0  0  0  0  0
   13.2367   -5.9625   19.4928 H   0  0  0  0  0  0  0  0  0  0  0  0
 10 11  2  0  0  0
 11 12  1  0  0  0
 11 17  1  0  0  0
 12 13  2  0  0  0
 13 14  1  0  0  0
 13 15  1  0  0  0
 15 16  2  0  0  0
 16 17  1  0  0  0
 17  1  1  0  0  0
  1  2  1  0  0  0
  1  3  1  0  0  0
  2  7  1  0  0  0
  3  4  1  0  0  0
  3  5  1  0  0  0
  5  6  1  0  0  0
  5  7  1  0  0  0
  7 20  1  0  0  0
 20 21  1  0  0  0
 21 22  1  0  0  0
 22 23  2  0  0  0
 22 25  1  0  0  0
 25 26  1  0  0  0
 26 27  2  0  0  0
 26 34  1  0  0  0
 27 28  1  0  0  0
 28 29  1  0  0  0
 28 33  2  0  0  0
 29 30  2  0  0  0
 30 31  1  0  0  0
 31 32  2  0  0  0
 32 33  1  0  0  0
 33 34  1  0  0  0
 14 18  1  0  0  0
 14 19  1  0  0  0
  4  8  1  0  0  0
  6  9  1  0  0  0
 21 24  1  0  0  0
 34 35  1  0  0  0
M  END
> <minimizedAffinity>
-9.68088

$$$$
2V2V_V12_A_1277


 35 38  0  0  0  0  0  0  0  0999 V2000
   15.2435   -6.9864   25.7794 C   0  0  0  0  0  0  0  0  0  0  0  0
   15.0612   -6.7599   24.3314 O   0  0  0  0  0  0  0  0  0  0  0  0
   16.7594   -6.9316   26.0497 C   0  0  0  0  0  0  0  0  0  0  0  0
   17.0733   -5.8351   26.9362 O   0  0  0  0  0  0  0  0  0  0  0  0
   17.3774   -6.7242   24.6653 C   0  0  0  0  0  0  0  0  0  0  0  0
   18.4096   -5.7416   24.7395 O   0  0  0  0  0  0  0  0  0  0  0  0
   16.2493   -6.1760   23.8107 C   0  0  0  0  0  0  0  0  0  0  0  0
   16.7557   -5.0047   26.5484 H   0  0  0  0  0  0  0  0  0  0  0  0
   18.0443   -4.9147   25.0913 H   0  0  0  0  0  0  0  0  0  0  0  0
   12.4807   -7.8304   25.3141 O   0  0  0  0  0  0  0  0  0  0  0  0
   13.2745   -8.6441   25.7920 C   0  0  0  0  0  0  0  0  0  0  0  0
   12.8310   -9.8817   26.0743 N   0  0  0  0  0  0  0  0  0  0  0  0
   13.6247  -10.8365   26.5897 C   0  0  0  0  0  0  0  0  0  0  0  0
   13.1402  -12.0473   26.8515 N   0  0  0  0  0  0  0  0  0  0  0  0
   14.9624  -10.5804   26.8610 C   0  0  0  0  0  0  0  0  0  0  0  0
   15.4750   -9.3222   26.5879 C   0  0  0  0  0  0  0  0  0  0  0  0
   14.6315   -8.3260   26.0505 N   0  0  0  0  0  0  0  0  0  0  0  0
   12.1946  -12.2497   26.6665 H   0  0  0  0  0  0  0  0  0  0  0  0
   13.7271  -12.7411   27.2301 H   0  0  0  0  0  0  0  0  0  0  0  0
   16.4577   -6.7544   22.4073 C   0  0  0  0  0  0  0  0  0  0  0  0
   15.3760   -6.3613   21.4873 N   0  0  0  0  0  0  0  0  0  0  0  0
   15.4955   -6.3844   20.1572 C   0  0  0  0  0  0  0  0  0  0  0  0
   16.5118   -6.7266   19.5516 O   0  0  0  0  0  0  0  0  0  0  0  0
   14.5199   -6.0661   21.8735 H   0  0  0  0  0  0  0  0  0  0  0  0
   14.2327   -5.9482   19.4029 C   0  0  0  0  0  0  0  0  0  0  0  0
   12.9445   -6.2468   20.1838 C   0  0  0  0  0  0  0  0  0  0  0  0
   12.6297   -7.4401   20.6878 N   0  0  0  0  0  0  0  0  0  0  0  0
   11.4537   -7.3462   21.2981 C   0  0  0  0  0  0  0  0  0  0  0  0
   10.6686   -8.2741   21.9816 C   0  0  0  0  0  0  0  0  0  0  0  0
    9.4502   -7.8750   22.5308 C   0  0  0  0  0  0  0  0  0  0  0  0
    9.0212   -6.5536   22.3941 C   0  0  0  0  0  0  0  0  0  0  0  0
    9.8098   -5.6290   21.7094 C   0  0  0  0  0  0  0  0  0  0  0  0
   11.0285   -6.0300   21.1625 C   0  0  0  0  0  0  0  0  0  0  0  0
   11.9670   -5.3846   20.4744 N   0  0  0  0  0  0  0  0  0  0  0  0
   11.9446   -4.4332   20.2224 H   0  0  0  0  0  0  0  0  0  0  0  0
 10 11  2  0  0  0
 11 12  1  0  0  0
 11 17  1  0  0  0
 12 13  2  0  0  0
 13 14  1  0  0  0
 13 15  1  0  0  0
 15 16  2  0  0  0
 16 17  1  0  0  0
 17  1  1  0  0  0
  1  2  1  0  0  0
  1  3  1  0  0  0
  2  7  1  0  0  0
  3  4  1  0  0  0
  3  5  1  0  0  0
  5  6  1  0  0  0
  5  7  1  0  0  0
  7 20  1  0  0  0
 20 21  1  0  0  0
 21 22  1  0  0  0
 22 23  2  0  0  0
 22 25  1  0  0  0
 25 26  1  0  0  0
 26 27  2  0  0  0
 26 34  1  0  0  0
 27 28  1  0  0  0
 28 29  1  0  0  0
 28 33  2  0  0  0
 29 30  2  0  0  0
 30 31  1  0  0  0
 31 32  2  0  0  0
 32 33  1  0  0  0
 33 34  1  0  0  0
 14 18  1  0  0  0
 14 19  1  0  0  0
  4  8  1  0  0  0
  6  9  1  0  0  0
 21 24  1  0  0  0
 34 35  1  0  0  0
M  END
> <minimizedAffinity>
-9.66879

$$$$
2V2V_V12_A_1277


 35 38  0  0  0  0  0  0  0  0999 V2000
   16.6861   -8.4440   26.4582 C   0  0  0  0  0  0  0  0  0  0  0  0
   15.2773   -8.3289   26.8864 O   0  0  0  0  0  0  0  0  0  0  0  0
   16.7182   -8.1332   24.9495 C   0  0  0  0  0  0  0  0  0  0  0  0
   17.5128   -6.9539   24.6953 O   0  0  0  0  0  0  0  0  0  0  0  0
   15.2496   -7.9057   24.5847 C   0  0  0  0  0  0  0  0  0  0  0  0
   15.1348   -6.7683   23.7304 O   0  0  0  0  0  0  0  0  0  0  0  0
   14.5629   -7.5921   25.9013 C   0  0  0  0  0  0  0  0  0  0  0  0
   17.1538   -6.2072   25.1998 H   0  0  0  0  0  0  0  0  0  0  0  0
   15.5138   -5.9925   24.1723 H   0  0  0  0  0  0  0  0  0  0  0  0
   18.3487   -9.3575   28.6860 O   0  0  0  0  0  0  0  0  0  0  0  0
   17.9027  -10.1958   27.8992 C   0  0  0  0  0  0  0  0  0  0  0  0
   18.2011  -11.4905   28.1055 N   0  0  0  0  0  0  0  0  0  0  0  0
   17.7539  -12.4742   27.3056 C   0  0  0  0  0  0  0  0  0  0  0  0
   18.0753  -13.7413   27.5510 N   0  0  0  0  0  0  0  0  0  0  0  0
   16.9512  -12.1901   26.2086 C   0  0  0  0  0  0  0  0  0  0  0  0
   16.6094  -10.8724   25.9486 C   0  0  0  0  0  0  0  0  0  0  0  0
   17.0880   -9.8473   26.7928 N   0  0  0  0  0  0  0  0  0  0  0  0
   18.6434  -13.9643   28.3235 H   0  0  0  0  0  0  0  0  0  0  0  0
   17.7453  -14.4562   26.9600 H   0  0  0  0  0  0  0  0  0  0  0  0
   13.1619   -8.2056   25.8082 C   0  0  0  0  0  0  0  0  0  0  0  0
   12.3899   -7.6392   24.6883 N   0  0  0  0  0  0  0  0  0  0  0  0
   11.5522   -8.3557   23.9341 C   0  0  0  0  0  0  0  0  0  0  0  0
   11.3339   -9.5591   24.0803 O   0  0  0  0  0  0  0  0  0  0  0  0
   12.4973   -6.6819   24.4852 H   0  0  0  0  0  0  0  0  0  0  0  0
   10.8454   -7.5499   22.8365 C   0  0  0  0  0  0  0  0  0  0  0  0
   11.7614   -7.2483   21.6414 C   0  0  0  0  0  0  0  0  0  0  0  0
   13.0934   -7.2713   21.6897 N   0  0  0  0  0  0  0  0  0  0  0  0
   13.5672   -6.9642   20.4875 C   0  0  0  0  0  0  0  0  0  0  0  0
   14.8629   -6.8441   19.9862 C   0  0  0  0  0  0  0  0  0  0  0  0
   15.0556   -6.5009   18.6482 C   0  0  0  0  0  0  0  0  0  0  0  0
   13.9555   -6.2780   17.8182 C   0  0  0  0  0  0  0  0  0  0  0  0
   12.6612   -6.3991   18.3240 C   0  0  0  0  0  0  0  0  0  0  0  0
   12.4710   -6.7440   19.6619 C   0  0  0  0  0  0  0  0  0  0  0  0
   11.3806   -6.9272   20.4024 N   0  0  0  0  0  0  0  0  0  0  0  0
   10.4510   -6.8407   20.0899 H   0  0  0  0  0  0  0  0  0  0  0  0
 10 11  2  0  0  0
 11 12  1  0  0  0
 11 17  1  0  0  0
 12 13  2  0  0  0
 13 14  1  0  0  0
 13 15  1  0  0  0
 15 16  2  0  0  0
 16 17  1  0  0  0
 17  1  1  0  0  0
  1  2  1  0  0  0
  1  3  1  0  0  0
  2  7  1  0  0  0
  3  4  1  0  0  0
  3  5  1  0  0  0
  5  6  1  0  0  0
  5  7  1  0  0  0
  7 20  1  0  0  0
 20 21  1  0  0  0
 21 22  1  0  0  0
 22 23  2  0  0  0
 22 25  1  0  0  0
 25 26  1  0  0  0
 26 27  2  0  0  0
 26 34  1  0  0  0
 27 28  1  0  0  0
 28 29  1  0  0  0
 28 33  2  0  0  0
 29 30  2  0  0  0
 30 31  1  0  0  0
 31 32  2  0  0  0
 32 33  1  0  0  0
 33 34  1  0  0  0
 14 18  1  0  0  0
 14 19  1  0  0  0
  4  8  1  0  0  0
  6  9  1  0  0  0
 21 24  1  0  0  0
 34 35  1  0  0  0
M  END
> <minimizedAffinity>
-9.59208

$$$$
2V2V_V12_A_1277


 35 38  0  0  0  0  0  0  0  0999 V2000
   14.9413   -5.8039   20.6382 C   0  0  0  0  0  0  0  0  0  0  0  0
   16.1687   -5.3772   19.9364 O   0  0  0  0  0  0  0  0  0  0  0  0
   15.2923   -7.0962   21.4002 C   0  0  0  0  0  0  0  0  0  0  0  0
   15.1468   -6.8967   22.8235 O   0  0  0  0  0  0  0  0  0  0  0  0
   16.7497   -7.3679   21.0212 C   0  0  0  0  0  0  0  0  0  0  0  0
   17.4870   -7.7517   22.1813 O   0  0  0  0  0  0  0  0  0  0  0  0
   17.2821   -6.0343   20.5299 C   0  0  0  0  0  0  0  0  0  0  0  0
   15.7098   -6.1589   23.1058 H   0  0  0  0  0  0  0  0  0  0  0  0
   17.4201   -7.0544   22.8522 H   0  0  0  0  0  0  0  0  0  0  0  0
   12.0445   -6.0846   20.9402 O   0  0  0  0  0  0  0  0  0  0  0  0
   12.5270   -6.1262   19.8061 C   0  0  0  0  0  0  0  0  0  0  0  0
   11.6966   -6.2966   18.7625 N   0  0  0  0  0  0  0  0  0  0  0  0
   12.1306   -6.3466   17.4910 C   0  0  0  0  0  0  0  0  0  0  0  0
   11.2700   -6.5160   16.4910 N   0  0  0  0  0  0  0  0  0  0  0  0
   13.4818   -6.2250   17.1947 C   0  0  0  0  0  0  0  0  0  0  0  0
   14.3840   -6.0450   18.2312 C   0  0  0  0  0  0  0  0  0  0  0  0
   13.9176   -5.9981   19.5627 N   0  0  0  0  0  0  0  0  0  0  0  0
   10.3077   -6.6044   16.6793 H   0  0  0  0  0  0  0  0  0  0  0  0
   11.5952   -6.5530   15.5625 H   0  0  0  0  0  0  0  0  0  0  0  0
   18.2677   -6.3578   19.4023 C   0  0  0  0  0  0  0  0  0  0  0  0
   18.2164   -7.7804   19.0222 N   0  0  0  0  0  0  0  0  0  0  0  0
   19.2933   -8.4889   18.6727 C   0  0  0  0  0  0  0  0  0  0  0  0
   20.4396   -8.0410   18.6220 O   0  0  0  0  0  0  0  0  0  0  0  0
   17.3419   -8.2327   19.0260 H   0  0  0  0  0  0  0  0  0  0  0  0
   19.0003   -9.9561   18.3334 C   0  0  0  0  0  0  0  0  0  0  0  0
   17.7470  -10.1227   17.4618 C   0  0  0  0  0  0  0  0  0  0  0  0
   16.5487   -9.6224   17.7636 N   0  0  0  0  0  0  0  0  0  0  0  0
   15.6963   -9.9515   16.7997 C   0  0  0  0  0  0  0  0  0  0  0  0
   14.3389   -9.6936   16.6118 C   0  0  0  0  0  0  0  0  0  0  0  0
   13.6957  -10.1794   15.4735 C   0  0  0  0  0  0  0  0  0  0  0  0
   14.4092  -10.9206   14.5301 C   0  0  0  0  0  0  0  0  0  0  0  0
   15.7670  -11.1764   14.7223 C   0  0  0  0  0  0  0  0  0  0  0  0
   16.4083  -10.6882   15.8605 C   0  0  0  0  0  0  0  0  0  0  0  0
   17.6620  -10.7730   16.2986 N   0  0  0  0  0  0  0  0  0  0  0  0
   18.4012  -11.2366   15.8426 H   0  0  0  0  0  0  0  0  0  0  0  0
 10 11  2  0  0  0
 11 12  1  0  0  0
 11 17  1  0  0  0
 12 13  2  0  0  0
 13 14  1  0  0  0
 13 15  1  0  0  0
 15 16  2  0  0  0
 16 17  1  0  0  0
 17  1  1  0  0  0
  1  2  1  0  0  0
  1  3  1  0  0  0
  2  7  1  0  0  0
  3  4  1  0  0  0
  3  5  1  0  0  0
  5  6  1  0  0  0
  5  7  1  0  0  0
  7 20  1  0  0  0
 20 21  1  0  0  0
 21 22  1  0  0  0
 22 23  2  0  0  0
 22 25  1  0  0  0
 25 26  1  0  0  0
 26 27  2  0  0  0
 26 34  1  0  0  0
 27 28  1  0  0  0
 28 29  1  0  0  0
 28 33  2  0  0  0
 29 30  2  0  0  0
 30 31  1  0  0  0
 31 32  2  0  0  0
 32 33  1  0  0  0
 33 34  1  0  0  0
 14 18  1  0  0  0
 14 19  1  0  0  0
  4  8  1  0  0  0
  6  9  1  0  0  0
 21 24  1  0  0  0
 34 35  1  0  0  0
M  END
> <minimizedAffinity>
-9.46841

$$$$
2V2V_V12_A_1277


 35 38  0  0  0  0  0  0  0  0999 V2000
   15.9737   -8.1647   21.0402 C   0  0  0  0  0  0  0  0  0  0  0  0
   15.5863   -7.9694   22.4519 O   0  0  0  0  0  0  0  0  0  0  0  0
   17.2795   -7.3757   20.8251 C   0  0  0  0  0  0  0  0  0  0  0  0
   18.3561   -8.2713   20.4705 O   0  0  0  0  0  0  0  0  0  0  0  0
   17.5352   -6.7032   22.1756 C   0  0  0  0  0  0  0  0  0  0  0  0
   18.9157   -6.8177   22.5184 O   0  0  0  0  0  0  0  0  0  0  0  0
   16.7215   -7.5065   23.1736 C   0  0  0  0  0  0  0  0  0  0  0  0
   18.4611   -8.9412   21.1641 H   0  0  0  0  0  0  0  0  0  0  0  0
   19.1679   -7.7541   22.5362 H   0  0  0  0  0  0  0  0  0  0  0  0
   15.5489   -8.3798   18.1531 O   0  0  0  0  0  0  0  0  0  0  0  0
   14.6994   -7.8002   18.8337 C   0  0  0  0  0  0  0  0  0  0  0  0
   13.6172   -7.2967   18.2148 N   0  0  0  0  0  0  0  0  0  0  0  0
   12.6365   -6.6563   18.8749 C   0  0  0  0  0  0  0  0  0  0  0  0
   11.5840   -6.1760   18.2186 N   0  0  0  0  0  0  0  0  0  0  0  0
   12.7014   -6.4810   20.2510 C   0  0  0  0  0  0  0  0  0  0  0  0
   13.7934   -6.9816   20.9419 C   0  0  0  0  0  0  0  0  0  0  0  0
   14.8192   -7.6488   20.2381 N   0  0  0  0  0  0  0  0  0  0  0  0
   11.5185   -6.2896   17.2429 H   0  0  0  0  0  0  0  0  0  0  0  0
   10.8704   -5.7070   18.7086 H   0  0  0  0  0  0  0  0  0  0  0  0
   16.2145   -6.5039   24.2156 C   0  0  0  0  0  0  0  0  0  0  0  0
   14.9680   -6.9616   24.8540 N   0  0  0  0  0  0  0  0  0  0  0  0
   14.9358   -7.6468   26.0000 C   0  0  0  0  0  0  0  0  0  0  0  0
   15.9309   -7.9773   26.6461 O   0  0  0  0  0  0  0  0  0  0  0  0
   14.1136   -6.7512   24.4125 H   0  0  0  0  0  0  0  0  0  0  0  0
   13.5236   -8.0021   26.4830 C   0  0  0  0  0  0  0  0  0  0  0  0
   12.4767   -7.9179   25.3626 C   0  0  0  0  0  0  0  0  0  0  0  0
   11.7695   -6.8253   25.0743 N   0  0  0  0  0  0  0  0  0  0  0  0
   10.9613   -7.0990   24.0564 C   0  0  0  0  0  0  0  0  0  0  0  0
   10.0226   -6.3343   23.3648 C   0  0  0  0  0  0  0  0  0  0  0  0
    9.3072   -6.9064   22.3129 C   0  0  0  0  0  0  0  0  0  0  0  0
    9.5310   -8.2377   21.9579 C   0  0  0  0  0  0  0  0  0  0  0  0
   10.4709   -8.9990   22.6528 C   0  0  0  0  0  0  0  0  0  0  0  0
   11.1862   -8.4243   23.7031 C   0  0  0  0  0  0  0  0  0  0  0  0
   12.1214   -8.8949   24.5245 N   0  0  0  0  0  0  0  0  0  0  0  0
   12.4890   -9.8082   24.5157 H   0  0  0  0  0  0  0  0  0  0  0  0
 10 11  2  0  0  0
 11 12  1  0  0  0
 11 17  1  0  0  0
 12 13  2  0  0  0
 13 14  1  0  0  0
 13 15  1  0  0  0
 15 16  2  0  0  0
 16 17  1  0  0  0
 17  1  1  0  0  0
  1  2  1  0  0  0
  1  3  1  0  0  0
  2  7  1  0  0  0
  3  4  1  0  0  0
  3  5  1  0  0  0
  5  6  1  0  0  0
  5  7  1  0  0  0
  7 20  1  0  0  0
 20 21  1  0  0  0
 21 22  1  0  0  0
 22 23  2  0  0  0
 22 25  1  0  0  0
 25 26  1  0  0  0
 26 27  2  0  0  0
 26 34  1  0  0  0
 27 28  1  0  0  0
 28 29  1  0  0  0
 28 33  2  0  0  0
 29 30  2  0  0  0
 30 31  1  0  0  0
 31 32  2  0  0  0
 32 33  1  0  0  0
 33 34  1  0  0  0
 14 18  1  0  0  0
 14 19  1  0  0  0
  4  8  1  0  0  0
  6  9  1  0  0  0
 21 24  1  0  0  0
 34 35  1  0  0  0
M  END
> <minimizedAffinity>
-9.42192

$$$$
