5MGK_7MW_A_1901


 14 14  0  0  0  0  0  0  0  0999 V2000
 -108.2140   42.7599   28.5136 C   0  0  0  0  0  0  0  0  0  0  0  0
 -107.7330   43.7312   29.3717 C   0  0  0  0  0  0  0  0  0  0  0  0
 -108.7101   44.6339   29.5371 N   0  0  0  0  0  0  0  0  0  0  0  0
 -109.7925   44.2849   28.8214 C   0  0  0  0  0  0  0  0  0  0  0  0
 -109.5063   43.1011   28.1660 C   0  0  0  0  0  0  0  0  0  0  0  0
 -108.6442   45.4375   30.1020 H   0  0  0  0  0  0  0  0  0  0  0  0
 -107.4444   41.5475   28.0520 C   0  0  0  0  0  0  0  0  0  0  0  0
 -106.3506   41.2982   28.5165 O   0  0  0  0  0  0  0  0  0  0  0  0
 -107.5094   39.2406   27.0830 C   0  0  0  0  0  0  0  0  0  0  0  0
 -108.0522   40.6489   27.0016 C   0  0  0  0  0  0  0  0  0  0  0  0
 -111.0866   45.0590   28.7655 C   0  0  0  0  0  0  0  0  0  0  0  0
 -111.9859   44.6978   28.0347 O   0  0  0  0  0  0  0  0  0  0  0  0
 -111.2322   46.1952   29.5776 O   0  0  0  0  0  0  0  0  0  0  0  0
 -111.0458   47.4208   28.9084 C   0  0  0  0  0  0  0  0  0  0  0  0
  9 10  1  0  0  0
  8  7  2  0  0  0
 10  7  1  0  0  0
  7  1  1  0  0  0
  1  5  1  0  0  0
  1  2  2  0  0  0
  5  4  2  0  0  0
  2  3  1  0  0  0
  4  3  1  0  0  0
  4 11  1  0  0  0
 12 11  2  0  0  0
 11 13  1  0  0  0
 13 14  1  0  0  0
  3  6  1  0  0  0
M  END
> <minimizedAffinity>
-5.83603

$$$$
5MGK_7MW_A_1901


 14 14  0  0  0  0  0  0  0  0999 V2000
 -109.6643   44.1209   28.8479 C   0  0  0  0  0  0  0  0  0  0  0  0
 -108.6893   44.5405   29.7336 C   0  0  0  0  0  0  0  0  0  0  0  0
 -107.6366   43.7246   29.5809 N   0  0  0  0  0  0  0  0  0  0  0  0
 -107.8959   42.8011   28.6399 C   0  0  0  0  0  0  0  0  0  0  0  0
 -109.1717   43.0306   28.1579 C   0  0  0  0  0  0  0  0  0  0  0  0
 -106.7942   43.7924   30.0859 H   0  0  0  0  0  0  0  0  0  0  0  0
 -111.0213   44.7580   28.6809 C   0  0  0  0  0  0  0  0  0  0  0  0
 -111.8615   44.2417   27.9725 O   0  0  0  0  0  0  0  0  0  0  0  0
 -110.7815   47.2494   28.6613 C   0  0  0  0  0  0  0  0  0  0  0  0
 -111.3198   46.0489   29.4052 C   0  0  0  0  0  0  0  0  0  0  0  0
 -106.9430   41.7186   28.1959 C   0  0  0  0  0  0  0  0  0  0  0  0
 -107.3582   40.6121   27.9191 O   0  0  0  0  0  0  0  0  0  0  0  0
 -105.5742   42.0173   28.1020 O   0  0  0  0  0  0  0  0  0  0  0  0
 -105.2376   42.8977   27.0550 C   0  0  0  0  0  0  0  0  0  0  0  0
  9 10  1  0  0  0
  8  7  2  0  0  0
 10  7  1  0  0  0
  7  1  1  0  0  0
  1  5  1  0  0  0
  1  2  2  0  0  0
  5  4  2  0  0  0
  2  3  1  0  0  0
  4  3  1  0  0  0
  4 11  1  0  0  0
 12 11  2  0  0  0
 11 13  1  0  0  0
 13 14  1  0  0  0
  3  6  1  0  0  0
M  END
> <minimizedAffinity>
-5.61150

$$$$
5MGK_7MW_A_1901


 14 14  0  0  0  0  0  0  0  0999 V2000
 -109.6546   44.1012   28.7836 C   0  0  0  0  0  0  0  0  0  0  0  0
 -108.6644   44.4831   29.6695 C   0  0  0  0  0  0  0  0  0  0  0  0
 -107.6123   43.6791   29.4595 N   0  0  0  0  0  0  0  0  0  0  0  0
 -107.8866   42.7992   28.4816 C   0  0  0  0  0  0  0  0  0  0  0  0
 -109.1720   43.0460   28.0347 C   0  0  0  0  0  0  0  0  0  0  0  0
 -106.7608   43.7265   29.9513 H   0  0  0  0  0  0  0  0  0  0  0  0
 -111.0163   44.7403   28.6717 C   0  0  0  0  0  0  0  0  0  0  0  0
 -111.8788   44.2362   27.9815 O   0  0  0  0  0  0  0  0  0  0  0  0
 -110.7404   47.2277   28.7096 C   0  0  0  0  0  0  0  0  0  0  0  0
 -111.2916   46.0178   29.4284 C   0  0  0  0  0  0  0  0  0  0  0  0
 -106.9391   41.7421   27.9701 C   0  0  0  0  0  0  0  0  0  0  0  0
 -105.9398   42.0588   27.3583 O   0  0  0  0  0  0  0  0  0  0  0  0
 -107.2305   40.3917   28.2216 O   0  0  0  0  0  0  0  0  0  0  0  0
 -107.7200   39.6812   27.1080 C   0  0  0  0  0  0  0  0  0  0  0  0
  9 10  1  0  0  0
  8  7  2  0  0  0
 10  7  1  0  0  0
  7  1  1  0  0  0
  1  5  1  0  0  0
  1  2  2  0  0  0
  5  4  2  0  0  0
  2  3  1  0  0  0
  4  3  1  0  0  0
  4 11  1  0  0  0
 12 11  2  0  0  0
 11 13  1  0  0  0
 13 14  1  0  0  0
  3  6  1  0  0  0
M  END
> <minimizedAffinity>
-5.58976

$$$$
5MGK_7MW_A_1901


 14 14  0  0  0  0  0  0  0  0999 V2000
 -107.1098   42.5487   28.8406 C   0  0  0  0  0  0  0  0  0  0  0  0
 -107.9284   41.6124   28.2369 C   0  0  0  0  0  0  0  0  0  0  0  0
 -109.1478   42.1595   28.1329 N   0  0  0  0  0  0  0  0  0  0  0  0
 -109.1461   43.4017   28.6453 C   0  0  0  0  0  0  0  0  0  0  0  0
 -107.8679   43.6741   29.0980 C   0  0  0  0  0  0  0  0  0  0  0  0
 -109.9323   41.7149   27.7377 H   0  0  0  0  0  0  0  0  0  0  0  0
 -105.6471   42.3538   29.1531 C   0  0  0  0  0  0  0  0  0  0  0  0
 -105.2062   41.2438   29.3716 O   0  0  0  0  0  0  0  0  0  0  0  0
 -103.6210   43.3891   30.1963 C   0  0  0  0  0  0  0  0  0  0  0  0
 -104.7385   43.5593   29.1929 C   0  0  0  0  0  0  0  0  0  0  0  0
 -110.3393   44.3239   28.6979 C   0  0  0  0  0  0  0  0  0  0  0  0
 -111.4178   43.9553   28.2805 O   0  0  0  0  0  0  0  0  0  0  0  0
 -110.1801   45.6078   29.2438 O   0  0  0  0  0  0  0  0  0  0  0  0
 -111.3150   46.4352   29.1345 C   0  0  0  0  0  0  0  0  0  0  0  0
  9 10  1  0  0  0
  8  7  2  0  0  0
 10  7  1  0  0  0
  7  1  1  0  0  0
  1  5  1  0  0  0
  1  2  2  0  0  0
  5  4  2  0  0  0
  2  3  1  0  0  0
  4  3  1  0  0  0
  4 11  1  0  0  0
 12 11  2  0  0  0
 11 13  1  0  0  0
 13 14  1  0  0  0
  3  6  1  0  0  0
M  END
> <minimizedAffinity>
-5.09523

$$$$
5MGK_7MW_A_1901


 14 14  0  0  0  0  0  0  0  0999 V2000
 -108.6791   43.3314   28.7316 C   0  0  0  0  0  0  0  0  0  0  0  0
 -108.5523   42.0392   28.2570 C   0  0  0  0  0  0  0  0  0  0  0  0
 -107.2890   41.6540   28.4870 N   0  0  0  0  0  0  0  0  0  0  0  0
 -106.6023   42.6425   29.0844 C   0  0  0  0  0  0  0  0  0  0  0  0
 -107.4592   43.7149   29.2532 C   0  0  0  0  0  0  0  0  0  0  0  0
 -106.9176   40.7731   28.2518 H   0  0  0  0  0  0  0  0  0  0  0  0
 -109.9395   44.1584   28.6791 C   0  0  0  0  0  0  0  0  0  0  0  0
 -110.9804   43.6712   28.2876 O   0  0  0  0  0  0  0  0  0  0  0  0
 -111.2681   46.2126   29.2084 C   0  0  0  0  0  0  0  0  0  0  0  0
 -109.8883   45.6023   29.1182 C   0  0  0  0  0  0  0  0  0  0  0  0
 -105.1532   42.5694   29.4988 C   0  0  0  0  0  0  0  0  0  0  0  0
 -104.8487   42.1318   30.5893 O   0  0  0  0  0  0  0  0  0  0  0  0
 -104.1681   43.0079   28.5993 O   0  0  0  0  0  0  0  0  0  0  0  0
 -103.7873   42.0525   27.6367 C   0  0  0  0  0  0  0  0  0  0  0  0
  9 10  1  0  0  0
  8  7  2  0  0  0
 10  7  1  0  0  0
  7  1  1  0  0  0
  1  5  1  0  0  0
  1  2  2  0  0  0
  5  4  2  0  0  0
  2  3  1  0  0  0
  4  3  1  0  0  0
  4 11  1  0  0  0
 12 11  2  0  0  0
 11 13  1  0  0  0
 13 14  1  0  0  0
  3  6  1  0  0  0
M  END
> <minimizedAffinity>
-5.04796

$$$$
5MGK_7MW_A_1901


 14 14  0  0  0  0  0  0  0  0999 V2000
 -105.9348   42.6217   27.7745 C   0  0  0  0  0  0  0  0  0  0  0  0
 -105.9633   43.3967   28.9189 C   0  0  0  0  0  0  0  0  0  0  0  0
 -105.0755   44.3869   28.7500 N   0  0  0  0  0  0  0  0  0  0  0  0
 -104.4791   44.2780   27.5508 C   0  0  0  0  0  0  0  0  0  0  0  0
 -105.0064   43.1706   26.9118 C   0  0  0  0  0  0  0  0  0  0  0  0
 -104.8874   45.0928   29.4101 H   0  0  0  0  0  0  0  0  0  0  0  0
 -106.7795   41.3958   27.5319 C   0  0  0  0  0  0  0  0  0  0  0  0
 -106.4618   40.3246   28.0072 O   0  0  0  0  0  0  0  0  0  0  0  0
 -109.1370   42.2298   27.4238 C   0  0  0  0  0  0  0  0  0  0  0  0
 -108.0251   41.5186   26.6872 C   0  0  0  0  0  0  0  0  0  0  0  0
 -103.4279   45.2171   27.0123 C   0  0  0  0  0  0  0  0  0  0  0  0
 -103.0671   46.1735   27.6669 O   0  0  0  0  0  0  0  0  0  0  0  0
 -102.8722   44.9596   25.7487 O   0  0  0  0  0  0  0  0  0  0  0  0
 -101.6014   44.3526   25.7808 C   0  0  0  0  0  0  0  0  0  0  0  0
  9 10  1  0  0  0
  8  7  2  0  0  0
 10  7  1  0  0  0
  7  1  1  0  0  0
  1  5  1  0  0  0
  1  2  2  0  0  0
  5  4  2  0  0  0
  2  3  1  0  0  0
  4  3  1  0  0  0
  4 11  1  0  0  0
 12 11  2  0  0  0
 11 13  1  0  0  0
 13 14  1  0  0  0
  3  6  1  0  0  0
M  END
> <minimizedAffinity>
-4.90630

$$$$
5MGK_7MW_A_1901


 14 14  0  0  0  0  0  0  0  0999 V2000
 -105.4387   42.8138   27.7419 C   0  0  0  0  0  0  0  0  0  0  0  0
 -105.5495   43.4907   28.9421 C   0  0  0  0  0  0  0  0  0  0  0  0
 -106.8534   43.5439   29.2489 N   0  0  0  0  0  0  0  0  0  0  0  0
 -107.5809   42.9342   28.2978 C   0  0  0  0  0  0  0  0  0  0  0  0
 -106.7099   42.4608   27.3333 C   0  0  0  0  0  0  0  0  0  0  0  0
 -107.2249   43.9689   30.0556 H   0  0  0  0  0  0  0  0  0  0  0  0
 -104.1451   42.5224   27.0229 C   0  0  0  0  0  0  0  0  0  0  0  0
 -103.5161   41.5137   27.2706 O   0  0  0  0  0  0  0  0  0  0  0  0
 -102.5856   42.8921   25.1003 C   0  0  0  0  0  0  0  0  0  0  0  0
 -103.6415   43.5041   25.9920 C   0  0  0  0  0  0  0  0  0  0  0  0
 -109.0832   42.7936   28.3063 C   0  0  0  0  0  0  0  0  0  0  0  0
 -109.6325   42.0368   27.5325 O   0  0  0  0  0  0  0  0  0  0  0  0
 -109.8291   43.5457   29.2281 O   0  0  0  0  0  0  0  0  0  0  0  0
 -110.2883   44.7840   28.7379 C   0  0  0  0  0  0  0  0  0  0  0  0
  9 10  1  0  0  0
  8  7  2  0  0  0
 10  7  1  0  0  0
  7  1  1  0  0  0
  1  5  1  0  0  0
  1  2  2  0  0  0
  5  4  2  0  0  0
  2  3  1  0  0  0
  4  3  1  0  0  0
  4 11  1  0  0  0
 12 11  2  0  0  0
 11 13  1  0  0  0
 13 14  1  0  0  0
  3  6  1  0  0  0
M  END
> <minimizedAffinity>
-4.89210

$$$$
5MGK_7MW_A_1901


 14 14  0  0  0  0  0  0  0  0999 V2000
 -106.9560   41.2187   27.7442 C   0  0  0  0  0  0  0  0  0  0  0  0
 -108.1496   40.7596   27.2193 C   0  0  0  0  0  0  0  0  0  0  0  0
 -109.1042   41.6264   27.5863 N   0  0  0  0  0  0  0  0  0  0  0  0
 -108.5749   42.6169   28.3242 C   0  0  0  0  0  0  0  0  0  0  0  0
 -107.2162   42.3846   28.4373 C   0  0  0  0  0  0  0  0  0  0  0  0
 -110.0565   41.5484   27.3492 H   0  0  0  0  0  0  0  0  0  0  0  0
 -105.6156   40.5477   27.5759 C   0  0  0  0  0  0  0  0  0  0  0  0
 -104.6197   41.2069   27.3564 O   0  0  0  0  0  0  0  0  0  0  0  0
 -105.3631   38.3929   26.3278 C   0  0  0  0  0  0  0  0  0  0  0  0
 -105.5295   39.0438   27.6816 C   0  0  0  0  0  0  0  0  0  0  0  0
 -109.3456   43.7752   28.9083 C   0  0  0  0  0  0  0  0  0  0  0  0
 -108.8742   44.4302   29.8150 O   0  0  0  0  0  0  0  0  0  0  0  0
 -110.6092   44.0841   28.3794 O   0  0  0  0  0  0  0  0  0  0  0  0
 -111.2123   45.2295   28.9351 C   0  0  0  0  0  0  0  0  0  0  0  0
  9 10  1  0  0  0
  8  7  2  0  0  0
 10  7  1  0  0  0
  7  1  1  0  0  0
  1  5  1  0  0  0
  1  2  2  0  0  0
  5  4  2  0  0  0
  2  3  1  0  0  0
  4  3  1  0  0  0
  4 11  1  0  0  0
 12 11  2  0  0  0
 11 13  1  0  0  0
 13 14  1  0  0  0
  3  6  1  0  0  0
M  END
> <minimizedAffinity>
-4.63691

$$$$
5MGK_7MW_A_1901


 14 14  0  0  0  0  0  0  0  0999 V2000
 -106.9183   42.9741   28.5143 C   0  0  0  0  0  0  0  0  0  0  0  0
 -105.9547   43.0071   29.5050 C   0  0  0  0  0  0  0  0  0  0  0  0
 -104.7618   42.9039   28.9021 N   0  0  0  0  0  0  0  0  0  0  0  0
 -104.9197   42.8036   27.5715 C   0  0  0  0  0  0  0  0  0  0  0  0
 -106.2749   42.8479   27.2987 C   0  0  0  0  0  0  0  0  0  0  0  0
 -103.8943   42.9019   29.3677 H   0  0  0  0  0  0  0  0  0  0  0  0
 -108.4065   43.0628   28.7438 C   0  0  0  0  0  0  0  0  0  0  0  0
 -109.1463   42.1919   28.3333 O   0  0  0  0  0  0  0  0  0  0  0  0
 -110.3873   44.5552   29.0811 C   0  0  0  0  0  0  0  0  0  0  0  0
 -108.9642   44.2515   29.4895 C   0  0  0  0  0  0  0  0  0  0  0  0
 -103.7995   42.6760   26.5686 C   0  0  0  0  0  0  0  0  0  0  0  0
 -103.1384   41.6595   26.5139 O   0  0  0  0  0  0  0  0  0  0  0  0
 -103.5433   43.7481   25.6986 O   0  0  0  0  0  0  0  0  0  0  0  0
 -102.8421   44.8212   26.2827 C   0  0  0  0  0  0  0  0  0  0  0  0
  9 10  1  0  0  0
  8  7  2  0  0  0
 10  7  1  0  0  0
  7  1  1  0  0  0
  1  5  1  0  0  0
  1  2  2  0  0  0
  5  4  2  0  0  0
  2  3  1  0  0  0
  4  3  1  0  0  0
  4 11  1  0  0  0
 12 11  2  0  0  0
 11 13  1  0  0  0
 13 14  1  0  0  0
  3  6  1  0  0  0
M  END
> <minimizedAffinity>
-4.59256

$$$$
5MGK_7MW_A_1901


 14 14  0  0  0  0  0  0  0  0999 V2000
 -108.0489   42.7563   28.6178 C   0  0  0  0  0  0  0  0  0  0  0  0
 -106.8414   43.1105   29.1901 C   0  0  0  0  0  0  0  0  0  0  0  0
 -105.9727   42.1239   28.9271 N   0  0  0  0  0  0  0  0  0  0  0  0
 -106.5713   41.1541   28.2151 C   0  0  0  0  0  0  0  0  0  0  0  0
 -107.8853   41.5303   28.0034 C   0  0  0  0  0  0  0  0  0  0  0  0
 -105.0312   42.1116   29.2143 H   0  0  0  0  0  0  0  0  0  0  0  0
 -109.3111   43.5806   28.6677 C   0  0  0  0  0  0  0  0  0  0  0  0
 -110.3169   43.2023   28.1025 O   0  0  0  0  0  0  0  0  0  0  0  0
 -110.5070   45.7382   29.0914 C   0  0  0  0  0  0  0  0  0  0  0  0
 -109.3058   44.8850   29.4285 C   0  0  0  0  0  0  0  0  0  0  0  0
 -105.9043   39.8894   27.7330 C   0  0  0  0  0  0  0  0  0  0  0  0
 -104.7386   39.9017   27.3949 O   0  0  0  0  0  0  0  0  0  0  0  0
 -106.6526   38.7020   27.6911 O   0  0  0  0  0  0  0  0  0  0  0  0
 -106.7067   38.0885   26.4241 C   0  0  0  0  0  0  0  0  0  0  0  0
  9 10  1  0  0  0
  8  7  2  0  0  0
 10  7  1  0  0  0
  7  1  1  0  0  0
  1  5  1  0  0  0
  1  2  2  0  0  0
  5  4  2  0  0  0
  2  3  1  0  0  0
  4  3  1  0  0  0
  4 11  1  0  0  0
 12 11  2  0  0  0
 11 13  1  0  0  0
 13 14  1  0  0  0
  3  6  1  0  0  0
M  END
> <minimizedAffinity>
-4.53801

$$$$
