4B6P_2HN_A_1145


 29 30  0  0  0  0  0  0  0  0999 V2000
   28.8548   44.7782    7.2343 C   0  0  0  0  0  0  0  0  0  0  0  0
   29.1120   43.2776    7.1429 C   0  0  0  0  0  0  0  0  0  0  0  0
   27.8020   42.7003    7.0074 O   0  0  0  0  0  0  0  0  0  0  0  0
   28.2912   45.1253    8.6084 C   0  0  0  0  0  0  0  0  0  0  0  0
   27.4318   46.0034    8.6706 O   0  0  0  0  0  0  0  0  0  0  0  0
   28.9112   44.4656    9.8666 C   0  0  0  0  0  0  0  0  0  0  0  0
   28.1894   44.7412   11.0718 O   0  0  0  0  0  0  0  0  0  0  0  0
   29.0797   42.9455    9.6501 C   0  0  0  0  0  0  0  0  0  0  0  0
   29.8102   42.4377   10.7743 O   0  0  0  0  0  0  0  0  0  0  0  0
   29.8843   42.6982    8.3643 C   0  0  0  0  0  0  0  0  0  0  0  0
   27.3563   43.0870    6.2376 H   0  0  0  0  0  0  0  0  0  0  0  0
   27.2995   44.3602   11.0100 H   0  0  0  0  0  0  0  0  0  0  0  0
   30.6663   42.8897   10.8344 H   0  0  0  0  0  0  0  0  0  0  0  0
   29.9060   43.0158    5.8536 C   0  0  0  0  0  0  0  0  0  0  0  0
   31.0303   42.5474    6.0443 O   0  0  0  0  0  0  0  0  0  0  0  0
   29.3485   43.1857    4.7322 O   0  0  0  0  0  0  0  0  0  0  0  0
   31.3594   42.4598    6.9172 H   0  0  0  0  0  0  0  0  0  0  0  0
   30.1334   45.5874    7.0085 C   0  0  0  0  0  0  0  0  0  0  0  0
   29.6113   48.0676    8.3553 F   0  0  0  0  0  0  0  0  0  0  0  0
   29.6317   48.0607    7.0181 C   0  0  0  0  0  0  0  0  0  0  0  0
   29.3939   49.2492    6.3760 C   0  0  0  0  0  0  0  0  0  0  0  0
   29.1276   50.3634    7.0834 F   0  0  0  0  0  0  0  0  0  0  0  0
   29.4246   49.2503    4.9958 C   0  0  0  0  0  0  0  0  0  0  0  0
   29.2044   50.3210    4.2515 F   0  0  0  0  0  0  0  0  0  0  0  0
   29.6683   48.1319    4.2794 C   0  0  0  0  0  0  0  0  0  0  0  0
   29.6905   48.2474    2.9528 F   0  0  0  0  0  0  0  0  0  0  0  0
   29.9002   46.9384    4.9004 C   0  0  0  0  0  0  0  0  0  0  0  0
   30.1406   45.8648    4.1052 F   0  0  0  0  0  0  0  0  0  0  0  0
   29.8901   46.8935    6.2977 C   0  0  0  0  0  0  0  0  0  0  0  0
 19 20  1  0  0  0
 20 21  1  0  0  0
 20 29  2  0  0  0
 21 22  1  0  0  0
 21 23  2  0  0  0
 23 24  1  0  0  0
 23 25  1  0  0  0
 25 26  1  0  0  0
 25 27  2  0  0  0
 27 28  1  0  0  0
 27 29  1  0  0  0
 29 18  1  0  0  0
 18  1  1  0  0  0
  1  2  1  0  0  0
  1  4  1  0  0  0
  2  3  1  0  0  0
  2 14  1  0  0  0
  2 10  1  0  0  0
 14 15  1  0  0  0
 14 16  2  0  0  0
  4  5  2  0  0  0
  4  6  1  0  0  0
  6  7  1  0  0  0
  6  8  1  0  0  0
  8  9  1  0  0  0
  8 10  1  0  0  0
  3 11  1  0  0  0
 15 17  1  0  0  0
  7 12  1  0  0  0
  9 13  1  0  0  0
M  END
> <minimizedAffinity>
-12.46116

$$$$
4B6P_2HN_A_1145


 29 30  0  0  0  0  0  0  0  0999 V2000
   28.8468   44.7729    7.2376 C   0  0  0  0  0  0  0  0  0  0  0  0
   29.1159   43.2741    7.1493 C   0  0  0  0  0  0  0  0  0  0  0  0
   27.8101   42.6858    7.0205 O   0  0  0  0  0  0  0  0  0  0  0  0
   28.2857   45.1191    8.6130 C   0  0  0  0  0  0  0  0  0  0  0  0
   27.4194   45.9903    8.6763 O   0  0  0  0  0  0  0  0  0  0  0  0
   28.9161   44.4678    9.8706 C   0  0  0  0  0  0  0  0  0  0  0  0
   28.1967   44.7408   11.0779 O   0  0  0  0  0  0  0  0  0  0  0  0
   29.0960   42.9486    9.6575 C   0  0  0  0  0  0  0  0  0  0  0  0
   29.8350   42.4498   10.7801 O   0  0  0  0  0  0  0  0  0  0  0  0
   29.8976   42.7043    8.3692 C   0  0  0  0  0  0  0  0  0  0  0  0
   27.3582   43.0668    6.2514 H   0  0  0  0  0  0  0  0  0  0  0  0
   27.3097   44.3524   11.0206 H   0  0  0  0  0  0  0  0  0  0  0  0
   30.6877   42.9089   10.8357 H   0  0  0  0  0  0  0  0  0  0  0  0
   29.9069   43.0153    5.8576 C   0  0  0  0  0  0  0  0  0  0  0  0
   31.0348   42.5543    6.0451 O   0  0  0  0  0  0  0  0  0  0  0  0
   29.3444   43.1798    4.7379 O   0  0  0  0  0  0  0  0  0  0  0  0
   31.3676   42.4703    6.9169 H   0  0  0  0  0  0  0  0  0  0  0  0
   30.1179   45.5918    7.0047 C   0  0  0  0  0  0  0  0  0  0  0  0
   30.1098   45.8413    4.1455 F   0  0  0  0  0  0  0  0  0  0  0  0
   29.8851   46.9353    4.8811 C   0  0  0  0  0  0  0  0  0  0  0  0
   29.6698   48.1135    4.2126 C   0  0  0  0  0  0  0  0  0  0  0  0
   29.7120   48.1501    2.8674 F   0  0  0  0  0  0  0  0  0  0  0  0
   29.4264   49.2440    4.9667 C   0  0  0  0  0  0  0  0  0  0  0  0
   29.2124   50.4439    4.4537 F   0  0  0  0  0  0  0  0  0  0  0  0
   29.4054   49.2191    6.3167 C   0  0  0  0  0  0  0  0  0  0  0  0
   29.1456   50.3638    6.9460 F   0  0  0  0  0  0  0  0  0  0  0  0
   29.6243   48.0576    6.9998 C   0  0  0  0  0  0  0  0  0  0  0  0
   29.5813   48.1206    8.3551 F   0  0  0  0  0  0  0  0  0  0  0  0
   29.8635   46.8858    6.2758 C   0  0  0  0  0  0  0  0  0  0  0  0
 19 20  1  0  0  0
 20 21  1  0  0  0
 20 29  2  0  0  0
 21 22  1  0  0  0
 21 23  2  0  0  0
 23 24  1  0  0  0
 23 25  1  0  0  0
 25 26  1  0  0  0
 25 27  2  0  0  0
 27 28  1  0  0  0
 27 29  1  0  0  0
 29 18  1  0  0  0
 18  1  1  0  0  0
  1  2  1  0  0  0
  1  4  1  0  0  0
  2  3  1  0  0  0
  2 14  1  0  0  0
  2 10  1  0  0  0
 14 15  1  0  0  0
 14 16  2  0  0  0
  4  5  2  0  0  0
  4  6  1  0  0  0
  6  7  1  0  0  0
  6  8  1  0  0  0
  8  9  1  0  0  0
  8 10  1  0  0  0
  3 11  1  0  0  0
 15 17  1  0  0  0
  7 12  1  0  0  0
  9 13  1  0  0  0
M  END
> <minimizedAffinity>
-12.38903

$$$$
