5JOX_EDG_A_601


 13 13  0  0  0  0  0  0  0  0999 V2000
  306.3211  221.1128  334.1741 O   0  0  0  0  0  0  0  0  0  0  0  0
  305.4740  220.6092  333.1652 C   0  0  0  0  0  0  0  0  0  0  0  0
  305.7965  221.3169  331.8518 C   0  0  0  0  0  0  0  0  0  0  0  0
  305.9661  220.2539  330.8780 N   0  0  0  0  0  0  0  0  0  0  0  0
  305.7234  219.1238  332.8846 C   0  0  0  0  0  0  0  0  0  0  0  0
  304.8896  218.2610  333.6410 O   0  0  0  0  0  0  0  0  0  0  0  0
  305.4013  218.9953  331.3982 C   0  0  0  0  0  0  0  0  0  0  0  0
  306.1291  222.0527  334.3181 H   0  0  0  0  0  0  0  0  0  0  0  0
  306.9602  220.1250  330.6891 H   0  0  0  0  0  0  0  0  0  0  0  0
  303.9598  218.4620  333.4515 H   0  0  0  0  0  0  0  0  0  0  0  0
  305.9728  217.7614  330.7309 C   0  0  0  0  0  0  0  0  0  0  0  0
  306.7394  216.9671  331.6267 O   0  0  0  0  0  0  0  0  0  0  0  0
  307.4921  217.4840  331.9541 H   0  0  0  0  0  0  0  0  0  0  0  0
  1  2  1  0  0  0
  2  3  1  0  0  0
  2  5  1  0  0  0
  3  4  1  0  0  0
  4  7  1  0  0  0
  5  6  1  0  0  0
  5  7  1  0  0  0
  7 11  1  0  0  0
 11 12  1  0  0  0
  1  8  1  0  0  0
  4  9  1  0  0  0
  6 10  1  0  0  0
 12 13  1  0  0  0
M  END
> <minimizedAffinity>
-5.46216

$$$$
5JOX_EDG_A_601


 13 13  0  0  0  0  0  0  0  0999 V2000
  306.3019  217.7495  330.2757 O   0  0  0  0  0  0  0  0  0  0  0  0
  305.3481  218.6383  330.8138 C   0  0  0  0  0  0  0  0  0  0  0  0
  304.3011  217.8337  331.5794 C   0  0  0  0  0  0  0  0  0  0  0  0
  304.1945  218.4816  332.8740 N   0  0  0  0  0  0  0  0  0  0  0  0
  305.9570  219.5842  331.8539 C   0  0  0  0  0  0  0  0  0  0  0  0
  306.3981  220.8151  331.3044 O   0  0  0  0  0  0  0  0  0  0  0  0
  304.7998  219.8249  332.8197 C   0  0  0  0  0  0  0  0  0  0  0  0
  305.8741  217.1717  329.6244 H   0  0  0  0  0  0  0  0  0  0  0  0
  304.6810  217.9204  333.5731 H   0  0  0  0  0  0  0  0  0  0  0  0
  305.6526  221.2629  330.8746 H   0  0  0  0  0  0  0  0  0  0  0  0
  305.2090  220.3529  334.1792 C   0  0  0  0  0  0  0  0  0  0  0  0
  306.3761  221.1623  334.1169 O   0  0  0  0  0  0  0  0  0  0  0  0
  307.1188  220.6339  333.7852 H   0  0  0  0  0  0  0  0  0  0  0  0
  1  2  1  0  0  0
  2  3  1  0  0  0
  2  5  1  0  0  0
  3  4  1  0  0  0
  4  7  1  0  0  0
  5  6  1  0  0  0
  5  7  1  0  0  0
  7 11  1  0  0  0
 11 12  1  0  0  0
  1  8  1  0  0  0
  4  9  1  0  0  0
  6 10  1  0  0  0
 12 13  1  0  0  0
M  END
> <minimizedAffinity>
-5.18686

$$$$
5JOX_EDG_A_601


 13 13  0  0  0  0  0  0  0  0999 V2000
  305.9045  221.7757  332.2458 O   0  0  0  0  0  0  0  0  0  0  0  0
  305.1807  220.5805  332.0537 C   0  0  0  0  0  0  0  0  0  0  0  0
  304.7559  220.4910  330.5903 C   0  0  0  0  0  0  0  0  0  0  0  0
  305.1602  219.1661  330.1567 N   0  0  0  0  0  0  0  0  0  0  0  0
  306.0410  219.3353  332.2917 C   0  0  0  0  0  0  0  0  0  0  0  0
  305.9698  218.8486  333.6220 O   0  0  0  0  0  0  0  0  0  0  0  0
  305.4440  218.3147  331.3264 C   0  0  0  0  0  0  0  0  0  0  0  0
  305.3229  222.5352  332.0852 H   0  0  0  0  0  0  0  0  0  0  0  0
  305.9997  219.2407  329.5822 H   0  0  0  0  0  0  0  0  0  0  0  0
  305.0486  218.6371  333.8401 H   0  0  0  0  0  0  0  0  0  0  0  0
  306.3469  217.1408  331.0080 C   0  0  0  0  0  0  0  0  0  0  0  0
  306.4325  216.8865  329.6119 O   0  0  0  0  0  0  0  0  0  0  0  0
  305.5524  216.6657  329.2690 H   0  0  0  0  0  0  0  0  0  0  0  0
  1  2  1  0  0  0
  2  3  1  0  0  0
  2  5  1  0  0  0
  3  4  1  0  0  0
  4  7  1  0  0  0
  5  6  1  0  0  0
  5  7  1  0  0  0
  7 11  1  0  0  0
 11 12  1  0  0  0
  1  8  1  0  0  0
  4  9  1  0  0  0
  6 10  1  0  0  0
 12 13  1  0  0  0
M  END
> <minimizedAffinity>
-5.17521

$$$$
5JOX_EDG_A_601


 13 13  0  0  0  0  0  0  0  0999 V2000
  303.4235  220.0498  333.3531 O   0  0  0  0  0  0  0  0  0  0  0  0
  304.1120  219.9415  332.1270 C   0  0  0  0  0  0  0  0  0  0  0  0
  305.5134  220.5224  332.2953 C   0  0  0  0  0  0  0  0  0  0  0  0
  306.4110  219.5109  331.7679 N   0  0  0  0  0  0  0  0  0  0  0  0
  304.3363  218.4834  331.7131 C   0  0  0  0  0  0  0  0  0  0  0  0
  303.3122  217.9729  330.8752 O   0  0  0  0  0  0  0  0  0  0  0  0
  305.6579  218.5411  330.9516 C   0  0  0  0  0  0  0  0  0  0  0  0
  303.3040  220.9864  333.5752 H   0  0  0  0  0  0  0  0  0  0  0  0
  306.8611  219.0226  332.5421 H   0  0  0  0  0  0  0  0  0  0  0  0
  303.2476  218.5175  330.0750 H   0  0  0  0  0  0  0  0  0  0  0  0
  306.3621  217.2082  330.8036 C   0  0  0  0  0  0  0  0  0  0  0  0
  306.5382  216.8369  329.4427 O   0  0  0  0  0  0  0  0  0  0  0  0
  305.6711  216.7458  329.0176 H   0  0  0  0  0  0  0  0  0  0  0  0
  1  2  1  0  0  0
  2  3  1  0  0  0
  2  5  1  0  0  0
  3  4  1  0  0  0
  4  7  1  0  0  0
  5  6  1  0  0  0
  5  7  1  0  0  0
  7 11  1  0  0  0
 11 12  1  0  0  0
  1  8  1  0  0  0
  4  9  1  0  0  0
  6 10  1  0  0  0
 12 13  1  0  0  0
M  END
> <minimizedAffinity>
-5.02338

$$$$
5JOX_EDG_A_601


 13 13  0  0  0  0  0  0  0  0999 V2000
  306.2720  218.8292  333.8177 O   0  0  0  0  0  0  0  0  0  0  0  0
  305.5160  219.1034  332.6591 C   0  0  0  0  0  0  0  0  0  0  0  0
  306.0087  218.2080  331.5254 C   0  0  0  0  0  0  0  0  0  0  0  0
  304.8125  217.5969  330.9753 N   0  0  0  0  0  0  0  0  0  0  0  0
  304.0367  218.7437  332.8316 C   0  0  0  0  0  0  0  0  0  0  0  0
  303.2427  219.8297  333.2808 O   0  0  0  0  0  0  0  0  0  0  0  0
  303.6159  218.3325  331.4232 C   0  0  0  0  0  0  0  0  0  0  0  0
  307.1987  219.0713  333.6640 H   0  0  0  0  0  0  0  0  0  0  0  0
  304.7518  216.6292  331.2921 H   0  0  0  0  0  0  0  0  0  0  0  0
  303.3133  220.5640  332.6510 H   0  0  0  0  0  0  0  0  0  0  0  0
  302.3465  217.5087  331.3569 C   0  0  0  0  0  0  0  0  0  0  0  0
  302.4759  216.3827  330.4986 O   0  0  0  0  0  0  0  0  0  0  0  0
  302.6632  216.6841  329.5958 H   0  0  0  0  0  0  0  0  0  0  0  0
  1  2  1  0  0  0
  2  3  1  0  0  0
  2  5  1  0  0  0
  3  4  1  0  0  0
  4  7  1  0  0  0
  5  6  1  0  0  0
  5  7  1  0  0  0
  7 11  1  0  0  0
 11 12  1  0  0  0
  1  8  1  0  0  0
  4  9  1  0  0  0
  6 10  1  0  0  0
 12 13  1  0  0  0
M  END
> <minimizedAffinity>
-4.87976

$$$$
5JOX_EDG_A_601


 13 13  0  0  0  0  0  0  0  0999 V2000
  304.2727  220.3547  334.8166 O   0  0  0  0  0  0  0  0  0  0  0  0
  305.2921  219.7602  334.0442 C   0  0  0  0  0  0  0  0  0  0  0  0
  304.9095  218.3114  333.7539 C   0  0  0  0  0  0  0  0  0  0  0  0
  305.0791  218.1525  332.3210 N   0  0  0  0  0  0  0  0  0  0  0  0
  305.4338  220.4147  332.6662 C   0  0  0  0  0  0  0  0  0  0  0  0
  306.3914  221.4605  332.6362 O   0  0  0  0  0  0  0  0  0  0  0  0
  305.8912  219.2583  331.7812 C   0  0  0  0  0  0  0  0  0  0  0  0
  304.2186  219.9107  335.6773 H   0  0  0  0  0  0  0  0  0  0  0  0
  304.1639  218.1548  331.8707 H   0  0  0  0  0  0  0  0  0  0  0  0
  307.2562  221.1149  332.9074 H   0  0  0  0  0  0  0  0  0  0  0  0
  305.6902  219.4795  330.2962 C   0  0  0  0  0  0  0  0  0  0  0  0
  304.8459  220.5903  330.0235 O   0  0  0  0  0  0  0  0  0  0  0  0
  303.9686  220.4311  330.4055 H   0  0  0  0  0  0  0  0  0  0  0  0
  1  2  1  0  0  0
  2  3  1  0  0  0
  2  5  1  0  0  0
  3  4  1  0  0  0
  4  7  1  0  0  0
  5  6  1  0  0  0
  5  7  1  0  0  0
  7 11  1  0  0  0
 11 12  1  0  0  0
  1  8  1  0  0  0
  4  9  1  0  0  0
  6 10  1  0  0  0
 12 13  1  0  0  0
M  END
> <minimizedAffinity>
-4.79845

$$$$
5JOX_EDG_A_601


 13 13  0  0  0  0  0  0  0  0999 V2000
  306.3186  221.4049  332.7469 O   0  0  0  0  0  0  0  0  0  0  0  0
  305.8997  220.1666  332.2176 C   0  0  0  0  0  0  0  0  0  0  0  0
  305.5805  219.2197  333.3714 C   0  0  0  0  0  0  0  0  0  0  0  0
  304.2655  218.6832  333.0713 N   0  0  0  0  0  0  0  0  0  0  0  0
  304.5908  220.2840  331.4299 C   0  0  0  0  0  0  0  0  0  0  0  0
  304.7873  220.5055  330.0428 O   0  0  0  0  0  0  0  0  0  0  0  0
  303.9295  218.9272  331.6566 C   0  0  0  0  0  0  0  0  0  0  0  0
  307.1477  221.2838  333.2356 H   0  0  0  0  0  0  0  0  0  0  0  0
  303.5722  219.1373  333.6659 H   0  0  0  0  0  0  0  0  0  0  0  0
  305.3108  219.7788  329.6704 H   0  0  0  0  0  0  0  0  0  0  0  0
  302.4405  218.8944  331.3804 C   0  0  0  0  0  0  0  0  0  0  0  0
  302.0019  220.0262  330.6403 O   0  0  0  0  0  0  0  0  0  0  0  0
  302.1758  220.8330  331.1500 H   0  0  0  0  0  0  0  0  0  0  0  0
  1  2  1  0  0  0
  2  3  1  0  0  0
  2  5  1  0  0  0
  3  4  1  0  0  0
  4  7  1  0  0  0
  5  6  1  0  0  0
  5  7  1  0  0  0
  7 11  1  0  0  0
 11 12  1  0  0  0
  1  8  1  0  0  0
  4  9  1  0  0  0
  6 10  1  0  0  0
 12 13  1  0  0  0
M  END
> <minimizedAffinity>
-4.78808

$$$$
5JOX_EDG_A_601


 13 13  0  0  0  0  0  0  0  0999 V2000
  306.6055  220.2009  331.7264 O   0  0  0  0  0  0  0  0  0  0  0  0
  305.8582  219.1490  332.2959 C   0  0  0  0  0  0  0  0  0  0  0  0
  304.8964  219.7303  333.3287 C   0  0  0  0  0  0  0  0  0  0  0  0
  303.5992  219.1677  333.0003 N   0  0  0  0  0  0  0  0  0  0  0  0
  304.9602  218.4516  331.2689 C   0  0  0  0  0  0  0  0  0  0  0  0
  305.5723  217.3273  330.6584 O   0  0  0  0  0  0  0  0  0  0  0  0
  303.7619  218.0084  332.1040 C   0  0  0  0  0  0  0  0  0  0  0  0
  307.1575  220.6122  332.4098 H   0  0  0  0  0  0  0  0  0  0  0  0
  303.0320  219.8766  332.5354 H   0  0  0  0  0  0  0  0  0  0  0  0
  305.8221  216.6849  331.3409 H   0  0  0  0  0  0  0  0  0  0  0  0
  302.5156  217.6901  331.3041 C   0  0  0  0  0  0  0  0  0  0  0  0
  302.6570  216.5068  330.5290 O   0  0  0  0  0  0  0  0  0  0  0  0
  303.3787  216.6222  329.8914 H   0  0  0  0  0  0  0  0  0  0  0  0
  1  2  1  0  0  0
  2  3  1  0  0  0
  2  5  1  0  0  0
  3  4  1  0  0  0
  4  7  1  0  0  0
  5  6  1  0  0  0
  5  7  1  0  0  0
  7 11  1  0  0  0
 11 12  1  0  0  0
  1  8  1  0  0  0
  4  9  1  0  0  0
  6 10  1  0  0  0
 12 13  1  0  0  0
M  END
> <minimizedAffinity>
-4.77257

$$$$
5JOX_EDG_A_601


 13 13  0  0  0  0  0  0  0  0999 V2000
  303.0691  217.5317  330.8238 O   0  0  0  0  0  0  0  0  0  0  0  0
  304.1830  217.7623  331.6576 C   0  0  0  0  0  0  0  0  0  0  0  0
  305.4576  217.4746  330.8687 C   0  0  0  0  0  0  0  0  0  0  0  0
  306.3004  218.6393  331.0687 N   0  0  0  0  0  0  0  0  0  0  0  0
  304.3013  219.2313  332.0765 C   0  0  0  0  0  0  0  0  0  0  0  0
  303.6590  219.5182  333.3081 O   0  0  0  0  0  0  0  0  0  0  0  0
  305.8086  219.4305  332.2114 C   0  0  0  0  0  0  0  0  0  0  0  0
  303.0336  216.5925  330.5841 H   0  0  0  0  0  0  0  0  0  0  0  0
  306.2844  219.2158  330.2273 H   0  0  0  0  0  0  0  0  0  0  0  0
  304.0382  218.9633  334.0075 H   0  0  0  0  0  0  0  0  0  0  0  0
  306.2617  220.8756  332.1787 C   0  0  0  0  0  0  0  0  0  0  0  0
  306.3356  221.4495  333.4772 O   0  0  0  0  0  0  0  0  0  0  0  0
  305.4559  221.4397  333.8857 H   0  0  0  0  0  0  0  0  0  0  0  0
  1  2  1  0  0  0
  2  3  1  0  0  0
  2  5  1  0  0  0
  3  4  1  0  0  0
  4  7  1  0  0  0
  5  6  1  0  0  0
  5  7  1  0  0  0
  7 11  1  0  0  0
 11 12  1  0  0  0
  1  8  1  0  0  0
  4  9  1  0  0  0
  6 10  1  0  0  0
 12 13  1  0  0  0
M  END
> <minimizedAffinity>
-4.69269

$$$$
5JOX_EDG_A_601


 13 13  0  0  0  0  0  0  0  0999 V2000
  305.3991  218.8058  334.9849 O   0  0  0  0  0  0  0  0  0  0  0  0
  304.9241  219.6661  333.9733 C   0  0  0  0  0  0  0  0  0  0  0  0
  305.8653  220.8625  333.8612 C   0  0  0  0  0  0  0  0  0  0  0  0
  306.1778  220.9702  332.4478 N   0  0  0  0  0  0  0  0  0  0  0  0
  304.9547  219.0089  332.5896 C   0  0  0  0  0  0  0  0  0  0  0  0
  303.7370  218.3691  332.2440 O   0  0  0  0  0  0  0  0  0  0  0  0
  305.2128  220.1872  331.6544 C   0  0  0  0  0  0  0  0  0  0  0  0
  305.3619  219.2613  335.8405 H   0  0  0  0  0  0  0  0  0  0  0  0
  307.1189  220.6133  332.2822 H   0  0  0  0  0  0  0  0  0  0  0  0
  303.0144  219.0159  332.2657 H   0  0  0  0  0  0  0  0  0  0  0  0
  305.7337  219.8058  330.2841 C   0  0  0  0  0  0  0  0  0  0  0  0
  306.0129  218.4159  330.1785 O   0  0  0  0  0  0  0  0  0  0  0  0
  306.7011  218.1748  330.8182 H   0  0  0  0  0  0  0  0  0  0  0  0
  1  2  1  0  0  0
  2  3  1  0  0  0
  2  5  1  0  0  0
  3  4  1  0  0  0
  4  7  1  0  0  0
  5  6  1  0  0  0
  5  7  1  0  0  0
  7 11  1  0  0  0
 11 12  1  0  0  0
  1  8  1  0  0  0
  4  9  1  0  0  0
  6 10  1  0  0  0
 12 13  1  0  0  0
M  END
> <minimizedAffinity>
-4.68615

$$$$
