4Q7S_2YU_A_302


 10 10  0  0  0  0  0  0  0  0999 V2000
   14.1962    0.9053   17.4808 S   0  0  0  0  0  0  0  0  0  0  0  0
   15.1288    1.9697   16.5272 C   0  0  0  0  0  0  0  0  0  0  0  0
   14.6024    3.2605   16.1648 C   0  0  0  0  0  0  0  0  0  0  0  0
   15.3512    4.1132   15.4171 C   0  0  0  0  0  0  0  0  0  0  0  0
   14.7999    5.4154   15.0139 C   0  0  0  0  0  0  0  0  0  0  0  0
   16.6646    3.7366   15.0056 C   0  0  0  0  0  0  0  0  0  0  0  0
   17.1739    2.5189   15.3721 C   0  0  0  0  0  0  0  0  0  0  0  0
   16.3859    1.6188   16.1512 N   0  0  0  0  0  0  0  0  0  0  0  0
   16.8966    0.4580   16.5457 O   0  0  0  0  0  0  0  0  0  0  0  0
   17.7638    0.2154   16.2866 H   0  0  0  0  0  0  0  0  0  0  0  0
  7  6  2  0  0  0
  7  8  1  0  0  0
  6  4  1  0  0  0
  9  8  1  0  0  0
  8  2  1  0  0  0
  4  5  1  0  0  0
  4  3  2  0  0  0
  2  3  1  0  0  0
  2  1  2  0  0  0
  9 10  1  0  0  0
M  END
> <minimizedAffinity>
-5.36943

$$$$
4Q7S_2YU_A_302


 10 10  0  0  0  0  0  0  0  0999 V2000
   16.5586    1.9614   13.7103 S   0  0  0  0  0  0  0  0  0  0  0  0
   15.8595    1.8691   15.2642 C   0  0  0  0  0  0  0  0  0  0  0  0
   15.0942    2.9767   15.7765 C   0  0  0  0  0  0  0  0  0  0  0  0
   14.5261    2.8971   17.0084 C   0  0  0  0  0  0  0  0  0  0  0  0
   13.7774    4.0418   17.5481 C   0  0  0  0  0  0  0  0  0  0  0  0
   14.6733    1.7103   17.7869 C   0  0  0  0  0  0  0  0  0  0  0  0
   15.3800    0.6479   17.2885 C   0  0  0  0  0  0  0  0  0  0  0  0
   15.9839    0.7327   15.9976 N   0  0  0  0  0  0  0  0  0  0  0  0
   16.6294   -0.3137   15.4951 O   0  0  0  0  0  0  0  0  0  0  0  0
   16.7156   -1.0980   16.0006 H   0  0  0  0  0  0  0  0  0  0  0  0
  7  6  2  0  0  0
  7  8  1  0  0  0
  6  4  1  0  0  0
  9  8  1  0  0  0
  8  2  1  0  0  0
  4  5  1  0  0  0
  4  3  2  0  0  0
  2  3  1  0  0  0
  2  1  2  0  0  0
  9 10  1  0  0  0
M  END
> <minimizedAffinity>
-4.99127

$$$$
4Q7S_2YU_A_302


 10 10  0  0  0  0  0  0  0  0999 V2000
   16.6876    1.1321   12.6909 S   0  0  0  0  0  0  0  0  0  0  0  0
   16.1834    1.7788   14.1875 C   0  0  0  0  0  0  0  0  0  0  0  0
   15.7172    3.1396   14.2635 C   0  0  0  0  0  0  0  0  0  0  0  0
   15.3027    3.6496   15.4530 C   0  0  0  0  0  0  0  0  0  0  0  0
   14.8632    5.0501   15.5393 C   0  0  0  0  0  0  0  0  0  0  0  0
   15.3135    2.8322   16.6226 C   0  0  0  0  0  0  0  0  0  0  0  0
   15.7332    1.5306   16.5443 C   0  0  0  0  0  0  0  0  0  0  0  0
   16.1761    0.9954   15.2970 N   0  0  0  0  0  0  0  0  0  0  0  0
   16.5389   -0.2794   15.2113 O   0  0  0  0  0  0  0  0  0  0  0  0
   16.5340   -0.8203   15.9764 H   0  0  0  0  0  0  0  0  0  0  0  0
  7  6  2  0  0  0
  7  8  1  0  0  0
  6  4  1  0  0  0
  9  8  1  0  0  0
  8  2  1  0  0  0
  4  5  1  0  0  0
  4  3  2  0  0  0
  2  3  1  0  0  0
  2  1  2  0  0  0
  9 10  1  0  0  0
M  END
> <minimizedAffinity>
-4.73690

$$$$
4Q7S_2YU_A_302


 10 10  0  0  0  0  0  0  0  0999 V2000
   19.5396    3.0693   11.4156 S   0  0  0  0  0  0  0  0  0  0  0  0
   18.3687    1.8297   11.3487 C   0  0  0  0  0  0  0  0  0  0  0  0
   18.7814    0.4498   11.3270 C   0  0  0  0  0  0  0  0  0  0  0  0
   17.8481   -0.5372   11.2878 C   0  0  0  0  0  0  0  0  0  0  0  0
   18.2689   -1.9448   11.2264 C   0  0  0  0  0  0  0  0  0  0  0  0
   16.4599   -0.2070   11.2853 C   0  0  0  0  0  0  0  0  0  0  0  0
   16.0681    1.1047   11.3315 C   0  0  0  0  0  0  0  0  0  0  0  0
   17.0473    2.1432   11.3651 N   0  0  0  0  0  0  0  0  0  0  0  0
   16.6678    3.4127   11.4568 O   0  0  0  0  0  0  0  0  0  0  0  0
   15.7563    3.6295   11.4681 H   0  0  0  0  0  0  0  0  0  0  0  0
  7  6  2  0  0  0
  7  8  1  0  0  0
  6  4  1  0  0  0
  9  8  1  0  0  0
  8  2  1  0  0  0
  4  5  1  0  0  0
  4  3  2  0  0  0
  2  3  1  0  0  0
  2  1  2  0  0  0
  9 10  1  0  0  0
M  END
> <minimizedAffinity>
-4.61604

$$$$
4Q7S_2YU_A_302


 10 10  0  0  0  0  0  0  0  0999 V2000
   14.6562    5.0686   14.3775 S   0  0  0  0  0  0  0  0  0  0  0  0
   15.1062    3.5793   15.0785 C   0  0  0  0  0  0  0  0  0  0  0  0
   14.6917    3.2608   16.4207 C   0  0  0  0  0  0  0  0  0  0  0  0
   15.0386    2.0687   16.9733 C   0  0  0  0  0  0  0  0  0  0  0  0
   14.6490    1.7586   18.3569 C   0  0  0  0  0  0  0  0  0  0  0  0
   15.7986    1.1261   16.2181 C   0  0  0  0  0  0  0  0  0  0  0  0
   16.1707    1.4196   14.9329 C   0  0  0  0  0  0  0  0  0  0  0  0
   15.8136    2.6745   14.3534 N   0  0  0  0  0  0  0  0  0  0  0  0
   16.1341    2.9401   13.0921 O   0  0  0  0  0  0  0  0  0  0  0  0
   16.6222    2.3163   12.5914 H   0  0  0  0  0  0  0  0  0  0  0  0
  7  6  2  0  0  0
  7  8  1  0  0  0
  6  4  1  0  0  0
  9  8  1  0  0  0
  8  2  1  0  0  0
  4  5  1  0  0  0
  4  3  2  0  0  0
  2  3  1  0  0  0
  2  1  2  0  0  0
  9 10  1  0  0  0
M  END
> <minimizedAffinity>
-4.60394

$$$$
4Q7S_2YU_A_302


 10 10  0  0  0  0  0  0  0  0999 V2000
   16.7186    2.6743   13.3822 S   0  0  0  0  0  0  0  0  0  0  0  0
   15.8082    2.7021   14.8253 C   0  0  0  0  0  0  0  0  0  0  0  0
   15.7861    1.5467   15.6851 C   0  0  0  0  0  0  0  0  0  0  0  0
   15.0721    1.5745   16.8410 C   0  0  0  0  0  0  0  0  0  0  0  0
   15.0175    0.3825   17.7003 C   0  0  0  0  0  0  0  0  0  0  0  0
   14.3585    2.7535   17.2110 C   0  0  0  0  0  0  0  0  0  0  0  0
   14.4006    3.8604   16.4050 C   0  0  0  0  0  0  0  0  0  0  0  0
   15.1441    3.8304   15.1866 N   0  0  0  0  0  0  0  0  0  0  0  0
   15.2230    4.9182   14.4285 O   0  0  0  0  0  0  0  0  0  0  0  0
   14.7651    5.6968   14.6773 H   0  0  0  0  0  0  0  0  0  0  0  0
  7  6  2  0  0  0
  7  8  1  0  0  0
  6  4  1  0  0  0
  9  8  1  0  0  0
  8  2  1  0  0  0
  4  5  1  0  0  0
  4  3  2  0  0  0
  2  3  1  0  0  0
  2  1  2  0  0  0
  9 10  1  0  0  0
M  END
> <minimizedAffinity>
-4.49635

$$$$
4Q7S_2YU_A_302


 10 10  0  0  0  0  0  0  0  0999 V2000
   16.8425    1.9918   12.8144 S   0  0  0  0  0  0  0  0  0  0  0  0
   15.9891    2.6626   14.1312 C   0  0  0  0  0  0  0  0  0  0  0  0
   15.7909    1.8890   15.3300 C   0  0  0  0  0  0  0  0  0  0  0  0
   15.1234    2.4288   16.3834 C   0  0  0  0  0  0  0  0  0  0  0  0
   14.8867    1.6266   17.5929 C   0  0  0  0  0  0  0  0  0  0  0  0
   14.6340    3.7671   16.3083 C   0  0  0  0  0  0  0  0  0  0  0  0
   14.8450    4.5106   15.1774 C   0  0  0  0  0  0  0  0  0  0  0  0
   15.5395    3.9426   14.0669 N   0  0  0  0  0  0  0  0  0  0  0  0
   15.7848    4.6784   12.9887 O   0  0  0  0  0  0  0  0  0  0  0  0
   15.4749    5.5615   12.9437 H   0  0  0  0  0  0  0  0  0  0  0  0
  7  6  2  0  0  0
  7  8  1  0  0  0
  6  4  1  0  0  0
  9  8  1  0  0  0
  8  2  1  0  0  0
  4  5  1  0  0  0
  4  3  2  0  0  0
  2  3  1  0  0  0
  2  1  2  0  0  0
  9 10  1  0  0  0
M  END
> <minimizedAffinity>
-4.47711

$$$$
4Q7S_2YU_A_302


 10 10  0  0  0  0  0  0  0  0999 V2000
   16.6422    0.0184   15.1430 S   0  0  0  0  0  0  0  0  0  0  0  0
   15.7927    1.2415   15.9763 C   0  0  0  0  0  0  0  0  0  0  0  0
   15.6342    2.5428   15.3794 C   0  0  0  0  0  0  0  0  0  0  0  0
   14.9457    3.5121   16.0375 C   0  0  0  0  0  0  0  0  0  0  0  0
   14.8165    4.8523   15.4465 C   0  0  0  0  0  0  0  0  0  0  0  0
   14.3655    3.2356   17.3116 C   0  0  0  0  0  0  0  0  0  0  0  0
   14.4953    1.9902   17.8670 C   0  0  0  0  0  0  0  0  0  0  0  0
   15.2247    0.9729   17.1804 N   0  0  0  0  0  0  0  0  0  0  0  0
   15.3109   -0.2476   17.6971 O   0  0  0  0  0  0  0  0  0  0  0  0
   14.9193   -0.4335   18.5278 H   0  0  0  0  0  0  0  0  0  0  0  0
  7  6  2  0  0  0
  7  8  1  0  0  0
  6  4  1  0  0  0
  9  8  1  0  0  0
  8  2  1  0  0  0
  4  5  1  0  0  0
  4  3  2  0  0  0
  2  3  1  0  0  0
  2  1  2  0  0  0
  9 10  1  0  0  0
M  END
> <minimizedAffinity>
-4.46538

$$$$
4Q7S_2YU_A_302


 10 10  0  0  0  0  0  0  0  0999 V2000
   16.1897    0.9326   16.2885 S   0  0  0  0  0  0  0  0  0  0  0  0
   16.0023    2.5697   15.8448 C   0  0  0  0  0  0  0  0  0  0  0  0
   17.0370    3.2358   15.0960 C   0  0  0  0  0  0  0  0  0  0  0  0
   16.8809    4.5354   14.7310 C   0  0  0  0  0  0  0  0  0  0  0  0
   17.9530    5.2276   14.0003 C   0  0  0  0  0  0  0  0  0  0  0  0
   15.6855    5.2347   15.0746 C   0  0  0  0  0  0  0  0  0  0  0  0
   14.6914    4.5930   15.7647 C   0  0  0  0  0  0  0  0  0  0  0  0
   14.8568    3.2299   16.1556 N   0  0  0  0  0  0  0  0  0  0  0  0
   13.8743    2.5940   16.7838 O   0  0  0  0  0  0  0  0  0  0  0  0
   13.0838    3.0490   16.9984 H   0  0  0  0  0  0  0  0  0  0  0  0
  7  6  2  0  0  0
  7  8  1  0  0  0
  6  4  1  0  0  0
  9  8  1  0  0  0
  8  2  1  0  0  0
  4  5  1  0  0  0
  4  3  2  0  0  0
  2  3  1  0  0  0
  2  1  2  0  0  0
  9 10  1  0  0  0
M  END
> <minimizedAffinity>
-4.32828

$$$$
4Q7S_2YU_A_302


 10 10  0  0  0  0  0  0  0  0999 V2000
   16.1510    2.6197   13.3368 S   0  0  0  0  0  0  0  0  0  0  0  0
   17.3002    1.7527   12.4206 C   0  0  0  0  0  0  0  0  0  0  0  0
   17.1166    0.3440   12.1823 C   0  0  0  0  0  0  0  0  0  0  0  0
   18.0250   -0.3429   11.4409 C   0  0  0  0  0  0  0  0  0  0  0  0
   17.8590   -1.7886   11.2295 C   0  0  0  0  0  0  0  0  0  0  0  0
   19.1510    0.3344   10.8846 C   0  0  0  0  0  0  0  0  0  0  0  0
   19.3113    1.6791   11.0907 C   0  0  0  0  0  0  0  0  0  0  0  0
   18.3620    2.4009   11.8756 N   0  0  0  0  0  0  0  0  0  0  0  0
   18.4922    3.7129   12.0366 O   0  0  0  0  0  0  0  0  0  0  0  0
   19.2245    4.1606   11.6609 H   0  0  0  0  0  0  0  0  0  0  0  0
  7  6  2  0  0  0
  7  8  1  0  0  0
  6  4  1  0  0  0
  9  8  1  0  0  0
  8  2  1  0  0  0
  4  5  1  0  0  0
  4  3  2  0  0  0
  2  3  1  0  0  0
  2  1  2  0  0  0
  9 10  1  0  0  0
M  END
> <minimizedAffinity>
-4.12876

$$$$
