2QCI_065_B_404


 42 46  0  0  0  0  0  0  0  0999 V2000
   15.5791   23.9209   18.0680 C   0  0  0  0  0  0  0  0  0  0  0  0
   14.4706   24.6765   18.6096 O   0  0  0  0  0  0  0  0  0  0  0  0
   14.0100   25.1356   17.8899 H   0  0  0  0  0  0  0  0  0  0  0  0
   16.5408   24.9019   17.3901 C   0  0  0  0  0  0  0  0  0  0  0  0
   17.8900   24.3914   17.3448 N   0  0  0  0  0  0  0  0  0  0  0  0
   18.5270   24.0755   15.8528 S   0  0  0  0  0  0  0  0  0  0  0  0
   17.4232   24.0809   14.8843 O   0  0  0  0  0  0  0  0  0  0  0  0
   19.3889   22.8579   15.9982 O   0  0  0  0  0  0  0  0  0  0  0  0
   21.2210   27.5768   14.9242 C   0  0  0  0  0  0  0  0  0  0  0  0
   22.1975   28.5273   14.8261 O   0  0  0  0  0  0  0  0  0  0  0  0
   23.3416   27.8905   15.3149 C   0  0  0  0  0  0  0  0  0  0  0  0
   23.0943   26.5642   15.5734 O   0  0  0  0  0  0  0  0  0  0  0  0
   21.7559   26.4054   15.4496 C   0  0  0  0  0  0  0  0  0  0  0  0
   20.9545   25.2950   15.6973 C   0  0  0  0  0  0  0  0  0  0  0  0
   19.6065   25.4106   15.4520 C   0  0  0  0  0  0  0  0  0  0  0  0
   19.0673   26.5881   14.9704 C   0  0  0  0  0  0  0  0  0  0  0  0
   19.8613   27.6834   14.6724 C   0  0  0  0  0  0  0  0  0  0  0  0
   18.8113   24.9156   18.3370 C   0  0  0  0  0  0  0  0  0  0  0  0
   19.2929   23.8544   19.3418 C   0  0  0  0  0  0  0  0  0  0  0  0
   20.8195   23.9052   19.4592 C   0  0  0  0  0  0  0  0  0  0  0  0
   18.6333   24.1389   20.6898 C   0  0  0  0  0  0  0  0  0  0  0  0
   15.0496   22.8638   17.0882 C   0  0  0  0  0  0  0  0  0  0  0  0
   14.1370   22.0149   17.8796 N   0  0  0  0  0  0  0  0  0  0  0  0
   14.5322   20.9734   18.5983 C   0  0  0  0  0  0  0  0  0  0  0  0
   15.7124   20.5969   18.6851 O   0  0  0  0  0  0  0  0  0  0  0  0
   13.1776   22.2355   17.8732 H   0  0  0  0  0  0  0  0  0  0  0  0
   13.5275   20.3530   19.2404 O   0  0  0  0  0  0  0  0  0  0  0  0
   13.6742   18.9487   19.4491 C   0  0  0  0  0  0  0  0  0  0  0  0
   12.9261   18.6460   20.7493 C   0  0  0  0  0  0  0  0  0  0  0  0
   11.5201   18.6988   20.4294 O   0  0  0  0  0  0  0  0  0  0  0  0
   11.4024   18.1443   19.0970 C   0  0  0  0  0  0  0  0  0  0  0  0
   10.5263   19.0101   18.3730 O   0  0  0  0  0  0  0  0  0  0  0  0
   11.2850   19.7348   17.4114 C   0  0  0  0  0  0  0  0  0  0  0  0
   12.5314   18.8874   17.1222 C   0  0  0  0  0  0  0  0  0  0  0  0
   12.7655   18.1885   18.4618 C   0  0  0  0  0  0  0  0  0  0  0  0
   14.2533   23.4535   15.9301 C   0  0  0  0  0  0  0  0  0  0  0  0
   12.5136   22.0457   14.6848 C   0  0  0  0  0  0  0  0  0  0  0  0
   12.1441   21.0461   13.8072 C   0  0  0  0  0  0  0  0  0  0  0  0
   13.1217   20.2825   13.1875 C   0  0  0  0  0  0  0  0  0  0  0  0
   14.4484   20.5983   13.4321 C   0  0  0  0  0  0  0  0  0  0  0  0
   14.8290   21.6143   14.3092 C   0  0  0  0  0  0  0  0  0  0  0  0
   13.8563   22.3555   14.9544 C   0  0  0  0  0  0  0  0  0  0  0  0
  9 17  1  0  0  0
  9 10  1  0  0  0
  9 13  2  0  0  0
 10 11  1  0  0  0
 11 12  1  0  0  0
 12 13  1  0  0  0
 13 14  1  0  0  0
 14 15  2  0  0  0
 15  6  1  0  0  0
 15 16  1  0  0  0
 16 17  2  0  0  0
  6  5  1  0  0  0
  6  7  2  0  0  0
  6  8  2  0  0  0
  5 18  1  0  0  0
  5  4  1  0  0  0
 18 19  1  0  0  0
 19 20  1  0  0  0
 19 21  1  0  0  0
  4  1  1  0  0  0
  1  2  1  0  0  0
  1 22  1  0  0  0
 22 36  1  0  0  0
 22 23  1  0  0  0
 23 24  1  0  0  0
 24 25  2  0  0  0
 24 27  1  0  0  0
 27 28  1  0  0  0
 28 29  1  0  0  0
 28 35  1  0  0  0
 29 30  1  0  0  0
 30 31  1  0  0  0
 31 32  1  0  0  0
 31 35  1  0  0  0
 32 33  1  0  0  0
 33 34  1  0  0  0
 34 35  1  0  0  0
 36 42  1  0  0  0
 37 42  1  0  0  0
 37 38  2  0  0  0
 38 39  1  0  0  0
 39 40  2  0  0  0
 40 41  1  0  0  0
 41 42  2  0  0  0
  2  3  1  0  0  0
 23 26  1  0  0  0
M  END
> <minimizedAffinity>
-10.22048

$$$$
2QCI_065_B_404


 42 46  0  0  0  0  0  0  0  0999 V2000
   16.0109   23.8785   18.4628 C   0  0  0  0  0  0  0  0  0  0  0  0
   15.1612   25.0400   18.6106 O   0  0  0  0  0  0  0  0  0  0  0  0
   15.1678   25.5524   17.7870 H   0  0  0  0  0  0  0  0  0  0  0  0
   17.4355   24.3617   18.1735 C   0  0  0  0  0  0  0  0  0  0  0  0
   18.3966   23.7848   19.0827 N   0  0  0  0  0  0  0  0  0  0  0  0
   19.9058   24.4578   19.1112 S   0  0  0  0  0  0  0  0  0  0  0  0
   20.8783   23.3699   19.2762 O   0  0  0  0  0  0  0  0  0  0  0  0
   19.8619   25.5792   20.1048 O   0  0  0  0  0  0  0  0  0  0  0  0
   20.4788   26.2900   15.0254 C   0  0  0  0  0  0  0  0  0  0  0  0
   20.5397   27.0605   13.8987 O   0  0  0  0  0  0  0  0  0  0  0  0
   20.4731   28.3711   14.3796 C   0  0  0  0  0  0  0  0  0  0  0  0
   20.5053   28.3939   15.7528 O   0  0  0  0  0  0  0  0  0  0  0  0
   20.3831   27.1053   16.1481 C   0  0  0  0  0  0  0  0  0  0  0  0
   20.2567   26.5633   17.4236 C   0  0  0  0  0  0  0  0  0  0  0  0
   20.1795   25.1948   17.5331 C   0  0  0  0  0  0  0  0  0  0  0  0
   20.2313   24.3854   16.4144 C   0  0  0  0  0  0  0  0  0  0  0  0
   20.4075   24.9101   15.1446 C   0  0  0  0  0  0  0  0  0  0  0  0
   17.8794   23.3170   20.3560 C   0  0  0  0  0  0  0  0  0  0  0  0
   17.9866   21.7923   20.5339 C   0  0  0  0  0  0  0  0  0  0  0  0
   18.3788   21.1406   19.2041 C   0  0  0  0  0  0  0  0  0  0  0  0
   19.0340   21.5093   21.6089 C   0  0  0  0  0  0  0  0  0  0  0  0
   15.4669   22.9844   17.3392 C   0  0  0  0  0  0  0  0  0  0  0  0
   14.4144   22.1603   17.9660 N   0  0  0  0  0  0  0  0  0  0  0  0
   14.5499   20.8703   18.2400 C   0  0  0  0  0  0  0  0  0  0  0  0
   15.5759   20.2131   17.9999 O   0  0  0  0  0  0  0  0  0  0  0  0
   13.5609   22.5947   18.1941 H   0  0  0  0  0  0  0  0  0  0  0  0
   13.4632   20.3275   18.8154 O   0  0  0  0  0  0  0  0  0  0  0  0
   13.4729   18.9108   18.9883 C   0  0  0  0  0  0  0  0  0  0  0  0
   12.7159   18.6506   20.2924 C   0  0  0  0  0  0  0  0  0  0  0  0
   11.3179   18.8499   19.9960 O   0  0  0  0  0  0  0  0  0  0  0  0
   11.1282   18.3435   18.6528 C   0  0  0  0  0  0  0  0  0  0  0  0
   10.3325   19.3095   17.9636 O   0  0  0  0  0  0  0  0  0  0  0  0
   11.1464   19.9798   17.0077 C   0  0  0  0  0  0  0  0  0  0  0  0
   12.2987   19.0212   16.6788 C   0  0  0  0  0  0  0  0  0  0  0  0
   12.4803   18.2691   17.9975 C   0  0  0  0  0  0  0  0  0  0  0  0
   14.8303   23.7654   16.1956 C   0  0  0  0  0  0  0  0  0  0  0  0
   15.3685   22.0653   14.3573 C   0  0  0  0  0  0  0  0  0  0  0  0
   15.0116   21.2094   13.3345 C   0  0  0  0  0  0  0  0  0  0  0  0
   13.6799   21.1043   12.9624 C   0  0  0  0  0  0  0  0  0  0  0  0
   12.7427   21.8274   13.6824 C   0  0  0  0  0  0  0  0  0  0  0  0
   13.0951   22.6856   14.7243 C   0  0  0  0  0  0  0  0  0  0  0  0
   14.4258   22.8181   15.0756 C   0  0  0  0  0  0  0  0  0  0  0  0
  9 17  1  0  0  0
  9 10  1  0  0  0
  9 13  2  0  0  0
 10 11  1  0  0  0
 11 12  1  0  0  0
 12 13  1  0  0  0
 13 14  1  0  0  0
 14 15  2  0  0  0
 15  6  1  0  0  0
 15 16  1  0  0  0
 16 17  2  0  0  0
  6  5  1  0  0  0
  6  7  2  0  0  0
  6  8  2  0  0  0
  5 18  1  0  0  0
  5  4  1  0  0  0
 18 19  1  0  0  0
 19 20  1  0  0  0
 19 21  1  0  0  0
  4  1  1  0  0  0
  1  2  1  0  0  0
  1 22  1  0  0  0
 22 36  1  0  0  0
 22 23  1  0  0  0
 23 24  1  0  0  0
 24 25  2  0  0  0
 24 27  1  0  0  0
 27 28  1  0  0  0
 28 29  1  0  0  0
 28 35  1  0  0  0
 29 30  1  0  0  0
 30 31  1  0  0  0
 31 32  1  0  0  0
 31 35  1  0  0  0
 32 33  1  0  0  0
 33 34  1  0  0  0
 34 35  1  0  0  0
 36 42  1  0  0  0
 37 42  1  0  0  0
 37 38  2  0  0  0
 38 39  1  0  0  0
 39 40  2  0  0  0
 40 41  1  0  0  0
 41 42  2  0  0  0
  2  3  1  0  0  0
 23 26  1  0  0  0
M  END
> <minimizedAffinity>
-9.98698

$$$$
2QCI_065_B_404


 42 46  0  0  0  0  0  0  0  0999 V2000
   15.6675   23.8155   17.9678 C   0  0  0  0  0  0  0  0  0  0  0  0
   14.6153   24.6466   18.5111 O   0  0  0  0  0  0  0  0  0  0  0  0
   14.1644   25.1109   17.7886 H   0  0  0  0  0  0  0  0  0  0  0  0
   16.6662   24.7221   17.2416 C   0  0  0  0  0  0  0  0  0  0  0  0
   17.8841   24.8974   17.9959 N   0  0  0  0  0  0  0  0  0  0  0  0
   18.3081   23.6849   19.0358 S   0  0  0  0  0  0  0  0  0  0  0  0
   18.5550   22.4768   18.2383 O   0  0  0  0  0  0  0  0  0  0  0  0
   17.2767   23.6657   20.1232 O   0  0  0  0  0  0  0  0  0  0  0  0
   22.2485   24.9376   20.8477 C   0  0  0  0  0  0  0  0  0  0  0  0
   23.3112   25.5420   21.4577 O   0  0  0  0  0  0  0  0  0  0  0  0
   22.7255   26.5019   22.2876 C   0  0  0  0  0  0  0  0  0  0  0  0
   21.3563   26.3908   22.2789 O   0  0  0  0  0  0  0  0  0  0  0  0
   21.0620   25.5086   21.2957 C   0  0  0  0  0  0  0  0  0  0  0  0
   19.8309   25.1034   20.7888 C   0  0  0  0  0  0  0  0  0  0  0  0
   19.8291   24.1543   19.7938 C   0  0  0  0  0  0  0  0  0  0  0  0
   21.0099   23.6174   19.3177 C   0  0  0  0  0  0  0  0  0  0  0  0
   22.2381   23.9755   19.8489 C   0  0  0  0  0  0  0  0  0  0  0  0
   18.9762   25.5653   17.3110 C   0  0  0  0  0  0  0  0  0  0  0  0
   19.0475   25.2337   15.8101 C   0  0  0  0  0  0  0  0  0  0  0  0
   19.2224   26.5229   15.0011 C   0  0  0  0  0  0  0  0  0  0  0  0
   20.2241   24.2861   15.5856 C   0  0  0  0  0  0  0  0  0  0  0  0
   15.0578   22.7633   17.0302 C   0  0  0  0  0  0  0  0  0  0  0  0
   14.1628   21.9512   17.8783 N   0  0  0  0  0  0  0  0  0  0  0  0
   14.5629   20.9037   18.5855 C   0  0  0  0  0  0  0  0  0  0  0  0
   15.7336   20.4900   18.6127 O   0  0  0  0  0  0  0  0  0  0  0  0
   13.2119   22.2026   17.9211 H   0  0  0  0  0  0  0  0  0  0  0  0
   13.5751   20.3216   19.2870 O   0  0  0  0  0  0  0  0  0  0  0  0
   13.6926   18.9167   19.5095 C   0  0  0  0  0  0  0  0  0  0  0  0
   12.9266   18.6403   20.8051 C   0  0  0  0  0  0  0  0  0  0  0  0
   11.5249   18.7174   20.4714 O   0  0  0  0  0  0  0  0  0  0  0  0
   11.4090   18.1533   19.1429 C   0  0  0  0  0  0  0  0  0  0  0  0
   10.5566   19.0294   18.4031 O   0  0  0  0  0  0  0  0  0  0  0  0
   11.3382   19.7305   17.4423 C   0  0  0  0  0  0  0  0  0  0  0  0
   12.5705   18.8565   17.1724 C   0  0  0  0  0  0  0  0  0  0  0  0
   12.7785   18.1654   18.5203 C   0  0  0  0  0  0  0  0  0  0  0  0
   14.2206   23.3629   15.9066 C   0  0  0  0  0  0  0  0  0  0  0  0
   12.4598   22.0165   14.6236 C   0  0  0  0  0  0  0  0  0  0  0  0
   12.0742   21.0280   13.7404 C   0  0  0  0  0  0  0  0  0  0  0  0
   13.0371   20.2254   13.1473 C   0  0  0  0  0  0  0  0  0  0  0  0
   14.3684   20.4920   13.4233 C   0  0  0  0  0  0  0  0  0  0  0  0
   14.7656   21.4966   14.3062 C   0  0  0  0  0  0  0  0  0  0  0  0
   13.8063   22.2766   14.9250 C   0  0  0  0  0  0  0  0  0  0  0  0
  9 17  1  0  0  0
  9 10  1  0  0  0
  9 13  2  0  0  0
 10 11  1  0  0  0
 11 12  1  0  0  0
 12 13  1  0  0  0
 13 14  1  0  0  0
 14 15  2  0  0  0
 15  6  1  0  0  0
 15 16  1  0  0  0
 16 17  2  0  0  0
  6  5  1  0  0  0
  6  7  2  0  0  0
  6  8  2  0  0  0
  5 18  1  0  0  0
  5  4  1  0  0  0
 18 19  1  0  0  0
 19 20  1  0  0  0
 19 21  1  0  0  0
  4  1  1  0  0  0
  1  2  1  0  0  0
  1 22  1  0  0  0
 22 36  1  0  0  0
 22 23  1  0  0  0
 23 24  1  0  0  0
 24 25  2  0  0  0
 24 27  1  0  0  0
 27 28  1  0  0  0
 28 29  1  0  0  0
 28 35  1  0  0  0
 29 30  1  0  0  0
 30 31  1  0  0  0
 31 32  1  0  0  0
 31 35  1  0  0  0
 32 33  1  0  0  0
 33 34  1  0  0  0
 34 35  1  0  0  0
 36 42  1  0  0  0
 37 42  1  0  0  0
 37 38  2  0  0  0
 38 39  1  0  0  0
 39 40  2  0  0  0
 40 41  1  0  0  0
 41 42  2  0  0  0
  2  3  1  0  0  0
 23 26  1  0  0  0
M  END
> <minimizedAffinity>
-9.93344

$$$$
2QCI_065_B_404


 42 46  0  0  0  0  0  0  0  0999 V2000
   16.4377   24.7884   17.8218 C   0  0  0  0  0  0  0  0  0  0  0  0
   15.7901   25.4401   18.9394 O   0  0  0  0  0  0  0  0  0  0  0  0
   15.6749   24.8036   19.6623 H   0  0  0  0  0  0  0  0  0  0  0  0
   15.5399   23.6393   17.3524 C   0  0  0  0  0  0  0  0  0  0  0  0
   16.1847   22.3563   17.4974 N   0  0  0  0  0  0  0  0  0  0  0  0
   15.9400   21.5455   18.9166 S   0  0  0  0  0  0  0  0  0  0  0  0
   15.3234   22.4807   19.8662 O   0  0  0  0  0  0  0  0  0  0  0  0
   17.2350   20.8743   19.2616 O   0  0  0  0  0  0  0  0  0  0  0  0
   13.0040   18.1903   18.2080 C   0  0  0  0  0  0  0  0  0  0  0  0
   11.9394   17.3398   18.1086 O   0  0  0  0  0  0  0  0  0  0  0  0
   10.8252   18.1798   18.1852 C   0  0  0  0  0  0  0  0  0  0  0  0
   11.2040   19.5003   18.1962 O   0  0  0  0  0  0  0  0  0  0  0  0
   12.5501   19.4988   18.3358 C   0  0  0  0  0  0  0  0  0  0  0  0
   13.4387   20.5565   18.5045 C   0  0  0  0  0  0  0  0  0  0  0  0
   14.7786   20.2597   18.5905 C   0  0  0  0  0  0  0  0  0  0  0  0
   15.2274   18.9556   18.5066 C   0  0  0  0  0  0  0  0  0  0  0  0
   14.3576   17.8997   18.2884 C   0  0  0  0  0  0  0  0  0  0  0  0
   16.2727   21.5399   16.3000 C   0  0  0  0  0  0  0  0  0  0  0  0
   15.2463   21.9282   15.2213 C   0  0  0  0  0  0  0  0  0  0  0  0
   15.9713   22.2928   13.9219 C   0  0  0  0  0  0  0  0  0  0  0  0
   14.3074   20.7428   15.0068 C   0  0  0  0  0  0  0  0  0  0  0  0
   17.8273   24.2952   18.2504 C   0  0  0  0  0  0  0  0  0  0  0  0
   18.7848   25.2478   17.6541 N   0  0  0  0  0  0  0  0  0  0  0  0
   19.5052   24.9924   16.5709 C   0  0  0  0  0  0  0  0  0  0  0  0
   19.4544   23.9246   15.9388 O   0  0  0  0  0  0  0  0  0  0  0  0
   18.8949   26.1253   18.0868 H   0  0  0  0  0  0  0  0  0  0  0  0
   20.3050   26.0095   16.2070 O   0  0  0  0  0  0  0  0  0  0  0  0
   20.4662   26.2245   14.8052 C   0  0  0  0  0  0  0  0  0  0  0  0
   19.4171   27.2722   14.4268 C   0  0  0  0  0  0  0  0  0  0  0  0
   19.9073   28.5347   14.9246 O   0  0  0  0  0  0  0  0  0  0  0  0
   21.3428   28.4959   14.7389 C   0  0  0  0  0  0  0  0  0  0  0  0
   21.9219   28.9897   15.9481 O   0  0  0  0  0  0  0  0  0  0  0  0
   22.5329   27.9077   16.6421 C   0  0  0  0  0  0  0  0  0  0  0  0
   22.8606   26.8487   15.5810 C   0  0  0  0  0  0  0  0  0  0  0  0
   21.7416   27.0563   14.5600 C   0  0  0  0  0  0  0  0  0  0  0  0
   18.0366   24.3050   19.7600 C   0  0  0  0  0  0  0  0  0  0  0  0
   20.1021   25.3139   20.8894 C   0  0  0  0  0  0  0  0  0  0  0  0
   21.4512   25.3407   21.1811 C   0  0  0  0  0  0  0  0  0  0  0  0
   22.2895   24.3806   20.6348 C   0  0  0  0  0  0  0  0  0  0  0  0
   21.7210   23.3852   19.8565 C   0  0  0  0  0  0  0  0  0  0  0  0
   20.3569   23.3456   19.5669 C   0  0  0  0  0  0  0  0  0  0  0  0
   19.5235   24.3208   20.0827 C   0  0  0  0  0  0  0  0  0  0  0  0
  9 17  1  0  0  0
  9 10  1  0  0  0
  9 13  2  0  0  0
 10 11  1  0  0  0
 11 12  1  0  0  0
 12 13  1  0  0  0
 13 14  1  0  0  0
 14 15  2  0  0  0
 15  6  1  0  0  0
 15 16  1  0  0  0
 16 17  2  0  0  0
  6  5  1  0  0  0
  6  7  2  0  0  0
  6  8  2  0  0  0
  5 18  1  0  0  0
  5  4  1  0  0  0
 18 19  1  0  0  0
 19 20  1  0  0  0
 19 21  1  0  0  0
  4  1  1  0  0  0
  1  2  1  0  0  0
  1 22  1  0  0  0
 22 36  1  0  0  0
 22 23  1  0  0  0
 23 24  1  0  0  0
 24 25  2  0  0  0
 24 27  1  0  0  0
 27 28  1  0  0  0
 28 29  1  0  0  0
 28 35  1  0  0  0
 29 30  1  0  0  0
 30 31  1  0  0  0
 31 32  1  0  0  0
 31 35  1  0  0  0
 32 33  1  0  0  0
 33 34  1  0  0  0
 34 35  1  0  0  0
 36 42  1  0  0  0
 37 42  1  0  0  0
 37 38  2  0  0  0
 38 39  1  0  0  0
 39 40  2  0  0  0
 40 41  1  0  0  0
 41 42  2  0  0  0
  2  3  1  0  0  0
 23 26  1  0  0  0
M  END
> <minimizedAffinity>
-9.73019

$$$$
2QCI_065_B_404


 42 46  0  0  0  0  0  0  0  0999 V2000
   17.0829   24.6184   17.5084 C   0  0  0  0  0  0  0  0  0  0  0  0
   16.5351   25.9225   17.8119 O   0  0  0  0  0  0  0  0  0  0  0  0
   17.1236   26.6098   17.4622 H   0  0  0  0  0  0  0  0  0  0  0  0
   18.4544   24.5073   18.1818 C   0  0  0  0  0  0  0  0  0  0  0  0
   18.4491   23.5523   19.2639 N   0  0  0  0  0  0  0  0  0  0  0  0
   18.4691   21.9508   18.8563 S   0  0  0  0  0  0  0  0  0  0  0  0
   19.2086   21.2318   19.9016 O   0  0  0  0  0  0  0  0  0  0  0  0
   18.9228   21.8719   17.4300 O   0  0  0  0  0  0  0  0  0  0  0  0
   14.1619   20.5995   18.8309 C   0  0  0  0  0  0  0  0  0  0  0  0
   12.9416   20.0154   18.6393 O   0  0  0  0  0  0  0  0  0  0  0  0
   13.2459   18.7609   18.1038 C   0  0  0  0  0  0  0  0  0  0  0  0
   14.6024   18.5444   18.0969 O   0  0  0  0  0  0  0  0  0  0  0  0
   15.1686   19.7277   18.4296 C   0  0  0  0  0  0  0  0  0  0  0  0
   16.5078   20.1034   18.4760 C   0  0  0  0  0  0  0  0  0  0  0  0
   16.8001   21.3832   18.8851 C   0  0  0  0  0  0  0  0  0  0  0  0
   15.7978   22.2643   19.2431 C   0  0  0  0  0  0  0  0  0  0  0  0
   14.4651   21.8864   19.2493 C   0  0  0  0  0  0  0  0  0  0  0  0
   19.1974   23.9205   20.4523 C   0  0  0  0  0  0  0  0  0  0  0  0
   20.4289   24.7925   20.1509 C   0  0  0  0  0  0  0  0  0  0  0  0
   20.6931   25.7414   21.3243 C   0  0  0  0  0  0  0  0  0  0  0  0
   21.6228   23.8688   19.9182 C   0  0  0  0  0  0  0  0  0  0  0  0
   17.1730   24.4412   15.9858 C   0  0  0  0  0  0  0  0  0  0  0  0
   15.8955   23.8190   15.5852 N   0  0  0  0  0  0  0  0  0  0  0  0
   15.7409   22.5202   15.3688 C   0  0  0  0  0  0  0  0  0  0  0  0
   16.6527   21.6843   15.4788 O   0  0  0  0  0  0  0  0  0  0  0  0
   15.1114   24.4036   15.4720 H   0  0  0  0  0  0  0  0  0  0  0  0
   14.4883   22.1804   15.0192 O   0  0  0  0  0  0  0  0  0  0  0  0
   14.1625   22.2825   13.6334 C   0  0  0  0  0  0  0  0  0  0  0  0
   14.9112   21.1364   12.9496 C   0  0  0  0  0  0  0  0  0  0  0  0
   14.1932   19.9292   13.2801 O   0  0  0  0  0  0  0  0  0  0  0  0
   12.7931   20.2983   13.2877 C   0  0  0  0  0  0  0  0  0  0  0  0
   12.2238   19.7067   14.4570 O   0  0  0  0  0  0  0  0  0  0  0  0
   11.9352   20.7335   15.3993 C   0  0  0  0  0  0  0  0  0  0  0  0
   11.7650   22.0246   14.5874 C   0  0  0  0  0  0  0  0  0  0  0  0
   12.7159   21.7956   13.4122 C   0  0  0  0  0  0  0  0  0  0  0  0
   17.3104   25.7565   15.2282 C   0  0  0  0  0  0  0  0  0  0  0  0
   19.2138   27.3429   14.5801 C   0  0  0  0  0  0  0  0  0  0  0  0
   20.5434   27.6352   14.3508 C   0  0  0  0  0  0  0  0  0  0  0  0
   21.4971   26.6374   14.4844 C   0  0  0  0  0  0  0  0  0  0  0  0
   21.0773   25.3864   14.9067 C   0  0  0  0  0  0  0  0  0  0  0  0
   19.7368   25.0872   15.1511 C   0  0  0  0  0  0  0  0  0  0  0  0
   18.7793   26.0709   14.9863 C   0  0  0  0  0  0  0  0  0  0  0  0
  9 17  1  0  0  0
  9 10  1  0  0  0
  9 13  2  0  0  0
 10 11  1  0  0  0
 11 12  1  0  0  0
 12 13  1  0  0  0
 13 14  1  0  0  0
 14 15  2  0  0  0
 15  6  1  0  0  0
 15 16  1  0  0  0
 16 17  2  0  0  0
  6  5  1  0  0  0
  6  7  2  0  0  0
  6  8  2  0  0  0
  5 18  1  0  0  0
  5  4  1  0  0  0
 18 19  1  0  0  0
 19 20  1  0  0  0
 19 21  1  0  0  0
  4  1  1  0  0  0
  1  2  1  0  0  0
  1 22  1  0  0  0
 22 36  1  0  0  0
 22 23  1  0  0  0
 23 24  1  0  0  0
 24 25  2  0  0  0
 24 27  1  0  0  0
 27 28  1  0  0  0
 28 29  1  0  0  0
 28 35  1  0  0  0
 29 30  1  0  0  0
 30 31  1  0  0  0
 31 32  1  0  0  0
 31 35  1  0  0  0
 32 33  1  0  0  0
 33 34  1  0  0  0
 34 35  1  0  0  0
 36 42  1  0  0  0
 37 42  1  0  0  0
 37 38  2  0  0  0
 38 39  1  0  0  0
 39 40  2  0  0  0
 40 41  1  0  0  0
 41 42  2  0  0  0
  2  3  1  0  0  0
 23 26  1  0  0  0
M  END
> <minimizedAffinity>
-9.66676

$$$$
2QCI_065_B_404


 42 46  0  0  0  0  0  0  0  0999 V2000
   17.6372   23.5949   19.1383 C   0  0  0  0  0  0  0  0  0  0  0  0
   17.0581   23.1307   20.3802 O   0  0  0  0  0  0  0  0  0  0  0  0
   17.5907   22.4003   20.7322 H   0  0  0  0  0  0  0  0  0  0  0  0
   17.6293   22.4310   18.1424 C   0  0  0  0  0  0  0  0  0  0  0  0
   16.2951   22.1145   17.6920 N   0  0  0  0  0  0  0  0  0  0  0  0
   15.5720   23.1877   16.6639 S   0  0  0  0  0  0  0  0  0  0  0  0
   16.6314   23.9759   16.0215 O   0  0  0  0  0  0  0  0  0  0  0  0
   14.4949   23.8780   17.4449 O   0  0  0  0  0  0  0  0  0  0  0  0
   13.5963   20.6750   13.4761 C   0  0  0  0  0  0  0  0  0  0  0  0
   12.8467   19.8255   12.7124 O   0  0  0  0  0  0  0  0  0  0  0  0
   11.6786   19.6406   13.4571 C   0  0  0  0  0  0  0  0  0  0  0  0
   11.6674   20.4527   14.5650 O   0  0  0  0  0  0  0  0  0  0  0  0
   12.9046   20.9960   14.6393 C   0  0  0  0  0  0  0  0  0  0  0  0
   13.4731   21.8104   15.6141 C   0  0  0  0  0  0  0  0  0  0  0  0
   14.7612   22.2473   15.4122 C   0  0  0  0  0  0  0  0  0  0  0  0
   15.4649   21.8938   14.2769 C   0  0  0  0  0  0  0  0  0  0  0  0
   14.8926   21.1255   13.2762 C   0  0  0  0  0  0  0  0  0  0  0  0
   16.0100   20.7105   17.4570 C   0  0  0  0  0  0  0  0  0  0  0  0
   15.3610   20.0104   18.6638 C   0  0  0  0  0  0  0  0  0  0  0  0
   14.1903   20.8506   19.1838 C   0  0  0  0  0  0  0  0  0  0  0  0
   14.8841   18.6303   18.2158 C   0  0  0  0  0  0  0  0  0  0  0  0
   19.0563   24.1203   19.3987 C   0  0  0  0  0  0  0  0  0  0  0  0
   19.2503   25.2243   18.4377 N   0  0  0  0  0  0  0  0  0  0  0  0
   19.8458   25.0851   17.2615 C   0  0  0  0  0  0  0  0  0  0  0  0
   20.3059   24.0120   16.8384 O   0  0  0  0  0  0  0  0  0  0  0  0
   18.9176   26.1171   18.6853 H   0  0  0  0  0  0  0  0  0  0  0  0
   19.9042   26.2253   16.5520 O   0  0  0  0  0  0  0  0  0  0  0  0
   20.1262   26.0929   15.1484 C   0  0  0  0  0  0  0  0  0  0  0  0
   19.1601   27.0768   14.4848 C   0  0  0  0  0  0  0  0  0  0  0  0
   19.7137   28.3926   14.6957 O   0  0  0  0  0  0  0  0  0  0  0  0
   21.1491   28.2324   14.5934 C   0  0  0  0  0  0  0  0  0  0  0  0
   21.7177   28.9662   15.6795 O   0  0  0  0  0  0  0  0  0  0  0  0
   22.2339   28.0478   16.6364 C   0  0  0  0  0  0  0  0  0  0  0  0
   22.5283   26.7512   15.8702 C   0  0  0  0  0  0  0  0  0  0  0  0
   21.4601   26.7719   14.7765 C   0  0  0  0  0  0  0  0  0  0  0  0
   19.2480   24.6829   20.8021 C   0  0  0  0  0  0  0  0  0  0  0  0
   21.0820   26.3829   21.3552 C   0  0  0  0  0  0  0  0  0  0  0  0
   22.3999   26.7489   21.5431 C   0  0  0  0  0  0  0  0  0  0  0  0
   23.4046   25.8116   21.3563 C   0  0  0  0  0  0  0  0  0  0  0  0
   23.0353   24.5134   21.0433 C   0  0  0  0  0  0  0  0  0  0  0  0
   21.7049   24.1340   20.8629 C   0  0  0  0  0  0  0  0  0  0  0  0
   20.7028   25.0743   21.0155 C   0  0  0  0  0  0  0  0  0  0  0  0
  9 17  1  0  0  0
  9 10  1  0  0  0
  9 13  2  0  0  0
 10 11  1  0  0  0
 11 12  1  0  0  0
 12 13  1  0  0  0
 13 14  1  0  0  0
 14 15  2  0  0  0
 15  6  1  0  0  0
 15 16  1  0  0  0
 16 17  2  0  0  0
  6  5  1  0  0  0
  6  7  2  0  0  0
  6  8  2  0  0  0
  5 18  1  0  0  0
  5  4  1  0  0  0
 18 19  1  0  0  0
 19 20  1  0  0  0
 19 21  1  0  0  0
  4  1  1  0  0  0
  1  2  1  0  0  0
  1 22  1  0  0  0
 22 36  1  0  0  0
 22 23  1  0  0  0
 23 24  1  0  0  0
 24 25  2  0  0  0
 24 27  1  0  0  0
 27 28  1  0  0  0
 28 29  1  0  0  0
 28 35  1  0  0  0
 29 30  1  0  0  0
 30 31  1  0  0  0
 31 32  1  0  0  0
 31 35  1  0  0  0
 32 33  1  0  0  0
 33 34  1  0  0  0
 34 35  1  0  0  0
 36 42  1  0  0  0
 37 42  1  0  0  0
 37 38  2  0  0  0
 38 39  1  0  0  0
 39 40  2  0  0  0
 40 41  1  0  0  0
 41 42  2  0  0  0
  2  3  1  0  0  0
 23 26  1  0  0  0
M  END
> <minimizedAffinity>
-9.60297

$$$$
2QCI_065_B_404


 42 46  0  0  0  0  0  0  0  0999 V2000
   16.5876   24.5209   17.5369 C   0  0  0  0  0  0  0  0  0  0  0  0
   16.1329   25.7046   18.2335 O   0  0  0  0  0  0  0  0  0  0  0  0
   16.8130   26.3940   18.1776 H   0  0  0  0  0  0  0  0  0  0  0  0
   17.8700   24.0295   18.2158 C   0  0  0  0  0  0  0  0  0  0  0  0
   17.6432   22.8410   19.0027 N   0  0  0  0  0  0  0  0  0  0  0  0
   18.2680   22.8190   20.5325 S   0  0  0  0  0  0  0  0  0  0  0  0
   18.5321   21.4190   20.8884 O   0  0  0  0  0  0  0  0  0  0  0  0
   17.3563   23.6486   21.3853 O   0  0  0  0  0  0  0  0  0  0  0  0
   22.2137   24.9938   20.2479 C   0  0  0  0  0  0  0  0  0  0  0  0
   23.2602   25.8710   20.2024 O   0  0  0  0  0  0  0  0  0  0  0  0
   22.7907   26.9957   20.8865 C   0  0  0  0  0  0  0  0  0  0  0  0
   21.5560   26.7559   21.4390 O   0  0  0  0  0  0  0  0  0  0  0  0
   21.1504   25.5657   20.9384 C   0  0  0  0  0  0  0  0  0  0  0  0
   19.9405   24.8937   21.0832 C   0  0  0  0  0  0  0  0  0  0  0  0
   19.8137   23.6654   20.4782 C   0  0  0  0  0  0  0  0  0  0  0  0
   20.8550   23.1151   19.7555 C   0  0  0  0  0  0  0  0  0  0  0  0
   22.0807   23.7513   19.6465 C   0  0  0  0  0  0  0  0  0  0  0  0
   16.3601   22.1853   18.8250 C   0  0  0  0  0  0  0  0  0  0  0  0
   16.4826   20.7170   18.3814 C   0  0  0  0  0  0  0  0  0  0  0  0
   15.1095   20.1862   17.9576 C   0  0  0  0  0  0  0  0  0  0  0  0
   17.4742   20.6495   17.2217 C   0  0  0  0  0  0  0  0  0  0  0  0
   16.8117   24.8523   16.0544 C   0  0  0  0  0  0  0  0  0  0  0  0
   17.9716   25.7652   16.0256 N   0  0  0  0  0  0  0  0  0  0  0  0
   18.3604   26.4338   14.9489 C   0  0  0  0  0  0  0  0  0  0  0  0
   17.7925   26.3660   13.8465 O   0  0  0  0  0  0  0  0  0  0  0  0
   18.4873   25.8847   16.8557 H   0  0  0  0  0  0  0  0  0  0  0  0
   19.4380   27.2091   15.1593 O   0  0  0  0  0  0  0  0  0  0  0  0
   20.6444   26.8161   14.5057 C   0  0  0  0  0  0  0  0  0  0  0  0
   21.2320   28.1018   13.9197 C   0  0  0  0  0  0  0  0  0  0  0  0
   21.7857   28.8374   15.0307 O   0  0  0  0  0  0  0  0  0  0  0  0
   22.3429   27.8396   15.9197 C   0  0  0  0  0  0  0  0  0  0  0  0
   21.9370   28.2013   17.2410 O   0  0  0  0  0  0  0  0  0  0  0  0
   20.9619   27.2694   17.6951 C   0  0  0  0  0  0  0  0  0  0  0  0
   21.1975   25.9798   16.8972 C   0  0  0  0  0  0  0  0  0  0  0  0
   21.7239   26.5151   15.5653 C   0  0  0  0  0  0  0  0  0  0  0  0
   17.1540   23.6343   15.2046 C   0  0  0  0  0  0  0  0  0  0  0  0
   15.8515   22.0310   13.6905 C   0  0  0  0  0  0  0  0  0  0  0  0
   14.6996   21.3828   13.2920 C   0  0  0  0  0  0  0  0  0  0  0  0
   13.5079   21.6336   13.9552 C   0  0  0  0  0  0  0  0  0  0  0  0
   13.5352   22.4904   15.0436 C   0  0  0  0  0  0  0  0  0  0  0  0
   14.6979   23.1402   15.4587 C   0  0  0  0  0  0  0  0  0  0  0  0
   15.8810   22.9181   14.7786 C   0  0  0  0  0  0  0  0  0  0  0  0
  9 17  1  0  0  0
  9 10  1  0  0  0
  9 13  2  0  0  0
 10 11  1  0  0  0
 11 12  1  0  0  0
 12 13  1  0  0  0
 13 14  1  0  0  0
 14 15  2  0  0  0
 15  6  1  0  0  0
 15 16  1  0  0  0
 16 17  2  0  0  0
  6  5  1  0  0  0
  6  7  2  0  0  0
  6  8  2  0  0  0
  5 18  1  0  0  0
  5  4  1  0  0  0
 18 19  1  0  0  0
 19 20  1  0  0  0
 19 21  1  0  0  0
  4  1  1  0  0  0
  1  2  1  0  0  0
  1 22  1  0  0  0
 22 36  1  0  0  0
 22 23  1  0  0  0
 23 24  1  0  0  0
 24 25  2  0  0  0
 24 27  1  0  0  0
 27 28  1  0  0  0
 28 29  1  0  0  0
 28 35  1  0  0  0
 29 30  1  0  0  0
 30 31  1  0  0  0
 31 32  1  0  0  0
 31 35  1  0  0  0
 32 33  1  0  0  0
 33 34  1  0  0  0
 34 35  1  0  0  0
 36 42  1  0  0  0
 37 42  1  0  0  0
 37 38  2  0  0  0
 38 39  1  0  0  0
 39 40  2  0  0  0
 40 41  1  0  0  0
 41 42  2  0  0  0
  2  3  1  0  0  0
 23 26  1  0  0  0
M  END
> <minimizedAffinity>
-9.58035

$$$$
2QCI_065_B_404


 42 46  0  0  0  0  0  0  0  0999 V2000
   17.7334   23.6891   19.1210 C   0  0  0  0  0  0  0  0  0  0  0  0
   17.0933   23.5198   20.4073 O   0  0  0  0  0  0  0  0  0  0  0  0
   17.5279   22.8011   20.8926 H   0  0  0  0  0  0  0  0  0  0  0  0
   17.5854   22.3812   18.3373 C   0  0  0  0  0  0  0  0  0  0  0  0
   16.2851   22.2644   17.7220 N   0  0  0  0  0  0  0  0  0  0  0  0
   15.0921   21.5450   18.6112 S   0  0  0  0  0  0  0  0  0  0  0  0
   14.4000   22.5972   19.3664 O   0  0  0  0  0  0  0  0  0  0  0  0
   15.7249   20.3963   19.3369 O   0  0  0  0  0  0  0  0  0  0  0  0
   12.0417   19.8525   15.7460 C   0  0  0  0  0  0  0  0  0  0  0  0
   11.2218   19.5160   14.7062 O   0  0  0  0  0  0  0  0  0  0  0  0
   11.9160   19.9482   13.5728 C   0  0  0  0  0  0  0  0  0  0  0  0
   13.1668   20.4075   13.9069 O   0  0  0  0  0  0  0  0  0  0  0  0
   13.1928   20.4626   15.2589 C   0  0  0  0  0  0  0  0  0  0  0  0
   14.1715   20.9472   16.1213 C   0  0  0  0  0  0  0  0  0  0  0  0
   13.9403   20.8475   17.4731 C   0  0  0  0  0  0  0  0  0  0  0  0
   12.7775   20.2802   17.9582 C   0  0  0  0  0  0  0  0  0  0  0  0
   11.8189   19.7490   17.1109 C   0  0  0  0  0  0  0  0  0  0  0  0
   15.8737   23.3657   16.8700 C   0  0  0  0  0  0  0  0  0  0  0  0
   16.8441   23.6303   15.7055 C   0  0  0  0  0  0  0  0  0  0  0  0
   16.4617   22.7614   14.5031 C   0  0  0  0  0  0  0  0  0  0  0  0
   16.7707   25.1140   15.3504 C   0  0  0  0  0  0  0  0  0  0  0  0
   19.2057   24.0734   19.3271 C   0  0  0  0  0  0  0  0  0  0  0  0
   19.4471   25.2112   18.4178 N   0  0  0  0  0  0  0  0  0  0  0  0
   19.9201   25.0861   17.1857 C   0  0  0  0  0  0  0  0  0  0  0  0
   20.2124   23.9992   16.6608 O   0  0  0  0  0  0  0  0  0  0  0  0
   19.2447   26.1170   18.7460 H   0  0  0  0  0  0  0  0  0  0  0  0
   20.0530   26.2580   16.5409 O   0  0  0  0  0  0  0  0  0  0  0  0
   20.3191   26.1893   15.1404 C   0  0  0  0  0  0  0  0  0  0  0  0
   19.3978   27.2270   14.4955 C   0  0  0  0  0  0  0  0  0  0  0  0
   19.9727   28.5174   14.7894 O   0  0  0  0  0  0  0  0  0  0  0  0
   21.4069   28.3286   14.7260 C   0  0  0  0  0  0  0  0  0  0  0  0
   21.9546   28.9948   15.8652 O   0  0  0  0  0  0  0  0  0  0  0  0
   22.4180   28.0187   16.7915 C   0  0  0  0  0  0  0  0  0  0  0  0
   22.7094   26.7545   15.9717 C   0  0  0  0  0  0  0  0  0  0  0  0
   21.6793   26.8539   14.8463 C   0  0  0  0  0  0  0  0  0  0  0  0
   19.5208   24.5335   20.7456 C   0  0  0  0  0  0  0  0  0  0  0  0
   22.0120   24.1700   20.2756 C   0  0  0  0  0  0  0  0  0  0  0  0
   23.3436   24.5206   20.3752 C   0  0  0  0  0  0  0  0  0  0  0  0
   23.7035   25.6452   21.1023 C   0  0  0  0  0  0  0  0  0  0  0  0
   22.6929   26.4146   21.6559 C   0  0  0  0  0  0  0  0  0  0  0  0
   21.3446   26.0724   21.5498 C   0  0  0  0  0  0  0  0  0  0  0  0
   20.9849   24.9332   20.8537 C   0  0  0  0  0  0  0  0  0  0  0  0
  9 17  1  0  0  0
  9 10  1  0  0  0
  9 13  2  0  0  0
 10 11  1  0  0  0
 11 12  1  0  0  0
 12 13  1  0  0  0
 13 14  1  0  0  0
 14 15  2  0  0  0
 15  6  1  0  0  0
 15 16  1  0  0  0
 16 17  2  0  0  0
  6  5  1  0  0  0
  6  7  2  0  0  0
  6  8  2  0  0  0
  5 18  1  0  0  0
  5  4  1  0  0  0
 18 19  1  0  0  0
 19 20  1  0  0  0
 19 21  1  0  0  0
  4  1  1  0  0  0
  1  2  1  0  0  0
  1 22  1  0  0  0
 22 36  1  0  0  0
 22 23  1  0  0  0
 23 24  1  0  0  0
 24 25  2  0  0  0
 24 27  1  0  0  0
 27 28  1  0  0  0
 28 29  1  0  0  0
 28 35  1  0  0  0
 29 30  1  0  0  0
 30 31  1  0  0  0
 31 32  1  0  0  0
 31 35  1  0  0  0
 32 33  1  0  0  0
 33 34  1  0  0  0
 34 35  1  0  0  0
 36 42  1  0  0  0
 37 42  1  0  0  0
 37 38  2  0  0  0
 38 39  1  0  0  0
 39 40  2  0  0  0
 40 41  1  0  0  0
 41 42  2  0  0  0
  2  3  1  0  0  0
 23 26  1  0  0  0
M  END
> <minimizedAffinity>
-9.36771

$$$$
2QCI_065_B_404


 42 46  0  0  0  0  0  0  0  0999 V2000
   18.7025   23.0015   17.1432 C   0  0  0  0  0  0  0  0  0  0  0  0
   18.7985   22.0787   16.0331 O   0  0  0  0  0  0  0  0  0  0  0  0
   18.3725   22.4663   15.2526 H   0  0  0  0  0  0  0  0  0  0  0  0
   17.2186   23.2423   17.4380 C   0  0  0  0  0  0  0  0  0  0  0  0
   16.7859   22.5527   18.6298 N   0  0  0  0  0  0  0  0  0  0  0  0
   15.2974   21.8359   18.5877 S   0  0  0  0  0  0  0  0  0  0  0  0
   14.4158   22.5805   19.4959 O   0  0  0  0  0  0  0  0  0  0  0  0
   15.5170   20.3677   18.7949 O   0  0  0  0  0  0  0  0  0  0  0  0
   13.7894   22.4306   14.3745 C   0  0  0  0  0  0  0  0  0  0  0  0
   13.5162   22.4267   13.0358 O   0  0  0  0  0  0  0  0  0  0  0  0
   13.9978   21.1913   12.5944 C   0  0  0  0  0  0  0  0  0  0  0  0
   14.4249   20.4235   13.6505 O   0  0  0  0  0  0  0  0  0  0  0  0
   14.4103   21.2382   14.7311 C   0  0  0  0  0  0  0  0  0  0  0  0
   14.8387   21.0110   16.0355 C   0  0  0  0  0  0  0  0  0  0  0  0
   14.6725   22.0245   16.9499 C   0  0  0  0  0  0  0  0  0  0  0  0
   14.0945   23.2257   16.5864 C   0  0  0  0  0  0  0  0  0  0  0  0
   13.6186   23.4454   15.3041 C   0  0  0  0  0  0  0  0  0  0  0  0
   17.8138   21.8518   19.3782 C   0  0  0  0  0  0  0  0  0  0  0  0
   17.9991   22.3887   20.8083 C   0  0  0  0  0  0  0  0  0  0  0  0
   19.2061   21.7114   21.4650 C   0  0  0  0  0  0  0  0  0  0  0  0
   18.1999   23.9007   20.7285 C   0  0  0  0  0  0  0  0  0  0  0  0
   19.4386   24.3029   16.7936 C   0  0  0  0  0  0  0  0  0  0  0  0
   20.5484   24.4003   17.7624 N   0  0  0  0  0  0  0  0  0  0  0  0
   20.9151   25.5273   18.3566 C   0  0  0  0  0  0  0  0  0  0  0  0
   20.3662   26.6246   18.1640 O   0  0  0  0  0  0  0  0  0  0  0  0
   21.0460   23.5792   17.9803 H   0  0  0  0  0  0  0  0  0  0  0  0
   21.9469   25.3752   19.2045 O   0  0  0  0  0  0  0  0  0  0  0  0
   21.9911   24.1550   19.9435 C   0  0  0  0  0  0  0  0  0  0  0  0
   23.4321   23.6541   19.8240 C   0  0  0  0  0  0  0  0  0  0  0  0
   24.2255   24.4920   20.6902 O   0  0  0  0  0  0  0  0  0  0  0  0
   23.3906   24.7631   21.8418 C   0  0  0  0  0  0  0  0  0  0  0  0
   23.5185   26.1594   22.1161 O   0  0  0  0  0  0  0  0  0  0  0  0
   22.3024   26.8112   21.7673 C   0  0  0  0  0  0  0  0  0  0  0  0
   21.2060   25.7398   21.8399 C   0  0  0  0  0  0  0  0  0  0  0  0
   21.9669   24.4714   21.4527 C   0  0  0  0  0  0  0  0  0  0  0  0
   20.0393   24.3039   15.3929 C   0  0  0  0  0  0  0  0  0  0  0  0
   19.5077   26.7146   14.7108 C   0  0  0  0  0  0  0  0  0  0  0  0
   19.8715   27.9955   14.3461 C   0  0  0  0  0  0  0  0  0  0  0  0
   21.2146   28.3160   14.2181 C   0  0  0  0  0  0  0  0  0  0  0  0
   22.1498   27.3406   14.5241 C   0  0  0  0  0  0  0  0  0  0  0  0
   21.7892   26.0475   14.9041 C   0  0  0  0  0  0  0  0  0  0  0  0
   20.4506   25.7152   15.0001 C   0  0  0  0  0  0  0  0  0  0  0  0
  9 17  1  0  0  0
  9 10  1  0  0  0
  9 13  2  0  0  0
 10 11  1  0  0  0
 11 12  1  0  0  0
 12 13  1  0  0  0
 13 14  1  0  0  0
 14 15  2  0  0  0
 15  6  1  0  0  0
 15 16  1  0  0  0
 16 17  2  0  0  0
  6  5  1  0  0  0
  6  7  2  0  0  0
  6  8  2  0  0  0
  5 18  1  0  0  0
  5  4  1  0  0  0
 18 19  1  0  0  0
 19 20  1  0  0  0
 19 21  1  0  0  0
  4  1  1  0  0  0
  1  2  1  0  0  0
  1 22  1  0  0  0
 22 36  1  0  0  0
 22 23  1  0  0  0
 23 24  1  0  0  0
 24 25  2  0  0  0
 24 27  1  0  0  0
 27 28  1  0  0  0
 28 29  1  0  0  0
 28 35  1  0  0  0
 29 30  1  0  0  0
 30 31  1  0  0  0
 31 32  1  0  0  0
 31 35  1  0  0  0
 32 33  1  0  0  0
 33 34  1  0  0  0
 34 35  1  0  0  0
 36 42  1  0  0  0
 37 42  1  0  0  0
 37 38  2  0  0  0
 38 39  1  0  0  0
 39 40  2  0  0  0
 40 41  1  0  0  0
 41 42  2  0  0  0
  2  3  1  0  0  0
 23 26  1  0  0  0
M  END
> <minimizedAffinity>
-9.19123

$$$$
2QCI_065_B_404


 42 46  0  0  0  0  0  0  0  0999 V2000
   17.5606   25.3913   17.6081 C   0  0  0  0  0  0  0  0  0  0  0  0
   18.8509   25.9655   17.9220 O   0  0  0  0  0  0  0  0  0  0  0  0
   19.5269   25.2701   17.9054 H   0  0  0  0  0  0  0  0  0  0  0  0
   17.2350   24.3371   18.6709 C   0  0  0  0  0  0  0  0  0  0  0  0
   18.4155   23.6357   19.1153 N   0  0  0  0  0  0  0  0  0  0  0  0
   18.8932   23.8790   20.6787 S   0  0  0  0  0  0  0  0  0  0  0  0
   19.2354   22.5707   21.2512 O   0  0  0  0  0  0  0  0  0  0  0  0
   17.8410   24.7273   21.3267 O   0  0  0  0  0  0  0  0  0  0  0  0
   22.6704   26.3512   20.7005 C   0  0  0  0  0  0  0  0  0  0  0  0
   23.9345   26.8674   20.6528 O   0  0  0  0  0  0  0  0  0  0  0  0
   24.6520   25.9390   19.8936 C   0  0  0  0  0  0  0  0  0  0  0  0
   23.8214   24.9675   19.3902 O   0  0  0  0  0  0  0  0  0  0  0  0
   22.6238   25.1553   19.9919 C   0  0  0  0  0  0  0  0  0  0  0  0
   21.4563   24.4005   19.9284 C   0  0  0  0  0  0  0  0  0  0  0  0
   20.3634   24.8510   20.6307 C   0  0  0  0  0  0  0  0  0  0  0  0
   20.4214   26.0169   21.3701 C   0  0  0  0  0  0  0  0  0  0  0  0
   21.5616   26.8029   21.4005 C   0  0  0  0  0  0  0  0  0  0  0  0
   18.6067   22.2966   18.5879 C   0  0  0  0  0  0  0  0  0  0  0  0
   17.2873   21.5819   18.2473 C   0  0  0  0  0  0  0  0  0  0  0  0
   17.5694   20.3665   17.3584 C   0  0  0  0  0  0  0  0  0  0  0  0
   16.6226   21.1574   19.5553 C   0  0  0  0  0  0  0  0  0  0  0  0
   17.5957   24.7923   16.1947 C   0  0  0  0  0  0  0  0  0  0  0  0
   16.3179   24.0687   16.0416 N   0  0  0  0  0  0  0  0  0  0  0  0
   16.1708   22.9743   15.3079 C   0  0  0  0  0  0  0  0  0  0  0  0
   17.0905   22.4375   14.6690 O   0  0  0  0  0  0  0  0  0  0  0  0
   15.5279   24.4199   16.5124 H   0  0  0  0  0  0  0  0  0  0  0  0
   14.9191   22.4847   15.3206 O   0  0  0  0  0  0  0  0  0  0  0  0
   14.7848   21.0718   15.1698 C   0  0  0  0  0  0  0  0  0  0  0  0
   13.9879   20.6022   16.3888 C   0  0  0  0  0  0  0  0  0  0  0  0
   12.6209   21.0025   16.1578 O   0  0  0  0  0  0  0  0  0  0  0  0
   12.4000   20.8330   14.7369 C   0  0  0  0  0  0  0  0  0  0  0  0
   11.7143   22.0042   14.2904 O   0  0  0  0  0  0  0  0  0  0  0  0
   12.6041   22.7873   13.5025 C   0  0  0  0  0  0  0  0  0  0  0  0
   13.6593   21.8165   12.9555 C   0  0  0  0  0  0  0  0  0  0  0  0
   13.7468   20.7725   14.0692 C   0  0  0  0  0  0  0  0  0  0  0  0
   17.6741   25.8414   15.0919 C   0  0  0  0  0  0  0  0  0  0  0  0
   20.1865   25.3649   14.9503 C   0  0  0  0  0  0  0  0  0  0  0  0
   21.5000   25.7488   14.7681 C   0  0  0  0  0  0  0  0  0  0  0  0
   21.7989   27.0844   14.5450 C   0  0  0  0  0  0  0  0  0  0  0  0
   20.7470   27.9814   14.4531 C   0  0  0  0  0  0  0  0  0  0  0  0
   19.4165   27.5985   14.6251 C   0  0  0  0  0  0  0  0  0  0  0  0
   19.1178   26.2730   14.8810 C   0  0  0  0  0  0  0  0  0  0  0  0
  9 17  1  0  0  0
  9 10  1  0  0  0
  9 13  2  0  0  0
 10 11  1  0  0  0
 11 12  1  0  0  0
 12 13  1  0  0  0
 13 14  1  0  0  0
 14 15  2  0  0  0
 15  6  1  0  0  0
 15 16  1  0  0  0
 16 17  2  0  0  0
  6  5  1  0  0  0
  6  7  2  0  0  0
  6  8  2  0  0  0
  5 18  1  0  0  0
  5  4  1  0  0  0
 18 19  1  0  0  0
 19 20  1  0  0  0
 19 21  1  0  0  0
  4  1  1  0  0  0
  1  2  1  0  0  0
  1 22  1  0  0  0
 22 36  1  0  0  0
 22 23  1  0  0  0
 23 24  1  0  0  0
 24 25  2  0  0  0
 24 27  1  0  0  0
 27 28  1  0  0  0
 28 29  1  0  0  0
 28 35  1  0  0  0
 29 30  1  0  0  0
 30 31  1  0  0  0
 31 32  1  0  0  0
 31 35  1  0  0  0
 32 33  1  0  0  0
 33 34  1  0  0  0
 34 35  1  0  0  0
 36 42  1  0  0  0
 37 42  1  0  0  0
 37 38  2  0  0  0
 38 39  1  0  0  0
 39 40  2  0  0  0
 40 41  1  0  0  0
 41 42  2  0  0  0
  2  3  1  0  0  0
 23 26  1  0  0  0
M  END
> <minimizedAffinity>
-9.18909

$$$$
