2V3U_DSN_A_1262


 11 10  0  0  0  0  0  0  0  0999 V2000
   32.2858   33.8150   27.9257 N   0  0  0  0  0  0  0  0  0  0  0  0
   31.7669   32.5161   28.4315 C   0  0  0  0  0  0  0  0  0  0  0  0
   32.1786   33.8523   26.9120 H   0  0  0  0  0  0  0  0  0  0  0  0
   33.2729   33.9039   28.1667 H   0  0  0  0  0  0  0  0  0  0  0  0
   32.4795   31.3361   27.8182 C   0  0  0  0  0  0  0  0  0  0  0  0
   32.2354   30.1929   28.2428 O   0  0  0  0  0  0  0  0  0  0  0  0
   33.2779   31.5056   26.8491 O   0  0  0  0  0  0  0  0  0  0  0  0
   33.4566   32.3702   26.5350 H   0  0  0  0  0  0  0  0  0  0  0  0
   31.9072   32.4095   29.9705 C   0  0  0  0  0  0  0  0  0  0  0  0
   31.0443   31.3984   30.5211 O   0  0  0  0  0  0  0  0  0  0  0  0
   30.1201   31.6239   30.3316 H   0  0  0  0  0  0  0  0  0  0  0  0
  1  2  1  0  0  0
  2  5  1  0  0  0
  2  9  1  0  0  0
  5  6  2  0  0  0
  5  7  1  0  0  0
  9 10  1  0  0  0
  1  3  1  0  0  0
  1  4  1  0  0  0
  7  8  1  0  0  0
 10 11  1  0  0  0
M  END
> <minimizedAffinity>
-5.81348

$$$$
2V3U_DSN_A_1262


 11 10  0  0  0  0  0  0  0  0999 V2000
   32.2644   32.8258   29.7407 N   0  0  0  0  0  0  0  0  0  0  0  0
   32.1407   32.7134   28.2628 C   0  0  0  0  0  0  0  0  0  0  0  0
   33.2402   32.7017   30.0107 H   0  0  0  0  0  0  0  0  0  0  0  0
   31.6944   32.1062   30.1853 H   0  0  0  0  0  0  0  0  0  0  0  0
   32.6279   31.3821   27.7463 C   0  0  0  0  0  0  0  0  0  0  0  0
   32.2766   30.3407   28.3283 O   0  0  0  0  0  0  0  0  0  0  0  0
   33.3443   31.3257   26.7028 O   0  0  0  0  0  0  0  0  0  0  0  0
   33.6048   32.1149   26.2701 H   0  0  0  0  0  0  0  0  0  0  0  0
   30.6735   32.8951   27.8006 C   0  0  0  0  0  0  0  0  0  0  0  0
   30.5351   33.9749   26.8598 O   0  0  0  0  0  0  0  0  0  0  0  0
   30.8095   34.8057   27.2786 H   0  0  0  0  0  0  0  0  0  0  0  0
  1  2  1  0  0  0
  2  5  1  0  0  0
  2  9  1  0  0  0
  5  6  2  0  0  0
  5  7  1  0  0  0
  9 10  1  0  0  0
  1  3  1  0  0  0
  1  4  1  0  0  0
  7  8  1  0  0  0
 10 11  1  0  0  0
M  END
> <minimizedAffinity>
-5.03230

$$$$
2V3U_DSN_A_1262


 11 10  0  0  0  0  0  0  0  0999 V2000
   32.7308   30.9242   27.7856 N   0  0  0  0  0  0  0  0  0  0  0  0
   31.5243   31.5812   28.3555 C   0  0  0  0  0  0  0  0  0  0  0  0
   32.9447   30.0829   28.3211 H   0  0  0  0  0  0  0  0  0  0  0  0
   33.5216   31.5668   27.8317 H   0  0  0  0  0  0  0  0  0  0  0  0
   31.7061   31.9549   29.8060 C   0  0  0  0  0  0  0  0  0  0  0  0
   31.0017   31.4001   30.6678 O   0  0  0  0  0  0  0  0  0  0  0  0
   32.6006   32.7862   30.1437 O   0  0  0  0  0  0  0  0  0  0  0  0
   33.1271   33.2000   29.4884 H   0  0  0  0  0  0  0  0  0  0  0  0
   31.1566   32.8679   27.5752 C   0  0  0  0  0  0  0  0  0  0  0  0
   32.1594   33.8896   27.7183 O   0  0  0  0  0  0  0  0  0  0  0  0
   32.2408   34.1340   28.6534 H   0  0  0  0  0  0  0  0  0  0  0  0
  1  2  1  0  0  0
  2  5  1  0  0  0
  2  9  1  0  0  0
  5  6  2  0  0  0
  5  7  1  0  0  0
  9 10  1  0  0  0
  1  3  1  0  0  0
  1  4  1  0  0  0
  7  8  1  0  0  0
 10 11  1  0  0  0
M  END
> <minimizedAffinity>
-5.03147

$$$$
2V3U_DSN_A_1262


 11 10  0  0  0  0  0  0  0  0999 V2000
   31.3987   31.6904   30.0496 N   0  0  0  0  0  0  0  0  0  0  0  0
   31.3413   31.6703   28.5635 C   0  0  0  0  0  0  0  0  0  0  0  0
   30.6249   32.2472   30.4122 H   0  0  0  0  0  0  0  0  0  0  0  0
   32.2829   32.1006   30.3502 H   0  0  0  0  0  0  0  0  0  0  0  0
   31.4109   33.0550   27.9683 C   0  0  0  0  0  0  0  0  0  0  0  0
   30.4583   33.4696   27.2847 O   0  0  0  0  0  0  0  0  0  0  0  0
   32.4059   33.8026   28.2057 O   0  0  0  0  0  0  0  0  0  0  0  0
   33.1197   33.4828   28.7216 H   0  0  0  0  0  0  0  0  0  0  0  0
   32.4989   30.8350   27.9619 C   0  0  0  0  0  0  0  0  0  0  0  0
   33.1675   31.5314   26.8951 O   0  0  0  0  0  0  0  0  0  0  0  0
   32.5375   31.7071   26.1789 H   0  0  0  0  0  0  0  0  0  0  0  0
  1  2  1  0  0  0
  2  5  1  0  0  0
  2  9  1  0  0  0
  5  6  2  0  0  0
  5  7  1  0  0  0
  9 10  1  0  0  0
  1  3  1  0  0  0
  1  4  1  0  0  0
  7  8  1  0  0  0
 10 11  1  0  0  0
M  END
> <minimizedAffinity>
-4.96369

$$$$
2V3U_DSN_A_1262


 11 10  0  0  0  0  0  0  0  0999 V2000
   31.0225   33.2982   27.5179 N   0  0  0  0  0  0  0  0  0  0  0  0
   32.0500   32.6331   28.3630 C   0  0  0  0  0  0  0  0  0  0  0  0
   30.7826   34.2029   27.9233 H   0  0  0  0  0  0  0  0  0  0  0  0
   30.1880   32.7133   27.4738 H   0  0  0  0  0  0  0  0  0  0  0  0
   31.5795   32.4267   29.7816 C   0  0  0  0  0  0  0  0  0  0  0  0
   31.5476   33.3984   30.5572 O   0  0  0  0  0  0  0  0  0  0  0  0
   31.1746   31.2875   30.1606 O   0  0  0  0  0  0  0  0  0  0  0  0
   31.2019   30.5604   29.5702 H   0  0  0  0  0  0  0  0  0  0  0  0
   32.4497   31.2512   27.7884 C   0  0  0  0  0  0  0  0  0  0  0  0
   33.2896   31.3736   26.6267 O   0  0  0  0  0  0  0  0  0  0  0  0
   32.8098   31.8470   25.9292 H   0  0  0  0  0  0  0  0  0  0  0  0
  1  2  1  0  0  0
  2  5  1  0  0  0
  2  9  1  0  0  0
  5  6  2  0  0  0
  5  7  1  0  0  0
  9 10  1  0  0  0
  1  3  1  0  0  0
  1  4  1  0  0  0
  7  8  1  0  0  0
 10 11  1  0  0  0
M  END
> <minimizedAffinity>
-4.95150

$$$$
2V3U_DSN_A_1262


 11 10  0  0  0  0  0  0  0  0999 V2000
   32.9800   31.5393   26.8449 N   0  0  0  0  0  0  0  0  0  0  0  0
   32.6231   31.6517   28.2843 C   0  0  0  0  0  0  0  0  0  0  0  0
   33.8323   32.0695   26.6635 H   0  0  0  0  0  0  0  0  0  0  0  0
   32.2200   31.9125   26.2760 H   0  0  0  0  0  0  0  0  0  0  0  0
   32.4121   33.0829   28.7127 C   0  0  0  0  0  0  0  0  0  0  0  0
   32.3090   33.3442   29.9243 O   0  0  0  0  0  0  0  0  0  0  0  0
   32.3916   34.0110   27.8504 O   0  0  0  0  0  0  0  0  0  0  0  0
   32.4699   33.8059   26.9395 H   0  0  0  0  0  0  0  0  0  0  0  0
   31.3316   30.8616   28.6123 C   0  0  0  0  0  0  0  0  0  0  0  0
   30.9026   31.0705   29.9696 O   0  0  0  0  0  0  0  0  0  0  0  0
   31.5916   30.7603   30.5779 H   0  0  0  0  0  0  0  0  0  0  0  0
  1  2  1  0  0  0
  2  5  1  0  0  0
  2  9  1  0  0  0
  5  6  2  0  0  0
  5  7  1  0  0  0
  9 10  1  0  0  0
  1  3  1  0  0  0
  1  4  1  0  0  0
  7  8  1  0  0  0
 10 11  1  0  0  0
M  END
> <minimizedAffinity>
-4.07644

$$$$
2V3U_DSN_A_1262


 11 10  0  0  0  0  0  0  0  0999 V2000
   33.2476   31.2963   27.8749 N   0  0  0  0  0  0  0  0  0  0  0  0
   32.5099   32.4984   28.3470 C   0  0  0  0  0  0  0  0  0  0  0  0
   33.3011   31.3086   26.8563 H   0  0  0  0  0  0  0  0  0  0  0  0
   32.7575   30.4552   28.1795 H   0  0  0  0  0  0  0  0  0  0  0  0
   31.1127   32.5722   27.7823 C   0  0  0  0  0  0  0  0  0  0  0  0
   30.3555   31.5936   27.9082 O   0  0  0  0  0  0  0  0  0  0  0  0
   30.7019   33.6371   27.2323 O   0  0  0  0  0  0  0  0  0  0  0  0
   31.2786   34.3700   27.1413 H   0  0  0  0  0  0  0  0  0  0  0  0
   32.4009   32.5270   29.8920 C   0  0  0  0  0  0  0  0  0  0  0  0
   31.3766   31.6400   30.3760 O   0  0  0  0  0  0  0  0  0  0  0  0
   30.5166   31.9154   30.0220 H   0  0  0  0  0  0  0  0  0  0  0  0
  1  2  1  0  0  0
  2  5  1  0  0  0
  2  9  1  0  0  0
  5  6  2  0  0  0
  5  7  1  0  0  0
  9 10  1  0  0  0
  1  3  1  0  0  0
  1  4  1  0  0  0
  7  8  1  0  0  0
 10 11  1  0  0  0
M  END
> <minimizedAffinity>
-3.66008

$$$$
