2HB1_512_A_800


 16 16  0  0  0  0  0  0  0  0999 V2000
   45.1027   13.4076    0.9973 C   0  0  0  0  0  0  0  0  0  0  0  0
   45.7786   13.4800    2.2356 C   0  0  0  0  0  0  0  0  0  0  0  0
   44.3701   14.9079    0.6866 S   0  0  0  0  0  0  0  0  0  0  0  0
   44.8962   15.6620    2.1222 C   0  0  0  0  0  0  0  0  0  0  0  0
   45.6722   14.7434    2.8819 C   0  0  0  0  0  0  0  0  0  0  0  0
   46.7314   12.0216    2.9440 Br  0  0  0  0  0  0  0  0  0  0  0  0
   44.5654   16.9875    2.4230 C   0  0  0  0  0  0  0  0  0  0  0  0
   43.7304   17.5719    1.5426 O   0  0  0  0  0  0  0  0  0  0  0  0
   44.9859   17.5747    3.3917 O   0  0  0  0  0  0  0  0  0  0  0  0
   45.5658   17.1417    3.9869 H   0  0  0  0  0  0  0  0  0  0  0  0
   46.3110   14.9778    4.1587 O   0  0  0  0  0  0  0  0  0  0  0  0
   47.6384   15.5359    4.0532 C   0  0  0  0  0  0  0  0  0  0  0  0
   47.8002   16.7575    4.9606 C   0  0  0  0  0  0  0  0  0  0  0  0
   46.6838   17.1211    5.6104 O   0  0  0  0  0  0  0  0  0  0  0  0
   48.8259   17.3506    5.0818 O   0  0  0  0  0  0  0  0  0  0  0  0
   49.5875   17.0702    4.6134 H   0  0  0  0  0  0  0  0  0  0  0  0
  1  2  2  0  0  0
  1  3  1  0  0  0
  2  5  1  0  0  0
  2  6  1  0  0  0
  3  4  1  0  0  0
  4  5  2  0  0  0
  4  7  1  0  0  0
  5 11  1  0  0  0
  7  8  2  0  0  0
  7  9  1  0  0  0
 11 12  1  0  0  0
 12 13  1  0  0  0
 13 14  2  0  0  0
 13 15  1  0  0  0
  9 10  1  0  0  0
 15 16  1  0  0  0
M  END
> <minimizedAffinity>
-6.49890

$$$$
2HB1_512_A_800


 16 16  0  0  0  0  0  0  0  0999 V2000
   46.7212   13.3516    3.1027 C   0  0  0  0  0  0  0  0  0  0  0  0
   45.5816   13.7209    2.3541 C   0  0  0  0  0  0  0  0  0  0  0  0
   46.9933   14.5264    4.2984 S   0  0  0  0  0  0  0  0  0  0  0  0
   45.6736   15.5188    3.8745 C   0  0  0  0  0  0  0  0  0  0  0  0
   44.9797   14.9393    2.7764 C   0  0  0  0  0  0  0  0  0  0  0  0
   44.9350   12.6750    0.9313 Br  0  0  0  0  0  0  0  0  0  0  0  0
   45.3933   16.7057    4.5597 C   0  0  0  0  0  0  0  0  0  0  0  0
   46.4349   17.5530    4.6652 O   0  0  0  0  0  0  0  0  0  0  0  0
   44.3087   16.9652    5.0247 O   0  0  0  0  0  0  0  0  0  0  0  0
   43.6027   16.3557    4.9354 H   0  0  0  0  0  0  0  0  0  0  0  0
   43.8022   15.4530    2.1107 O   0  0  0  0  0  0  0  0  0  0  0  0
   44.0286   16.6852    1.3932 C   0  0  0  0  0  0  0  0  0  0  0  0
   44.0627   16.4487   -0.1184 C   0  0  0  0  0  0  0  0  0  0  0  0
   44.7929   17.3404   -0.8058 O   0  0  0  0  0  0  0  0  0  0  0  0
   43.4855   15.5548   -0.6535 O   0  0  0  0  0  0  0  0  0  0  0  0
   42.9841   14.9492   -0.1437 H   0  0  0  0  0  0  0  0  0  0  0  0
  1  2  2  0  0  0
  1  3  1  0  0  0
  2  5  1  0  0  0
  2  6  1  0  0  0
  3  4  1  0  0  0
  4  5  2  0  0  0
  4  7  1  0  0  0
  5 11  1  0  0  0
  7  8  2  0  0  0
  7  9  1  0  0  0
 11 12  1  0  0  0
 12 13  1  0  0  0
 13 14  2  0  0  0
 13 15  1  0  0  0
  9 10  1  0  0  0
 15 16  1  0  0  0
M  END
> <minimizedAffinity>
-6.03378

$$$$
2HB1_512_A_800


 16 16  0  0  0  0  0  0  0  0999 V2000
   45.2512   12.6976   -0.1897 C   0  0  0  0  0  0  0  0  0  0  0  0
   45.3225   13.0153    1.1848 C   0  0  0  0  0  0  0  0  0  0  0  0
   44.6297   14.0373   -1.0283 S   0  0  0  0  0  0  0  0  0  0  0  0
   44.4380   15.0309    0.3437 C   0  0  0  0  0  0  0  0  0  0  0  0
   44.8683   14.3262    1.5018 C   0  0  0  0  0  0  0  0  0  0  0  0
   45.9683   11.7964    2.4629 Br  0  0  0  0  0  0  0  0  0  0  0  0
   43.9265   16.3294    0.2483 C   0  0  0  0  0  0  0  0  0  0  0  0
   44.1614   16.9408   -0.9286 O   0  0  0  0  0  0  0  0  0  0  0  0
   43.3194   16.8726    1.1407 O   0  0  0  0  0  0  0  0  0  0  0  0
   43.1714   16.4218    1.9486 H   0  0  0  0  0  0  0  0  0  0  0  0
   44.8793   14.8033    2.8677 O   0  0  0  0  0  0  0  0  0  0  0  0
   46.0364   15.6014    3.1976 C   0  0  0  0  0  0  0  0  0  0  0  0
   45.6619   16.7702    4.1116 C   0  0  0  0  0  0  0  0  0  0  0  0
   44.5061   16.6110    4.7748 O   0  0  0  0  0  0  0  0  0  0  0  0
   46.3292   17.7499    4.2268 O   0  0  0  0  0  0  0  0  0  0  0  0
   47.1313   17.8293    3.7491 H   0  0  0  0  0  0  0  0  0  0  0  0
  1  2  2  0  0  0
  1  3  1  0  0  0
  2  5  1  0  0  0
  2  6  1  0  0  0
  3  4  1  0  0  0
  4  5  2  0  0  0
  4  7  1  0  0  0
  5 11  1  0  0  0
  7  8  2  0  0  0
  7  9  1  0  0  0
 11 12  1  0  0  0
 12 13  1  0  0  0
 13 14  2  0  0  0
 13 15  1  0  0  0
  9 10  1  0  0  0
 15 16  1  0  0  0
M  END
> <minimizedAffinity>
-5.67446

$$$$
2HB1_512_A_800


 16 16  0  0  0  0  0  0  0  0999 V2000
   44.4338   14.3504    0.5208 C   0  0  0  0  0  0  0  0  0  0  0  0
   44.6720   15.3424    1.4979 C   0  0  0  0  0  0  0  0  0  0  0  0
   45.2031   12.9147    1.0016 S   0  0  0  0  0  0  0  0  0  0  0  0
   45.8519   13.5384    2.4494 C   0  0  0  0  0  0  0  0  0  0  0  0
   45.4691   14.9009    2.5910 C   0  0  0  0  0  0  0  0  0  0  0  0
   43.9818   17.0851    1.3455 Br  0  0  0  0  0  0  0  0  0  0  0  0
   46.6315   12.7542    3.3063 C   0  0  0  0  0  0  0  0  0  0  0  0
   46.8924   11.5138    2.8510 O   0  0  0  0  0  0  0  0  0  0  0  0
   47.0461   13.1442    4.3721 O   0  0  0  0  0  0  0  0  0  0  0  0
   46.8481   14.0128    4.6624 H   0  0  0  0  0  0  0  0  0  0  0  0
   45.8011   15.7993    3.6754 O   0  0  0  0  0  0  0  0  0  0  0  0
   47.0924   16.4298    3.5361 C   0  0  0  0  0  0  0  0  0  0  0  0
   47.5659   17.0238    4.8645 C   0  0  0  0  0  0  0  0  0  0  0  0
   46.5992   17.1772    5.7827 O   0  0  0  0  0  0  0  0  0  0  0  0
   48.6957   17.3362    5.0753 O   0  0  0  0  0  0  0  0  0  0  0  0
   49.3466   17.2157    4.4122 H   0  0  0  0  0  0  0  0  0  0  0  0
  1  2  2  0  0  0
  1  3  1  0  0  0
  2  5  1  0  0  0
  2  6  1  0  0  0
  3  4  1  0  0  0
  4  5  2  0  0  0
  4  7  1  0  0  0
  5 11  1  0  0  0
  7  8  2  0  0  0
  7  9  1  0  0  0
 11 12  1  0  0  0
 12 13  1  0  0  0
 13 14  2  0  0  0
 13 15  1  0  0  0
  9 10  1  0  0  0
 15 16  1  0  0  0
M  END
> <minimizedAffinity>
-5.54648

$$$$
2HB1_512_A_800


 16 16  0  0  0  0  0  0  0  0999 V2000
   46.8911   15.3705    3.7331 C   0  0  0  0  0  0  0  0  0  0  0  0
   46.2366   14.3234    3.0469 C   0  0  0  0  0  0  0  0  0  0  0  0
   46.1188   16.8357    3.3579 S   0  0  0  0  0  0  0  0  0  0  0  0
   44.9517   16.1584    2.3162 C   0  0  0  0  0  0  0  0  0  0  0  0
   45.1417   14.7507    2.2445 C   0  0  0  0  0  0  0  0  0  0  0  0
   46.7818   12.5302    3.2003 Br  0  0  0  0  0  0  0  0  0  0  0  0
   43.9915   16.9464    1.6726 C   0  0  0  0  0  0  0  0  0  0  0  0
   43.8107   18.1661    2.2145 O   0  0  0  0  0  0  0  0  0  0  0  0
   43.3667   16.5772    0.7066 O   0  0  0  0  0  0  0  0  0  0  0  0
   43.5143   15.7227    0.3517 H   0  0  0  0  0  0  0  0  0  0  0  0
   44.3677   13.7968    1.4800 O   0  0  0  0  0  0  0  0  0  0  0  0
   44.8533   13.5958    0.1352 C   0  0  0  0  0  0  0  0  0  0  0  0
   44.8996   12.1084   -0.2212 C   0  0  0  0  0  0  0  0  0  0  0  0
   44.6061   11.2822    0.7948 O   0  0  0  0  0  0  0  0  0  0  0  0
   45.1801   11.7044   -1.3060 O   0  0  0  0  0  0  0  0  0  0  0  0
   45.3800   12.3086   -1.9937 H   0  0  0  0  0  0  0  0  0  0  0  0
  1  2  2  0  0  0
  1  3  1  0  0  0
  2  5  1  0  0  0
  2  6  1  0  0  0
  3  4  1  0  0  0
  4  5  2  0  0  0
  4  7  1  0  0  0
  5 11  1  0  0  0
  7  8  2  0  0  0
  7  9  1  0  0  0
 11 12  1  0  0  0
 12 13  1  0  0  0
 13 14  2  0  0  0
 13 15  1  0  0  0
  9 10  1  0  0  0
 15 16  1  0  0  0
M  END
> <minimizedAffinity>
-5.18404

$$$$
2HB1_512_A_800


 16 16  0  0  0  0  0  0  0  0999 V2000
   44.3115   14.8992   -0.3892 C   0  0  0  0  0  0  0  0  0  0  0  0
   44.7566   13.8695    0.4694 C   0  0  0  0  0  0  0  0  0  0  0  0
   44.1020   16.3171    0.5216 S   0  0  0  0  0  0  0  0  0  0  0  0
   44.5663   15.6381    2.0148 C   0  0  0  0  0  0  0  0  0  0  0  0
   44.9054   14.2696    1.8270 C   0  0  0  0  0  0  0  0  0  0  0  0
   45.1173   12.1319   -0.1527 Br  0  0  0  0  0  0  0  0  0  0  0  0
   44.5806   16.3900    3.1944 C   0  0  0  0  0  0  0  0  0  0  0  0
   44.8456   17.6993    3.0229 O   0  0  0  0  0  0  0  0  0  0  0  0
   44.3728   15.9177    4.2869 O   0  0  0  0  0  0  0  0  0  0  0  0
   44.1910   15.0027    4.3750 H   0  0  0  0  0  0  0  0  0  0  0  0
   45.3550   13.3295    2.8307 O   0  0  0  0  0  0  0  0  0  0  0  0
   46.7796   13.3613    3.0632 C   0  0  0  0  0  0  0  0  0  0  0  0
   47.1470   14.4127    4.1127 C   0  0  0  0  0  0  0  0  0  0  0  0
   46.5504   14.2445    5.3030 O   0  0  0  0  0  0  0  0  0  0  0  0
   47.8935   15.3160    3.8998 O   0  0  0  0  0  0  0  0  0  0  0  0
   48.2935   15.4046    3.0571 H   0  0  0  0  0  0  0  0  0  0  0  0
  1  2  2  0  0  0
  1  3  1  0  0  0
  2  5  1  0  0  0
  2  6  1  0  0  0
  3  4  1  0  0  0
  4  5  2  0  0  0
  4  7  1  0  0  0
  5 11  1  0  0  0
  7  8  2  0  0  0
  7  9  1  0  0  0
 11 12  1  0  0  0
 12 13  1  0  0  0
 13 14  2  0  0  0
 13 15  1  0  0  0
  9 10  1  0  0  0
 15 16  1  0  0  0
M  END
> <minimizedAffinity>
-4.90869

$$$$
2HB1_512_A_800


 16 16  0  0  0  0  0  0  0  0999 V2000
   46.8484   15.0631    3.7728 C   0  0  0  0  0  0  0  0  0  0  0  0
   46.1721   14.1308    2.9550 C   0  0  0  0  0  0  0  0  0  0  0  0
   46.1349   16.5902    3.5650 S   0  0  0  0  0  0  0  0  0  0  0  0
   44.9663   16.0861    2.4307 C   0  0  0  0  0  0  0  0  0  0  0  0
   45.1090   14.6911    2.1927 C   0  0  0  0  0  0  0  0  0  0  0  0
   46.6518   12.3133    2.8995 Br  0  0  0  0  0  0  0  0  0  0  0  0
   44.0471   16.9804    1.8719 C   0  0  0  0  0  0  0  0  0  0  0  0
   44.0487   18.2076    2.4266 O   0  0  0  0  0  0  0  0  0  0  0  0
   43.3050   16.6906    0.9634 O   0  0  0  0  0  0  0  0  0  0  0  0
   43.3268   15.8282    0.5976 H   0  0  0  0  0  0  0  0  0  0  0  0
   44.3182   13.8650    1.3065 O   0  0  0  0  0  0  0  0  0  0  0  0
   45.0443   13.3827    0.1557 C   0  0  0  0  0  0  0  0  0  0  0  0
   44.7039   14.1953   -1.0956 C   0  0  0  0  0  0  0  0  0  0  0  0
   43.5505   14.8771   -1.0208 O   0  0  0  0  0  0  0  0  0  0  0  0
   45.3942   14.2218   -2.0658 O   0  0  0  0  0  0  0  0  0  0  0  0
   46.1939   13.7339   -2.0853 H   0  0  0  0  0  0  0  0  0  0  0  0
  1  2  2  0  0  0
  1  3  1  0  0  0
  2  5  1  0  0  0
  2  6  1  0  0  0
  3  4  1  0  0  0
  4  5  2  0  0  0
  4  7  1  0  0  0
  5 11  1  0  0  0
  7  8  2  0  0  0
  7  9  1  0  0  0
 11 12  1  0  0  0
 12 13  1  0  0  0
 13 14  2  0  0  0
 13 15  1  0  0  0
  9 10  1  0  0  0
 15 16  1  0  0  0
M  END
> <minimizedAffinity>
-4.89468

$$$$
2HB1_512_A_800


 16 16  0  0  0  0  0  0  0  0999 V2000
   44.4904   14.5156   -0.8228 C   0  0  0  0  0  0  0  0  0  0  0  0
   44.4922   15.0641    0.4789 C   0  0  0  0  0  0  0  0  0  0  0  0
   44.9073   12.8723   -0.7234 S   0  0  0  0  0  0  0  0  0  0  0  0
   45.1014   12.8415    0.9699 C   0  0  0  0  0  0  0  0  0  0  0  0
   44.8341   14.1339    1.5002 C   0  0  0  0  0  0  0  0  0  0  0  0
   44.0723   16.8676    0.8069 Br  0  0  0  0  0  0  0  0  0  0  0  0
   45.4701   11.6753    1.6490 C   0  0  0  0  0  0  0  0  0  0  0  0
   45.1345   10.5309    1.0233 O   0  0  0  0  0  0  0  0  0  0  0  0
   46.0449   11.6779    2.7118 O   0  0  0  0  0  0  0  0  0  0  0  0
   46.2654   12.4903    3.1232 H   0  0  0  0  0  0  0  0  0  0  0  0
   44.8789   14.5414    2.8878 O   0  0  0  0  0  0  0  0  0  0  0  0
   45.9862   15.4121    3.2046 C   0  0  0  0  0  0  0  0  0  0  0  0
   45.5851   16.4651    4.2400 C   0  0  0  0  0  0  0  0  0  0  0  0
   44.4920   16.1563    4.9546 O   0  0  0  0  0  0  0  0  0  0  0  0
   46.1815   17.4833    4.4018 O   0  0  0  0  0  0  0  0  0  0  0  0
   46.9414   17.6683    3.8857 H   0  0  0  0  0  0  0  0  0  0  0  0
  1  2  2  0  0  0
  1  3  1  0  0  0
  2  5  1  0  0  0
  2  6  1  0  0  0
  3  4  1  0  0  0
  4  5  2  0  0  0
  4  7  1  0  0  0
  5 11  1  0  0  0
  7  8  2  0  0  0
  7  9  1  0  0  0
 11 12  1  0  0  0
 12 13  1  0  0  0
 13 14  2  0  0  0
 13 15  1  0  0  0
  9 10  1  0  0  0
 15 16  1  0  0  0
M  END
> <minimizedAffinity>
-4.63621

$$$$
2HB1_512_A_800


 16 16  0  0  0  0  0  0  0  0999 V2000
   45.2274   12.6223   -1.3494 C   0  0  0  0  0  0  0  0  0  0  0  0
   44.8850   12.9837   -0.0274 C   0  0  0  0  0  0  0  0  0  0  0  0
   44.9557   13.9542   -2.3673 S   0  0  0  0  0  0  0  0  0  0  0  0
   44.3944   15.0000   -1.1436 C   0  0  0  0  0  0  0  0  0  0  0  0
   44.4142   14.3200    0.1055 C   0  0  0  0  0  0  0  0  0  0  0  0
   45.0496   11.7864    1.4134 Br  0  0  0  0  0  0  0  0  0  0  0  0
   43.9959   16.3121   -1.4203 C   0  0  0  0  0  0  0  0  0  0  0  0
   42.8534   16.4153   -2.1261 O   0  0  0  0  0  0  0  0  0  0  0  0
   44.6153   17.2853   -1.0610 O   0  0  0  0  0  0  0  0  0  0  0  0
   45.4072   17.1821   -0.5710 H   0  0  0  0  0  0  0  0  0  0  0  0
   44.0243   14.8425    1.3971 O   0  0  0  0  0  0  0  0  0  0  0  0
   45.1037   15.4690    2.1230 C   0  0  0  0  0  0  0  0  0  0  0  0
   44.6668   16.8087    2.7198 C   0  0  0  0  0  0  0  0  0  0  0  0
   44.1327   17.6652    1.8355 O   0  0  0  0  0  0  0  0  0  0  0  0
   44.7930   17.0835    3.8718 O   0  0  0  0  0  0  0  0  0  0  0  0
   45.1700   16.4621    4.4631 H   0  0  0  0  0  0  0  0  0  0  0  0
  1  2  2  0  0  0
  1  3  1  0  0  0
  2  5  1  0  0  0
  2  6  1  0  0  0
  3  4  1  0  0  0
  4  5  2  0  0  0
  4  7  1  0  0  0
  5 11  1  0  0  0
  7  8  2  0  0  0
  7  9  1  0  0  0
 11 12  1  0  0  0
 12 13  1  0  0  0
 13 14  2  0  0  0
 13 15  1  0  0  0
  9 10  1  0  0  0
 15 16  1  0  0  0
M  END
> <minimizedAffinity>
-4.50363

$$$$
2HB1_512_A_800


 16 16  0  0  0  0  0  0  0  0999 V2000
   44.3811   17.0570    2.3051 C   0  0  0  0  0  0  0  0  0  0  0  0
   44.5437   15.9826    1.4025 C   0  0  0  0  0  0  0  0  0  0  0  0
   45.1232   16.6503    3.7775 S   0  0  0  0  0  0  0  0  0  0  0  0
   45.6516   15.1052    3.2880 C   0  0  0  0  0  0  0  0  0  0  0  0
   45.2575   14.8754    1.9408 C   0  0  0  0  0  0  0  0  0  0  0  0
   43.8696   16.0372   -0.3522 Br  0  0  0  0  0  0  0  0  0  0  0  0
   46.3592   14.2604    4.1497 C   0  0  0  0  0  0  0  0  0  0  0  0
   47.0330   13.2686    3.5363 O   0  0  0  0  0  0  0  0  0  0  0  0
   46.3754   14.3968    5.3502 O   0  0  0  0  0  0  0  0  0  0  0  0
   45.8965   15.0967    5.7486 H   0  0  0  0  0  0  0  0  0  0  0  0
   45.5082   13.6965    1.1404 O   0  0  0  0  0  0  0  0  0  0  0  0
   44.5566   12.6322    1.3554 C   0  0  0  0  0  0  0  0  0  0  0  0
   45.2229   11.2598    1.2355 C   0  0  0  0  0  0  0  0  0  0  0  0
   44.5702   10.3900    0.4491 O   0  0  0  0  0  0  0  0  0  0  0  0
   46.2336   10.9724    1.7962 O   0  0  0  0  0  0  0  0  0  0  0  0
   46.6645   11.6037    2.3383 H   0  0  0  0  0  0  0  0  0  0  0  0
  1  2  2  0  0  0
  1  3  1  0  0  0
  2  5  1  0  0  0
  2  6  1  0  0  0
  3  4  1  0  0  0
  4  5  2  0  0  0
  4  7  1  0  0  0
  5 11  1  0  0  0
  7  8  2  0  0  0
  7  9  1  0  0  0
 11 12  1  0  0  0
 12 13  1  0  0  0
 13 14  2  0  0  0
 13 15  1  0  0  0
  9 10  1  0  0  0
 15 16  1  0  0  0
M  END
> <minimizedAffinity>
-4.18355

$$$$
