3CTT_3CU_A_1001


 19 20  0  0  0  0  0  0  0  0999 V2000
    0.2184  -14.2904   19.1073 O   0  0  0  0  0  0  0  0  0  0  0  0
    1.3601  -14.7950   19.7773 C   0  0  0  0  0  0  0  0  0  0  0  0
    1.0032  -16.1807   20.3297 C   0  0  0  0  0  0  0  0  0  0  0  0
    1.6525  -16.4510   21.7043 C   0  0  0  0  0  0  0  0  0  0  0  0
    0.8042  -16.1372   22.8228 O   0  0  0  0  0  0  0  0  0  0  0  0
    1.8624  -17.9616   21.5650 C   0  0  0  0  0  0  0  0  0  0  0  0
    2.7251  -18.4616   22.5680 O   0  0  0  0  0  0  0  0  0  0  0  0
    2.6002  -17.9530   20.2495 C   0  0  0  0  0  0  0  0  0  0  0  0
    1.6730  -17.1593   19.4121 N   0  0  0  0  0  0  0  0  0  0  0  0
    2.3951  -16.4177   18.3385 C   0  0  0  0  0  0  0  0  0  0  0  0
    2.5373  -14.9972   18.7993 C   0  0  0  0  0  0  0  0  0  0  0  0
    3.7586  -14.8730   19.5329 O   0  0  0  0  0  0  0  0  0  0  0  0
   -0.5043  -14.1731   19.7436 H   0  0  0  0  0  0  0  0  0  0  0  0
   -0.0298  -16.6260   22.7432 H   0  0  0  0  0  0  0  0  0  0  0  0
    3.5566  -17.9621   22.5578 H   0  0  0  0  0  0  0  0  0  0  0  0
    3.7609  -15.5073   20.2668 H   0  0  0  0  0  0  0  0  0  0  0  0
    2.7491  -19.3599   19.6422 C   0  0  0  0  0  0  0  0  0  0  0  0
    1.9100  -20.2828   20.3350 O   0  0  0  0  0  0  0  0  0  0  0  0
    2.1666  -20.3141   21.2699 H   0  0  0  0  0  0  0  0  0  0  0  0
  1  2  1  0  0  0
  2  3  1  0  0  0
  2 11  1  0  0  0
  3  4  1  0  0  0
  3  9  1  0  0  0
  4  5  1  0  0  0
  4  6  1  0  0  0
  6  7  1  0  0  0
  6  8  1  0  0  0
  8 17  1  0  0  0
  8  9  1  0  0  0
 17 18  1  0  0  0
  9 10  1  0  0  0
 10 11  1  0  0  0
 11 12  1  0  0  0
  1 13  1  0  0  0
  5 14  1  0  0  0
  7 15  1  0  0  0
 18 19  1  0  0  0
 12 16  1  0  0  0
M  END
> <minimizedAffinity>
-6.37806

$$$$
3CTT_3CU_A_1001


 19 20  0  0  0  0  0  0  0  0999 V2000
    1.4641  -16.1332   23.3009 O   0  0  0  0  0  0  0  0  0  0  0  0
    1.1018  -16.6664   22.0394 C   0  0  0  0  0  0  0  0  0  0  0  0
    1.0676  -15.5078   21.0348 C   0  0  0  0  0  0  0  0  0  0  0  0
   -0.0678  -15.6604   19.9995 C   0  0  0  0  0  0  0  0  0  0  0  0
   -1.2784  -14.9693   20.3542 O   0  0  0  0  0  0  0  0  0  0  0  0
    0.6244  -15.0024   18.8023 C   0  0  0  0  0  0  0  0  0  0  0  0
   -0.0679  -15.2585   17.5959 O   0  0  0  0  0  0  0  0  0  0  0  0
    1.8936  -15.8173   18.8167 C   0  0  0  0  0  0  0  0  0  0  0  0
    2.3209  -15.6476   20.2236 N   0  0  0  0  0  0  0  0  0  0  0  0
    3.0980  -16.8236   20.7108 C   0  0  0  0  0  0  0  0  0  0  0  0
    2.1635  -17.6644   21.5294 C   0  0  0  0  0  0  0  0  0  0  0  0
    1.5191  -18.6060   20.6673 O   0  0  0  0  0  0  0  0  0  0  0  0
    0.7815  -15.5109   23.5970 H   0  0  0  0  0  0  0  0  0  0  0  0
   -1.0832  -14.0308   20.5030 H   0  0  0  0  0  0  0  0  0  0  0  0
   -0.1837  -16.2154   17.4864 H   0  0  0  0  0  0  0  0  0  0  0  0
    1.0676  -18.1325   19.9512 H   0  0  0  0  0  0  0  0  0  0  0  0
    2.9789  -15.2437   17.8874 C   0  0  0  0  0  0  0  0  0  0  0  0
    3.7097  -14.2209   18.5623 O   0  0  0  0  0  0  0  0  0  0  0  0
    3.1050  -13.5072   18.8190 H   0  0  0  0  0  0  0  0  0  0  0  0
  1  2  1  0  0  0
  2  3  1  0  0  0
  2 11  1  0  0  0
  3  4  1  0  0  0
  3  9  1  0  0  0
  4  5  1  0  0  0
  4  6  1  0  0  0
  6  7  1  0  0  0
  6  8  1  0  0  0
  8 17  1  0  0  0
  8  9  1  0  0  0
 17 18  1  0  0  0
  9 10  1  0  0  0
 10 11  1  0  0  0
 11 12  1  0  0  0
  1 13  1  0  0  0
  5 14  1  0  0  0
  7 15  1  0  0  0
 18 19  1  0  0  0
 12 16  1  0  0  0
M  END
> <minimizedAffinity>
-5.96100

$$$$
3CTT_3CU_A_1001


 19 20  0  0  0  0  0  0  0  0999 V2000
    4.1295  -18.7421   21.6810 O   0  0  0  0  0  0  0  0  0  0  0  0
    2.7716  -18.5935   21.3053 C   0  0  0  0  0  0  0  0  0  0  0  0
    2.4867  -17.0927   21.1670 C   0  0  0  0  0  0  0  0  0  0  0  0
    1.0695  -16.7161   21.6504 C   0  0  0  0  0  0  0  0  0  0  0  0
    1.0169  -16.2763   23.0189 O   0  0  0  0  0  0  0  0  0  0  0  0
    0.7951  -15.5642   20.6793 C   0  0  0  0  0  0  0  0  0  0  0  0
   -0.5709  -15.1978   20.6794 O   0  0  0  0  0  0  0  0  0  0  0  0
    1.1031  -16.2917   19.3944 C   0  0  0  0  0  0  0  0  0  0  0  0
    2.4498  -16.8292   19.6913 N   0  0  0  0  0  0  0  0  0  0  0  0
    2.7129  -18.0988   18.9544 C   0  0  0  0  0  0  0  0  0  0  0  0
    2.5027  -19.2253   19.9226 C   0  0  0  0  0  0  0  0  0  0  0  0
    1.1309  -19.6257   19.8695 O   0  0  0  0  0  0  0  0  0  0  0  0
    4.2703  -18.3374   22.5513 H   0  0  0  0  0  0  0  0  0  0  0  0
    1.6234  -15.5294   23.1420 H   0  0  0  0  0  0  0  0  0  0  0  0
   -1.1155  -15.9804   20.5008 H   0  0  0  0  0  0  0  0  0  0  0  0
    0.5635  -18.8611   20.0550 H   0  0  0  0  0  0  0  0  0  0  0  0
    1.1934  -15.3461   18.1828 C   0  0  0  0  0  0  0  0  0  0  0  0
    2.5500  -14.9638   17.9611 O   0  0  0  0  0  0  0  0  0  0  0  0
    2.8888  -14.5045   18.7454 H   0  0  0  0  0  0  0  0  0  0  0  0
  1  2  1  0  0  0
  2  3  1  0  0  0
  2 11  1  0  0  0
  3  4  1  0  0  0
  3  9  1  0  0  0
  4  5  1  0  0  0
  4  6  1  0  0  0
  6  7  1  0  0  0
  6  8  1  0  0  0
  8 17  1  0  0  0
  8  9  1  0  0  0
 17 18  1  0  0  0
  9 10  1  0  0  0
 10 11  1  0  0  0
 11 12  1  0  0  0
  1 13  1  0  0  0
  5 14  1  0  0  0
  7 15  1  0  0  0
 18 19  1  0  0  0
 12 16  1  0  0  0
M  END
> <minimizedAffinity>
-5.64386

$$$$
3CTT_3CU_A_1001


 19 20  0  0  0  0  0  0  0  0999 V2000
    4.2713  -22.0338   19.9852 O   0  0  0  0  0  0  0  0  0  0  0  0
    3.0806  -21.4024   20.4217 C   0  0  0  0  0  0  0  0  0  0  0  0
    3.4213  -19.9455   20.7599 C   0  0  0  0  0  0  0  0  0  0  0  0
    2.6343  -19.4261   21.9827 C   0  0  0  0  0  0  0  0  0  0  0  0
    3.3434  -19.5477   23.2282 O   0  0  0  0  0  0  0  0  0  0  0  0
    2.4921  -17.9617   21.5579 C   0  0  0  0  0  0  0  0  0  0  0  0
    1.5418  -17.2794   22.3527 O   0  0  0  0  0  0  0  0  0  0  0  0
    1.9035  -18.1940   20.1887 C   0  0  0  0  0  0  0  0  0  0  0  0
    2.8898  -19.1367   19.6147 N   0  0  0  0  0  0  0  0  0  0  0  0
    2.2653  -20.0474   18.6124 C   0  0  0  0  0  0  0  0  0  0  0  0
    2.0255  -21.3611   19.2955 C   0  0  0  0  0  0  0  0  0  0  0  0
    0.7275  -21.3361   19.8953 O   0  0  0  0  0  0  0  0  0  0  0  0
    4.9154  -22.0460   20.7105 H   0  0  0  0  0  0  0  0  0  0  0  0
    4.1972  -19.0923   23.1600 H   0  0  0  0  0  0  0  0  0  0  0  0
    0.7001  -17.7613   22.3353 H   0  0  0  0  0  0  0  0  0  0  0  0
    0.6660  -20.5814   20.5016 H   0  0  0  0  0  0  0  0  0  0  0  0
    1.8698  -16.9156   19.3314 C   0  0  0  0  0  0  0  0  0  0  0  0
    2.4561  -15.8304   20.0486 O   0  0  0  0  0  0  0  0  0  0  0  0
    1.9567  -15.6754   20.8656 H   0  0  0  0  0  0  0  0  0  0  0  0
  1  2  1  0  0  0
  2  3  1  0  0  0
  2 11  1  0  0  0
  3  4  1  0  0  0
  3  9  1  0  0  0
  4  5  1  0  0  0
  4  6  1  0  0  0
  6  7  1  0  0  0
  6  8  1  0  0  0
  8 17  1  0  0  0
  8  9  1  0  0  0
 17 18  1  0  0  0
  9 10  1  0  0  0
 10 11  1  0  0  0
 11 12  1  0  0  0
  1 13  1  0  0  0
  5 14  1  0  0  0
  7 15  1  0  0  0
 18 19  1  0  0  0
 12 16  1  0  0  0
M  END
> <minimizedAffinity>
-5.35239

$$$$
3CTT_3CU_A_1001


 19 20  0  0  0  0  0  0  0  0999 V2000
    2.4179  -16.1330   18.3178 O   0  0  0  0  0  0  0  0  0  0  0  0
    1.7176  -17.0130   19.1792 C   0  0  0  0  0  0  0  0  0  0  0  0
    2.5107  -18.3238   19.2533 C   0  0  0  0  0  0  0  0  0  0  0  0
    1.5928  -19.5631   19.3290 C   0  0  0  0  0  0  0  0  0  0  0  0
    1.3231  -20.1690   18.0526 O   0  0  0  0  0  0  0  0  0  0  0  0
    2.4846  -20.4555   20.1971 C   0  0  0  0  0  0  0  0  0  0  0  0
    1.7750  -21.5731   20.6950 O   0  0  0  0  0  0  0  0  0  0  0  0
    2.7189  -19.4854   21.3281 C   0  0  0  0  0  0  0  0  0  0  0  0
    3.1980  -18.2980   20.5856 N   0  0  0  0  0  0  0  0  0  0  0  0
    2.8594  -17.0299   21.2936 C   0  0  0  0  0  0  0  0  0  0  0  0
    1.6518  -16.4526   20.6162 C   0  0  0  0  0  0  0  0  0  0  0  0
    0.4790  -16.9718   21.2487 O   0  0  0  0  0  0  0  0  0  0  0  0
    2.4442  -16.5085   17.4238 H   0  0  0  0  0  0  0  0  0  0  0  0
    2.1606  -20.3971   17.6196 H   0  0  0  0  0  0  0  0  0  0  0  0
    0.9784  -21.2701   21.1582 H   0  0  0  0  0  0  0  0  0  0  0  0
    0.4979  -17.9412   21.2193 H   0  0  0  0  0  0  0  0  0  0  0  0
    3.8216  -19.9545   22.2948 C   0  0  0  0  0  0  0  0  0  0  0  0
    3.3897  -21.1152   23.0031 O   0  0  0  0  0  0  0  0  0  0  0  0
    2.5920  -20.9045   23.5132 H   0  0  0  0  0  0  0  0  0  0  0  0
  1  2  1  0  0  0
  2  3  1  0  0  0
  2 11  1  0  0  0
  3  4  1  0  0  0
  3  9  1  0  0  0
  4  5  1  0  0  0
  4  6  1  0  0  0
  6  7  1  0  0  0
  6  8  1  0  0  0
  8 17  1  0  0  0
  8  9  1  0  0  0
 17 18  1  0  0  0
  9 10  1  0  0  0
 10 11  1  0  0  0
 11 12  1  0  0  0
  1 13  1  0  0  0
  5 14  1  0  0  0
  7 15  1  0  0  0
 18 19  1  0  0  0
 12 16  1  0  0  0
M  END
> <minimizedAffinity>
-5.33760

$$$$
3CTT_3CU_A_1001


 19 20  0  0  0  0  0  0  0  0999 V2000
    0.6752  -16.5068   22.4948 O   0  0  0  0  0  0  0  0  0  0  0  0
    1.8847  -16.8902   21.8648 C   0  0  0  0  0  0  0  0  0  0  0  0
    1.8397  -18.4086   21.6520 C   0  0  0  0  0  0  0  0  0  0  0  0
    3.2201  -19.0715   21.8505 C   0  0  0  0  0  0  0  0  0  0  0  0
    3.4366  -19.5837   23.1771 O   0  0  0  0  0  0  0  0  0  0  0  0
    3.0799  -20.2025   20.8277 C   0  0  0  0  0  0  0  0  0  0  0  0
    4.3239  -20.8205   20.5616 O   0  0  0  0  0  0  0  0  0  0  0  0
    2.6892  -19.3641   19.6362 C   0  0  0  0  0  0  0  0  0  0  0  0
    1.5519  -18.5973   20.1926 N   0  0  0  0  0  0  0  0  0  0  0  0
    1.4114  -17.2644   19.5387 C   0  0  0  0  0  0  0  0  0  0  0  0
    2.0128  -16.2500   20.4659 C   0  0  0  0  0  0  0  0  0  0  0  0
    3.4028  -16.1145   20.1582 O   0  0  0  0  0  0  0  0  0  0  0  0
    0.6205  -16.9221   23.3697 H   0  0  0  0  0  0  0  0  0  0  0  0
    2.7288  -20.2075   23.4023 H   0  0  0  0  0  0  0  0  0  0  0  0
    4.9689  -20.1471   20.2943 H   0  0  0  0  0  0  0  0  0  0  0  0
    3.8337  -16.9813   20.2204 H   0  0  0  0  0  0  0  0  0  0  0  0
    2.1938  -20.2113   18.4499 C   0  0  0  0  0  0  0  0  0  0  0  0
    3.2934  -20.8789   17.8329 O   0  0  0  0  0  0  0  0  0  0  0  0
    3.9291  -20.2223   17.5078 H   0  0  0  0  0  0  0  0  0  0  0  0
  1  2  1  0  0  0
  2  3  1  0  0  0
  2 11  1  0  0  0
  3  4  1  0  0  0
  3  9  1  0  0  0
  4  5  1  0  0  0
  4  6  1  0  0  0
  6  7  1  0  0  0
  6  8  1  0  0  0
  8 17  1  0  0  0
  8  9  1  0  0  0
 17 18  1  0  0  0
  9 10  1  0  0  0
 10 11  1  0  0  0
 11 12  1  0  0  0
  1 13  1  0  0  0
  5 14  1  0  0  0
  7 15  1  0  0  0
 18 19  1  0  0  0
 12 16  1  0  0  0
M  END
> <minimizedAffinity>
-5.24693

$$$$
3CTT_3CU_A_1001


 19 20  0  0  0  0  0  0  0  0999 V2000
    3.8183  -15.3168   18.7121 O   0  0  0  0  0  0  0  0  0  0  0  0
    2.8485  -16.1930   19.2584 C   0  0  0  0  0  0  0  0  0  0  0  0
    2.2033  -15.4867   20.4575 C   0  0  0  0  0  0  0  0  0  0  0  0
    1.8789  -16.4619   21.6098 C   0  0  0  0  0  0  0  0  0  0  0  0
    2.9056  -16.5413   22.6142 O   0  0  0  0  0  0  0  0  0  0  0  0
    0.6210  -15.7723   22.1458 C   0  0  0  0  0  0  0  0  0  0  0  0
   -0.0899  -16.6077   23.0385 O   0  0  0  0  0  0  0  0  0  0  0  0
   -0.1431  -15.6861   20.8482 C   0  0  0  0  0  0  0  0  0  0  0  0
    0.8580  -15.0331   19.9751 N   0  0  0  0  0  0  0  0  0  0  0  0
    0.6854  -15.4256   18.5467 C   0  0  0  0  0  0  0  0  0  0  0  0
    1.7164  -16.4731   18.2469 C   0  0  0  0  0  0  0  0  0  0  0  0
    1.1615  -17.7590   18.5367 O   0  0  0  0  0  0  0  0  0  0  0  0
    4.5162  -15.1582   19.3669 H   0  0  0  0  0  0  0  0  0  0  0  0
    3.0843  -15.6547   22.9646 H   0  0  0  0  0  0  0  0  0  0  0  0
   -0.2787  -17.4557   22.6070 H   0  0  0  0  0  0  0  0  0  0  0  0
    0.8615  -17.7813   19.4589 H   0  0  0  0  0  0  0  0  0  0  0  0
   -1.3875  -14.7852   20.9498 C   0  0  0  0  0  0  0  0  0  0  0  0
   -2.5417  -15.5757   21.2301 O   0  0  0  0  0  0  0  0  0  0  0  0
   -2.6750  -16.2181   20.5157 H   0  0  0  0  0  0  0  0  0  0  0  0
  1  2  1  0  0  0
  2  3  1  0  0  0
  2 11  1  0  0  0
  3  4  1  0  0  0
  3  9  1  0  0  0
  4  5  1  0  0  0
  4  6  1  0  0  0
  6  7  1  0  0  0
  6  8  1  0  0  0
  8 17  1  0  0  0
  8  9  1  0  0  0
 17 18  1  0  0  0
  9 10  1  0  0  0
 10 11  1  0  0  0
 11 12  1  0  0  0
  1 13  1  0  0  0
  5 14  1  0  0  0
  7 15  1  0  0  0
 18 19  1  0  0  0
 12 16  1  0  0  0
M  END
> <minimizedAffinity>
-5.13659

$$$$
3CTT_3CU_A_1001


 19 20  0  0  0  0  0  0  0  0999 V2000
    3.8404  -21.5822   17.9414 O   0  0  0  0  0  0  0  0  0  0  0  0
    2.9784  -21.4892   19.0618 C   0  0  0  0  0  0  0  0  0  0  0  0
    3.6370  -20.5513   20.0814 C   0  0  0  0  0  0  0  0  0  0  0  0
    3.3948  -21.0028   21.5380 C   0  0  0  0  0  0  0  0  0  0  0  0
    4.4501  -21.8158   22.0805 O   0  0  0  0  0  0  0  0  0  0  0  0
    3.3514  -19.6230   22.2009 C   0  0  0  0  0  0  0  0  0  0  0  0
    2.8403  -19.6944   23.5177 O   0  0  0  0  0  0  0  0  0  0  0  0
    2.3112  -18.9918   21.3094 C   0  0  0  0  0  0  0  0  0  0  0  0
    2.8884  -19.2567   19.9724 N   0  0  0  0  0  0  0  0  0  0  0  0
    1.8305  -19.3822   18.9288 C   0  0  0  0  0  0  0  0  0  0  0  0
    1.6286  -20.8470   18.6758 C   0  0  0  0  0  0  0  0  0  0  0  0
    0.6259  -21.3334   19.5720 O   0  0  0  0  0  0  0  0  0  0  0  0
    4.6789  -21.9882   18.2115 H   0  0  0  0  0  0  0  0  0  0  0  0
    5.2926  -21.3400   22.0119 H   0  0  0  0  0  0  0  0  0  0  0  0
    1.9763  -20.1351   23.5057 H   0  0  0  0  0  0  0  0  0  0  0  0
    0.8896  -21.1436   20.4860 H   0  0  0  0  0  0  0  0  0  0  0  0
    2.1952  -17.4705   21.5161 C   0  0  0  0  0  0  0  0  0  0  0  0
    1.1263  -17.1793   22.4150 O   0  0  0  0  0  0  0  0  0  0  0  0
    0.2933  -17.5117   22.0454 H   0  0  0  0  0  0  0  0  0  0  0  0
  1  2  1  0  0  0
  2  3  1  0  0  0
  2 11  1  0  0  0
  3  4  1  0  0  0
  3  9  1  0  0  0
  4  5  1  0  0  0
  4  6  1  0  0  0
  6  7  1  0  0  0
  6  8  1  0  0  0
  8 17  1  0  0  0
  8  9  1  0  0  0
 17 18  1  0  0  0
  9 10  1  0  0  0
 10 11  1  0  0  0
 11 12  1  0  0  0
  1 13  1  0  0  0
  5 14  1  0  0  0
  7 15  1  0  0  0
 18 19  1  0  0  0
 12 16  1  0  0  0
M  END
> <minimizedAffinity>
-4.87214

$$$$
3CTT_3CU_A_1001


 19 20  0  0  0  0  0  0  0  0999 V2000
    2.6283  -19.1823   19.6500 O   0  0  0  0  0  0  0  0  0  0  0  0
    2.8401  -17.8545   20.0962 C   0  0  0  0  0  0  0  0  0  0  0  0
    1.8216  -16.9547   19.3851 C   0  0  0  0  0  0  0  0  0  0  0  0
    2.4083  -15.5726   19.0249 C   0  0  0  0  0  0  0  0  0  0  0  0
    2.9353  -15.4920   17.6890 O   0  0  0  0  0  0  0  0  0  0  0  0
    1.1344  -14.7365   19.1776 C   0  0  0  0  0  0  0  0  0  0  0  0
    1.4207  -13.3516   19.1996 O   0  0  0  0  0  0  0  0  0  0  0  0
    0.7570  -15.1768   20.5699 C   0  0  0  0  0  0  0  0  0  0  0  0
    0.7747  -16.6486   20.4140 N   0  0  0  0  0  0  0  0  0  0  0  0
    1.1198  -17.3357   21.6918 C   0  0  0  0  0  0  0  0  0  0  0  0
    2.5665  -17.7239   21.6099 C   0  0  0  0  0  0  0  0  0  0  0  0
    3.3596  -16.6487   22.1198 O   0  0  0  0  0  0  0  0  0  0  0  0
    2.8069  -19.2359   18.6981 H   0  0  0  0  0  0  0  0  0  0  0  0
    2.2455  -15.7400   17.0538 H   0  0  0  0  0  0  0  0  0  0  0  0
    2.0779  -13.1681   19.8890 H   0  0  0  0  0  0  0  0  0  0  0  0
    3.1605  -15.8377   21.6262 H   0  0  0  0  0  0  0  0  0  0  0  0
   -0.6604  -14.7293   20.9712 C   0  0  0  0  0  0  0  0  0  0  0  0
   -1.6291  -15.6180   20.4167 O   0  0  0  0  0  0  0  0  0  0  0  0
   -1.5582  -15.6108   19.4493 H   0  0  0  0  0  0  0  0  0  0  0  0
  1  2  1  0  0  0
  2  3  1  0  0  0
  2 11  1  0  0  0
  3  4  1  0  0  0
  3  9  1  0  0  0
  4  5  1  0  0  0
  4  6  1  0  0  0
  6  7  1  0  0  0
  6  8  1  0  0  0
  8 17  1  0  0  0
  8  9  1  0  0  0
 17 18  1  0  0  0
  9 10  1  0  0  0
 10 11  1  0  0  0
 11 12  1  0  0  0
  1 13  1  0  0  0
  5 14  1  0  0  0
  7 15  1  0  0  0
 18 19  1  0  0  0
 12 16  1  0  0  0
M  END
> <minimizedAffinity>
-4.86937

$$$$
3CTT_3CU_A_1001


 19 20  0  0  0  0  0  0  0  0999 V2000
    2.7212  -22.5260   21.5226 O   0  0  0  0  0  0  0  0  0  0  0  0
    3.4167  -21.3844   21.0537 C   0  0  0  0  0  0  0  0  0  0  0  0
    2.3766  -20.3858   20.5304 C   0  0  0  0  0  0  0  0  0  0  0  0
    2.8694  -19.6236   19.2813 C   0  0  0  0  0  0  0  0  0  0  0  0
    2.4598  -20.2161   18.0362 O   0  0  0  0  0  0  0  0  0  0  0  0
    2.1567  -18.2912   19.5305 C   0  0  0  0  0  0  0  0  0  0  0  0
    2.6576  -17.2685   18.6918 O   0  0  0  0  0  0  0  0  0  0  0  0
    2.6450  -18.0490   20.9369 C   0  0  0  0  0  0  0  0  0  0  0  0
    2.2756  -19.3265   21.5868 N   0  0  0  0  0  0  0  0  0  0  0  0
    3.1951  -19.6600   22.7126 C   0  0  0  0  0  0  0  0  0  0  0  0
    4.1702  -20.6791   22.2018 C   0  0  0  0  0  0  0  0  0  0  0  0
    5.2986  -19.9971   21.6478 O   0  0  0  0  0  0  0  0  0  0  0  0
    2.2579  -22.9488   20.7827 H   0  0  0  0  0  0  0  0  0  0  0  0
    1.4935  -20.2988   18.0199 H   0  0  0  0  0  0  0  0  0  0  0  0
    3.6201  -17.2074   18.7959 H   0  0  0  0  0  0  0  0  0  0  0  0
    4.9994  -19.3852   20.9572 H   0  0  0  0  0  0  0  0  0  0  0  0
    1.9012  -16.8952   21.6340 C   0  0  0  0  0  0  0  0  0  0  0  0
    0.5631  -16.8106   21.1462 O   0  0  0  0  0  0  0  0  0  0  0  0
    0.5772  -16.6450   20.1906 H   0  0  0  0  0  0  0  0  0  0  0  0
  1  2  1  0  0  0
  2  3  1  0  0  0
  2 11  1  0  0  0
  3  4  1  0  0  0
  3  9  1  0  0  0
  4  5  1  0  0  0
  4  6  1  0  0  0
  6  7  1  0  0  0
  6  8  1  0  0  0
  8 17  1  0  0  0
  8  9  1  0  0  0
 17 18  1  0  0  0
  9 10  1  0  0  0
 10 11  1  0  0  0
 11 12  1  0  0  0
  1 13  1  0  0  0
  5 14  1  0  0  0
  7 15  1  0  0  0
 18 19  1  0  0  0
 12 16  1  0  0  0
M  END
> <minimizedAffinity>
-4.67803

$$$$
