6FUH_E88_A_301


 32 34  0  0  0  0  0  0  0  0999 V2000
    4.9177   10.4948    1.8787 C   0  0  0  0  0  0  0  0  0  0  0  0
    4.1192    9.3269    1.8633 C   0  0  0  0  0  0  0  0  0  0  0  0
    6.8498    9.2455    1.8320 C   0  0  0  0  0  0  0  0  0  0  0  0
    6.1460    8.0534    1.7706 N   0  0  0  0  0  0  0  0  0  0  0  0
    4.7761    8.0971    1.7772 C   0  0  0  0  0  0  0  0  0  0  0  0
    2.6995    9.4616    1.8482 C   0  0  0  0  0  0  0  0  0  0  0  0
    2.1551   10.7476    1.9690 C   0  0  0  0  0  0  0  0  0  0  0  0
    2.9359   11.9092    1.8665 C   0  0  0  0  0  0  0  0  0  0  0  0
    4.3470   11.7972    1.8395 C   0  0  0  0  0  0  0  0  0  0  0  0
    6.2454   10.4129    1.9178 N   0  0  0  0  0  0  0  0  0  0  0  0
    8.1839    9.1784    1.9021 N   0  0  0  0  0  0  0  0  0  0  0  0
    8.5669    8.4906    2.4933 H   0  0  0  0  0  0  0  0  0  0  0  0
    9.1284   10.0369    1.1777 C   0  0  0  0  0  0  0  0  0  0  0  0
    9.4750    9.4430   -0.1885 C   0  0  0  0  0  0  0  0  0  0  0  0
    9.0833   10.0847   -1.1733 O   0  0  0  0  0  0  0  0  0  0  0  0
   10.1295    8.3665   -0.1770 O   0  0  0  0  0  0  0  0  0  0  0  0
    8.6007   10.8788   -1.0533 H   0  0  0  0  0  0  0  0  0  0  0  0
   10.3918   10.2909    2.0294 C   0  0  0  0  0  0  0  0  0  0  0  0
   11.1512   11.5069    1.4851 C   0  0  0  0  0  0  0  0  0  0  0  0
   10.0051   10.4461    3.5104 C   0  0  0  0  0  0  0  0  0  0  0  0
    4.0964    6.9654    1.6396 N   0  0  0  0  0  0  0  0  0  0  0  0
    3.1230    7.1077    1.6012 H   0  0  0  0  0  0  0  0  0  0  0  0
    3.4844    4.7098    1.1966 C   0  0  0  0  0  0  0  0  0  0  0  0
    4.4621    5.5734    1.5337 C   0  0  0  0  0  0  0  0  0  0  0  0
    5.7592    5.1217    1.7736 C   0  0  0  0  0  0  0  0  0  0  0  0
    6.0478    3.7674    1.6737 C   0  0  0  0  0  0  0  0  0  0  0  0
    5.0494    2.8573    1.3994 C   0  0  0  0  0  0  0  0  0  0  0  0
    3.7772    3.3143    1.0373 C   0  0  0  0  0  0  0  0  0  0  0  0
    2.5957    2.4379    0.7188 C   0  0  0  0  0  0  0  0  0  0  0  0
    2.6076    0.9403    0.7998 N   0  0  0  0  0  0  0  0  0  0  0  0
    2.6778    0.6532    1.7760 H   0  0  0  0  0  0  0  0  0  0  0  0
    3.4072    0.5780    0.2805 H   0  0  0  0  0  0  0  0  0  0  0  0
 19 18  1  0  0  0
 29 30  1  0  0  0
 29 28  1  0  0  0
 18 13  1  0  0  0
 18 20  1  0  0  0
 28 23  2  0  0  0
 28 27  1  0  0  0
 23 24  1  0  0  0
 11 13  1  0  0  0
 11  3  1  0  0  0
 13 14  1  0  0  0
 27 26  2  0  0  0
  3  4  2  0  0  0
  3 10  1  0  0  0
  4  5  1  0  0  0
 24 21  1  0  0  0
 24 25  2  0  0  0
 21  5  1  0  0  0
 10  1  2  0  0  0
  5  2  2  0  0  0
 26 25  1  0  0  0
  1  2  1  0  0  0
  1  9  1  0  0  0
  2  6  1  0  0  0
  9  8  2  0  0  0
  6  7  2  0  0  0
  8  7  1  0  0  0
 14 16  2  0  0  0
 14 15  1  0  0  0
 11 12  1  0  0  0
 15 17  1  0  0  0
 21 22  1  0  0  0
 30 31  1  0  0  0
 30 32  1  0  0  0
M  END
> <minimizedAffinity>
-9.30150

$$$$
6FUH_E88_A_301


 32 34  0  0  0  0  0  0  0  0999 V2000
    5.9768    5.3051    1.8822 C   0  0  0  0  0  0  0  0  0  0  0  0
    4.7643    5.9611    1.5639 C   0  0  0  0  0  0  0  0  0  0  0  0
    7.0236    7.3128    2.2939 C   0  0  0  0  0  0  0  0  0  0  0  0
    5.8671    8.0333    2.0416 N   0  0  0  0  0  0  0  0  0  0  0  0
    4.7325    7.3525    1.6844 C   0  0  0  0  0  0  0  0  0  0  0  0
    3.6232    5.1759    1.2244 C   0  0  0  0  0  0  0  0  0  0  0  0
    3.7855    3.7887    1.1058 C   0  0  0  0  0  0  0  0  0  0  0  0
    4.9472    3.1267    1.5320 C   0  0  0  0  0  0  0  0  0  0  0  0
    6.0797    3.8866    1.9121 C   0  0  0  0  0  0  0  0  0  0  0  0
    7.0711    6.0012    2.1805 N   0  0  0  0  0  0  0  0  0  0  0  0
    8.1387    7.9997    2.5656 N   0  0  0  0  0  0  0  0  0  0  0  0
    8.7628    7.6014    3.2144 H   0  0  0  0  0  0  0  0  0  0  0  0
    8.5161    9.2933    1.9842 C   0  0  0  0  0  0  0  0  0  0  0  0
    9.0096    9.1270    0.5461 C   0  0  0  0  0  0  0  0  0  0  0  0
   10.0281    8.4371    0.3992 O   0  0  0  0  0  0  0  0  0  0  0  0
    8.3286    9.7006   -0.3454 O   0  0  0  0  0  0  0  0  0  0  0  0
   10.4500    8.0597    1.1459 H   0  0  0  0  0  0  0  0  0  0  0  0
    9.5643   10.0004    2.8716 C   0  0  0  0  0  0  0  0  0  0  0  0
    9.8989   11.3775    2.2857 C   0  0  0  0  0  0  0  0  0  0  0  0
    9.0579   10.0790    4.3222 C   0  0  0  0  0  0  0  0  0  0  0  0
    3.6027    8.0289    1.5180 N   0  0  0  0  0  0  0  0  0  0  0  0
    3.1183    7.7669    0.7019 H   0  0  0  0  0  0  0  0  0  0  0  0
    2.0501    8.6593    3.2063 C   0  0  0  0  0  0  0  0  0  0  0  0
    2.9240    9.0617    2.2632 C   0  0  0  0  0  0  0  0  0  0  0  0
    3.1419   10.4185    2.0272 C   0  0  0  0  0  0  0  0  0  0  0  0
    2.4461   11.3675    2.7641 C   0  0  0  0  0  0  0  0  0  0  0  0
    1.4961   10.9801    3.6848 C   0  0  0  0  0  0  0  0  0  0  0  0
    1.3623    9.6263    4.0128 C   0  0  0  0  0  0  0  0  0  0  0  0
    0.3674    9.0621    4.9913 C   0  0  0  0  0  0  0  0  0  0  0  0
   -0.8713    8.3124    4.6002 N   0  0  0  0  0  0  0  0  0  0  0  0
   -0.6110    7.4111    4.1997 H   0  0  0  0  0  0  0  0  0  0  0  0
   -1.3925    8.8533    3.9101 H   0  0  0  0  0  0  0  0  0  0  0  0
 19 18  1  0  0  0
 29 30  1  0  0  0
 29 28  1  0  0  0
 18 13  1  0  0  0
 18 20  1  0  0  0
 28 23  2  0  0  0
 28 27  1  0  0  0
 23 24  1  0  0  0
 11 13  1  0  0  0
 11  3  1  0  0  0
 13 14  1  0  0  0
 27 26  2  0  0  0
  3  4  2  0  0  0
  3 10  1  0  0  0
  4  5  1  0  0  0
 24 21  1  0  0  0
 24 25  2  0  0  0
 21  5  1  0  0  0
 10  1  2  0  0  0
  5  2  2  0  0  0
 26 25  1  0  0  0
  1  2  1  0  0  0
  1  9  1  0  0  0
  2  6  1  0  0  0
  9  8  2  0  0  0
  6  7  2  0  0  0
  8  7  1  0  0  0
 14 16  2  0  0  0
 14 15  1  0  0  0
 11 12  1  0  0  0
 15 17  1  0  0  0
 21 22  1  0  0  0
 30 31  1  0  0  0
 30 32  1  0  0  0
M  END
> <minimizedAffinity>
-8.55611

$$$$
6FUH_E88_A_301


 32 34  0  0  0  0  0  0  0  0999 V2000
    5.9437    5.2888    1.8754 C   0  0  0  0  0  0  0  0  0  0  0  0
    4.7277    5.9406    1.5619 C   0  0  0  0  0  0  0  0  0  0  0  0
    6.9872    7.3004    2.2762 C   0  0  0  0  0  0  0  0  0  0  0  0
    5.8274    8.0171    2.0282 N   0  0  0  0  0  0  0  0  0  0  0  0
    4.6927    7.3322    1.6789 C   0  0  0  0  0  0  0  0  0  0  0  0
    3.5869    5.1515    1.2306 C   0  0  0  0  0  0  0  0  0  0  0  0
    3.7524    3.7644    1.1147 C   0  0  0  0  0  0  0  0  0  0  0  0
    4.9181    3.1067    1.5364 C   0  0  0  0  0  0  0  0  0  0  0  0
    6.0505    3.8706    1.9084 C   0  0  0  0  0  0  0  0  0  0  0  0
    7.0377    5.9886    2.1660 N   0  0  0  0  0  0  0  0  0  0  0  0
    8.1018    7.9910    2.5401 N   0  0  0  0  0  0  0  0  0  0  0  0
    8.7317    7.5949    3.1847 H   0  0  0  0  0  0  0  0  0  0  0  0
    8.4710    9.2857    1.9559 C   0  0  0  0  0  0  0  0  0  0  0  0
    8.8695    9.1328    0.4872 C   0  0  0  0  0  0  0  0  0  0  0  0
    9.8196    8.3706    0.2602 O   0  0  0  0  0  0  0  0  0  0  0  0
    8.1889    9.7897   -0.3450 O   0  0  0  0  0  0  0  0  0  0  0  0
   10.2502    7.9347    0.9690 H   0  0  0  0  0  0  0  0  0  0  0  0
    9.5883    9.9553    2.7861 C   0  0  0  0  0  0  0  0  0  0  0  0
    9.9264   11.3284    2.1929 C   0  0  0  0  0  0  0  0  0  0  0  0
    9.1697   10.0336    4.2645 C   0  0  0  0  0  0  0  0  0  0  0  0
    3.5602    8.0052    1.5168 N   0  0  0  0  0  0  0  0  0  0  0  0
    3.1054    7.7877    0.6712 H   0  0  0  0  0  0  0  0  0  0  0  0
    3.0999   10.2802    2.0371 C   0  0  0  0  0  0  0  0  0  0  0  0
    2.8450    8.9836    2.3002 C   0  0  0  0  0  0  0  0  0  0  0  0
    1.9352    8.6245    3.2939 C   0  0  0  0  0  0  0  0  0  0  0  0
    1.2900    9.6107    4.0277 C   0  0  0  0  0  0  0  0  0  0  0  0
    1.5868   10.9415    3.8246 C   0  0  0  0  0  0  0  0  0  0  0  0
    2.4026   11.3120    2.7498 C   0  0  0  0  0  0  0  0  0  0  0  0
    2.8130   12.7206    2.4138 C   0  0  0  0  0  0  0  0  0  0  0  0
    4.2305   13.1588    2.1945 N   0  0  0  0  0  0  0  0  0  0  0  0
    4.5832   12.7488    1.3297 H   0  0  0  0  0  0  0  0  0  0  0  0
    4.8068   12.8498    2.9772 H   0  0  0  0  0  0  0  0  0  0  0  0
 19 18  1  0  0  0
 29 30  1  0  0  0
 29 28  1  0  0  0
 18 13  1  0  0  0
 18 20  1  0  0  0
 28 23  2  0  0  0
 28 27  1  0  0  0
 23 24  1  0  0  0
 11 13  1  0  0  0
 11  3  1  0  0  0
 13 14  1  0  0  0
 27 26  2  0  0  0
  3  4  2  0  0  0
  3 10  1  0  0  0
  4  5  1  0  0  0
 24 21  1  0  0  0
 24 25  2  0  0  0
 21  5  1  0  0  0
 10  1  2  0  0  0
  5  2  2  0  0  0
 26 25  1  0  0  0
  1  2  1  0  0  0
  1  9  1  0  0  0
  2  6  1  0  0  0
  9  8  2  0  0  0
  6  7  2  0  0  0
  8  7  1  0  0  0
 14 16  2  0  0  0
 14 15  1  0  0  0
 11 12  1  0  0  0
 15 17  1  0  0  0
 21 22  1  0  0  0
 30 31  1  0  0  0
 30 32  1  0  0  0
M  END
> <minimizedAffinity>
-8.31640

$$$$
6FUH_E88_A_301


 32 34  0  0  0  0  0  0  0  0999 V2000
    4.4104    5.8619    1.5308 C   0  0  0  0  0  0  0  0  0  0  0  0
    5.7883    5.9011    1.8495 C   0  0  0  0  0  0  0  0  0  0  0  0
    4.2782    8.1592    1.5588 C   0  0  0  0  0  0  0  0  0  0  0  0
    5.6309    8.2913    1.8285 N   0  0  0  0  0  0  0  0  0  0  0  0
    6.3885    7.1572    1.9649 C   0  0  0  0  0  0  0  0  0  0  0  0
    6.5087    4.6744    1.9503 C   0  0  0  0  0  0  0  0  0  0  0  0
    5.7914    3.4748    1.8450 C   0  0  0  0  0  0  0  0  0  0  0  0
    4.4563    3.4303    1.4149 C   0  0  0  0  0  0  0  0  0  0  0  0
    3.7330    4.6386    1.2692 C   0  0  0  0  0  0  0  0  0  0  0  0
    3.6965    6.9821    1.4513 N   0  0  0  0  0  0  0  0  0  0  0  0
    3.5418    9.2745    1.5056 N   0  0  0  0  0  0  0  0  0  0  0  0
    3.4604    9.7158    0.6294 H   0  0  0  0  0  0  0  0  0  0  0  0
    2.8441    9.9001    2.6351 C   0  0  0  0  0  0  0  0  0  0  0  0
    1.5105    9.2040    2.9116 C   0  0  0  0  0  0  0  0  0  0  0  0
    0.6895    9.2181    1.9837 O   0  0  0  0  0  0  0  0  0  0  0  0
    1.3822    8.6801    4.0501 O   0  0  0  0  0  0  0  0  0  0  0  0
    0.9020    9.6438    1.1765 H   0  0  0  0  0  0  0  0  0  0  0  0
    2.6598   11.4135    2.3864 C   0  0  0  0  0  0  0  0  0  0  0  0
    2.0027   12.0661    3.6086 C   0  0  0  0  0  0  0  0  0  0  0  0
    4.0105   12.0551    2.0246 C   0  0  0  0  0  0  0  0  0  0  0  0
    7.6980    7.2770    2.1452 N   0  0  0  0  0  0  0  0  0  0  0  0
    8.1494    6.4083    2.2494 H   0  0  0  0  0  0  0  0  0  0  0  0
    8.6073    9.1039    3.3676 C   0  0  0  0  0  0  0  0  0  0  0  0
    8.6095    8.3931    2.2230 C   0  0  0  0  0  0  0  0  0  0  0  0
    9.4550    8.7415    1.1704 C   0  0  0  0  0  0  0  0  0  0  0  0
   10.2983    9.8371    1.2965 C   0  0  0  0  0  0  0  0  0  0  0  0
   10.2631   10.6208    2.4300 C   0  0  0  0  0  0  0  0  0  0  0  0
    9.5101   10.2065    3.5343 C   0  0  0  0  0  0  0  0  0  0  0  0
    9.3756   10.9623    4.8290 C   0  0  0  0  0  0  0  0  0  0  0  0
    8.9932   10.3367    6.1374 N   0  0  0  0  0  0  0  0  0  0  0  0
    9.7490    9.7320    6.4589 H   0  0  0  0  0  0  0  0  0  0  0  0
    8.1445    9.7843    6.0149 H   0  0  0  0  0  0  0  0  0  0  0  0
 19 18  1  0  0  0
 29 30  1  0  0  0
 29 28  1  0  0  0
 18 13  1  0  0  0
 18 20  1  0  0  0
 28 23  2  0  0  0
 28 27  1  0  0  0
 23 24  1  0  0  0
 11 13  1  0  0  0
 11  3  1  0  0  0
 13 14  1  0  0  0
 27 26  2  0  0  0
  3  4  2  0  0  0
  3 10  1  0  0  0
  4  5  1  0  0  0
 24 21  1  0  0  0
 24 25  2  0  0  0
 21  5  1  0  0  0
 10  1  2  0  0  0
  5  2  2  0  0  0
 26 25  1  0  0  0
  1  2  1  0  0  0
  1  9  1  0  0  0
  2  6  1  0  0  0
  9  8  2  0  0  0
  6  7  2  0  0  0
  8  7  1  0  0  0
 14 16  2  0  0  0
 14 15  1  0  0  0
 11 12  1  0  0  0
 15 17  1  0  0  0
 21 22  1  0  0  0
 30 31  1  0  0  0
 30 32  1  0  0  0
M  END
> <minimizedAffinity>
-7.75336

$$$$
6FUH_E88_A_301


 32 34  0  0  0  0  0  0  0  0999 V2000
    4.3598    5.7317    1.5227 C   0  0  0  0  0  0  0  0  0  0  0  0
    5.7179    5.8259    1.9081 C   0  0  0  0  0  0  0  0  0  0  0  0
    4.1134    8.0178    1.6162 C   0  0  0  0  0  0  0  0  0  0  0  0
    5.4441    8.2053    1.9545 N   0  0  0  0  0  0  0  0  0  0  0  0
    6.2494    7.1047    2.0914 C   0  0  0  0  0  0  0  0  0  0  0  0
    6.4924    4.6323    2.0048 C   0  0  0  0  0  0  0  0  0  0  0  0
    5.8407    3.4040    1.8278 C   0  0  0  0  0  0  0  0  0  0  0  0
    4.5308    3.3103    1.3330 C   0  0  0  0  0  0  0  0  0  0  0  0
    3.7564    4.4870    1.1907 C   0  0  0  0  0  0  0  0  0  0  0  0
    3.5960    6.8186    1.4441 N   0  0  0  0  0  0  0  0  0  0  0  0
    3.3262    9.0979    1.5628 N   0  0  0  0  0  0  0  0  0  0  0  0
    3.1202    9.4579    0.6699 H   0  0  0  0  0  0  0  0  0  0  0  0
    2.7416    9.7949    2.7144 C   0  0  0  0  0  0  0  0  0  0  0  0
    1.4037    9.1706    3.1141 C   0  0  0  0  0  0  0  0  0  0  0  0
    0.5360    9.1372    2.2304 O   0  0  0  0  0  0  0  0  0  0  0  0
    1.3195    8.7463    4.2974 O   0  0  0  0  0  0  0  0  0  0  0  0
    0.7187    9.4879    1.3809 H   0  0  0  0  0  0  0  0  0  0  0  0
    2.6041   11.3052    2.4203 C   0  0  0  0  0  0  0  0  0  0  0  0
    1.9752   12.0153    3.6252 C   0  0  0  0  0  0  0  0  0  0  0  0
    3.9724   11.8919    2.0326 C   0  0  0  0  0  0  0  0  0  0  0  0
    7.5417    7.2807    2.3379 N   0  0  0  0  0  0  0  0  0  0  0  0
    7.9738    6.4739    2.7006 H   0  0  0  0  0  0  0  0  0  0  0  0
    8.6687    8.8455    0.9452 C   0  0  0  0  0  0  0  0  0  0  0  0
    8.4563    8.3878    2.1944 C   0  0  0  0  0  0  0  0  0  0  0  0
    9.1068    8.9650    3.2842 C   0  0  0  0  0  0  0  0  0  0  0  0
    9.9901   10.0170    3.0825 C   0  0  0  0  0  0  0  0  0  0  0  0
   10.2766   10.4557    1.8075 C   0  0  0  0  0  0  0  0  0  0  0  0
    9.5375    9.9659    0.7249 C   0  0  0  0  0  0  0  0  0  0  0  0
    9.7451   10.3498   -0.7156 C   0  0  0  0  0  0  0  0  0  0  0  0
    9.7991   11.7632   -1.2146 N   0  0  0  0  0  0  0  0  0  0  0  0
   10.6494   12.2118   -0.8737 H   0  0  0  0  0  0  0  0  0  0  0  0
    8.9849   12.2751   -0.8748 H   0  0  0  0  0  0  0  0  0  0  0  0
 19 18  1  0  0  0
 29 30  1  0  0  0
 29 28  1  0  0  0
 18 13  1  0  0  0
 18 20  1  0  0  0
 28 23  2  0  0  0
 28 27  1  0  0  0
 23 24  1  0  0  0
 11 13  1  0  0  0
 11  3  1  0  0  0
 13 14  1  0  0  0
 27 26  2  0  0  0
  3  4  2  0  0  0
  3 10  1  0  0  0
  4  5  1  0  0  0
 24 21  1  0  0  0
 24 25  2  0  0  0
 21  5  1  0  0  0
 10  1  2  0  0  0
  5  2  2  0  0  0
 26 25  1  0  0  0
  1  2  1  0  0  0
  1  9  1  0  0  0
  2  6  1  0  0  0
  9  8  2  0  0  0
  6  7  2  0  0  0
  8  7  1  0  0  0
 14 16  2  0  0  0
 14 15  1  0  0  0
 11 12  1  0  0  0
 15 17  1  0  0  0
 21 22  1  0  0  0
 30 31  1  0  0  0
 30 32  1  0  0  0
M  END
> <minimizedAffinity>
-7.59737

$$$$
6FUH_E88_A_301


 32 34  0  0  0  0  0  0  0  0999 V2000
    4.2534   11.6001    2.1217 C   0  0  0  0  0  0  0  0  0  0  0  0
    3.7561   10.2756    2.1108 C   0  0  0  0  0  0  0  0  0  0  0  0
    6.3218   10.8924    1.4029 C   0  0  0  0  0  0  0  0  0  0  0  0
    5.9058    9.5731    1.3211 N   0  0  0  0  0  0  0  0  0  0  0  0
    4.6156    9.2673    1.6679 C   0  0  0  0  0  0  0  0  0  0  0  0
    2.3934   10.0469    2.4639 C   0  0  0  0  0  0  0  0  0  0  0  0
    1.6367   11.1343    2.9217 C   0  0  0  0  0  0  0  0  0  0  0  0
    2.0862   12.4601    2.8232 C   0  0  0  0  0  0  0  0  0  0  0  0
    3.4243   12.7126    2.4356 C   0  0  0  0  0  0  0  0  0  0  0  0
    5.5250   11.8539    1.8225 N   0  0  0  0  0  0  0  0  0  0  0  0
    7.6047   11.1588    1.1343 N   0  0  0  0  0  0  0  0  0  0  0  0
    7.7890   11.7380    0.3598 H   0  0  0  0  0  0  0  0  0  0  0  0
    8.7627   10.6661    1.8894 C   0  0  0  0  0  0  0  0  0  0  0  0
    8.3610   10.2568    3.3073 C   0  0  0  0  0  0  0  0  0  0  0  0
    8.1135    9.0543    3.4745 O   0  0  0  0  0  0  0  0  0  0  0  0
    8.3290   11.1796    4.1645 O   0  0  0  0  0  0  0  0  0  0  0  0
    8.1721    8.4592    2.7531 H   0  0  0  0  0  0  0  0  0  0  0  0
    9.8929   11.7191    1.8954 C   0  0  0  0  0  0  0  0  0  0  0  0
   11.1327   11.1565    1.1898 C   0  0  0  0  0  0  0  0  0  0  0  0
    9.3934   13.0300    1.2638 C   0  0  0  0  0  0  0  0  0  0  0  0
    4.1881    8.0198    1.5172 N   0  0  0  0  0  0  0  0  0  0  0  0
    3.2253    7.9683    1.3180 H   0  0  0  0  0  0  0  0  0  0  0  0
    4.0738    5.6662    1.1917 C   0  0  0  0  0  0  0  0  0  0  0  0
    4.8158    6.7219    1.5794 C   0  0  0  0  0  0  0  0  0  0  0  0
    6.1252    6.5463    2.0254 C   0  0  0  0  0  0  0  0  0  0  0  0
    6.6702    5.2705    2.0801 C   0  0  0  0  0  0  0  0  0  0  0  0
    5.9075    4.1690    1.7557 C   0  0  0  0  0  0  0  0  0  0  0  0
    4.6392    4.3475    1.1920 C   0  0  0  0  0  0  0  0  0  0  0  0
    3.6988    3.2407    0.7969 C   0  0  0  0  0  0  0  0  0  0  0  0
    2.2500    3.4405    0.4644 N   0  0  0  0  0  0  0  0  0  0  0  0
    2.1703    3.9508   -0.4152 H   0  0  0  0  0  0  0  0  0  0  0  0
    1.8008    3.9738    1.2088 H   0  0  0  0  0  0  0  0  0  0  0  0
 19 18  1  0  0  0
 29 30  1  0  0  0
 29 28  1  0  0  0
 18 13  1  0  0  0
 18 20  1  0  0  0
 28 23  2  0  0  0
 28 27  1  0  0  0
 23 24  1  0  0  0
 11 13  1  0  0  0
 11  3  1  0  0  0
 13 14  1  0  0  0
 27 26  2  0  0  0
  3  4  2  0  0  0
  3 10  1  0  0  0
  4  5  1  0  0  0
 24 21  1  0  0  0
 24 25  2  0  0  0
 21  5  1  0  0  0
 10  1  2  0  0  0
  5  2  2  0  0  0
 26 25  1  0  0  0
  1  2  1  0  0  0
  1  9  1  0  0  0
  2  6  1  0  0  0
  9  8  2  0  0  0
  6  7  2  0  0  0
  8  7  1  0  0  0
 14 16  2  0  0  0
 14 15  1  0  0  0
 11 12  1  0  0  0
 15 17  1  0  0  0
 21 22  1  0  0  0
 30 31  1  0  0  0
 30 32  1  0  0  0
M  END
> <minimizedAffinity>
-7.20795

$$$$
6FUH_E88_A_301


 32 34  0  0  0  0  0  0  0  0999 V2000
    5.7140    5.9905    1.7592 C   0  0  0  0  0  0  0  0  0  0  0  0
    4.3619    6.4056    1.7262 C   0  0  0  0  0  0  0  0  0  0  0  0
    6.4396    8.1675    1.9341 C   0  0  0  0  0  0  0  0  0  0  0  0
    5.1439    8.6585    1.9530 N   0  0  0  0  0  0  0  0  0  0  0  0
    4.1029    7.7720    1.8578 C   0  0  0  0  0  0  0  0  0  0  0  0
    3.3377    5.4161    1.6491 C   0  0  0  0  0  0  0  0  0  0  0  0
    3.7213    4.0773    1.4899 C   0  0  0  0  0  0  0  0  0  0  0  0
    5.0500    3.6511    1.6396 C   0  0  0  0  0  0  0  0  0  0  0  0
    6.0795    4.6157    1.7580 C   0  0  0  0  0  0  0  0  0  0  0  0
    6.7005    6.8825    1.8063 N   0  0  0  0  0  0  0  0  0  0  0  0
    7.4416    9.0532    1.9505 N   0  0  0  0  0  0  0  0  0  0  0  0
    7.1963   10.0067    1.9531 H   0  0  0  0  0  0  0  0  0  0  0  0
    8.8738    8.7328    1.9649 C   0  0  0  0  0  0  0  0  0  0  0  0
    9.3356    8.3410    3.3694 C   0  0  0  0  0  0  0  0  0  0  0  0
    9.1674    9.1936    4.2525 O   0  0  0  0  0  0  0  0  0  0  0  0
    9.8331    7.1898    3.4903 O   0  0  0  0  0  0  0  0  0  0  0  0
    8.7835   10.0210    4.0379 H   0  0  0  0  0  0  0  0  0  0  0  0
    9.6977    9.9103    1.3985 C   0  0  0  0  0  0  0  0  0  0  0  0
   10.6997   10.3991    2.4514 C   0  0  0  0  0  0  0  0  0  0  0  0
   10.3755    9.4923    0.0821 C   0  0  0  0  0  0  0  0  0  0  0  0
    2.8600    8.2276    1.9541 N   0  0  0  0  0  0  0  0  0  0  0  0
    2.2648    7.8608    1.2610 H   0  0  0  0  0  0  0  0  0  0  0  0
    2.3154   10.4551    2.5868 C   0  0  0  0  0  0  0  0  0  0  0  0
    2.1841    9.1394    2.8455 C   0  0  0  0  0  0  0  0  0  0  0  0
    1.4326    8.6996    3.9345 C   0  0  0  0  0  0  0  0  0  0  0  0
    0.8191    9.6248    4.7682 C   0  0  0  0  0  0  0  0  0  0  0  0
    0.9972   10.9766    4.5647 C   0  0  0  0  0  0  0  0  0  0  0  0
    1.6447   11.4225    3.4071 C   0  0  0  0  0  0  0  0  0  0  0  0
    1.9131   12.8622    3.0598 C   0  0  0  0  0  0  0  0  0  0  0  0
    1.3742   14.0320    3.8282 N   0  0  0  0  0  0  0  0  0  0  0  0
    1.8200   14.0712    4.7448 H   0  0  0  0  0  0  0  0  0  0  0  0
    0.3663   13.9272    3.9445 H   0  0  0  0  0  0  0  0  0  0  0  0
 19 18  1  0  0  0
 29 30  1  0  0  0
 29 28  1  0  0  0
 18 13  1  0  0  0
 18 20  1  0  0  0
 28 23  2  0  0  0
 28 27  1  0  0  0
 23 24  1  0  0  0
 11 13  1  0  0  0
 11  3  1  0  0  0
 13 14  1  0  0  0
 27 26  2  0  0  0
  3  4  2  0  0  0
  3 10  1  0  0  0
  4  5  1  0  0  0
 24 21  1  0  0  0
 24 25  2  0  0  0
 21  5  1  0  0  0
 10  1  2  0  0  0
  5  2  2  0  0  0
 26 25  1  0  0  0
  1  2  1  0  0  0
  1  9  1  0  0  0
  2  6  1  0  0  0
  9  8  2  0  0  0
  6  7  2  0  0  0
  8  7  1  0  0  0
 14 16  2  0  0  0
 14 15  1  0  0  0
 11 12  1  0  0  0
 15 17  1  0  0  0
 21 22  1  0  0  0
 30 31  1  0  0  0
 30 32  1  0  0  0
M  END
> <minimizedAffinity>
-7.00166

$$$$
6FUH_E88_A_301


 32 34  0  0  0  0  0  0  0  0999 V2000
    6.2382    7.6954    1.9606 C   0  0  0  0  0  0  0  0  0  0  0  0
    4.8608    7.9907    1.8289 C   0  0  0  0  0  0  0  0  0  0  0  0
    6.7602    9.9295    2.1401 C   0  0  0  0  0  0  0  0  0  0  0  0
    5.4289   10.3060    2.0625 N   0  0  0  0  0  0  0  0  0  0  0  0
    4.4769    9.3310    1.9156 C   0  0  0  0  0  0  0  0  0  0  0  0
    3.9332    6.9147    1.7033 C   0  0  0  0  0  0  0  0  0  0  0  0
    4.4403    5.6123    1.5969 C   0  0  0  0  0  0  0  0  0  0  0  0
    5.7874    5.3056    1.8435 C   0  0  0  0  0  0  0  0  0  0  0  0
    6.7197    6.3578    2.0113 C   0  0  0  0  0  0  0  0  0  0  0  0
    7.1388    8.6706    2.0557 N   0  0  0  0  0  0  0  0  0  0  0  0
    7.6790   10.8994    2.2058 N   0  0  0  0  0  0  0  0  0  0  0  0
    7.4093   11.7933    1.8938 H   0  0  0  0  0  0  0  0  0  0  0  0
    9.0527   10.7518    2.7007 C   0  0  0  0  0  0  0  0  0  0  0  0
    9.0957   10.8059    4.2286 C   0  0  0  0  0  0  0  0  0  0  0  0
    9.3136    9.7299    4.8029 O   0  0  0  0  0  0  0  0  0  0  0  0
    8.9132   11.9381    4.7503 O   0  0  0  0  0  0  0  0  0  0  0  0
    9.4338    8.9473    4.3018 H   0  0  0  0  0  0  0  0  0  0  0  0
    9.9748   11.8148    2.0635 C   0  0  0  0  0  0  0  0  0  0  0  0
   11.3317   11.1886    1.7196 C   0  0  0  0  0  0  0  0  0  0  0  0
    9.2845   12.4450    0.8415 C   0  0  0  0  0  0  0  0  0  0  0  0
    3.1958    9.6779    1.9195 N   0  0  0  0  0  0  0  0  0  0  0  0
    2.8261    9.7809    1.0129 H   0  0  0  0  0  0  0  0  0  0  0  0
    2.0351   11.2255    3.3038 C   0  0  0  0  0  0  0  0  0  0  0  0
    2.2224    9.9383    2.9526 C   0  0  0  0  0  0  0  0  0  0  0  0
    1.5052    8.9186    3.5770 C   0  0  0  0  0  0  0  0  0  0  0  0
    0.5941    9.2286    4.5776 C   0  0  0  0  0  0  0  0  0  0  0  0
    0.4369   10.5306    5.0023 C   0  0  0  0  0  0  0  0  0  0  0  0
    1.0594   11.5677    4.2986 C   0  0  0  0  0  0  0  0  0  0  0  0
    0.9807   13.0288    4.6515 C   0  0  0  0  0  0  0  0  0  0  0  0
    1.1527   13.5741    6.0381 N   0  0  0  0  0  0  0  0  0  0  0  0
    2.1228   13.4581    6.3311 H   0  0  0  0  0  0  0  0  0  0  0  0
    0.5410   13.0700    6.6800 H   0  0  0  0  0  0  0  0  0  0  0  0
 19 18  1  0  0  0
 29 30  1  0  0  0
 29 28  1  0  0  0
 18 13  1  0  0  0
 18 20  1  0  0  0
 28 23  2  0  0  0
 28 27  1  0  0  0
 23 24  1  0  0  0
 11 13  1  0  0  0
 11  3  1  0  0  0
 13 14  1  0  0  0
 27 26  2  0  0  0
  3  4  2  0  0  0
  3 10  1  0  0  0
  4  5  1  0  0  0
 24 21  1  0  0  0
 24 25  2  0  0  0
 21  5  1  0  0  0
 10  1  2  0  0  0
  5  2  2  0  0  0
 26 25  1  0  0  0
  1  2  1  0  0  0
  1  9  1  0  0  0
  2  6  1  0  0  0
  9  8  2  0  0  0
  6  7  2  0  0  0
  8  7  1  0  0  0
 14 16  2  0  0  0
 14 15  1  0  0  0
 11 12  1  0  0  0
 15 17  1  0  0  0
 21 22  1  0  0  0
 30 31  1  0  0  0
 30 32  1  0  0  0
M  END
> <minimizedAffinity>
-6.85841

$$$$
6FUH_E88_A_301


 32 34  0  0  0  0  0  0  0  0999 V2000
    7.4843   13.6913    0.4565 C   0  0  0  0  0  0  0  0  0  0  0  0
    6.1070   13.6102    0.7700 C   0  0  0  0  0  0  0  0  0  0  0  0
    7.9784   11.9861    1.9208 C   0  0  0  0  0  0  0  0  0  0  0  0
    6.6451   11.8084    2.2541 N   0  0  0  0  0  0  0  0  0  0  0  0
    5.7071   12.6183    1.6686 C   0  0  0  0  0  0  0  0  0  0  0  0
    5.1940   14.4750    0.0974 C   0  0  0  0  0  0  0  0  0  0  0  0
    5.7173   15.4515   -0.7613 C   0  0  0  0  0  0  0  0  0  0  0  0
    7.0618   15.4593   -1.1632 C   0  0  0  0  0  0  0  0  0  0  0  0
    7.9789   14.5811   -0.5371 C   0  0  0  0  0  0  0  0  0  0  0  0
    8.3722   12.9195    1.0787 N   0  0  0  0  0  0  0  0  0  0  0  0
    8.8851   11.2386    2.5598 N   0  0  0  0  0  0  0  0  0  0  0  0
    9.3655   11.6604    3.3085 H   0  0  0  0  0  0  0  0  0  0  0  0
    9.2288    9.8468    2.2460 C   0  0  0  0  0  0  0  0  0  0  0  0
    9.3546    9.0106    3.5205 C   0  0  0  0  0  0  0  0  0  0  0  0
    9.4072    9.6464    4.5826 O   0  0  0  0  0  0  0  0  0  0  0  0
    9.3848    7.7607    3.3648 O   0  0  0  0  0  0  0  0  0  0  0  0
    9.3757   10.5827    4.5701 H   0  0  0  0  0  0  0  0  0  0  0  0
   10.5142    9.7861    1.3915 C   0  0  0  0  0  0  0  0  0  0  0  0
   10.1489    9.6074   -0.0871 C   0  0  0  0  0  0  0  0  0  0  0  0
   11.3731   11.0372    1.6443 C   0  0  0  0  0  0  0  0  0  0  0  0
    4.4225   12.4020    1.9232 N   0  0  0  0  0  0  0  0  0  0  0  0
    3.8854   13.2268    1.9004 H   0  0  0  0  0  0  0  0  0  0  0  0
    4.1239   10.0446    1.8148 C   0  0  0  0  0  0  0  0  0  0  0  0
    3.6354   11.2310    2.2261 C   0  0  0  0  0  0  0  0  0  0  0  0
    2.4192   11.3035    2.9040 C   0  0  0  0  0  0  0  0  0  0  0  0
    1.6970   10.1439    3.1516 C   0  0  0  0  0  0  0  0  0  0  0  0
    2.1420    8.9278    2.6790 C   0  0  0  0  0  0  0  0  0  0  0  0
    3.4164    8.8315    2.1089 C   0  0  0  0  0  0  0  0  0  0  0  0
    4.0262    7.5750    1.5480 C   0  0  0  0  0  0  0  0  0  0  0  0
    3.7514    6.1959    2.0696 N   0  0  0  0  0  0  0  0  0  0  0  0
    2.7883    5.9372    1.8558 H   0  0  0  0  0  0  0  0  0  0  0  0
    3.8914    6.1804    3.0799 H   0  0  0  0  0  0  0  0  0  0  0  0
 19 18  1  0  0  0
 29 30  1  0  0  0
 29 28  1  0  0  0
 18 13  1  0  0  0
 18 20  1  0  0  0
 28 23  2  0  0  0
 28 27  1  0  0  0
 23 24  1  0  0  0
 11 13  1  0  0  0
 11  3  1  0  0  0
 13 14  1  0  0  0
 27 26  2  0  0  0
  3  4  2  0  0  0
  3 10  1  0  0  0
  4  5  1  0  0  0
 24 21  1  0  0  0
 24 25  2  0  0  0
 21  5  1  0  0  0
 10  1  2  0  0  0
  5  2  2  0  0  0
 26 25  1  0  0  0
  1  2  1  0  0  0
  1  9  1  0  0  0
  2  6  1  0  0  0
  9  8  2  0  0  0
  6  7  2  0  0  0
  8  7  1  0  0  0
 14 16  2  0  0  0
 14 15  1  0  0  0
 11 12  1  0  0  0
 15 17  1  0  0  0
 21 22  1  0  0  0
 30 31  1  0  0  0
 30 32  1  0  0  0
M  END
> <minimizedAffinity>
-6.64852

$$$$
6FUH_E88_A_301


 32 34  0  0  0  0  0  0  0  0999 V2000
    6.1116   12.9034    1.3526 C   0  0  0  0  0  0  0  0  0  0  0  0
    4.7519   12.7305    1.7035 C   0  0  0  0  0  0  0  0  0  0  0  0
    6.4042   10.6317    1.1296 C   0  0  0  0  0  0  0  0  0  0  0  0
    5.0743   10.3736    1.4211 N   0  0  0  0  0  0  0  0  0  0  0  0
    4.2451   11.4288    1.6997 C   0  0  0  0  0  0  0  0  0  0  0  0
    3.9520   13.8839    1.9556 C   0  0  0  0  0  0  0  0  0  0  0  0
    4.5800   15.1371    1.9600 C   0  0  0  0  0  0  0  0  0  0  0  0
    5.8927   15.3238    1.5002 C   0  0  0  0  0  0  0  0  0  0  0  0
    6.6926   14.1935    1.2054 C   0  0  0  0  0  0  0  0  0  0  0  0
    6.8985   11.8528    1.1332 N   0  0  0  0  0  0  0  0  0  0  0  0
    7.2140    9.5848    0.9363 N   0  0  0  0  0  0  0  0  0  0  0  0
    6.7970    8.7465    0.6321 H   0  0  0  0  0  0  0  0  0  0  0  0
    8.6678    9.5726    1.1365 C   0  0  0  0  0  0  0  0  0  0  0  0
    9.4003    9.2601   -0.1693 C   0  0  0  0  0  0  0  0  0  0  0  0
    9.0970    9.9645   -1.1425 O   0  0  0  0  0  0  0  0  0  0  0  0
   10.2430    8.3246   -0.1242 O   0  0  0  0  0  0  0  0  0  0  0  0
    8.4492   10.6354   -1.0515 H   0  0  0  0  0  0  0  0  0  0  0  0
    9.0513    8.5835    2.2594 C   0  0  0  0  0  0  0  0  0  0  0  0
    9.4445    9.3574    3.5235 C   0  0  0  0  0  0  0  0  0  0  0  0
    7.8996    7.5930    2.5034 C   0  0  0  0  0  0  0  0  0  0  0  0
    2.9542   11.1955    1.9024 N   0  0  0  0  0  0  0  0  0  0  0  0
    2.3977   11.4317    1.1255 H   0  0  0  0  0  0  0  0  0  0  0  0
    1.7652   11.5594    3.9303 C   0  0  0  0  0  0  0  0  0  0  0  0
    2.1824   10.6738    3.0046 C   0  0  0  0  0  0  0  0  0  0  0  0
    1.8795    9.3185    3.1287 C   0  0  0  0  0  0  0  0  0  0  0  0
    1.1479    8.8722    4.2210 C   0  0  0  0  0  0  0  0  0  0  0  0
    0.7708    9.7484    5.2161 C   0  0  0  0  0  0  0  0  0  0  0  0
    0.9634   11.1229    5.0372 C   0  0  0  0  0  0  0  0  0  0  0  0
    0.6073   12.1892    6.0380 C   0  0  0  0  0  0  0  0  0  0  0  0
    1.6069   13.0694    6.7274 N   0  0  0  0  0  0  0  0  0  0  0  0
    2.0203   13.7100    6.0498 H   0  0  0  0  0  0  0  0  0  0  0  0
    2.3395   12.4927    7.1411 H   0  0  0  0  0  0  0  0  0  0  0  0
 19 18  1  0  0  0
 29 30  1  0  0  0
 29 28  1  0  0  0
 18 13  1  0  0  0
 18 20  1  0  0  0
 28 23  2  0  0  0
 28 27  1  0  0  0
 23 24  1  0  0  0
 11 13  1  0  0  0
 11  3  1  0  0  0
 13 14  1  0  0  0
 27 26  2  0  0  0
  3  4  2  0  0  0
  3 10  1  0  0  0
  4  5  1  0  0  0
 24 21  1  0  0  0
 24 25  2  0  0  0
 21  5  1  0  0  0
 10  1  2  0  0  0
  5  2  2  0  0  0
 26 25  1  0  0  0
  1  2  1  0  0  0
  1  9  1  0  0  0
  2  6  1  0  0  0
  9  8  2  0  0  0
  6  7  2  0  0  0
  8  7  1  0  0  0
 14 16  2  0  0  0
 14 15  1  0  0  0
 11 12  1  0  0  0
 15 17  1  0  0  0
 21 22  1  0  0  0
 30 31  1  0  0  0
 30 32  1  0  0  0
M  END
> <minimizedAffinity>
-6.38992

$$$$
