5OS7_A8Q_B_402


 21 22  0  0  0  0  0  0  0  0999 V2000
   -3.6051  167.0734  398.8419 C   0  0  0  0  0  0  0  0  0  0  0  0
   -3.2704  166.0625  397.9386 C   0  0  0  0  0  0  0  0  0  0  0  0
   -2.0565  166.0852  397.2753 C   0  0  0  0  0  0  0  0  0  0  0  0
   -1.1417  167.1107  397.4744 C   0  0  0  0  0  0  0  0  0  0  0  0
   -3.0785  169.5231  399.9659 Cl  0  0  0  0  0  0  0  0  0  0  0  0
   -2.6835  168.1239  399.0156 C   0  0  0  0  0  0  0  0  0  0  0  0
   -1.4679  168.1304  398.3623 C   0  0  0  0  0  0  0  0  0  0  0  0
   -4.8801  166.1324  400.7576 C   0  0  0  0  0  0  0  0  0  0  0  0
   -4.8811  166.9381  399.6113 C   0  0  0  0  0  0  0  0  0  0  0  0
   -6.1070  167.4485  399.1443 C   0  0  0  0  0  0  0  0  0  0  0  0
   -7.2889  167.1468  399.8216 C   0  0  0  0  0  0  0  0  0  0  0  0
   -7.2672  166.3324  400.9393 C   0  0  0  0  0  0  0  0  0  0  0  0
   -6.0652  165.8258  401.4067 C   0  0  0  0  0  0  0  0  0  0  0  0
   -6.1503  168.2515  397.8557 C   0  0  0  0  0  0  0  0  0  0  0  0
   -7.1675  167.6895  396.8637 C   0  0  0  0  0  0  0  0  0  0  0  0
   -6.3641  169.7468  398.0979 C   0  0  0  0  0  0  0  0  0  0  0  0
    0.1899  167.1592  396.7492 C   0  0  0  0  0  0  0  0  0  0  0  0
    0.8877  165.8827  396.6760 N   0  0  0  0  0  0  0  0  0  0  0  0
    1.1153  165.5651  397.6182 H   0  0  0  0  0  0  0  0  0  0  0  0
    1.7471  165.9953  396.1383 H   0  0  0  0  0  0  0  0  0  0  0  0
    0.2893  165.1937  396.2203 H   0  0  0  0  0  0  0  0  0  0  0  0
 13 12  2  0  0  0
 13  8  1  0  0  0
 12 11  1  0  0  0
  8  9  2  0  0  0
  5  6  1  0  0  0
 11 10  2  0  0  0
  9 10  1  0  0  0
  9  1  1  0  0  0
 10 14  1  0  0  0
  6  1  2  0  0  0
  6  7  1  0  0  0
  1  2  1  0  0  0
 16 14  1  0  0  0
  7  4  2  0  0  0
 14 15  1  0  0  0
  2  3  2  0  0  0
  4  3  1  0  0  0
  4 17  1  0  0  0
 17 18  1  0  0  0
 18 19  1  0  0  0
 18 20  1  0  0  0
 18 21  1  0  0  0
M  CHG 1  18   1
M  END
> <minimizedAffinity>
-9.51069

$$$$
5OS7_A8Q_B_402


 21 22  0  0  0  0  0  0  0  0999 V2000
   -3.6733  167.0184  398.9620 C   0  0  0  0  0  0  0  0  0  0  0  0
   -2.7841  168.0312  399.3272 C   0  0  0  0  0  0  0  0  0  0  0  0
   -1.6283  168.2492  398.5988 C   0  0  0  0  0  0  0  0  0  0  0  0
   -1.3095  167.4683  397.4958 C   0  0  0  0  0  0  0  0  0  0  0  0
   -4.2620  164.8116  397.4371 Cl  0  0  0  0  0  0  0  0  0  0  0  0
   -3.3274  166.2134  397.8596 C   0  0  0  0  0  0  0  0  0  0  0  0
   -2.1806  166.4480  397.1287 C   0  0  0  0  0  0  0  0  0  0  0  0
   -4.9919  166.0641  400.8414 C   0  0  0  0  0  0  0  0  0  0  0  0
   -4.9588  166.9015  399.7185 C   0  0  0  0  0  0  0  0  0  0  0  0
   -6.1646  167.4631  399.2578 C   0  0  0  0  0  0  0  0  0  0  0  0
   -7.3606  167.1796  399.9180 C   0  0  0  0  0  0  0  0  0  0  0  0
   -7.3729  166.3336  401.0122 C   0  0  0  0  0  0  0  0  0  0  0  0
   -6.1910  165.7765  401.4732 C   0  0  0  0  0  0  0  0  0  0  0  0
   -6.1729  168.3032  397.9923 C   0  0  0  0  0  0  0  0  0  0  0  0
   -6.9524  167.6311  396.8629 C   0  0  0  0  0  0  0  0  0  0  0  0
   -6.6534  169.7348  398.2363 C   0  0  0  0  0  0  0  0  0  0  0  0
   -0.0422  167.6845  396.6904 C   0  0  0  0  0  0  0  0  0  0  0  0
    1.0795  166.8443  397.0872 N   0  0  0  0  0  0  0  0  0  0  0  0
    1.3420  167.0595  398.0491 H   0  0  0  0  0  0  0  0  0  0  0  0
    1.8724  167.0221  396.4706 H   0  0  0  0  0  0  0  0  0  0  0  0
    0.8098  165.8629  397.0198 H   0  0  0  0  0  0  0  0  0  0  0  0
 13 12  2  0  0  0
 13  8  1  0  0  0
 12 11  1  0  0  0
  8  9  2  0  0  0
  5  6  1  0  0  0
 11 10  2  0  0  0
  9 10  1  0  0  0
  9  1  1  0  0  0
 10 14  1  0  0  0
  6  1  2  0  0  0
  6  7  1  0  0  0
  1  2  1  0  0  0
 16 14  1  0  0  0
  7  4  2  0  0  0
 14 15  1  0  0  0
  2  3  2  0  0  0
  4  3  1  0  0  0
  4 17  1  0  0  0
 17 18  1  0  0  0
 18 19  1  0  0  0
 18 20  1  0  0  0
 18 21  1  0  0  0
M  CHG 1  18   1
M  END
> <minimizedAffinity>
-8.37571

$$$$
5OS7_A8Q_B_402


 21 22  0  0  0  0  0  0  0  0999 V2000
   -4.3332  167.8769  398.4904 C   0  0  0  0  0  0  0  0  0  0  0  0
   -3.3129  168.4691  399.2374 C   0  0  0  0  0  0  0  0  0  0  0  0
   -2.0093  168.0183  399.1296 C   0  0  0  0  0  0  0  0  0  0  0  0
   -1.6752  166.9634  398.2907 C   0  0  0  0  0  0  0  0  0  0  0  0
   -5.2055  165.8617  396.8413 Cl  0  0  0  0  0  0  0  0  0  0  0  0
   -3.9896  166.7894  397.6644 C   0  0  0  0  0  0  0  0  0  0  0  0
   -2.6841  166.3566  397.5504 C   0  0  0  0  0  0  0  0  0  0  0  0
   -5.8811  169.7769  398.0715 C   0  0  0  0  0  0  0  0  0  0  0  0
   -5.7015  168.4776  398.5643 C   0  0  0  0  0  0  0  0  0  0  0  0
   -6.7654  167.8608  399.2493 C   0  0  0  0  0  0  0  0  0  0  0  0
   -7.9682  168.5453  399.4261 C   0  0  0  0  0  0  0  0  0  0  0  0
   -8.1166  169.8352  398.9494 C   0  0  0  0  0  0  0  0  0  0  0  0
   -7.0751  170.4502  398.2734 C   0  0  0  0  0  0  0  0  0  0  0  0
   -6.5707  166.4884  399.8704 C   0  0  0  0  0  0  0  0  0  0  0  0
   -5.6149  166.5285  401.0619 C   0  0  0  0  0  0  0  0  0  0  0  0
   -7.8934  165.8092  400.2298 C   0  0  0  0  0  0  0  0  0  0  0  0
   -0.2539  166.4477  398.1662 C   0  0  0  0  0  0  0  0  0  0  0  0
    0.1857  166.2048  396.7989 N   0  0  0  0  0  0  0  0  0  0  0  0
   -0.3934  165.4773  396.3797 H   0  0  0  0  0  0  0  0  0  0  0  0
    1.1601  165.9032  396.8035 H   0  0  0  0  0  0  0  0  0  0  0  0
    0.0983  167.0639  396.2560 H   0  0  0  0  0  0  0  0  0  0  0  0
 13 12  2  0  0  0
 13  8  1  0  0  0
 12 11  1  0  0  0
  8  9  2  0  0  0
  5  6  1  0  0  0
 11 10  2  0  0  0
  9 10  1  0  0  0
  9  1  1  0  0  0
 10 14  1  0  0  0
  6  1  2  0  0  0
  6  7  1  0  0  0
  1  2  1  0  0  0
 16 14  1  0  0  0
  7  4  2  0  0  0
 14 15  1  0  0  0
  2  3  2  0  0  0
  4  3  1  0  0  0
  4 17  1  0  0  0
 17 18  1  0  0  0
 18 19  1  0  0  0
 18 20  1  0  0  0
 18 21  1  0  0  0
M  CHG 1  18   1
M  END
> <minimizedAffinity>
-7.91235

$$$$
5OS7_A8Q_B_402


 21 22  0  0  0  0  0  0  0  0999 V2000
   -4.1867  167.9081  398.3791 C   0  0  0  0  0  0  0  0  0  0  0  0
   -3.9852  166.7681  397.5984 C   0  0  0  0  0  0  0  0  0  0  0  0
   -2.7346  166.1817  397.5189 C   0  0  0  0  0  0  0  0  0  0  0  0
   -1.6437  166.7082  398.1978 C   0  0  0  0  0  0  0  0  0  0  0  0
   -3.1659  169.9684  399.8807 Cl  0  0  0  0  0  0  0  0  0  0  0  0
   -3.0685  168.4513  399.0407 C   0  0  0  0  0  0  0  0  0  0  0  0
   -1.8281  167.8507  398.9692 C   0  0  0  0  0  0  0  0  0  0  0  0
   -5.8559  169.7167  398.0268 C   0  0  0  0  0  0  0  0  0  0  0  0
   -5.5813  168.4325  398.5153 C   0  0  0  0  0  0  0  0  0  0  0  0
   -6.5759  167.7621  399.2522 C   0  0  0  0  0  0  0  0  0  0  0  0
   -7.8053  168.3800  399.4831 C   0  0  0  0  0  0  0  0  0  0  0  0
   -8.0474  169.6567  399.0092 C   0  0  0  0  0  0  0  0  0  0  0  0
   -7.0747  170.3242  398.2825 C   0  0  0  0  0  0  0  0  0  0  0  0
   -6.2762  166.4065  399.8684 C   0  0  0  0  0  0  0  0  0  0  0  0
   -5.2482  166.5033  400.9947 C   0  0  0  0  0  0  0  0  0  0  0  0
   -7.5389  165.6693  400.3178 C   0  0  0  0  0  0  0  0  0  0  0  0
   -0.2624  166.0863  398.1154 C   0  0  0  0  0  0  0  0  0  0  0  0
    0.3730  166.1910  396.8088 N   0  0  0  0  0  0  0  0  0  0  0  0
   -0.1824  165.6849  396.1191 H   0  0  0  0  0  0  0  0  0  0  0  0
    1.3093  165.7886  396.8529 H   0  0  0  0  0  0  0  0  0  0  0  0
    0.4372  167.1727  396.5397 H   0  0  0  0  0  0  0  0  0  0  0  0
 13 12  2  0  0  0
 13  8  1  0  0  0
 12 11  1  0  0  0
  8  9  2  0  0  0
  5  6  1  0  0  0
 11 10  2  0  0  0
  9 10  1  0  0  0
  9  1  1  0  0  0
 10 14  1  0  0  0
  6  1  2  0  0  0
  6  7  1  0  0  0
  1  2  1  0  0  0
 16 14  1  0  0  0
  7  4  2  0  0  0
 14 15  1  0  0  0
  2  3  2  0  0  0
  4  3  1  0  0  0
  4 17  1  0  0  0
 17 18  1  0  0  0
 18 19  1  0  0  0
 18 20  1  0  0  0
 18 21  1  0  0  0
M  CHG 1  18   1
M  END
> <minimizedAffinity>
-7.54766

$$$$
5OS7_A8Q_B_402


 21 22  0  0  0  0  0  0  0  0999 V2000
   -4.9697  166.9295  399.0161 C   0  0  0  0  0  0  0  0  0  0  0  0
   -5.0550  166.4746  400.3335 C   0  0  0  0  0  0  0  0  0  0  0  0
   -6.2839  166.1888  400.9010 C   0  0  0  0  0  0  0  0  0  0  0  0
   -7.4655  166.3538  400.1904 C   0  0  0  0  0  0  0  0  0  0  0  0
   -6.1951  167.8604  396.7416 Cl  0  0  0  0  0  0  0  0  0  0  0  0
   -6.1747  167.1211  398.3131 C   0  0  0  0  0  0  0  0  0  0  0  0
   -7.3954  166.8182  398.8813 C   0  0  0  0  0  0  0  0  0  0  0  0
   -2.9874  166.0066  397.8328 C   0  0  0  0  0  0  0  0  0  0  0  0
   -3.6098  167.1158  398.4206 C   0  0  0  0  0  0  0  0  0  0  0  0
   -2.8715  168.3049  398.5711 C   0  0  0  0  0  0  0  0  0  0  0  0
   -1.5461  168.3597  398.1386 C   0  0  0  0  0  0  0  0  0  0  0  0
   -0.9452  167.2463  397.5798 C   0  0  0  0  0  0  0  0  0  0  0  0
   -1.6642  166.0716  397.4272 C   0  0  0  0  0  0  0  0  0  0  0  0
   -3.4910  169.4948  399.2835 C   0  0  0  0  0  0  0  0  0  0  0  0
   -2.5200  170.1414  400.2703 C   0  0  0  0  0  0  0  0  0  0  0  0
   -4.0801  170.5222  398.3153 C   0  0  0  0  0  0  0  0  0  0  0  0
   -8.8233  166.0561  400.7980 C   0  0  0  0  0  0  0  0  0  0  0  0
   -9.5904  167.2352  401.1761 N   0  0  0  0  0  0  0  0  0  0  0  0
   -9.0882  167.7499  401.8995 H   0  0  0  0  0  0  0  0  0  0  0  0
  -10.5015  166.9478  401.5336 H   0  0  0  0  0  0  0  0  0  0  0  0
   -9.7187  167.8335  400.3601 H   0  0  0  0  0  0  0  0  0  0  0  0
 13 12  2  0  0  0
 13  8  1  0  0  0
 12 11  1  0  0  0
  8  9  2  0  0  0
  5  6  1  0  0  0
 11 10  2  0  0  0
  9 10  1  0  0  0
  9  1  1  0  0  0
 10 14  1  0  0  0
  6  1  2  0  0  0
  6  7  1  0  0  0
  1  2  1  0  0  0
 16 14  1  0  0  0
  7  4  2  0  0  0
 14 15  1  0  0  0
  2  3  2  0  0  0
  4  3  1  0  0  0
  4 17  1  0  0  0
 17 18  1  0  0  0
 18 19  1  0  0  0
 18 20  1  0  0  0
 18 21  1  0  0  0
M  CHG 1  18   1
M  END
> <minimizedAffinity>
-6.81162

$$$$
