6EPA_BNQ_A_204


 27 30  0  0  0  0  0  0  0  0999 V2000
   -6.5051   -4.0763   11.6122 C   0  0  0  0  0  0  0  0  0  0  0  0
   -6.9846   -5.2358   12.4614 C   0  0  0  0  0  0  0  0  0  0  0  0
   -8.1151   -5.8519   12.0075 N   0  0  0  0  0  0  0  0  0  0  0  0
   -6.2706   -5.7326   13.3289 O   0  0  0  0  0  0  0  0  0  0  0  0
   -8.7338   -5.3441   11.4343 H   0  0  0  0  0  0  0  0  0  0  0  0
   -8.7682  -10.5442   11.3324 C   0  0  0  0  0  0  0  0  0  0  0  0
   -8.4226   -7.1560   12.3211 C   0  0  0  0  0  0  0  0  0  0  0  0
   -9.0805   -9.2561   13.3408 C   0  0  0  0  0  0  0  0  0  0  0  0
   -9.4687  -10.3960   14.0330 C   0  0  0  0  0  0  0  0  0  0  0  0
   -9.5048  -11.6074   13.3613 C   0  0  0  0  0  0  0  0  0  0  0  0
   -9.1583  -11.6783   12.0255 C   0  0  0  0  0  0  0  0  0  0  0  0
   -8.7255   -9.3122   11.9894 C   0  0  0  0  0  0  0  0  0  0  0  0
   -8.3556   -8.0957   11.4201 N   0  0  0  0  0  0  0  0  0  0  0  0
   -8.9450   -7.6187   13.9206 S   0  0  0  0  0  0  0  0  0  0  0  0
   -6.6994   -4.3451   10.1058 C   0  0  0  0  0  0  0  0  0  0  0  0
   -5.4544   -4.9209    9.4448 C   0  0  0  0  0  0  0  0  0  0  0  0
   -3.6435   -6.5118    9.4291 C   0  0  0  0  0  0  0  0  0  0  0  0
   -4.9945   -4.4309    8.2282 C   0  0  0  0  0  0  0  0  0  0  0  0
   -4.7675   -5.9758   10.0320 C   0  0  0  0  0  0  0  0  0  0  0  0
   -3.1925   -6.0075    8.2271 C   0  0  0  0  0  0  0  0  0  0  0  0
   -3.8690   -4.9665    7.6284 C   0  0  0  0  0  0  0  0  0  0  0  0
   -7.2044   -3.1200    9.3529 C   0  0  0  0  0  0  0  0  0  0  0  0
   -6.8901   -1.8427    9.7983 C   0  0  0  0  0  0  0  0  0  0  0  0
   -8.1351   -0.8681    7.9980 C   0  0  0  0  0  0  0  0  0  0  0  0
   -7.9986   -3.2489    8.2208 C   0  0  0  0  0  0  0  0  0  0  0  0
   -7.3506   -0.7259    9.1240 C   0  0  0  0  0  0  0  0  0  0  0  0
   -8.4584   -2.1312    7.5472 C   0  0  0  0  0  0  0  0  0  0  0  0
 17 19  2  0  0  0
 17 20  1  0  0  0
 19 16  1  0  0  0
 20 21  2  0  0  0
  4  2  2  0  0  0
 16 15  1  0  0  0
 16 18  2  0  0  0
 15  1  1  0  0  0
 15 22  1  0  0  0
 23 22  2  0  0  0
 23 26  1  0  0  0
  1  2  1  0  0  0
 21 18  1  0  0  0
  2  3  1  0  0  0
 22 25  1  0  0  0
 26 24  2  0  0  0
 13  7  2  0  0  0
 13 12  1  0  0  0
  3  7  1  0  0  0
  6 12  2  0  0  0
  6 11  1  0  0  0
 25 27  2  0  0  0
  7 14  1  0  0  0
 12  8  1  0  0  0
 24 27  1  0  0  0
 11 10  2  0  0  0
  8 14  1  0  0  0
  8  9  2  0  0  0
 10  9  1  0  0  0
  3  5  1  0  0  0
M  END
> <minimizedAffinity>
-9.64521

$$$$
6EPA_BNQ_A_204


 27 30  0  0  0  0  0  0  0  0999 V2000
   -8.2528   -3.8492   10.6981 C   0  0  0  0  0  0  0  0  0  0  0  0
   -8.3433   -5.3616   10.6970 C   0  0  0  0  0  0  0  0  0  0  0  0
   -7.8008   -5.9708   11.7916 N   0  0  0  0  0  0  0  0  0  0  0  0
   -9.0702   -5.9592    9.9072 O   0  0  0  0  0  0  0  0  0  0  0  0
   -7.1025   -5.4979   12.2995 H   0  0  0  0  0  0  0  0  0  0  0  0
   -8.5303  -10.6959   11.5891 C   0  0  0  0  0  0  0  0  0  0  0  0
   -8.1932   -7.2210   12.2119 C   0  0  0  0  0  0  0  0  0  0  0  0
   -9.0530   -9.1688   13.3737 C   0  0  0  0  0  0  0  0  0  0  0  0
   -9.5686  -10.2086   14.1368 C   0  0  0  0  0  0  0  0  0  0  0  0
   -9.5612  -11.4912   13.6125 C   0  0  0  0  0  0  0  0  0  0  0  0
   -9.0476  -11.7298   12.3521 C   0  0  0  0  0  0  0  0  0  0  0  0
   -8.5285   -9.3948   12.0974 C   0  0  0  0  0  0  0  0  0  0  0  0
   -8.0442   -8.2637   11.4439 N   0  0  0  0  0  0  0  0  0  0  0  0
   -8.9346   -7.4764   13.7709 S   0  0  0  0  0  0  0  0  0  0  0  0
   -7.5574   -3.3117    9.4306 C   0  0  0  0  0  0  0  0  0  0  0  0
   -6.1389   -3.8405    9.2677 C   0  0  0  0  0  0  0  0  0  0  0  0
   -3.9646   -4.3095   10.1969 C   0  0  0  0  0  0  0  0  0  0  0  0
   -5.7087   -4.3857    8.0638 C   0  0  0  0  0  0  0  0  0  0  0  0
   -5.2504   -3.8181   10.3354 C   0  0  0  0  0  0  0  0  0  0  0  0
   -3.5484   -4.8375    8.9924 C   0  0  0  0  0  0  0  0  0  0  0  0
   -4.4218   -4.8741    7.9267 C   0  0  0  0  0  0  0  0  0  0  0  0
   -7.5897   -1.7903    9.3457 C   0  0  0  0  0  0  0  0  0  0  0  0
   -7.9360   -1.1601    8.1577 C   0  0  0  0  0  0  0  0  0  0  0  0
   -7.6361    0.9916    9.1680 C   0  0  0  0  0  0  0  0  0  0  0  0
   -7.2606   -1.0022   10.4410 C   0  0  0  0  0  0  0  0  0  0  0  0
   -7.9609    0.2204    8.0712 C   0  0  0  0  0  0  0  0  0  0  0  0
   -7.2860    0.3785   10.3532 C   0  0  0  0  0  0  0  0  0  0  0  0
 17 19  2  0  0  0
 17 20  1  0  0  0
 19 16  1  0  0  0
 20 21  2  0  0  0
  4  2  2  0  0  0
 16 15  1  0  0  0
 16 18  2  0  0  0
 15  1  1  0  0  0
 15 22  1  0  0  0
 23 22  2  0  0  0
 23 26  1  0  0  0
  1  2  1  0  0  0
 21 18  1  0  0  0
  2  3  1  0  0  0
 22 25  1  0  0  0
 26 24  2  0  0  0
 13  7  2  0  0  0
 13 12  1  0  0  0
  3  7  1  0  0  0
  6 12  2  0  0  0
  6 11  1  0  0  0
 25 27  2  0  0  0
  7 14  1  0  0  0
 12  8  1  0  0  0
 24 27  1  0  0  0
 11 10  2  0  0  0
  8 14  1  0  0  0
  8  9  2  0  0  0
 10  9  1  0  0  0
  3  5  1  0  0  0
M  END
> <minimizedAffinity>
-9.02487

$$$$
6EPA_BNQ_A_204


 27 30  0  0  0  0  0  0  0  0999 V2000
   -7.8624   -4.1833   10.0217 C   0  0  0  0  0  0  0  0  0  0  0  0
   -8.1496   -5.1352   11.1649 C   0  0  0  0  0  0  0  0  0  0  0  0
   -9.1130   -6.0678   10.9083 N   0  0  0  0  0  0  0  0  0  0  0  0
   -7.3982   -5.2183   12.1333 O   0  0  0  0  0  0  0  0  0  0  0  0
   -9.7884   -5.8738   10.2188 H   0  0  0  0  0  0  0  0  0  0  0  0
   -8.7526  -10.7896   11.5964 C   0  0  0  0  0  0  0  0  0  0  0  0
   -9.1758   -7.2687   11.5771 C   0  0  0  0  0  0  0  0  0  0  0  0
   -9.4768   -9.0954   13.1441 C   0  0  0  0  0  0  0  0  0  0  0  0
   -9.6816  -10.0553   14.1269 C   0  0  0  0  0  0  0  0  0  0  0  0
   -9.4195  -11.3833   13.8307 C   0  0  0  0  0  0  0  0  0  0  0  0
   -8.9605  -11.7442   12.5784 C   0  0  0  0  0  0  0  0  0  0  0  0
   -9.0112   -9.4450   11.8728 C   0  0  0  0  0  0  0  0  0  0  0  0
   -8.8495   -8.3834   10.9853 N   0  0  0  0  0  0  0  0  0  0  0  0
   -9.7202   -7.3724   13.2319 S   0  0  0  0  0  0  0  0  0  0  0  0
   -6.4880   -3.4994   10.1715 C   0  0  0  0  0  0  0  0  0  0  0  0
   -6.4628   -2.0935    9.5874 C   0  0  0  0  0  0  0  0  0  0  0  0
   -7.4761   -0.3748    8.2345 C   0  0  0  0  0  0  0  0  0  0  0  0
   -5.4378   -1.2061    9.8934 C   0  0  0  0  0  0  0  0  0  0  0  0
   -7.4870   -1.6557    8.7573 C   0  0  0  0  0  0  0  0  0  0  0  0
   -6.4462    0.4910    8.5383 C   0  0  0  0  0  0  0  0  0  0  0  0
   -5.4275    0.0733    9.3675 C   0  0  0  0  0  0  0  0  0  0  0  0
   -5.3492   -4.3459    9.6154 C   0  0  0  0  0  0  0  0  0  0  0  0
   -5.1133   -4.3950    8.2478 C   0  0  0  0  0  0  0  0  0  0  0  0
   -3.2817   -5.9035    8.5800 C   0  0  0  0  0  0  0  0  0  0  0  0
   -4.5352   -5.0961   10.4544 C   0  0  0  0  0  0  0  0  0  0  0  0
   -4.0857   -5.1665    7.7352 C   0  0  0  0  0  0  0  0  0  0  0  0
   -3.5078   -5.8672    9.9404 C   0  0  0  0  0  0  0  0  0  0  0  0
 17 19  2  0  0  0
 17 20  1  0  0  0
 19 16  1  0  0  0
 20 21  2  0  0  0
  4  2  2  0  0  0
 16 15  1  0  0  0
 16 18  2  0  0  0
 15  1  1  0  0  0
 15 22  1  0  0  0
 23 22  2  0  0  0
 23 26  1  0  0  0
  1  2  1  0  0  0
 21 18  1  0  0  0
  2  3  1  0  0  0
 22 25  1  0  0  0
 26 24  2  0  0  0
 13  7  2  0  0  0
 13 12  1  0  0  0
  3  7  1  0  0  0
  6 12  2  0  0  0
  6 11  1  0  0  0
 25 27  2  0  0  0
  7 14  1  0  0  0
 12  8  1  0  0  0
 24 27  1  0  0  0
 11 10  2  0  0  0
  8 14  1  0  0  0
  8  9  2  0  0  0
 10  9  1  0  0  0
  3  5  1  0  0  0
M  END
> <minimizedAffinity>
-8.90163

$$$$
6EPA_BNQ_A_204


 27 30  0  0  0  0  0  0  0  0999 V2000
   -7.9409   -3.5529    9.3594 C   0  0  0  0  0  0  0  0  0  0  0  0
   -8.5953   -4.4152   10.4195 C   0  0  0  0  0  0  0  0  0  0  0  0
   -8.3159   -5.7485   10.3292 N   0  0  0  0  0  0  0  0  0  0  0  0
   -9.1145   -3.9204   11.4170 O   0  0  0  0  0  0  0  0  0  0  0  0
   -8.0514   -6.1189    9.4563 H   0  0  0  0  0  0  0  0  0  0  0  0
   -9.6986   -9.5198   12.9300 C   0  0  0  0  0  0  0  0  0  0  0  0
   -8.3900   -6.5940   11.4122 C   0  0  0  0  0  0  0  0  0  0  0  0
   -8.2115   -7.7315   13.5470 C   0  0  0  0  0  0  0  0  0  0  0  0
   -8.0265   -8.2946   14.8032 C   0  0  0  0  0  0  0  0  0  0  0  0
   -8.6866   -9.4730   15.1125 C   0  0  0  0  0  0  0  0  0  0  0  0
   -9.5134  -10.0770   14.1846 C   0  0  0  0  0  0  0  0  0  0  0  0
   -9.0437   -8.3318   12.5971 C   0  0  0  0  0  0  0  0  0  0  0  0
   -9.1375   -7.6614   11.3794 N   0  0  0  0  0  0  0  0  0  0  0  0
   -7.5196   -6.2734   12.8905 S   0  0  0  0  0  0  0  0  0  0  0  0
   -6.5508   -3.0511    9.8008 C   0  0  0  0  0  0  0  0  0  0  0  0
   -6.2333   -1.6577    9.2754 C   0  0  0  0  0  0  0  0  0  0  0  0
   -4.6924    0.1786    9.0223 C   0  0  0  0  0  0  0  0  0  0  0  0
   -7.1605   -0.9436    8.5256 C   0  0  0  0  0  0  0  0  0  0  0  0
   -4.9910   -1.0816    9.5088 C   0  0  0  0  0  0  0  0  0  0  0  0
   -5.6269    0.8799    8.2891 C   0  0  0  0  0  0  0  0  0  0  0  0
   -6.8607    0.3174    8.0423 C   0  0  0  0  0  0  0  0  0  0  0  0
   -5.4377   -4.0341    9.4584 C   0  0  0  0  0  0  0  0  0  0  0  0
   -5.0699   -4.2464    8.1362 C   0  0  0  0  0  0  0  0  0  0  0  0
   -3.4160   -5.8424    8.8132 C   0  0  0  0  0  0  0  0  0  0  0  0
   -4.7793   -4.7487   10.4509 C   0  0  0  0  0  0  0  0  0  0  0  0
   -4.0651   -5.1423    7.8172 C   0  0  0  0  0  0  0  0  0  0  0  0
   -3.7744   -5.6443   10.1306 C   0  0  0  0  0  0  0  0  0  0  0  0
 17 19  2  0  0  0
 17 20  1  0  0  0
 19 16  1  0  0  0
 20 21  2  0  0  0
  4  2  2  0  0  0
 16 15  1  0  0  0
 16 18  2  0  0  0
 15  1  1  0  0  0
 15 22  1  0  0  0
 23 22  2  0  0  0
 23 26  1  0  0  0
  1  2  1  0  0  0
 21 18  1  0  0  0
  2  3  1  0  0  0
 22 25  1  0  0  0
 26 24  2  0  0  0
 13  7  2  0  0  0
 13 12  1  0  0  0
  3  7  1  0  0  0
  6 12  2  0  0  0
  6 11  1  0  0  0
 25 27  2  0  0  0
  7 14  1  0  0  0
 12  8  1  0  0  0
 24 27  1  0  0  0
 11 10  2  0  0  0
  8 14  1  0  0  0
  8  9  2  0  0  0
 10  9  1  0  0  0
  3  5  1  0  0  0
M  END
> <minimizedAffinity>
-8.59584

$$$$
6EPA_BNQ_A_204


 27 30  0  0  0  0  0  0  0  0999 V2000
   -8.2348   -4.4853    9.4534 C   0  0  0  0  0  0  0  0  0  0  0  0
   -8.6888   -3.0451    9.5768 C   0  0  0  0  0  0  0  0  0  0  0  0
   -7.7357   -2.1142    9.2787 N   0  0  0  0  0  0  0  0  0  0  0  0
   -9.8781   -2.7552    9.6817 O   0  0  0  0  0  0  0  0  0  0  0  0
   -6.7871   -2.3634    9.3643 H   0  0  0  0  0  0  0  0  0  0  0  0
   -7.8995    2.6676    9.3574 C   0  0  0  0  0  0  0  0  0  0  0  0
   -8.0509   -0.8409    8.8633 C   0  0  0  0  0  0  0  0  0  0  0  0
   -8.8672    1.1560    7.7546 C   0  0  0  0  0  0  0  0  0  0  0  0
   -9.3814    2.2241    7.0307 C   0  0  0  0  0  0  0  0  0  0  0  0
   -9.1489    3.5131    7.4829 C   0  0  0  0  0  0  0  0  0  0  0  0
   -8.4161    3.7301    8.6341 C   0  0  0  0  0  0  0  0  0  0  0  0
   -8.1225    1.3597    8.9204 C   0  0  0  0  0  0  0  0  0  0  0  0
   -7.6666    0.2012    9.5457 N   0  0  0  0  0  0  0  0  0  0  0  0
   -9.0009   -0.5503    7.4285 S   0  0  0  0  0  0  0  0  0  0  0  0
   -7.2909   -4.8934   10.6030 C   0  0  0  0  0  0  0  0  0  0  0  0
   -5.9616   -5.4452   10.1061 C   0  0  0  0  0  0  0  0  0  0  0  0
   -4.0952   -5.3430    8.5841 C   0  0  0  0  0  0  0  0  0  0  0  0
   -5.3537   -6.5275   10.7313 C   0  0  0  0  0  0  0  0  0  0  0  0
   -5.3097   -4.8541    9.0313 C   0  0  0  0  0  0  0  0  0  0  0  0
   -3.5094   -6.4249    9.2077 C   0  0  0  0  0  0  0  0  0  0  0  0
   -4.1406   -7.0163   10.2809 C   0  0  0  0  0  0  0  0  0  0  0  0
   -7.9492   -5.8511   11.5889 C   0  0  0  0  0  0  0  0  0  0  0  0
   -8.9233   -6.7425   11.1587 C   0  0  0  0  0  0  0  0  0  0  0  0
   -9.1765   -7.5973   13.3826 C   0  0  0  0  0  0  0  0  0  0  0  0
   -7.6058   -5.8455   12.9347 C   0  0  0  0  0  0  0  0  0  0  0  0
   -9.5301   -7.6101   12.0492 C   0  0  0  0  0  0  0  0  0  0  0  0
   -8.2134   -6.7139   13.8243 C   0  0  0  0  0  0  0  0  0  0  0  0
 17 19  2  0  0  0
 17 20  1  0  0  0
 19 16  1  0  0  0
 20 21  2  0  0  0
  4  2  2  0  0  0
 16 15  1  0  0  0
 16 18  2  0  0  0
 15  1  1  0  0  0
 15 22  1  0  0  0
 23 22  2  0  0  0
 23 26  1  0  0  0
  1  2  1  0  0  0
 21 18  1  0  0  0
  2  3  1  0  0  0
 22 25  1  0  0  0
 26 24  2  0  0  0
 13  7  2  0  0  0
 13 12  1  0  0  0
  3  7  1  0  0  0
  6 12  2  0  0  0
  6 11  1  0  0  0
 25 27  2  0  0  0
  7 14  1  0  0  0
 12  8  1  0  0  0
 24 27  1  0  0  0
 11 10  2  0  0  0
  8 14  1  0  0  0
  8  9  2  0  0  0
 10  9  1  0  0  0
  3  5  1  0  0  0
M  END
> <minimizedAffinity>
-8.33107

$$$$
6EPA_BNQ_A_204


 27 30  0  0  0  0  0  0  0  0999 V2000
   -8.0133   -4.3161    9.1889 C   0  0  0  0  0  0  0  0  0  0  0  0
   -8.2089   -2.8704    9.5978 C   0  0  0  0  0  0  0  0  0  0  0  0
   -7.3853   -1.9794    8.9720 N   0  0  0  0  0  0  0  0  0  0  0  0
   -9.1947   -2.5136   10.2382 O   0  0  0  0  0  0  0  0  0  0  0  0
   -6.5273   -2.3002    8.6112 H   0  0  0  0  0  0  0  0  0  0  0  0
   -9.2891    1.9333    6.9806 C   0  0  0  0  0  0  0  0  0  0  0  0
   -7.7092   -0.6500    8.8264 C   0  0  0  0  0  0  0  0  0  0  0  0
   -7.9917    1.7528    8.9991 C   0  0  0  0  0  0  0  0  0  0  0  0
   -8.0914    3.1225    9.2070 C   0  0  0  0  0  0  0  0  0  0  0  0
   -8.7930    3.8894    8.2907 C   0  0  0  0  0  0  0  0  0  0  0  0
   -9.3842    3.2992    7.1901 C   0  0  0  0  0  0  0  0  0  0  0  0
   -8.5859    1.1409    7.8910 C   0  0  0  0  0  0  0  0  0  0  0  0
   -8.4086   -0.2383    7.8063 N   0  0  0  0  0  0  0  0  0  0  0  0
   -7.1814    0.5560    9.9721 S   0  0  0  0  0  0  0  0  0  0  0  0
   -7.0659   -5.0643   10.1489 C   0  0  0  0  0  0  0  0  0  0  0  0
   -6.9251   -4.3708   11.4971 C   0  0  0  0  0  0  0  0  0  0  0  0
   -7.6647   -4.0502   13.7688 C   0  0  0  0  0  0  0  0  0  0  0  0
   -5.9079   -3.4529   11.7306 C   0  0  0  0  0  0  0  0  0  0  0  0
   -7.7962   -4.6674   12.5376 C   0  0  0  0  0  0  0  0  0  0  0  0
   -6.6569   -3.1329   13.9822 C   0  0  0  0  0  0  0  0  0  0  0  0
   -5.7798   -2.8350   12.9615 C   0  0  0  0  0  0  0  0  0  0  0  0
   -5.7017   -5.3403    9.5280 C   0  0  0  0  0  0  0  0  0  0  0  0
   -4.8385   -6.2602   10.1087 C   0  0  0  0  0  0  0  0  0  0  0  0
   -3.1954   -5.8438    8.4154 C   0  0  0  0  0  0  0  0  0  0  0  0
   -5.2843   -4.6724    8.3839 C   0  0  0  0  0  0  0  0  0  0  0  0
   -3.5959   -6.5109    9.5546 C   0  0  0  0  0  0  0  0  0  0  0  0
   -4.0413   -4.9242    7.8306 C   0  0  0  0  0  0  0  0  0  0  0  0
 17 19  2  0  0  0
 17 20  1  0  0  0
 19 16  1  0  0  0
 20 21  2  0  0  0
  4  2  2  0  0  0
 16 15  1  0  0  0
 16 18  2  0  0  0
 15  1  1  0  0  0
 15 22  1  0  0  0
 23 22  2  0  0  0
 23 26  1  0  0  0
  1  2  1  0  0  0
 21 18  1  0  0  0
  2  3  1  0  0  0
 22 25  1  0  0  0
 26 24  2  0  0  0
 13  7  2  0  0  0
 13 12  1  0  0  0
  3  7  1  0  0  0
  6 12  2  0  0  0
  6 11  1  0  0  0
 25 27  2  0  0  0
  7 14  1  0  0  0
 12  8  1  0  0  0
 24 27  1  0  0  0
 11 10  2  0  0  0
  8 14  1  0  0  0
  8  9  2  0  0  0
 10  9  1  0  0  0
  3  5  1  0  0  0
M  END
> <minimizedAffinity>
-8.24657

$$$$
6EPA_BNQ_A_204


 27 30  0  0  0  0  0  0  0  0999 V2000
   -7.0452   -4.2775   10.4578 C   0  0  0  0  0  0  0  0  0  0  0  0
   -7.1647   -5.4013   11.4669 C   0  0  0  0  0  0  0  0  0  0  0  0
   -8.4264   -5.8970   11.6286 N   0  0  0  0  0  0  0  0  0  0  0  0
   -6.1722   -5.9809   11.9006 O   0  0  0  0  0  0  0  0  0  0  0  0
   -9.1936   -5.3212   11.4071 H   0  0  0  0  0  0  0  0  0  0  0  0
   -9.0957  -10.6317   11.4443 C   0  0  0  0  0  0  0  0  0  0  0  0
   -8.6663   -7.1711   12.0896 C   0  0  0  0  0  0  0  0  0  0  0  0
   -9.1410   -9.1802   13.3629 C   0  0  0  0  0  0  0  0  0  0  0  0
   -9.4100  -10.2591   14.1954 C   0  0  0  0  0  0  0  0  0  0  0  0
   -9.5218  -11.5229   13.6383 C   0  0  0  0  0  0  0  0  0  0  0  0
   -9.3664  -11.7047   12.2774 C   0  0  0  0  0  0  0  0  0  0  0  0
   -8.9797   -9.3486   11.9842 C   0  0  0  0  0  0  0  0  0  0  0  0
   -8.7127   -8.1831   11.2693 N   0  0  0  0  0  0  0  0  0  0  0  0
   -8.9504   -7.4992   13.7800 S   0  0  0  0  0  0  0  0  0  0  0  0
   -7.8941   -3.0524   10.8550 C   0  0  0  0  0  0  0  0  0  0  0  0
   -8.3400   -2.2302    9.6536 C   0  0  0  0  0  0  0  0  0  0  0  0
   -9.9869   -1.7133    7.9709 C   0  0  0  0  0  0  0  0  0  0  0  0
   -7.5468   -1.2067    9.1485 C   0  0  0  0  0  0  0  0  0  0  0  0
   -9.5708   -2.4663    9.0544 C   0  0  0  0  0  0  0  0  0  0  0  0
   -9.1838   -0.7082    7.4737 C   0  0  0  0  0  0  0  0  0  0  0  0
   -7.9636   -0.4567    8.0635 C   0  0  0  0  0  0  0  0  0  0  0  0
   -7.2068   -2.1765   11.8957 C   0  0  0  0  0  0  0  0  0  0  0  0
   -7.9500   -1.3090   12.6853 C   0  0  0  0  0  0  0  0  0  0  0  0
   -5.9633   -0.5539   13.7914 C   0  0  0  0  0  0  0  0  0  0  0  0
   -5.8290   -2.2118   12.0680 C   0  0  0  0  0  0  0  0  0  0  0  0
   -7.3323   -0.5059   13.6273 C   0  0  0  0  0  0  0  0  0  0  0  0
   -5.2124   -1.4081   13.0106 C   0  0  0  0  0  0  0  0  0  0  0  0
 17 19  2  0  0  0
 17 20  1  0  0  0
 19 16  1  0  0  0
 20 21  2  0  0  0
  4  2  2  0  0  0
 16 15  1  0  0  0
 16 18  2  0  0  0
 15  1  1  0  0  0
 15 22  1  0  0  0
 23 22  2  0  0  0
 23 26  1  0  0  0
  1  2  1  0  0  0
 21 18  1  0  0  0
  2  3  1  0  0  0
 22 25  1  0  0  0
 26 24  2  0  0  0
 13  7  2  0  0  0
 13 12  1  0  0  0
  3  7  1  0  0  0
  6 12  2  0  0  0
  6 11  1  0  0  0
 25 27  2  0  0  0
  7 14  1  0  0  0
 12  8  1  0  0  0
 24 27  1  0  0  0
 11 10  2  0  0  0
  8 14  1  0  0  0
  8  9  2  0  0  0
 10  9  1  0  0  0
  3  5  1  0  0  0
M  END
> <minimizedAffinity>
-8.11808

$$$$
6EPA_BNQ_A_204


 27 30  0  0  0  0  0  0  0  0999 V2000
   -9.1674   -7.1350   11.4353 C   0  0  0  0  0  0  0  0  0  0  0  0
   -8.6796   -5.7024   11.3643 C   0  0  0  0  0  0  0  0  0  0  0  0
   -8.0332   -5.3718   10.2082 N   0  0  0  0  0  0  0  0  0  0  0  0
   -9.0638   -4.8545   12.1660 O   0  0  0  0  0  0  0  0  0  0  0  0
   -7.6065   -6.0868    9.6829 H   0  0  0  0  0  0  0  0  0  0  0  0
   -9.3403   -1.4022    7.8773 C   0  0  0  0  0  0  0  0  0  0  0  0
   -7.9554   -4.0769    9.7494 C   0  0  0  0  0  0  0  0  0  0  0  0
   -7.3556   -1.7969    9.1793 C   0  0  0  0  0  0  0  0  0  0  0  0
   -6.9103   -0.5060    8.9250 C   0  0  0  0  0  0  0  0  0  0  0  0
   -7.6904    0.3291    8.1413 C   0  0  0  0  0  0  0  0  0  0  0  0
   -8.8916   -0.1164    7.6239 C   0  0  0  0  0  0  0  0  0  0  0  0
   -8.5696   -2.2615    8.6640 C   0  0  0  0  0  0  0  0  0  0  0  0
   -8.8945   -3.5744    8.9978 N   0  0  0  0  0  0  0  0  0  0  0  0
   -6.5926   -3.0509   10.1180 S   0  0  0  0  0  0  0  0  0  0  0  0
   -8.6021   -7.8770   12.6637 C   0  0  0  0  0  0  0  0  0  0  0  0
   -7.1027   -7.6755   12.8351 C   0  0  0  0  0  0  0  0  0  0  0  0
   -5.2385   -6.8625   14.1293 C   0  0  0  0  0  0  0  0  0  0  0  0
   -6.2007   -8.1513   11.8908 C   0  0  0  0  0  0  0  0  0  0  0  0
   -6.6008   -7.0365   13.9618 C   0  0  0  0  0  0  0  0  0  0  0  0
   -4.3561   -7.3303   13.1779 C   0  0  0  0  0  0  0  0  0  0  0  0
   -4.8392   -7.9740   12.0588 C   0  0  0  0  0  0  0  0  0  0  0  0
   -8.9615   -9.3581   12.6695 C   0  0  0  0  0  0  0  0  0  0  0  0
   -9.1629  -10.0369   11.4749 C   0  0  0  0  0  0  0  0  0  0  0  0
   -9.6374  -12.0629   12.6627 C   0  0  0  0  0  0  0  0  0  0  0  0
   -9.1114  -10.0567   13.8606 C   0  0  0  0  0  0  0  0  0  0  0  0
   -9.4961  -11.3796   11.4725 C   0  0  0  0  0  0  0  0  0  0  0  0
   -9.4445  -11.3997   13.8569 C   0  0  0  0  0  0  0  0  0  0  0  0
 17 19  2  0  0  0
 17 20  1  0  0  0
 19 16  1  0  0  0
 20 21  2  0  0  0
  4  2  2  0  0  0
 16 15  1  0  0  0
 16 18  2  0  0  0
 15  1  1  0  0  0
 15 22  1  0  0  0
 23 22  2  0  0  0
 23 26  1  0  0  0
  1  2  1  0  0  0
 21 18  1  0  0  0
  2  3  1  0  0  0
 22 25  1  0  0  0
 26 24  2  0  0  0
 13  7  2  0  0  0
 13 12  1  0  0  0
  3  7  1  0  0  0
  6 12  2  0  0  0
  6 11  1  0  0  0
 25 27  2  0  0  0
  7 14  1  0  0  0
 12  8  1  0  0  0
 24 27  1  0  0  0
 11 10  2  0  0  0
  8 14  1  0  0  0
  8  9  2  0  0  0
 10  9  1  0  0  0
  3  5  1  0  0  0
M  END
> <minimizedAffinity>
-8.10876

$$$$
6EPA_BNQ_A_204


 27 30  0  0  0  0  0  0  0  0999 V2000
   -5.8921   -8.0522   12.3010 C   0  0  0  0  0  0  0  0  0  0  0  0
   -5.9578   -6.9626   11.2504 C   0  0  0  0  0  0  0  0  0  0  0  0
   -7.1861   -6.3875   11.0944 N   0  0  0  0  0  0  0  0  0  0  0  0
   -4.9382   -6.4699   10.7739 O   0  0  0  0  0  0  0  0  0  0  0  0
   -7.9855   -6.9001   11.3542 H   0  0  0  0  0  0  0  0  0  0  0  0
   -8.0506   -2.9822    7.8454 C   0  0  0  0  0  0  0  0  0  0  0  0
   -7.3491   -5.1186   10.5877 C   0  0  0  0  0  0  0  0  0  0  0  0
   -7.5006   -2.7333   10.1748 C   0  0  0  0  0  0  0  0  0  0  0  0
   -7.5650   -1.3505   10.0608 C   0  0  0  0  0  0  0  0  0  0  0  0
   -7.8720   -0.7938    8.8296 C   0  0  0  0  0  0  0  0  0  0  0  0
   -8.1113   -1.6027    7.7352 C   0  0  0  0  0  0  0  0  0  0  0  0
   -7.7419   -3.5649    9.0768 C   0  0  0  0  0  0  0  0  0  0  0  0
   -7.6453   -4.9311    9.3322 N   0  0  0  0  0  0  0  0  0  0  0  0
   -7.1403   -3.6983   11.5800 S   0  0  0  0  0  0  0  0  0  0  0  0
   -6.3464   -9.4176   11.7455 C   0  0  0  0  0  0  0  0  0  0  0  0
   -7.5758   -9.9641   12.4583 C   0  0  0  0  0  0  0  0  0  0  0  0
   -9.4526  -11.4754   12.5250 C   0  0  0  0  0  0  0  0  0  0  0  0
   -7.9425   -9.5011   13.7165 C   0  0  0  0  0  0  0  0  0  0  0  0
   -8.3422  -10.9657   11.8760 C   0  0  0  0  0  0  0  0  0  0  0  0
   -9.8106  -10.9980   13.7687 C   0  0  0  0  0  0  0  0  0  0  0  0
   -9.0546  -10.0103   14.3626 C   0  0  0  0  0  0  0  0  0  0  0  0
   -5.2209  -10.4451   11.7254 C   0  0  0  0  0  0  0  0  0  0  0  0
   -4.2415  -10.3952   10.7422 C   0  0  0  0  0  0  0  0  0  0  0  0
   -3.1655  -12.3277   11.6633 C   0  0  0  0  0  0  0  0  0  0  0  0
   -5.1560  -11.4587   12.6729 C   0  0  0  0  0  0  0  0  0  0  0  0
   -3.2207  -11.3286   10.7135 C   0  0  0  0  0  0  0  0  0  0  0  0
   -4.1345  -12.3915   12.6431 C   0  0  0  0  0  0  0  0  0  0  0  0
 17 19  2  0  0  0
 17 20  1  0  0  0
 19 16  1  0  0  0
 20 21  2  0  0  0
  4  2  2  0  0  0
 16 15  1  0  0  0
 16 18  2  0  0  0
 15  1  1  0  0  0
 15 22  1  0  0  0
 23 22  2  0  0  0
 23 26  1  0  0  0
  1  2  1  0  0  0
 21 18  1  0  0  0
  2  3  1  0  0  0
 22 25  1  0  0  0
 26 24  2  0  0  0
 13  7  2  0  0  0
 13 12  1  0  0  0
  3  7  1  0  0  0
  6 12  2  0  0  0
  6 11  1  0  0  0
 25 27  2  0  0  0
  7 14  1  0  0  0
 12  8  1  0  0  0
 24 27  1  0  0  0
 11 10  2  0  0  0
  8 14  1  0  0  0
  8  9  2  0  0  0
 10  9  1  0  0  0
  3  5  1  0  0  0
M  END
> <minimizedAffinity>
-7.98501

$$$$
6EPA_BNQ_A_204


 27 30  0  0  0  0  0  0  0  0999 V2000
   -7.8885   -1.4919    8.1830 C   0  0  0  0  0  0  0  0  0  0  0  0
   -8.5485   -2.6737    8.8636 C   0  0  0  0  0  0  0  0  0  0  0  0
   -7.6878   -3.6360    9.3072 N   0  0  0  0  0  0  0  0  0  0  0  0
   -9.7262   -2.6367    9.2116 O   0  0  0  0  0  0  0  0  0  0  0  0
   -6.8056   -3.7169    8.8778 H   0  0  0  0  0  0  0  0  0  0  0  0
   -9.4806   -7.5263   11.4405 C   0  0  0  0  0  0  0  0  0  0  0  0
   -8.0067   -4.4972   10.3319 C   0  0  0  0  0  0  0  0  0  0  0  0
   -8.3630   -5.6439   12.4393 C   0  0  0  0  0  0  0  0  0  0  0  0
   -8.5038   -6.2070   13.7013 C   0  0  0  0  0  0  0  0  0  0  0  0
   -9.1386   -7.4329   13.8203 C   0  0  0  0  0  0  0  0  0  0  0  0
   -9.6213   -8.0834   12.7009 C   0  0  0  0  0  0  0  0  0  0  0  0
   -8.8448   -6.2908   11.2971 C   0  0  0  0  0  0  0  0  0  0  0  0
   -8.6355   -5.6147   10.0971 N   0  0  0  0  0  0  0  0  0  0  0  0
   -7.6190   -4.1327   11.9940 S   0  0  0  0  0  0  0  0  0  0  0  0
   -7.7358   -0.2885    9.1357 C   0  0  0  0  0  0  0  0  0  0  0  0
   -8.2777    1.0049    8.5428 C   0  0  0  0  0  0  0  0  0  0  0  0
   -8.5416    3.3989    8.6416 C   0  0  0  0  0  0  0  0  0  0  0  0
   -8.9688    1.0088    7.3369 C   0  0  0  0  0  0  0  0  0  0  0  0
   -8.0631    2.2190    9.1828 C   0  0  0  0  0  0  0  0  0  0  0  0
   -9.2355    3.3856    7.4496 C   0  0  0  0  0  0  0  0  0  0  0  0
   -9.4487    2.1893    6.7989 C   0  0  0  0  0  0  0  0  0  0  0  0
   -6.3046   -0.1098    9.6282 C   0  0  0  0  0  0  0  0  0  0  0  0
   -5.2883    0.2035    8.7352 C   0  0  0  0  0  0  0  0  0  0  0  0
   -3.6781    0.2028   10.5095 C   0  0  0  0  0  0  0  0  0  0  0  0
   -5.9806   -0.2703   10.9693 C   0  0  0  0  0  0  0  0  0  0  0  0
   -3.9856    0.3606    9.1739 C   0  0  0  0  0  0  0  0  0  0  0  0
   -4.6773   -0.1128   11.4067 C   0  0  0  0  0  0  0  0  0  0  0  0
 17 19  2  0  0  0
 17 20  1  0  0  0
 19 16  1  0  0  0
 20 21  2  0  0  0
  4  2  2  0  0  0
 16 15  1  0  0  0
 16 18  2  0  0  0
 15  1  1  0  0  0
 15 22  1  0  0  0
 23 22  2  0  0  0
 23 26  1  0  0  0
  1  2  1  0  0  0
 21 18  1  0  0  0
  2  3  1  0  0  0
 22 25  1  0  0  0
 26 24  2  0  0  0
 13  7  2  0  0  0
 13 12  1  0  0  0
  3  7  1  0  0  0
  6 12  2  0  0  0
  6 11  1  0  0  0
 25 27  2  0  0  0
  7 14  1  0  0  0
 12  8  1  0  0  0
 24 27  1  0  0  0
 11 10  2  0  0  0
  8 14  1  0  0  0
  8  9  2  0  0  0
 10  9  1  0  0  0
  3  5  1  0  0  0
M  END
> <minimizedAffinity>
-7.96719

$$$$
