4URY_RV1_R_1167


 19 20  0  0  0  0  0  0  0  0999 V2000
   52.3112   39.1616   65.8625 O   0  0  0  0  0  0  0  0  0  0  0  0
   53.1504   40.3202   65.8191 S   0  0  0  0  0  0  0  0  0  0  0  0
   53.5357   40.9764   67.0347 O   0  0  0  0  0  0  0  0  0  0  0  0
   56.9278   39.3221   63.4910 C   0  0  0  0  0  0  0  0  0  0  0  0
   58.0621   39.0259   62.7896 N   0  0  0  0  0  0  0  0  0  0  0  0
   56.9793   40.1352   64.6284 C   0  0  0  0  0  0  0  0  0  0  0  0
   55.8331   40.4419   65.3377 C   0  0  0  0  0  0  0  0  0  0  0  0
   54.6183   39.9061   64.9352 C   0  0  0  0  0  0  0  0  0  0  0  0
   54.5338   39.1176   63.7952 C   0  0  0  0  0  0  0  0  0  0  0  0
   55.6855   38.8158   63.0911 C   0  0  0  0  0  0  0  0  0  0  0  0
   58.9299   39.3882   63.0810 H   0  0  0  0  0  0  0  0  0  0  0  0
   58.0117   38.4500   61.9926 H   0  0  0  0  0  0  0  0  0  0  0  0
   52.3921   41.5146   64.9928 N   0  0  0  0  0  0  0  0  0  0  0  0
   51.4208   40.2297   63.3578 O   0  0  0  0  0  0  0  0  0  0  0  0
   51.6312   41.3285   63.8718 C   0  0  0  0  0  0  0  0  0  0  0  0
   52.4917   42.4348   65.3282 H   0  0  0  0  0  0  0  0  0  0  0  0
   51.0119   42.5981   63.3493 C   0  0  0  0  0  0  0  0  0  0  0  0
   50.4243   42.5449   61.9820 C   0  0  0  0  0  0  0  0  0  0  0  0
   51.6634   43.2980   62.1986 C   0  0  0  0  0  0  0  0  0  0  0  0
  4  5  1  0  0  0
  4  6  2  0  0  0
  4 10  1  0  0  0
  1  2  2  0  0  0
  2 13  1  0  0  0
  2  3  2  0  0  0
  2  8  1  0  0  0
  6  7  1  0  0  0
 13 15  1  0  0  0
  7  8  2  0  0  0
 14 15  2  0  0  0
  8  9  1  0  0  0
  9 10  2  0  0  0
 15 17  1  0  0  0
 17 18  1  0  0  0
 17 19  1  0  0  0
 18 19  1  0  0  0
  5 11  1  0  0  0
  5 12  1  0  0  0
 13 16  1  0  0  0
M  END
> <minimizedAffinity>
-7.62847

$$$$
4URY_RV1_R_1167


 19 20  0  0  0  0  0  0  0  0999 V2000
   52.4878   37.4496   64.4755 O   0  0  0  0  0  0  0  0  0  0  0  0
   52.8544   38.8184   64.2740 S   0  0  0  0  0  0  0  0  0  0  0  0
   52.6218   39.4473   63.0063 O   0  0  0  0  0  0  0  0  0  0  0  0
   50.7469   41.3160   67.4373 C   0  0  0  0  0  0  0  0  0  0  0  0
   50.1102   42.0655   68.3855 N   0  0  0  0  0  0  0  0  0  0  0  0
   50.8101   39.9226   67.5472 C   0  0  0  0  0  0  0  0  0  0  0  0
   51.4484   39.1601   66.5870 C   0  0  0  0  0  0  0  0  0  0  0  0
   52.0664   39.7898   65.5162 C   0  0  0  0  0  0  0  0  0  0  0  0
   51.9969   41.1687   65.3681 C   0  0  0  0  0  0  0  0  0  0  0  0
   51.3559   41.9242   66.3333 C   0  0  0  0  0  0  0  0  0  0  0  0
   49.6858   41.6258   69.1573 H   0  0  0  0  0  0  0  0  0  0  0  0
   50.0759   43.0454   68.2971 H   0  0  0  0  0  0  0  0  0  0  0  0
   54.4731   38.9852   64.4643 N   0  0  0  0  0  0  0  0  0  0  0  0
   55.1571   37.5932   62.7725 O   0  0  0  0  0  0  0  0  0  0  0  0
   55.4189   38.3563   63.7026 C   0  0  0  0  0  0  0  0  0  0  0  0
   54.7885   39.5827   65.1804 H   0  0  0  0  0  0  0  0  0  0  0  0
   56.8307   38.7337   64.0665 C   0  0  0  0  0  0  0  0  0  0  0  0
   57.1355   40.1888   64.1528 C   0  0  0  0  0  0  0  0  0  0  0  0
   57.6846   39.4084   63.0397 C   0  0  0  0  0  0  0  0  0  0  0  0
  4  5  1  0  0  0
  4  6  2  0  0  0
  4 10  1  0  0  0
  1  2  2  0  0  0
  2 13  1  0  0  0
  2  3  2  0  0  0
  2  8  1  0  0  0
  6  7  1  0  0  0
 13 15  1  0  0  0
  7  8  2  0  0  0
 14 15  2  0  0  0
  8  9  1  0  0  0
  9 10  2  0  0  0
 15 17  1  0  0  0
 17 18  1  0  0  0
 17 19  1  0  0  0
 18 19  1  0  0  0
  5 11  1  0  0  0
  5 12  1  0  0  0
 13 16  1  0  0  0
M  END
> <minimizedAffinity>
-7.35373

$$$$
4URY_RV1_R_1167


 19 20  0  0  0  0  0  0  0  0999 V2000
   52.5870   41.4132   65.7341 O   0  0  0  0  0  0  0  0  0  0  0  0
   52.6071   40.1490   65.0632 S   0  0  0  0  0  0  0  0  0  0  0  0
   51.6979   39.8915   63.9845 O   0  0  0  0  0  0  0  0  0  0  0  0
   56.8326   39.4876   63.5161 C   0  0  0  0  0  0  0  0  0  0  0  0
   58.1020   39.2928   63.0501 N   0  0  0  0  0  0  0  0  0  0  0  0
   56.6098   40.0205   64.7904 C   0  0  0  0  0  0  0  0  0  0  0  0
   55.3270   40.2244   65.2634 C   0  0  0  0  0  0  0  0  0  0  0  0
   54.2441   39.8617   64.4756 C   0  0  0  0  0  0  0  0  0  0  0  0
   54.4355   39.3552   63.1968 C   0  0  0  0  0  0  0  0  0  0  0  0
   55.7224   39.1547   62.7311 C   0  0  0  0  0  0  0  0  0  0  0  0
   58.8745   39.5311   63.6120 H   0  0  0  0  0  0  0  0  0  0  0  0
   58.2442   38.9143   62.1525 H   0  0  0  0  0  0  0  0  0  0  0  0
   52.2447   38.9583   66.1286 N   0  0  0  0  0  0  0  0  0  0  0  0
   52.3252   37.1767   64.6839 O   0  0  0  0  0  0  0  0  0  0  0  0
   52.1439   37.6313   65.8136 C   0  0  0  0  0  0  0  0  0  0  0  0
   52.0878   39.2174   67.0653 H   0  0  0  0  0  0  0  0  0  0  0  0
   51.8486   36.7534   67.0012 C   0  0  0  0  0  0  0  0  0  0  0  0
   52.5917   35.4656   67.0851 C   0  0  0  0  0  0  0  0  0  0  0  0
   51.1584   35.4450   66.7772 C   0  0  0  0  0  0  0  0  0  0  0  0
  4  5  1  0  0  0
  4  6  2  0  0  0
  4 10  1  0  0  0
  1  2  2  0  0  0
  2 13  1  0  0  0
  2  3  2  0  0  0
  2  8  1  0  0  0
  6  7  1  0  0  0
 13 15  1  0  0  0
  7  8  2  0  0  0
 14 15  2  0  0  0
  8  9  1  0  0  0
  9 10  2  0  0  0
 15 17  1  0  0  0
 17 18  1  0  0  0
 17 19  1  0  0  0
 18 19  1  0  0  0
  5 11  1  0  0  0
  5 12  1  0  0  0
 13 16  1  0  0  0
M  END
> <minimizedAffinity>
-7.15395

$$$$
4URY_RV1_R_1167


 19 20  0  0  0  0  0  0  0  0999 V2000
   51.7903   39.9403   63.3987 O   0  0  0  0  0  0  0  0  0  0  0  0
   52.4672   39.3159   64.4945 S   0  0  0  0  0  0  0  0  0  0  0  0
   52.0906   37.9983   64.9171 O   0  0  0  0  0  0  0  0  0  0  0  0
   56.9110   39.3426   63.5264 C   0  0  0  0  0  0  0  0  0  0  0  0
   58.2453   39.3539   63.2331 N   0  0  0  0  0  0  0  0  0  0  0  0
   56.3915   40.1591   64.5367 C   0  0  0  0  0  0  0  0  0  0  0  0
   55.0411   40.1548   64.8328 C   0  0  0  0  0  0  0  0  0  0  0  0
   54.1941   39.3014   64.1407 C   0  0  0  0  0  0  0  0  0  0  0  0
   54.6781   38.4995   63.1154 C   0  0  0  0  0  0  0  0  0  0  0  0
   56.0305   38.5101   62.8254 C   0  0  0  0  0  0  0  0  0  0  0  0
   58.8543   39.9439   63.7333 H   0  0  0  0  0  0  0  0  0  0  0  0
   58.5978   38.7720   62.5215 H   0  0  0  0  0  0  0  0  0  0  0  0
   52.2450   40.2044   65.8529 N   0  0  0  0  0  0  0  0  0  0  0  0
   50.2559   41.1985   65.2846 O   0  0  0  0  0  0  0  0  0  0  0  0
   51.1808   41.0328   66.0801 C   0  0  0  0  0  0  0  0  0  0  0  0
   52.9285   40.1370   66.5583 H   0  0  0  0  0  0  0  0  0  0  0  0
   51.2083   41.6869   67.4365 C   0  0  0  0  0  0  0  0  0  0  0  0
   50.9457   40.8089   68.6103 C   0  0  0  0  0  0  0  0  0  0  0  0
   49.9334   41.7921   68.2125 C   0  0  0  0  0  0  0  0  0  0  0  0
  4  5  1  0  0  0
  4  6  2  0  0  0
  4 10  1  0  0  0
  1  2  2  0  0  0
  2 13  1  0  0  0
  2  3  2  0  0  0
  2  8  1  0  0  0
  6  7  1  0  0  0
 13 15  1  0  0  0
  7  8  2  0  0  0
 14 15  2  0  0  0
  8  9  1  0  0  0
  9 10  2  0  0  0
 15 17  1  0  0  0
 17 18  1  0  0  0
 17 19  1  0  0  0
 18 19  1  0  0  0
  5 11  1  0  0  0
  5 12  1  0  0  0
 13 16  1  0  0  0
M  END
> <minimizedAffinity>
-6.98500

$$$$
4URY_RV1_R_1167


 19 20  0  0  0  0  0  0  0  0999 V2000
   51.4844   40.4093   63.0841 O   0  0  0  0  0  0  0  0  0  0  0  0
   52.4942   40.5853   64.0830 S   0  0  0  0  0  0  0  0  0  0  0  0
   53.0001   41.8955   64.3728 O   0  0  0  0  0  0  0  0  0  0  0  0
   51.0592   38.7886   68.0071 C   0  0  0  0  0  0  0  0  0  0  0  0
   50.6317   38.2500   69.1876 N   0  0  0  0  0  0  0  0  0  0  0  0
   50.9151   40.1560   67.7484 C   0  0  0  0  0  0  0  0  0  0  0  0
   51.3515   40.7059   66.5575 C   0  0  0  0  0  0  0  0  0  0  0  0
   51.9087   39.8824   65.5899 C   0  0  0  0  0  0  0  0  0  0  0  0
   52.0878   38.5265   65.8302 C   0  0  0  0  0  0  0  0  0  0  0  0
   51.6487   37.9844   67.0246 C   0  0  0  0  0  0  0  0  0  0  0  0
   50.2187   38.8262   69.8706 H   0  0  0  0  0  0  0  0  0  0  0  0
   50.7367   37.2855   69.3552 H   0  0  0  0  0  0  0  0  0  0  0  0
   53.8455   39.7689   63.6451 N   0  0  0  0  0  0  0  0  0  0  0  0
   55.2467   40.5236   65.2987 O   0  0  0  0  0  0  0  0  0  0  0  0
   55.0466   39.8389   64.2952 C   0  0  0  0  0  0  0  0  0  0  0  0
   53.7885   39.1843   62.8550 H   0  0  0  0  0  0  0  0  0  0  0  0
   56.1024   38.9425   63.7037 C   0  0  0  0  0  0  0  0  0  0  0  0
   57.5129   39.4089   63.8057 C   0  0  0  0  0  0  0  0  0  0  0  0
   56.8525   39.4106   62.4967 C   0  0  0  0  0  0  0  0  0  0  0  0
  4  5  1  0  0  0
  4  6  2  0  0  0
  4 10  1  0  0  0
  1  2  2  0  0  0
  2 13  1  0  0  0
  2  3  2  0  0  0
  2  8  1  0  0  0
  6  7  1  0  0  0
 13 15  1  0  0  0
  7  8  2  0  0  0
 14 15  2  0  0  0
  8  9  1  0  0  0
  9 10  2  0  0  0
 15 17  1  0  0  0
 17 18  1  0  0  0
 17 19  1  0  0  0
 18 19  1  0  0  0
  5 11  1  0  0  0
  5 12  1  0  0  0
 13 16  1  0  0  0
M  END
> <minimizedAffinity>
-6.88478

$$$$
4URY_RV1_R_1167


 19 20  0  0  0  0  0  0  0  0999 V2000
   53.1775   37.8349   65.0929 O   0  0  0  0  0  0  0  0  0  0  0  0
   53.3077   38.7201   63.9757 S   0  0  0  0  0  0  0  0  0  0  0  0
   53.0587   38.2434   62.6462 O   0  0  0  0  0  0  0  0  0  0  0  0
   50.5699   42.2867   64.6603 C   0  0  0  0  0  0  0  0  0  0  0  0
   49.7443   43.3559   64.8643 N   0  0  0  0  0  0  0  0  0  0  0  0
   50.6521   41.2539   65.6005 C   0  0  0  0  0  0  0  0  0  0  0  0
   51.4820   40.1676   65.3951 C   0  0  0  0  0  0  0  0  0  0  0  0
   52.2717   40.1186   64.2555 C   0  0  0  0  0  0  0  0  0  0  0  0
   52.1909   41.1166   63.2932 C   0  0  0  0  0  0  0  0  0  0  0  0
   51.3577   42.1999   63.5064 C   0  0  0  0  0  0  0  0  0  0  0  0
   49.1952   43.4053   65.6800 H   0  0  0  0  0  0  0  0  0  0  0  0
   49.6984   44.0771   64.1957 H   0  0  0  0  0  0  0  0  0  0  0  0
   54.8528   39.2566   63.8798 N   0  0  0  0  0  0  0  0  0  0  0  0
   54.8863   40.5322   65.7874 O   0  0  0  0  0  0  0  0  0  0  0  0
   55.4480   40.0921   64.7841 C   0  0  0  0  0  0  0  0  0  0  0  0
   55.3930   38.9550   63.1140 H   0  0  0  0  0  0  0  0  0  0  0  0
   56.8931   40.3811   64.4736 C   0  0  0  0  0  0  0  0  0  0  0  0
   57.5815   39.4403   63.5470 C   0  0  0  0  0  0  0  0  0  0  0  0
   57.9405   39.4342   64.9684 C   0  0  0  0  0  0  0  0  0  0  0  0
  4  5  1  0  0  0
  4  6  2  0  0  0
  4 10  1  0  0  0
  1  2  2  0  0  0
  2 13  1  0  0  0
  2  3  2  0  0  0
  2  8  1  0  0  0
  6  7  1  0  0  0
 13 15  1  0  0  0
  7  8  2  0  0  0
 14 15  2  0  0  0
  8  9  1  0  0  0
  9 10  2  0  0  0
 15 17  1  0  0  0
 17 18  1  0  0  0
 17 19  1  0  0  0
 18 19  1  0  0  0
  5 11  1  0  0  0
  5 12  1  0  0  0
 13 16  1  0  0  0
M  END
> <minimizedAffinity>
-6.76537

$$$$
4URY_RV1_R_1167


 19 20  0  0  0  0  0  0  0  0999 V2000
   52.6460   39.7864   66.7558 O   0  0  0  0  0  0  0  0  0  0  0  0
   52.6125   39.2634   65.4239 S   0  0  0  0  0  0  0  0  0  0  0  0
   51.8430   38.0894   65.1303 O   0  0  0  0  0  0  0  0  0  0  0  0
   51.3037   42.6273   62.6567 C   0  0  0  0  0  0  0  0  0  0  0  0
   50.9137   43.6400   61.8269 N   0  0  0  0  0  0  0  0  0  0  0  0
   52.2806   41.7086   62.2579 C   0  0  0  0  0  0  0  0  0  0  0  0
   52.6820   40.6858   63.0968 C   0  0  0  0  0  0  0  0  0  0  0  0
   52.0810   40.5478   64.3396 C   0  0  0  0  0  0  0  0  0  0  0  0
   51.1278   41.4604   64.7717 C   0  0  0  0  0  0  0  0  0  0  0  0
   50.7321   42.4811   63.9262 C   0  0  0  0  0  0  0  0  0  0  0  0
   51.3234   43.7321   60.9364 H   0  0  0  0  0  0  0  0  0  0  0  0
   50.2230   44.2777   62.1193 H   0  0  0  0  0  0  0  0  0  0  0  0
   54.1240   38.8231   64.9706 N   0  0  0  0  0  0  0  0  0  0  0  0
   55.2159   40.7715   65.4986 O   0  0  0  0  0  0  0  0  0  0  0  0
   55.2303   39.6224   65.0571 C   0  0  0  0  0  0  0  0  0  0  0  0
   54.2449   37.9155   64.6089 H   0  0  0  0  0  0  0  0  0  0  0  0
   56.4990   38.9409   64.6163 C   0  0  0  0  0  0  0  0  0  0  0  0
   57.6351   39.8227   64.2299 C   0  0  0  0  0  0  0  0  0  0  0  0
   56.9286   39.0698   63.1889 C   0  0  0  0  0  0  0  0  0  0  0  0
  4  5  1  0  0  0
  4  6  2  0  0  0
  4 10  1  0  0  0
  1  2  2  0  0  0
  2 13  1  0  0  0
  2  3  2  0  0  0
  2  8  1  0  0  0
  6  7  1  0  0  0
 13 15  1  0  0  0
  7  8  2  0  0  0
 14 15  2  0  0  0
  8  9  1  0  0  0
  9 10  2  0  0  0
 15 17  1  0  0  0
 17 18  1  0  0  0
 17 19  1  0  0  0
 18 19  1  0  0  0
  5 11  1  0  0  0
  5 12  1  0  0  0
 13 16  1  0  0  0
M  END
> <minimizedAffinity>
-6.34483

$$$$
4URY_RV1_R_1167


 19 20  0  0  0  0  0  0  0  0999 V2000
   53.0716   37.1838   63.8354 O   0  0  0  0  0  0  0  0  0  0  0  0
   52.8629   38.4945   64.3713 S   0  0  0  0  0  0  0  0  0  0  0  0
   52.0504   39.4410   63.6638 O   0  0  0  0  0  0  0  0  0  0  0  0
   51.1036   38.0449   68.5412 C   0  0  0  0  0  0  0  0  0  0  0  0
   50.5715   37.9087   69.7921 N   0  0  0  0  0  0  0  0  0  0  0  0
   51.6384   36.9430   67.8650 C   0  0  0  0  0  0  0  0  0  0  0  0
   52.1726   37.0755   66.5969 C   0  0  0  0  0  0  0  0  0  0  0  0
   52.2107   38.3276   66.0005 C   0  0  0  0  0  0  0  0  0  0  0  0
   51.6635   39.4336   66.6376 C   0  0  0  0  0  0  0  0  0  0  0  0
   51.1307   39.2922   67.9062 C   0  0  0  0  0  0  0  0  0  0  0  0
   50.5584   37.0261   70.2280 H   0  0  0  0  0  0  0  0  0  0  0  0
   50.2012   38.6932   70.2576 H   0  0  0  0  0  0  0  0  0  0  0  0
   54.2997   39.2732   64.4878 N   0  0  0  0  0  0  0  0  0  0  0  0
   55.3315   38.3541   62.6554 O   0  0  0  0  0  0  0  0  0  0  0  0
   55.3507   39.1079   63.6286 C   0  0  0  0  0  0  0  0  0  0  0  0
   54.4151   39.9075   65.2319 H   0  0  0  0  0  0  0  0  0  0  0  0
   56.5298   39.9895   63.9460 C   0  0  0  0  0  0  0  0  0  0  0  0
   57.8774   39.4576   63.6015 C   0  0  0  0  0  0  0  0  0  0  0  0
   57.4874   39.5575   65.0113 C   0  0  0  0  0  0  0  0  0  0  0  0
  4  5  1  0  0  0
  4  6  2  0  0  0
  4 10  1  0  0  0
  1  2  2  0  0  0
  2 13  1  0  0  0
  2  3  2  0  0  0
  2  8  1  0  0  0
  6  7  1  0  0  0
 13 15  1  0  0  0
  7  8  2  0  0  0
 14 15  2  0  0  0
  8  9  1  0  0  0
  9 10  2  0  0  0
 15 17  1  0  0  0
 17 18  1  0  0  0
 17 19  1  0  0  0
 18 19  1  0  0  0
  5 11  1  0  0  0
  5 12  1  0  0  0
 13 16  1  0  0  0
M  END
> <minimizedAffinity>
-6.04694

$$$$
4URY_RV1_R_1167


 19 20  0  0  0  0  0  0  0  0999 V2000
   50.1022   40.6789   67.1812 O   0  0  0  0  0  0  0  0  0  0  0  0
   51.3143   40.5688   66.4280 S   0  0  0  0  0  0  0  0  0  0  0  0
   52.4806   41.3004   66.8294 O   0  0  0  0  0  0  0  0  0  0  0  0
   52.5059   36.1846   66.2169 C   0  0  0  0  0  0  0  0  0  0  0  0
   52.8671   34.8685   66.1560 N   0  0  0  0  0  0  0  0  0  0  0  0
   51.7182   36.6646   67.2688 C   0  0  0  0  0  0  0  0  0  0  0  0
   51.3553   37.9968   67.3371 C   0  0  0  0  0  0  0  0  0  0  0  0
   51.7492   38.8634   66.3278 C   0  0  0  0  0  0  0  0  0  0  0  0
   52.5531   38.4200   65.2860 C   0  0  0  0  0  0  0  0  0  0  0  0
   52.9120   37.0855   65.2254 C   0  0  0  0  0  0  0  0  0  0  0  0
   52.5751   34.2448   66.8596 H   0  0  0  0  0  0  0  0  0  0  0  0
   53.4193   34.5437   65.4085 H   0  0  0  0  0  0  0  0  0  0  0  0
   51.0612   41.1083   64.9019 N   0  0  0  0  0  0  0  0  0  0  0  0
   50.0898   43.1238   65.4131 O   0  0  0  0  0  0  0  0  0  0  0  0
   50.4819   42.3050   64.5816 C   0  0  0  0  0  0  0  0  0  0  0  0
   51.3476   40.5278   64.1601 H   0  0  0  0  0  0  0  0  0  0  0  0
   50.4218   42.5649   63.0993 C   0  0  0  0  0  0  0  0  0  0  0  0
   51.5111   41.9784   62.2703 C   0  0  0  0  0  0  0  0  0  0  0  0
   51.4715   43.4296   62.4754 C   0  0  0  0  0  0  0  0  0  0  0  0
  4  5  1  0  0  0
  4  6  2  0  0  0
  4 10  1  0  0  0
  1  2  2  0  0  0
  2 13  1  0  0  0
  2  3  2  0  0  0
  2  8  1  0  0  0
  6  7  1  0  0  0
 13 15  1  0  0  0
  7  8  2  0  0  0
 14 15  2  0  0  0
  8  9  1  0  0  0
  9 10  2  0  0  0
 15 17  1  0  0  0
 17 18  1  0  0  0
 17 19  1  0  0  0
 18 19  1  0  0  0
  5 11  1  0  0  0
  5 12  1  0  0  0
 13 16  1  0  0  0
M  END
> <minimizedAffinity>
-5.90321

$$$$
4URY_RV1_R_1167


 19 20  0  0  0  0  0  0  0  0999 V2000
   55.2880   40.6287   65.6550 O   0  0  0  0  0  0  0  0  0  0  0  0
   54.4099   40.1939   64.6117 S   0  0  0  0  0  0  0  0  0  0  0  0
   54.9384   39.8384   63.3268 O   0  0  0  0  0  0  0  0  0  0  0  0
   51.9395   36.6752   66.0954 C   0  0  0  0  0  0  0  0  0  0  0  0
   51.1951   35.6186   66.5378 N   0  0  0  0  0  0  0  0  0  0  0  0
   52.9785   36.4867   65.1776 C   0  0  0  0  0  0  0  0  0  0  0  0
   53.7305   37.5540   64.7232 C   0  0  0  0  0  0  0  0  0  0  0  0
   53.4733   38.8266   65.2123 C   0  0  0  0  0  0  0  0  0  0  0  0
   52.4316   39.0466   66.1037 C   0  0  0  0  0  0  0  0  0  0  0  0
   51.6838   37.9732   66.5531 C   0  0  0  0  0  0  0  0  0  0  0  0
   51.3848   34.7105   66.2083 H   0  0  0  0  0  0  0  0  0  0  0  0
   50.4688   35.7653   67.1861 H   0  0  0  0  0  0  0  0  0  0  0  0
   53.3578   41.3954   64.2457 N   0  0  0  0  0  0  0  0  0  0  0  0
   51.9735   40.2169   62.8450 O   0  0  0  0  0  0  0  0  0  0  0  0
   52.2813   41.2652   63.4124 C   0  0  0  0  0  0  0  0  0  0  0  0
   53.5121   42.2768   64.6563 H   0  0  0  0  0  0  0  0  0  0  0  0
   51.4563   42.5199   63.2973 C   0  0  0  0  0  0  0  0  0  0  0  0
   50.1996   42.4264   62.5039 C   0  0  0  0  0  0  0  0  0  0  0  0
   51.3328   43.1820   61.9613 C   0  0  0  0  0  0  0  0  0  0  0  0
  4  5  1  0  0  0
  4  6  2  0  0  0
  4 10  1  0  0  0
  1  2  2  0  0  0
  2 13  1  0  0  0
  2  3  2  0  0  0
  2  8  1  0  0  0
  6  7  1  0  0  0
 13 15  1  0  0  0
  7  8  2  0  0  0
 14 15  2  0  0  0
  8  9  1  0  0  0
  9 10  2  0  0  0
 15 17  1  0  0  0
 17 18  1  0  0  0
 17 19  1  0  0  0
 18 19  1  0  0  0
  5 11  1  0  0  0
  5 12  1  0  0  0
 13 16  1  0  0  0
M  END
> <minimizedAffinity>
-5.79022

$$$$
