5LWM_79T_A_1201


 33 37  0  0  0  0  0  0  0  0999 V2000
   40.7391   23.0667   54.0671 C   0  0  0  0  0  0  0  0  0  0  0  0
   36.8636   22.7664   55.6004 C   0  0  0  0  0  0  0  0  0  0  0  0
   37.1369   21.6613   56.3348 C   0  0  0  0  0  0  0  0  0  0  0  0
   38.4554   21.3012   56.1620 N   0  0  0  0  0  0  0  0  0  0  0  0
   39.0382   25.6408   52.4460 C   0  0  0  0  0  0  0  0  0  0  0  0
   38.0041   25.1487   53.2096 N   0  0  0  0  0  0  0  0  0  0  0  0
   40.1825   25.0234   52.6506 N   0  0  0  0  0  0  0  0  0  0  0  0
   39.8956   24.0474   53.5671 C   0  0  0  0  0  0  0  0  0  0  0  0
   40.3570   22.0984   54.8840 N   0  0  0  0  0  0  0  0  0  0  0  0
   38.5327   24.0760   53.9737 C   0  0  0  0  0  0  0  0  0  0  0  0
   38.0829   23.1067   54.9039 C   0  0  0  0  0  0  0  0  0  0  0  0
   39.0608   22.1596   55.3003 C   0  0  0  0  0  0  0  0  0  0  0  0
   38.8940   20.5354   56.5984 H   0  0  0  0  0  0  0  0  0  0  0  0
   36.6118   25.6290   53.2257 C   0  0  0  0  0  0  0  0  0  0  0  0
   36.2183   26.2253   54.5664 C   0  0  0  0  0  0  0  0  0  0  0  0
   34.7690   26.7126   54.5265 C   0  0  0  0  0  0  0  0  0  0  0  0
   33.8269   25.6217   54.0900 C   0  0  0  0  0  0  0  0  0  0  0  0
   34.2149   25.0940   52.7243 C   0  0  0  0  0  0  0  0  0  0  0  0
   35.6447   24.5630   52.7380 C   0  0  0  0  0  0  0  0  0  0  0  0
   38.9986   26.7010   51.4685 C   0  0  0  0  0  0  0  0  0  0  0  0
   39.8584   27.7090   51.2178 C   0  0  0  0  0  0  0  0  0  0  0  0
   39.3037   28.4798   50.1720 C   0  0  0  0  0  0  0  0  0  0  0  0
   38.1480   27.8974   49.8172 C   0  0  0  0  0  0  0  0  0  0  0  0
   37.9261   26.7810   50.5930 O   0  0  0  0  0  0  0  0  0  0  0  0
   37.2310   28.3673   48.8561 C   0  0  0  0  0  0  0  0  0  0  0  0
   36.4804   29.4727   48.6828 C   0  0  0  0  0  0  0  0  0  0  0  0
   35.9459   30.2343   49.8595 C   0  0  0  0  0  0  0  0  0  0  0  0
   34.4111   30.5081   51.7201 C   0  0  0  0  0  0  0  0  0  0  0  0
   34.8201   29.8470   50.4712 N   0  0  0  0  0  0  0  0  0  0  0  0
   36.6181   31.1651   50.2734 O   0  0  0  0  0  0  0  0  0  0  0  0
   33.8536   28.8490   50.0025 C   0  0  0  0  0  0  0  0  0  0  0  0
   35.9319   30.2606   46.3055 N   0  0  0  0  0  0  0  0  0  0  0  0
   36.1998   29.9094   47.3556 C   0  0  0  0  0  0  0  0  0  0  0  0
 32 33  3  0  0  0
 33 26  1  0  0  0
 31 29  1  0  0  0
 26 25  2  0  0  0
 26 27  1  0  0  0
 29 28  1  0  0  0
 29 27  1  0  0  0
 25 23  1  0  0  0
 27 30  2  0  0  0
 23 22  2  0  0  0
 23 24  1  0  0  0
 22 21  1  0  0  0
 24 20  1  0  0  0
 21 20  2  0  0  0
 20  5  1  0  0  0
  5  7  2  0  0  0
  5  6  1  0  0  0
  7  8  1  0  0  0
 19 18  1  0  0  0
 19 14  1  0  0  0
 18 17  1  0  0  0
  6 14  1  0  0  0
  6 10  1  0  0  0
 14 15  1  0  0  0
  8  1  2  0  0  0
  8 10  1  0  0  0
  1  9  1  0  0  0
 10 11  2  0  0  0
 17 16  1  0  0  0
 15 16  1  0  0  0
  9 12  2  0  0  0
 11 12  1  0  0  0
 11  2  1  0  0  0
 12  4  1  0  0  0
  2  3  2  0  0  0
  4  3  1  0  0  0
  4 13  1  0  0  0
M  END
> <minimizedAffinity>
-9.35639

$$$$
5LWM_79T_A_1201


 33 37  0  0  0  0  0  0  0  0999 V2000
   40.6835   22.9448   54.1506 C   0  0  0  0  0  0  0  0  0  0  0  0
   36.7739   22.7319   55.6099 C   0  0  0  0  0  0  0  0  0  0  0  0
   37.0137   21.6335   56.3656 C   0  0  0  0  0  0  0  0  0  0  0  0
   38.3292   21.2489   56.2247 N   0  0  0  0  0  0  0  0  0  0  0  0
   39.0590   25.5224   52.4583 C   0  0  0  0  0  0  0  0  0  0  0  0
   38.0018   25.0590   53.2081 N   0  0  0  0  0  0  0  0  0  0  0  0
   40.1884   24.8892   52.6949 N   0  0  0  0  0  0  0  0  0  0  0  0
   39.8669   23.9319   53.6195 C   0  0  0  0  0  0  0  0  0  0  0  0
   40.2690   21.9952   54.9737 N   0  0  0  0  0  0  0  0  0  0  0  0
   38.4968   23.9892   53.9981 C   0  0  0  0  0  0  0  0  0  0  0  0
   38.0124   23.0415   54.9331 C   0  0  0  0  0  0  0  0  0  0  0  0
   38.9660   22.0842   55.3628 C   0  0  0  0  0  0  0  0  0  0  0  0
   38.7459   20.4825   56.6808 H   0  0  0  0  0  0  0  0  0  0  0  0
   36.6177   25.5627   53.1892 C   0  0  0  0  0  0  0  0  0  0  0  0
   36.1930   26.1450   54.5265 C   0  0  0  0  0  0  0  0  0  0  0  0
   34.7539   26.6574   54.4501 C   0  0  0  0  0  0  0  0  0  0  0  0
   33.8078   25.5895   53.9678 C   0  0  0  0  0  0  0  0  0  0  0  0
   34.2290   25.0762   52.6064 C   0  0  0  0  0  0  0  0  0  0  0  0
   35.6487   24.5209   52.6554 C   0  0  0  0  0  0  0  0  0  0  0  0
   39.0568   26.5685   51.4650 C   0  0  0  0  0  0  0  0  0  0  0  0
   38.1726   26.8653   50.4912 C   0  0  0  0  0  0  0  0  0  0  0  0
   38.6893   27.9724   49.7821 C   0  0  0  0  0  0  0  0  0  0  0  0
   39.8479   28.3147   50.3664 C   0  0  0  0  0  0  0  0  0  0  0  0
   40.1081   27.4720   51.4245 O   0  0  0  0  0  0  0  0  0  0  0  0
   40.7343   29.3258   49.9453 C   0  0  0  0  0  0  0  0  0  0  0  0
   41.6530   29.4739   48.9710 C   0  0  0  0  0  0  0  0  0  0  0  0
   42.4327   28.2981   48.4609 C   0  0  0  0  0  0  0  0  0  0  0  0
   44.1590   26.6068   48.6888 C   0  0  0  0  0  0  0  0  0  0  0  0
   43.5145   27.8586   49.1152 N   0  0  0  0  0  0  0  0  0  0  0  0
   41.9951   27.7230   47.4774 O   0  0  0  0  0  0  0  0  0  0  0  0
   44.2214   28.5279   50.2116 C   0  0  0  0  0  0  0  0  0  0  0  0
   42.0378   31.8298   48.0357 N   0  0  0  0  0  0  0  0  0  0  0  0
   41.8743   30.7734   48.4295 C   0  0  0  0  0  0  0  0  0  0  0  0
 32 33  3  0  0  0
 33 26  1  0  0  0
 31 29  1  0  0  0
 26 25  2  0  0  0
 26 27  1  0  0  0
 29 28  1  0  0  0
 29 27  1  0  0  0
 25 23  1  0  0  0
 27 30  2  0  0  0
 23 22  2  0  0  0
 23 24  1  0  0  0
 22 21  1  0  0  0
 24 20  1  0  0  0
 21 20  2  0  0  0
 20  5  1  0  0  0
  5  7  2  0  0  0
  5  6  1  0  0  0
  7  8  1  0  0  0
 19 18  1  0  0  0
 19 14  1  0  0  0
 18 17  1  0  0  0
  6 14  1  0  0  0
  6 10  1  0  0  0
 14 15  1  0  0  0
  8  1  2  0  0  0
  8 10  1  0  0  0
  1  9  1  0  0  0
 10 11  2  0  0  0
 17 16  1  0  0  0
 15 16  1  0  0  0
  9 12  2  0  0  0
 11 12  1  0  0  0
 11  2  1  0  0  0
 12  4  1  0  0  0
  2  3  2  0  0  0
  4  3  1  0  0  0
  4 13  1  0  0  0
M  END
> <minimizedAffinity>
-9.06241

$$$$
5LWM_79T_A_1201


 33 37  0  0  0  0  0  0  0  0999 V2000
   40.6478   22.8914   54.2429 C   0  0  0  0  0  0  0  0  0  0  0  0
   36.6954   22.7584   55.5923 C   0  0  0  0  0  0  0  0  0  0  0  0
   36.9009   21.6780   56.3833 C   0  0  0  0  0  0  0  0  0  0  0  0
   38.2154   21.2761   56.2910 N   0  0  0  0  0  0  0  0  0  0  0  0
   39.1021   25.4402   52.4368 C   0  0  0  0  0  0  0  0  0  0  0  0
   38.0185   25.0080   53.1673 N   0  0  0  0  0  0  0  0  0  0  0  0
   40.2170   24.8016   52.7228 N   0  0  0  0  0  0  0  0  0  0  0  0
   39.8581   23.8726   53.6625 C   0  0  0  0  0  0  0  0  0  0  0  0
   40.1989   21.9685   55.0782 N   0  0  0  0  0  0  0  0  0  0  0  0
   38.4783   23.9543   53.9992 C   0  0  0  0  0  0  0  0  0  0  0  0
   37.9564   23.0369   54.9442 C   0  0  0  0  0  0  0  0  0  0  0  0
   38.8863   22.0814   55.4266 C   0  0  0  0  0  0  0  0  0  0  0  0
   38.6102   20.5177   56.7792 H   0  0  0  0  0  0  0  0  0  0  0  0
   36.6413   25.5254   53.0947 C   0  0  0  0  0  0  0  0  0  0  0  0
   36.1837   26.1452   54.4040 C   0  0  0  0  0  0  0  0  0  0  0  0
   34.7534   26.6705   54.2721 C   0  0  0  0  0  0  0  0  0  0  0  0
   33.8101   25.6009   53.7880 C   0  0  0  0  0  0  0  0  0  0  0  0
   34.2656   25.0496   52.4528 C   0  0  0  0  0  0  0  0  0  0  0  0
   35.6769   24.4809   52.5578 C   0  0  0  0  0  0  0  0  0  0  0  0
   39.1405   26.4594   51.4167 C   0  0  0  0  0  0  0  0  0  0  0  0
   38.5524   26.5244   50.2050 C   0  0  0  0  0  0  0  0  0  0  0  0
   38.9645   27.7355   49.6060 C   0  0  0  0  0  0  0  0  0  0  0  0
   39.7624   28.3633   50.4837 C   0  0  0  0  0  0  0  0  0  0  0  0
   39.8896   27.6072   51.6280 O   0  0  0  0  0  0  0  0  0  0  0  0
   40.4497   29.5756   50.2760 C   0  0  0  0  0  0  0  0  0  0  0  0
   40.1368   30.8124   49.8429 C   0  0  0  0  0  0  0  0  0  0  0  0
   39.0479   31.0234   48.8328 C   0  0  0  0  0  0  0  0  0  0  0  0
   36.7844   31.6480   48.2172 C   0  0  0  0  0  0  0  0  0  0  0  0
   37.7933   31.2800   49.2225 N   0  0  0  0  0  0  0  0  0  0  0  0
   39.3715   31.0256   47.6560 O   0  0  0  0  0  0  0  0  0  0  0  0
   37.2448   31.1695   50.5778 C   0  0  0  0  0  0  0  0  0  0  0  0
   41.4058   32.8222   50.8039 N   0  0  0  0  0  0  0  0  0  0  0  0
   40.8615   31.9242   50.3622 C   0  0  0  0  0  0  0  0  0  0  0  0
 32 33  3  0  0  0
 33 26  1  0  0  0
 31 29  1  0  0  0
 26 25  2  0  0  0
 26 27  1  0  0  0
 29 28  1  0  0  0
 29 27  1  0  0  0
 25 23  1  0  0  0
 27 30  2  0  0  0
 23 22  2  0  0  0
 23 24  1  0  0  0
 22 21  1  0  0  0
 24 20  1  0  0  0
 21 20  2  0  0  0
 20  5  1  0  0  0
  5  7  2  0  0  0
  5  6  1  0  0  0
  7  8  1  0  0  0
 19 18  1  0  0  0
 19 14  1  0  0  0
 18 17  1  0  0  0
  6 14  1  0  0  0
  6 10  1  0  0  0
 14 15  1  0  0  0
  8  1  2  0  0  0
  8 10  1  0  0  0
  1  9  1  0  0  0
 10 11  2  0  0  0
 17 16  1  0  0  0
 15 16  1  0  0  0
  9 12  2  0  0  0
 11 12  1  0  0  0
 11  2  1  0  0  0
 12  4  1  0  0  0
  2  3  2  0  0  0
  4  3  1  0  0  0
  4 13  1  0  0  0
M  END
> <minimizedAffinity>
-8.69221

$$$$
5LWM_79T_A_1201


 33 37  0  0  0  0  0  0  0  0999 V2000
   40.8068   25.7781   51.7626 C   0  0  0  0  0  0  0  0  0  0  0  0
   38.5430   23.4794   54.4180 C   0  0  0  0  0  0  0  0  0  0  0  0
   39.6030   22.7486   54.8394 C   0  0  0  0  0  0  0  0  0  0  0  0
   40.7439   23.1644   54.1886 N   0  0  0  0  0  0  0  0  0  0  0  0
   37.5527   26.8998   51.2147 C   0  0  0  0  0  0  0  0  0  0  0  0
   37.2947   25.9623   52.1890 N   0  0  0  0  0  0  0  0  0  0  0  0
   38.8321   27.0258   50.9325 N   0  0  0  0  0  0  0  0  0  0  0  0
   39.4594   26.1044   51.7277 C   0  0  0  0  0  0  0  0  0  0  0  0
   41.3209   24.8054   52.4977 N   0  0  0  0  0  0  0  0  0  0  0  0
   38.5443   25.4005   52.5590 C   0  0  0  0  0  0  0  0  0  0  0  0
   39.0478   24.3959   53.4217 C   0  0  0  0  0  0  0  0  0  0  0  0
   40.4433   24.1660   53.3212 C   0  0  0  0  0  0  0  0  0  0  0  0
   41.6437   22.7911   54.3310 H   0  0  0  0  0  0  0  0  0  0  0  0
   35.9770   25.5976   52.7369 C   0  0  0  0  0  0  0  0  0  0  0  0
   35.8743   25.8638   54.2290 C   0  0  0  0  0  0  0  0  0  0  0  0
   34.4879   25.4742   54.7441 C   0  0  0  0  0  0  0  0  0  0  0  0
   34.1443   24.0501   54.3948 C   0  0  0  0  0  0  0  0  0  0  0  0
   34.1986   23.8385   52.8959 C   0  0  0  0  0  0  0  0  0  0  0  0
   35.5822   24.1812   52.3531 C   0  0  0  0  0  0  0  0  0  0  0  0
   36.6083   27.7085   50.4831 C   0  0  0  0  0  0  0  0  0  0  0  0
   36.7662   28.4945   49.3990 C   0  0  0  0  0  0  0  0  0  0  0  0
   35.5127   29.0864   49.1270 C   0  0  0  0  0  0  0  0  0  0  0  0
   34.6451   28.6193   50.0381 C   0  0  0  0  0  0  0  0  0  0  0  0
   35.2847   27.7507   50.8947 O   0  0  0  0  0  0  0  0  0  0  0  0
   33.2946   28.9946   50.1816 C   0  0  0  0  0  0  0  0  0  0  0  0
   32.5627   29.6778   51.0831 C   0  0  0  0  0  0  0  0  0  0  0  0
   32.9227   29.6631   52.5394 C   0  0  0  0  0  0  0  0  0  0  0  0
   32.8159   28.7025   54.7660 C   0  0  0  0  0  0  0  0  0  0  0  0
   32.3265   28.8120   53.3831 N   0  0  0  0  0  0  0  0  0  0  0  0
   33.8267   30.4006   52.8979 O   0  0  0  0  0  0  0  0  0  0  0  0
   31.1460   27.9831   53.1207 C   0  0  0  0  0  0  0  0  0  0  0  0
   30.5583   31.0449   50.2545 N   0  0  0  0  0  0  0  0  0  0  0  0
   31.4333   30.4189   50.6288 C   0  0  0  0  0  0  0  0  0  0  0  0
 32 33  3  0  0  0
 33 26  1  0  0  0
 31 29  1  0  0  0
 26 25  2  0  0  0
 26 27  1  0  0  0
 29 28  1  0  0  0
 29 27  1  0  0  0
 25 23  1  0  0  0
 27 30  2  0  0  0
 23 22  2  0  0  0
 23 24  1  0  0  0
 22 21  1  0  0  0
 24 20  1  0  0  0
 21 20  2  0  0  0
 20  5  1  0  0  0
  5  7  2  0  0  0
  5  6  1  0  0  0
  7  8  1  0  0  0
 19 18  1  0  0  0
 19 14  1  0  0  0
 18 17  1  0  0  0
  6 14  1  0  0  0
  6 10  1  0  0  0
 14 15  1  0  0  0
  8  1  2  0  0  0
  8 10  1  0  0  0
  1  9  1  0  0  0
 10 11  2  0  0  0
 17 16  1  0  0  0
 15 16  1  0  0  0
  9 12  2  0  0  0
 11 12  1  0  0  0
 11  2  1  0  0  0
 12  4  1  0  0  0
  2  3  2  0  0  0
  4  3  1  0  0  0
  4 13  1  0  0  0
M  END
> <minimizedAffinity>
-8.62195

$$$$
5LWM_79T_A_1201


 33 37  0  0  0  0  0  0  0  0999 V2000
   40.7837   25.6967   51.9763 C   0  0  0  0  0  0  0  0  0  0  0  0
   38.5072   23.3563   54.5841 C   0  0  0  0  0  0  0  0  0  0  0  0
   39.5628   22.6100   54.9888 C   0  0  0  0  0  0  0  0  0  0  0  0
   40.7059   23.0323   54.3461 N   0  0  0  0  0  0  0  0  0  0  0  0
   37.5365   26.8504   51.4551 C   0  0  0  0  0  0  0  0  0  0  0  0
   37.2732   25.8940   52.4094 N   0  0  0  0  0  0  0  0  0  0  0  0
   38.8165   26.9742   51.1745 N   0  0  0  0  0  0  0  0  0  0  0  0
   39.4384   26.0321   51.9494 C   0  0  0  0  0  0  0  0  0  0  0  0
   41.2922   24.7052   52.6901 N   0  0  0  0  0  0  0  0  0  0  0  0
   38.5194   25.3166   52.7663 C   0  0  0  0  0  0  0  0  0  0  0  0
   39.0171   24.2906   53.6070 C   0  0  0  0  0  0  0  0  0  0  0  0
   40.4111   24.0540   53.5005 C   0  0  0  0  0  0  0  0  0  0  0  0
   41.6034   22.6504   54.4798 H   0  0  0  0  0  0  0  0  0  0  0  0
   35.9536   25.5261   52.9505 C   0  0  0  0  0  0  0  0  0  0  0  0
   35.8363   25.8092   54.4384 C   0  0  0  0  0  0  0  0  0  0  0  0
   34.4484   25.4155   54.9465 C   0  0  0  0  0  0  0  0  0  0  0  0
   34.1182   23.9849   54.6113 C   0  0  0  0  0  0  0  0  0  0  0  0
   34.1868   23.7559   53.1156 C   0  0  0  0  0  0  0  0  0  0  0  0
   35.5724   24.1024   52.5804 C   0  0  0  0  0  0  0  0  0  0  0  0
   36.5968   27.6805   50.7417 C   0  0  0  0  0  0  0  0  0  0  0  0
   36.5249   28.0212   49.4391 C   0  0  0  0  0  0  0  0  0  0  0  0
   35.4218   28.8921   49.2962 C   0  0  0  0  0  0  0  0  0  0  0  0
   34.8587   29.0243   50.5072 C   0  0  0  0  0  0  0  0  0  0  0  0
   35.5537   28.2780   51.4332 O   0  0  0  0  0  0  0  0  0  0  0  0
   33.7688   29.8527   50.8407 C   0  0  0  0  0  0  0  0  0  0  0  0
   33.5525   31.1766   50.9660 C   0  0  0  0  0  0  0  0  0  0  0  0
   34.6491   32.0986   51.4113 C   0  0  0  0  0  0  0  0  0  0  0  0
   36.3352   33.7912   50.9822 C   0  0  0  0  0  0  0  0  0  0  0  0
   35.3834   32.7708   50.5166 N   0  0  0  0  0  0  0  0  0  0  0  0
   34.7866   32.2621   52.6129 O   0  0  0  0  0  0  0  0  0  0  0  0
   35.4192   32.5669   49.0651 C   0  0  0  0  0  0  0  0  0  0  0  0
   31.2233   32.1251   50.4678 N   0  0  0  0  0  0  0  0  0  0  0  0
   32.2572   31.6908   50.6678 C   0  0  0  0  0  0  0  0  0  0  0  0
 32 33  3  0  0  0
 33 26  1  0  0  0
 31 29  1  0  0  0
 26 25  2  0  0  0
 26 27  1  0  0  0
 29 28  1  0  0  0
 29 27  1  0  0  0
 25 23  1  0  0  0
 27 30  2  0  0  0
 23 22  2  0  0  0
 23 24  1  0  0  0
 22 21  1  0  0  0
 24 20  1  0  0  0
 21 20  2  0  0  0
 20  5  1  0  0  0
  5  7  2  0  0  0
  5  6  1  0  0  0
  7  8  1  0  0  0
 19 18  1  0  0  0
 19 14  1  0  0  0
 18 17  1  0  0  0
  6 14  1  0  0  0
  6 10  1  0  0  0
 14 15  1  0  0  0
  8  1  2  0  0  0
  8 10  1  0  0  0
  1  9  1  0  0  0
 10 11  2  0  0  0
 17 16  1  0  0  0
 15 16  1  0  0  0
  9 12  2  0  0  0
 11 12  1  0  0  0
 11  2  1  0  0  0
 12  4  1  0  0  0
  2  3  2  0  0  0
  4  3  1  0  0  0
  4 13  1  0  0  0
M  END
> <minimizedAffinity>
-8.43409

$$$$
5LWM_79T_A_1201


 33 37  0  0  0  0  0  0  0  0999 V2000
   31.6826   29.1348   54.3637 C   0  0  0  0  0  0  0  0  0  0  0  0
   32.7047   25.3530   55.8175 C   0  0  0  0  0  0  0  0  0  0  0  0
   31.8866   25.4402   56.8937 C   0  0  0  0  0  0  0  0  0  0  0  0
   31.2301   26.6513   56.8833 N   0  0  0  0  0  0  0  0  0  0  0  0
   34.1414   28.0626   52.1384 C   0  0  0  0  0  0  0  0  0  0  0  0
   34.1038   26.9610   52.9629 N   0  0  0  0  0  0  0  0  0  0  0  0
   33.2676   28.9919   52.4631 N   0  0  0  0  0  0  0  0  0  0  0  0
   32.6392   28.5082   53.5793 C   0  0  0  0  0  0  0  0  0  0  0  0
   31.1909   28.6335   55.4852 N   0  0  0  0  0  0  0  0  0  0  0  0
   33.1137   27.2182   53.9464 C   0  0  0  0  0  0  0  0  0  0  0  0
   32.5703   26.5995   55.0992 C   0  0  0  0  0  0  0  0  0  0  0  0
   31.6202   27.3803   55.8051 C   0  0  0  0  0  0  0  0  0  0  0  0
   30.5753   26.9451   57.5572 H   0  0  0  0  0  0  0  0  0  0  0  0
   34.9371   25.7510   52.8586 C   0  0  0  0  0  0  0  0  0  0  0  0
   34.1264   24.5158   52.5055 C   0  0  0  0  0  0  0  0  0  0  0  0
   35.0386   23.2923   52.4041 C   0  0  0  0  0  0  0  0  0  0  0  0
   35.8531   23.1001   53.6562 C   0  0  0  0  0  0  0  0  0  0  0  0
   36.6928   24.3278   53.9425 C   0  0  0  0  0  0  0  0  0  0  0  0
   35.8096   25.5627   54.0886 C   0  0  0  0  0  0  0  0  0  0  0  0
   35.0157   28.3080   51.0175 C   0  0  0  0  0  0  0  0  0  0  0  0
   34.7513   28.7067   49.7569 C   0  0  0  0  0  0  0  0  0  0  0  0
   35.9825   28.7474   49.0655 C   0  0  0  0  0  0  0  0  0  0  0  0
   36.9409   28.3965   49.9370 C   0  0  0  0  0  0  0  0  0  0  0  0
   36.3823   28.1248   51.1664 O   0  0  0  0  0  0  0  0  0  0  0  0
   38.3132   28.2403   49.6582 C   0  0  0  0  0  0  0  0  0  0  0  0
   39.2144   27.2410   49.7247 C   0  0  0  0  0  0  0  0  0  0  0  0
   39.0964   26.1637   50.7621 C   0  0  0  0  0  0  0  0  0  0  0  0
   39.7960   25.0794   52.8181 C   0  0  0  0  0  0  0  0  0  0  0  0
   40.0222   26.0315   51.7197 N   0  0  0  0  0  0  0  0  0  0  0  0
   38.0908   25.4725   50.7364 O   0  0  0  0  0  0  0  0  0  0  0  0
   41.3300   26.6909   51.7869 C   0  0  0  0  0  0  0  0  0  0  0  0
   41.1289   27.1741   48.0208 N   0  0  0  0  0  0  0  0  0  0  0  0
   40.2889   27.2237   48.7887 C   0  0  0  0  0  0  0  0  0  0  0  0
 32 33  3  0  0  0
 33 26  1  0  0  0
 31 29  1  0  0  0
 26 25  2  0  0  0
 26 27  1  0  0  0
 29 28  1  0  0  0
 29 27  1  0  0  0
 25 23  1  0  0  0
 27 30  2  0  0  0
 23 22  2  0  0  0
 23 24  1  0  0  0
 22 21  1  0  0  0
 24 20  1  0  0  0
 21 20  2  0  0  0
 20  5  1  0  0  0
  5  7  2  0  0  0
  5  6  1  0  0  0
  7  8  1  0  0  0
 19 18  1  0  0  0
 19 14  1  0  0  0
 18 17  1  0  0  0
  6 14  1  0  0  0
  6 10  1  0  0  0
 14 15  1  0  0  0
  8  1  2  0  0  0
  8 10  1  0  0  0
  1  9  1  0  0  0
 10 11  2  0  0  0
 17 16  1  0  0  0
 15 16  1  0  0  0
  9 12  2  0  0  0
 11 12  1  0  0  0
 11  2  1  0  0  0
 12  4  1  0  0  0
  2  3  2  0  0  0
  4  3  1  0  0  0
  4 13  1  0  0  0
M  END
> <minimizedAffinity>
-8.37206

$$$$
5LWM_79T_A_1201


 33 37  0  0  0  0  0  0  0  0999 V2000
   41.0182   24.9583   52.5466 C   0  0  0  0  0  0  0  0  0  0  0  0
   38.1499   23.0950   54.9468 C   0  0  0  0  0  0  0  0  0  0  0  0
   39.0375   22.2412   55.5110 C   0  0  0  0  0  0  0  0  0  0  0  0
   40.2955   22.4709   54.9984 N   0  0  0  0  0  0  0  0  0  0  0  0
   38.0452   26.4970   51.5769 C   0  0  0  0  0  0  0  0  0  0  0  0
   37.5421   25.6413   52.5304 N   0  0  0  0  0  0  0  0  0  0  0  0
   39.3541   26.4346   51.4530 N   0  0  0  0  0  0  0  0  0  0  0  0
   39.7446   25.4659   52.3383 C   0  0  0  0  0  0  0  0  0  0  0  0
   41.2976   23.9521   53.3593 N   0  0  0  0  0  0  0  0  0  0  0  0
   38.6461   24.9267   53.0638 C   0  0  0  0  0  0  0  0  0  0  0  0
   38.8952   23.8952   54.0024 C   0  0  0  0  0  0  0  0  0  0  0  0
   40.2460   23.4712   54.0803 C   0  0  0  0  0  0  0  0  0  0  0  0
   41.1098   21.9826   55.2588 H   0  0  0  0  0  0  0  0  0  0  0  0
   36.1300   25.4827   52.9180 C   0  0  0  0  0  0  0  0  0  0  0  0
   35.8764   25.8761   54.3633 C   0  0  0  0  0  0  0  0  0  0  0  0
   34.3975   25.6987   54.7108 C   0  0  0  0  0  0  0  0  0  0  0  0
   33.9182   24.3034   54.4080 C   0  0  0  0  0  0  0  0  0  0  0  0
   34.1321   23.9693   52.9462 C   0  0  0  0  0  0  0  0  0  0  0  0
   35.6056   24.0985   52.5738 C   0  0  0  0  0  0  0  0  0  0  0  0
   37.3194   27.4004   50.7177 C   0  0  0  0  0  0  0  0  0  0  0  0
   36.0037   27.4940   50.4381 C   0  0  0  0  0  0  0  0  0  0  0  0
   35.8503   28.5373   49.4981 C   0  0  0  0  0  0  0  0  0  0  0  0
   37.0699   29.0467   49.2653 C   0  0  0  0  0  0  0  0  0  0  0  0
   38.0112   28.3738   50.0127 O   0  0  0  0  0  0  0  0  0  0  0  0
   37.3938   30.0631   48.3448 C   0  0  0  0  0  0  0  0  0  0  0  0
   37.9802   31.2750   48.3964 C   0  0  0  0  0  0  0  0  0  0  0  0
   37.8569   32.1403   49.6157 C   0  0  0  0  0  0  0  0  0  0  0  0
   38.7535   33.1336   51.6409 C   0  0  0  0  0  0  0  0  0  0  0  0
   38.8206   32.1551   50.5445 N   0  0  0  0  0  0  0  0  0  0  0  0
   36.8857   32.8764   49.6812 O   0  0  0  0  0  0  0  0  0  0  0  0
   39.9552   31.2338   50.6610 C   0  0  0  0  0  0  0  0  0  0  0  0
   39.2880   32.0647   46.3375 N   0  0  0  0  0  0  0  0  0  0  0  0
   38.7236   31.7253   47.2669 C   0  0  0  0  0  0  0  0  0  0  0  0
 32 33  3  0  0  0
 33 26  1  0  0  0
 31 29  1  0  0  0
 26 25  2  0  0  0
 26 27  1  0  0  0
 29 28  1  0  0  0
 29 27  1  0  0  0
 25 23  1  0  0  0
 27 30  2  0  0  0
 23 22  2  0  0  0
 23 24  1  0  0  0
 22 21  1  0  0  0
 24 20  1  0  0  0
 21 20  2  0  0  0
 20  5  1  0  0  0
  5  7  2  0  0  0
  5  6  1  0  0  0
  7  8  1  0  0  0
 19 18  1  0  0  0
 19 14  1  0  0  0
 18 17  1  0  0  0
  6 14  1  0  0  0
  6 10  1  0  0  0
 14 15  1  0  0  0
  8  1  2  0  0  0
  8 10  1  0  0  0
  1  9  1  0  0  0
 10 11  2  0  0  0
 17 16  1  0  0  0
 15 16  1  0  0  0
  9 12  2  0  0  0
 11 12  1  0  0  0
 11  2  1  0  0  0
 12  4  1  0  0  0
  2  3  2  0  0  0
  4  3  1  0  0  0
  4 13  1  0  0  0
M  END
> <minimizedAffinity>
-8.24499

$$$$
5LWM_79T_A_1201


 33 37  0  0  0  0  0  0  0  0999 V2000
   35.8005   22.3467   55.8274 C   0  0  0  0  0  0  0  0  0  0  0  0
   39.5775   23.1887   54.2509 C   0  0  0  0  0  0  0  0  0  0  0  0
   40.2082   22.2655   55.0159 C   0  0  0  0  0  0  0  0  0  0  0  0
   39.2927   21.6219   55.8194 N   0  0  0  0  0  0  0  0  0  0  0  0
   35.1873   25.0126   53.6676 C   0  0  0  0  0  0  0  0  0  0  0  0
   36.5431   24.8833   53.4685 N   0  0  0  0  0  0  0  0  0  0  0  0
   34.6898   24.1167   54.4937 N   0  0  0  0  0  0  0  0  0  0  0  0
   35.7674   23.3742   54.8965 C   0  0  0  0  0  0  0  0  0  0  0  0
   36.9048   21.7396   56.2308 N   0  0  0  0  0  0  0  0  0  0  0  0
   36.9751   23.7996   54.2765 C   0  0  0  0  0  0  0  0  0  0  0  0
   38.1804   23.1370   54.6157 C   0  0  0  0  0  0  0  0  0  0  0  0
   38.0498   22.1253   55.6004 C   0  0  0  0  0  0  0  0  0  0  0  0
   39.5072   20.9038   56.4577 H   0  0  0  0  0  0  0  0  0  0  0  0
   37.3909   25.7145   52.5968 C   0  0  0  0  0  0  0  0  0  0  0  0
   37.2404   25.3573   51.1279 C   0  0  0  0  0  0  0  0  0  0  0  0
   38.1355   26.2519   50.2690 C   0  0  0  0  0  0  0  0  0  0  0  0
   39.5708   26.2030   50.7227 C   0  0  0  0  0  0  0  0  0  0  0  0
   39.6883   26.6230   52.1732 C   0  0  0  0  0  0  0  0  0  0  0  0
   38.8367   25.7252   53.0649 C   0  0  0  0  0  0  0  0  0  0  0  0
   34.2942   25.9985   53.1097 C   0  0  0  0  0  0  0  0  0  0  0  0
   33.0904   25.8700   52.5160 C   0  0  0  0  0  0  0  0  0  0  0  0
   32.6794   27.1630   52.1225 C   0  0  0  0  0  0  0  0  0  0  0  0
   33.6347   28.0210   52.5127 C   0  0  0  0  0  0  0  0  0  0  0  0
   34.6528   27.3378   53.1404 O   0  0  0  0  0  0  0  0  0  0  0  0
   33.6686   29.4082   52.2680 C   0  0  0  0  0  0  0  0  0  0  0  0
   33.8317   30.2055   51.1942 C   0  0  0  0  0  0  0  0  0  0  0  0
   34.6856   29.7766   50.0377 C   0  0  0  0  0  0  0  0  0  0  0  0
   36.8278   29.5605   48.9167 C   0  0  0  0  0  0  0  0  0  0  0  0
   35.9743   30.1321   49.9698 N   0  0  0  0  0  0  0  0  0  0  0  0
   34.1760   29.0352   49.2129 O   0  0  0  0  0  0  0  0  0  0  0  0
   36.6679   31.1187   50.8035 C   0  0  0  0  0  0  0  0  0  0  0  0
   32.6566   32.4827   51.1137 N   0  0  0  0  0  0  0  0  0  0  0  0
   33.1767   31.4710   51.1744 C   0  0  0  0  0  0  0  0  0  0  0  0
 32 33  3  0  0  0
 33 26  1  0  0  0
 31 29  1  0  0  0
 26 25  2  0  0  0
 26 27  1  0  0  0
 29 28  1  0  0  0
 29 27  1  0  0  0
 25 23  1  0  0  0
 27 30  2  0  0  0
 23 22  2  0  0  0
 23 24  1  0  0  0
 22 21  1  0  0  0
 24 20  1  0  0  0
 21 20  2  0  0  0
 20  5  1  0  0  0
  5  7  2  0  0  0
  5  6  1  0  0  0
  7  8  1  0  0  0
 19 18  1  0  0  0
 19 14  1  0  0  0
 18 17  1  0  0  0
  6 14  1  0  0  0
  6 10  1  0  0  0
 14 15  1  0  0  0
  8  1  2  0  0  0
  8 10  1  0  0  0
  1  9  1  0  0  0
 10 11  2  0  0  0
 17 16  1  0  0  0
 15 16  1  0  0  0
  9 12  2  0  0  0
 11 12  1  0  0  0
 11  2  1  0  0  0
 12  4  1  0  0  0
  2  3  2  0  0  0
  4  3  1  0  0  0
  4 13  1  0  0  0
M  END
> <minimizedAffinity>
-8.01804

$$$$
5LWM_79T_A_1201


 33 37  0  0  0  0  0  0  0  0999 V2000
   39.9657   23.4439   54.2260 C   0  0  0  0  0  0  0  0  0  0  0  0
   36.0084   23.4813   55.5672 C   0  0  0  0  0  0  0  0  0  0  0  0
   36.1849   22.4391   56.4145 C   0  0  0  0  0  0  0  0  0  0  0  0
   37.4890   21.9999   56.3478 N   0  0  0  0  0  0  0  0  0  0  0  0
   38.4886   25.9323   52.2836 C   0  0  0  0  0  0  0  0  0  0  0  0
   37.3929   25.5665   53.0321 N   0  0  0  0  0  0  0  0  0  0  0  0
   39.5864   25.2819   52.6065 N   0  0  0  0  0  0  0  0  0  0  0  0
   39.2022   24.4128   53.5923 C   0  0  0  0  0  0  0  0  0  0  0  0
   39.4919   22.5776   55.1070 N   0  0  0  0  0  0  0  0  0  0  0  0
   37.8243   24.5467   53.9197 C   0  0  0  0  0  0  0  0  0  0  0  0
   37.2773   23.6936   54.9097 C   0  0  0  0  0  0  0  0  0  0  0  0
   38.1818   22.7417   55.4446 C   0  0  0  0  0  0  0  0  0  0  0  0
   37.8635   21.2585   56.8763 H   0  0  0  0  0  0  0  0  0  0  0  0
   36.0294   26.1138   52.9278 C   0  0  0  0  0  0  0  0  0  0  0  0
   35.5240   26.6698   54.2481 C   0  0  0  0  0  0  0  0  0  0  0  0
   34.1101   27.2293   54.0828 C   0  0  0  0  0  0  0  0  0  0  0  0
   33.1715   26.2064   53.4990 C   0  0  0  0  0  0  0  0  0  0  0  0
   33.6772   25.7203   52.1565 C   0  0  0  0  0  0  0  0  0  0  0  0
   35.0725   25.1193   52.2917 C   0  0  0  0  0  0  0  0  0  0  0  0
   38.5548   26.8954   51.2116 C   0  0  0  0  0  0  0  0  0  0  0  0
   37.7092   27.1474   50.1920 C   0  0  0  0  0  0  0  0  0  0  0  0
   38.2887   28.1740   49.4137 C   0  0  0  0  0  0  0  0  0  0  0  0
   39.4445   28.5171   50.0031 C   0  0  0  0  0  0  0  0  0  0  0  0
   39.6425   27.7520   51.1313 O   0  0  0  0  0  0  0  0  0  0  0  0
   40.3818   29.4569   49.5303 C   0  0  0  0  0  0  0  0  0  0  0  0
   41.2279   30.3509   50.0781 C   0  0  0  0  0  0  0  0  0  0  0  0
   40.8989   31.0304   51.3745 C   0  0  0  0  0  0  0  0  0  0  0  0
   39.6374   32.6241   52.7015 C   0  0  0  0  0  0  0  0  0  0  0  0
   40.0741   32.0842   51.4047 N   0  0  0  0  0  0  0  0  0  0  0  0
   41.3522   30.5359   52.3940 O   0  0  0  0  0  0  0  0  0  0  0  0
   39.5780   32.8560   50.2610 C   0  0  0  0  0  0  0  0  0  0  0  0
   43.4333   30.9062   48.8944 N   0  0  0  0  0  0  0  0  0  0  0  0
   42.4478   30.6435   49.4019 C   0  0  0  0  0  0  0  0  0  0  0  0
 32 33  3  0  0  0
 33 26  1  0  0  0
 31 29  1  0  0  0
 26 25  2  0  0  0
 26 27  1  0  0  0
 29 28  1  0  0  0
 29 27  1  0  0  0
 25 23  1  0  0  0
 27 30  2  0  0  0
 23 22  2  0  0  0
 23 24  1  0  0  0
 22 21  1  0  0  0
 24 20  1  0  0  0
 21 20  2  0  0  0
 20  5  1  0  0  0
  5  7  2  0  0  0
  5  6  1  0  0  0
  7  8  1  0  0  0
 19 18  1  0  0  0
 19 14  1  0  0  0
 18 17  1  0  0  0
  6 14  1  0  0  0
  6 10  1  0  0  0
 14 15  1  0  0  0
  8  1  2  0  0  0
  8 10  1  0  0  0
  1  9  1  0  0  0
 10 11  2  0  0  0
 17 16  1  0  0  0
 15 16  1  0  0  0
  9 12  2  0  0  0
 11 12  1  0  0  0
 11  2  1  0  0  0
 12  4  1  0  0  0
  2  3  2  0  0  0
  4  3  1  0  0  0
  4 13  1  0  0  0
M  END
> <minimizedAffinity>
-7.69270

$$$$
5LWM_79T_A_1201


 33 37  0  0  0  0  0  0  0  0999 V2000
   31.7830   28.8981   53.8627 C   0  0  0  0  0  0  0  0  0  0  0  0
   32.7401   25.4254   55.9803 C   0  0  0  0  0  0  0  0  0  0  0  0
   31.7504   25.5925   56.8901 C   0  0  0  0  0  0  0  0  0  0  0  0
   31.0437   26.7402   56.6045 N   0  0  0  0  0  0  0  0  0  0  0  0
   34.6306   27.7272   52.2295 C   0  0  0  0  0  0  0  0  0  0  0  0
   34.5122   26.7435   53.1850 N   0  0  0  0  0  0  0  0  0  0  0  0
   33.6685   28.6241   52.2768 N   0  0  0  0  0  0  0  0  0  0  0  0
   32.8881   28.2461   53.3365 C   0  0  0  0  0  0  0  0  0  0  0  0
   31.1373   28.5134   54.9517 N   0  0  0  0  0  0  0  0  0  0  0  0
   33.3599   27.0539   53.9529 C   0  0  0  0  0  0  0  0  0  0  0  0
   32.6640   26.5535   55.0809 C   0  0  0  0  0  0  0  0  0  0  0  0
   31.5707   27.3480   55.5097 C   0  0  0  0  0  0  0  0  0  0  0  0
   30.2714   27.0708   57.1178 H   0  0  0  0  0  0  0  0  0  0  0  0
   35.4121   25.5949   53.3863 C   0  0  0  0  0  0  0  0  0  0  0  0
   34.7011   24.2632   53.2172 C   0  0  0  0  0  0  0  0  0  0  0  0
   35.6799   23.1073   53.4303 C   0  0  0  0  0  0  0  0  0  0  0  0
   36.3845   23.2122   54.7572 C   0  0  0  0  0  0  0  0  0  0  0  0
   37.1308   24.5258   54.8648 C   0  0  0  0  0  0  0  0  0  0  0  0
   36.1762   25.7033   54.6955 C   0  0  0  0  0  0  0  0  0  0  0  0
   35.6661   27.8871   51.2379 C   0  0  0  0  0  0  0  0  0  0  0  0
   36.8498   27.2602   51.0824 C   0  0  0  0  0  0  0  0  0  0  0  0
   37.4851   27.8408   49.9622 C   0  0  0  0  0  0  0  0  0  0  0  0
   36.6549   28.7747   49.4726 C   0  0  0  0  0  0  0  0  0  0  0  0
   35.5068   28.8281   50.2319 O   0  0  0  0  0  0  0  0  0  0  0  0
   36.9122   29.6454   48.3952 C   0  0  0  0  0  0  0  0  0  0  0  0
   36.9975   30.9782   48.2172 C   0  0  0  0  0  0  0  0  0  0  0  0
   36.1758   31.9212   49.0456 C   0  0  0  0  0  0  0  0  0  0  0  0
   35.9092   33.4965   50.8730 C   0  0  0  0  0  0  0  0  0  0  0  0
   36.6686   32.4493   50.1724 N   0  0  0  0  0  0  0  0  0  0  0  0
   35.0812   32.2383   48.6088 O   0  0  0  0  0  0  0  0  0  0  0  0
   37.8927   32.0546   50.8763 C   0  0  0  0  0  0  0  0  0  0  0  0
   38.5747   31.8580   46.3975 N   0  0  0  0  0  0  0  0  0  0  0  0
   37.8857   31.4814   47.2228 C   0  0  0  0  0  0  0  0  0  0  0  0
 32 33  3  0  0  0
 33 26  1  0  0  0
 31 29  1  0  0  0
 26 25  2  0  0  0
 26 27  1  0  0  0
 29 28  1  0  0  0
 29 27  1  0  0  0
 25 23  1  0  0  0
 27 30  2  0  0  0
 23 22  2  0  0  0
 23 24  1  0  0  0
 22 21  1  0  0  0
 24 20  1  0  0  0
 21 20  2  0  0  0
 20  5  1  0  0  0
  5  7  2  0  0  0
  5  6  1  0  0  0
  7  8  1  0  0  0
 19 18  1  0  0  0
 19 14  1  0  0  0
 18 17  1  0  0  0
  6 14  1  0  0  0
  6 10  1  0  0  0
 14 15  1  0  0  0
  8  1  2  0  0  0
  8 10  1  0  0  0
  1  9  1  0  0  0
 10 11  2  0  0  0
 17 16  1  0  0  0
 15 16  1  0  0  0
  9 12  2  0  0  0
 11 12  1  0  0  0
 11  2  1  0  0  0
 12  4  1  0  0  0
  2  3  2  0  0  0
  4  3  1  0  0  0
  4 13  1  0  0  0
M  END
> <minimizedAffinity>
-7.65097

$$$$
