1Y1Z_192_A_293


 11 11  0  0  0  0  0  0  0  0999 V2000
   21.3285   31.3471    7.6747 N   0  0  0  0  0  0  0  0  0  0  0  0
   21.4918   32.7922    7.8502 C   0  0  0  0  0  0  0  0  0  0  0  0
   21.5310   33.5513    6.4947 C   0  0  0  0  0  0  0  0  0  0  0  0
   20.1427   34.0745    6.7517 C   0  0  0  0  0  0  0  0  0  0  0  0
   20.2125   33.6034    8.2111 C   0  0  0  0  0  0  0  0  0  0  0  0
   22.2293   30.9289    7.4425 H   0  0  0  0  0  0  0  0  0  0  0  0
   20.6662   31.1691    6.9197 H   0  0  0  0  0  0  0  0  0  0  0  0
   23.2335   31.8794    9.1262 O   0  0  0  0  0  0  0  0  0  0  0  0
   22.7244   33.0032    8.7155 C   0  0  0  0  0  0  0  0  0  0  0  0
   23.1621   34.0779    8.9585 O   0  0  0  0  0  0  0  0  0  0  0  0
   22.7369   34.8433    8.6248 H   0  0  0  0  0  0  0  0  0  0  0  0
  1  2  1  0  0  0
  8  9  2  0  0  0
  2  9  1  0  0  0
  2  3  1  0  0  0
  2  5  1  0  0  0
  9 10  1  0  0  0
  3  4  1  0  0  0
  4  5  1  0  0  0
  1  6  1  0  0  0
  1  7  1  0  0  0
 10 11  1  0  0  0
M  END
> <minimizedAffinity>
-6.14794

$$$$
1Y1Z_192_A_293


 11 11  0  0  0  0  0  0  0  0999 V2000
   21.1753   31.2789    7.8192 N   0  0  0  0  0  0  0  0  0  0  0  0
   21.4422   32.7140    7.9414 C   0  0  0  0  0  0  0  0  0  0  0  0
   21.5230   33.4197    6.5591 C   0  0  0  0  0  0  0  0  0  0  0  0
   20.1776   34.0492    6.8059 C   0  0  0  0  0  0  0  0  0  0  0  0
   20.2269   33.6264    8.2809 C   0  0  0  0  0  0  0  0  0  0  0  0
   22.0421   30.7896    7.5964 H   0  0  0  0  0  0  0  0  0  0  0  0
   20.4953   31.1216    7.0753 H   0  0  0  0  0  0  0  0  0  0  0  0
   22.9947   34.1148    9.0006 O   0  0  0  0  0  0  0  0  0  0  0  0
   22.6943   32.8673    8.7905 C   0  0  0  0  0  0  0  0  0  0  0  0
   23.2994   31.9404    9.2155 O   0  0  0  0  0  0  0  0  0  0  0  0
   23.0191   31.0682    9.0193 H   0  0  0  0  0  0  0  0  0  0  0  0
  1  2  1  0  0  0
  8  9  2  0  0  0
  2  9  1  0  0  0
  2  3  1  0  0  0
  2  5  1  0  0  0
  9 10  1  0  0  0
  3  4  1  0  0  0
  4  5  1  0  0  0
  1  6  1  0  0  0
  1  7  1  0  0  0
 10 11  1  0  0  0
M  END
> <minimizedAffinity>
-6.00504

$$$$
1Y1Z_192_A_293


 11 11  0  0  0  0  0  0  0  0999 V2000
   22.6054   34.1358    8.7850 N   0  0  0  0  0  0  0  0  0  0  0  0
   21.7354   33.3036    7.9504 C   0  0  0  0  0  0  0  0  0  0  0  0
   20.2341   33.6710    8.1120 C   0  0  0  0  0  0  0  0  0  0  0  0
   20.2514   34.3235    6.7552 C   0  0  0  0  0  0  0  0  0  0  0  0
   21.6193   33.6978    6.4485 C   0  0  0  0  0  0  0  0  0  0  0  0
   22.5998   33.7810    9.7413 H   0  0  0  0  0  0  0  0  0  0  0  0
   22.2655   35.0975    8.7771 H   0  0  0  0  0  0  0  0  0  0  0  0
   23.0008   31.7457    9.1613 O   0  0  0  0  0  0  0  0  0  0  0  0
   22.0575   31.8528    8.2729 C   0  0  0  0  0  0  0  0  0  0  0  0
   21.4875   30.9419    7.7718 O   0  0  0  0  0  0  0  0  0  0  0  0
   20.8169   31.1009    7.1371 H   0  0  0  0  0  0  0  0  0  0  0  0
  1  2  1  0  0  0
  8  9  2  0  0  0
  2  9  1  0  0  0
  2  3  1  0  0  0
  2  5  1  0  0  0
  9 10  1  0  0  0
  3  4  1  0  0  0
  4  5  1  0  0  0
  1  6  1  0  0  0
  1  7  1  0  0  0
 10 11  1  0  0  0
M  END
> <minimizedAffinity>
-5.98219

$$$$
1Y1Z_192_A_293


 11 11  0  0  0  0  0  0  0  0999 V2000
   19.9600   33.6188    8.2015 N   0  0  0  0  0  0  0  0  0  0  0  0
   21.2731   33.2596    7.6608 C   0  0  0  0  0  0  0  0  0  0  0  0
   22.4323   33.6360    8.6251 C   0  0  0  0  0  0  0  0  0  0  0  0
   22.6135   32.1814    8.9692 C   0  0  0  0  0  0  0  0  0  0  0  0
   21.7055   31.7703    7.8016 C   0  0  0  0  0  0  0  0  0  0  0  0
   19.7907   34.6133    8.0507 H   0  0  0  0  0  0  0  0  0  0  0  0
   19.9375   33.4179    9.2013 H   0  0  0  0  0  0  0  0  0  0  0  0
   21.1762   35.1784    6.3179 O   0  0  0  0  0  0  0  0  0  0  0  0
   21.3807   33.8948    6.2833 C   0  0  0  0  0  0  0  0  0  0  0  0
   21.6402   33.2728    5.3079 O   0  0  0  0  0  0  0  0  0  0  0  0
   21.7741   32.3471    5.3643 H   0  0  0  0  0  0  0  0  0  0  0  0
  1  2  1  0  0  0
  8  9  2  0  0  0
  2  9  1  0  0  0
  2  3  1  0  0  0
  2  5  1  0  0  0
  9 10  1  0  0  0
  3  4  1  0  0  0
  4  5  1  0  0  0
  1  6  1  0  0  0
  1  7  1  0  0  0
 10 11  1  0  0  0
M  END
> <minimizedAffinity>
-4.63930

$$$$
1Y1Z_192_A_293


 11 11  0  0  0  0  0  0  0  0999 V2000
   22.6645   33.8311    8.3235 N   0  0  0  0  0  0  0  0  0  0  0  0
   21.4896   33.3587    7.5872 C   0  0  0  0  0  0  0  0  0  0  0  0
   21.3487   31.8115    7.6292 C   0  0  0  0  0  0  0  0  0  0  0  0
   20.2009   31.9459    8.5944 C   0  0  0  0  0  0  0  0  0  0  0  0
   20.1187   33.4540    8.3194 C   0  0  0  0  0  0  0  0  0  0  0  0
   23.4966   33.7185    7.7445 H   0  0  0  0  0  0  0  0  0  0  0  0
   22.7702   33.2874    9.1800 H   0  0  0  0  0  0  0  0  0  0  0  0
   21.3377   35.2136    6.1622 O   0  0  0  0  0  0  0  0  0  0  0  0
   21.5775   33.9359    6.1831 C   0  0  0  0  0  0  0  0  0  0  0  0
   21.8526   33.2792    5.2350 O   0  0  0  0  0  0  0  0  0  0  0  0
   22.0120   32.3609    5.3313 H   0  0  0  0  0  0  0  0  0  0  0  0
  1  2  1  0  0  0
  8  9  2  0  0  0
  2  9  1  0  0  0
  2  3  1  0  0  0
  2  5  1  0  0  0
  9 10  1  0  0  0
  3  4  1  0  0  0
  4  5  1  0  0  0
  1  6  1  0  0  0
  1  7  1  0  0  0
 10 11  1  0  0  0
M  END
> <minimizedAffinity>
-3.77371

$$$$
1Y1Z_192_A_293


 11 11  0  0  0  0  0  0  0  0999 V2000
   21.9955   32.5986    5.6614 N   0  0  0  0  0  0  0  0  0  0  0  0
   21.5234   33.2175    6.9024 C   0  0  0  0  0  0  0  0  0  0  0  0
   20.9443   32.1753    7.8992 C   0  0  0  0  0  0  0  0  0  0  0  0
   22.1729   32.3191    8.7577 C   0  0  0  0  0  0  0  0  0  0  0  0
   22.6045   33.5631    7.9685 C   0  0  0  0  0  0  0  0  0  0  0  0
   21.2012   32.4206    5.0467 H   0  0  0  0  0  0  0  0  0  0  0  0
   22.4626   31.7178    5.8770 H   0  0  0  0  0  0  0  0  0  0  0  0
   21.0817   35.4968    6.5800 O   0  0  0  0  0  0  0  0  0  0  0  0
   20.5449   34.3145    6.5132 C   0  0  0  0  0  0  0  0  0  0  0  0
   19.4310   34.0907    6.1741 O   0  0  0  0  0  0  0  0  0  0  0  0
   19.1163   33.2084    6.1521 H   0  0  0  0  0  0  0  0  0  0  0  0
  1  2  1  0  0  0
  8  9  2  0  0  0
  2  9  1  0  0  0
  2  3  1  0  0  0
  2  5  1  0  0  0
  9 10  1  0  0  0
  3  4  1  0  0  0
  4  5  1  0  0  0
  1  6  1  0  0  0
  1  7  1  0  0  0
 10 11  1  0  0  0
M  END
> <minimizedAffinity>
-3.35023

$$$$
1Y1Z_192_A_293


 11 11  0  0  0  0  0  0  0  0999 V2000
   21.4858   31.7764    6.9997 N   0  0  0  0  0  0  0  0  0  0  0  0
   21.3757   33.2369    7.0249 C   0  0  0  0  0  0  0  0  0  0  0  0
   20.0046   33.7166    7.5772 C   0  0  0  0  0  0  0  0  0  0  0  0
   20.6725   34.1381    8.8592 C   0  0  0  0  0  0  0  0  0  0  0  0
   22.0571   33.9705    8.2175 C   0  0  0  0  0  0  0  0  0  0  0  0
   21.0037   31.4133    6.1774 H   0  0  0  0  0  0  0  0  0  0  0  0
   21.0605   31.3888    7.8419 H   0  0  0  0  0  0  0  0  0  0  0  0
   21.4759   35.0118    5.4970 O   0  0  0  0  0  0  0  0  0  0  0  0
   21.6887   33.7352    5.6227 C   0  0  0  0  0  0  0  0  0  0  0  0
   22.0960   33.0252    4.7649 O   0  0  0  0  0  0  0  0  0  0  0  0
   22.2237   32.1124    4.9335 H   0  0  0  0  0  0  0  0  0  0  0  0
  1  2  1  0  0  0
  8  9  2  0  0  0
  2  9  1  0  0  0
  2  3  1  0  0  0
  2  5  1  0  0  0
  9 10  1  0  0  0
  3  4  1  0  0  0
  4  5  1  0  0  0
  1  6  1  0  0  0
  1  7  1  0  0  0
 10 11  1  0  0  0
M  END
> <minimizedAffinity>
-3.24814

$$$$
