2PSV_MUV_A_200


 36 38  0  0  0  0  0  0  0  0999 V2000
   18.3763   30.6087   15.3270 C   0  0  0  0  0  0  0  0  0  0  0  0
   18.0419   29.1795   13.3326 C   0  0  0  0  0  0  0  0  0  0  0  0
   17.8697   30.1240   12.5776 O   0  0  0  0  0  0  0  0  0  0  0  0
   18.2763   29.3241   14.6375 N   0  0  0  0  0  0  0  0  0  0  0  0
   18.3902   28.5070   15.1747 H   0  0  0  0  0  0  0  0  0  0  0  0
   17.9561   27.7710   12.7645 C   0  0  0  0  0  0  0  0  0  0  0  0
   17.8463   27.9512   11.2616 C   0  0  0  0  0  0  0  0  0  0  0  0
   17.9154   25.5910   11.0900 O   0  0  0  0  0  0  0  0  0  0  0  0
   18.2261   26.6590   10.5686 C   0  0  0  0  0  0  0  0  0  0  0  0
   18.8647   26.7296    9.3964 N   0  0  0  0  0  0  0  0  0  0  0  0
   19.2331   25.5550    8.6255 C   0  0  0  0  0  0  0  0  0  0  0  0
   19.0958   27.6176    9.0396 H   0  0  0  0  0  0  0  0  0  0  0  0
   19.6519   30.6063   16.1863 C   0  0  0  0  0  0  0  0  0  0  0  0
   19.3895   30.0496   17.4809 O   0  0  0  0  0  0  0  0  0  0  0  0
   18.7434   30.6036   17.9462 H   0  0  0  0  0  0  0  0  0  0  0  0
   20.2760   32.0041   16.3212 C   0  0  0  0  0  0  0  0  0  0  0  0
   21.7356   31.8560   16.0972 N   0  0  0  0  0  0  0  0  0  0  0  0
   22.1639   31.8510   14.5342 S   0  0  0  0  0  0  0  0  0  0  0  0
   21.3062   32.8014   13.8860 O   0  0  0  0  0  0  0  0  0  0  0  0
   23.5327   32.2398   14.4508 O   0  0  0  0  0  0  0  0  0  0  0  0
   22.0115   30.3942   13.7466 C   0  0  0  0  0  0  0  0  0  0  0  0
   22.4008   29.1822   14.2511 O   0  0  0  0  0  0  0  0  0  0  0  0
   22.0526   28.2407   13.2857 C   0  0  0  0  0  0  0  0  0  0  0  0
   21.4493   28.8936   12.2114 C   0  0  0  0  0  0  0  0  0  0  0  0
   21.4076   30.2922   12.5275 C   0  0  0  0  0  0  0  0  0  0  0  0
   22.5545   32.7279   16.9616 C   0  0  0  0  0  0  0  0  0  0  0  0
   21.6820   33.9057   17.4040 C   0  0  0  0  0  0  0  0  0  0  0  0
   22.0684   34.6153   18.7017 C   0  0  0  0  0  0  0  0  0  0  0  0
   22.3255   35.2914   17.3630 C   0  0  0  0  0  0  0  0  0  0  0  0
   17.0996   30.7870   16.1538 C   0  0  0  0  0  0  0  0  0  0  0  0
   16.6077   32.2232   16.0261 C   0  0  0  0  0  0  0  0  0  0  0  0
   17.0961   33.0413   15.0116 C   0  0  0  0  0  0  0  0  0  0  0  0
   16.6484   34.3582   14.8881 C   0  0  0  0  0  0  0  0  0  0  0  0
   15.7044   34.8573   15.7801 C   0  0  0  0  0  0  0  0  0  0  0  0
   15.2238   34.0444   16.7982 C   0  0  0  0  0  0  0  0  0  0  0  0
   15.6709   32.7349   16.9175 C   0  0  0  0  0  0  0  0  0  0  0  0
  8  9  2  0  0  0
  9 10  1  0  0  0
  9  7  1  0  0  0
 10 11  1  0  0  0
  7  6  1  0  0  0
  6  2  1  0  0  0
  2  3  2  0  0  0
  2  4  1  0  0  0
  4  1  1  0  0  0
  1 30  1  0  0  0
  1 13  1  0  0  0
 30 31  1  0  0  0
 31 32  2  0  0  0
 31 36  1  0  0  0
 32 33  1  0  0  0
 33 34  2  0  0  0
 34 35  1  0  0  0
 35 36  2  0  0  0
 13 16  1  0  0  0
 13 14  1  0  0  0
 16 17  1  0  0  0
 17 18  1  0  0  0
 17 26  1  0  0  0
 26 27  1  0  0  0
 27 28  1  0  0  0
 27 29  1  0  0  0
 28 29  1  0  0  0
 18 19  2  0  0  0
 18 20  2  0  0  0
 18 21  1  0  0  0
 21 22  1  0  0  0
 21 25  2  0  0  0
 22 23  1  0  0  0
 23 24  2  0  0  0
 24 25  1  0  0  0
 10 12  1  0  0  0
  4  5  1  0  0  0
 14 15  1  0  0  0
M  END
> <minimizedAffinity>
-8.98173

$$$$
2PSV_MUV_A_200


 36 38  0  0  0  0  0  0  0  0999 V2000
   17.8687   31.2336   15.2539 C   0  0  0  0  0  0  0  0  0  0  0  0
   16.1223   32.7817   16.0817 C   0  0  0  0  0  0  0  0  0  0  0  0
   15.3234   31.8897   16.3222 O   0  0  0  0  0  0  0  0  0  0  0  0
   17.3336   32.5558   15.5717 N   0  0  0  0  0  0  0  0  0  0  0  0
   17.9085   33.3357   15.3967 H   0  0  0  0  0  0  0  0  0  0  0  0
   15.7063   34.2202   16.3489 C   0  0  0  0  0  0  0  0  0  0  0  0
   15.5805   34.3273   17.8576 C   0  0  0  0  0  0  0  0  0  0  0  0
   17.7067   34.8081   18.7812 O   0  0  0  0  0  0  0  0  0  0  0  0
   16.6396   35.2719   18.3872 C   0  0  0  0  0  0  0  0  0  0  0  0
   16.3826   36.5836   18.3811 N   0  0  0  0  0  0  0  0  0  0  0  0
   17.3442   37.5790   18.8216 C   0  0  0  0  0  0  0  0  0  0  0  0
   15.5019   36.8887   18.0639 H   0  0  0  0  0  0  0  0  0  0  0  0
   19.2032   31.0529   15.9968 C   0  0  0  0  0  0  0  0  0  0  0  0
   18.9816   30.5551   17.3227 O   0  0  0  0  0  0  0  0  0  0  0  0
   18.4681   31.2033   17.8298 H   0  0  0  0  0  0  0  0  0  0  0  0
   20.0340   32.3449   16.0421 C   0  0  0  0  0  0  0  0  0  0  0  0
   21.4637   31.9483   16.0105 N   0  0  0  0  0  0  0  0  0  0  0  0
   22.0835   31.8410   14.5169 S   0  0  0  0  0  0  0  0  0  0  0  0
   21.3751   32.8051   13.7245 O   0  0  0  0  0  0  0  0  0  0  0  0
   23.4736   32.1469   14.5933 O   0  0  0  0  0  0  0  0  0  0  0  0
   21.9402   30.3578   13.7786 C   0  0  0  0  0  0  0  0  0  0  0  0
   22.2529   29.1570   14.3575 O   0  0  0  0  0  0  0  0  0  0  0  0
   21.9440   28.1866   13.4074 C   0  0  0  0  0  0  0  0  0  0  0  0
   21.4404   28.8117   12.2671 C   0  0  0  0  0  0  0  0  0  0  0  0
   21.4218   30.2229   12.5238 C   0  0  0  0  0  0  0  0  0  0  0  0
   22.3000   32.6858   16.9773 C   0  0  0  0  0  0  0  0  0  0  0  0
   21.5323   33.9402   17.4030 C   0  0  0  0  0  0  0  0  0  0  0  0
   22.0126   34.6619   18.6622 C   0  0  0  0  0  0  0  0  0  0  0  0
   22.2753   35.2713   17.2929 C   0  0  0  0  0  0  0  0  0  0  0  0
   18.0168   31.1515   13.7318 C   0  0  0  0  0  0  0  0  0  0  0  0
   17.9712   29.6928   13.2945 C   0  0  0  0  0  0  0  0  0  0  0  0
   18.1229   28.6769   14.2338 C   0  0  0  0  0  0  0  0  0  0  0  0
   18.0807   27.3379   13.8398 C   0  0  0  0  0  0  0  0  0  0  0  0
   17.8810   27.0136   12.5016 C   0  0  0  0  0  0  0  0  0  0  0  0
   17.7390   28.0269   11.5629 C   0  0  0  0  0  0  0  0  0  0  0  0
   17.7808   29.3576   11.9584 C   0  0  0  0  0  0  0  0  0  0  0  0
  8  9  2  0  0  0
  9 10  1  0  0  0
  9  7  1  0  0  0
 10 11  1  0  0  0
  7  6  1  0  0  0
  6  2  1  0  0  0
  2  3  2  0  0  0
  2  4  1  0  0  0
  4  1  1  0  0  0
  1 30  1  0  0  0
  1 13  1  0  0  0
 30 31  1  0  0  0
 31 32  2  0  0  0
 31 36  1  0  0  0
 32 33  1  0  0  0
 33 34  2  0  0  0
 34 35  1  0  0  0
 35 36  2  0  0  0
 13 16  1  0  0  0
 13 14  1  0  0  0
 16 17  1  0  0  0
 17 18  1  0  0  0
 17 26  1  0  0  0
 26 27  1  0  0  0
 27 28  1  0  0  0
 27 29  1  0  0  0
 28 29  1  0  0  0
 18 19  2  0  0  0
 18 20  2  0  0  0
 18 21  1  0  0  0
 21 22  1  0  0  0
 21 25  2  0  0  0
 22 23  1  0  0  0
 23 24  2  0  0  0
 24 25  1  0  0  0
 10 12  1  0  0  0
  4  5  1  0  0  0
 14 15  1  0  0  0
M  END
> <minimizedAffinity>
-8.81003

$$$$
2PSV_MUV_A_200


 36 38  0  0  0  0  0  0  0  0999 V2000
   18.9449   30.5545   15.1304 C   0  0  0  0  0  0  0  0  0  0  0  0
   16.9875   32.0206   15.5189 C   0  0  0  0  0  0  0  0  0  0  0  0
   17.3327   32.8471   14.6885 O   0  0  0  0  0  0  0  0  0  0  0  0
   17.6940   30.9225   15.7902 N   0  0  0  0  0  0  0  0  0  0  0  0
   17.3481   30.3164   16.4846 H   0  0  0  0  0  0  0  0  0  0  0  0
   15.7071   32.2690   16.3016 C   0  0  0  0  0  0  0  0  0  0  0  0
   15.5945   33.7781   16.4172 C   0  0  0  0  0  0  0  0  0  0  0  0
   15.7900   34.2824   18.7220 O   0  0  0  0  0  0  0  0  0  0  0  0
   16.3614   34.2503   17.6351 C   0  0  0  0  0  0  0  0  0  0  0  0
   17.6454   34.5906   17.4857 N   0  0  0  0  0  0  0  0  0  0  0  0
   18.4852   35.0112   18.5937 C   0  0  0  0  0  0  0  0  0  0  0  0
   18.0396   34.5545   16.5843 H   0  0  0  0  0  0  0  0  0  0  0  0
   18.7024   29.2898   14.2894 C   0  0  0  0  0  0  0  0  0  0  0  0
   19.3159   28.1484   14.9023 O   0  0  0  0  0  0  0  0  0  0  0  0
   20.2767   28.2775   14.9372 H   0  0  0  0  0  0  0  0  0  0  0  0
   19.1862   29.4431   12.8388 C   0  0  0  0  0  0  0  0  0  0  0  0
   19.5253   28.0857   12.3439 N   0  0  0  0  0  0  0  0  0  0  0  0
   18.2708   27.2892   11.6970 S   0  0  0  0  0  0  0  0  0  0  0  0
   17.9546   26.2349   12.6177 O   0  0  0  0  0  0  0  0  0  0  0  0
   17.1886   28.2068   11.5611 O   0  0  0  0  0  0  0  0  0  0  0  0
   18.5377   26.6096   10.2029 C   0  0  0  0  0  0  0  0  0  0  0  0
   19.0911   25.3760    9.9869 O   0  0  0  0  0  0  0  0  0  0  0  0
   19.0882   25.1961    8.6058 C   0  0  0  0  0  0  0  0  0  0  0  0
   18.5255   26.3204    8.0027 C   0  0  0  0  0  0  0  0  0  0  0  0
   18.1509   27.2271    9.0494 C   0  0  0  0  0  0  0  0  0  0  0  0
   20.7649   28.0441   11.5442 C   0  0  0  0  0  0  0  0  0  0  0  0
   21.8243   27.2946   12.3567 C   0  0  0  0  0  0  0  0  0  0  0  0
   23.2487   27.2754   11.8020 C   0  0  0  0  0  0  0  0  0  0  0  0
   22.9171   28.1413   13.0084 C   0  0  0  0  0  0  0  0  0  0  0  0
   19.9986   30.3519   16.2232 C   0  0  0  0  0  0  0  0  0  0  0  0
   21.2204   31.2086   15.9164 C   0  0  0  0  0  0  0  0  0  0  0  0
   21.8327   31.1309   14.6689 C   0  0  0  0  0  0  0  0  0  0  0  0
   22.9521   31.9143   14.3808 C   0  0  0  0  0  0  0  0  0  0  0  0
   23.4582   32.7829   15.3427 C   0  0  0  0  0  0  0  0  0  0  0  0
   22.8533   32.8538   16.5907 C   0  0  0  0  0  0  0  0  0  0  0  0
   21.7397   32.0736   16.8735 C   0  0  0  0  0  0  0  0  0  0  0  0
  8  9  2  0  0  0
  9 10  1  0  0  0
  9  7  1  0  0  0
 10 11  1  0  0  0
  7  6  1  0  0  0
  6  2  1  0  0  0
  2  3  2  0  0  0
  2  4  1  0  0  0
  4  1  1  0  0  0
  1 30  1  0  0  0
  1 13  1  0  0  0
 30 31  1  0  0  0
 31 32  2  0  0  0
 31 36  1  0  0  0
 32 33  1  0  0  0
 33 34  2  0  0  0
 34 35  1  0  0  0
 35 36  2  0  0  0
 13 16  1  0  0  0
 13 14  1  0  0  0
 16 17  1  0  0  0
 17 18  1  0  0  0
 17 26  1  0  0  0
 26 27  1  0  0  0
 27 28  1  0  0  0
 27 29  1  0  0  0
 28 29  1  0  0  0
 18 19  2  0  0  0
 18 20  2  0  0  0
 18 21  1  0  0  0
 21 22  1  0  0  0
 21 25  2  0  0  0
 22 23  1  0  0  0
 23 24  2  0  0  0
 24 25  1  0  0  0
 10 12  1  0  0  0
  4  5  1  0  0  0
 14 15  1  0  0  0
M  END
> <minimizedAffinity>
-8.44271

$$$$
2PSV_MUV_A_200


 36 38  0  0  0  0  0  0  0  0999 V2000
   19.5959   28.9400   13.8698 C   0  0  0  0  0  0  0  0  0  0  0  0
   21.6368   28.3379   12.6033 C   0  0  0  0  0  0  0  0  0  0  0  0
   21.4299   29.1505   11.7152 O   0  0  0  0  0  0  0  0  0  0  0  0
   20.8190   28.1729   13.6437 N   0  0  0  0  0  0  0  0  0  0  0  0
   21.0562   27.4850   14.3069 H   0  0  0  0  0  0  0  0  0  0  0  0
   22.8693   27.4520   12.5040 C   0  0  0  0  0  0  0  0  0  0  0  0
   22.3725   26.1371   11.9316 C   0  0  0  0  0  0  0  0  0  0  0  0
   24.4436   25.1307   11.3814 O   0  0  0  0  0  0  0  0  0  0  0  0
   23.3916   25.5960   10.9503 C   0  0  0  0  0  0  0  0  0  0  0  0
   23.0952   25.6206    9.6470 N   0  0  0  0  0  0  0  0  0  0  0  0
   23.9786   25.0855    8.6258 C   0  0  0  0  0  0  0  0  0  0  0  0
   22.2398   26.0193    9.3668 H   0  0  0  0  0  0  0  0  0  0  0  0
   19.7303   29.6962   15.2023 C   0  0  0  0  0  0  0  0  0  0  0  0
   20.0346   28.7902   16.2706 O   0  0  0  0  0  0  0  0  0  0  0  0
   19.3028   28.1630   16.3809 H   0  0  0  0  0  0  0  0  0  0  0  0
   18.4800   30.5229   15.5412 C   0  0  0  0  0  0  0  0  0  0  0  0
   18.9473   31.8133   16.1058 N   0  0  0  0  0  0  0  0  0  0  0  0
   19.7144   32.7595   15.0367 S   0  0  0  0  0  0  0  0  0  0  0  0
   19.2391   32.3604   13.7429 O   0  0  0  0  0  0  0  0  0  0  0  0
   19.3752   34.1139   15.3235 O   0  0  0  0  0  0  0  0  0  0  0  0
   21.3739   32.6517   15.0348 C   0  0  0  0  0  0  0  0  0  0  0  0
   22.1820   32.9311   16.1043 O   0  0  0  0  0  0  0  0  0  0  0  0
   23.4812   32.6701   15.6758 C   0  0  0  0  0  0  0  0  0  0  0  0
   23.4431   32.2281   14.3538 C   0  0  0  0  0  0  0  0  0  0  0  0
   22.0669   32.1992   13.9502 C   0  0  0  0  0  0  0  0  0  0  0  0
   17.9288   32.5009   16.9231 C   0  0  0  0  0  0  0  0  0  0  0  0
   16.5673   32.2877   16.2559 C   0  0  0  0  0  0  0  0  0  0  0  0
   15.3397   32.8479   16.9743 C   0  0  0  0  0  0  0  0  0  0  0  0
   15.8619   33.5332   15.7201 C   0  0  0  0  0  0  0  0  0  0  0  0
   18.4254   27.9524   13.8592 C   0  0  0  0  0  0  0  0  0  0  0  0
   18.1377   27.5204   12.4268 C   0  0  0  0  0  0  0  0  0  0  0  0
   17.6346   28.4371   11.5084 C   0  0  0  0  0  0  0  0  0  0  0  0
   17.3700   28.0480   10.1937 C   0  0  0  0  0  0  0  0  0  0  0  0
   17.6144   26.7377    9.7947 C   0  0  0  0  0  0  0  0  0  0  0  0
   18.1075   25.8203   10.7132 C   0  0  0  0  0  0  0  0  0  0  0  0
   18.3701   26.2111   12.0198 C   0  0  0  0  0  0  0  0  0  0  0  0
  8  9  2  0  0  0
  9 10  1  0  0  0
  9  7  1  0  0  0
 10 11  1  0  0  0
  7  6  1  0  0  0
  6  2  1  0  0  0
  2  3  2  0  0  0
  2  4  1  0  0  0
  4  1  1  0  0  0
  1 30  1  0  0  0
  1 13  1  0  0  0
 30 31  1  0  0  0
 31 32  2  0  0  0
 31 36  1  0  0  0
 32 33  1  0  0  0
 33 34  2  0  0  0
 34 35  1  0  0  0
 35 36  2  0  0  0
 13 16  1  0  0  0
 13 14  1  0  0  0
 16 17  1  0  0  0
 17 18  1  0  0  0
 17 26  1  0  0  0
 26 27  1  0  0  0
 27 28  1  0  0  0
 27 29  1  0  0  0
 28 29  1  0  0  0
 18 19  2  0  0  0
 18 20  2  0  0  0
 18 21  1  0  0  0
 21 22  1  0  0  0
 21 25  2  0  0  0
 22 23  1  0  0  0
 23 24  2  0  0  0
 24 25  1  0  0  0
 10 12  1  0  0  0
  4  5  1  0  0  0
 14 15  1  0  0  0
M  END
> <minimizedAffinity>
-8.43020

$$$$
2PSV_MUV_A_200


 36 38  0  0  0  0  0  0  0  0999 V2000
   19.7967   29.0072   14.1984 C   0  0  0  0  0  0  0  0  0  0  0  0
   21.6998   28.4893   12.7012 C   0  0  0  0  0  0  0  0  0  0  0  0
   21.5159   29.4635   11.9878 O   0  0  0  0  0  0  0  0  0  0  0  0
   20.9314   28.2016   13.7525 N   0  0  0  0  0  0  0  0  0  0  0  0
   21.1439   27.3882   14.2649 H   0  0  0  0  0  0  0  0  0  0  0  0
   22.8406   27.5435   12.3581 C   0  0  0  0  0  0  0  0  0  0  0  0
   22.1778   26.3177   11.7568 C   0  0  0  0  0  0  0  0  0  0  0  0
   24.1883   25.1090   11.4377 O   0  0  0  0  0  0  0  0  0  0  0  0
   23.1808   25.5674   10.9051 C   0  0  0  0  0  0  0  0  0  0  0  0
   22.9177   25.4082    9.6042 N   0  0  0  0  0  0  0  0  0  0  0  0
   23.7867   24.6663    8.7075 C   0  0  0  0  0  0  0  0  0  0  0  0
   22.0981   25.8120    9.2374 H   0  0  0  0  0  0  0  0  0  0  0  0
   20.1122   29.5685   15.5951 C   0  0  0  0  0  0  0  0  0  0  0  0
   20.0734   28.5278   16.5800 O   0  0  0  0  0  0  0  0  0  0  0  0
   19.1774   28.1592   16.6258 H   0  0  0  0  0  0  0  0  0  0  0  0
   19.1751   30.7190   15.9950 C   0  0  0  0  0  0  0  0  0  0  0  0
   19.8719   31.9870   15.6646 N   0  0  0  0  0  0  0  0  0  0  0  0
   18.8889   33.2722   15.5700 S   0  0  0  0  0  0  0  0  0  0  0  0
   19.5389   34.3218   16.3013 O   0  0  0  0  0  0  0  0  0  0  0  0
   18.7366   33.6105   14.1937 O   0  0  0  0  0  0  0  0  0  0  0  0
   17.3652   33.0661   16.2034 C   0  0  0  0  0  0  0  0  0  0  0  0
   16.9257   33.5985   17.3859 O   0  0  0  0  0  0  0  0  0  0  0  0
   15.5930   33.2114   17.5034 C   0  0  0  0  0  0  0  0  0  0  0  0
   15.2394   32.4556   16.3862 C   0  0  0  0  0  0  0  0  0  0  0  0
   16.3918   32.3826   15.5350 C   0  0  0  0  0  0  0  0  0  0  0  0
   21.1021   32.2040   16.4504 C   0  0  0  0  0  0  0  0  0  0  0  0
   22.1926   32.6918   15.4927 C   0  0  0  0  0  0  0  0  0  0  0  0
   23.1331   31.6385   14.9072 C   0  0  0  0  0  0  0  0  0  0  0  0
   22.0619   32.2691   14.0297 C   0  0  0  0  0  0  0  0  0  0  0  0
   18.5587   28.1057   14.1828 C   0  0  0  0  0  0  0  0  0  0  0  0
   18.2237   27.7268   12.7457 C   0  0  0  0  0  0  0  0  0  0  0  0
   17.6946   28.6776   11.8779 C   0  0  0  0  0  0  0  0  0  0  0  0
   17.3866   28.3372   10.5591 C   0  0  0  0  0  0  0  0  0  0  0  0
   17.6134   27.0418   10.1050 C   0  0  0  0  0  0  0  0  0  0  0  0
   18.1326   26.0904   10.9732 C   0  0  0  0  0  0  0  0  0  0  0  0
   18.4384   26.4327   12.2841 C   0  0  0  0  0  0  0  0  0  0  0  0
  8  9  2  0  0  0
  9 10  1  0  0  0
  9  7  1  0  0  0
 10 11  1  0  0  0
  7  6  1  0  0  0
  6  2  1  0  0  0
  2  3  2  0  0  0
  2  4  1  0  0  0
  4  1  1  0  0  0
  1 30  1  0  0  0
  1 13  1  0  0  0
 30 31  1  0  0  0
 31 32  2  0  0  0
 31 36  1  0  0  0
 32 33  1  0  0  0
 33 34  2  0  0  0
 34 35  1  0  0  0
 35 36  2  0  0  0
 13 16  1  0  0  0
 13 14  1  0  0  0
 16 17  1  0  0  0
 17 18  1  0  0  0
 17 26  1  0  0  0
 26 27  1  0  0  0
 27 28  1  0  0  0
 27 29  1  0  0  0
 28 29  1  0  0  0
 18 19  2  0  0  0
 18 20  2  0  0  0
 18 21  1  0  0  0
 21 22  1  0  0  0
 21 25  2  0  0  0
 22 23  1  0  0  0
 23 24  2  0  0  0
 24 25  1  0  0  0
 10 12  1  0  0  0
  4  5  1  0  0  0
 14 15  1  0  0  0
M  END
> <minimizedAffinity>
-8.38981

$$$$
2PSV_MUV_A_200


 36 38  0  0  0  0  0  0  0  0999 V2000
   19.7494   28.9212   14.1131 C   0  0  0  0  0  0  0  0  0  0  0  0
   21.7176   28.5033   12.6697 C   0  0  0  0  0  0  0  0  0  0  0  0
   21.5342   29.4973   11.9840 O   0  0  0  0  0  0  0  0  0  0  0  0
   20.9197   28.1599   13.6816 N   0  0  0  0  0  0  0  0  0  0  0  0
   21.1346   27.3343   14.1731 H   0  0  0  0  0  0  0  0  0  0  0  0
   22.8938   27.5984   12.3362 C   0  0  0  0  0  0  0  0  0  0  0  0
   22.2762   26.3170   11.8071 C   0  0  0  0  0  0  0  0  0  0  0  0
   24.2348   25.0521   11.3958 O   0  0  0  0  0  0  0  0  0  0  0  0
   23.2649   25.6177   10.8972 C   0  0  0  0  0  0  0  0  0  0  0  0
   23.0296   25.6191    9.5814 N   0  0  0  0  0  0  0  0  0  0  0  0
   23.8860   24.9398    8.6250 C   0  0  0  0  0  0  0  0  0  0  0  0
   22.2403   26.1023    9.2454 H   0  0  0  0  0  0  0  0  0  0  0  0
   20.0273   29.4974   15.5118 C   0  0  0  0  0  0  0  0  0  0  0  0
   20.1153   28.4477   16.4839 O   0  0  0  0  0  0  0  0  0  0  0  0
   19.2640   27.9859   16.5390 H   0  0  0  0  0  0  0  0  0  0  0  0
   18.9809   30.5379   15.9407 C   0  0  0  0  0  0  0  0  0  0  0  0
   19.5683   31.8782   15.6938 N   0  0  0  0  0  0  0  0  0  0  0  0
   18.5499   33.1057   15.9813 S   0  0  0  0  0  0  0  0  0  0  0  0
   18.3391   33.7492   14.7162 O   0  0  0  0  0  0  0  0  0  0  0  0
   17.3386   32.5616   16.4994 O   0  0  0  0  0  0  0  0  0  0  0  0
   19.0836   34.2509   17.0626 C   0  0  0  0  0  0  0  0  0  0  0  0
   20.0545   35.1822   16.8075 O   0  0  0  0  0  0  0  0  0  0  0  0
   20.1519   35.9539   17.9627 C   0  0  0  0  0  0  0  0  0  0  0  0
   19.2327   35.4852   18.9008 C   0  0  0  0  0  0  0  0  0  0  0  0
   18.5271   34.3900   18.3004 C   0  0  0  0  0  0  0  0  0  0  0  0
   20.9172   32.0441   16.2692 C   0  0  0  0  0  0  0  0  0  0  0  0
   21.8141   32.6653   15.1950 C   0  0  0  0  0  0  0  0  0  0  0  0
   23.3211   32.6602   15.4518 C   0  0  0  0  0  0  0  0  0  0  0  0
   22.7246   31.7106   14.4234 C   0  0  0  0  0  0  0  0  0  0  0  0
   18.5481   27.9717   14.0864 C   0  0  0  0  0  0  0  0  0  0  0  0
   18.2159   27.6126   12.6436 C   0  0  0  0  0  0  0  0  0  0  0  0
   18.4242   26.3167   12.1806 C   0  0  0  0  0  0  0  0  0  0  0  0
   18.1206   25.9806   10.8597 C   0  0  0  0  0  0  0  0  0  0  0  0
   17.6018   26.9435    9.9997 C   0  0  0  0  0  0  0  0  0  0  0  0
   17.4027   28.2389   10.4586 C   0  0  0  0  0  0  0  0  0  0  0  0
   17.7052   28.5694   11.7732 C   0  0  0  0  0  0  0  0  0  0  0  0
  8  9  2  0  0  0
  9 10  1  0  0  0
  9  7  1  0  0  0
 10 11  1  0  0  0
  7  6  1  0  0  0
  6  2  1  0  0  0
  2  3  2  0  0  0
  2  4  1  0  0  0
  4  1  1  0  0  0
  1 30  1  0  0  0
  1 13  1  0  0  0
 30 31  1  0  0  0
 31 32  2  0  0  0
 31 36  1  0  0  0
 32 33  1  0  0  0
 33 34  2  0  0  0
 34 35  1  0  0  0
 35 36  2  0  0  0
 13 16  1  0  0  0
 13 14  1  0  0  0
 16 17  1  0  0  0
 17 18  1  0  0  0
 17 26  1  0  0  0
 26 27  1  0  0  0
 27 28  1  0  0  0
 27 29  1  0  0  0
 28 29  1  0  0  0
 18 19  2  0  0  0
 18 20  2  0  0  0
 18 21  1  0  0  0
 21 22  1  0  0  0
 21 25  2  0  0  0
 22 23  1  0  0  0
 23 24  2  0  0  0
 24 25  1  0  0  0
 10 12  1  0  0  0
  4  5  1  0  0  0
 14 15  1  0  0  0
M  END
> <minimizedAffinity>
-8.38153

$$$$
2PSV_MUV_A_200


 36 38  0  0  0  0  0  0  0  0999 V2000
   18.2129   30.5999   15.3956 C   0  0  0  0  0  0  0  0  0  0  0  0
   17.8246   29.1587   13.4198 C   0  0  0  0  0  0  0  0  0  0  0  0
   17.6240   30.0985   12.6658 O   0  0  0  0  0  0  0  0  0  0  0  0
   18.0985   29.3113   14.7160 N   0  0  0  0  0  0  0  0  0  0  0  0
   18.2334   28.4975   15.2535 H   0  0  0  0  0  0  0  0  0  0  0  0
   17.7289   27.7470   12.8616 C   0  0  0  0  0  0  0  0  0  0  0  0
   17.8631   27.9008   11.3577 C   0  0  0  0  0  0  0  0  0  0  0  0
   18.9648   26.7449    9.6097 O   0  0  0  0  0  0  0  0  0  0  0  0
   18.8092   26.8450   10.8241 C   0  0  0  0  0  0  0  0  0  0  0  0
   19.4630   26.0756   11.7001 N   0  0  0  0  0  0  0  0  0  0  0  0
   20.4273   25.0661   11.2991 C   0  0  0  0  0  0  0  0  0  0  0  0
   19.2828   26.1986   12.6602 H   0  0  0  0  0  0  0  0  0  0  0  0
   19.4110   30.5422   16.3583 C   0  0  0  0  0  0  0  0  0  0  0  0
   19.5202   31.7610   17.1049 O   0  0  0  0  0  0  0  0  0  0  0  0
   19.6885   32.4983   16.4974 H   0  0  0  0  0  0  0  0  0  0  0  0
   20.7334   30.2354   15.6380 C   0  0  0  0  0  0  0  0  0  0  0  0
   20.9152   31.2742   14.5939 N   0  0  0  0  0  0  0  0  0  0  0  0
   22.0556   32.3700   14.9480 S   0  0  0  0  0  0  0  0  0  0  0  0
   23.0945   31.6532   15.6307 O   0  0  0  0  0  0  0  0  0  0  0  0
   22.5242   32.9301   13.7240 O   0  0  0  0  0  0  0  0  0  0  0  0
   21.5717   33.6304   15.9190 C   0  0  0  0  0  0  0  0  0  0  0  0
   20.3727   34.2844   15.8205 O   0  0  0  0  0  0  0  0  0  0  0  0
   20.3714   35.2291   16.8438 C   0  0  0  0  0  0  0  0  0  0  0  0
   21.5670   35.1302   17.5547 C   0  0  0  0  0  0  0  0  0  0  0  0
   22.3341   34.0740   16.9599 C   0  0  0  0  0  0  0  0  0  0  0  0
   20.9857   30.7264   13.2253 C   0  0  0  0  0  0  0  0  0  0  0  0
   21.3063   29.2330   13.3320 C   0  0  0  0  0  0  0  0  0  0  0  0
   21.8438   28.5407   12.0795 C   0  0  0  0  0  0  0  0  0  0  0  0
   22.7800   28.8383   13.2414 C   0  0  0  0  0  0  0  0  0  0  0  0
   16.8842   30.8617   16.1109 C   0  0  0  0  0  0  0  0  0  0  0  0
   16.5131   32.3327   15.9717 C   0  0  0  0  0  0  0  0  0  0  0  0
   17.0855   33.1053   14.9655 C   0  0  0  0  0  0  0  0  0  0  0  0
   16.7487   34.4539   14.8316 C   0  0  0  0  0  0  0  0  0  0  0  0
   15.8317   35.0307   15.7046 C   0  0  0  0  0  0  0  0  0  0  0  0
   15.2674   34.2625   16.7145 C   0  0  0  0  0  0  0  0  0  0  0  0
   15.6043   32.9214   16.8443 C   0  0  0  0  0  0  0  0  0  0  0  0
  8  9  2  0  0  0
  9 10  1  0  0  0
  9  7  1  0  0  0
 10 11  1  0  0  0
  7  6  1  0  0  0
  6  2  1  0  0  0
  2  3  2  0  0  0
  2  4  1  0  0  0
  4  1  1  0  0  0
  1 30  1  0  0  0
  1 13  1  0  0  0
 30 31  1  0  0  0
 31 32  2  0  0  0
 31 36  1  0  0  0
 32 33  1  0  0  0
 33 34  2  0  0  0
 34 35  1  0  0  0
 35 36  2  0  0  0
 13 16  1  0  0  0
 13 14  1  0  0  0
 16 17  1  0  0  0
 17 18  1  0  0  0
 17 26  1  0  0  0
 26 27  1  0  0  0
 27 28  1  0  0  0
 27 29  1  0  0  0
 28 29  1  0  0  0
 18 19  2  0  0  0
 18 20  2  0  0  0
 18 21  1  0  0  0
 21 22  1  0  0  0
 21 25  2  0  0  0
 22 23  1  0  0  0
 23 24  2  0  0  0
 24 25  1  0  0  0
 10 12  1  0  0  0
  4  5  1  0  0  0
 14 15  1  0  0  0
M  END
> <minimizedAffinity>
-8.29444

$$$$
2PSV_MUV_A_200


 36 38  0  0  0  0  0  0  0  0999 V2000
   19.6036   29.0804   14.2260 C   0  0  0  0  0  0  0  0  0  0  0  0
   21.5446   28.5760   12.7735 C   0  0  0  0  0  0  0  0  0  0  0  0
   21.4282   29.5987   12.1159 O   0  0  0  0  0  0  0  0  0  0  0  0
   20.7232   28.2569   13.7745 N   0  0  0  0  0  0  0  0  0  0  0  0
   20.8825   27.4057   14.2427 H   0  0  0  0  0  0  0  0  0  0  0  0
   22.6606   27.6061   12.4159 C   0  0  0  0  0  0  0  0  0  0  0  0
   21.9712   26.4311   11.7469 C   0  0  0  0  0  0  0  0  0  0  0  0
   23.9891   25.2015   11.6017 O   0  0  0  0  0  0  0  0  0  0  0  0
   22.9959   25.6024   11.0002 C   0  0  0  0  0  0  0  0  0  0  0  0
   22.7667   25.3142    9.7151 N   0  0  0  0  0  0  0  0  0  0  0  0
   23.6586   24.4890    8.9194 C   0  0  0  0  0  0  0  0  0  0  0  0
   21.9571   25.6777    9.2889 H   0  0  0  0  0  0  0  0  0  0  0  0
   19.9199   29.6081   15.6356 C   0  0  0  0  0  0  0  0  0  0  0  0
   20.1413   28.5225   16.5452 O   0  0  0  0  0  0  0  0  0  0  0  0
   19.3309   27.9950   16.6224 H   0  0  0  0  0  0  0  0  0  0  0  0
   18.8268   30.5439   16.1752 C   0  0  0  0  0  0  0  0  0  0  0  0
   19.1565   31.9152   15.7134 N   0  0  0  0  0  0  0  0  0  0  0  0
   17.8963   32.7186   15.0863 S   0  0  0  0  0  0  0  0  0  0  0  0
   18.4563   33.7666   14.2817 O   0  0  0  0  0  0  0  0  0  0  0  0
   17.1376   31.8039   14.2995 O   0  0  0  0  0  0  0  0  0  0  0  0
   16.8580   33.4089   16.1867 C   0  0  0  0  0  0  0  0  0  0  0  0
   17.1416   33.6240   17.5089 O   0  0  0  0  0  0  0  0  0  0  0  0
   16.0183   34.2533   18.0397 C   0  0  0  0  0  0  0  0  0  0  0  0
   15.0708   34.4187   17.0301 C   0  0  0  0  0  0  0  0  0  0  0  0
   15.6324   33.8853   15.8226 C   0  0  0  0  0  0  0  0  0  0  0  0
   19.9620   32.6841   16.6819 C   0  0  0  0  0  0  0  0  0  0  0  0
   21.3532   32.8920   16.0771 C   0  0  0  0  0  0  0  0  0  0  0  0
   22.2837   33.8783   16.7830 C   0  0  0  0  0  0  0  0  0  0  0  0
   22.5407   32.3826   16.8934 C   0  0  0  0  0  0  0  0  0  0  0  0
   18.3453   28.2085   14.1832 C   0  0  0  0  0  0  0  0  0  0  0  0
   18.0859   27.7602   12.7504 C   0  0  0  0  0  0  0  0  0  0  0  0
   18.2988   26.4345   12.3840 C   0  0  0  0  0  0  0  0  0  0  0  0
   18.0618   26.0167   11.0728 C   0  0  0  0  0  0  0  0  0  0  0  0
   17.6052   26.9277   10.1254 C   0  0  0  0  0  0  0  0  0  0  0  0
   17.4017   28.2525   10.4883 C   0  0  0  0  0  0  0  0  0  0  0  0
   17.6378   28.6643   11.7935 C   0  0  0  0  0  0  0  0  0  0  0  0
  8  9  2  0  0  0
  9 10  1  0  0  0
  9  7  1  0  0  0
 10 11  1  0  0  0
  7  6  1  0  0  0
  6  2  1  0  0  0
  2  3  2  0  0  0
  2  4  1  0  0  0
  4  1  1  0  0  0
  1 30  1  0  0  0
  1 13  1  0  0  0
 30 31  1  0  0  0
 31 32  2  0  0  0
 31 36  1  0  0  0
 32 33  1  0  0  0
 33 34  2  0  0  0
 34 35  1  0  0  0
 35 36  2  0  0  0
 13 16  1  0  0  0
 13 14  1  0  0  0
 16 17  1  0  0  0
 17 18  1  0  0  0
 17 26  1  0  0  0
 26 27  1  0  0  0
 27 28  1  0  0  0
 27 29  1  0  0  0
 28 29  1  0  0  0
 18 19  2  0  0  0
 18 20  2  0  0  0
 18 21  1  0  0  0
 21 22  1  0  0  0
 21 25  2  0  0  0
 22 23  1  0  0  0
 23 24  2  0  0  0
 24 25  1  0  0  0
 10 12  1  0  0  0
  4  5  1  0  0  0
 14 15  1  0  0  0
M  END
> <minimizedAffinity>
-8.27829

$$$$
2PSV_MUV_A_200


 36 38  0  0  0  0  0  0  0  0999 V2000
   20.3557   27.6648   12.6694 C   0  0  0  0  0  0  0  0  0  0  0  0
   18.5692   26.6108   11.3168 C   0  0  0  0  0  0  0  0  0  0  0  0
   18.6738   25.5253   11.8667 O   0  0  0  0  0  0  0  0  0  0  0  0
   19.3276   27.6619   11.6308 N   0  0  0  0  0  0  0  0  0  0  0  0
   19.1847   28.4955   11.1269 H   0  0  0  0  0  0  0  0  0  0  0  0
   17.5464   26.7639   10.2013 C   0  0  0  0  0  0  0  0  0  0  0  0
   18.3602   26.9758    8.9378 C   0  0  0  0  0  0  0  0  0  0  0  0
   18.0175   24.6552    8.6184 O   0  0  0  0  0  0  0  0  0  0  0  0
   18.7003   25.6332    8.3247 C   0  0  0  0  0  0  0  0  0  0  0  0
   19.7192   25.5677    7.4618 N   0  0  0  0  0  0  0  0  0  0  0  0
   20.1003   24.3425    6.7811 C   0  0  0  0  0  0  0  0  0  0  0  0
   20.2343   26.3866    7.2795 H   0  0  0  0  0  0  0  0  0  0  0  0
   19.7790   28.3333   13.9287 C   0  0  0  0  0  0  0  0  0  0  0  0
   18.5917   27.6573   14.3627 O   0  0  0  0  0  0  0  0  0  0  0  0
   17.9105   27.7271   13.6757 H   0  0  0  0  0  0  0  0  0  0  0  0
   19.4989   29.8308   13.7271 C   0  0  0  0  0  0  0  0  0  0  0  0
   20.0847   30.5465   14.8877 N   0  0  0  0  0  0  0  0  0  0  0  0
   21.2443   31.6064   14.4895 S   0  0  0  0  0  0  0  0  0  0  0  0
   22.4646   30.8538   14.4304 O   0  0  0  0  0  0  0  0  0  0  0  0
   20.9133   32.1665   13.2213 O   0  0  0  0  0  0  0  0  0  0  0  0
   21.4653   32.8692   15.5488 C   0  0  0  0  0  0  0  0  0  0  0  0
   20.7834   34.0561   15.5119 O   0  0  0  0  0  0  0  0  0  0  0  0
   21.2515   34.7957   16.5952 C   0  0  0  0  0  0  0  0  0  0  0  0
   22.2059   34.0441   17.2797 C   0  0  0  0  0  0  0  0  0  0  0  0
   22.3249   32.7838   16.6049 C   0  0  0  0  0  0  0  0  0  0  0  0
   19.0743   31.0593   15.8333 C   0  0  0  0  0  0  0  0  0  0  0  0
   17.8130   31.4007   15.0353 C   0  0  0  0  0  0  0  0  0  0  0  0
   16.6368   31.9997   15.8064 C   0  0  0  0  0  0  0  0  0  0  0  0
   17.4713   32.8834   14.8909 C   0  0  0  0  0  0  0  0  0  0  0  0
   21.5748   28.4018   12.1072 C   0  0  0  0  0  0  0  0  0  0  0  0
   22.6676   27.3947   11.7717 C   0  0  0  0  0  0  0  0  0  0  0  0
   22.3704   26.2700   11.0076 C   0  0  0  0  0  0  0  0  0  0  0  0
   23.3677   25.3438   10.6954 C   0  0  0  0  0  0  0  0  0  0  0  0
   24.6687   25.5460   11.1452 C   0  0  0  0  0  0  0  0  0  0  0  0
   24.9636   26.6631   11.9155 C   0  0  0  0  0  0  0  0  0  0  0  0
   23.9693   27.5826   12.2234 C   0  0  0  0  0  0  0  0  0  0  0  0
  8  9  2  0  0  0
  9 10  1  0  0  0
  9  7  1  0  0  0
 10 11  1  0  0  0
  7  6  1  0  0  0
  6  2  1  0  0  0
  2  3  2  0  0  0
  2  4  1  0  0  0
  4  1  1  0  0  0
  1 30  1  0  0  0
  1 13  1  0  0  0
 30 31  1  0  0  0
 31 32  2  0  0  0
 31 36  1  0  0  0
 32 33  1  0  0  0
 33 34  2  0  0  0
 34 35  1  0  0  0
 35 36  2  0  0  0
 13 16  1  0  0  0
 13 14  1  0  0  0
 16 17  1  0  0  0
 17 18  1  0  0  0
 17 26  1  0  0  0
 26 27  1  0  0  0
 27 28  1  0  0  0
 27 29  1  0  0  0
 28 29  1  0  0  0
 18 19  2  0  0  0
 18 20  2  0  0  0
 18 21  1  0  0  0
 21 22  1  0  0  0
 21 25  2  0  0  0
 22 23  1  0  0  0
 23 24  2  0  0  0
 24 25  1  0  0  0
 10 12  1  0  0  0
  4  5  1  0  0  0
 14 15  1  0  0  0
M  END
> <minimizedAffinity>
-8.21448

$$$$
2PSV_MUV_A_200


 36 38  0  0  0  0  0  0  0  0999 V2000
   21.3632   32.2829   15.9585 C   0  0  0  0  0  0  0  0  0  0  0  0
   19.3114   30.9127   16.1690 C   0  0  0  0  0  0  0  0  0  0  0  0
   19.7998   30.1517   16.9901 O   0  0  0  0  0  0  0  0  0  0  0  0
   19.9829   31.9318   15.6314 N   0  0  0  0  0  0  0  0  0  0  0  0
   19.5152   32.4873   14.9666 H   0  0  0  0  0  0  0  0  0  0  0  0
   17.8797   30.6701   15.7161 C   0  0  0  0  0  0  0  0  0  0  0  0
   17.8712   30.9812   14.2306 C   0  0  0  0  0  0  0  0  0  0  0  0
   17.6372   29.7417   12.2272 O   0  0  0  0  0  0  0  0  0  0  0  0
   17.7966   29.6889   13.4441 C   0  0  0  0  0  0  0  0  0  0  0  0
   17.9345   28.5342   14.1032 N   0  0  0  0  0  0  0  0  0  0  0  0
   17.9264   27.2411   13.4417 C   0  0  0  0  0  0  0  0  0  0  0  0
   18.0467   28.5614   15.0809 H   0  0  0  0  0  0  0  0  0  0  0  0
   21.3640   33.6294   16.7018 C   0  0  0  0  0  0  0  0  0  0  0  0
   21.5958   33.4345   18.1029 O   0  0  0  0  0  0  0  0  0  0  0  0
   20.8723   32.9103   18.4805 H   0  0  0  0  0  0  0  0  0  0  0  0
   20.0698   34.4278   16.4795 C   0  0  0  0  0  0  0  0  0  0  0  0
   19.3374   34.4439   17.7701 N   0  0  0  0  0  0  0  0  0  0  0  0
   19.5993   35.7740   18.6583 S   0  0  0  0  0  0  0  0  0  0  0  0
   18.3196   36.4044   18.8133 O   0  0  0  0  0  0  0  0  0  0  0  0
   20.1372   35.3669   19.9139 O   0  0  0  0  0  0  0  0  0  0  0  0
   20.6487   36.8860   18.0042 C   0  0  0  0  0  0  0  0  0  0  0  0
   20.3053   37.8555   17.1004 O   0  0  0  0  0  0  0  0  0  0  0  0
   21.4710   38.5786   16.8594 C   0  0  0  0  0  0  0  0  0  0  0  0
   22.5046   38.0426   17.6267 C   0  0  0  0  0  0  0  0  0  0  0  0
   21.9572   36.9545   18.3845 C   0  0  0  0  0  0  0  0  0  0  0  0
   17.9205   34.0498   17.6470 C   0  0  0  0  0  0  0  0  0  0  0  0
   17.4459   34.4318   16.2423 C   0  0  0  0  0  0  0  0  0  0  0  0
   16.1217   33.8362   15.7641 C   0  0  0  0  0  0  0  0  0  0  0  0
   16.1949   35.3053   16.1533 C   0  0  0  0  0  0  0  0  0  0  0  0
   22.1500   32.3254   14.6453 C   0  0  0  0  0  0  0  0  0  0  0  0
   21.9414   31.0217   13.8852 C   0  0  0  0  0  0  0  0  0  0  0  0
   21.2728   31.0241   12.6645 C   0  0  0  0  0  0  0  0  0  0  0  0
   21.0794   29.8329   11.9620 C   0  0  0  0  0  0  0  0  0  0  0  0
   21.5611   28.6349   12.4804 C   0  0  0  0  0  0  0  0  0  0  0  0
   22.2199   28.6307   13.7028 C   0  0  0  0  0  0  0  0  0  0  0  0
   22.4111   29.8176   14.3983 C   0  0  0  0  0  0  0  0  0  0  0  0
  8  9  2  0  0  0
  9 10  1  0  0  0
  9  7  1  0  0  0
 10 11  1  0  0  0
  7  6  1  0  0  0
  6  2  1  0  0  0
  2  3  2  0  0  0
  2  4  1  0  0  0
  4  1  1  0  0  0
  1 30  1  0  0  0
  1 13  1  0  0  0
 30 31  1  0  0  0
 31 32  2  0  0  0
 31 36  1  0  0  0
 32 33  1  0  0  0
 33 34  2  0  0  0
 34 35  1  0  0  0
 35 36  2  0  0  0
 13 16  1  0  0  0
 13 14  1  0  0  0
 16 17  1  0  0  0
 17 18  1  0  0  0
 17 26  1  0  0  0
 26 27  1  0  0  0
 27 28  1  0  0  0
 27 29  1  0  0  0
 28 29  1  0  0  0
 18 19  2  0  0  0
 18 20  2  0  0  0
 18 21  1  0  0  0
 21 22  1  0  0  0
 21 25  2  0  0  0
 22 23  1  0  0  0
 23 24  2  0  0  0
 24 25  1  0  0  0
 10 12  1  0  0  0
  4  5  1  0  0  0
 14 15  1  0  0  0
M  END
> <minimizedAffinity>
-8.19261

$$$$
