2F35_UBC_A_801


 28 29  0  0  0  0  0  0  0  0999 V2000
   -6.2507   -3.0055   14.7766 N   0  0  0  0  0  0  0  0  0  0  0  0
   -5.4204   -2.1534   15.5173 C   0  0  0  0  0  0  0  0  0  0  0  0
   -5.8713   -1.4991   16.4870 O   0  0  0  0  0  0  0  0  0  0  0  0
   -5.7137   -3.7176   13.7011 C   0  0  0  0  0  0  0  0  0  0  0  0
   -6.4879   -4.4404   13.0673 O   0  0  0  0  0  0  0  0  0  0  0  0
   -4.3735   -3.6092   13.3661 C   0  0  0  0  0  0  0  0  0  0  0  0
   -3.5609   -2.7619   14.1173 C   0  0  0  0  0  0  0  0  0  0  0  0
   -4.0482   -2.0682   15.1588 N   0  0  0  0  0  0  0  0  0  0  0  0
   -7.6907   -3.1733   15.0266 C   0  0  0  0  0  0  0  0  0  0  0  0
   -9.1352   -5.2720   15.4349 C   0  0  0  0  0  0  0  0  0  0  0  0
   -9.4037   -6.4018   16.2078 C   0  0  0  0  0  0  0  0  0  0  0  0
   -8.6076   -6.6745   17.3283 C   0  0  0  0  0  0  0  0  0  0  0  0
   -7.5484   -5.8467   17.6924 C   0  0  0  0  0  0  0  0  0  0  0  0
   -7.2446   -4.7167   16.9491 C   0  0  0  0  0  0  0  0  0  0  0  0
   -8.0077   -4.3994   15.8411 C   0  0  0  0  0  0  0  0  0  0  0  0
  -10.8785   -4.0815   14.3463 O   0  0  0  0  0  0  0  0  0  0  0  0
   -9.9702   -4.9404   14.2339 C   0  0  0  0  0  0  0  0  0  0  0  0
   -9.7281   -5.5434   13.1604 O   0  0  0  0  0  0  0  0  0  0  0  0
  -11.0225   -3.6568   15.1690 H   0  0  0  0  0  0  0  0  0  0  0  0
   -3.1610   -1.1640   15.9025 C   0  0  0  0  0  0  0  0  0  0  0  0
   -3.3619    0.2437   15.3027 C   0  0  0  0  0  0  0  0  0  0  0  0
   -3.1894    0.2597   13.8496 N   0  0  0  0  0  0  0  0  0  0  0  0
   -2.2382   -0.0258   13.6169 H   0  0  0  0  0  0  0  0  0  0  0  0
   -3.3571    1.2023   13.4976 H   0  0  0  0  0  0  0  0  0  0  0  0
   -2.3869    1.1903   15.9442 C   0  0  0  0  0  0  0  0  0  0  0  0
   -2.5101    1.4193   17.1648 O   0  0  0  0  0  0  0  0  0  0  0  0
   -1.4880    1.7263   15.2500 O   0  0  0  0  0  0  0  0  0  0  0  0
   -3.1923    1.0022   17.6533 H   0  0  0  0  0  0  0  0  0  0  0  0
 16 17  1  0  0  0
 17 18  2  0  0  0
 17 10  1  0  0  0
 10 11  2  0  0  0
 10 15  1  0  0  0
 11 12  1  0  0  0
 12 13  2  0  0  0
 13 14  1  0  0  0
 14 15  2  0  0  0
 15  9  1  0  0  0
  9  1  1  0  0  0
  1  2  1  0  0  0
  1  4  1  0  0  0
  2  3  2  0  0  0
  2  8  1  0  0  0
  4  5  2  0  0  0
  4  6  1  0  0  0
  6  7  2  0  0  0
  7  8  1  0  0  0
  8 20  1  0  0  0
 20 21  1  0  0  0
 21 22  1  0  0  0
 21 25  1  0  0  0
 25 26  1  0  0  0
 25 27  2  0  0  0
 16 19  1  0  0  0
 22 23  1  0  0  0
 22 24  1  0  0  0
 26 28  1  0  0  0
M  END
> <minimizedAffinity>
-8.41343

$$$$
2F35_UBC_A_801


 28 29  0  0  0  0  0  0  0  0999 V2000
   -3.6912   -3.1028   15.3073 N   0  0  0  0  0  0  0  0  0  0  0  0
   -4.6785   -3.9631   14.8080 C   0  0  0  0  0  0  0  0  0  0  0  0
   -4.3824   -5.1060   14.3865 O   0  0  0  0  0  0  0  0  0  0  0  0
   -4.0581   -1.8354   15.7668 C   0  0  0  0  0  0  0  0  0  0  0  0
   -3.1514   -1.1067   16.1795 O   0  0  0  0  0  0  0  0  0  0  0  0
   -5.3807   -1.4222   15.7534 C   0  0  0  0  0  0  0  0  0  0  0  0
   -6.3503   -2.2928   15.2590 C   0  0  0  0  0  0  0  0  0  0  0  0
   -6.0280   -3.5183   14.8146 N   0  0  0  0  0  0  0  0  0  0  0  0
   -2.2568   -3.4277   15.3408 C   0  0  0  0  0  0  0  0  0  0  0  0
   -1.3132   -5.6852   16.1601 C   0  0  0  0  0  0  0  0  0  0  0  0
   -0.9812   -6.5215   17.2261 C   0  0  0  0  0  0  0  0  0  0  0  0
   -1.1975   -6.0822   18.5391 C   0  0  0  0  0  0  0  0  0  0  0  0
   -1.7349   -4.8265   18.8114 C   0  0  0  0  0  0  0  0  0  0  0  0
   -2.0743   -3.9627   17.7816 C   0  0  0  0  0  0  0  0  0  0  0  0
   -1.8896   -4.3548   16.4691 C   0  0  0  0  0  0  0  0  0  0  0  0
   -2.0236   -6.7528   14.1609 O   0  0  0  0  0  0  0  0  0  0  0  0
   -1.1059   -6.1226   14.7405 C   0  0  0  0  0  0  0  0  0  0  0  0
   -0.0140   -5.8431   14.1889 O   0  0  0  0  0  0  0  0  0  0  0  0
   -2.8227   -6.9387   14.6136 H   0  0  0  0  0  0  0  0  0  0  0  0
   -7.0795   -4.3900   14.2741 C   0  0  0  0  0  0  0  0  0  0  0  0
   -8.3048   -4.2290   15.1985 C   0  0  0  0  0  0  0  0  0  0  0  0
   -8.3754   -5.2772   16.2173 N   0  0  0  0  0  0  0  0  0  0  0  0
   -8.4667   -6.1864   15.7640 H   0  0  0  0  0  0  0  0  0  0  0  0
   -9.1836   -5.1139   16.8177 H   0  0  0  0  0  0  0  0  0  0  0  0
   -9.5524   -4.2447   14.3610 C   0  0  0  0  0  0  0  0  0  0  0  0
   -9.6072   -3.4780   13.3778 O   0  0  0  0  0  0  0  0  0  0  0  0
  -10.4996   -5.0111   14.6657 O   0  0  0  0  0  0  0  0  0  0  0  0
   -8.8820   -2.9190   13.1786 H   0  0  0  0  0  0  0  0  0  0  0  0
 16 17  1  0  0  0
 17 18  2  0  0  0
 17 10  1  0  0  0
 10 11  2  0  0  0
 10 15  1  0  0  0
 11 12  1  0  0  0
 12 13  2  0  0  0
 13 14  1  0  0  0
 14 15  2  0  0  0
 15  9  1  0  0  0
  9  1  1  0  0  0
  1  2  1  0  0  0
  1  4  1  0  0  0
  2  3  2  0  0  0
  2  8  1  0  0  0
  4  5  2  0  0  0
  4  6  1  0  0  0
  6  7  2  0  0  0
  7  8  1  0  0  0
  8 20  1  0  0  0
 20 21  1  0  0  0
 21 22  1  0  0  0
 21 25  1  0  0  0
 25 26  1  0  0  0
 25 27  2  0  0  0
 16 19  1  0  0  0
 22 23  1  0  0  0
 22 24  1  0  0  0
 26 28  1  0  0  0
M  END
> <minimizedAffinity>
-8.33802

$$$$
2F35_UBC_A_801


 28 29  0  0  0  0  0  0  0  0999 V2000
   -3.9930   -3.8365   15.7815 N   0  0  0  0  0  0  0  0  0  0  0  0
   -4.2337   -2.4997   15.4363 C   0  0  0  0  0  0  0  0  0  0  0  0
   -4.9133   -2.2093   14.4237 O   0  0  0  0  0  0  0  0  0  0  0  0
   -3.2296   -4.1224   16.9162 C   0  0  0  0  0  0  0  0  0  0  0  0
   -3.0288   -5.3137   17.1689 O   0  0  0  0  0  0  0  0  0  0  0  0
   -2.7222   -3.1091   17.7139 C   0  0  0  0  0  0  0  0  0  0  0  0
   -2.9764   -1.7855   17.3591 C   0  0  0  0  0  0  0  0  0  0  0  0
   -3.7102   -1.4805   16.2766 N   0  0  0  0  0  0  0  0  0  0  0  0
   -4.4582   -4.9871   14.9915 C   0  0  0  0  0  0  0  0  0  0  0  0
   -6.6881   -5.1012   13.6984 C   0  0  0  0  0  0  0  0  0  0  0  0
   -8.0760   -5.2387   13.7262 C   0  0  0  0  0  0  0  0  0  0  0  0
   -8.7272   -5.4015   14.9563 C   0  0  0  0  0  0  0  0  0  0  0  0
   -8.0239   -5.4328   16.1581 C   0  0  0  0  0  0  0  0  0  0  0  0
   -6.6437   -5.3044   16.1747 C   0  0  0  0  0  0  0  0  0  0  0  0
   -5.9570   -5.1310   14.9877 C   0  0  0  0  0  0  0  0  0  0  0  0
   -5.6968   -3.7500   12.0152 O   0  0  0  0  0  0  0  0  0  0  0  0
   -5.9553   -4.9154   12.4029 C   0  0  0  0  0  0  0  0  0  0  0  0
   -5.6334   -5.9395   11.7533 O   0  0  0  0  0  0  0  0  0  0  0  0
   -5.9573   -3.0148   12.5345 H   0  0  0  0  0  0  0  0  0  0  0  0
   -3.9263   -0.0709   15.9246 C   0  0  0  0  0  0  0  0  0  0  0  0
   -2.5290    0.5557   15.7336 C   0  0  0  0  0  0  0  0  0  0  0  0
   -2.3286    1.7367   16.5743 N   0  0  0  0  0  0  0  0  0  0  0  0
   -3.0090    2.4534   16.3216 H   0  0  0  0  0  0  0  0  0  0  0  0
   -1.3854    2.0986   16.4330 H   0  0  0  0  0  0  0  0  0  0  0  0
   -2.3527    0.9216   14.2868 C   0  0  0  0  0  0  0  0  0  0  0  0
   -1.3497    1.5939   13.9710 O   0  0  0  0  0  0  0  0  0  0  0  0
   -3.2061    0.5551   13.4414 O   0  0  0  0  0  0  0  0  0  0  0  0
   -0.7323    1.8508   14.6273 H   0  0  0  0  0  0  0  0  0  0  0  0
 16 17  1  0  0  0
 17 18  2  0  0  0
 17 10  1  0  0  0
 10 11  2  0  0  0
 10 15  1  0  0  0
 11 12  1  0  0  0
 12 13  2  0  0  0
 13 14  1  0  0  0
 14 15  2  0  0  0
 15  9  1  0  0  0
  9  1  1  0  0  0
  1  2  1  0  0  0
  1  4  1  0  0  0
  2  3  2  0  0  0
  2  8  1  0  0  0
  4  5  2  0  0  0
  4  6  1  0  0  0
  6  7  2  0  0  0
  7  8  1  0  0  0
  8 20  1  0  0  0
 20 21  1  0  0  0
 21 22  1  0  0  0
 21 25  1  0  0  0
 25 26  1  0  0  0
 25 27  2  0  0  0
 16 19  1  0  0  0
 22 23  1  0  0  0
 22 24  1  0  0  0
 26 28  1  0  0  0
M  END
> <minimizedAffinity>
-8.23630

$$$$
2F35_UBC_A_801


 28 29  0  0  0  0  0  0  0  0999 V2000
   -5.8027   -3.4574   15.2900 N   0  0  0  0  0  0  0  0  0  0  0  0
   -4.8317   -4.3993   14.9236 C   0  0  0  0  0  0  0  0  0  0  0  0
   -5.1558   -5.4709   14.3593 O   0  0  0  0  0  0  0  0  0  0  0  0
   -5.4047   -2.2750   15.9188 C   0  0  0  0  0  0  0  0  0  0  0  0
   -6.2971   -1.4850   16.2395 O   0  0  0  0  0  0  0  0  0  0  0  0
   -4.0678   -2.0107   16.1700 C   0  0  0  0  0  0  0  0  0  0  0  0
   -3.1151   -2.9556   15.7935 C   0  0  0  0  0  0  0  0  0  0  0  0
   -3.4676   -4.0991   15.1839 N   0  0  0  0  0  0  0  0  0  0  0  0
   -7.2486   -3.6486   15.0974 C   0  0  0  0  0  0  0  0  0  0  0  0
   -9.0266   -5.4666   15.5344 C   0  0  0  0  0  0  0  0  0  0  0  0
   -9.5346   -6.4596   16.3722 C   0  0  0  0  0  0  0  0  0  0  0  0
   -8.8972   -6.7237   17.5920 C   0  0  0  0  0  0  0  0  0  0  0  0
   -7.7633   -6.0210   17.9923 C   0  0  0  0  0  0  0  0  0  0  0  0
   -7.2235   -5.0296   17.1876 C   0  0  0  0  0  0  0  0  0  0  0  0
   -7.8227   -4.7251   15.9798 C   0  0  0  0  0  0  0  0  0  0  0  0
  -10.6470   -4.3405   14.2124 O   0  0  0  0  0  0  0  0  0  0  0  0
   -9.6859   -5.1476   14.2255 C   0  0  0  0  0  0  0  0  0  0  0  0
   -9.2496   -5.7086   13.1913 O   0  0  0  0  0  0  0  0  0  0  0  0
  -10.9383   -3.9458   15.0107 H   0  0  0  0  0  0  0  0  0  0  0  0
   -2.4314   -5.0792   14.8328 C   0  0  0  0  0  0  0  0  0  0  0  0
   -2.1647   -5.9140   16.1032 C   0  0  0  0  0  0  0  0  0  0  0  0
   -0.7454   -5.9499   16.4582 N   0  0  0  0  0  0  0  0  0  0  0  0
   -0.2170   -6.3869   15.7030 H   0  0  0  0  0  0  0  0  0  0  0  0
   -0.6228   -6.4891   17.3153 H   0  0  0  0  0  0  0  0  0  0  0  0
   -2.6728   -7.3111   15.8838 C   0  0  0  0  0  0  0  0  0  0  0  0
   -3.8125   -7.5928   16.3072 O   0  0  0  0  0  0  0  0  0  0  0  0
   -1.9506   -8.1530   15.2947 O   0  0  0  0  0  0  0  0  0  0  0  0
   -4.3251   -6.9403   16.7425 H   0  0  0  0  0  0  0  0  0  0  0  0
 16 17  1  0  0  0
 17 18  2  0  0  0
 17 10  1  0  0  0
 10 11  2  0  0  0
 10 15  1  0  0  0
 11 12  1  0  0  0
 12 13  2  0  0  0
 13 14  1  0  0  0
 14 15  2  0  0  0
 15  9  1  0  0  0
  9  1  1  0  0  0
  1  2  1  0  0  0
  1  4  1  0  0  0
  2  3  2  0  0  0
  2  8  1  0  0  0
  4  5  2  0  0  0
  4  6  1  0  0  0
  6  7  2  0  0  0
  7  8  1  0  0  0
  8 20  1  0  0  0
 20 21  1  0  0  0
 21 22  1  0  0  0
 21 25  1  0  0  0
 25 26  1  0  0  0
 25 27  2  0  0  0
 16 19  1  0  0  0
 22 23  1  0  0  0
 22 24  1  0  0  0
 26 28  1  0  0  0
M  END
> <minimizedAffinity>
-8.14406

$$$$
2F35_UBC_A_801


 28 29  0  0  0  0  0  0  0  0999 V2000
   -3.7633   -3.5889   15.3705 N   0  0  0  0  0  0  0  0  0  0  0  0
   -3.0638   -2.3925   15.5790 C   0  0  0  0  0  0  0  0  0  0  0  0
   -1.8125   -2.3587   15.5103 O   0  0  0  0  0  0  0  0  0  0  0  0
   -5.1578   -3.5890   15.4568 C   0  0  0  0  0  0  0  0  0  0  0  0
   -5.7281   -4.6699   15.2842 O   0  0  0  0  0  0  0  0  0  0  0  0
   -5.8602   -2.4255   15.7274 C   0  0  0  0  0  0  0  0  0  0  0  0
   -5.1489   -1.2436   15.9261 C   0  0  0  0  0  0  0  0  0  0  0  0
   -3.8088   -1.2123   15.8452 N   0  0  0  0  0  0  0  0  0  0  0  0
   -3.1179   -4.8843   15.1064 C   0  0  0  0  0  0  0  0  0  0  0  0
   -0.8906   -5.6218   16.1801 C   0  0  0  0  0  0  0  0  0  0  0  0
   -0.2098   -6.1116   17.2948 C   0  0  0  0  0  0  0  0  0  0  0  0
   -0.9212   -6.3855   18.4706 C   0  0  0  0  0  0  0  0  0  0  0  0
   -2.2957   -6.1788   18.5592 C   0  0  0  0  0  0  0  0  0  0  0  0
   -3.0096   -5.6891   17.4765 C   0  0  0  0  0  0  0  0  0  0  0  0
   -2.3542   -5.4137   16.2911 C   0  0  0  0  0  0  0  0  0  0  0  0
    0.2855   -4.1697   14.7139 O   0  0  0  0  0  0  0  0  0  0  0  0
   -0.1666   -5.3256   14.9004 C   0  0  0  0  0  0  0  0  0  0  0  0
   -0.0465   -6.2506   14.0611 O   0  0  0  0  0  0  0  0  0  0  0  0
    0.1716   -3.5106   15.3702 H   0  0  0  0  0  0  0  0  0  0  0  0
   -3.0999    0.0503   16.0923 C   0  0  0  0  0  0  0  0  0  0  0  0
   -2.9036    0.7229   14.7173 C   0  0  0  0  0  0  0  0  0  0  0  0
   -2.7153   -0.2521   13.6422 N   0  0  0  0  0  0  0  0  0  0  0  0
   -1.8745   -0.8003   13.8239 H   0  0  0  0  0  0  0  0  0  0  0  0
   -2.6164    0.2373   12.7528 H   0  0  0  0  0  0  0  0  0  0  0  0
   -1.7163    1.6411   14.7890 C   0  0  0  0  0  0  0  0  0  0  0  0
   -1.2007    1.8451   15.9071 O   0  0  0  0  0  0  0  0  0  0  0  0
   -1.2787    2.1793   13.7420 O   0  0  0  0  0  0  0  0  0  0  0  0
   -1.5524    1.4272   16.6685 H   0  0  0  0  0  0  0  0  0  0  0  0
 16 17  1  0  0  0
 17 18  2  0  0  0
 17 10  1  0  0  0
 10 11  2  0  0  0
 10 15  1  0  0  0
 11 12  1  0  0  0
 12 13  2  0  0  0
 13 14  1  0  0  0
 14 15  2  0  0  0
 15  9  1  0  0  0
  9  1  1  0  0  0
  1  2  1  0  0  0
  1  4  1  0  0  0
  2  3  2  0  0  0
  2  8  1  0  0  0
  4  5  2  0  0  0
  4  6  1  0  0  0
  6  7  2  0  0  0
  7  8  1  0  0  0
  8 20  1  0  0  0
 20 21  1  0  0  0
 21 22  1  0  0  0
 21 25  1  0  0  0
 25 26  1  0  0  0
 25 27  2  0  0  0
 16 19  1  0  0  0
 22 23  1  0  0  0
 22 24  1  0  0  0
 26 28  1  0  0  0
M  END
> <minimizedAffinity>
-8.13799

$$$$
2F35_UBC_A_801


 28 29  0  0  0  0  0  0  0  0999 V2000
   -1.5923   -3.0028   17.3011 N   0  0  0  0  0  0  0  0  0  0  0  0
   -1.1725   -3.8145   16.2385 C   0  0  0  0  0  0  0  0  0  0  0  0
   -1.0379   -3.3443   15.0842 O   0  0  0  0  0  0  0  0  0  0  0  0
   -1.7330   -3.5619   18.5737 C   0  0  0  0  0  0  0  0  0  0  0  0
   -2.1233   -2.8122   19.4732 O   0  0  0  0  0  0  0  0  0  0  0  0
   -1.4487   -4.8981   18.8061 C   0  0  0  0  0  0  0  0  0  0  0  0
   -1.0267   -5.6892   17.7392 C   0  0  0  0  0  0  0  0  0  0  0  0
   -0.8783   -5.1786   16.5061 N   0  0  0  0  0  0  0  0  0  0  0  0
   -1.9479   -1.5822   17.1608 C   0  0  0  0  0  0  0  0  0  0  0  0
   -3.6264   -0.1926   15.7791 C   0  0  0  0  0  0  0  0  0  0  0  0
   -4.9255   -0.0272   15.2984 C   0  0  0  0  0  0  0  0  0  0  0  0
   -5.9066   -0.9724   15.6267 C   0  0  0  0  0  0  0  0  0  0  0  0
   -5.6192   -2.0797   16.4211 C   0  0  0  0  0  0  0  0  0  0  0  0
   -4.3404   -2.2842   16.9153 C   0  0  0  0  0  0  0  0  0  0  0  0
   -3.3406   -1.3739   16.6279 C   0  0  0  0  0  0  0  0  0  0  0  0
   -2.2181    1.6379   16.3333 O   0  0  0  0  0  0  0  0  0  0  0  0
   -2.5507    0.8021   15.4581 C   0  0  0  0  0  0  0  0  0  0  0  0
   -2.0278    0.7606   14.3181 O   0  0  0  0  0  0  0  0  0  0  0  0
   -2.6371    1.6305   17.1714 H   0  0  0  0  0  0  0  0  0  0  0  0
   -0.4604   -6.0577   15.4060 C   0  0  0  0  0  0  0  0  0  0  0  0
    0.1148   -7.3342   16.0551 C   0  0  0  0  0  0  0  0  0  0  0  0
    1.4415   -7.6726   15.5382 N   0  0  0  0  0  0  0  0  0  0  0  0
    1.3798   -7.8545   14.5365 H   0  0  0  0  0  0  0  0  0  0  0  0
    1.7897   -8.5048   16.0141 H   0  0  0  0  0  0  0  0  0  0  0  0
   -0.8344   -8.4739   15.8135 C   0  0  0  0  0  0  0  0  0  0  0  0
   -0.4734   -9.6188   16.1551 O   0  0  0  0  0  0  0  0  0  0  0  0
   -1.9488   -8.2556   15.2771 O   0  0  0  0  0  0  0  0  0  0  0  0
    0.3652   -9.7464   16.5530 H   0  0  0  0  0  0  0  0  0  0  0  0
 16 17  1  0  0  0
 17 18  2  0  0  0
 17 10  1  0  0  0
 10 11  2  0  0  0
 10 15  1  0  0  0
 11 12  1  0  0  0
 12 13  2  0  0  0
 13 14  1  0  0  0
 14 15  2  0  0  0
 15  9  1  0  0  0
  9  1  1  0  0  0
  1  2  1  0  0  0
  1  4  1  0  0  0
  2  3  2  0  0  0
  2  8  1  0  0  0
  4  5  2  0  0  0
  4  6  1  0  0  0
  6  7  2  0  0  0
  7  8  1  0  0  0
  8 20  1  0  0  0
 20 21  1  0  0  0
 21 22  1  0  0  0
 21 25  1  0  0  0
 25 26  1  0  0  0
 25 27  2  0  0  0
 16 19  1  0  0  0
 22 23  1  0  0  0
 22 24  1  0  0  0
 26 28  1  0  0  0
M  END
> <minimizedAffinity>
-8.12585

$$$$
2F35_UBC_A_801


 28 29  0  0  0  0  0  0  0  0999 V2000
   -4.2104   -3.6753   14.9365 N   0  0  0  0  0  0  0  0  0  0  0  0
   -5.5593   -3.3011   15.0050 C   0  0  0  0  0  0  0  0  0  0  0  0
   -5.9269   -2.1539   14.6580 O   0  0  0  0  0  0  0  0  0  0  0  0
   -3.8372   -4.9618   15.3335 C   0  0  0  0  0  0  0  0  0  0  0  0
   -2.6359   -5.2387   15.2732 O   0  0  0  0  0  0  0  0  0  0  0  0
   -4.7783   -5.8775   15.7764 C   0  0  0  0  0  0  0  0  0  0  0  0
   -6.1159   -5.4905   15.8324 C   0  0  0  0  0  0  0  0  0  0  0  0
   -6.5047   -4.2622   15.4535 N   0  0  0  0  0  0  0  0  0  0  0  0
   -3.1273   -2.7755   14.5102 C   0  0  0  0  0  0  0  0  0  0  0  0
   -2.8045   -0.4890   15.6615 C   0  0  0  0  0  0  0  0  0  0  0  0
   -2.2750    0.2472   16.7215 C   0  0  0  0  0  0  0  0  0  0  0  0
   -1.5469   -0.4116   17.7214 C   0  0  0  0  0  0  0  0  0  0  0  0
   -1.3384   -1.7883   17.6881 C   0  0  0  0  0  0  0  0  0  0  0  0
   -1.8512   -2.5576   16.6553 C   0  0  0  0  0  0  0  0  0  0  0  0
   -2.5673   -1.9522   15.6397 C   0  0  0  0  0  0  0  0  0  0  0  0
   -4.8225    0.3113   14.6979 O   0  0  0  0  0  0  0  0  0  0  0  0
   -3.5812    0.1805   14.5669 C   0  0  0  0  0  0  0  0  0  0  0  0
   -2.9541    0.5803   13.5561 O   0  0  0  0  0  0  0  0  0  0  0  0
   -5.2477   -0.0032   15.4714 H   0  0  0  0  0  0  0  0  0  0  0  0
   -7.9214   -3.8888   15.5588 C   0  0  0  0  0  0  0  0  0  0  0  0
   -8.6007   -4.3622   14.2564 C   0  0  0  0  0  0  0  0  0  0  0  0
   -8.6584   -3.3076   13.2433 N   0  0  0  0  0  0  0  0  0  0  0  0
   -9.2118   -2.5268   13.5964 H   0  0  0  0  0  0  0  0  0  0  0  0
   -9.0903   -3.6742   12.3951 H   0  0  0  0  0  0  0  0  0  0  0  0
   -9.9888   -4.8404   14.5767 C   0  0  0  0  0  0  0  0  0  0  0  0
  -10.9510   -4.1443   14.1928 O   0  0  0  0  0  0  0  0  0  0  0  0
  -10.1491   -5.9084   15.2178 O   0  0  0  0  0  0  0  0  0  0  0  0
  -10.7957   -3.3525   13.7164 H   0  0  0  0  0  0  0  0  0  0  0  0
 16 17  1  0  0  0
 17 18  2  0  0  0
 17 10  1  0  0  0
 10 11  2  0  0  0
 10 15  1  0  0  0
 11 12  1  0  0  0
 12 13  2  0  0  0
 13 14  1  0  0  0
 14 15  2  0  0  0
 15  9  1  0  0  0
  9  1  1  0  0  0
  1  2  1  0  0  0
  1  4  1  0  0  0
  2  3  2  0  0  0
  2  8  1  0  0  0
  4  5  2  0  0  0
  4  6  1  0  0  0
  6  7  2  0  0  0
  7  8  1  0  0  0
  8 20  1  0  0  0
 20 21  1  0  0  0
 21 22  1  0  0  0
 21 25  1  0  0  0
 25 26  1  0  0  0
 25 27  2  0  0  0
 16 19  1  0  0  0
 22 23  1  0  0  0
 22 24  1  0  0  0
 26 28  1  0  0  0
M  END
> <minimizedAffinity>
-8.08481

$$$$
2F35_UBC_A_801


 28 29  0  0  0  0  0  0  0  0999 V2000
   -5.1159   -3.9562   16.2295 N   0  0  0  0  0  0  0  0  0  0  0  0
   -4.4181   -5.0117   15.6269 C   0  0  0  0  0  0  0  0  0  0  0  0
   -4.8280   -6.1924   15.7244 O   0  0  0  0  0  0  0  0  0  0  0  0
   -4.6282   -2.6532   16.1012 C   0  0  0  0  0  0  0  0  0  0  0  0
   -5.2663   -1.7598   16.6651 O   0  0  0  0  0  0  0  0  0  0  0  0
   -3.4786   -2.3854   15.3753 C   0  0  0  0  0  0  0  0  0  0  0  0
   -2.8006   -3.4463   14.7776 C   0  0  0  0  0  0  0  0  0  0  0  0
   -3.2479   -4.7083   14.8803 N   0  0  0  0  0  0  0  0  0  0  0  0
   -6.3279   -4.1304   17.0451 C   0  0  0  0  0  0  0  0  0  0  0  0
   -8.2860   -5.7280   16.5244 C   0  0  0  0  0  0  0  0  0  0  0  0
   -9.4083   -6.0248   15.7508 C   0  0  0  0  0  0  0  0  0  0  0  0
   -9.7945   -5.1440   14.7317 C   0  0  0  0  0  0  0  0  0  0  0  0
   -9.0875   -3.9729   14.4696 C   0  0  0  0  0  0  0  0  0  0  0  0
   -7.9694   -3.6381   15.2175 C   0  0  0  0  0  0  0  0  0  0  0  0
   -7.5425   -4.4803   16.2270 C   0  0  0  0  0  0  0  0  0  0  0  0
   -6.9752   -7.5261   17.3552 O   0  0  0  0  0  0  0  0  0  0  0  0
   -7.8347   -6.6500   17.6179 C   0  0  0  0  0  0  0  0  0  0  0  0
   -8.3426   -6.5099   18.7568 O   0  0  0  0  0  0  0  0  0  0  0  0
   -6.6240   -7.5929   16.4891 H   0  0  0  0  0  0  0  0  0  0  0  0
   -2.4834   -5.7980   14.2592 C   0  0  0  0  0  0  0  0  0  0  0  0
   -1.2335   -6.0170   15.1374 C   0  0  0  0  0  0  0  0  0  0  0  0
    0.0108   -5.8799   14.3793 N   0  0  0  0  0  0  0  0  0  0  0  0
    0.0407   -6.5865   13.6442 H   0  0  0  0  0  0  0  0  0  0  0  0
    0.8061   -6.0067   15.0052 H   0  0  0  0  0  0  0  0  0  0  0  0
   -1.3069   -7.3838   15.7574 C   0  0  0  0  0  0  0  0  0  0  0  0
   -0.6574   -7.5878   16.8034 O   0  0  0  0  0  0  0  0  0  0  0  0
   -2.0032   -8.2784   15.2167 O   0  0  0  0  0  0  0  0  0  0  0  0
   -0.1479   -6.8978   17.1806 H   0  0  0  0  0  0  0  0  0  0  0  0
 16 17  1  0  0  0
 17 18  2  0  0  0
 17 10  1  0  0  0
 10 11  2  0  0  0
 10 15  1  0  0  0
 11 12  1  0  0  0
 12 13  2  0  0  0
 13 14  1  0  0  0
 14 15  2  0  0  0
 15  9  1  0  0  0
  9  1  1  0  0  0
  1  2  1  0  0  0
  1  4  1  0  0  0
  2  3  2  0  0  0
  2  8  1  0  0  0
  4  5  2  0  0  0
  4  6  1  0  0  0
  6  7  2  0  0  0
  7  8  1  0  0  0
  8 20  1  0  0  0
 20 21  1  0  0  0
 21 22  1  0  0  0
 21 25  1  0  0  0
 25 26  1  0  0  0
 25 27  2  0  0  0
 16 19  1  0  0  0
 22 23  1  0  0  0
 22 24  1  0  0  0
 26 28  1  0  0  0
M  END
> <minimizedAffinity>
-7.86419

$$$$
2F35_UBC_A_801


 28 29  0  0  0  0  0  0  0  0999 V2000
   -5.6499   -4.4299   14.8186 N   0  0  0  0  0  0  0  0  0  0  0  0
   -4.6583   -5.2520   15.3710 C   0  0  0  0  0  0  0  0  0  0  0  0
   -4.9229   -6.4213   15.7373 O   0  0  0  0  0  0  0  0  0  0  0  0
   -5.3188   -3.1313   14.4232 C   0  0  0  0  0  0  0  0  0  0  0  0
   -6.2296   -2.4390   13.9600 O   0  0  0  0  0  0  0  0  0  0  0  0
   -4.0259   -2.6497   14.5516 C   0  0  0  0  0  0  0  0  0  0  0  0
   -3.0510   -3.4829   15.0974 C   0  0  0  0  0  0  0  0  0  0  0  0
   -3.3389   -4.7367   15.4824 N   0  0  0  0  0  0  0  0  0  0  0  0
   -7.0575   -4.8287   14.6637 C   0  0  0  0  0  0  0  0  0  0  0  0
   -8.4773   -6.6183   13.4640 C   0  0  0  0  0  0  0  0  0  0  0  0
   -8.6630   -7.4473   12.3576 C   0  0  0  0  0  0  0  0  0  0  0  0
   -7.7302   -7.4194   11.3121 C   0  0  0  0  0  0  0  0  0  0  0  0
   -6.6187   -6.5808   11.3453 C   0  0  0  0  0  0  0  0  0  0  0  0
   -6.3992   -5.7379   12.4238 C   0  0  0  0  0  0  0  0  0  0  0  0
   -7.2855   -5.7369   13.4846 C   0  0  0  0  0  0  0  0  0  0  0  0
  -10.3512   -5.7554   14.6411 O   0  0  0  0  0  0  0  0  0  0  0  0
   -9.4478   -6.6260   14.6076 C   0  0  0  0  0  0  0  0  0  0  0  0
   -9.3123   -7.5055   15.4923 O   0  0  0  0  0  0  0  0  0  0  0  0
  -10.4132   -5.1180   13.9571 H   0  0  0  0  0  0  0  0  0  0  0  0
   -2.2859   -5.5680   16.0805 C   0  0  0  0  0  0  0  0  0  0  0  0
   -1.7035   -6.4305   14.9409 C   0  0  0  0  0  0  0  0  0  0  0  0
   -1.9553   -7.8585   15.1388 N   0  0  0  0  0  0  0  0  0  0  0  0
   -1.5049   -8.1670   16.0004 H   0  0  0  0  0  0  0  0  0  0  0  0
   -1.5763   -8.3830   14.3504 H   0  0  0  0  0  0  0  0  0  0  0  0
   -0.2248   -6.1799   14.8471 C   0  0  0  0  0  0  0  0  0  0  0  0
    0.1553   -5.0462   14.4896 O   0  0  0  0  0  0  0  0  0  0  0  0
    0.5835   -7.1017   15.1197 O   0  0  0  0  0  0  0  0  0  0  0  0
   -0.4748   -4.3810   14.2936 H   0  0  0  0  0  0  0  0  0  0  0  0
 16 17  1  0  0  0
 17 18  2  0  0  0
 17 10  1  0  0  0
 10 11  2  0  0  0
 10 15  1  0  0  0
 11 12  1  0  0  0
 12 13  2  0  0  0
 13 14  1  0  0  0
 14 15  2  0  0  0
 15  9  1  0  0  0
  9  1  1  0  0  0
  1  2  1  0  0  0
  1  4  1  0  0  0
  2  3  2  0  0  0
  2  8  1  0  0  0
  4  5  2  0  0  0
  4  6  1  0  0  0
  6  7  2  0  0  0
  7  8  1  0  0  0
  8 20  1  0  0  0
 20 21  1  0  0  0
 21 22  1  0  0  0
 21 25  1  0  0  0
 25 26  1  0  0  0
 25 27  2  0  0  0
 16 19  1  0  0  0
 22 23  1  0  0  0
 22 24  1  0  0  0
 26 28  1  0  0  0
M  END
> <minimizedAffinity>
-7.79991

$$$$
2F35_UBC_A_801


 28 29  0  0  0  0  0  0  0  0999 V2000
   -3.9329   -5.4143   17.4775 N   0  0  0  0  0  0  0  0  0  0  0  0
   -4.6430   -5.5445   16.2763 C   0  0  0  0  0  0  0  0  0  0  0  0
   -4.2200   -6.2830   15.3558 O   0  0  0  0  0  0  0  0  0  0  0  0
   -4.4339   -4.5807   18.4806 C   0  0  0  0  0  0  0  0  0  0  0  0
   -3.7640   -4.4835   19.5127 O   0  0  0  0  0  0  0  0  0  0  0  0
   -5.6271   -3.8957   18.3150 C   0  0  0  0  0  0  0  0  0  0  0  0
   -6.3233   -4.0415   17.1165 C   0  0  0  0  0  0  0  0  0  0  0  0
   -5.8683   -4.8388   16.1364 N   0  0  0  0  0  0  0  0  0  0  0  0
   -2.6445   -6.0713   17.7472 C   0  0  0  0  0  0  0  0  0  0  0  0
   -0.8231   -6.4211   15.9535 C   0  0  0  0  0  0  0  0  0  0  0  0
    0.2145   -5.8874   15.1890 C   0  0  0  0  0  0  0  0  0  0  0  0
    0.5604   -4.5383   15.3440 C   0  0  0  0  0  0  0  0  0  0  0  0
   -0.1080   -3.7101   16.2425 C   0  0  0  0  0  0  0  0  0  0  0  0
   -1.1477   -4.1992   17.0180 C   0  0  0  0  0  0  0  0  0  0  0  0
   -1.5190   -5.5262   16.9087 C   0  0  0  0  0  0  0  0  0  0  0  0
   -2.1393   -8.1693   15.0299 O   0  0  0  0  0  0  0  0  0  0  0  0
   -1.2167   -7.8626   15.8237 C   0  0  0  0  0  0  0  0  0  0  0  0
   -0.6068   -8.7075   16.5228 O   0  0  0  0  0  0  0  0  0  0  0  0
   -2.5663   -7.5032   14.5280 H   0  0  0  0  0  0  0  0  0  0  0  0
   -6.6203   -4.9376   14.8785 C   0  0  0  0  0  0  0  0  0  0  0  0
   -6.0378   -3.8680   13.9306 C   0  0  0  0  0  0  0  0  0  0  0  0
   -6.9561   -2.7474   13.7241 N   0  0  0  0  0  0  0  0  0  0  0  0
   -7.8151   -3.0870   13.2914 H   0  0  0  0  0  0  0  0  0  0  0  0
   -6.5182   -2.0569   13.1142 H   0  0  0  0  0  0  0  0  0  0  0  0
   -5.7108   -4.5112   12.6125 C   0  0  0  0  0  0  0  0  0  0  0  0
   -4.9759   -5.5198   12.6195 O   0  0  0  0  0  0  0  0  0  0  0  0
   -6.1708   -4.0256   11.5494 O   0  0  0  0  0  0  0  0  0  0  0  0
   -4.6497   -5.8562   13.4310 H   0  0  0  0  0  0  0  0  0  0  0  0
 16 17  1  0  0  0
 17 18  2  0  0  0
 17 10  1  0  0  0
 10 11  2  0  0  0
 10 15  1  0  0  0
 11 12  1  0  0  0
 12 13  2  0  0  0
 13 14  1  0  0  0
 14 15  2  0  0  0
 15  9  1  0  0  0
  9  1  1  0  0  0
  1  2  1  0  0  0
  1  4  1  0  0  0
  2  3  2  0  0  0
  2  8  1  0  0  0
  4  5  2  0  0  0
  4  6  1  0  0  0
  6  7  2  0  0  0
  7  8  1  0  0  0
  8 20  1  0  0  0
 20 21  1  0  0  0
 21 22  1  0  0  0
 21 25  1  0  0  0
 25 26  1  0  0  0
 25 27  2  0  0  0
 16 19  1  0  0  0
 22 23  1  0  0  0
 22 24  1  0  0  0
 26 28  1  0  0  0
M  END
> <minimizedAffinity>
-7.78997

$$$$
