3P8P_LN6_A_286


 20 19  0  0  0  0  0  0  0  0999 V2000
   -1.8580   -2.4372   18.8167 C   0  0  0  0  0  0  0  0  0  0  0  0
   -2.6335   -3.4478   18.0820 N   0  0  0  0  0  0  0  0  0  0  0  0
   -3.3676   -3.9188   18.5386 H   0  0  0  0  0  0  0  0  0  0  0  0
   -2.3625   -3.7379   16.8123 C   0  0  0  0  0  0  0  0  0  0  0  0
   -1.9457   -2.7876   15.9797 N   0  0  0  0  0  0  0  0  0  0  0  0
   -1.8697   -1.8574   16.2929 H   0  0  0  0  0  0  0  0  0  0  0  0
   -2.4789   -5.1821   16.3209 C   0  0  0  0  0  0  0  0  0  0  0  0
   -1.0983   -5.8034   16.0982 C   0  0  0  0  0  0  0  0  0  0  0  0
   -0.9301   -6.2583   14.6469 C   0  0  0  0  0  0  0  0  0  0  0  0
   -0.7676   -5.0591   13.7096 C   0  0  0  0  0  0  0  0  0  0  0  0
   -2.6068   -1.9409   20.0562 C   0  0  0  0  0  0  0  0  0  0  0  0
   -3.1994   -3.1057   20.8521 C   0  0  0  0  0  0  0  0  0  0  0  0
   -5.2504   -2.4888   19.6619 N   0  0  0  0  0  0  0  0  0  0  0  0
   -4.7249   -3.0113   20.9313 C   0  0  0  0  0  0  0  0  0  0  0  0
   -6.2671   -2.4261   19.7150 H   0  0  0  0  0  0  0  0  0  0  0  0
   -4.9877   -3.1157   18.9014 H   0  0  0  0  0  0  0  0  0  0  0  0
   -5.1379   -2.0722   22.0671 C   0  0  0  0  0  0  0  0  0  0  0  0
   -6.1704   -1.3874   21.9002 O   0  0  0  0  0  0  0  0  0  0  0  0
   -4.4043   -2.0545   23.0784 O   0  0  0  0  0  0  0  0  0  0  0  0
   -3.6466   -2.6043   23.1172 H   0  0  0  0  0  0  0  0  0  0  0  0
 18 17  2  0  0  0
 17 14  1  0  0  0
 17 19  1  0  0  0
 14 13  1  0  0  0
 12 14  1  0  0  0
 11 12  1  0  0  0
  2  1  1  0  0  0
  1 11  1  0  0  0
  4  2  1  0  0  0
  5  4  2  0  0  0
  7  4  1  0  0  0
  8  7  1  0  0  0
 10  9  1  0  0  0
  9  8  1  0  0  0
 13 15  1  0  0  0
 13 16  1  0  0  0
  2  3  1  0  0  0
 19 20  1  0  0  0
  5  6  1  0  0  0
M  END
> <minimizedAffinity>
-6.94323

$$$$
3P8P_LN6_A_286


 20 19  0  0  0  0  0  0  0  0999 V2000
   -1.7719   -2.6487   18.9883 C   0  0  0  0  0  0  0  0  0  0  0  0
   -2.9258   -3.0824   18.1862 N   0  0  0  0  0  0  0  0  0  0  0  0
   -3.6767   -2.4614   18.0457 H   0  0  0  0  0  0  0  0  0  0  0  0
   -2.9746   -4.2974   17.6468 C   0  0  0  0  0  0  0  0  0  0  0  0
   -3.5350   -5.3054   18.3099 N   0  0  0  0  0  0  0  0  0  0  0  0
   -3.8852   -5.1625   19.2188 H   0  0  0  0  0  0  0  0  0  0  0  0
   -2.4318   -4.5245   16.2345 C   0  0  0  0  0  0  0  0  0  0  0  0
   -1.7664   -5.8970   16.1119 C   0  0  0  0  0  0  0  0  0  0  0  0
   -1.4407   -6.2193   14.6519 C   0  0  0  0  0  0  0  0  0  0  0  0
   -0.7838   -5.0237   13.9577 C   0  0  0  0  0  0  0  0  0  0  0  0
   -2.1556   -2.4179   20.4521 C   0  0  0  0  0  0  0  0  0  0  0  0
   -3.5733   -1.8553   20.5740 C   0  0  0  0  0  0  0  0  0  0  0  0
   -3.2086   -2.5824   22.8853 N   0  0  0  0  0  0  0  0  0  0  0  0
   -4.2408   -2.2965   21.8786 C   0  0  0  0  0  0  0  0  0  0  0  0
   -3.6538   -2.8764   23.7546 H   0  0  0  0  0  0  0  0  0  0  0  0
   -2.6559   -1.7418   23.0537 H   0  0  0  0  0  0  0  0  0  0  0  0
   -5.0739   -3.5590   21.6452 C   0  0  0  0  0  0  0  0  0  0  0  0
   -5.2139   -3.9453   20.4646 O   0  0  0  0  0  0  0  0  0  0  0  0
   -5.5607   -4.1079   22.6567 O   0  0  0  0  0  0  0  0  0  0  0  0
   -5.4031   -3.7472   23.5070 H   0  0  0  0  0  0  0  0  0  0  0  0
 18 17  2  0  0  0
 17 14  1  0  0  0
 17 19  1  0  0  0
 14 13  1  0  0  0
 12 14  1  0  0  0
 11 12  1  0  0  0
  2  1  1  0  0  0
  1 11  1  0  0  0
  4  2  1  0  0  0
  5  4  2  0  0  0
  7  4  1  0  0  0
  8  7  1  0  0  0
 10  9  1  0  0  0
  9  8  1  0  0  0
 13 15  1  0  0  0
 13 16  1  0  0  0
  2  3  1  0  0  0
 19 20  1  0  0  0
  5  6  1  0  0  0
M  END
> <minimizedAffinity>
-6.59781

$$$$
3P8P_LN6_A_286


 20 19  0  0  0  0  0  0  0  0999 V2000
   -3.4396   -3.6084   18.5915 C   0  0  0  0  0  0  0  0  0  0  0  0
   -3.4143   -3.4422   17.1305 N   0  0  0  0  0  0  0  0  0  0  0  0
   -4.2207   -3.1188   16.6675 H   0  0  0  0  0  0  0  0  0  0  0  0
   -2.3231   -3.7205   16.4224 C   0  0  0  0  0  0  0  0  0  0  0  0
   -1.9089   -2.8883   15.4705 N   0  0  0  0  0  0  0  0  0  0  0  0
   -2.4299   -2.0791   15.2633 H   0  0  0  0  0  0  0  0  0  0  0  0
   -1.5101   -4.9767   16.7408 C   0  0  0  0  0  0  0  0  0  0  0  0
   -2.2802   -6.2441   16.3637 C   0  0  0  0  0  0  0  0  0  0  0  0
   -2.6244   -7.0663   17.6075 C   0  0  0  0  0  0  0  0  0  0  0  0
   -1.5249   -8.0858   17.9149 C   0  0  0  0  0  0  0  0  0  0  0  0
   -2.6165   -2.5282   19.2977 C   0  0  0  0  0  0  0  0  0  0  0  0
   -3.2282   -2.1574   20.6503 C   0  0  0  0  0  0  0  0  0  0  0  0
   -5.5760   -1.5611   21.0195 N   0  0  0  0  0  0  0  0  0  0  0  0
   -4.6589   -2.6849   20.7815 C   0  0  0  0  0  0  0  0  0  0  0  0
   -6.5294   -1.9130   21.1069 H   0  0  0  0  0  0  0  0  0  0  0  0
   -5.5246   -0.9089   20.2370 H   0  0  0  0  0  0  0  0  0  0  0  0
   -4.7553   -3.6649   21.9532 C   0  0  0  0  0  0  0  0  0  0  0  0
   -5.8023   -4.3405   22.0530 O   0  0  0  0  0  0  0  0  0  0  0  0
   -3.7783   -3.7112   22.7308 O   0  0  0  0  0  0  0  0  0  0  0  0
   -3.0317   -3.1660   22.5781 H   0  0  0  0  0  0  0  0  0  0  0  0
 18 17  2  0  0  0
 17 14  1  0  0  0
 17 19  1  0  0  0
 14 13  1  0  0  0
 12 14  1  0  0  0
 11 12  1  0  0  0
  2  1  1  0  0  0
  1 11  1  0  0  0
  4  2  1  0  0  0
  5  4  2  0  0  0
  7  4  1  0  0  0
  8  7  1  0  0  0
 10  9  1  0  0  0
  9  8  1  0  0  0
 13 15  1  0  0  0
 13 16  1  0  0  0
  2  3  1  0  0  0
 19 20  1  0  0  0
  5  6  1  0  0  0
M  END
> <minimizedAffinity>
-6.50475

$$$$
3P8P_LN6_A_286


 20 19  0  0  0  0  0  0  0  0999 V2000
   -3.0482   -3.8503   18.1349 C   0  0  0  0  0  0  0  0  0  0  0  0
   -2.1399   -3.0414   17.3083 N   0  0  0  0  0  0  0  0  0  0  0  0
   -1.5776   -2.3566   17.7375 H   0  0  0  0  0  0  0  0  0  0  0  0
   -2.0632   -3.2169   15.9918 C   0  0  0  0  0  0  0  0  0  0  0  0
   -1.4755   -2.3025   15.2247 N   0  0  0  0  0  0  0  0  0  0  0  0
   -1.1254   -1.4745   15.6261 H   0  0  0  0  0  0  0  0  0  0  0  0
   -2.6056   -4.5019   15.3634 C   0  0  0  0  0  0  0  0  0  0  0  0
   -1.6296   -5.0663   14.3288 C   0  0  0  0  0  0  0  0  0  0  0  0
   -0.9347   -6.3221   14.8595 C   0  0  0  0  0  0  0  0  0  0  0  0
   -1.4930   -6.7239   16.2268 C   0  0  0  0  0  0  0  0  0  0  0  0
   -4.0647   -2.9787   18.8766 C   0  0  0  0  0  0  0  0  0  0  0  0
   -4.8048   -3.7783   19.9510 C   0  0  0  0  0  0  0  0  0  0  0  0
   -5.2954   -3.9821   22.3430 N   0  0  0  0  0  0  0  0  0  0  0  0
   -4.4669   -3.2748   21.3562 C   0  0  0  0  0  0  0  0  0  0  0  0
   -5.0700   -3.6464   23.2794 H   0  0  0  0  0  0  0  0  0  0  0  0
   -5.1101   -4.9836   22.2871 H   0  0  0  0  0  0  0  0  0  0  0  0
   -4.7409   -1.7725   21.4592 C   0  0  0  0  0  0  0  0  0  0  0  0
   -5.9315   -1.3988   21.3854 O   0  0  0  0  0  0  0  0  0  0  0  0
   -3.7482   -1.0272   21.6026 O   0  0  0  0  0  0  0  0  0  0  0  0
   -2.8881   -1.3961   21.6482 H   0  0  0  0  0  0  0  0  0  0  0  0
 18 17  2  0  0  0
 17 14  1  0  0  0
 17 19  1  0  0  0
 14 13  1  0  0  0
 12 14  1  0  0  0
 11 12  1  0  0  0
  2  1  1  0  0  0
  1 11  1  0  0  0
  4  2  1  0  0  0
  5  4  2  0  0  0
  7  4  1  0  0  0
  8  7  1  0  0  0
 10  9  1  0  0  0
  9  8  1  0  0  0
 13 15  1  0  0  0
 13 16  1  0  0  0
  2  3  1  0  0  0
 19 20  1  0  0  0
  5  6  1  0  0  0
M  END
> <minimizedAffinity>
-6.49924

$$$$
3P8P_LN6_A_286


 20 19  0  0  0  0  0  0  0  0999 V2000
   -3.0372   -3.7747   17.0817 C   0  0  0  0  0  0  0  0  0  0  0  0
   -3.2015   -3.0554   18.3539 N   0  0  0  0  0  0  0  0  0  0  0  0
   -2.4058   -2.7099   18.8194 H   0  0  0  0  0  0  0  0  0  0  0  0
   -4.4045   -2.8625   18.8879 C   0  0  0  0  0  0  0  0  0  0  0  0
   -5.3274   -2.1642   18.2317 N   0  0  0  0  0  0  0  0  0  0  0  0
   -5.1106   -1.7575   17.3617 H   0  0  0  0  0  0  0  0  0  0  0  0
   -4.7462   -3.4926   20.2395 C   0  0  0  0  0  0  0  0  0  0  0  0
   -3.5884   -3.3414   21.2286 C   0  0  0  0  0  0  0  0  0  0  0  0
   -3.7178   -2.0437   22.0290 C   0  0  0  0  0  0  0  0  0  0  0  0
   -5.1821   -1.6141   22.1480 C   0  0  0  0  0  0  0  0  0  0  0  0
   -2.6773   -5.2455   17.3062 C   0  0  0  0  0  0  0  0  0  0  0  0
   -1.4983   -5.6704   16.4284 C   0  0  0  0  0  0  0  0  0  0  0  0
   -1.6178   -6.6997   14.2081 N   0  0  0  0  0  0  0  0  0  0  0  0
   -1.7931   -5.4398   14.9444 C   0  0  0  0  0  0  0  0  0  0  0  0
   -1.8143   -6.5457   13.2191 H   0  0  0  0  0  0  0  0  0  0  0  0
   -2.2597   -7.4013   14.5770 H   0  0  0  0  0  0  0  0  0  0  0  0
   -0.8370   -4.3901   14.3728 C   0  0  0  0  0  0  0  0  0  0  0  0
    0.1291   -4.8012   13.6943 O   0  0  0  0  0  0  0  0  0  0  0  0
   -1.0907   -3.1950   14.6346 O   0  0  0  0  0  0  0  0  0  0  0  0
   -1.8403   -2.9778   15.1531 H   0  0  0  0  0  0  0  0  0  0  0  0
 18 17  2  0  0  0
 17 14  1  0  0  0
 17 19  1  0  0  0
 14 13  1  0  0  0
 12 14  1  0  0  0
 11 12  1  0  0  0
  2  1  1  0  0  0
  1 11  1  0  0  0
  4  2  1  0  0  0
  5  4  2  0  0  0
  7  4  1  0  0  0
  8  7  1  0  0  0
 10  9  1  0  0  0
  9  8  1  0  0  0
 13 15  1  0  0  0
 13 16  1  0  0  0
  2  3  1  0  0  0
 19 20  1  0  0  0
  5  6  1  0  0  0
M  END
> <minimizedAffinity>
-6.44329

$$$$
3P8P_LN6_A_286


 20 19  0  0  0  0  0  0  0  0999 V2000
   -4.0617   -4.5225   19.1537 C   0  0  0  0  0  0  0  0  0  0  0  0
   -3.6914   -3.4021   18.2760 N   0  0  0  0  0  0  0  0  0  0  0  0
   -4.2813   -2.6158   18.2222 H   0  0  0  0  0  0  0  0  0  0  0  0
   -2.5749   -3.4306   17.5534 C   0  0  0  0  0  0  0  0  0  0  0  0
   -1.4653   -2.8537   18.0073 N   0  0  0  0  0  0  0  0  0  0  0  0
   -1.4766   -2.3726   18.8662 H   0  0  0  0  0  0  0  0  0  0  0  0
   -2.5523   -4.1770   16.2181 C   0  0  0  0  0  0  0  0  0  0  0  0
   -2.0630   -5.6157   16.3971 C   0  0  0  0  0  0  0  0  0  0  0  0
   -1.2909   -6.0891   15.1636 C   0  0  0  0  0  0  0  0  0  0  0  0
   -1.1177   -4.9526   14.1531 C   0  0  0  0  0  0  0  0  0  0  0  0
   -5.3453   -4.2289   19.9343 C   0  0  0  0  0  0  0  0  0  0  0  0
   -5.0485   -3.9504   21.4093 C   0  0  0  0  0  0  0  0  0  0  0  0
   -5.5691   -1.6953   20.6045 N   0  0  0  0  0  0  0  0  0  0  0  0
   -4.9090   -2.4504   21.6791 C   0  0  0  0  0  0  0  0  0  0  0  0
   -5.4759   -0.6957   20.7846 H   0  0  0  0  0  0  0  0  0  0  0  0
   -6.5577   -1.9442   20.5719 H   0  0  0  0  0  0  0  0  0  0  0  0
   -3.4304   -2.0580   21.7296 C   0  0  0  0  0  0  0  0  0  0  0  0
   -2.9245   -1.5875   20.6878 O   0  0  0  0  0  0  0  0  0  0  0  0
   -2.8345   -2.2452   22.8118 O   0  0  0  0  0  0  0  0  0  0  0  0
   -3.2953   -2.6042   23.5444 H   0  0  0  0  0  0  0  0  0  0  0  0
 18 17  2  0  0  0
 17 14  1  0  0  0
 17 19  1  0  0  0
 14 13  1  0  0  0
 12 14  1  0  0  0
 11 12  1  0  0  0
  2  1  1  0  0  0
  1 11  1  0  0  0
  4  2  1  0  0  0
  5  4  2  0  0  0
  7  4  1  0  0  0
  8  7  1  0  0  0
 10  9  1  0  0  0
  9  8  1  0  0  0
 13 15  1  0  0  0
 13 16  1  0  0  0
  2  3  1  0  0  0
 19 20  1  0  0  0
  5  6  1  0  0  0
M  END
> <minimizedAffinity>
-6.30228

$$$$
3P8P_LN6_A_286


 20 19  0  0  0  0  0  0  0  0999 V2000
   -2.2197   -3.1805   17.6901 C   0  0  0  0  0  0  0  0  0  0  0  0
   -3.4183   -3.8733   18.1863 N   0  0  0  0  0  0  0  0  0  0  0  0
   -3.5432   -4.8281   17.9818 H   0  0  0  0  0  0  0  0  0  0  0  0
   -4.3369   -3.2348   18.9061 C   0  0  0  0  0  0  0  0  0  0  0  0
   -5.0852   -2.2850   18.3512 N   0  0  0  0  0  0  0  0  0  0  0  0
   -4.9370   -2.0270   17.4128 H   0  0  0  0  0  0  0  0  0  0  0  0
   -4.5709   -3.6322   20.3648 C   0  0  0  0  0  0  0  0  0  0  0  0
   -3.4836   -3.0582   21.2756 C   0  0  0  0  0  0  0  0  0  0  0  0
   -3.8169   -1.6232   21.6895 C   0  0  0  0  0  0  0  0  0  0  0  0
   -5.2858   -1.4962   22.1008 C   0  0  0  0  0  0  0  0  0  0  0  0
   -1.9910   -3.4435   16.1996 C   0  0  0  0  0  0  0  0  0  0  0  0
   -2.5766   -4.7921   15.7759 C   0  0  0  0  0  0  0  0  0  0  0  0
   -1.3381   -6.6124   14.7005 N   0  0  0  0  0  0  0  0  0  0  0  0
   -1.5716   -5.9282   15.9802 C   0  0  0  0  0  0  0  0  0  0  0  0
   -0.6683   -7.3694   14.8370 H   0  0  0  0  0  0  0  0  0  0  0  0
   -0.9661   -5.9474   14.0224 H   0  0  0  0  0  0  0  0  0  0  0  0
   -2.1144   -6.9377   16.9945 C   0  0  0  0  0  0  0  0  0  0  0  0
   -1.3361   -7.8338   17.3868 O   0  0  0  0  0  0  0  0  0  0  0  0
   -3.3035   -6.7946   17.3508 O   0  0  0  0  0  0  0  0  0  0  0  0
   -3.8152   -6.0907   17.0034 H   0  0  0  0  0  0  0  0  0  0  0  0
 18 17  2  0  0  0
 17 14  1  0  0  0
 17 19  1  0  0  0
 14 13  1  0  0  0
 12 14  1  0  0  0
 11 12  1  0  0  0
  2  1  1  0  0  0
  1 11  1  0  0  0
  4  2  1  0  0  0
  5  4  2  0  0  0
  7  4  1  0  0  0
  8  7  1  0  0  0
 10  9  1  0  0  0
  9  8  1  0  0  0
 13 15  1  0  0  0
 13 16  1  0  0  0
  2  3  1  0  0  0
 19 20  1  0  0  0
  5  6  1  0  0  0
M  END
> <minimizedAffinity>
-6.21347

$$$$
3P8P_LN6_A_286


 20 19  0  0  0  0  0  0  0  0999 V2000
   -3.2697   -4.1587   17.4466 C   0  0  0  0  0  0  0  0  0  0  0  0
   -3.3449   -3.8805   18.8887 N   0  0  0  0  0  0  0  0  0  0  0  0
   -2.9832   -4.5375   19.5265 H   0  0  0  0  0  0  0  0  0  0  0  0
   -3.8922   -2.7584   19.3482 C   0  0  0  0  0  0  0  0  0  0  0  0
   -4.9799   -2.2552   18.7705 N   0  0  0  0  0  0  0  0  0  0  0  0
   -5.3638   -2.6942   17.9773 H   0  0  0  0  0  0  0  0  0  0  0  0
   -3.2994   -2.0727   20.5806 C   0  0  0  0  0  0  0  0  0  0  0  0
   -3.5390   -2.9021   21.8439 C   0  0  0  0  0  0  0  0  0  0  0  0
   -4.9961   -2.7975   22.2996 C   0  0  0  0  0  0  0  0  0  0  0  0
   -5.4946   -1.3524   22.2217 C   0  0  0  0  0  0  0  0  0  0  0  0
   -2.0119   -3.5530   16.8188 C   0  0  0  0  0  0  0  0  0  0  0  0
   -1.9284   -3.8686   15.3239 C   0  0  0  0  0  0  0  0  0  0  0  0
   -0.2337   -4.6587   13.7404 N   0  0  0  0  0  0  0  0  0  0  0  0
   -0.8712   -4.9370   15.0352 C   0  0  0  0  0  0  0  0  0  0  0  0
    0.4708   -5.3709   13.5482 H   0  0  0  0  0  0  0  0  0  0  0  0
    0.2101   -3.7408   13.7702 H   0  0  0  0  0  0  0  0  0  0  0  0
   -1.5201   -6.3223   14.9849 C   0  0  0  0  0  0  0  0  0  0  0  0
   -1.4357   -7.0343   16.0089 O   0  0  0  0  0  0  0  0  0  0  0  0
   -2.0822   -6.6427   13.9159 O   0  0  0  0  0  0  0  0  0  0  0  0
   -2.0971   -6.0427   13.1963 H   0  0  0  0  0  0  0  0  0  0  0  0
 18 17  2  0  0  0
 17 14  1  0  0  0
 17 19  1  0  0  0
 14 13  1  0  0  0
 12 14  1  0  0  0
 11 12  1  0  0  0
  2  1  1  0  0  0
  1 11  1  0  0  0
  4  2  1  0  0  0
  5  4  2  0  0  0
  7  4  1  0  0  0
  8  7  1  0  0  0
 10  9  1  0  0  0
  9  8  1  0  0  0
 13 15  1  0  0  0
 13 16  1  0  0  0
  2  3  1  0  0  0
 19 20  1  0  0  0
  5  6  1  0  0  0
M  END
> <minimizedAffinity>
-6.15826

$$$$
3P8P_LN6_A_286


 20 19  0  0  0  0  0  0  0  0999 V2000
   -5.1086   -6.1157   19.5614 C   0  0  0  0  0  0  0  0  0  0  0  0
   -3.8588   -6.0076   18.7940 N   0  0  0  0  0  0  0  0  0  0  0  0
   -3.2971   -5.2056   18.8966 H   0  0  0  0  0  0  0  0  0  0  0  0
   -3.4724   -6.9725   17.9637 C   0  0  0  0  0  0  0  0  0  0  0  0
   -4.0703   -8.1607   17.9890 N   0  0  0  0  0  0  0  0  0  0  0  0
   -4.7792   -8.3411   18.6479 H   0  0  0  0  0  0  0  0  0  0  0  0
   -2.3713   -6.6969   16.9379 C   0  0  0  0  0  0  0  0  0  0  0  0
   -2.3222   -5.2139   16.5643 C   0  0  0  0  0  0  0  0  0  0  0  0
   -1.7892   -5.0246   15.1424 C   0  0  0  0  0  0  0  0  0  0  0  0
   -1.0930   -6.2926   14.6423 C   0  0  0  0  0  0  0  0  0  0  0  0
   -5.3899   -4.8440   20.3658 C   0  0  0  0  0  0  0  0  0  0  0  0
   -4.1093   -4.0412   20.6039 C   0  0  0  0  0  0  0  0  0  0  0  0
   -5.4384   -1.9931   20.8100 N   0  0  0  0  0  0  0  0  0  0  0  0
   -4.2670   -2.5878   20.1509 C   0  0  0  0  0  0  0  0  0  0  0  0
   -5.5432   -1.0245   20.5079 H   0  0  0  0  0  0  0  0  0  0  0  0
   -5.3104   -2.0218   21.8215 H   0  0  0  0  0  0  0  0  0  0  0  0
   -4.4621   -2.5254   18.6341 C   0  0  0  0  0  0  0  0  0  0  0  0
   -3.5798   -3.0476   17.9189 O   0  0  0  0  0  0  0  0  0  0  0  0
   -5.4904   -1.9476   18.2216 O   0  0  0  0  0  0  0  0  0  0  0  0
   -6.1004   -1.5837   18.8327 H   0  0  0  0  0  0  0  0  0  0  0  0
 18 17  2  0  0  0
 17 14  1  0  0  0
 17 19  1  0  0  0
 14 13  1  0  0  0
 12 14  1  0  0  0
 11 12  1  0  0  0
  2  1  1  0  0  0
  1 11  1  0  0  0
  4  2  1  0  0  0
  5  4  2  0  0  0
  7  4  1  0  0  0
  8  7  1  0  0  0
 10  9  1  0  0  0
  9  8  1  0  0  0
 13 15  1  0  0  0
 13 16  1  0  0  0
  2  3  1  0  0  0
 19 20  1  0  0  0
  5  6  1  0  0  0
M  END
> <minimizedAffinity>
-5.35346

$$$$
3P8P_LN6_A_286


 20 19  0  0  0  0  0  0  0  0999 V2000
   -2.4766   -3.9529   16.5938 C   0  0  0  0  0  0  0  0  0  0  0  0
   -1.8334   -3.1426   17.6389 N   0  0  0  0  0  0  0  0  0  0  0  0
   -0.9474   -2.7489   17.4677 H   0  0  0  0  0  0  0  0  0  0  0  0
   -2.4254   -2.9311   18.8113 C   0  0  0  0  0  0  0  0  0  0  0  0
   -1.7114   -2.5439   19.8650 N   0  0  0  0  0  0  0  0  0  0  0  0
   -0.7347   -2.4459   19.7887 H   0  0  0  0  0  0  0  0  0  0  0  0
   -3.9428   -3.0818   18.9348 C   0  0  0  0  0  0  0  0  0  0  0  0
   -4.3096   -4.2403   19.8648 C   0  0  0  0  0  0  0  0  0  0  0  0
   -4.8437   -3.7215   21.2016 C   0  0  0  0  0  0  0  0  0  0  0  0
   -4.8868   -2.1916   21.2206 C   0  0  0  0  0  0  0  0  0  0  0  0
   -1.8189   -5.3287   16.4602 C   0  0  0  0  0  0  0  0  0  0  0  0
   -2.8310   -6.4539   16.6857 C   0  0  0  0  0  0  0  0  0  0  0  0
   -1.3652   -8.0322   17.8536 N   0  0  0  0  0  0  0  0  0  0  0  0
   -2.5634   -7.1932   17.9987 C   0  0  0  0  0  0  0  0  0  0  0  0
   -1.1871   -8.5248   18.7288 H   0  0  0  0  0  0  0  0  0  0  0  0
   -0.5638   -7.4439   17.6254 H   0  0  0  0  0  0  0  0  0  0  0  0
   -3.7559   -8.0834   18.3564 C   0  0  0  0  0  0  0  0  0  0  0  0
   -3.6046   -9.3193   18.2454 O   0  0  0  0  0  0  0  0  0  0  0  0
   -4.7995   -7.5049   18.7274 O   0  0  0  0  0  0  0  0  0  0  0  0
   -4.8229   -6.5698   18.7815 H   0  0  0  0  0  0  0  0  0  0  0  0
 18 17  2  0  0  0
 17 14  1  0  0  0
 17 19  1  0  0  0
 14 13  1  0  0  0
 12 14  1  0  0  0
 11 12  1  0  0  0
  2  1  1  0  0  0
  1 11  1  0  0  0
  4  2  1  0  0  0
  5  4  2  0  0  0
  7  4  1  0  0  0
  8  7  1  0  0  0
 10  9  1  0  0  0
  9  8  1  0  0  0
 13 15  1  0  0  0
 13 16  1  0  0  0
  2  3  1  0  0  0
 19 20  1  0  0  0
  5  6  1  0  0  0
M  END
> <minimizedAffinity>
-5.11041

$$$$
