3FFP_LC1_X_300


 21 23  0  0  0  0  0  0  0  0999 V2000
   -5.5573    5.7330   13.2462 C   0  0  0  0  0  0  0  0  0  0  0  0
   -4.3307    5.2495   13.4893 N   0  0  0  0  0  0  0  0  0  0  0  0
   -4.4394    4.2361   14.3557 C   0  0  0  0  0  0  0  0  0  0  0  0
   -3.5130    3.3704   14.9172 C   0  0  0  0  0  0  0  0  0  0  0  0
   -3.9321    2.3662   15.8028 C   0  0  0  0  0  0  0  0  0  0  0  0
   -5.2968    2.1790   16.1004 C   0  0  0  0  0  0  0  0  0  0  0  0
   -6.2123    3.0770   15.5472 C   0  0  0  0  0  0  0  0  0  0  0  0
   -5.7724    4.0771   14.6581 C   0  0  0  0  0  0  0  0  0  0  0  0
   -6.4240    4.9989   13.9621 N   0  0  0  0  0  0  0  0  0  0  0  0
   -3.4921    5.5837   13.0967 H   0  0  0  0  0  0  0  0  0  0  0  0
   -5.9054    1.0367   17.2058 S   0  0  0  0  0  0  0  0  0  0  0  0
   -5.7378    1.4619   18.5113 O   0  0  0  0  0  0  0  0  0  0  0  0
   -5.6380   -0.3220   16.8284 O   0  0  0  0  0  0  0  0  0  0  0  0
   -7.4475    1.0913   16.9359 N   0  0  0  0  0  0  0  0  0  0  0  0
   -7.7996    2.0213   17.1628 H   0  0  0  0  0  0  0  0  0  0  0  0
   -7.9191    0.3981   17.5169 H   0  0  0  0  0  0  0  0  0  0  0  0
   -4.9913    7.5484   11.7442 C   0  0  0  0  0  0  0  0  0  0  0  0
   -5.8440    8.7087   10.8343 S   0  0  0  0  0  0  0  0  0  0  0  0
   -7.3883    8.2000   11.3067 C   0  0  0  0  0  0  0  0  0  0  0  0
   -7.1941    7.1620   12.1472 N   0  0  0  0  0  0  0  0  0  0  0  0
   -5.9060    6.7940   12.3819 C   0  0  0  0  0  0  0  0  0  0  0  0
 17 18  1  0  0  0
 17 21  2  0  0  0
 18 19  1  0  0  0
 19 20  2  0  0  0
 20 21  1  0  0  0
 21  1  1  0  0  0
  1  2  1  0  0  0
  1  9  2  0  0  0
  2  3  1  0  0  0
  3  4  2  0  0  0
  3  8  1  0  0  0
  4  5  1  0  0  0
  5  6  2  0  0  0
  6 11  1  0  0  0
  6  7  1  0  0  0
 11 12  2  0  0  0
 11 13  2  0  0  0
 11 14  1  0  0  0
  7  8  2  0  0  0
  8  9  1  0  0  0
  2 10  1  0  0  0
 14 15  1  0  0  0
 14 16  1  0  0  0
M  END
> <minimizedAffinity>
-7.54520

$$$$
3FFP_LC1_X_300


 21 23  0  0  0  0  0  0  0  0999 V2000
   -3.2378    3.3890   12.2290 C   0  0  0  0  0  0  0  0  0  0  0  0
   -4.2002    4.2570   12.5722 N   0  0  0  0  0  0  0  0  0  0  0  0
   -4.8413    3.7763   13.6434 C   0  0  0  0  0  0  0  0  0  0  0  0
   -5.8785    4.2670   14.4221 C   0  0  0  0  0  0  0  0  0  0  0  0
   -6.3425    3.5321   15.5234 C   0  0  0  0  0  0  0  0  0  0  0  0
   -5.7378    2.3147   15.8953 C   0  0  0  0  0  0  0  0  0  0  0  0
   -4.7129    1.8230   15.0839 C   0  0  0  0  0  0  0  0  0  0  0  0
   -4.2591    2.5767   13.9837 C   0  0  0  0  0  0  0  0  0  0  0  0
   -3.2845    2.3747   13.1074 N   0  0  0  0  0  0  0  0  0  0  0  0
   -4.4011    5.1046   12.1136 H   0  0  0  0  0  0  0  0  0  0  0  0
   -6.2611    1.3162   17.1705 S   0  0  0  0  0  0  0  0  0  0  0  0
   -7.5861    0.9523   17.0127 O   0  0  0  0  0  0  0  0  0  0  0  0
   -5.7478    1.7100   18.4518 O   0  0  0  0  0  0  0  0  0  0  0  0
   -5.4309    0.0079   16.9399 N   0  0  0  0  0  0  0  0  0  0  0  0
   -5.6883   -0.4044   16.0431 H   0  0  0  0  0  0  0  0  0  0  0  0
   -5.6280   -0.6562   17.6885 H   0  0  0  0  0  0  0  0  0  0  0  0
   -2.5185    4.3108   10.1065 C   0  0  0  0  0  0  0  0  0  0  0  0
   -1.1766    4.1285    9.0733 S   0  0  0  0  0  0  0  0  0  0  0  0
   -0.3682    2.9942   10.0359 C   0  0  0  0  0  0  0  0  0  0  0  0
   -1.1576    2.7939   11.1122 N   0  0  0  0  0  0  0  0  0  0  0  0
   -2.3144    3.5069   11.1670 C   0  0  0  0  0  0  0  0  0  0  0  0
 17 18  1  0  0  0
 17 21  2  0  0  0
 18 19  1  0  0  0
 19 20  2  0  0  0
 20 21  1  0  0  0
 21  1  1  0  0  0
  1  2  1  0  0  0
  1  9  2  0  0  0
  2  3  1  0  0  0
  3  4  2  0  0  0
  3  8  1  0  0  0
  4  5  1  0  0  0
  5  6  2  0  0  0
  6 11  1  0  0  0
  6  7  1  0  0  0
 11 12  2  0  0  0
 11 13  2  0  0  0
 11 14  1  0  0  0
  7  8  2  0  0  0
  8  9  1  0  0  0
  2 10  1  0  0  0
 14 15  1  0  0  0
 14 16  1  0  0  0
M  END
> <minimizedAffinity>
-7.26220

$$$$
3FFP_LC1_X_300


 21 23  0  0  0  0  0  0  0  0999 V2000
   -4.5066    4.7657   10.6952 C   0  0  0  0  0  0  0  0  0  0  0  0
   -4.3200    3.4995   10.2961 N   0  0  0  0  0  0  0  0  0  0  0  0
   -4.2717    2.7169   11.3800 C   0  0  0  0  0  0  0  0  0  0  0  0
   -4.1334    1.3477   11.5506 C   0  0  0  0  0  0  0  0  0  0  0  0
   -4.1366    0.7935   12.8395 C   0  0  0  0  0  0  0  0  0  0  0  0
   -4.3319    1.5988   13.9794 C   0  0  0  0  0  0  0  0  0  0  0  0
   -4.4424    2.9781   13.7902 C   0  0  0  0  0  0  0  0  0  0  0  0
   -4.4394    3.5155   12.4880 C   0  0  0  0  0  0  0  0  0  0  0  0
   -4.5854    4.7534   12.0355 N   0  0  0  0  0  0  0  0  0  0  0  0
   -4.2331    3.1969    9.3633 H   0  0  0  0  0  0  0  0  0  0  0  0
   -4.2902    1.0395   15.5864 S   0  0  0  0  0  0  0  0  0  0  0  0
   -3.1893    1.5338   16.2622 O   0  0  0  0  0  0  0  0  0  0  0  0
   -4.6908   -0.3318   15.7245 O   0  0  0  0  0  0  0  0  0  0  0  0
   -5.5334    1.7474   16.2246 N   0  0  0  0  0  0  0  0  0  0  0  0
   -5.3983    2.7581   16.2012 H   0  0  0  0  0  0  0  0  0  0  0  0
   -5.6400    1.4409   17.1916 H   0  0  0  0  0  0  0  0  0  0  0  0
   -3.5691    6.5982    9.4164 C   0  0  0  0  0  0  0  0  0  0  0  0
   -4.1744    7.9040    8.5055 S   0  0  0  0  0  0  0  0  0  0  0  0
   -5.8106    7.5445    8.7515 C   0  0  0  0  0  0  0  0  0  0  0  0
   -5.8334    6.4391    9.5256 N   0  0  0  0  0  0  0  0  0  0  0  0
   -4.6308    5.9129    9.8811 C   0  0  0  0  0  0  0  0  0  0  0  0
 17 18  1  0  0  0
 17 21  2  0  0  0
 18 19  1  0  0  0
 19 20  2  0  0  0
 20 21  1  0  0  0
 21  1  1  0  0  0
  1  2  1  0  0  0
  1  9  2  0  0  0
  2  3  1  0  0  0
  3  4  2  0  0  0
  3  8  1  0  0  0
  4  5  1  0  0  0
  5  6  2  0  0  0
  6 11  1  0  0  0
  6  7  1  0  0  0
 11 12  2  0  0  0
 11 13  2  0  0  0
 11 14  1  0  0  0
  7  8  2  0  0  0
  8  9  1  0  0  0
  2 10  1  0  0  0
 14 15  1  0  0  0
 14 16  1  0  0  0
M  END
> <minimizedAffinity>
-6.85586

$$$$
3FFP_LC1_X_300


 21 23  0  0  0  0  0  0  0  0999 V2000
   -4.3956    1.5642   14.1554 C   0  0  0  0  0  0  0  0  0  0  0  0
   -4.1987    0.5656   13.2828 N   0  0  0  0  0  0  0  0  0  0  0  0
   -3.4209    1.0165   12.2922 C   0  0  0  0  0  0  0  0  0  0  0  0
   -2.8849    0.4143   11.1639 C   0  0  0  0  0  0  0  0  0  0  0  0
   -2.0683    1.1501   10.2921 C   0  0  0  0  0  0  0  0  0  0  0  0
   -1.7314    2.4910   10.5654 C   0  0  0  0  0  0  0  0  0  0  0  0
   -2.3020    3.0886   11.6914 C   0  0  0  0  0  0  0  0  0  0  0  0
   -3.1175    2.3325   12.5562 C   0  0  0  0  0  0  0  0  0  0  0  0
   -3.7208    2.6312   13.6986 N   0  0  0  0  0  0  0  0  0  0  0  0
   -4.5646   -0.3452   13.3583 H   0  0  0  0  0  0  0  0  0  0  0  0
   -0.8038    3.4899    9.5461 S   0  0  0  0  0  0  0  0  0  0  0  0
   -1.4378    3.6988    8.3347 O   0  0  0  0  0  0  0  0  0  0  0  0
    0.6044    3.2198    9.6092 O   0  0  0  0  0  0  0  0  0  0  0  0
   -0.8461    4.8674   10.2907 N   0  0  0  0  0  0  0  0  0  0  0  0
   -1.8084    5.2033   10.3301 H   0  0  0  0  0  0  0  0  0  0  0  0
   -0.2704    5.5432    9.7885 H   0  0  0  0  0  0  0  0  0  0  0  0
   -5.8577    2.5698   15.8056 C   0  0  0  0  0  0  0  0  0  0  0  0
   -6.5741    2.0908   17.2749 S   0  0  0  0  0  0  0  0  0  0  0  0
   -5.9210    0.5287   17.2861 C   0  0  0  0  0  0  0  0  0  0  0  0
   -5.1750    0.4324   16.1655 N   0  0  0  0  0  0  0  0  0  0  0  0
   -5.1424    1.5227   15.3533 C   0  0  0  0  0  0  0  0  0  0  0  0
 17 18  1  0  0  0
 17 21  2  0  0  0
 18 19  1  0  0  0
 19 20  2  0  0  0
 20 21  1  0  0  0
 21  1  1  0  0  0
  1  2  1  0  0  0
  1  9  2  0  0  0
  2  3  1  0  0  0
  3  4  2  0  0  0
  3  8  1  0  0  0
  4  5  1  0  0  0
  5  6  2  0  0  0
  6 11  1  0  0  0
  6  7  1  0  0  0
 11 12  2  0  0  0
 11 13  2  0  0  0
 11 14  1  0  0  0
  7  8  2  0  0  0
  8  9  1  0  0  0
  2 10  1  0  0  0
 14 15  1  0  0  0
 14 16  1  0  0  0
M  END
> <minimizedAffinity>
-6.67544

$$$$
3FFP_LC1_X_300


 21 23  0  0  0  0  0  0  0  0999 V2000
   -1.4063    5.9484   12.9463 C   0  0  0  0  0  0  0  0  0  0  0  0
   -0.5351    5.1348   12.3328 N   0  0  0  0  0  0  0  0  0  0  0  0
   -1.1851    4.0300   11.9501 C   0  0  0  0  0  0  0  0  0  0  0  0
   -0.7911    2.8945   11.2584 C   0  0  0  0  0  0  0  0  0  0  0  0
   -1.7204    1.8818   10.9772 C   0  0  0  0  0  0  0  0  0  0  0  0
   -3.0759    2.0145   11.3394 C   0  0  0  0  0  0  0  0  0  0  0  0
   -3.4487    3.1520   12.0588 C   0  0  0  0  0  0  0  0  0  0  0  0
   -2.5015    4.1591   12.3294 C   0  0  0  0  0  0  0  0  0  0  0  0
   -2.6024    5.3388   12.9265 N   0  0  0  0  0  0  0  0  0  0  0  0
    0.4211    5.3193   12.1883 H   0  0  0  0  0  0  0  0  0  0  0  0
   -4.2687    0.8234   11.1034 S   0  0  0  0  0  0  0  0  0  0  0  0
   -4.3677   -0.0131   12.2006 O   0  0  0  0  0  0  0  0  0  0  0  0
   -4.2969    0.3002    9.7672 O   0  0  0  0  0  0  0  0  0  0  0  0
   -5.5902    1.6644   11.0899 N   0  0  0  0  0  0  0  0  0  0  0  0
   -5.7170    2.1130   11.9971 H   0  0  0  0  0  0  0  0  0  0  0  0
   -6.3822    1.0501   10.9007 H   0  0  0  0  0  0  0  0  0  0  0  0
   -0.2137    8.0571   13.0005 C   0  0  0  0  0  0  0  0  0  0  0  0
   -0.2314    9.4604   13.9659 S   0  0  0  0  0  0  0  0  0  0  0  0
   -1.4571    8.9378   15.0106 C   0  0  0  0  0  0  0  0  0  0  0  0
   -1.8055    7.7057   14.5838 N   0  0  0  0  0  0  0  0  0  0  0  0
   -1.1500    7.2248   13.4936 C   0  0  0  0  0  0  0  0  0  0  0  0
 17 18  1  0  0  0
 17 21  2  0  0  0
 18 19  1  0  0  0
 19 20  2  0  0  0
 20 21  1  0  0  0
 21  1  1  0  0  0
  1  2  1  0  0  0
  1  9  2  0  0  0
  2  3  1  0  0  0
  3  4  2  0  0  0
  3  8  1  0  0  0
  4  5  1  0  0  0
  5  6  2  0  0  0
  6 11  1  0  0  0
  6  7  1  0  0  0
 11 12  2  0  0  0
 11 13  2  0  0  0
 11 14  1  0  0  0
  7  8  2  0  0  0
  8  9  1  0  0  0
  2 10  1  0  0  0
 14 15  1  0  0  0
 14 16  1  0  0  0
M  END
> <minimizedAffinity>
-6.50342

$$$$
3FFP_LC1_X_300


 21 23  0  0  0  0  0  0  0  0999 V2000
   -4.4056    2.6356   14.8230 C   0  0  0  0  0  0  0  0  0  0  0  0
   -3.3835    3.4749   15.0426 N   0  0  0  0  0  0  0  0  0  0  0  0
   -2.8867    3.8553   13.8602 C   0  0  0  0  0  0  0  0  0  0  0  0
   -1.8667    4.7227   13.4995 C   0  0  0  0  0  0  0  0  0  0  0  0
   -1.5758    4.9453   12.1452 C   0  0  0  0  0  0  0  0  0  0  0  0
   -2.3391    4.3411   11.1262 C   0  0  0  0  0  0  0  0  0  0  0  0
   -3.3444    3.4500   11.5080 C   0  0  0  0  0  0  0  0  0  0  0  0
   -3.6232    3.2415   12.8731 C   0  0  0  0  0  0  0  0  0  0  0  0
   -4.5414    2.5127   13.4929 N   0  0  0  0  0  0  0  0  0  0  0  0
   -3.0543    3.7626   15.9247 H   0  0  0  0  0  0  0  0  0  0  0  0
   -2.0324    4.4928    9.4588 S   0  0  0  0  0  0  0  0  0  0  0  0
   -1.3908    3.3728    8.9619 O   0  0  0  0  0  0  0  0  0  0  0  0
   -1.6261    5.8136    9.0707 O   0  0  0  0  0  0  0  0  0  0  0  0
   -3.4733    4.4645    8.8448 N   0  0  0  0  0  0  0  0  0  0  0  0
   -3.9087    3.5632    9.0409 H   0  0  0  0  0  0  0  0  0  0  0  0
   -3.4156    4.6018    7.8357 H   0  0  0  0  0  0  0  0  0  0  0  0
   -6.4348    2.4781   16.1381 C   0  0  0  0  0  0  0  0  0  0  0  0
   -7.0524    1.4341   17.3340 S   0  0  0  0  0  0  0  0  0  0  0  0
   -5.7131    0.3988   17.3701 C   0  0  0  0  0  0  0  0  0  0  0  0
   -4.8401    0.8929   16.4671 N   0  0  0  0  0  0  0  0  0  0  0  0
   -5.2230    2.0073   15.7881 C   0  0  0  0  0  0  0  0  0  0  0  0
 17 18  1  0  0  0
 17 21  2  0  0  0
 18 19  1  0  0  0
 19 20  2  0  0  0
 20 21  1  0  0  0
 21  1  1  0  0  0
  1  2  1  0  0  0
  1  9  2  0  0  0
  2  3  1  0  0  0
  3  4  2  0  0  0
  3  8  1  0  0  0
  4  5  1  0  0  0
  5  6  2  0  0  0
  6 11  1  0  0  0
  6  7  1  0  0  0
 11 12  2  0  0  0
 11 13  2  0  0  0
 11 14  1  0  0  0
  7  8  2  0  0  0
  8  9  1  0  0  0
  2 10  1  0  0  0
 14 15  1  0  0  0
 14 16  1  0  0  0
M  END
> <minimizedAffinity>
-6.29578

$$$$
3FFP_LC1_X_300


 21 23  0  0  0  0  0  0  0  0999 V2000
   -4.6055    6.1934   11.9831 C   0  0  0  0  0  0  0  0  0  0  0  0
   -5.7141    6.1480   12.7357 N   0  0  0  0  0  0  0  0  0  0  0  0
   -5.6231    5.0986   13.5603 C   0  0  0  0  0  0  0  0  0  0  0  0
   -6.4521    4.6061   14.5569 C   0  0  0  0  0  0  0  0  0  0  0  0
   -6.0774    3.4691   15.2884 C   0  0  0  0  0  0  0  0  0  0  0  0
   -4.8377    2.8360   15.0684 C   0  0  0  0  0  0  0  0  0  0  0  0
   -4.0282    3.3294   14.0429 C   0  0  0  0  0  0  0  0  0  0  0  0
   -4.4206    4.4738   13.3211 C   0  0  0  0  0  0  0  0  0  0  0  0
   -3.8251    5.1685   12.3613 N   0  0  0  0  0  0  0  0  0  0  0  0
   -6.4676    6.7799   12.6893 H   0  0  0  0  0  0  0  0  0  0  0  0
   -4.3144    1.4189   15.8529 S   0  0  0  0  0  0  0  0  0  0  0  0
   -3.0150    1.5477   16.3092 O   0  0  0  0  0  0  0  0  0  0  0  0
   -4.7594    0.2140   15.2125 O   0  0  0  0  0  0  0  0  0  0  0  0
   -5.2138    1.3889   17.1351 N   0  0  0  0  0  0  0  0  0  0  0  0
   -5.0105    2.2050   17.7122 H   0  0  0  0  0  0  0  0  0  0  0  0
   -5.0202    0.5400   17.6664 H   0  0  0  0  0  0  0  0  0  0  0  0
   -4.4699    6.9271    9.6776 C   0  0  0  0  0  0  0  0  0  0  0  0
   -3.9251    8.3151    8.8543 S   0  0  0  0  0  0  0  0  0  0  0  0
   -3.4438    9.1616   10.2395 C   0  0  0  0  0  0  0  0  0  0  0  0
   -3.7149    8.3483   11.2819 N   0  0  0  0  0  0  0  0  0  0  0  0
   -4.2790    7.1453   10.9923 C   0  0  0  0  0  0  0  0  0  0  0  0
 17 18  1  0  0  0
 17 21  2  0  0  0
 18 19  1  0  0  0
 19 20  2  0  0  0
 20 21  1  0  0  0
 21  1  1  0  0  0
  1  2  1  0  0  0
  1  9  2  0  0  0
  2  3  1  0  0  0
  3  4  2  0  0  0
  3  8  1  0  0  0
  4  5  1  0  0  0
  5  6  2  0  0  0
  6 11  1  0  0  0
  6  7  1  0  0  0
 11 12  2  0  0  0
 11 13  2  0  0  0
 11 14  1  0  0  0
  7  8  2  0  0  0
  8  9  1  0  0  0
  2 10  1  0  0  0
 14 15  1  0  0  0
 14 16  1  0  0  0
M  END
> <minimizedAffinity>
-6.05667

$$$$
3FFP_LC1_X_300


 21 23  0  0  0  0  0  0  0  0999 V2000
   -5.5892    4.0744   14.6493 C   0  0  0  0  0  0  0  0  0  0  0  0
   -4.4160    4.6586   14.3671 N   0  0  0  0  0  0  0  0  0  0  0  0
   -4.6372    5.6582   13.5060 C   0  0  0  0  0  0  0  0  0  0  0  0
   -3.8053    6.5976   12.9159 C   0  0  0  0  0  0  0  0  0  0  0  0
   -4.3356    7.5619   12.0457 C   0  0  0  0  0  0  0  0  0  0  0  0
   -5.7201    7.6338   11.7928 C   0  0  0  0  0  0  0  0  0  0  0  0
   -6.5388    6.6631   12.3743 C   0  0  0  0  0  0  0  0  0  0  0  0
   -5.9880    5.7045   13.2474 C   0  0  0  0  0  0  0  0  0  0  0  0
   -6.5371    4.7324   13.9629 N   0  0  0  0  0  0  0  0  0  0  0  0
   -3.5400    4.3964   14.7318 H   0  0  0  0  0  0  0  0  0  0  0  0
   -6.4578    8.7196   10.7093 S   0  0  0  0  0  0  0  0  0  0  0  0
   -6.2045   10.0325   11.0631 O   0  0  0  0  0  0  0  0  0  0  0  0
   -7.7650    8.3046   10.2862 O   0  0  0  0  0  0  0  0  0  0  0  0
   -5.6572    8.4744    9.3853 N   0  0  0  0  0  0  0  0  0  0  0  0
   -4.6798    8.7295    9.5268 H   0  0  0  0  0  0  0  0  0  0  0  0
   -6.0528    9.0450    8.6382 H   0  0  0  0  0  0  0  0  0  0  0  0
   -6.8377    2.9629   16.4037 C   0  0  0  0  0  0  0  0  0  0  0  0
   -6.7256    1.4926   17.2565 S   0  0  0  0  0  0  0  0  0  0  0  0
   -5.3412    0.9332   16.4580 C   0  0  0  0  0  0  0  0  0  0  0  0
   -5.0134    1.8950   15.5697 N   0  0  0  0  0  0  0  0  0  0  0  0
   -5.8196    2.9892   15.5231 C   0  0  0  0  0  0  0  0  0  0  0  0
 17 18  1  0  0  0
 17 21  2  0  0  0
 18 19  1  0  0  0
 19 20  2  0  0  0
 20 21  1  0  0  0
 21  1  1  0  0  0
  1  2  1  0  0  0
  1  9  2  0  0  0
  2  3  1  0  0  0
  3  4  2  0  0  0
  3  8  1  0  0  0
  4  5  1  0  0  0
  5  6  2  0  0  0
  6 11  1  0  0  0
  6  7  1  0  0  0
 11 12  2  0  0  0
 11 13  2  0  0  0
 11 14  1  0  0  0
  7  8  2  0  0  0
  8  9  1  0  0  0
  2 10  1  0  0  0
 14 15  1  0  0  0
 14 16  1  0  0  0
M  END
> <minimizedAffinity>
-5.86850

$$$$
3FFP_LC1_X_300


 21 23  0  0  0  0  0  0  0  0999 V2000
   -4.5617    3.3234   15.2839 C   0  0  0  0  0  0  0  0  0  0  0  0
   -3.2399    3.2801   15.0640 N   0  0  0  0  0  0  0  0  0  0  0  0
   -2.8939    4.3580   14.3513 C   0  0  0  0  0  0  0  0  0  0  0  0
   -1.6772    4.8282   13.8809 C   0  0  0  0  0  0  0  0  0  0  0  0
   -1.6165    6.0300   13.1596 C   0  0  0  0  0  0  0  0  0  0  0  0
   -2.7702    6.8097   12.9426 C   0  0  0  0  0  0  0  0  0  0  0  0
   -3.9904    6.3072   13.4000 C   0  0  0  0  0  0  0  0  0  0  0  0
   -4.0306    5.0997   14.1246 C   0  0  0  0  0  0  0  0  0  0  0  0
   -5.0244    4.4455   14.7100 N   0  0  0  0  0  0  0  0  0  0  0  0
   -2.6276    2.5745   15.3745 H   0  0  0  0  0  0  0  0  0  0  0  0
   -2.8185    8.2458   12.0302 S   0  0  0  0  0  0  0  0  0  0  0  0
   -2.1015    9.2562   12.6451 O   0  0  0  0  0  0  0  0  0  0  0  0
   -4.0994    8.5017   11.4353 O   0  0  0  0  0  0  0  0  0  0  0  0
   -2.0004    7.8626   10.7505 N   0  0  0  0  0  0  0  0  0  0  0  0
   -1.0390    7.6462   11.0137 H   0  0  0  0  0  0  0  0  0  0  0  0
   -2.0059    8.6452   10.0964 H   0  0  0  0  0  0  0  0  0  0  0  0
   -6.6634    2.5540   16.2128 C   0  0  0  0  0  0  0  0  0  0  0  0
   -7.1914    1.2226   17.1348 S   0  0  0  0  0  0  0  0  0  0  0  0
   -5.6756    0.4764   17.2472 C   0  0  0  0  0  0  0  0  0  0  0  0
   -4.8197    1.2765   16.5771 N   0  0  0  0  0  0  0  0  0  0  0  0
   -5.3429    2.3939   16.0052 C   0  0  0  0  0  0  0  0  0  0  0  0
 17 18  1  0  0  0
 17 21  2  0  0  0
 18 19  1  0  0  0
 19 20  2  0  0  0
 20 21  1  0  0  0
 21  1  1  0  0  0
  1  2  1  0  0  0
  1  9  2  0  0  0
  2  3  1  0  0  0
  3  4  2  0  0  0
  3  8  1  0  0  0
  4  5  1  0  0  0
  5  6  2  0  0  0
  6 11  1  0  0  0
  6  7  1  0  0  0
 11 12  2  0  0  0
 11 13  2  0  0  0
 11 14  1  0  0  0
  7  8  2  0  0  0
  8  9  1  0  0  0
  2 10  1  0  0  0
 14 15  1  0  0  0
 14 16  1  0  0  0
M  END
> <minimizedAffinity>
-5.82538

$$$$
3FFP_LC1_X_300


 21 23  0  0  0  0  0  0  0  0999 V2000
   -5.5987    4.7138   14.0643 C   0  0  0  0  0  0  0  0  0  0  0  0
   -6.7991    5.2822   13.8820 N   0  0  0  0  0  0  0  0  0  0  0  0
   -6.6484    6.3407   13.0780 C   0  0  0  0  0  0  0  0  0  0  0  0
   -7.5433    7.2546   12.5424 C   0  0  0  0  0  0  0  0  0  0  0  0
   -7.0872    8.2742   11.6936 C   0  0  0  0  0  0  0  0  0  0  0  0
   -5.7300    8.3636   11.3243 C   0  0  0  0  0  0  0  0  0  0  0  0
   -4.8394    7.4515   11.8947 C   0  0  0  0  0  0  0  0  0  0  0  0
   -5.3170    6.4331   12.7428 C   0  0  0  0  0  0  0  0  0  0  0  0
   -4.7089    5.4256   13.3542 N   0  0  0  0  0  0  0  0  0  0  0  0
   -7.6478    4.9730   14.2736 H   0  0  0  0  0  0  0  0  0  0  0  0
   -5.0626    9.5935   10.3554 S   0  0  0  0  0  0  0  0  0  0  0  0
   -5.1207    9.2634    9.0135 O   0  0  0  0  0  0  0  0  0  0  0  0
   -3.8874   10.1922   10.9215 O   0  0  0  0  0  0  0  0  0  0  0  0
   -6.0811   10.7680   10.5483 N   0  0  0  0  0  0  0  0  0  0  0  0
   -6.9928   10.4905   10.1846 H   0  0  0  0  0  0  0  0  0  0  0  0
   -5.7504   11.5911   10.0448 H   0  0  0  0  0  0  0  0  0  0  0  0
   -4.1260    2.9121   14.7405 C   0  0  0  0  0  0  0  0  0  0  0  0
   -4.2044    1.5905   15.8121 S   0  0  0  0  0  0  0  0  0  0  0  0
   -5.7772    1.9008   16.3568 C   0  0  0  0  0  0  0  0  0  0  0  0
   -6.1862    3.0037   15.6951 N   0  0  0  0  0  0  0  0  0  0  0  0
   -5.3002    3.5648   14.8292 C   0  0  0  0  0  0  0  0  0  0  0  0
 17 18  1  0  0  0
 17 21  2  0  0  0
 18 19  1  0  0  0
 19 20  2  0  0  0
 20 21  1  0  0  0
 21  1  1  0  0  0
  1  2  1  0  0  0
  1  9  2  0  0  0
  2  3  1  0  0  0
  3  4  2  0  0  0
  3  8  1  0  0  0
  4  5  1  0  0  0
  5  6  2  0  0  0
  6 11  1  0  0  0
  6  7  1  0  0  0
 11 12  2  0  0  0
 11 13  2  0  0  0
 11 14  1  0  0  0
  7  8  2  0  0  0
  8  9  1  0  0  0
  2 10  1  0  0  0
 14 15  1  0  0  0
 14 16  1  0  0  0
M  END
> <minimizedAffinity>
-5.77530

$$$$
