4DLD_TZG_A_301


 25 25  0  0  0  0  0  0  0  0999 V2000
   -3.5252   35.7379   98.7831 C   0  0  0  0  0  0  0  0  0  0  0  0
   -4.8862   35.4829   98.7290 C   0  0  0  0  0  0  0  0  0  0  0  0
   -5.5801   35.2821   99.9157 C   0  0  0  0  0  0  0  0  0  0  0  0
   -2.8587   35.8053  100.0016 C   0  0  0  0  0  0  0  0  0  0  0  0
   -5.6684   35.4264   97.1813 Cl  0  0  0  0  0  0  0  0  0  0  0  0
   -4.9132   35.3428  101.1271 C   0  0  0  0  0  0  0  0  0  0  0  0
   -3.5527   35.6111  101.1915 C   0  0  0  0  0  0  0  0  0  0  0  0
   -6.8930   35.0322   99.9437 N   0  0  0  0  0  0  0  0  0  0  0  0
   -7.7482   35.8981  100.6774 O   0  0  0  0  0  0  0  0  0  0  0  0
   -7.4399   33.9088   99.2960 O   0  0  0  0  0  0  0  0  0  0  0  0
   -1.3695   36.1025   99.9563 C   0  0  0  0  0  0  0  0  0  0  0  0
   -0.5917   34.8001   99.6444 C   0  0  0  0  0  0  0  0  0  0  0  0
    0.3447   34.5188  100.7382 N   0  0  0  0  0  0  0  0  0  0  0  0
    0.9882   35.3030  100.8449 H   0  0  0  0  0  0  0  0  0  0  0  0
    0.8725   33.6725  100.5247 H   0  0  0  0  0  0  0  0  0  0  0  0
    0.3552   34.0777   97.5979 O   0  0  0  0  0  0  0  0  0  0  0  0
    0.2193   35.0417   98.3822 C   0  0  0  0  0  0  0  0  0  0  0  0
    0.6313   36.2030   98.2102 O   0  0  0  0  0  0  0  0  0  0  0  0
    0.4765   36.8566   98.8635 H   0  0  0  0  0  0  0  0  0  0  0  0
   -2.8871   35.6416  102.5810 C   0  0  0  0  0  0  0  0  0  0  0  0
   -2.5686   34.2528  103.1483 C   0  0  0  0  0  0  0  0  0  0  0  0
   -2.8650   34.2081  104.6539 C   0  0  0  0  0  0  0  0  0  0  0  0
   -4.0614   34.1596  105.0040 O   0  0  0  0  0  0  0  0  0  0  0  0
   -1.8871   34.2308  105.4226 O   0  0  0  0  0  0  0  0  0  0  0  0
   -1.0181   34.2676  105.0741 H   0  0  0  0  0  0  0  0  0  0  0  0
  8  3  1  0  0  0
  8  9  1  0  0  0
  8 10  2  0  0  0
  1  2  2  0  0  0
  1  4  1  0  0  0
  2  3  1  0  0  0
  2  5  1  0  0  0
  3  6  2  0  0  0
 11 12  1  0  0  0
 11  4  1  0  0  0
 12 17  1  0  0  0
 12 13  1  0  0  0
 21 20  1  0  0  0
 21 22  1  0  0  0
 16 17  2  0  0  0
 17 18  1  0  0  0
  4  7  2  0  0  0
  6  7  1  0  0  0
  7 20  1  0  0  0
 22 23  2  0  0  0
 22 24  1  0  0  0
 18 19  1  0  0  0
 13 14  1  0  0  0
 13 15  1  0  0  0
 24 25  1  0  0  0
M  CHG 1   8   1
M  CHG 1   9  -1
M  END
> <minimizedAffinity>
-8.46343

$$$$
4DLD_TZG_A_301


 25 25  0  0  0  0  0  0  0  0999 V2000
    0.5350   33.5325  103.1449 C   0  0  0  0  0  0  0  0  0  0  0  0
    1.8471   33.9058  102.9015 C   0  0  0  0  0  0  0  0  0  0  0  0
    2.0927   35.0401  102.1379 C   0  0  0  0  0  0  0  0  0  0  0  0
   -0.5252   34.2817  102.6468 C   0  0  0  0  0  0  0  0  0  0  0  0
    3.1299   32.9420  103.5619 Cl  0  0  0  0  0  0  0  0  0  0  0  0
    1.0357   35.7805  101.6373 C   0  0  0  0  0  0  0  0  0  0  0  0
   -0.2818   35.4217  101.8875 C   0  0  0  0  0  0  0  0  0  0  0  0
    3.3303   35.4629  101.8615 N   0  0  0  0  0  0  0  0  0  0  0  0
    3.7114   36.7811  102.2309 O   0  0  0  0  0  0  0  0  0  0  0  0
    4.2494   34.6451  101.1779 O   0  0  0  0  0  0  0  0  0  0  0  0
   -1.9264   33.7975  102.9788 C   0  0  0  0  0  0  0  0  0  0  0  0
   -2.4844   34.6096  104.1736 C   0  0  0  0  0  0  0  0  0  0  0  0
   -1.8122   34.1853  105.4066 N   0  0  0  0  0  0  0  0  0  0  0  0
   -1.9642   33.1870  105.5505 H   0  0  0  0  0  0  0  0  0  0  0  0
   -2.1931   34.7047  106.1976 H   0  0  0  0  0  0  0  0  0  0  0  0
   -4.6983   34.5577  103.3354 O   0  0  0  0  0  0  0  0  0  0  0  0
   -3.9610   34.2757  104.3049 C   0  0  0  0  0  0  0  0  0  0  0  0
   -4.2997   33.6932  105.3508 O   0  0  0  0  0  0  0  0  0  0  0  0
   -3.6663   33.5285  106.0214 H   0  0  0  0  0  0  0  0  0  0  0  0
   -1.3965   36.2921  101.2757 C   0  0  0  0  0  0  0  0  0  0  0  0
   -0.9818   37.7471  101.0243 C   0  0  0  0  0  0  0  0  0  0  0  0
   -1.8387   38.7018  101.8676 C   0  0  0  0  0  0  0  0  0  0  0  0
   -2.1981   38.3086  102.9956 O   0  0  0  0  0  0  0  0  0  0  0  0
   -2.1217   39.8024  101.3614 O   0  0  0  0  0  0  0  0  0  0  0  0
   -1.8090   40.0185  100.5050 H   0  0  0  0  0  0  0  0  0  0  0  0
  8  3  1  0  0  0
  8  9  1  0  0  0
  8 10  2  0  0  0
  1  2  2  0  0  0
  1  4  1  0  0  0
  2  3  1  0  0  0
  2  5  1  0  0  0
  3  6  2  0  0  0
 11 12  1  0  0  0
 11  4  1  0  0  0
 12 17  1  0  0  0
 12 13  1  0  0  0
 21 20  1  0  0  0
 21 22  1  0  0  0
 16 17  2  0  0  0
 17 18  1  0  0  0
  4  7  2  0  0  0
  6  7  1  0  0  0
  7 20  1  0  0  0
 22 23  2  0  0  0
 22 24  1  0  0  0
 18 19  1  0  0  0
 13 14  1  0  0  0
 13 15  1  0  0  0
 24 25  1  0  0  0
M  CHG 1   8   1
M  CHG 1   9  -1
M  END
> <minimizedAffinity>
-8.39448

$$$$
4DLD_TZG_A_301


 25 25  0  0  0  0  0  0  0  0999 V2000
   -0.0186   35.1739  100.1618 C   0  0  0  0  0  0  0  0  0  0  0  0
   -0.8582   35.1855   99.0595 C   0  0  0  0  0  0  0  0  0  0  0  0
   -2.2271   35.3142   99.2586 C   0  0  0  0  0  0  0  0  0  0  0  0
   -0.5279   35.3003  101.4494 C   0  0  0  0  0  0  0  0  0  0  0  0
   -0.1653   35.0404   97.4754 Cl  0  0  0  0  0  0  0  0  0  0  0  0
   -2.7325   35.4329  100.5417 C   0  0  0  0  0  0  0  0  0  0  0  0
   -1.8977   35.4360  101.6508 C   0  0  0  0  0  0  0  0  0  0  0  0
   -3.0990   35.3342   98.2456 N   0  0  0  0  0  0  0  0  0  0  0  0
   -3.9493   36.4614   98.0847 O   0  0  0  0  0  0  0  0  0  0  0  0
   -3.2200   34.2469   97.3602 O   0  0  0  0  0  0  0  0  0  0  0  0
    0.4748   35.2887  102.5907 C   0  0  0  0  0  0  0  0  0  0  0  0
    0.8511   33.8260  102.9334 C   0  0  0  0  0  0  0  0  0  0  0  0
    0.2182   33.4450  104.2009 N   0  0  0  0  0  0  0  0  0  0  0  0
    0.5285   34.0766  104.9392 H   0  0  0  0  0  0  0  0  0  0  0  0
    0.4817   32.4887  104.4385 H   0  0  0  0  0  0  0  0  0  0  0  0
    3.0677   34.2047  102.1921 O   0  0  0  0  0  0  0  0  0  0  0  0
    2.3575   33.7735  103.1262 C   0  0  0  0  0  0  0  0  0  0  0  0
    2.7540   33.3567  104.2293 O   0  0  0  0  0  0  0  0  0  0  0  0
    2.1362   33.0532  104.8651 H   0  0  0  0  0  0  0  0  0  0  0  0
   -2.5467   35.5538  103.0435 C   0  0  0  0  0  0  0  0  0  0  0  0
   -3.6941   34.5641  103.2803 C   0  0  0  0  0  0  0  0  0  0  0  0
   -3.4911   33.8154  104.6052 C   0  0  0  0  0  0  0  0  0  0  0  0
   -4.4020   33.0495  104.9790 O   0  0  0  0  0  0  0  0  0  0  0  0
   -2.4309   34.0318  105.2190 O   0  0  0  0  0  0  0  0  0  0  0  0
   -1.7974   34.6248  104.8653 H   0  0  0  0  0  0  0  0  0  0  0  0
  8  3  1  0  0  0
  8  9  1  0  0  0
  8 10  2  0  0  0
  1  2  2  0  0  0
  1  4  1  0  0  0
  2  3  1  0  0  0
  2  5  1  0  0  0
  3  6  2  0  0  0
 11 12  1  0  0  0
 11  4  1  0  0  0
 12 17  1  0  0  0
 12 13  1  0  0  0
 21 20  1  0  0  0
 21 22  1  0  0  0
 16 17  2  0  0  0
 17 18  1  0  0  0
  4  7  2  0  0  0
  6  7  1  0  0  0
  7 20  1  0  0  0
 22 23  2  0  0  0
 22 24  1  0  0  0
 18 19  1  0  0  0
 13 14  1  0  0  0
 13 15  1  0  0  0
 24 25  1  0  0  0
M  CHG 1   8   1
M  CHG 1   9  -1
M  END
> <minimizedAffinity>
-8.11527

$$$$
4DLD_TZG_A_301


 25 25  0  0  0  0  0  0  0  0999 V2000
    0.3091   35.7687  103.0281 C   0  0  0  0  0  0  0  0  0  0  0  0
    1.1063   36.8595  102.7206 C   0  0  0  0  0  0  0  0  0  0  0  0
    0.6121   37.8320  101.8604 C   0  0  0  0  0  0  0  0  0  0  0  0
   -0.9708   35.6469  102.4984 C   0  0  0  0  0  0  0  0  0  0  0  0
    2.6889   36.9669  103.4238 Cl  0  0  0  0  0  0  0  0  0  0  0  0
   -0.6596   37.7054  101.3287 C   0  0  0  0  0  0  0  0  0  0  0  0
   -1.4703   36.6229  101.6420 C   0  0  0  0  0  0  0  0  0  0  0  0
    1.3214   38.9121  101.5179 N   0  0  0  0  0  0  0  0  0  0  0  0
    0.7887   40.2032  101.7798 O   0  0  0  0  0  0  0  0  0  0  0  0
    2.5646   38.7976  100.8683 O   0  0  0  0  0  0  0  0  0  0  0  0
   -1.7709   34.4213  102.9057 C   0  0  0  0  0  0  0  0  0  0  0  0
   -2.5614   34.7274  104.2018 C   0  0  0  0  0  0  0  0  0  0  0  0
   -1.8775   34.1134  105.3452 N   0  0  0  0  0  0  0  0  0  0  0  0
   -1.8069   33.1065  105.1985 H   0  0  0  0  0  0  0  0  0  0  0  0
   -2.4079   34.2965  106.1970 H   0  0  0  0  0  0  0  0  0  0  0  0
   -4.2330   33.2093  104.9143 O   0  0  0  0  0  0  0  0  0  0  0  0
   -3.9289   34.0783  104.0685 C   0  0  0  0  0  0  0  0  0  0  0  0
   -4.6550   34.5136  103.1568 O   0  0  0  0  0  0  0  0  0  0  0  0
   -4.3300   35.1693  102.5717 H   0  0  0  0  0  0  0  0  0  0  0  0
   -2.8649   36.5520  100.9904 C   0  0  0  0  0  0  0  0  0  0  0  0
   -2.8959   35.7694   99.6718 C   0  0  0  0  0  0  0  0  0  0  0  0
   -4.3293   35.3281   99.3442 C   0  0  0  0  0  0  0  0  0  0  0  0
   -5.1405   35.2585  100.2893 O   0  0  0  0  0  0  0  0  0  0  0  0
   -4.5803   35.0627   98.1549 O   0  0  0  0  0  0  0  0  0  0  0  0
   -3.9094   35.1421   97.5056 H   0  0  0  0  0  0  0  0  0  0  0  0
  8  3  1  0  0  0
  8  9  1  0  0  0
  8 10  2  0  0  0
  1  2  2  0  0  0
  1  4  1  0  0  0
  2  3  1  0  0  0
  2  5  1  0  0  0
  3  6  2  0  0  0
 11 12  1  0  0  0
 11  4  1  0  0  0
 12 17  1  0  0  0
 12 13  1  0  0  0
 21 20  1  0  0  0
 21 22  1  0  0  0
 16 17  2  0  0  0
 17 18  1  0  0  0
  4  7  2  0  0  0
  6  7  1  0  0  0
  7 20  1  0  0  0
 22 23  2  0  0  0
 22 24  1  0  0  0
 18 19  1  0  0  0
 13 14  1  0  0  0
 13 15  1  0  0  0
 24 25  1  0  0  0
M  CHG 1   8   1
M  CHG 1   9  -1
M  END
> <minimizedAffinity>
-8.08960

$$$$
4DLD_TZG_A_301


 25 25  0  0  0  0  0  0  0  0999 V2000
   -1.7470   36.8397  102.1764 C   0  0  0  0  0  0  0  0  0  0  0  0
   -1.0153   37.9814  101.8915 C   0  0  0  0  0  0  0  0  0  0  0  0
    0.3543   37.9775  102.1244 C   0  0  0  0  0  0  0  0  0  0  0  0
   -1.1271   35.6998  102.6763 C   0  0  0  0  0  0  0  0  0  0  0  0
   -1.8394   39.3689  101.2542 Cl  0  0  0  0  0  0  0  0  0  0  0  0
    0.9682   36.8440  102.6286 C   0  0  0  0  0  0  0  0  0  0  0  0
    0.2453   35.6914  102.9040 C   0  0  0  0  0  0  0  0  0  0  0  0
    1.1260   39.0399  101.8739 N   0  0  0  0  0  0  0  0  0  0  0  0
    2.2376   38.8989  100.9999 O   0  0  0  0  0  0  0  0  0  0  0  0
    0.8847   40.2831  102.4880 O   0  0  0  0  0  0  0  0  0  0  0  0
   -2.0135   34.4955  102.9446 C   0  0  0  0  0  0  0  0  0  0  0  0
   -2.7641   34.6944  104.2845 C   0  0  0  0  0  0  0  0  0  0  0  0
   -2.0011   34.0645  105.3678 N   0  0  0  0  0  0  0  0  0  0  0  0
   -1.8833   33.0713  105.1677 H   0  0  0  0  0  0  0  0  0  0  0  0
   -2.5043   34.1767  106.2479 H   0  0  0  0  0  0  0  0  0  0  0  0
   -4.3443   33.0914  105.0193 O   0  0  0  0  0  0  0  0  0  0  0  0
   -4.0995   33.9779  104.1725 C   0  0  0  0  0  0  0  0  0  0  0  0
   -4.8628   34.3797  103.2759 O   0  0  0  0  0  0  0  0  0  0  0  0
   -4.5817   35.0533  102.6883 H   0  0  0  0  0  0  0  0  0  0  0  0
    1.0059   34.4818  103.4808 C   0  0  0  0  0  0  0  0  0  0  0  0
    2.0054   33.8519  102.5028 C   0  0  0  0  0  0  0  0  0  0  0  0
    3.1714   33.2097  103.2676 C   0  0  0  0  0  0  0  0  0  0  0  0
    3.0085   32.9865  104.4841 O   0  0  0  0  0  0  0  0  0  0  0  0
    4.2039   32.9628  102.6190 O   0  0  0  0  0  0  0  0  0  0  0  0
    4.2419   33.1633  101.7045 H   0  0  0  0  0  0  0  0  0  0  0  0
  8  3  1  0  0  0
  8  9  1  0  0  0
  8 10  2  0  0  0
  1  2  2  0  0  0
  1  4  1  0  0  0
  2  3  1  0  0  0
  2  5  1  0  0  0
  3  6  2  0  0  0
 11 12  1  0  0  0
 11  4  1  0  0  0
 12 17  1  0  0  0
 12 13  1  0  0  0
 21 20  1  0  0  0
 21 22  1  0  0  0
 16 17  2  0  0  0
 17 18  1  0  0  0
  4  7  2  0  0  0
  6  7  1  0  0  0
  7 20  1  0  0  0
 22 23  2  0  0  0
 22 24  1  0  0  0
 18 19  1  0  0  0
 13 14  1  0  0  0
 13 15  1  0  0  0
 24 25  1  0  0  0
M  CHG 1   8   1
M  CHG 1   9  -1
M  END
> <minimizedAffinity>
-7.99613

$$$$
4DLD_TZG_A_301


 25 25  0  0  0  0  0  0  0  0999 V2000
   -1.9423   36.2072   99.9471 C   0  0  0  0  0  0  0  0  0  0  0  0
   -3.2985   36.0187   99.7341 C   0  0  0  0  0  0  0  0  0  0  0  0
   -4.0774   35.5133  100.7676 C   0  0  0  0  0  0  0  0  0  0  0  0
   -1.3637   35.9094  101.1760 C   0  0  0  0  0  0  0  0  0  0  0  0
   -3.9689   36.4229   98.1857 Cl  0  0  0  0  0  0  0  0  0  0  0  0
   -3.4980   35.2111  101.9879 C   0  0  0  0  0  0  0  0  0  0  0  0
   -2.1429   35.4096  102.2145 C   0  0  0  0  0  0  0  0  0  0  0  0
   -5.3914   35.3051  100.6378 N   0  0  0  0  0  0  0  0  0  0  0  0
   -6.2756   35.8177  101.6251 O   0  0  0  0  0  0  0  0  0  0  0  0
   -5.9131   34.5559   99.5668 O   0  0  0  0  0  0  0  0  0  0  0  0
    0.1279   36.1627  101.3141 C   0  0  0  0  0  0  0  0  0  0  0  0
    0.3696   37.6542  101.6539 C   0  0  0  0  0  0  0  0  0  0  0  0
    1.3513   38.2134  100.7180 N   0  0  0  0  0  0  0  0  0  0  0  0
    2.2219   37.6860  100.7830 H   0  0  0  0  0  0  0  0  0  0  0  0
    1.5272   39.1902  100.9532 H   0  0  0  0  0  0  0  0  0  0  0  0
    0.9490   38.8232  103.6298 O   0  0  0  0  0  0  0  0  0  0  0  0
    0.9647   37.7153  103.0508 C   0  0  0  0  0  0  0  0  0  0  0  0
    1.3658   36.6362  103.5227 O   0  0  0  0  0  0  0  0  0  0  0  0
    1.3348   35.8572  103.0029 H   0  0  0  0  0  0  0  0  0  0  0  0
   -1.5778   35.0284  103.5964 C   0  0  0  0  0  0  0  0  0  0  0  0
   -1.1646   33.5561  103.7144 C   0  0  0  0  0  0  0  0  0  0  0  0
    0.3482   33.4054  103.5005 C   0  0  0  0  0  0  0  0  0  0  0  0
    0.7326   32.9626  102.3994 O   0  0  0  0  0  0  0  0  0  0  0  0
    1.0872   33.7300  104.4471 O   0  0  0  0  0  0  0  0  0  0  0  0
    0.7139   34.0549  105.2428 H   0  0  0  0  0  0  0  0  0  0  0  0
  8  3  1  0  0  0
  8  9  1  0  0  0
  8 10  2  0  0  0
  1  2  2  0  0  0
  1  4  1  0  0  0
  2  3  1  0  0  0
  2  5  1  0  0  0
  3  6  2  0  0  0
 11 12  1  0  0  0
 11  4  1  0  0  0
 12 17  1  0  0  0
 12 13  1  0  0  0
 21 20  1  0  0  0
 21 22  1  0  0  0
 16 17  2  0  0  0
 17 18  1  0  0  0
  4  7  2  0  0  0
  6  7  1  0  0  0
  7 20  1  0  0  0
 22 23  2  0  0  0
 22 24  1  0  0  0
 18 19  1  0  0  0
 13 14  1  0  0  0
 13 15  1  0  0  0
 24 25  1  0  0  0
M  CHG 1   8   1
M  CHG 1   9  -1
M  END
> <minimizedAffinity>
-7.90531

$$$$
4DLD_TZG_A_301


 25 25  0  0  0  0  0  0  0  0999 V2000
   -1.7340   34.8163  103.4445 C   0  0  0  0  0  0  0  0  0  0  0  0
   -3.0539   34.7098  103.0361 C   0  0  0  0  0  0  0  0  0  0  0  0
   -3.4689   35.4146  101.9131 C   0  0  0  0  0  0  0  0  0  0  0  0
   -0.8296   35.6041  102.7411 C   0  0  0  0  0  0  0  0  0  0  0  0
   -4.1340   33.6992  103.9431 Cl  0  0  0  0  0  0  0  0  0  0  0  0
   -2.5686   36.2037  101.2184 C   0  0  0  0  0  0  0  0  0  0  0  0
   -1.2414   36.3055  101.6124 C   0  0  0  0  0  0  0  0  0  0  0  0
   -4.7248   35.3615  101.4583 N   0  0  0  0  0  0  0  0  0  0  0  0
   -4.9523   35.1224  100.0761 O   0  0  0  0  0  0  0  0  0  0  0  0
   -5.8236   35.5766  102.3111 O   0  0  0  0  0  0  0  0  0  0  0  0
    0.5973   35.6457  103.2611 C   0  0  0  0  0  0  0  0  0  0  0  0
    1.2902   34.2899  102.9780 C   0  0  0  0  0  0  0  0  0  0  0  0
    1.6101   33.6320  104.2497 N   0  0  0  0  0  0  0  0  0  0  0  0
    2.2186   34.2366  104.8016 H   0  0  0  0  0  0  0  0  0  0  0  0
    2.0851   32.7484  104.0653 H   0  0  0  0  0  0  0  0  0  0  0  0
    2.6872   35.6808  101.6663 O   0  0  0  0  0  0  0  0  0  0  0  0
    2.5967   34.5842  102.2598 C   0  0  0  0  0  0  0  0  0  0  0  0
    3.4902   33.7262  102.3754 O   0  0  0  0  0  0  0  0  0  0  0  0
    3.3198   32.9324  102.8430 H   0  0  0  0  0  0  0  0  0  0  0  0
   -0.3123   37.2213  100.7923 C   0  0  0  0  0  0  0  0  0  0  0  0
   -0.1930   38.6452  101.3494 C   0  0  0  0  0  0  0  0  0  0  0  0
    1.1626   38.8371  102.0440 C   0  0  0  0  0  0  0  0  0  0  0  0
    1.1515   39.1908  103.2402 O   0  0  0  0  0  0  0  0  0  0  0  0
    2.1812   38.6325  101.3598 O   0  0  0  0  0  0  0  0  0  0  0  0
    2.0991   38.3680  100.4647 H   0  0  0  0  0  0  0  0  0  0  0  0
  8  3  1  0  0  0
  8  9  1  0  0  0
  8 10  2  0  0  0
  1  2  2  0  0  0
  1  4  1  0  0  0
  2  3  1  0  0  0
  2  5  1  0  0  0
  3  6  2  0  0  0
 11 12  1  0  0  0
 11  4  1  0  0  0
 12 17  1  0  0  0
 12 13  1  0  0  0
 21 20  1  0  0  0
 21 22  1  0  0  0
 16 17  2  0  0  0
 17 18  1  0  0  0
  4  7  2  0  0  0
  6  7  1  0  0  0
  7 20  1  0  0  0
 22 23  2  0  0  0
 22 24  1  0  0  0
 18 19  1  0  0  0
 13 14  1  0  0  0
 13 15  1  0  0  0
 24 25  1  0  0  0
M  CHG 1   8   1
M  CHG 1   9  -1
M  END
> <minimizedAffinity>
-7.81885

$$$$
4DLD_TZG_A_301


 25 25  0  0  0  0  0  0  0  0999 V2000
    1.3040   36.8097  101.6045 C   0  0  0  0  0  0  0  0  0  0  0  0
    0.8351   38.1089  101.4938 C   0  0  0  0  0  0  0  0  0  0  0  0
   -0.5280   38.3449  101.6219 C   0  0  0  0  0  0  0  0  0  0  0  0
    0.4330   35.7543  101.8515 C   0  0  0  0  0  0  0  0  0  0  0  0
    1.9700   39.3884  101.2013 Cl  0  0  0  0  0  0  0  0  0  0  0  0
   -1.3940   37.2918  101.8609 C   0  0  0  0  0  0  0  0  0  0  0  0
   -0.9316   35.9890  101.9867 C   0  0  0  0  0  0  0  0  0  0  0  0
   -1.0543   39.5700  101.5280 N   0  0  0  0  0  0  0  0  0  0  0  0
   -2.4672   39.7211  101.5469 O   0  0  0  0  0  0  0  0  0  0  0  0
   -0.2410   40.7078  101.3710 O   0  0  0  0  0  0  0  0  0  0  0  0
    1.0456   34.3689  101.9685 C   0  0  0  0  0  0  0  0  0  0  0  0
    2.3272   34.4420  102.8349 C   0  0  0  0  0  0  0  0  0  0  0  0
    3.4660   33.9323  102.0631 N   0  0  0  0  0  0  0  0  0  0  0  0
    3.2807   32.9704  101.7787 H   0  0  0  0  0  0  0  0  0  0  0  0
    4.3071   33.9605  102.6393 H   0  0  0  0  0  0  0  0  0  0  0  0
    0.9474   33.2212  104.3223 O   0  0  0  0  0  0  0  0  0  0  0  0
    2.1240   33.5278  104.0316 C   0  0  0  0  0  0  0  0  0  0  0  0
    3.1580   33.1143  104.5863 O   0  0  0  0  0  0  0  0  0  0  0  0
    3.9975   33.4073  104.2908 H   0  0  0  0  0  0  0  0  0  0  0  0
   -1.9674   34.8752  102.2336 C   0  0  0  0  0  0  0  0  0  0  0  0
   -3.0467   35.2460  103.2583 C   0  0  0  0  0  0  0  0  0  0  0  0
   -2.8819   34.4111  104.5361 C   0  0  0  0  0  0  0  0  0  0  0  0
   -3.9008   33.8602  104.9992 O   0  0  0  0  0  0  0  0  0  0  0  0
   -1.7400   34.3484  105.0259 O   0  0  0  0  0  0  0  0  0  0  0  0
   -1.0275   34.7943  104.6119 H   0  0  0  0  0  0  0  0  0  0  0  0
  8  3  1  0  0  0
  8  9  1  0  0  0
  8 10  2  0  0  0
  1  2  2  0  0  0
  1  4  1  0  0  0
  2  3  1  0  0  0
  2  5  1  0  0  0
  3  6  2  0  0  0
 11 12  1  0  0  0
 11  4  1  0  0  0
 12 17  1  0  0  0
 12 13  1  0  0  0
 21 20  1  0  0  0
 21 22  1  0  0  0
 16 17  2  0  0  0
 17 18  1  0  0  0
  4  7  2  0  0  0
  6  7  1  0  0  0
  7 20  1  0  0  0
 22 23  2  0  0  0
 22 24  1  0  0  0
 18 19  1  0  0  0
 13 14  1  0  0  0
 13 15  1  0  0  0
 24 25  1  0  0  0
M  CHG 1   8   1
M  CHG 1   9  -1
M  END
> <minimizedAffinity>
-7.78107

$$$$
4DLD_TZG_A_301


 25 25  0  0  0  0  0  0  0  0999 V2000
    0.4932   33.4888  103.2051 C   0  0  0  0  0  0  0  0  0  0  0  0
    1.8231   33.8051  102.9786 C   0  0  0  0  0  0  0  0  0  0  0  0
    2.1274   34.8711  102.1413 C   0  0  0  0  0  0  0  0  0  0  0  0
   -0.5273   34.2283  102.6175 C   0  0  0  0  0  0  0  0  0  0  0  0
    3.0542   32.8575  103.7513 Cl  0  0  0  0  0  0  0  0  0  0  0  0
    1.1100   35.6016  101.5520 C   0  0  0  0  0  0  0  0  0  0  0  0
   -0.2251   35.3005  101.7841 C   0  0  0  0  0  0  0  0  0  0  0  0
    3.3855   35.2364  101.8758 N   0  0  0  0  0  0  0  0  0  0  0  0
    3.7568   36.6005  102.0202 O   0  0  0  0  0  0  0  0  0  0  0  0
    4.3383   34.3069  101.4186 O   0  0  0  0  0  0  0  0  0  0  0  0
   -1.9525   33.8107  102.9376 C   0  0  0  0  0  0  0  0  0  0  0  0
   -2.4698   34.6245  104.1495 C   0  0  0  0  0  0  0  0  0  0  0  0
   -1.7798   34.1788  105.3651 N   0  0  0  0  0  0  0  0  0  0  0  0
   -1.9475   33.1825  105.5053 H   0  0  0  0  0  0  0  0  0  0  0  0
   -2.1341   34.6994  106.1674 H   0  0  0  0  0  0  0  0  0  0  0  0
   -4.6890   34.5446  103.3280 O   0  0  0  0  0  0  0  0  0  0  0  0
   -3.9493   34.3173  104.3099 C   0  0  0  0  0  0  0  0  0  0  0  0
   -4.2884   33.8078  105.3931 O   0  0  0  0  0  0  0  0  0  0  0  0
   -3.6530   33.6794  106.0697 H   0  0  0  0  0  0  0  0  0  0  0  0
   -1.2927   36.1537  101.0723 C   0  0  0  0  0  0  0  0  0  0  0  0
   -1.8465   35.5158   99.7922 C   0  0  0  0  0  0  0  0  0  0  0  0
   -3.3540   35.7798   99.6708 C   0  0  0  0  0  0  0  0  0  0  0  0
   -3.7808   36.1841   98.5706 O   0  0  0  0  0  0  0  0  0  0  0  0
   -4.0458   35.5779  100.6849 O   0  0  0  0  0  0  0  0  0  0  0  0
   -3.6428   35.2727  101.4738 H   0  0  0  0  0  0  0  0  0  0  0  0
  8  3  1  0  0  0
  8  9  1  0  0  0
  8 10  2  0  0  0
  1  2  2  0  0  0
  1  4  1  0  0  0
  2  3  1  0  0  0
  2  5  1  0  0  0
  3  6  2  0  0  0
 11 12  1  0  0  0
 11  4  1  0  0  0
 12 17  1  0  0  0
 12 13  1  0  0  0
 21 20  1  0  0  0
 21 22  1  0  0  0
 16 17  2  0  0  0
 17 18  1  0  0  0
  4  7  2  0  0  0
  6  7  1  0  0  0
  7 20  1  0  0  0
 22 23  2  0  0  0
 22 24  1  0  0  0
 18 19  1  0  0  0
 13 14  1  0  0  0
 13 15  1  0  0  0
 24 25  1  0  0  0
M  CHG 1   8   1
M  CHG 1   9  -1
M  END
> <minimizedAffinity>
-7.72799

$$$$
4DLD_TZG_A_301


 25 25  0  0  0  0  0  0  0  0999 V2000
   -0.6641   37.4971  101.4873 C   0  0  0  0  0  0  0  0  0  0  0  0
    0.6961   37.4828  101.7516 C   0  0  0  0  0  0  0  0  0  0  0  0
    1.2365   36.4013  102.4360 C   0  0  0  0  0  0  0  0  0  0  0  0
   -1.4807   36.4447  101.8863 C   0  0  0  0  0  0  0  0  0  0  0  0
    1.6690   38.8158  101.2158 Cl  0  0  0  0  0  0  0  0  0  0  0  0
    0.4206   35.3580  102.8382 C   0  0  0  0  0  0  0  0  0  0  0  0
   -0.9406   35.3575  102.5657 C   0  0  0  0  0  0  0  0  0  0  0  0
    2.5385   36.3162  102.7266 N   0  0  0  0  0  0  0  0  0  0  0  0
    3.0385   36.9902  103.8734 O   0  0  0  0  0  0  0  0  0  0  0  0
    3.4299   35.6074  101.8997 O   0  0  0  0  0  0  0  0  0  0  0  0
   -2.9560   36.5479  101.5386 C   0  0  0  0  0  0  0  0  0  0  0  0
   -3.2843   35.5704  100.3832 C   0  0  0  0  0  0  0  0  0  0  0  0
   -2.8860   36.1743   99.1069 N   0  0  0  0  0  0  0  0  0  0  0  0
   -3.3802   37.0574   98.9797 H   0  0  0  0  0  0  0  0  0  0  0  0
   -3.1205   35.5403   98.3429 H   0  0  0  0  0  0  0  0  0  0  0  0
   -5.2815   34.8277   99.3505 O   0  0  0  0  0  0  0  0  0  0  0  0
   -4.7914   35.3768  100.3611 C   0  0  0  0  0  0  0  0  0  0  0  0
   -5.4040   35.7319  101.3841 O   0  0  0  0  0  0  0  0  0  0  0  0
   -4.9409   36.1375  102.0904 H   0  0  0  0  0  0  0  0  0  0  0  0
   -1.7774   34.1646  103.0667 C   0  0  0  0  0  0  0  0  0  0  0  0
   -2.4957   34.4241  104.3967 C   0  0  0  0  0  0  0  0  0  0  0  0
   -3.9006   33.8052  104.3767 C   0  0  0  0  0  0  0  0  0  0  0  0
   -4.7804   34.3956  103.7183 O   0  0  0  0  0  0  0  0  0  0  0  0
   -4.0651   32.7577  105.0273 O   0  0  0  0  0  0  0  0  0  0  0  0
   -3.3471   32.3792  105.4955 H   0  0  0  0  0  0  0  0  0  0  0  0
  8  3  1  0  0  0
  8  9  1  0  0  0
  8 10  2  0  0  0
  1  2  2  0  0  0
  1  4  1  0  0  0
  2  3  1  0  0  0
  2  5  1  0  0  0
  3  6  2  0  0  0
 11 12  1  0  0  0
 11  4  1  0  0  0
 12 17  1  0  0  0
 12 13  1  0  0  0
 21 20  1  0  0  0
 21 22  1  0  0  0
 16 17  2  0  0  0
 17 18  1  0  0  0
  4  7  2  0  0  0
  6  7  1  0  0  0
  7 20  1  0  0  0
 22 23  2  0  0  0
 22 24  1  0  0  0
 18 19  1  0  0  0
 13 14  1  0  0  0
 13 15  1  0  0  0
 24 25  1  0  0  0
M  CHG 1   8   1
M  CHG 1   9  -1
M  END
> <minimizedAffinity>
-7.65896

$$$$
