3Q44_D50_A_1086


 35 36  0  0  0  0  0  0  0  0999 V2000
   11.1401   12.2640   12.2622 N   0  0  0  0  0  0  0  0  0  0  0  0
   12.4566   11.6729   12.6431 C   0  0  0  0  0  0  0  0  0  0  0  0
   10.7654   11.7672   11.4540 H   0  0  0  0  0  0  0  0  0  0  0  0
   11.2645   13.2489   12.0281 H   0  0  0  0  0  0  0  0  0  0  0  0
   12.8296   12.2486   10.2693 O   0  0  0  0  0  0  0  0  0  0  0  0
   13.4676   11.9153   11.5340 C   0  0  0  0  0  0  0  0  0  0  0  0
   13.5093   12.3944    9.5928 H   0  0  0  0  0  0  0  0  0  0  0  0
   15.1309   10.6745   10.3453 N   0  0  0  0  0  0  0  0  0  0  0  0
   14.3826    9.7111   12.1804 O   0  0  0  0  0  0  0  0  0  0  0  0
   14.3359   10.6618   11.3770 C   0  0  0  0  0  0  0  0  0  0  0  0
   15.0613   11.3875    9.6699 H   0  0  0  0  0  0  0  0  0  0  0  0
   16.1197    9.6233   10.2061 C   0  0  0  0  0  0  0  0  0  0  0  0
   18.1697    9.4832   11.4018 O   0  0  0  0  0  0  0  0  0  0  0  0
   17.9174   11.2406   10.0728 O   0  0  0  0  0  0  0  0  0  0  0  0
   17.4797   10.1144   10.5998 C   0  0  0  0  0  0  0  0  0  0  0  0
   17.8475    8.6839   11.7696 H   0  0  0  0  0  0  0  0  0  0  0  0
   16.1075    9.0468    8.8195 C   0  0  0  0  0  0  0  0  0  0  0  0
   16.2272    6.9979    7.5250 C   0  0  0  0  0  0  0  0  0  0  0  0
   15.7134    7.5728    8.8173 C   0  0  0  0  0  0  0  0  0  0  0  0
   16.2879    6.7914   10.0114 C   0  0  0  0  0  0  0  0  0  0  0  0
   12.9929   12.4222   13.8401 C   0  0  0  0  0  0  0  0  0  0  0  0
   12.7551   11.7792   15.1796 C   0  0  0  0  0  0  0  0  0  0  0  0
   11.9105   12.3683   16.1348 C   0  0  0  0  0  0  0  0  0  0  0  0
   11.6742   11.7256   17.3457 C   0  0  0  0  0  0  0  0  0  0  0  0
   12.2554   10.5051   17.6072 C   0  0  0  0  0  0  0  0  0  0  0  0
   13.0744    9.9210   16.6513 C   0  0  0  0  0  0  0  0  0  0  0  0
   13.3338   10.5436   15.4227 C   0  0  0  0  0  0  0  0  0  0  0  0
   11.9867    9.8667   18.8154 O   0  0  0  0  0  0  0  0  0  0  0  0
   12.7923    9.9117   19.9888 C   0  0  0  0  0  0  0  0  0  0  0  0
   13.4942    8.5776   20.0828 C   0  0  0  0  0  0  0  0  0  0  0  0
   14.7833    8.4890   20.6177 C   0  0  0  0  0  0  0  0  0  0  0  0
   15.4255    7.2538   20.6990 C   0  0  0  0  0  0  0  0  0  0  0  0
   14.7809    6.1052   20.2408 C   0  0  0  0  0  0  0  0  0  0  0  0
   13.4928    6.1709   19.6943 C   0  0  0  0  0  0  0  0  0  0  0  0
   12.8573    7.4207   19.6244 C   0  0  0  0  0  0  0  0  0  0  0  0
 18 19  1  0  0  0
  8 12  1  0  0  0
  8 10  1  0  0  0
 10  9  2  0  0  0
 19 20  1  0  0  0
 19 17  1  0  0  0
  1  2  1  0  0  0
  5  6  1  0  0  0
 25 28  1  0  0  0
 28 29  1  0  0  0
 17 12  1  0  0  0
 15 13  1  0  0  0
 12 15  1  0  0  0
 15 14  2  0  0  0
 10  6  1  0  0  0
  6  2  1  0  0  0
  2 21  1  0  0  0
 21 22  1  0  0  0
 22 23  2  0  0  0
 22 27  1  0  0  0
 23 24  1  0  0  0
 24 25  2  0  0  0
 26 25  1  0  0  0
 29 30  1  0  0  0
 35 30  2  0  0  0
 30 31  1  0  0  0
 31 32  2  0  0  0
 33 32  1  0  0  0
 34 33  2  0  0  0
 35 34  1  0  0  0
 27 26  2  0  0  0
  8 11  1  0  0  0
  1  3  1  0  0  0
  1  4  1  0  0  0
  5  7  1  0  0  0
 13 16  1  0  0  0
M  END
> <minimizedAffinity>
-10.27851

$$$$
3Q44_D50_A_1086


 35 36  0  0  0  0  0  0  0  0999 V2000
   11.2953   12.2771   12.3392 N   0  0  0  0  0  0  0  0  0  0  0  0
   12.6098   11.6427   12.6509 C   0  0  0  0  0  0  0  0  0  0  0  0
   10.8733   11.8087   11.5374 H   0  0  0  0  0  0  0  0  0  0  0  0
   11.4370   13.2633   12.1210 H   0  0  0  0  0  0  0  0  0  0  0  0
   12.8950   12.1969   10.2598 O   0  0  0  0  0  0  0  0  0  0  0  0
   13.5795   11.8827   11.5049 C   0  0  0  0  0  0  0  0  0  0  0  0
   13.5494   12.3418    9.5587 H   0  0  0  0  0  0  0  0  0  0  0  0
   15.1745   10.6220   10.2457 N   0  0  0  0  0  0  0  0  0  0  0  0
   14.5706    9.7146   12.1608 O   0  0  0  0  0  0  0  0  0  0  0  0
   14.4537   10.6356   11.3305 C   0  0  0  0  0  0  0  0  0  0  0  0
   15.0472   11.3096    9.5528 H   0  0  0  0  0  0  0  0  0  0  0  0
   16.1671    9.5792   10.0738 C   0  0  0  0  0  0  0  0  0  0  0  0
   17.8792   11.2240   10.1971 O   0  0  0  0  0  0  0  0  0  0  0  0
   18.3484    9.2399   11.0698 O   0  0  0  0  0  0  0  0  0  0  0  0
   17.5300   10.0713   10.4560 C   0  0  0  0  0  0  0  0  0  0  0  0
   17.2883   11.8056    9.7605 H   0  0  0  0  0  0  0  0  0  0  0  0
   16.1378    9.0269    8.6775 C   0  0  0  0  0  0  0  0  0  0  0  0
   16.9258    6.9523    7.6962 C   0  0  0  0  0  0  0  0  0  0  0  0
   15.9223    7.5164    8.6653 C   0  0  0  0  0  0  0  0  0  0  0  0
   16.0993    6.8691   10.0496 C   0  0  0  0  0  0  0  0  0  0  0  0
   13.2167   12.3503   13.8395 C   0  0  0  0  0  0  0  0  0  0  0  0
   12.8870   11.7715   15.1887 C   0  0  0  0  0  0  0  0  0  0  0  0
   12.0005   12.4178   16.0658 C   0  0  0  0  0  0  0  0  0  0  0  0
   11.6799   11.8335   17.2869 C   0  0  0  0  0  0  0  0  0  0  0  0
   12.2187   10.6151   17.6345 C   0  0  0  0  0  0  0  0  0  0  0  0
   13.0798    9.9743   16.7551 C   0  0  0  0  0  0  0  0  0  0  0  0
   13.4241   10.5372   15.5186 C   0  0  0  0  0  0  0  0  0  0  0  0
   11.8661   10.0356   18.8509 O   0  0  0  0  0  0  0  0  0  0  0  0
   10.8736   10.5121   19.7542 C   0  0  0  0  0  0  0  0  0  0  0  0
   10.9418    9.6279   20.9769 C   0  0  0  0  0  0  0  0  0  0  0  0
   11.3412    8.2922   20.8666 C   0  0  0  0  0  0  0  0  0  0  0  0
   11.3994    7.4818   22.0000 C   0  0  0  0  0  0  0  0  0  0  0  0
   11.0534    8.0050   23.2456 C   0  0  0  0  0  0  0  0  0  0  0  0
   10.6432    9.3377   23.3789 C   0  0  0  0  0  0  0  0  0  0  0  0
   10.5951   10.1424   22.2297 C   0  0  0  0  0  0  0  0  0  0  0  0
 18 19  1  0  0  0
  8 12  1  0  0  0
  8 10  1  0  0  0
 10  9  2  0  0  0
 19 20  1  0  0  0
 19 17  1  0  0  0
  1  2  1  0  0  0
  5  6  1  0  0  0
 25 28  1  0  0  0
 28 29  1  0  0  0
 17 12  1  0  0  0
 15 13  1  0  0  0
 12 15  1  0  0  0
 15 14  2  0  0  0
 10  6  1  0  0  0
  6  2  1  0  0  0
  2 21  1  0  0  0
 21 22  1  0  0  0
 22 23  2  0  0  0
 22 27  1  0  0  0
 23 24  1  0  0  0
 24 25  2  0  0  0
 26 25  1  0  0  0
 29 30  1  0  0  0
 35 30  2  0  0  0
 30 31  1  0  0  0
 31 32  2  0  0  0
 33 32  1  0  0  0
 34 33  2  0  0  0
 35 34  1  0  0  0
 27 26  2  0  0  0
  8 11  1  0  0  0
  1  3  1  0  0  0
  1  4  1  0  0  0
  5  7  1  0  0  0
 13 16  1  0  0  0
M  END
> <minimizedAffinity>
-10.17256

$$$$
3Q44_D50_A_1086


 35 36  0  0  0  0  0  0  0  0999 V2000
   15.3086   10.0599   10.0413 N   0  0  0  0  0  0  0  0  0  0  0  0
   16.6311   10.5372   10.5420 C   0  0  0  0  0  0  0  0  0  0  0  0
   14.5736   10.6837   10.3747 H   0  0  0  0  0  0  0  0  0  0  0  0
   15.1352    9.1156   10.3857 H   0  0  0  0  0  0  0  0  0  0  0  0
   17.4453    9.2644   12.4972 O   0  0  0  0  0  0  0  0  0  0  0  0
   16.6784   10.4201   12.0570 C   0  0  0  0  0  0  0  0  0  0  0  0
   17.4490    9.2290   13.4666 H   0  0  0  0  0  0  0  0  0  0  0  0
   14.6567   11.4909   12.7536 N   0  0  0  0  0  0  0  0  0  0  0  0
   14.6063    9.2882   12.7911 O   0  0  0  0  0  0  0  0  0  0  0  0
   15.2431   10.3395   12.5895 C   0  0  0  0  0  0  0  0  0  0  0  0
   15.1651   12.3285   12.6583 H   0  0  0  0  0  0  0  0  0  0  0  0
   13.2439   11.5208   13.0786 C   0  0  0  0  0  0  0  0  0  0  0  0
   11.2972   12.4036   12.0381 O   0  0  0  0  0  0  0  0  0  0  0  0
   12.9594   11.8175   10.6920 O   0  0  0  0  0  0  0  0  0  0  0  0
   12.4325   11.9476   11.8932 C   0  0  0  0  0  0  0  0  0  0  0  0
   10.9336   12.4912   12.8972 H   0  0  0  0  0  0  0  0  0  0  0  0
   12.9818   12.3812   14.2812 C   0  0  0  0  0  0  0  0  0  0  0  0
   13.1702   10.4682   15.7619 C   0  0  0  0  0  0  0  0  0  0  0  0
   12.2671   11.6125   15.3886 C   0  0  0  0  0  0  0  0  0  0  0  0
   11.9646   12.4755   16.6256 C   0  0  0  0  0  0  0  0  0  0  0  0
   17.7038    9.6008   10.0376 C   0  0  0  0  0  0  0  0  0  0  0  0
   17.2462    8.5257    9.0896 C   0  0  0  0  0  0  0  0  0  0  0  0
   17.2431    8.7282    7.6996 C   0  0  0  0  0  0  0  0  0  0  0  0
   16.8586    7.6983    6.8471 C   0  0  0  0  0  0  0  0  0  0  0  0
   16.4929    6.4742    7.3605 C   0  0  0  0  0  0  0  0  0  0  0  0
   16.5156    6.2762    8.7338 C   0  0  0  0  0  0  0  0  0  0  0  0
   16.8961    7.2938    9.6192 C   0  0  0  0  0  0  0  0  0  0  0  0
   16.1346    5.4487    6.4889 O   0  0  0  0  0  0  0  0  0  0  0  0
   16.6953    4.1402    6.4526 C   0  0  0  0  0  0  0  0  0  0  0  0
   18.0664    4.2744    5.8333 C   0  0  0  0  0  0  0  0  0  0  0  0
   18.2271    4.2231    4.4450 C   0  0  0  0  0  0  0  0  0  0  0  0
   19.4967    4.3456    3.8810 C   0  0  0  0  0  0  0  0  0  0  0  0
   20.6087    4.5149    4.7054 C   0  0  0  0  0  0  0  0  0  0  0  0
   20.4727    4.5615    6.0987 C   0  0  0  0  0  0  0  0  0  0  0  0
   19.1876    4.4423    6.6511 C   0  0  0  0  0  0  0  0  0  0  0  0
 18 19  1  0  0  0
  8 12  1  0  0  0
  8 10  1  0  0  0
 10  9  2  0  0  0
 19 20  1  0  0  0
 19 17  1  0  0  0
  1  2  1  0  0  0
  5  6  1  0  0  0
 25 28  1  0  0  0
 28 29  1  0  0  0
 17 12  1  0  0  0
 15 13  1  0  0  0
 12 15  1  0  0  0
 15 14  2  0  0  0
 10  6  1  0  0  0
  6  2  1  0  0  0
  2 21  1  0  0  0
 21 22  1  0  0  0
 22 23  2  0  0  0
 22 27  1  0  0  0
 23 24  1  0  0  0
 24 25  2  0  0  0
 26 25  1  0  0  0
 29 30  1  0  0  0
 35 30  2  0  0  0
 30 31  1  0  0  0
 31 32  2  0  0  0
 33 32  1  0  0  0
 34 33  2  0  0  0
 35 34  1  0  0  0
 27 26  2  0  0  0
  8 11  1  0  0  0
  1  3  1  0  0  0
  1  4  1  0  0  0
  5  7  1  0  0  0
 13 16  1  0  0  0
M  END
> <minimizedAffinity>
-9.56042

$$$$
3Q44_D50_A_1086


 35 36  0  0  0  0  0  0  0  0999 V2000
   14.9877    8.6452   12.8615 N   0  0  0  0  0  0  0  0  0  0  0  0
   15.2044   10.0828   13.1991 C   0  0  0  0  0  0  0  0  0  0  0  0
   15.8898    8.1803   12.7590 H   0  0  0  0  0  0  0  0  0  0  0  0
   14.4682    8.5760   11.9864 H   0  0  0  0  0  0  0  0  0  0  0  0
   14.9306   11.5539   11.2328 O   0  0  0  0  0  0  0  0  0  0  0  0
   15.8756   10.7881   12.0316 C   0  0  0  0  0  0  0  0  0  0  0  0
   15.4002   11.9854   10.5019 H   0  0  0  0  0  0  0  0  0  0  0  0
   15.9358    9.4078   10.0796 N   0  0  0  0  0  0  0  0  0  0  0  0
   17.7114    9.2668   11.3769 O   0  0  0  0  0  0  0  0  0  0  0  0
   16.5795    9.7400   11.1621 C   0  0  0  0  0  0  0  0  0  0  0  0
   15.0162    9.7251    9.9281 H   0  0  0  0  0  0  0  0  0  0  0  0
   16.5935    8.5640    9.1010 C   0  0  0  0  0  0  0  0  0  0  0  0
   17.3131    8.7999    6.8476 O   0  0  0  0  0  0  0  0  0  0  0  0
   17.0397   10.6745    8.0004 O   0  0  0  0  0  0  0  0  0  0  0  0
   17.0063    9.3605    7.9008 C   0  0  0  0  0  0  0  0  0  0  0  0
   17.2854    7.8651    6.7891 H   0  0  0  0  0  0  0  0  0  0  0  0
   15.7330    7.3903    8.7306 C   0  0  0  0  0  0  0  0  0  0  0  0
   16.3181    5.8858   10.5423 C   0  0  0  0  0  0  0  0  0  0  0  0
   16.4110    6.0614    9.0507 C   0  0  0  0  0  0  0  0  0  0  0  0
   15.7636    4.8641    8.3338 C   0  0  0  0  0  0  0  0  0  0  0  0
   13.8579   10.7515   13.3462 C   0  0  0  0  0  0  0  0  0  0  0  0
   13.3190   10.8443   14.7480 C   0  0  0  0  0  0  0  0  0  0  0  0
   13.5338    9.8195   15.6842 C   0  0  0  0  0  0  0  0  0  0  0  0
   13.0627    9.9560   16.9860 C   0  0  0  0  0  0  0  0  0  0  0  0
   12.3967   11.0999   17.3653 C   0  0  0  0  0  0  0  0  0  0  0  0
   12.2040   12.1156   16.4396 C   0  0  0  0  0  0  0  0  0  0  0  0
   12.6645   12.0079   15.1203 C   0  0  0  0  0  0  0  0  0  0  0  0
   11.9544   11.2274   18.6797 O   0  0  0  0  0  0  0  0  0  0  0  0
   10.7022   10.7846   19.1934 C   0  0  0  0  0  0  0  0  0  0  0  0
   11.0110    9.7895   20.2870 C   0  0  0  0  0  0  0  0  0  0  0  0
   11.6028    8.5597   19.9822 C   0  0  0  0  0  0  0  0  0  0  0  0
   11.8827    7.6454   20.9973 C   0  0  0  0  0  0  0  0  0  0  0  0
   11.5666    7.9579   22.3191 C   0  0  0  0  0  0  0  0  0  0  0  0
   10.9665    9.1804   22.6471 C   0  0  0  0  0  0  0  0  0  0  0  0
   10.6961   10.0926   21.6148 C   0  0  0  0  0  0  0  0  0  0  0  0
 18 19  1  0  0  0
  8 12  1  0  0  0
  8 10  1  0  0  0
 10  9  2  0  0  0
 19 20  1  0  0  0
 19 17  1  0  0  0
  1  2  1  0  0  0
  5  6  1  0  0  0
 25 28  1  0  0  0
 28 29  1  0  0  0
 17 12  1  0  0  0
 15 13  1  0  0  0
 12 15  1  0  0  0
 15 14  2  0  0  0
 10  6  1  0  0  0
  6  2  1  0  0  0
  2 21  1  0  0  0
 21 22  1  0  0  0
 22 23  2  0  0  0
 22 27  1  0  0  0
 23 24  1  0  0  0
 24 25  2  0  0  0
 26 25  1  0  0  0
 29 30  1  0  0  0
 35 30  2  0  0  0
 30 31  1  0  0  0
 31 32  2  0  0  0
 33 32  1  0  0  0
 34 33  2  0  0  0
 35 34  1  0  0  0
 27 26  2  0  0  0
  8 11  1  0  0  0
  1  3  1  0  0  0
  1  4  1  0  0  0
  5  7  1  0  0  0
 13 16  1  0  0  0
M  END
> <minimizedAffinity>
-9.38461

$$$$
3Q44_D50_A_1086


 35 36  0  0  0  0  0  0  0  0999 V2000
   13.2394   10.6364   10.8876 N   0  0  0  0  0  0  0  0  0  0  0  0
   13.7963   10.5352   12.2686 C   0  0  0  0  0  0  0  0  0  0  0  0
   13.4565    9.7846   10.3702 H   0  0  0  0  0  0  0  0  0  0  0  0
   13.6536   11.4380   10.4119 H   0  0  0  0  0  0  0  0  0  0  0  0
   15.8619   11.5425   11.3607 O   0  0  0  0  0  0  0  0  0  0  0  0
   15.3147   10.4930   12.2073 C   0  0  0  0  0  0  0  0  0  0  0  0
   16.8297   11.4781   11.3507 H   0  0  0  0  0  0  0  0  0  0  0  0
   15.8357    9.0193   10.3974 N   0  0  0  0  0  0  0  0  0  0  0  0
   16.0824    8.1513   12.4077 O   0  0  0  0  0  0  0  0  0  0  0  0
   15.7485    9.1155   11.6934 C   0  0  0  0  0  0  0  0  0  0  0  0
   15.5168    9.7500    9.8197 H   0  0  0  0  0  0  0  0  0  0  0  0
   16.4093    7.8204    9.8179 C   0  0  0  0  0  0  0  0  0  0  0  0
   18.6219    7.4116   10.5852 O   0  0  0  0  0  0  0  0  0  0  0  0
   18.4239    8.6012    8.7241 O   0  0  0  0  0  0  0  0  0  0  0  0
   17.9013    7.9306    9.7314 C   0  0  0  0  0  0  0  0  0  0  0  0
   18.2385    6.9374   11.2966 H   0  0  0  0  0  0  0  0  0  0  0  0
   15.7882    7.5105    8.4862 C   0  0  0  0  0  0  0  0  0  0  0  0
   15.6908    5.0869    8.4204 C   0  0  0  0  0  0  0  0  0  0  0  0
   16.4087    6.2753    7.8402 C   0  0  0  0  0  0  0  0  0  0  0  0
   16.2897    6.2707    6.3065 C   0  0  0  0  0  0  0  0  0  0  0  0
   13.4641   11.8050   13.0164 C   0  0  0  0  0  0  0  0  0  0  0  0
   13.0778   11.6360   14.4608 C   0  0  0  0  0  0  0  0  0  0  0  0
   13.3226   10.4360   15.1486 C   0  0  0  0  0  0  0  0  0  0  0  0
   12.9962   10.3272   16.4965 C   0  0  0  0  0  0  0  0  0  0  0  0
   12.4453   11.3978   17.1644 C   0  0  0  0  0  0  0  0  0  0  0  0
   12.2229   12.5858   16.4827 C   0  0  0  0  0  0  0  0  0  0  0  0
   12.5388   12.7268   15.1244 C   0  0  0  0  0  0  0  0  0  0  0  0
   12.1482   11.2764   18.5196 O   0  0  0  0  0  0  0  0  0  0  0  0
   11.1706   10.4145   19.0934 C   0  0  0  0  0  0  0  0  0  0  0  0
   11.9256    9.3000   19.7785 C   0  0  0  0  0  0  0  0  0  0  0  0
   13.3168    9.3589   19.9078 C   0  0  0  0  0  0  0  0  0  0  0  0
   14.0068    8.3248   20.5398 C   0  0  0  0  0  0  0  0  0  0  0  0
   13.3065    7.2273   21.0396 C   0  0  0  0  0  0  0  0  0  0  0  0
   11.9138    7.1432   20.9147 C   0  0  0  0  0  0  0  0  0  0  0  0
   11.2329    8.1946   20.2810 C   0  0  0  0  0  0  0  0  0  0  0  0
 18 19  1  0  0  0
  8 12  1  0  0  0
  8 10  1  0  0  0
 10  9  2  0  0  0
 19 20  1  0  0  0
 19 17  1  0  0  0
  1  2  1  0  0  0
  5  6  1  0  0  0
 25 28  1  0  0  0
 28 29  1  0  0  0
 17 12  1  0  0  0
 15 13  1  0  0  0
 12 15  1  0  0  0
 15 14  2  0  0  0
 10  6  1  0  0  0
  6  2  1  0  0  0
  2 21  1  0  0  0
 21 22  1  0  0  0
 22 23  2  0  0  0
 22 27  1  0  0  0
 23 24  1  0  0  0
 24 25  2  0  0  0
 26 25  1  0  0  0
 29 30  1  0  0  0
 35 30  2  0  0  0
 30 31  1  0  0  0
 31 32  2  0  0  0
 33 32  1  0  0  0
 34 33  2  0  0  0
 35 34  1  0  0  0
 27 26  2  0  0  0
  8 11  1  0  0  0
  1  3  1  0  0  0
  1  4  1  0  0  0
  5  7  1  0  0  0
 13 16  1  0  0  0
M  END
> <minimizedAffinity>
-9.37106

$$$$
3Q44_D50_A_1086


 35 36  0  0  0  0  0  0  0  0999 V2000
   18.0240    9.1054   11.2532 N   0  0  0  0  0  0  0  0  0  0  0  0
   17.2658    9.9771   10.3083 C   0  0  0  0  0  0  0  0  0  0  0  0
   19.0052    9.3841   11.2600 H   0  0  0  0  0  0  0  0  0  0  0  0
   17.9488    8.1332   10.9538 H   0  0  0  0  0  0  0  0  0  0  0  0
   16.9912   10.5006    7.9091 O   0  0  0  0  0  0  0  0  0  0  0  0
   17.7493    9.7352    8.8874 C   0  0  0  0  0  0  0  0  0  0  0  0
   17.3322   10.3164    7.0199 H   0  0  0  0  0  0  0  0  0  0  0  0
   16.6719    7.9050    7.7881 N   0  0  0  0  0  0  0  0  0  0  0  0
   18.4552    7.3669    8.9655 O   0  0  0  0  0  0  0  0  0  0  0  0
   17.6499    8.2363    8.5821 C   0  0  0  0  0  0  0  0  0  0  0  0
   15.9930    8.5687    7.5280 H   0  0  0  0  0  0  0  0  0  0  0  0
   16.5980    6.5442    7.2930 C   0  0  0  0  0  0  0  0  0  0  0  0
   16.1226    7.5425    5.1885 O   0  0  0  0  0  0  0  0  0  0  0  0
   16.6772    5.3955    5.1625 O   0  0  0  0  0  0  0  0  0  0  0  0
   16.4518    6.5260    5.8017 C   0  0  0  0  0  0  0  0  0  0  0  0
   15.9651    8.3402    5.6542 H   0  0  0  0  0  0  0  0  0  0  0  0
   15.5032    5.7766    7.9767 C   0  0  0  0  0  0  0  0  0  0  0  0
   17.3597    4.2547    8.3304 C   0  0  0  0  0  0  0  0  0  0  0  0
   16.0553    4.7148    8.9231 C   0  0  0  0  0  0  0  0  0  0  0  0
   16.2766    5.2357   10.3536 C   0  0  0  0  0  0  0  0  0  0  0  0
   15.8175    9.5480   10.3135 C   0  0  0  0  0  0  0  0  0  0  0  0
   14.9464   10.1844   11.3625 C   0  0  0  0  0  0  0  0  0  0  0  0
   13.9284   11.0889   11.0186 C   0  0  0  0  0  0  0  0  0  0  0  0
   13.1096   11.6243   12.0076 C   0  0  0  0  0  0  0  0  0  0  0  0
   13.2846   11.2603   13.3239 C   0  0  0  0  0  0  0  0  0  0  0  0
   14.2809   10.3524   13.6537 C   0  0  0  0  0  0  0  0  0  0  0  0
   15.1234    9.7966   12.6812 C   0  0  0  0  0  0  0  0  0  0  0  0
   12.4388   11.7889   14.2958 O   0  0  0  0  0  0  0  0  0  0  0  0
   12.8387   12.4901   15.4690 C   0  0  0  0  0  0  0  0  0  0  0  0
   12.4785   11.6101   16.6426 C   0  0  0  0  0  0  0  0  0  0  0  0
   13.3050   10.5440   17.0114 C   0  0  0  0  0  0  0  0  0  0  0  0
   12.9642    9.7348   18.0948 C   0  0  0  0  0  0  0  0  0  0  0  0
   11.7933    9.9878   18.8086 C   0  0  0  0  0  0  0  0  0  0  0  0
   10.9463   11.0453   18.4527 C   0  0  0  0  0  0  0  0  0  0  0  0
   11.3058   11.8543   17.3632 C   0  0  0  0  0  0  0  0  0  0  0  0
 18 19  1  0  0  0
  8 12  1  0  0  0
  8 10  1  0  0  0
 10  9  2  0  0  0
 19 20  1  0  0  0
 19 17  1  0  0  0
  1  2  1  0  0  0
  5  6  1  0  0  0
 25 28  1  0  0  0
 28 29  1  0  0  0
 17 12  1  0  0  0
 15 13  1  0  0  0
 12 15  1  0  0  0
 15 14  2  0  0  0
 10  6  1  0  0  0
  6  2  1  0  0  0
  2 21  1  0  0  0
 21 22  1  0  0  0
 22 23  2  0  0  0
 22 27  1  0  0  0
 23 24  1  0  0  0
 24 25  2  0  0  0
 26 25  1  0  0  0
 29 30  1  0  0  0
 35 30  2  0  0  0
 30 31  1  0  0  0
 31 32  2  0  0  0
 33 32  1  0  0  0
 34 33  2  0  0  0
 35 34  1  0  0  0
 27 26  2  0  0  0
  8 11  1  0  0  0
  1  3  1  0  0  0
  1  4  1  0  0  0
  5  7  1  0  0  0
 13 16  1  0  0  0
M  END
> <minimizedAffinity>
-9.30900

$$$$
3Q44_D50_A_1086


 35 36  0  0  0  0  0  0  0  0999 V2000
   12.9876   13.0888   17.2172 N   0  0  0  0  0  0  0  0  0  0  0  0
   12.7509   11.6966   16.7340 C   0  0  0  0  0  0  0  0  0  0  0  0
   13.5386   13.0618   18.0752 H   0  0  0  0  0  0  0  0  0  0  0  0
   12.0923   13.5413   17.4021 H   0  0  0  0  0  0  0  0  0  0  0  0
   11.5860   11.7458   18.9126 O   0  0  0  0  0  0  0  0  0  0  0  0
   11.8815   10.9484   17.7318 C   0  0  0  0  0  0  0  0  0  0  0  0
   11.0313   11.2314   19.5197 H   0  0  0  0  0  0  0  0  0  0  0  0
   12.3809    9.2665   19.3568 N   0  0  0  0  0  0  0  0  0  0  0  0
   13.2721    8.9365   17.3687 O   0  0  0  0  0  0  0  0  0  0  0  0
   12.5952    9.6518   18.1312 C   0  0  0  0  0  0  0  0  0  0  0  0
   11.9011    9.8507   19.9875 H   0  0  0  0  0  0  0  0  0  0  0  0
   12.8595    7.9644   19.7787 C   0  0  0  0  0  0  0  0  0  0  0  0
   11.5588    6.0407   20.2876 O   0  0  0  0  0  0  0  0  0  0  0  0
   11.1200    7.8706   21.4610 O   0  0  0  0  0  0  0  0  0  0  0  0
   11.7973    7.2241   20.5332 C   0  0  0  0  0  0  0  0  0  0  0  0
   12.0472    5.5919   19.6257 H   0  0  0  0  0  0  0  0  0  0  0  0
   14.1324    8.0833   20.5667 C   0  0  0  0  0  0  0  0  0  0  0  0
   15.3346    6.0684   21.1853 C   0  0  0  0  0  0  0  0  0  0  0  0
   15.1921    7.0932   20.0927 C   0  0  0  0  0  0  0  0  0  0  0  0
   14.8275    6.4066   18.7652 C   0  0  0  0  0  0  0  0  0  0  0  0
   11.9344   11.7593   15.4646 C   0  0  0  0  0  0  0  0  0  0  0  0
   12.6777   11.4681   14.1892 C   0  0  0  0  0  0  0  0  0  0  0  0
   12.3162   12.0765   12.9759 C   0  0  0  0  0  0  0  0  0  0  0  0
   13.0525   11.8225   11.8233 C   0  0  0  0  0  0  0  0  0  0  0  0
   14.1449   10.9856   11.8695 C   0  0  0  0  0  0  0  0  0  0  0  0
   14.5066   10.4022   13.0755 C   0  0  0  0  0  0  0  0  0  0  0  0
   13.7844   10.6364   14.2537 C   0  0  0  0  0  0  0  0  0  0  0  0
   14.8833   10.7634   10.7098 O   0  0  0  0  0  0  0  0  0  0  0  0
   16.2705   10.4491   10.6421 C   0  0  0  0  0  0  0  0  0  0  0  0
   16.4486    9.5318    9.4554 C   0  0  0  0  0  0  0  0  0  0  0  0
   17.2589    9.9100    8.3802 C   0  0  0  0  0  0  0  0  0  0  0  0
   17.4165    9.0583    7.2872 C   0  0  0  0  0  0  0  0  0  0  0  0
   16.7597    7.8283    7.2657 C   0  0  0  0  0  0  0  0  0  0  0  0
   15.9370    7.4318    8.3279 C   0  0  0  0  0  0  0  0  0  0  0  0
   15.7929    8.2976    9.4234 C   0  0  0  0  0  0  0  0  0  0  0  0
 18 19  1  0  0  0
  8 12  1  0  0  0
  8 10  1  0  0  0
 10  9  2  0  0  0
 19 20  1  0  0  0
 19 17  1  0  0  0
  1  2  1  0  0  0
  5  6  1  0  0  0
 25 28  1  0  0  0
 28 29  1  0  0  0
 17 12  1  0  0  0
 15 13  1  0  0  0
 12 15  1  0  0  0
 15 14  2  0  0  0
 10  6  1  0  0  0
  6  2  1  0  0  0
  2 21  1  0  0  0
 21 22  1  0  0  0
 22 23  2  0  0  0
 22 27  1  0  0  0
 23 24  1  0  0  0
 24 25  2  0  0  0
 26 25  1  0  0  0
 29 30  1  0  0  0
 35 30  2  0  0  0
 30 31  1  0  0  0
 31 32  2  0  0  0
 33 32  1  0  0  0
 34 33  2  0  0  0
 35 34  1  0  0  0
 27 26  2  0  0  0
  8 11  1  0  0  0
  1  3  1  0  0  0
  1  4  1  0  0  0
  5  7  1  0  0  0
 13 16  1  0  0  0
M  END
> <minimizedAffinity>
-9.23647

$$$$
3Q44_D50_A_1086


 35 36  0  0  0  0  0  0  0  0999 V2000
   11.8815   11.4753   12.1220 N   0  0  0  0  0  0  0  0  0  0  0  0
   13.2224   11.1634   12.6985 C   0  0  0  0  0  0  0  0  0  0  0  0
   11.7166   10.8856   11.3062 H   0  0  0  0  0  0  0  0  0  0  0  0
   11.8507   12.4563   11.8443 H   0  0  0  0  0  0  0  0  0  0  0  0
   13.8353   11.5359   10.3339 O   0  0  0  0  0  0  0  0  0  0  0  0
   14.3091   11.5538   11.7097 C   0  0  0  0  0  0  0  0  0  0  0  0
   14.5584   11.7904    9.7396 H   0  0  0  0  0  0  0  0  0  0  0  0
   15.3638    9.4552   11.2597 N   0  0  0  0  0  0  0  0  0  0  0  0
   16.5557   10.8574   12.4717 O   0  0  0  0  0  0  0  0  0  0  0  0
   15.4937   10.5952   11.8762 C   0  0  0  0  0  0  0  0  0  0  0  0
   14.5085    9.2097   10.8386 H   0  0  0  0  0  0  0  0  0  0  0  0
   16.4975    8.5532   11.2027 C   0  0  0  0  0  0  0  0  0  0  0  0
   18.3835    8.7001    9.7628 O   0  0  0  0  0  0  0  0  0  0  0  0
   16.3982    8.5706    8.7831 O   0  0  0  0  0  0  0  0  0  0  0  0
   17.1586    8.6109    9.8591 C   0  0  0  0  0  0  0  0  0  0  0  0
   18.9133    8.7279   10.5352 H   0  0  0  0  0  0  0  0  0  0  0  0
   16.0974    7.1544   11.5750 C   0  0  0  0  0  0  0  0  0  0  0  0
   15.1639    5.6404   13.2256 C   0  0  0  0  0  0  0  0  0  0  0  0
   15.5631    7.0740   13.0019 C   0  0  0  0  0  0  0  0  0  0  0  0
   16.5927    7.5094   14.0587 C   0  0  0  0  0  0  0  0  0  0  0  0
   13.4461   12.0463   13.9036 C   0  0  0  0  0  0  0  0  0  0  0  0
   12.9603   11.5000   15.2188 C   0  0  0  0  0  0  0  0  0  0  0  0
   13.4510   10.2893   15.7348 C   0  0  0  0  0  0  0  0  0  0  0  0
   13.0165    9.8345   16.9755 C   0  0  0  0  0  0  0  0  0  0  0  0
   12.1153   10.5744   17.7078 C   0  0  0  0  0  0  0  0  0  0  0  0
   11.6486   11.7783   17.1994 C   0  0  0  0  0  0  0  0  0  0  0  0
   12.0653   12.2630   15.9521 C   0  0  0  0  0  0  0  0  0  0  0  0
   11.7114   10.1136   18.9585 O   0  0  0  0  0  0  0  0  0  0  0  0
   12.0391    8.8549   19.5382 C   0  0  0  0  0  0  0  0  0  0  0  0
   11.5092    8.8791   20.9524 C   0  0  0  0  0  0  0  0  0  0  0  0
   11.5893    7.7408   21.7608 C   0  0  0  0  0  0  0  0  0  0  0  0
   11.0957    7.7706   23.0648 C   0  0  0  0  0  0  0  0  0  0  0  0
   10.5166    8.9381   23.5609 C   0  0  0  0  0  0  0  0  0  0  0  0
   10.4186   10.0879   22.7669 C   0  0  0  0  0  0  0  0  0  0  0  0
   10.9250   10.0440   21.4584 C   0  0  0  0  0  0  0  0  0  0  0  0
 18 19  1  0  0  0
  8 12  1  0  0  0
  8 10  1  0  0  0
 10  9  2  0  0  0
 19 20  1  0  0  0
 19 17  1  0  0  0
  1  2  1  0  0  0
  5  6  1  0  0  0
 25 28  1  0  0  0
 28 29  1  0  0  0
 17 12  1  0  0  0
 15 13  1  0  0  0
 12 15  1  0  0  0
 15 14  2  0  0  0
 10  6  1  0  0  0
  6  2  1  0  0  0
  2 21  1  0  0  0
 21 22  1  0  0  0
 22 23  2  0  0  0
 22 27  1  0  0  0
 23 24  1  0  0  0
 24 25  2  0  0  0
 26 25  1  0  0  0
 29 30  1  0  0  0
 35 30  2  0  0  0
 30 31  1  0  0  0
 31 32  2  0  0  0
 33 32  1  0  0  0
 34 33  2  0  0  0
 35 34  1  0  0  0
 27 26  2  0  0  0
  8 11  1  0  0  0
  1  3  1  0  0  0
  1  4  1  0  0  0
  5  7  1  0  0  0
 13 16  1  0  0  0
M  END
> <minimizedAffinity>
-9.15289

$$$$
3Q44_D50_A_1086


 35 36  0  0  0  0  0  0  0  0999 V2000
   11.3519   11.3042   13.4869 N   0  0  0  0  0  0  0  0  0  0  0  0
   12.7124   11.9178   13.4824 C   0  0  0  0  0  0  0  0  0  0  0  0
   10.6649   11.9984   13.1927 H   0  0  0  0  0  0  0  0  0  0  0  0
   11.1275   10.9816   14.4282 H   0  0  0  0  0  0  0  0  0  0  0  0
   14.0973   13.6383   14.5904 O   0  0  0  0  0  0  0  0  0  0  0  0
   12.7859   13.0099   14.5374 C   0  0  0  0  0  0  0  0  0  0  0  0
   14.0988   14.3261   15.2743 H   0  0  0  0  0  0  0  0  0  0  0  0
   13.4077   12.3937   16.7628 N   0  0  0  0  0  0  0  0  0  0  0  0
   11.3016   12.0077   16.2421 O   0  0  0  0  0  0  0  0  0  0  0  0
   12.4322   12.4027   15.8998 C   0  0  0  0  0  0  0  0  0  0  0  0
   14.3195   12.6439   16.4887 H   0  0  0  0  0  0  0  0  0  0  0  0
   13.1309   12.0096   18.1333 C   0  0  0  0  0  0  0  0  0  0  0  0
   13.2765   13.3720   20.0761 O   0  0  0  0  0  0  0  0  0  0  0  0
   15.1220   13.1803   18.8614 O   0  0  0  0  0  0  0  0  0  0  0  0
   13.8545   12.9030   19.0945 C   0  0  0  0  0  0  0  0  0  0  0  0
   12.3753   13.1674   20.2311 H   0  0  0  0  0  0  0  0  0  0  0  0
   13.4455   10.5595   18.3646 C   0  0  0  0  0  0  0  0  0  0  0  0
   12.6122    8.7325   19.7269 C   0  0  0  0  0  0  0  0  0  0  0  0
   12.1960    9.7505   18.6998 C   0  0  0  0  0  0  0  0  0  0  0  0
   11.0446   10.6136   19.2439 C   0  0  0  0  0  0  0  0  0  0  0  0
   13.7130   10.8744   13.9205 C   0  0  0  0  0  0  0  0  0  0  0  0
   14.5437   10.2593   12.8270 C   0  0  0  0  0  0  0  0  0  0  0  0
   15.4430    9.2131   13.0913 C   0  0  0  0  0  0  0  0  0  0  0  0
   16.1623    8.6341   12.0508 C   0  0  0  0  0  0  0  0  0  0  0  0
   15.9862    9.0740   10.7581 C   0  0  0  0  0  0  0  0  0  0  0  0
   15.0828   10.0959   10.5025 C   0  0  0  0  0  0  0  0  0  0  0  0
   14.3445   10.7011   11.5287 C   0  0  0  0  0  0  0  0  0  0  0  0
   16.6978    8.4647    9.7275 O   0  0  0  0  0  0  0  0  0  0  0  0
   16.4322    8.5873    8.3338 C   0  0  0  0  0  0  0  0  0  0  0  0
   16.3444    7.1828    7.7852 C   0  0  0  0  0  0  0  0  0  0  0  0
   16.0423    6.1084    8.6280 C   0  0  0  0  0  0  0  0  0  0  0  0
   15.9652    4.8142    8.1141 C   0  0  0  0  0  0  0  0  0  0  0  0
   16.1949    4.5919    6.7567 C   0  0  0  0  0  0  0  0  0  0  0  0
   16.5064    5.6515    5.8952 C   0  0  0  0  0  0  0  0  0  0  0  0
   16.5749    6.9492    6.4264 C   0  0  0  0  0  0  0  0  0  0  0  0
 18 19  1  0  0  0
  8 12  1  0  0  0
  8 10  1  0  0  0
 10  9  2  0  0  0
 19 20  1  0  0  0
 19 17  1  0  0  0
  1  2  1  0  0  0
  5  6  1  0  0  0
 25 28  1  0  0  0
 28 29  1  0  0  0
 17 12  1  0  0  0
 15 13  1  0  0  0
 12 15  1  0  0  0
 15 14  2  0  0  0
 10  6  1  0  0  0
  6  2  1  0  0  0
  2 21  1  0  0  0
 21 22  1  0  0  0
 22 23  2  0  0  0
 22 27  1  0  0  0
 23 24  1  0  0  0
 24 25  2  0  0  0
 26 25  1  0  0  0
 29 30  1  0  0  0
 35 30  2  0  0  0
 30 31  1  0  0  0
 31 32  2  0  0  0
 33 32  1  0  0  0
 34 33  2  0  0  0
 35 34  1  0  0  0
 27 26  2  0  0  0
  8 11  1  0  0  0
  1  3  1  0  0  0
  1  4  1  0  0  0
  5  7  1  0  0  0
 13 16  1  0  0  0
M  END
> <minimizedAffinity>
-9.14117

$$$$
3Q44_D50_A_1086


 35 36  0  0  0  0  0  0  0  0999 V2000
   14.4457   10.2109   10.4505 N   0  0  0  0  0  0  0  0  0  0  0  0
   14.5791   10.1980   11.9369 C   0  0  0  0  0  0  0  0  0  0  0  0
   14.9808    9.4382   10.0543 H   0  0  0  0  0  0  0  0  0  0  0  0
   14.8019   11.0940   10.0848 H   0  0  0  0  0  0  0  0  0  0  0  0
   16.6907   11.3453   11.3622 O   0  0  0  0  0  0  0  0  0  0  0  0
   16.0209   10.4837   12.3248 C   0  0  0  0  0  0  0  0  0  0  0  0
   17.6045   11.5006   11.6483 H   0  0  0  0  0  0  0  0  0  0  0  0
   16.0110    8.0936   12.4038 N   0  0  0  0  0  0  0  0  0  0  0  0
   18.0052    9.0226   12.5280 O   0  0  0  0  0  0  0  0  0  0  0  0
   16.7685    9.1518   12.4562 C   0  0  0  0  0  0  0  0  0  0  0  0
   15.0303    8.1805   12.4098 H   0  0  0  0  0  0  0  0  0  0  0  0
   16.6332    6.7857   12.3364 C   0  0  0  0  0  0  0  0  0  0  0  0
   16.1004    4.8549   11.0558 O   0  0  0  0  0  0  0  0  0  0  0  0
   16.0874    6.7924    9.9770 O   0  0  0  0  0  0  0  0  0  0  0  0
   16.2514    6.0775   11.0722 C   0  0  0  0  0  0  0  0  0  0  0  0
   16.2198    4.3576   11.8409 H   0  0  0  0  0  0  0  0  0  0  0  0
   16.3167    5.9706   13.5574 C   0  0  0  0  0  0  0  0  0  0  0  0
   14.1381    4.9888   13.9788 C   0  0  0  0  0  0  0  0  0  0  0  0
   14.9209    6.2685   14.0969 C   0  0  0  0  0  0  0  0  0  0  0  0
   14.9276    6.7540   15.5566 C   0  0  0  0  0  0  0  0  0  0  0  0
   13.7802   11.3485   12.5025 C   0  0  0  0  0  0  0  0  0  0  0  0
   13.3723   11.2200   13.9452 C   0  0  0  0  0  0  0  0  0  0  0  0
   13.6138   10.0428   14.6722 C   0  0  0  0  0  0  0  0  0  0  0  0
   13.2670    9.9719   16.0175 C   0  0  0  0  0  0  0  0  0  0  0  0
   12.6989   11.0581   16.6445 C   0  0  0  0  0  0  0  0  0  0  0  0
   12.4797   12.2238   15.9242 C   0  0  0  0  0  0  0  0  0  0  0  0
   12.8160   12.3264   14.5675 C   0  0  0  0  0  0  0  0  0  0  0  0
   12.3813   10.9751   17.9980 O   0  0  0  0  0  0  0  0  0  0  0  0
   13.2743   10.6319   19.0528 C   0  0  0  0  0  0  0  0  0  0  0  0
   12.8459    9.2741   19.5573 C   0  0  0  0  0  0  0  0  0  0  0  0
   13.6732    8.1594   19.3872 C   0  0  0  0  0  0  0  0  0  0  0  0
   13.2695    6.9088   19.8538 C   0  0  0  0  0  0  0  0  0  0  0  0
   12.0349    6.7701   20.4874 C   0  0  0  0  0  0  0  0  0  0  0  0
   11.1865    7.8709   20.6620 C   0  0  0  0  0  0  0  0  0  0  0  0
   11.6094    9.1242   20.1919 C   0  0  0  0  0  0  0  0  0  0  0  0
 18 19  1  0  0  0
  8 12  1  0  0  0
  8 10  1  0  0  0
 10  9  2  0  0  0
 19 20  1  0  0  0
 19 17  1  0  0  0
  1  2  1  0  0  0
  5  6  1  0  0  0
 25 28  1  0  0  0
 28 29  1  0  0  0
 17 12  1  0  0  0
 15 13  1  0  0  0
 12 15  1  0  0  0
 15 14  2  0  0  0
 10  6  1  0  0  0
  6  2  1  0  0  0
  2 21  1  0  0  0
 21 22  1  0  0  0
 22 23  2  0  0  0
 22 27  1  0  0  0
 23 24  1  0  0  0
 24 25  2  0  0  0
 26 25  1  0  0  0
 29 30  1  0  0  0
 35 30  2  0  0  0
 30 31  1  0  0  0
 31 32  2  0  0  0
 33 32  1  0  0  0
 34 33  2  0  0  0
 35 34  1  0  0  0
 27 26  2  0  0  0
  8 11  1  0  0  0
  1  3  1  0  0  0
  1  4  1  0  0  0
  5  7  1  0  0  0
 13 16  1  0  0  0
M  END
> <minimizedAffinity>
-9.07982

$$$$
