4CWO_T62_A_1226


 27 30  0  0  0  0  0  0  0  0999 V2000
    6.8610    9.0354   23.2947 N   0  0  0  0  0  0  0  0  0  0  0  0
    6.0932   10.0658   23.7445 C   0  0  0  0  0  0  0  0  0  0  0  0
    4.7442    9.9780   23.6836 N   0  0  0  0  0  0  0  0  0  0  0  0
    6.6305   11.2053   24.2661 N   0  0  0  0  0  0  0  0  0  0  0  0
    5.5362   11.9349   24.5700 C   0  0  0  0  0  0  0  0  0  0  0  0
    5.4305   13.2033   25.1376 C   0  0  0  0  0  0  0  0  0  0  0  0
    6.5376   13.9734   25.5040 C   0  0  0  0  0  0  0  0  0  0  0  0
    6.3335   15.2421   26.0652 C   0  0  0  0  0  0  0  0  0  0  0  0
    5.0388   15.7375   26.2649 C   0  0  0  0  0  0  0  0  0  0  0  0
    3.9416   14.9646   25.8868 C   0  0  0  0  0  0  0  0  0  0  0  0
    4.1335   13.6993   25.3240 C   0  0  0  0  0  0  0  0  0  0  0  0
    3.0591   12.9388   24.9652 N   0  0  0  0  0  0  0  0  0  0  0  0
    4.4581   11.2305   24.2246 N   0  0  0  0  0  0  0  0  0  0  0  0
    3.2208   11.7123   24.4059 C   0  0  0  0  0  0  0  0  0  0  0  0
    6.4346    8.2289   22.9247 H   0  0  0  0  0  0  0  0  0  0  0  0
    7.8426    9.0969   23.3394 H   0  0  0  0  0  0  0  0  0  0  0  0
    2.0451   10.8231   24.0588 C   0  0  0  0  0  0  0  0  0  0  0  0
    0.6409   11.1127   24.5368 C   0  0  0  0  0  0  0  0  0  0  0  0
   -0.3201   11.5948   23.6489 C   0  0  0  0  0  0  0  0  0  0  0  0
    0.3161   10.8061   25.8681 C   0  0  0  0  0  0  0  0  0  0  0  0
   -0.9900   11.0117   26.3245 C   0  0  0  0  0  0  0  0  0  0  0  0
   -1.3249   10.7531   27.6150 O   0  0  0  0  0  0  0  0  0  0  0  0
   -1.9585   11.5023   25.4556 C   0  0  0  0  0  0  0  0  0  0  0  0
   -1.6186   11.7966   24.1209 C   0  0  0  0  0  0  0  0  0  0  0  0
   -2.5680   12.2557   23.2602 O   0  0  0  0  0  0  0  0  0  0  0  0
   -0.6802   10.4223   28.2091 H   0  0  0  0  0  0  0  0  0  0  0  0
   -2.3405   12.4511   22.3725 H   0  0  0  0  0  0  0  0  0  0  0  0
  1  2  1  0  0  0
  2  3  2  0  0  0
  2  4  1  0  0  0
  3 13  1  0  0  0
  4  5  2  0  0  0
  5  6  1  0  0  0
  5 13  1  0  0  0
  6  7  1  0  0  0
  6 11  2  0  0  0
  7  8  2  0  0  0
  8  9  1  0  0  0
  9 10  2  0  0  0
 10 11  1  0  0  0
 11 12  1  0  0  0
 12 14  2  0  0  0
 13 14  1  0  0  0
 14 17  1  0  0  0
 17 18  1  0  0  0
 18 19  1  0  0  0
 18 20  2  0  0  0
 19 24  2  0  0  0
 20 21  1  0  0  0
 21 22  1  0  0  0
 21 23  2  0  0  0
 23 24  1  0  0  0
 24 25  1  0  0  0
  1 15  1  0  0  0
  1 16  1  0  0  0
 22 26  1  0  0  0
 25 27  1  0  0  0
M  END
> <minimizedAffinity>
-10.96516

$$$$
4CWO_T62_A_1226


 27 30  0  0  0  0  0  0  0  0999 V2000
   10.8306   14.2778   27.1414 N   0  0  0  0  0  0  0  0  0  0  0  0
    9.5895   13.9911   26.6606 C   0  0  0  0  0  0  0  0  0  0  0  0
    9.3973   12.8824   25.9089 N   0  0  0  0  0  0  0  0  0  0  0  0
    8.5081   14.7840   26.9075 N   0  0  0  0  0  0  0  0  0  0  0  0
    7.5166   14.1419   26.2541 C   0  0  0  0  0  0  0  0  0  0  0  0
    6.1655   14.4613   26.1332 C   0  0  0  0  0  0  0  0  0  0  0  0
    5.5902   15.5924   26.7185 C   0  0  0  0  0  0  0  0  0  0  0  0
    4.2208   15.8348   26.5387 C   0  0  0  0  0  0  0  0  0  0  0  0
    3.4302   14.9562   25.7875 C   0  0  0  0  0  0  0  0  0  0  0  0
    4.0165   13.8359   25.1999 C   0  0  0  0  0  0  0  0  0  0  0  0
    5.3813   13.5857   25.3705 C   0  0  0  0  0  0  0  0  0  0  0  0
    5.9519   12.4830   24.8052 N   0  0  0  0  0  0  0  0  0  0  0  0
    8.0343   13.0581   25.6752 N   0  0  0  0  0  0  0  0  0  0  0  0
    7.2775   12.2257   24.9470 C   0  0  0  0  0  0  0  0  0  0  0  0
   11.5865   13.6797   26.9408 H   0  0  0  0  0  0  0  0  0  0  0  0
   10.9723   15.0831   27.6896 H   0  0  0  0  0  0  0  0  0  0  0  0
    7.9210   10.9758   24.3839 C   0  0  0  0  0  0  0  0  0  0  0  0
    7.1283    9.7290   24.0658 C   0  0  0  0  0  0  0  0  0  0  0  0
    7.3866    8.5380   24.7435 C   0  0  0  0  0  0  0  0  0  0  0  0
    6.0801    9.8275   23.1366 C   0  0  0  0  0  0  0  0  0  0  0  0
    5.2935    8.7039   22.8624 C   0  0  0  0  0  0  0  0  0  0  0  0
    4.2929    8.7619   21.9457 O   0  0  0  0  0  0  0  0  0  0  0  0
    5.5441    7.5050   23.5208 C   0  0  0  0  0  0  0  0  0  0  0  0
    6.5936    7.4252   24.4565 C   0  0  0  0  0  0  0  0  0  0  0  0
    6.8290    6.2603   25.1204 O   0  0  0  0  0  0  0  0  0  0  0  0
    4.1154    9.5646   21.4962 H   0  0  0  0  0  0  0  0  0  0  0  0
    7.5276    6.2086   25.7426 H   0  0  0  0  0  0  0  0  0  0  0  0
  1  2  1  0  0  0
  2  3  2  0  0  0
  2  4  1  0  0  0
  3 13  1  0  0  0
  4  5  2  0  0  0
  5  6  1  0  0  0
  5 13  1  0  0  0
  6  7  1  0  0  0
  6 11  2  0  0  0
  7  8  2  0  0  0
  8  9  1  0  0  0
  9 10  2  0  0  0
 10 11  1  0  0  0
 11 12  1  0  0  0
 12 14  2  0  0  0
 13 14  1  0  0  0
 14 17  1  0  0  0
 17 18  1  0  0  0
 18 19  1  0  0  0
 18 20  2  0  0  0
 19 24  2  0  0  0
 20 21  1  0  0  0
 21 22  1  0  0  0
 21 23  2  0  0  0
 23 24  1  0  0  0
 24 25  1  0  0  0
  1 15  1  0  0  0
  1 16  1  0  0  0
 22 26  1  0  0  0
 25 27  1  0  0  0
M  END
> <minimizedAffinity>
-10.39997

$$$$
4CWO_T62_A_1226


 27 30  0  0  0  0  0  0  0  0999 V2000
    8.4511    9.8705   23.6768 N   0  0  0  0  0  0  0  0  0  0  0  0
    7.3825   10.6417   24.0186 C   0  0  0  0  0  0  0  0  0  0  0  0
    6.1262   10.1792   23.8200 N   0  0  0  0  0  0  0  0  0  0  0  0
    7.5210   11.8834   24.5647 N   0  0  0  0  0  0  0  0  0  0  0  0
    6.2404   12.2750   24.7350 C   0  0  0  0  0  0  0  0  0  0  0  0
    5.7244   13.4597   25.2568 C   0  0  0  0  0  0  0  0  0  0  0  0
    6.5264   14.5076   25.7171 C   0  0  0  0  0  0  0  0  0  0  0  0
    5.9172   15.6650   26.2223 C   0  0  0  0  0  0  0  0  0  0  0  0
    4.5220   15.7762   26.2739 C   0  0  0  0  0  0  0  0  0  0  0  0
    3.7315   14.7286   25.8031 C   0  0  0  0  0  0  0  0  0  0  0  0
    4.3282   13.5710   25.2950 C   0  0  0  0  0  0  0  0  0  0  0  0
    3.5540   12.5415   24.8454 N   0  0  0  0  0  0  0  0  0  0  0  0
    5.4455   11.2983   24.2970 N   0  0  0  0  0  0  0  0  0  0  0  0
    4.1108   11.4126   24.3366 C   0  0  0  0  0  0  0  0  0  0  0  0
    8.3092    8.9787   23.2846 H   0  0  0  0  0  0  0  0  0  0  0  0
    9.3658   10.2047   23.8217 H   0  0  0  0  0  0  0  0  0  0  0  0
    3.2746   10.2311   23.8914 C   0  0  0  0  0  0  0  0  0  0  0  0
    2.5093    9.3664   24.8665 C   0  0  0  0  0  0  0  0  0  0  0  0
    2.9007    9.2959   26.2030 C   0  0  0  0  0  0  0  0  0  0  0  0
    1.3561    8.7094   24.4081 C   0  0  0  0  0  0  0  0  0  0  0  0
    0.5961    7.9461   25.3005 C   0  0  0  0  0  0  0  0  0  0  0  0
   -0.5065    7.2749   24.8782 O   0  0  0  0  0  0  0  0  0  0  0  0
    0.9781    7.8558   26.6346 C   0  0  0  0  0  0  0  0  0  0  0  0
    2.1326    8.5280   27.0803 C   0  0  0  0  0  0  0  0  0  0  0  0
    2.4983    8.4612   28.3899 O   0  0  0  0  0  0  0  0  0  0  0  0
   -0.7729    7.3288   23.9815 H   0  0  0  0  0  0  0  0  0  0  0  0
    3.2667    8.9089   28.6851 H   0  0  0  0  0  0  0  0  0  0  0  0
  1  2  1  0  0  0
  2  3  2  0  0  0
  2  4  1  0  0  0
  3 13  1  0  0  0
  4  5  2  0  0  0
  5  6  1  0  0  0
  5 13  1  0  0  0
  6  7  1  0  0  0
  6 11  2  0  0  0
  7  8  2  0  0  0
  8  9  1  0  0  0
  9 10  2  0  0  0
 10 11  1  0  0  0
 11 12  1  0  0  0
 12 14  2  0  0  0
 13 14  1  0  0  0
 14 17  1  0  0  0
 17 18  1  0  0  0
 18 19  1  0  0  0
 18 20  2  0  0  0
 19 24  2  0  0  0
 20 21  1  0  0  0
 21 22  1  0  0  0
 21 23  2  0  0  0
 23 24  1  0  0  0
 24 25  1  0  0  0
  1 15  1  0  0  0
  1 16  1  0  0  0
 22 26  1  0  0  0
 25 27  1  0  0  0
M  END
> <minimizedAffinity>
-10.36913

$$$$
4CWO_T62_A_1226


 27 30  0  0  0  0  0  0  0  0999 V2000
   -0.2834    9.6417   27.6118 N   0  0  0  0  0  0  0  0  0  0  0  0
    0.0056   10.2852   26.4474 C   0  0  0  0  0  0  0  0  0  0  0  0
    1.2746   10.2907   25.9772 N   0  0  0  0  0  0  0  0  0  0  0  0
   -0.9432   10.9364   25.7162 N   0  0  0  0  0  0  0  0  0  0  0  0
   -0.2330   11.4188   24.6745 C   0  0  0  0  0  0  0  0  0  0  0  0
   -0.6450   12.1747   23.5786 C   0  0  0  0  0  0  0  0  0  0  0  0
   -1.9673   12.5820   23.3823 C   0  0  0  0  0  0  0  0  0  0  0  0
   -2.2878   13.3450   22.2504 C   0  0  0  0  0  0  0  0  0  0  0  0
   -1.3018   13.6949   21.3194 C   0  0  0  0  0  0  0  0  0  0  0  0
    0.0161   13.2914   21.5301 C   0  0  0  0  0  0  0  0  0  0  0  0
    0.3474   12.5325   22.6565 C   0  0  0  0  0  0  0  0  0  0  0  0
    1.6351   12.1280   22.8558 N   0  0  0  0  0  0  0  0  0  0  0  0
    1.0394   11.0541   24.8347 N   0  0  0  0  0  0  0  0  0  0  0  0
    1.9829   11.4006   23.9483 C   0  0  0  0  0  0  0  0  0  0  0  0
    0.4304    9.1828   28.1109 H   0  0  0  0  0  0  0  0  0  0  0  0
   -1.2062    9.6354   27.9548 H   0  0  0  0  0  0  0  0  0  0  0  0
    3.3913   10.8855   24.1589 C   0  0  0  0  0  0  0  0  0  0  0  0
    4.5473   11.7999   24.4932 C   0  0  0  0  0  0  0  0  0  0  0  0
    4.3123   13.0642   25.0323 C   0  0  0  0  0  0  0  0  0  0  0  0
    5.8522   11.3099   24.3233 C   0  0  0  0  0  0  0  0  0  0  0  0
    6.9419   12.1128   24.6758 C   0  0  0  0  0  0  0  0  0  0  0  0
    8.2152   11.6767   24.4937 O   0  0  0  0  0  0  0  0  0  0  0  0
    6.7262   13.3807   25.2046 C   0  0  0  0  0  0  0  0  0  0  0  0
    5.4110   13.8539   25.3768 C   0  0  0  0  0  0  0  0  0  0  0  0
    5.1937   15.0853   25.9149 O   0  0  0  0  0  0  0  0  0  0  0  0
    8.3721   10.8241   24.1381 H   0  0  0  0  0  0  0  0  0  0  0  0
    4.3181   15.3990   26.0289 H   0  0  0  0  0  0  0  0  0  0  0  0
  1  2  1  0  0  0
  2  3  2  0  0  0
  2  4  1  0  0  0
  3 13  1  0  0  0
  4  5  2  0  0  0
  5  6  1  0  0  0
  5 13  1  0  0  0
  6  7  1  0  0  0
  6 11  2  0  0  0
  7  8  2  0  0  0
  8  9  1  0  0  0
  9 10  2  0  0  0
 10 11  1  0  0  0
 11 12  1  0  0  0
 12 14  2  0  0  0
 13 14  1  0  0  0
 14 17  1  0  0  0
 17 18  1  0  0  0
 18 19  1  0  0  0
 18 20  2  0  0  0
 19 24  2  0  0  0
 20 21  1  0  0  0
 21 22  1  0  0  0
 21 23  2  0  0  0
 23 24  1  0  0  0
 24 25  1  0  0  0
  1 15  1  0  0  0
  1 16  1  0  0  0
 22 26  1  0  0  0
 25 27  1  0  0  0
M  END
> <minimizedAffinity>
-10.21790

$$$$
4CWO_T62_A_1226


 27 30  0  0  0  0  0  0  0  0999 V2000
    6.2214   15.5551   26.4245 N   0  0  0  0  0  0  0  0  0  0  0  0
    5.6373   14.4847   25.8189 C   0  0  0  0  0  0  0  0  0  0  0  0
    4.2959   14.4594   25.6419 N   0  0  0  0  0  0  0  0  0  0  0  0
    6.3552   13.4154   25.3714 N   0  0  0  0  0  0  0  0  0  0  0  0
    5.3990   12.6119   24.8594 C   0  0  0  0  0  0  0  0  0  0  0  0
    5.5056   11.3635   24.2492 C   0  0  0  0  0  0  0  0  0  0  0  0
    6.7229   10.7022   24.0649 C   0  0  0  0  0  0  0  0  0  0  0  0
    6.7319    9.4452   23.4436 C   0  0  0  0  0  0  0  0  0  0  0  0
    5.5405    8.8542   23.0047 C   0  0  0  0  0  0  0  0  0  0  0  0
    4.3306    9.5186   23.2022 C   0  0  0  0  0  0  0  0  0  0  0  0
    4.3096   10.7711   23.8228 C   0  0  0  0  0  0  0  0  0  0  0  0
    3.1266   11.4259   24.0051 N   0  0  0  0  0  0  0  0  0  0  0  0
    4.2196   13.2110   25.0263 N   0  0  0  0  0  0  0  0  0  0  0  0
    3.0800   12.6375   24.6160 C   0  0  0  0  0  0  0  0  0  0  0  0
    5.6680   16.3082   26.7339 H   0  0  0  0  0  0  0  0  0  0  0  0
    7.1973   15.5760   26.5530 H   0  0  0  0  0  0  0  0  0  0  0  0
    1.7884   13.4126   24.7721 C   0  0  0  0  0  0  0  0  0  0  0  0
    0.4754   12.9221   24.2068 C   0  0  0  0  0  0  0  0  0  0  0  0
   -0.4017   12.1842   25.0008 C   0  0  0  0  0  0  0  0  0  0  0  0
    0.1336   13.2992   22.8980 C   0  0  0  0  0  0  0  0  0  0  0  0
   -1.0992   12.9065   22.3666 C   0  0  0  0  0  0  0  0  0  0  0  0
   -1.4431   13.2306   21.0933 O   0  0  0  0  0  0  0  0  0  0  0  0
   -1.9816   12.1609   23.1407 C   0  0  0  0  0  0  0  0  0  0  0  0
   -1.6273   11.7983   24.4546 C   0  0  0  0  0  0  0  0  0  0  0  0
   -2.4966   11.0877   25.2244 O   0  0  0  0  0  0  0  0  0  0  0  0
   -0.8561   13.7327   20.5629 H   0  0  0  0  0  0  0  0  0  0  0  0
   -2.2596   10.8471   26.0984 H   0  0  0  0  0  0  0  0  0  0  0  0
  1  2  1  0  0  0
  2  3  2  0  0  0
  2  4  1  0  0  0
  3 13  1  0  0  0
  4  5  2  0  0  0
  5  6  1  0  0  0
  5 13  1  0  0  0
  6  7  1  0  0  0
  6 11  2  0  0  0
  7  8  2  0  0  0
  8  9  1  0  0  0
  9 10  2  0  0  0
 10 11  1  0  0  0
 11 12  1  0  0  0
 12 14  2  0  0  0
 13 14  1  0  0  0
 14 17  1  0  0  0
 17 18  1  0  0  0
 18 19  1  0  0  0
 18 20  2  0  0  0
 19 24  2  0  0  0
 20 21  1  0  0  0
 21 22  1  0  0  0
 21 23  2  0  0  0
 23 24  1  0  0  0
 24 25  1  0  0  0
  1 15  1  0  0  0
  1 16  1  0  0  0
 22 26  1  0  0  0
 25 27  1  0  0  0
M  END
> <minimizedAffinity>
-10.05962

$$$$
4CWO_T62_A_1226


 27 30  0  0  0  0  0  0  0  0999 V2000
   -0.0158   11.7449   23.8485 N   0  0  0  0  0  0  0  0  0  0  0  0
    1.3004   11.9874   24.0985 C   0  0  0  0  0  0  0  0  0  0  0  0
    2.2361   11.0876   23.7159 N   0  0  0  0  0  0  0  0  0  0  0  0
    1.7294   13.1184   24.7276 N   0  0  0  0  0  0  0  0  0  0  0  0
    3.0674   12.9438   24.7678 C   0  0  0  0  0  0  0  0  0  0  0  0
    4.0658   13.7642   25.2895 C   0  0  0  0  0  0  0  0  0  0  0  0
    3.8054   14.9923   25.9034 C   0  0  0  0  0  0  0  0  0  0  0  0
    4.8752   15.7484   26.4033 C   0  0  0  0  0  0  0  0  0  0  0  0
    6.1931   15.2884   26.2884 C   0  0  0  0  0  0  0  0  0  0  0  0
    6.4407   14.0572   25.6826 C   0  0  0  0  0  0  0  0  0  0  0  0
    5.3814   13.2939   25.1829 C   0  0  0  0  0  0  0  0  0  0  0  0
    5.6255   12.0948   24.5798 N   0  0  0  0  0  0  0  0  0  0  0  0
    3.3511   11.7734   24.1955 N   0  0  0  0  0  0  0  0  0  0  0  0
    4.6121   11.3305   24.0977 C   0  0  0  0  0  0  0  0  0  0  0  0
   -0.2854   10.9157   23.3914 H   0  0  0  0  0  0  0  0  0  0  0  0
   -0.6979   12.3988   24.1248 H   0  0  0  0  0  0  0  0  0  0  0  0
    4.8619   10.0276   23.3674 C   0  0  0  0  0  0  0  0  0  0  0  0
    5.5009    8.8328   24.0370 C   0  0  0  0  0  0  0  0  0  0  0  0
    4.7091    7.8084   24.5546 C   0  0  0  0  0  0  0  0  0  0  0  0
    6.9025    8.7481   24.0473 C   0  0  0  0  0  0  0  0  0  0  0  0
    7.5218    7.6277   24.6109 C   0  0  0  0  0  0  0  0  0  0  0  0
    8.8757    7.5334   24.6624 O   0  0  0  0  0  0  0  0  0  0  0  0
    6.7477    6.6017   25.1417 C   0  0  0  0  0  0  0  0  0  0  0  0
    5.3429    6.6980   25.1157 C   0  0  0  0  0  0  0  0  0  0  0  0
    4.5802    5.6863   25.6136 O   0  0  0  0  0  0  0  0  0  0  0  0
    9.4070    8.2189   24.3077 H   0  0  0  0  0  0  0  0  0  0  0  0
    3.6457    5.7517   25.5957 H   0  0  0  0  0  0  0  0  0  0  0  0
  1  2  1  0  0  0
  2  3  2  0  0  0
  2  4  1  0  0  0
  3 13  1  0  0  0
  4  5  2  0  0  0
  5  6  1  0  0  0
  5 13  1  0  0  0
  6  7  1  0  0  0
  6 11  2  0  0  0
  7  8  2  0  0  0
  8  9  1  0  0  0
  9 10  2  0  0  0
 10 11  1  0  0  0
 11 12  1  0  0  0
 12 14  2  0  0  0
 13 14  1  0  0  0
 14 17  1  0  0  0
 17 18  1  0  0  0
 18 19  1  0  0  0
 18 20  2  0  0  0
 19 24  2  0  0  0
 20 21  1  0  0  0
 21 22  1  0  0  0
 21 23  2  0  0  0
 23 24  1  0  0  0
 24 25  1  0  0  0
  1 15  1  0  0  0
  1 16  1  0  0  0
 22 26  1  0  0  0
 25 27  1  0  0  0
M  END
> <minimizedAffinity>
-10.05120

$$$$
4CWO_T62_A_1226


 27 30  0  0  0  0  0  0  0  0999 V2000
   10.6081   13.6029   26.4001 N   0  0  0  0  0  0  0  0  0  0  0  0
    9.2993   13.4047   26.0817 C   0  0  0  0  0  0  0  0  0  0  0  0
    8.9213   12.2612   25.4646 N   0  0  0  0  0  0  0  0  0  0  0  0
    8.3309   14.3224   26.3628 N   0  0  0  0  0  0  0  0  0  0  0  0
    7.2165   13.7317   25.8817 C   0  0  0  0  0  0  0  0  0  0  0  0
    5.8958   14.1763   25.8725 C   0  0  0  0  0  0  0  0  0  0  0  0
    5.4976   15.4063   26.4031 C   0  0  0  0  0  0  0  0  0  0  0  0
    4.1450   15.7714   26.3450 C   0  0  0  0  0  0  0  0  0  0  0  0
    3.1964   14.9173   25.7688 C   0  0  0  0  0  0  0  0  0  0  0  0
    3.6061   13.6966   25.2339 C   0  0  0  0  0  0  0  0  0  0  0  0
    4.9525   13.3235   25.2841 C   0  0  0  0  0  0  0  0  0  0  0  0
    5.3508   12.1237   24.7710 N   0  0  0  0  0  0  0  0  0  0  0  0
    7.5627   12.5550   25.3590 N   0  0  0  0  0  0  0  0  0  0  0  0
    6.6544   11.7451   24.7975 C   0  0  0  0  0  0  0  0  0  0  0  0
   11.2778   12.9155   26.1801 H   0  0  0  0  0  0  0  0  0  0  0  0
   10.8849   14.4335   26.8503 H   0  0  0  0  0  0  0  0  0  0  0  0
    7.1115   10.3923   24.2933 C   0  0  0  0  0  0  0  0  0  0  0  0
    6.1809    9.4341   23.5863 C   0  0  0  0  0  0  0  0  0  0  0  0
    5.8945    9.6005   22.2318 C   0  0  0  0  0  0  0  0  0  0  0  0
    5.6854    8.3358   24.3074 C   0  0  0  0  0  0  0  0  0  0  0  0
    4.8661    7.4016   23.6652 C   0  0  0  0  0  0  0  0  0  0  0  0
    4.3476    6.3467   24.3455 O   0  0  0  0  0  0  0  0  0  0  0  0
    4.5612    7.5581   22.3175 C   0  0  0  0  0  0  0  0  0  0  0  0
    5.0733    8.6605   21.6062 C   0  0  0  0  0  0  0  0  0  0  0  0
    4.7964    8.8062   20.2814 O   0  0  0  0  0  0  0  0  0  0  0  0
    4.5465    6.2316   25.2539 H   0  0  0  0  0  0  0  0  0  0  0  0
    5.1378    9.5402   19.8094 H   0  0  0  0  0  0  0  0  0  0  0  0
  1  2  1  0  0  0
  2  3  2  0  0  0
  2  4  1  0  0  0
  3 13  1  0  0  0
  4  5  2  0  0  0
  5  6  1  0  0  0
  5 13  1  0  0  0
  6  7  1  0  0  0
  6 11  2  0  0  0
  7  8  2  0  0  0
  8  9  1  0  0  0
  9 10  2  0  0  0
 10 11  1  0  0  0
 11 12  1  0  0  0
 12 14  2  0  0  0
 13 14  1  0  0  0
 14 17  1  0  0  0
 17 18  1  0  0  0
 18 19  1  0  0  0
 18 20  2  0  0  0
 19 24  2  0  0  0
 20 21  1  0  0  0
 21 22  1  0  0  0
 21 23  2  0  0  0
 23 24  1  0  0  0
 24 25  1  0  0  0
  1 15  1  0  0  0
  1 16  1  0  0  0
 22 26  1  0  0  0
 25 27  1  0  0  0
M  END
> <minimizedAffinity>
-9.81601

$$$$
4CWO_T62_A_1226


 27 30  0  0  0  0  0  0  0  0999 V2000
   -2.1144   12.2307   23.9240 N   0  0  0  0  0  0  0  0  0  0  0  0
   -1.0579   11.5983   24.5049 C   0  0  0  0  0  0  0  0  0  0  0  0
    0.2047   11.9198   24.1387 N   0  0  0  0  0  0  0  0  0  0  0  0
   -1.2149   10.6375   25.4595 N   0  0  0  0  0  0  0  0  0  0  0  0
    0.0590   10.2919   25.7422 C   0  0  0  0  0  0  0  0  0  0  0  0
    0.5570    9.3549   26.6456 C   0  0  0  0  0  0  0  0  0  0  0  0
   -0.2603    8.5655   27.4593 C   0  0  0  0  0  0  0  0  0  0  0  0
    0.3312    7.6451   28.3363 C   0  0  0  0  0  0  0  0  0  0  0  0
    1.7240    7.5155   28.4067 C   0  0  0  0  0  0  0  0  0  0  0  0
    2.5295    8.3013   27.5834 C   0  0  0  0  0  0  0  0  0  0  0  0
    1.9504    9.2204   26.7034 C   0  0  0  0  0  0  0  0  0  0  0  0
    2.7397    9.9973   25.9068 N   0  0  0  0  0  0  0  0  0  0  0  0
    0.8679   11.0230   24.9748 N   0  0  0  0  0  0  0  0  0  0  0  0
    2.1999   10.8882   25.0359 C   0  0  0  0  0  0  0  0  0  0  0  0
   -1.9592   12.9195   23.2379 H   0  0  0  0  0  0  0  0  0  0  0  0
   -3.0335   11.9991   24.1900 H   0  0  0  0  0  0  0  0  0  0  0  0
    3.0551   11.8066   24.1883 C   0  0  0  0  0  0  0  0  0  0  0  0
    4.1469   12.6700   24.7772 C   0  0  0  0  0  0  0  0  0  0  0  0
    5.4834   12.2878   24.6675 C   0  0  0  0  0  0  0  0  0  0  0  0
    3.7835   13.8955   25.3583 C   0  0  0  0  0  0  0  0  0  0  0  0
    4.7769   14.7413   25.8626 C   0  0  0  0  0  0  0  0  0  0  0  0
    4.4524   15.9183   26.4577 O   0  0  0  0  0  0  0  0  0  0  0  0
    6.1141   14.3710   25.7716 C   0  0  0  0  0  0  0  0  0  0  0  0
    6.4625   13.1424   25.1779 C   0  0  0  0  0  0  0  0  0  0  0  0
    7.7713   12.7852   25.0660 O   0  0  0  0  0  0  0  0  0  0  0  0
    3.5545   16.1777   26.5244 H   0  0  0  0  0  0  0  0  0  0  0  0
    8.0017   11.9675   24.6707 H   0  0  0  0  0  0  0  0  0  0  0  0
  1  2  1  0  0  0
  2  3  2  0  0  0
  2  4  1  0  0  0
  3 13  1  0  0  0
  4  5  2  0  0  0
  5  6  1  0  0  0
  5 13  1  0  0  0
  6  7  1  0  0  0
  6 11  2  0  0  0
  7  8  2  0  0  0
  8  9  1  0  0  0
  9 10  2  0  0  0
 10 11  1  0  0  0
 11 12  1  0  0  0
 12 14  2  0  0  0
 13 14  1  0  0  0
 14 17  1  0  0  0
 17 18  1  0  0  0
 18 19  1  0  0  0
 18 20  2  0  0  0
 19 24  2  0  0  0
 20 21  1  0  0  0
 21 22  1  0  0  0
 21 23  2  0  0  0
 23 24  1  0  0  0
 24 25  1  0  0  0
  1 15  1  0  0  0
  1 16  1  0  0  0
 22 26  1  0  0  0
 25 27  1  0  0  0
M  END
> <minimizedAffinity>
-9.58489

$$$$
4CWO_T62_A_1226


 27 30  0  0  0  0  0  0  0  0999 V2000
   -1.9942   12.1409   23.8493 N   0  0  0  0  0  0  0  0  0  0  0  0
   -0.9488   11.5159   24.4578 C   0  0  0  0  0  0  0  0  0  0  0  0
    0.3144   11.7420   24.0281 N   0  0  0  0  0  0  0  0  0  0  0  0
   -1.1178   10.6565   25.5027 N   0  0  0  0  0  0  0  0  0  0  0  0
    0.1479   10.2787   25.7813 C   0  0  0  0  0  0  0  0  0  0  0  0
    0.6323    9.4071   26.7549 C   0  0  0  0  0  0  0  0  0  0  0  0
   -0.1928    8.7363   27.6616 C   0  0  0  0  0  0  0  0  0  0  0  0
    0.3849    7.8744   28.6048 C   0  0  0  0  0  0  0  0  0  0  0  0
    1.7720    7.6862   28.6485 C   0  0  0  0  0  0  0  0  0  0  0  0
    2.5850    8.3531   27.7328 C   0  0  0  0  0  0  0  0  0  0  0  0
    2.0195    9.2129   26.7865 C   0  0  0  0  0  0  0  0  0  0  0  0
    2.8167    9.8742   25.8986 N   0  0  0  0  0  0  0  0  0  0  0  0
    0.9636   10.8963   24.9263 N   0  0  0  0  0  0  0  0  0  0  0  0
    2.2894   10.7048   24.9629 C   0  0  0  0  0  0  0  0  0  0  0  0
   -1.8305   12.7548   23.0973 H   0  0  0  0  0  0  0  0  0  0  0  0
   -2.9137   11.9788   24.1614 H   0  0  0  0  0  0  0  0  0  0  0  0
    3.1571   11.4991   24.0091 C   0  0  0  0  0  0  0  0  0  0  0  0
    4.3835   12.2544   24.4668 C   0  0  0  0  0  0  0  0  0  0  0  0
    4.2521   13.4533   25.1665 C   0  0  0  0  0  0  0  0  0  0  0  0
    5.6427   11.6755   24.2406 C   0  0  0  0  0  0  0  0  0  0  0  0
    6.7931   12.3242   24.7014 C   0  0  0  0  0  0  0  0  0  0  0  0
    8.0257   11.8031   24.4700 O   0  0  0  0  0  0  0  0  0  0  0  0
    6.6813   13.5264   25.3914 C   0  0  0  0  0  0  0  0  0  0  0  0
    5.4103   14.0893   25.6177 C   0  0  0  0  0  0  0  0  0  0  0  0
    5.2937   15.2543   26.3122 O   0  0  0  0  0  0  0  0  0  0  0  0
    8.1126   10.9937   24.0060 H   0  0  0  0  0  0  0  0  0  0  0  0
    4.4475   15.6277   26.4620 H   0  0  0  0  0  0  0  0  0  0  0  0
  1  2  1  0  0  0
  2  3  2  0  0  0
  2  4  1  0  0  0
  3 13  1  0  0  0
  4  5  2  0  0  0
  5  6  1  0  0  0
  5 13  1  0  0  0
  6  7  1  0  0  0
  6 11  2  0  0  0
  7  8  2  0  0  0
  8  9  1  0  0  0
  9 10  2  0  0  0
 10 11  1  0  0  0
 11 12  1  0  0  0
 12 14  2  0  0  0
 13 14  1  0  0  0
 14 17  1  0  0  0
 17 18  1  0  0  0
 18 19  1  0  0  0
 18 20  2  0  0  0
 19 24  2  0  0  0
 20 21  1  0  0  0
 21 22  1  0  0  0
 21 23  2  0  0  0
 23 24  1  0  0  0
 24 25  1  0  0  0
  1 15  1  0  0  0
  1 16  1  0  0  0
 22 26  1  0  0  0
 25 27  1  0  0  0
M  END
> <minimizedAffinity>
-9.49529

$$$$
4CWO_T62_A_1226


 27 30  0  0  0  0  0  0  0  0999 V2000
    5.2821    6.3350   22.5107 N   0  0  0  0  0  0  0  0  0  0  0  0
    4.9125    7.5323   23.0430 C   0  0  0  0  0  0  0  0  0  0  0  0
    3.6163    7.7576   23.3604 N   0  0  0  0  0  0  0  0  0  0  0  0
    5.8055    8.5354   23.2782 N   0  0  0  0  0  0  0  0  0  0  0  0
    5.0252    9.5105   23.7907 C   0  0  0  0  0  0  0  0  0  0  0  0
    5.3582   10.7900   24.2312 C   0  0  0  0  0  0  0  0  0  0  0  0
    6.6606   11.2959   24.2014 C   0  0  0  0  0  0  0  0  0  0  0  0
    6.8999   12.5983   24.6625 C   0  0  0  0  0  0  0  0  0  0  0  0
    5.8529   13.3881   25.1540 C   0  0  0  0  0  0  0  0  0  0  0  0
    4.5558   12.8768   25.1703 C   0  0  0  0  0  0  0  0  0  0  0  0
    4.3053   11.5805   24.7106 C   0  0  0  0  0  0  0  0  0  0  0  0
    3.0378   11.0767   24.7379 N   0  0  0  0  0  0  0  0  0  0  0  0
    3.7699    9.0626   23.8260 N   0  0  0  0  0  0  0  0  0  0  0  0
    2.7683    9.8251   24.2858 C   0  0  0  0  0  0  0  0  0  0  0  0
    4.6067    5.6355   22.3560 H   0  0  0  0  0  0  0  0  0  0  0  0
    6.2247    6.1686   22.2804 H   0  0  0  0  0  0  0  0  0  0  0  0
    1.3822    9.2202   24.3651 C   0  0  0  0  0  0  0  0  0  0  0  0
    0.2088    9.9588   24.9666 C   0  0  0  0  0  0  0  0  0  0  0  0
    0.0078    9.9574   26.3464 C   0  0  0  0  0  0  0  0  0  0  0  0
   -0.6152   10.7063   24.1097 C   0  0  0  0  0  0  0  0  0  0  0  0
   -1.6763   11.4447   24.6437 C   0  0  0  0  0  0  0  0  0  0  0  0
   -2.5080   12.1519   23.8358 O   0  0  0  0  0  0  0  0  0  0  0  0
   -1.8981   11.4458   26.0165 C   0  0  0  0  0  0  0  0  0  0  0  0
   -1.0571   10.6979   26.8631 C   0  0  0  0  0  0  0  0  0  0  0  0
   -1.2560   10.7135   28.2097 O   0  0  0  0  0  0  0  0  0  0  0  0
   -2.3678   12.1581   22.9093 H   0  0  0  0  0  0  0  0  0  0  0  0
   -0.6958   10.2154   28.7719 H   0  0  0  0  0  0  0  0  0  0  0  0
  1  2  1  0  0  0
  2  3  2  0  0  0
  2  4  1  0  0  0
  3 13  1  0  0  0
  4  5  2  0  0  0
  5  6  1  0  0  0
  5 13  1  0  0  0
  6  7  1  0  0  0
  6 11  2  0  0  0
  7  8  2  0  0  0
  8  9  1  0  0  0
  9 10  2  0  0  0
 10 11  1  0  0  0
 11 12  1  0  0  0
 12 14  2  0  0  0
 13 14  1  0  0  0
 14 17  1  0  0  0
 17 18  1  0  0  0
 18 19  1  0  0  0
 18 20  2  0  0  0
 19 24  2  0  0  0
 20 21  1  0  0  0
 21 22  1  0  0  0
 21 23  2  0  0  0
 23 24  1  0  0  0
 24 25  1  0  0  0
  1 15  1  0  0  0
  1 16  1  0  0  0
 22 26  1  0  0  0
 25 27  1  0  0  0
M  END
> <minimizedAffinity>
-9.43494

$$$$
