4KS4_1SN_A_501


 31 32  0  0  0  0  0  0  0  0999 V2000
  206.1482   70.5535 -125.0511 C   0  0  0  0  0  0  0  0  0  0  0  0
  205.8882   72.0589 -125.0943 C   0  0  0  0  0  0  0  0  0  0  0  0
  205.5866   69.9062 -126.3063 C   0  0  0  0  0  0  0  0  0  0  0  0
  204.1133   70.2726 -126.4707 C   0  0  0  0  0  0  0  0  0  0  0  0
  203.6455   71.5156 -126.0733 C   0  0  0  0  0  0  0  0  0  0  0  0
  204.3996   72.3791 -125.0623 C   0  0  0  0  0  0  0  0  0  0  0  0
  206.5416   72.6579 -123.9267 N   0  0  0  0  0  0  0  0  0  0  0  0
  207.5790   73.4927 -124.0354 C   0  0  0  0  0  0  0  0  0  0  0  0
  208.1321   74.0044 -122.7049 C   0  0  0  0  0  0  0  0  0  0  0  0
  208.0771   73.8476 -125.1039 O   0  0  0  0  0  0  0  0  0  0  0  0
  206.2034   72.4366 -123.0290 H   0  0  0  0  0  0  0  0  0  0  0  0
  204.1982   73.7766 -125.4491 N   0  0  0  0  0  0  0  0  0  0  0  0
  203.3941   74.1592 -126.4206 C   0  0  0  0  0  0  0  0  0  0  0  0
  204.7586   74.7316 -124.9033 N   0  0  0  0  0  0  0  0  0  0  0  0
  204.4027   75.7870 -125.4327 N   0  0  0  0  0  0  0  0  0  0  0  0
  203.5415   75.4710 -126.3974 C   0  0  0  0  0  0  0  0  0  0  0  0
  202.8243   76.4473 -127.3378 C   0  0  0  0  0  0  0  0  0  0  0  0
  202.6759   77.7202 -126.6866 O   0  0  0  0  0  0  0  0  0  0  0  0
  202.1520   77.6104 -125.8776 H   0  0  0  0  0  0  0  0  0  0  0  0
  201.4430   75.8963 -127.6952 C   0  0  0  0  0  0  0  0  0  0  0  0
  201.0517   76.3284 -129.1033 C   0  0  0  0  0  0  0  0  0  0  0  0
  203.1134   69.2590 -127.0095 C   0  0  0  0  0  0  0  0  0  0  0  0
  201.8941   69.4920 -126.8297 O   0  0  0  0  0  0  0  0  0  0  0  0
  203.5821   68.2512 -127.5776 O   0  0  0  0  0  0  0  0  0  0  0  0
  204.5095   68.1546 -127.6705 H   0  0  0  0  0  0  0  0  0  0  0  0
  207.5586   70.4008 -125.0669 O   0  0  0  0  0  0  0  0  0  0  0  0
  208.0854   69.6305 -123.9764 C   0  0  0  0  0  0  0  0  0  0  0  0
  208.5502   67.2631 -123.3557 C   0  0  0  0  0  0  0  0  0  0  0  0
  208.4833   68.2579 -124.5146 C   0  0  0  0  0  0  0  0  0  0  0  0
  209.2631   70.2783 -123.2455 C   0  0  0  0  0  0  0  0  0  0  0  0
  210.2040   70.8949 -124.2956 C   0  0  0  0  0  0  0  0  0  0  0  0
 23 22  2  0  0  0
 15 14  2  0  0  0
 15 16  1  0  0  0
 14 12  1  0  0  0
 22  4  1  0  0  0
 22 24  1  0  0  0
 21 20  1  0  0  0
  4  5  2  0  0  0
  4  3  1  0  0  0
  5  6  1  0  0  0
  3  1  1  0  0  0
 16 17  1  0  0  0
 16 13  2  0  0  0
 12  6  1  0  0  0
 12 13  1  0  0  0
 17 20  1  0  0  0
 17 18  1  0  0  0
 10  8  2  0  0  0
  6  2  1  0  0  0
  2  1  1  0  0  0
  2  7  1  0  0  0
  1 26  1  0  0  0
 26 27  1  0  0  0
  8  7  1  0  0  0
  8  9  1  0  0  0
 27 29  1  0  0  0
 27 30  1  0  0  0
 28 29  1  0  0  0
 31 30  1  0  0  0
  7 11  1  0  0  0
 24 25  1  0  0  0
 18 19  1  0  0  0
M  END
> <minimizedAffinity>
-7.71741

$$$$
4KS4_1SN_A_501


 31 32  0  0  0  0  0  0  0  0999 V2000
  208.3233   71.3492 -124.2470 C   0  0  0  0  0  0  0  0  0  0  0  0
  207.3445   72.2448 -125.0057 C   0  0  0  0  0  0  0  0  0  0  0  0
  207.6269   70.7490 -123.0367 C   0  0  0  0  0  0  0  0  0  0  0  0
  207.0147   71.8561 -122.1815 C   0  0  0  0  0  0  0  0  0  0  0  0
  206.4998   73.0008 -122.7701 C   0  0  0  0  0  0  0  0  0  0  0  0
  206.9107   73.4445 -124.1737 C   0  0  0  0  0  0  0  0  0  0  0  0
  208.0177   72.7113 -126.2214 N   0  0  0  0  0  0  0  0  0  0  0  0
  207.5053   72.5251 -127.4411 C   0  0  0  0  0  0  0  0  0  0  0  0
  208.3593   73.0719 -128.5855 C   0  0  0  0  0  0  0  0  0  0  0  0
  206.4326   71.9645 -127.6667 O   0  0  0  0  0  0  0  0  0  0  0  0
  208.8796   73.1794 -126.1359 H   0  0  0  0  0  0  0  0  0  0  0  0
  205.7382   74.0635 -124.7943 N   0  0  0  0  0  0  0  0  0  0  0  0
  205.6163   75.3595 -124.9995 C   0  0  0  0  0  0  0  0  0  0  0  0
  204.7518   73.4336 -125.1874 N   0  0  0  0  0  0  0  0  0  0  0  0
  203.9201   74.2090 -125.6646 N   0  0  0  0  0  0  0  0  0  0  0  0
  204.4257   75.4365 -125.5647 C   0  0  0  0  0  0  0  0  0  0  0  0
  203.7590   76.7393 -126.0232 C   0  0  0  0  0  0  0  0  0  0  0  0
  203.9728   77.7618 -125.0357 O   0  0  0  0  0  0  0  0  0  0  0  0
  203.5849   77.4824 -124.1917 H   0  0  0  0  0  0  0  0  0  0  0  0
  202.2570   76.5131 -126.2021 C   0  0  0  0  0  0  0  0  0  0  0  0
  201.9018   76.4816 -127.6838 C   0  0  0  0  0  0  0  0  0  0  0  0
  207.0184   71.7597 -120.6622 C   0  0  0  0  0  0  0  0  0  0  0  0
  207.4202   70.6887 -120.1479 O   0  0  0  0  0  0  0  0  0  0  0  0
  206.5989   72.7527 -120.0329 O   0  0  0  0  0  0  0  0  0  0  0  0
  206.3165   73.5163 -120.4967 H   0  0  0  0  0  0  0  0  0  0  0  0
  208.6556   70.2942 -125.1354 O   0  0  0  0  0  0  0  0  0  0  0  0
  207.9381   69.0731 -124.9029 C   0  0  0  0  0  0  0  0  0  0  0  0
  205.6311   69.1198 -125.8418 C   0  0  0  0  0  0  0  0  0  0  0  0
  207.0913   68.7785 -126.1391 C   0  0  0  0  0  0  0  0  0  0  0  0
  208.8180   67.8692 -124.5604 C   0  0  0  0  0  0  0  0  0  0  0  0
  208.3437   67.2905 -123.2156 C   0  0  0  0  0  0  0  0  0  0  0  0
 23 22  2  0  0  0
 15 14  2  0  0  0
 15 16  1  0  0  0
 14 12  1  0  0  0
 22  4  1  0  0  0
 22 24  1  0  0  0
 21 20  1  0  0  0
  4  5  2  0  0  0
  4  3  1  0  0  0
  5  6  1  0  0  0
  3  1  1  0  0  0
 16 17  1  0  0  0
 16 13  2  0  0  0
 12  6  1  0  0  0
 12 13  1  0  0  0
 17 20  1  0  0  0
 17 18  1  0  0  0
 10  8  2  0  0  0
  6  2  1  0  0  0
  2  1  1  0  0  0
  2  7  1  0  0  0
  1 26  1  0  0  0
 26 27  1  0  0  0
  8  7  1  0  0  0
  8  9  1  0  0  0
 27 29  1  0  0  0
 27 30  1  0  0  0
 28 29  1  0  0  0
 31 30  1  0  0  0
  7 11  1  0  0  0
 24 25  1  0  0  0
 18 19  1  0  0  0
M  END
> <minimizedAffinity>
-7.50597

$$$$
4KS4_1SN_A_501


 31 32  0  0  0  0  0  0  0  0999 V2000
  206.6094   69.9329 -126.1092 C   0  0  0  0  0  0  0  0  0  0  0  0
  206.4552   71.3870 -125.6647 C   0  0  0  0  0  0  0  0  0  0  0  0
  205.6410   69.6449 -127.2447 C   0  0  0  0  0  0  0  0  0  0  0  0
  204.2192   70.0143 -126.8274 C   0  0  0  0  0  0  0  0  0  0  0  0
  203.9869   71.0911 -125.9857 C   0  0  0  0  0  0  0  0  0  0  0  0
  205.0768   71.6576 -125.0762 C   0  0  0  0  0  0  0  0  0  0  0  0
  207.4799   71.6543 -124.6511 N   0  0  0  0  0  0  0  0  0  0  0  0
  208.2938   72.7117 -124.7159 C   0  0  0  0  0  0  0  0  0  0  0  0
  209.3045   72.8138 -123.5730 C   0  0  0  0  0  0  0  0  0  0  0  0
  208.2623   73.5599 -125.6078 O   0  0  0  0  0  0  0  0  0  0  0  0
  207.5718   71.0313 -123.8943 H   0  0  0  0  0  0  0  0  0  0  0  0
  204.8637   73.1035 -124.9917 N   0  0  0  0  0  0  0  0  0  0  0  0
  204.3272   73.8227 -125.9570 C   0  0  0  0  0  0  0  0  0  0  0  0
  205.1626   73.7892 -124.0095 N   0  0  0  0  0  0  0  0  0  0  0  0
  204.8721   74.9697 -124.2161 N   0  0  0  0  0  0  0  0  0  0  0  0
  204.3426   75.0356 -125.4358 C   0  0  0  0  0  0  0  0  0  0  0  0
  203.8269   76.2959 -126.1411 C   0  0  0  0  0  0  0  0  0  0  0  0
  204.0858   77.4465 -125.3191 O   0  0  0  0  0  0  0  0  0  0  0  0
  203.6303   77.3453 -124.4687 H   0  0  0  0  0  0  0  0  0  0  0  0
  202.3213   76.1719 -126.3802 C   0  0  0  0  0  0  0  0  0  0  0  0
  201.9851   76.5355 -127.8215 C   0  0  0  0  0  0  0  0  0  0  0  0
  203.0327   69.1690 -127.2692 C   0  0  0  0  0  0  0  0  0  0  0  0
  201.9130   69.4307 -126.7682 O   0  0  0  0  0  0  0  0  0  0  0  0
  203.2642   68.2561 -128.0884 O   0  0  0  0  0  0  0  0  0  0  0  0
  204.1333   68.1285 -128.4144 H   0  0  0  0  0  0  0  0  0  0  0  0
  207.9304   69.8173 -126.6135 O   0  0  0  0  0  0  0  0  0  0  0  0
  208.6349   68.6474 -126.1719 C   0  0  0  0  0  0  0  0  0  0  0  0
  208.9974   68.0993 -123.7690 C   0  0  0  0  0  0  0  0  0  0  0  0
  207.9647   68.1443 -124.8954 C   0  0  0  0  0  0  0  0  0  0  0  0
  208.7214   67.5238 -127.2068 C   0  0  0  0  0  0  0  0  0  0  0  0
  210.1577   67.4831 -127.7577 C   0  0  0  0  0  0  0  0  0  0  0  0
 23 22  2  0  0  0
 15 14  2  0  0  0
 15 16  1  0  0  0
 14 12  1  0  0  0
 22  4  1  0  0  0
 22 24  1  0  0  0
 21 20  1  0  0  0
  4  5  2  0  0  0
  4  3  1  0  0  0
  5  6  1  0  0  0
  3  1  1  0  0  0
 16 17  1  0  0  0
 16 13  2  0  0  0
 12  6  1  0  0  0
 12 13  1  0  0  0
 17 20  1  0  0  0
 17 18  1  0  0  0
 10  8  2  0  0  0
  6  2  1  0  0  0
  2  1  1  0  0  0
  2  7  1  0  0  0
  1 26  1  0  0  0
 26 27  1  0  0  0
  8  7  1  0  0  0
  8  9  1  0  0  0
 27 29  1  0  0  0
 27 30  1  0  0  0
 28 29  1  0  0  0
 31 30  1  0  0  0
  7 11  1  0  0  0
 24 25  1  0  0  0
 18 19  1  0  0  0
M  END
> <minimizedAffinity>
-7.46635

$$$$
4KS4_1SN_A_501


 31 32  0  0  0  0  0  0  0  0999 V2000
  205.8437   72.5586 -124.5607 C   0  0  0  0  0  0  0  0  0  0  0  0
  205.5845   71.5323 -125.6631 C   0  0  0  0  0  0  0  0  0  0  0  0
  204.6513   73.4944 -124.4494 C   0  0  0  0  0  0  0  0  0  0  0  0
  204.3439   74.1159 -125.8100 C   0  0  0  0  0  0  0  0  0  0  0  0
  204.5417   73.3947 -126.9773 C   0  0  0  0  0  0  0  0  0  0  0  0
  205.4764   72.1868 -127.0341 C   0  0  0  0  0  0  0  0  0  0  0  0
  206.7026   70.5843 -125.6614 N   0  0  0  0  0  0  0  0  0  0  0  0
  206.5301   69.2725 -125.4759 C   0  0  0  0  0  0  0  0  0  0  0  0
  207.8173   68.4475 -125.4957 C   0  0  0  0  0  0  0  0  0  0  0  0
  205.4374   68.7326 -125.3018 O   0  0  0  0  0  0  0  0  0  0  0  0
  207.6147   70.9270 -125.8022 H   0  0  0  0  0  0  0  0  0  0  0  0
  204.8955   71.2323 -127.9800 N   0  0  0  0  0  0  0  0  0  0  0  0
  203.6397   71.2673 -128.3780 C   0  0  0  0  0  0  0  0  0  0  0  0
  205.5239   70.3045 -128.4982 N   0  0  0  0  0  0  0  0  0  0  0  0
  204.7853   69.6639 -129.2497 N   0  0  0  0  0  0  0  0  0  0  0  0
  203.5849   70.2377 -129.2025 C   0  0  0  0  0  0  0  0  0  0  0  0
  202.3313   69.7980 -129.9688 C   0  0  0  0  0  0  0  0  0  0  0  0
  201.4120   69.1648 -129.0631 O   0  0  0  0  0  0  0  0  0  0  0  0
  201.8341   68.3874 -128.6650 H   0  0  0  0  0  0  0  0  0  0  0  0
  202.7214   68.8097 -131.0689 C   0  0  0  0  0  0  0  0  0  0  0  0
  201.7634   67.6244 -131.0760 C   0  0  0  0  0  0  0  0  0  0  0  0
  203.8799   75.5617 -125.9196 C   0  0  0  0  0  0  0  0  0  0  0  0
  203.3696   75.9285 -127.0051 O   0  0  0  0  0  0  0  0  0  0  0  0
  204.0605   76.2894 -124.9217 O   0  0  0  0  0  0  0  0  0  0  0  0
  204.4499   75.9341 -124.1471 H   0  0  0  0  0  0  0  0  0  0  0  0
  205.9404   71.8187 -123.3540 O   0  0  0  0  0  0  0  0  0  0  0  0
  206.6542   72.4864 -122.3030 C   0  0  0  0  0  0  0  0  0  0  0  0
  207.7135   70.2466 -122.0439 C   0  0  0  0  0  0  0  0  0  0  0  0
  207.1070   71.4330 -121.2944 C   0  0  0  0  0  0  0  0  0  0  0  0
  207.8464   73.3236 -122.7707 C   0  0  0  0  0  0  0  0  0  0  0  0
  207.6835   74.7496 -122.2157 C   0  0  0  0  0  0  0  0  0  0  0  0
 23 22  2  0  0  0
 15 14  2  0  0  0
 15 16  1  0  0  0
 14 12  1  0  0  0
 22  4  1  0  0  0
 22 24  1  0  0  0
 21 20  1  0  0  0
  4  5  2  0  0  0
  4  3  1  0  0  0
  5  6  1  0  0  0
  3  1  1  0  0  0
 16 17  1  0  0  0
 16 13  2  0  0  0
 12  6  1  0  0  0
 12 13  1  0  0  0
 17 20  1  0  0  0
 17 18  1  0  0  0
 10  8  2  0  0  0
  6  2  1  0  0  0
  2  1  1  0  0  0
  2  7  1  0  0  0
  1 26  1  0  0  0
 26 27  1  0  0  0
  8  7  1  0  0  0
  8  9  1  0  0  0
 27 29  1  0  0  0
 27 30  1  0  0  0
 28 29  1  0  0  0
 31 30  1  0  0  0
  7 11  1  0  0  0
 24 25  1  0  0  0
 18 19  1  0  0  0
M  END
> <minimizedAffinity>
-7.16858

$$$$
4KS4_1SN_A_501


 31 32  0  0  0  0  0  0  0  0999 V2000
  208.1322   69.6405 -126.8110 C   0  0  0  0  0  0  0  0  0  0  0  0
  208.1363   70.6000 -125.6214 C   0  0  0  0  0  0  0  0  0  0  0  0
  206.8087   69.7547 -127.5493 C   0  0  0  0  0  0  0  0  0  0  0  0
  205.6479   69.5402 -126.5806 C   0  0  0  0  0  0  0  0  0  0  0  0
  205.7371   69.9677 -125.2648 C   0  0  0  0  0  0  0  0  0  0  0  0
  207.0824   70.2267 -124.5872 C   0  0  0  0  0  0  0  0  0  0  0  0
  209.4658   70.5421 -125.0065 N   0  0  0  0  0  0  0  0  0  0  0  0
  210.1701   71.6397 -124.7167 C   0  0  0  0  0  0  0  0  0  0  0  0
  211.5397   71.3757 -124.0901 C   0  0  0  0  0  0  0  0  0  0  0  0
  209.7809   72.7898 -124.9206 O   0  0  0  0  0  0  0  0  0  0  0  0
  209.8542   69.6614 -124.7995 H   0  0  0  0  0  0  0  0  0  0  0  0
  206.8949   71.3467 -123.6634 N   0  0  0  0  0  0  0  0  0  0  0  0
  206.4138   72.5199 -124.0225 C   0  0  0  0  0  0  0  0  0  0  0  0
  207.1661   71.3017 -122.4598 N   0  0  0  0  0  0  0  0  0  0  0  0
  206.9081   72.3848 -121.9295 N   0  0  0  0  0  0  0  0  0  0  0  0
  206.4316   73.1840 -122.8816 C   0  0  0  0  0  0  0  0  0  0  0  0
  205.9712   74.6367 -122.7092 C   0  0  0  0  0  0  0  0  0  0  0  0
  204.5391   74.7026 -122.8156 O   0  0  0  0  0  0  0  0  0  0  0  0
  204.2645   74.3802 -123.6882 H   0  0  0  0  0  0  0  0  0  0  0  0
  206.6011   75.5083 -123.7968 C   0  0  0  0  0  0  0  0  0  0  0  0
  205.5662   75.8523 -124.8613 C   0  0  0  0  0  0  0  0  0  0  0  0
  204.3960   68.7921 -127.0175 C   0  0  0  0  0  0  0  0  0  0  0  0
  203.5381   69.4277 -127.6757 O   0  0  0  0  0  0  0  0  0  0  0  0
  204.3026   67.5971 -126.6695 O   0  0  0  0  0  0  0  0  0  0  0  0
  204.9923   67.1971 -126.1772 H   0  0  0  0  0  0  0  0  0  0  0  0
  209.1628   70.0887 -127.6770 O   0  0  0  0  0  0  0  0  0  0  0  0
  210.0071   69.0456 -128.1858 C   0  0  0  0  0  0  0  0  0  0  0  0
  211.6224   70.9398 -128.0935 C   0  0  0  0  0  0  0  0  0  0  0  0
  211.4579   69.4315 -127.9061 C   0  0  0  0  0  0  0  0  0  0  0  0
  209.7094   67.6522 -127.6284 C   0  0  0  0  0  0  0  0  0  0  0  0
  210.1494   66.6098 -128.6714 C   0  0  0  0  0  0  0  0  0  0  0  0
 23 22  2  0  0  0
 15 14  2  0  0  0
 15 16  1  0  0  0
 14 12  1  0  0  0
 22  4  1  0  0  0
 22 24  1  0  0  0
 21 20  1  0  0  0
  4  5  2  0  0  0
  4  3  1  0  0  0
  5  6  1  0  0  0
  3  1  1  0  0  0
 16 17  1  0  0  0
 16 13  2  0  0  0
 12  6  1  0  0  0
 12 13  1  0  0  0
 17 20  1  0  0  0
 17 18  1  0  0  0
 10  8  2  0  0  0
  6  2  1  0  0  0
  2  1  1  0  0  0
  2  7  1  0  0  0
  1 26  1  0  0  0
 26 27  1  0  0  0
  8  7  1  0  0  0
  8  9  1  0  0  0
 27 29  1  0  0  0
 27 30  1  0  0  0
 28 29  1  0  0  0
 31 30  1  0  0  0
  7 11  1  0  0  0
 24 25  1  0  0  0
 18 19  1  0  0  0
M  END
> <minimizedAffinity>
-7.09814

$$$$
4KS4_1SN_A_501


 31 32  0  0  0  0  0  0  0  0999 V2000
  208.3273   70.7344 -125.5641 C   0  0  0  0  0  0  0  0  0  0  0  0
  206.8389   70.5596 -125.8640 C   0  0  0  0  0  0  0  0  0  0  0  0
  209.1430   70.2667 -126.7583 C   0  0  0  0  0  0  0  0  0  0  0  0
  208.7532   68.8384 -127.1323 C   0  0  0  0  0  0  0  0  0  0  0  0
  207.4469   68.3997 -126.9813 C   0  0  0  0  0  0  0  0  0  0  0  0
  206.4634   69.0941 -126.0397 C   0  0  0  0  0  0  0  0  0  0  0  0
  206.0881   71.1246 -124.7389 N   0  0  0  0  0  0  0  0  0  0  0  0
  205.2375   72.1445 -124.8845 C   0  0  0  0  0  0  0  0  0  0  0  0
  204.5578   72.6017 -123.5934 C   0  0  0  0  0  0  0  0  0  0  0  0
  204.9918   72.6975 -125.9567 O   0  0  0  0  0  0  0  0  0  0  0  0
  206.2155   70.7381 -123.8424 H   0  0  0  0  0  0  0  0  0  0  0  0
  205.1377   69.0060 -126.6545 N   0  0  0  0  0  0  0  0  0  0  0  0
  204.7872   69.6691 -127.7381 C   0  0  0  0  0  0  0  0  0  0  0  0
  204.2209   68.3021 -126.2207 N   0  0  0  0  0  0  0  0  0  0  0  0
  203.2227   68.4242 -126.9344 N   0  0  0  0  0  0  0  0  0  0  0  0
  203.5366   69.2801 -127.9046 C   0  0  0  0  0  0  0  0  0  0  0  0
  202.6190   69.7512 -129.0395 C   0  0  0  0  0  0  0  0  0  0  0  0
  201.3025   69.2057 -128.8509 O   0  0  0  0  0  0  0  0  0  0  0  0
  201.3500   68.2368 -128.8576 H   0  0  0  0  0  0  0  0  0  0  0  0
  203.1769   69.2769 -130.3824 C   0  0  0  0  0  0  0  0  0  0  0  0
  202.1394   68.4356 -131.1162 C   0  0  0  0  0  0  0  0  0  0  0  0
  209.8017   67.8449 -127.6132 C   0  0  0  0  0  0  0  0  0  0  0  0
  209.5011   66.6273 -127.5955 O   0  0  0  0  0  0  0  0  0  0  0  0
  210.9005   68.3145 -127.9739 O   0  0  0  0  0  0  0  0  0  0  0  0
  211.0427   69.2405 -127.9563 H   0  0  0  0  0  0  0  0  0  0  0  0
  208.5322   72.1294 -125.4066 O   0  0  0  0  0  0  0  0  0  0  0  0
  209.3912   72.4842 -124.3129 C   0  0  0  0  0  0  0  0  0  0  0  0
  207.9251   74.4601 -123.9230 C   0  0  0  0  0  0  0  0  0  0  0  0
  208.5537   73.2268 -123.2742 C   0  0  0  0  0  0  0  0  0  0  0  0
  210.1220   71.3064 -123.6650 C   0  0  0  0  0  0  0  0  0  0  0  0
  211.6238   71.4406 -123.9727 C   0  0  0  0  0  0  0  0  0  0  0  0
 23 22  2  0  0  0
 15 14  2  0  0  0
 15 16  1  0  0  0
 14 12  1  0  0  0
 22  4  1  0  0  0
 22 24  1  0  0  0
 21 20  1  0  0  0
  4  5  2  0  0  0
  4  3  1  0  0  0
  5  6  1  0  0  0
  3  1  1  0  0  0
 16 17  1  0  0  0
 16 13  2  0  0  0
 12  6  1  0  0  0
 12 13  1  0  0  0
 17 20  1  0  0  0
 17 18  1  0  0  0
 10  8  2  0  0  0
  6  2  1  0  0  0
  2  1  1  0  0  0
  2  7  1  0  0  0
  1 26  1  0  0  0
 26 27  1  0  0  0
  8  7  1  0  0  0
  8  9  1  0  0  0
 27 29  1  0  0  0
 27 30  1  0  0  0
 28 29  1  0  0  0
 31 30  1  0  0  0
  7 11  1  0  0  0
 24 25  1  0  0  0
 18 19  1  0  0  0
M  END
> <minimizedAffinity>
-6.96275

$$$$
4KS4_1SN_A_501


 31 32  0  0  0  0  0  0  0  0999 V2000
  205.9319   72.0060 -125.0621 C   0  0  0  0  0  0  0  0  0  0  0  0
  206.9849   70.9264 -125.3099 C   0  0  0  0  0  0  0  0  0  0  0  0
  204.5497   71.3740 -125.0581 C   0  0  0  0  0  0  0  0  0  0  0  0
  204.3309   70.5838 -126.3464 C   0  0  0  0  0  0  0  0  0  0  0  0
  205.3848   69.9218 -126.9571 C   0  0  0  0  0  0  0  0  0  0  0  0
  206.8416   70.2997 -126.6905 C   0  0  0  0  0  0  0  0  0  0  0  0
  208.3040   71.5553 -125.1936 N   0  0  0  0  0  0  0  0  0  0  0  0
  209.1759   71.2212 -124.2381 C   0  0  0  0  0  0  0  0  0  0  0  0
  210.4937   71.9958 -124.2734 C   0  0  0  0  0  0  0  0  0  0  0  0
  208.9723   70.3615 -123.3806 O   0  0  0  0  0  0  0  0  0  0  0  0
  208.5568   72.2498 -125.8440 H   0  0  0  0  0  0  0  0  0  0  0  0
  207.6271   69.0655 -126.7441 N   0  0  0  0  0  0  0  0  0  0  0  0
  208.4343   68.7534 -127.7380 C   0  0  0  0  0  0  0  0  0  0  0  0
  207.6124   68.1990 -125.8648 N   0  0  0  0  0  0  0  0  0  0  0  0
  208.3665   67.2734 -126.1733 N   0  0  0  0  0  0  0  0  0  0  0  0
  208.9055   67.5825 -127.3508 C   0  0  0  0  0  0  0  0  0  0  0  0
  209.9096   66.7389 -128.1456 C   0  0  0  0  0  0  0  0  0  0  0  0
  211.1447   66.6478 -127.4157 O   0  0  0  0  0  0  0  0  0  0  0  0
  211.5076   67.5374 -127.2820 H   0  0  0  0  0  0  0  0  0  0  0  0
  210.1701   67.3932 -129.5033 C   0  0  0  0  0  0  0  0  0  0  0  0
  209.9535   66.3840 -130.6246 C   0  0  0  0  0  0  0  0  0  0  0  0
  202.9686   70.5620 -127.0256 C   0  0  0  0  0  0  0  0  0  0  0  0
  202.2057   69.6000 -126.7691 O   0  0  0  0  0  0  0  0  0  0  0  0
  202.7145   71.4986 -127.8106 O   0  0  0  0  0  0  0  0  0  0  0  0
  203.3428   72.1805 -127.9454 H   0  0  0  0  0  0  0  0  0  0  0  0
  206.1911   72.5127 -123.7626 O   0  0  0  0  0  0  0  0  0  0  0  0
  206.0644   73.9375 -123.6439 C   0  0  0  0  0  0  0  0  0  0  0  0
  208.2825   74.6536 -122.7646 C   0  0  0  0  0  0  0  0  0  0  0  0
  206.8247   74.3784 -122.3952 C   0  0  0  0  0  0  0  0  0  0  0  0
  206.5419   74.7263 -124.8649 C   0  0  0  0  0  0  0  0  0  0  0  0
  205.5401   75.8645 -125.1274 C   0  0  0  0  0  0  0  0  0  0  0  0
 23 22  2  0  0  0
 15 14  2  0  0  0
 15 16  1  0  0  0
 14 12  1  0  0  0
 22  4  1  0  0  0
 22 24  1  0  0  0
 21 20  1  0  0  0
  4  5  2  0  0  0
  4  3  1  0  0  0
  5  6  1  0  0  0
  3  1  1  0  0  0
 16 17  1  0  0  0
 16 13  2  0  0  0
 12  6  1  0  0  0
 12 13  1  0  0  0
 17 20  1  0  0  0
 17 18  1  0  0  0
 10  8  2  0  0  0
  6  2  1  0  0  0
  2  1  1  0  0  0
  2  7  1  0  0  0
  1 26  1  0  0  0
 26 27  1  0  0  0
  8  7  1  0  0  0
  8  9  1  0  0  0
 27 29  1  0  0  0
 27 30  1  0  0  0
 28 29  1  0  0  0
 31 30  1  0  0  0
  7 11  1  0  0  0
 24 25  1  0  0  0
 18 19  1  0  0  0
M  END
> <minimizedAffinity>
-6.82623

$$$$
4KS4_1SN_A_501


 31 32  0  0  0  0  0  0  0  0999 V2000
  207.8843   71.5224 -125.0757 C   0  0  0  0  0  0  0  0  0  0  0  0
  208.4000   70.8775 -126.3617 C   0  0  0  0  0  0  0  0  0  0  0  0
  208.4546   70.7851 -123.8753 C   0  0  0  0  0  0  0  0  0  0  0  0
  208.1479   69.2930 -123.9824 C   0  0  0  0  0  0  0  0  0  0  0  0
  208.1129   68.6656 -125.2181 C   0  0  0  0  0  0  0  0  0  0  0  0
  207.9059   69.4452 -126.5163 C   0  0  0  0  0  0  0  0  0  0  0  0
  207.9204   71.6838 -127.4882 N   0  0  0  0  0  0  0  0  0  0  0  0
  208.7284   72.4763 -128.1981 C   0  0  0  0  0  0  0  0  0  0  0  0
  208.0415   73.2468 -129.3261 C   0  0  0  0  0  0  0  0  0  0  0  0
  209.9358   72.6016 -127.9926 O   0  0  0  0  0  0  0  0  0  0  0  0
  206.9672   71.6397 -127.7306 H   0  0  0  0  0  0  0  0  0  0  0  0
  208.6890   68.7742 -127.5554 N   0  0  0  0  0  0  0  0  0  0  0  0
  209.5827   67.8375 -127.3092 C   0  0  0  0  0  0  0  0  0  0  0  0
  208.5878   69.0175 -128.7616 N   0  0  0  0  0  0  0  0  0  0  0  0
  209.3656   68.3059 -129.4012 N   0  0  0  0  0  0  0  0  0  0  0  0
  210.0149   67.5457 -128.5220 C   0  0  0  0  0  0  0  0  0  0  0  0
  211.0886   66.4972 -128.8380 C   0  0  0  0  0  0  0  0  0  0  0  0
  210.5572   65.1813 -128.6089 O   0  0  0  0  0  0  0  0  0  0  0  0
  210.2902   65.0976 -127.6801 H   0  0  0  0  0  0  0  0  0  0  0  0
  212.3039   66.7176 -127.9359 C   0  0  0  0  0  0  0  0  0  0  0  0
  213.1938   67.8138 -128.5094 C   0  0  0  0  0  0  0  0  0  0  0  0
  207.8062   68.4765 -122.7438 C   0  0  0  0  0  0  0  0  0  0  0  0
  207.7359   67.2305 -122.8691 O   0  0  0  0  0  0  0  0  0  0  0  0
  207.5987   69.1112 -121.6892 O   0  0  0  0  0  0  0  0  0  0  0  0
  207.6728   70.0453 -121.6822 H   0  0  0  0  0  0  0  0  0  0  0  0
  208.3988   72.8446 -125.0690 O   0  0  0  0  0  0  0  0  0  0  0  0
  207.5298   73.8174 -124.4702 C   0  0  0  0  0  0  0  0  0  0  0  0
  207.5031   74.7629 -122.1656 C   0  0  0  0  0  0  0  0  0  0  0  0
  208.3364   74.6009 -123.4370 C   0  0  0  0  0  0  0  0  0  0  0  0
  206.8607   74.7731 -125.4601 C   0  0  0  0  0  0  0  0  0  0  0  0
  205.3358   74.6055 -125.3387 C   0  0  0  0  0  0  0  0  0  0  0  0
 23 22  2  0  0  0
 15 14  2  0  0  0
 15 16  1  0  0  0
 14 12  1  0  0  0
 22  4  1  0  0  0
 22 24  1  0  0  0
 21 20  1  0  0  0
  4  5  2  0  0  0
  4  3  1  0  0  0
  5  6  1  0  0  0
  3  1  1  0  0  0
 16 17  1  0  0  0
 16 13  2  0  0  0
 12  6  1  0  0  0
 12 13  1  0  0  0
 17 20  1  0  0  0
 17 18  1  0  0  0
 10  8  2  0  0  0
  6  2  1  0  0  0
  2  1  1  0  0  0
  2  7  1  0  0  0
  1 26  1  0  0  0
 26 27  1  0  0  0
  8  7  1  0  0  0
  8  9  1  0  0  0
 27 29  1  0  0  0
 27 30  1  0  0  0
 28 29  1  0  0  0
 31 30  1  0  0  0
  7 11  1  0  0  0
 24 25  1  0  0  0
 18 19  1  0  0  0
M  END
> <minimizedAffinity>
-6.46033

$$$$
4KS4_1SN_A_501


 31 32  0  0  0  0  0  0  0  0999 V2000
  207.6958   69.9862 -128.4459 C   0  0  0  0  0  0  0  0  0  0  0  0
  206.7315   70.5408 -127.3979 C   0  0  0  0  0  0  0  0  0  0  0  0
  209.0792   70.5749 -128.2231 C   0  0  0  0  0  0  0  0  0  0  0  0
  209.0027   72.0999 -128.2018 C   0  0  0  0  0  0  0  0  0  0  0  0
  207.8919   72.7446 -127.6798 C   0  0  0  0  0  0  0  0  0  0  0  0
  206.5402   72.0448 -127.5418 C   0  0  0  0  0  0  0  0  0  0  0  0
  205.4427   69.8653 -127.5762 N   0  0  0  0  0  0  0  0  0  0  0  0
  204.8973   69.0993 -126.6272 C   0  0  0  0  0  0  0  0  0  0  0  0
  203.5554   68.4703 -127.0036 C   0  0  0  0  0  0  0  0  0  0  0  0
  205.4029   68.8937 -125.5236 O   0  0  0  0  0  0  0  0  0  0  0  0
  204.9612   69.9803 -128.4271 H   0  0  0  0  0  0  0  0  0  0  0  0
  205.9017   72.5679 -126.3328 N   0  0  0  0  0  0  0  0  0  0  0  0
  206.5647   73.1010 -125.3263 C   0  0  0  0  0  0  0  0  0  0  0  0
  204.6825   72.5632 -126.1386 N   0  0  0  0  0  0  0  0  0  0  0  0
  204.4293   73.0637 -125.0404 N   0  0  0  0  0  0  0  0  0  0  0  0
  205.5905   73.4161 -124.4928 C   0  0  0  0  0  0  0  0  0  0  0  0
  205.7915   74.0804 -123.1253 C   0  0  0  0  0  0  0  0  0  0  0  0
  204.5674   74.7112 -122.7129 O   0  0  0  0  0  0  0  0  0  0  0  0
  204.3160   75.3853 -123.3634 H   0  0  0  0  0  0  0  0  0  0  0  0
  206.8968   75.1331 -123.2224 C   0  0  0  0  0  0  0  0  0  0  0  0
  208.0682   74.7513 -122.3253 C   0  0  0  0  0  0  0  0  0  0  0  0
  210.1110   72.9447 -128.8147 C   0  0  0  0  0  0  0  0  0  0  0  0
  209.9570   73.3391 -129.9953 O   0  0  0  0  0  0  0  0  0  0  0  0
  211.1100   73.1688 -128.1007 O   0  0  0  0  0  0  0  0  0  0  0  0
  211.1446   72.8358 -127.2256 H   0  0  0  0  0  0  0  0  0  0  0  0
  207.7659   68.5888 -128.2107 O   0  0  0  0  0  0  0  0  0  0  0  0
  208.9363   68.1642 -127.4966 C   0  0  0  0  0  0  0  0  0  0  0  0
  208.8812   68.6195 -125.0481 C   0  0  0  0  0  0  0  0  0  0  0  0
  208.4927   67.6222 -126.1397 C   0  0  0  0  0  0  0  0  0  0  0  0
  209.7929   67.1297 -128.2295 C   0  0  0  0  0  0  0  0  0  0  0  0
  211.2467   67.6336 -128.2511 C   0  0  0  0  0  0  0  0  0  0  0  0
 23 22  2  0  0  0
 15 14  2  0  0  0
 15 16  1  0  0  0
 14 12  1  0  0  0
 22  4  1  0  0  0
 22 24  1  0  0  0
 21 20  1  0  0  0
  4  5  2  0  0  0
  4  3  1  0  0  0
  5  6  1  0  0  0
  3  1  1  0  0  0
 16 17  1  0  0  0
 16 13  2  0  0  0
 12  6  1  0  0  0
 12 13  1  0  0  0
 17 20  1  0  0  0
 17 18  1  0  0  0
 10  8  2  0  0  0
  6  2  1  0  0  0
  2  1  1  0  0  0
  2  7  1  0  0  0
  1 26  1  0  0  0
 26 27  1  0  0  0
  8  7  1  0  0  0
  8  9  1  0  0  0
 27 29  1  0  0  0
 27 30  1  0  0  0
 28 29  1  0  0  0
 31 30  1  0  0  0
  7 11  1  0  0  0
 24 25  1  0  0  0
 18 19  1  0  0  0
M  END
> <minimizedAffinity>
-6.45087

$$$$
4KS4_1SN_A_501


 31 32  0  0  0  0  0  0  0  0999 V2000
  206.1955   71.3922 -124.6034 C   0  0  0  0  0  0  0  0  0  0  0  0
  205.5128   71.2734 -125.9656 C   0  0  0  0  0  0  0  0  0  0  0  0
  207.4534   70.5392 -124.5912 C   0  0  0  0  0  0  0  0  0  0  0  0
  207.1172   69.1037 -124.9889 C   0  0  0  0  0  0  0  0  0  0  0  0
  206.1216   68.8423 -125.9176 C   0  0  0  0  0  0  0  0  0  0  0  0
  205.0226   69.8565 -126.2334 C   0  0  0  0  0  0  0  0  0  0  0  0
  204.3724   72.1945 -125.9745 N   0  0  0  0  0  0  0  0  0  0  0  0
  204.1812   73.0896 -126.9477 C   0  0  0  0  0  0  0  0  0  0  0  0
  202.9425   73.9693 -126.7753 C   0  0  0  0  0  0  0  0  0  0  0  0
  204.9200   73.2246 -127.9232 O   0  0  0  0  0  0  0  0  0  0  0  0
  203.7231   72.1518 -125.2356 H   0  0  0  0  0  0  0  0  0  0  0  0
  204.6994   69.7183 -127.6545 N   0  0  0  0  0  0  0  0  0  0  0  0
  203.4748   69.7832 -128.1370 C   0  0  0  0  0  0  0  0  0  0  0  0
  205.5403   69.5300 -128.5386 N   0  0  0  0  0  0  0  0  0  0  0  0
  204.9857   69.4525 -129.6373 N   0  0  0  0  0  0  0  0  0  0  0  0
  203.6798   69.6057 -129.4291 C   0  0  0  0  0  0  0  0  0  0  0  0
  202.5763   69.5859 -130.4939 C   0  0  0  0  0  0  0  0  0  0  0  0
  201.3938   70.2152 -129.9722 O   0  0  0  0  0  0  0  0  0  0  0  0
  201.0908   69.7332 -129.1868 H   0  0  0  0  0  0  0  0  0  0  0  0
  202.2552   68.1398 -130.8749 C   0  0  0  0  0  0  0  0  0  0  0  0
  200.7620   67.9832 -131.1367 C   0  0  0  0  0  0  0  0  0  0  0  0
  207.8182   67.9265 -124.3254 C   0  0  0  0  0  0  0  0  0  0  0  0
  207.7001   67.8038 -123.0828 O   0  0  0  0  0  0  0  0  0  0  0  0
  208.4821   67.1738 -125.0677 O   0  0  0  0  0  0  0  0  0  0  0  0
  208.5176   67.3374 -125.9896 H   0  0  0  0  0  0  0  0  0  0  0  0
  206.5809   72.7518 -124.4776 O   0  0  0  0  0  0  0  0  0  0  0  0
  206.2223   73.3579 -123.2270 C   0  0  0  0  0  0  0  0  0  0  0  0
  208.6486   73.8622 -123.4805 C   0  0  0  0  0  0  0  0  0  0  0  0
  207.5093   73.6911 -122.4757 C   0  0  0  0  0  0  0  0  0  0  0  0
  205.3391   74.6013 -123.3485 C   0  0  0  0  0  0  0  0  0  0  0  0
  205.7052   75.3290 -124.6540 C   0  0  0  0  0  0  0  0  0  0  0  0
 23 22  2  0  0  0
 15 14  2  0  0  0
 15 16  1  0  0  0
 14 12  1  0  0  0
 22  4  1  0  0  0
 22 24  1  0  0  0
 21 20  1  0  0  0
  4  5  2  0  0  0
  4  3  1  0  0  0
  5  6  1  0  0  0
  3  1  1  0  0  0
 16 17  1  0  0  0
 16 13  2  0  0  0
 12  6  1  0  0  0
 12 13  1  0  0  0
 17 20  1  0  0  0
 17 18  1  0  0  0
 10  8  2  0  0  0
  6  2  1  0  0  0
  2  1  1  0  0  0
  2  7  1  0  0  0
  1 26  1  0  0  0
 26 27  1  0  0  0
  8  7  1  0  0  0
  8  9  1  0  0  0
 27 29  1  0  0  0
 27 30  1  0  0  0
 28 29  1  0  0  0
 31 30  1  0  0  0
  7 11  1  0  0  0
 24 25  1  0  0  0
 18 19  1  0  0  0
M  END
> <minimizedAffinity>
-6.40171

$$$$
