2ZCS_B70_A_640


 27 28  0  0  0  0  0  0  0  0999 V2000
   55.8693   13.2472   52.4576 C   0  0  0  0  0  0  0  0  0  0  0  0
   56.3009   13.8089   53.8160 C   0  0  0  0  0  0  0  0  0  0  0  0
   57.2924   18.0103   53.5910 C   0  0  0  0  0  0  0  0  0  0  0  0
   57.7892   17.2225   54.6235 C   0  0  0  0  0  0  0  0  0  0  0  0
   57.4815   15.8672   54.6849 C   0  0  0  0  0  0  0  0  0  0  0  0
   56.4908   17.4323   52.6139 C   0  0  0  0  0  0  0  0  0  0  0  0
   56.1820   16.0772   52.6772 C   0  0  0  0  0  0  0  0  0  0  0  0
   56.6732   15.2901   53.7142 C   0  0  0  0  0  0  0  0  0  0  0  0
   57.2104   20.1490   52.4705 C   0  0  0  0  0  0  0  0  0  0  0  0
   57.5886   21.4854   52.3997 C   0  0  0  0  0  0  0  0  0  0  0  0
   58.3641   22.0481   53.4079 C   0  0  0  0  0  0  0  0  0  0  0  0
   58.7522   21.2667   54.4895 C   0  0  0  0  0  0  0  0  0  0  0  0
   58.3727   19.9299   54.5604 C   0  0  0  0  0  0  0  0  0  0  0  0
   57.6069   19.3635   53.5474 C   0  0  0  0  0  0  0  0  0  0  0  0
   54.5174   12.5327   52.5403 C   0  0  0  0  0  0  0  0  0  0  0  0
   54.4055   11.6240   53.7675 C   0  0  0  0  0  0  0  0  0  0  0  0
   54.9261    9.9081   53.3679 P   0  0  0  0  0  0  0  0  0  0  0  0
   56.1538    9.5292   54.3389 O   0  0  0  0  0  0  0  0  0  0  0  0
   53.6981    8.9712   53.8215 O   0  0  0  0  0  0  0  0  0  0  0  0
   55.2793    9.7608   51.9379 O   0  0  0  0  0  0  0  0  0  0  0  0
   56.9266   10.0682   54.1083 H   0  0  0  0  0  0  0  0  0  0  0  0
   52.9257    9.1588   53.2656 H   0  0  0  0  0  0  0  0  0  0  0  0
   52.7106   11.6248   54.4632 S   0  0  0  0  0  0  0  0  0  0  0  0
   52.3951   12.9417   54.9276 O   0  0  0  0  0  0  0  0  0  0  0  0
   52.6148   10.6685   55.6165 O   0  0  0  0  0  0  0  0  0  0  0  0
   51.7280   11.2150   53.4062 O   0  0  0  0  0  0  0  0  0  0  0  0
   53.2477   10.9273   56.3045 H   0  0  0  0  0  0  0  0  0  0  0  0
  9 10  2  0  0  0
  9 14  1  0  0  0
 10 11  1  0  0  0
 11 12  2  0  0  0
 12 13  1  0  0  0
 13 14  2  0  0  0
 14  3  1  0  0  0
  3  4  2  0  0  0
  3  6  1  0  0  0
  4  5  1  0  0  0
  5  8  2  0  0  0
  6  7  2  0  0  0
  7  8  1  0  0  0
  8  2  1  0  0  0
  2  1  1  0  0  0
  1 15  1  0  0  0
 15 16  1  0  0  0
 16 23  1  0  0  0
 23 24  2  0  0  0
 23 25  1  0  0  0
 23 26  2  0  0  0
 16 17  1  0  0  0
 17 20  2  0  0  0
 17 18  1  0  0  0
 17 19  1  0  0  0
 18 21  1  0  0  0
 19 22  1  0  0  0
 25 27  1  0  0  0
M  END
> <minimizedAffinity>
-10.98755

$$$$
2ZCS_B70_A_640


 27 28  0  0  0  0  0  0  0  0999 V2000
   55.5057   13.3848   52.0853 C   0  0  0  0  0  0  0  0  0  0  0  0
   56.1277   13.7647   53.4329 C   0  0  0  0  0  0  0  0  0  0  0  0
   57.3001   17.9252   53.4708 C   0  0  0  0  0  0  0  0  0  0  0  0
   56.4751   17.4338   52.4651 C   0  0  0  0  0  0  0  0  0  0  0  0
   56.0864   16.0980   52.4638 C   0  0  0  0  0  0  0  0  0  0  0  0
   57.7287   17.0732   54.4817 C   0  0  0  0  0  0  0  0  0  0  0  0
   57.3411   15.7370   54.4786 C   0  0  0  0  0  0  0  0  0  0  0  0
   56.5213   15.2435   53.4684 C   0  0  0  0  0  0  0  0  0  0  0  0
   58.4684   19.7867   54.4736 C   0  0  0  0  0  0  0  0  0  0  0  0
   58.7878   21.1402   54.4873 C   0  0  0  0  0  0  0  0  0  0  0  0
   58.3253   21.9791   53.4789 C   0  0  0  0  0  0  0  0  0  0  0  0
   57.5476   21.4533   52.4543 C   0  0  0  0  0  0  0  0  0  0  0  0
   57.2292   20.0988   52.4405 C   0  0  0  0  0  0  0  0  0  0  0  0
   57.6817   19.2615   53.4542 C   0  0  0  0  0  0  0  0  0  0  0  0
   54.3409   12.4048   52.2517 C   0  0  0  0  0  0  0  0  0  0  0  0
   54.3993   11.6399   53.5768 C   0  0  0  0  0  0  0  0  0  0  0  0
   55.0024    9.9235   53.3222 P   0  0  0  0  0  0  0  0  0  0  0  0
   56.1019    9.6162   54.4581 O   0  0  0  0  0  0  0  0  0  0  0  0
   53.7457    8.9740   53.6547 O   0  0  0  0  0  0  0  0  0  0  0  0
   55.5405    9.7277   51.9570 O   0  0  0  0  0  0  0  0  0  0  0  0
   56.8867   10.1653   54.3054 H   0  0  0  0  0  0  0  0  0  0  0  0
   53.0479    9.1189   52.9966 H   0  0  0  0  0  0  0  0  0  0  0  0
   52.7749   11.6203   54.4239 S   0  0  0  0  0  0  0  0  0  0  0  0
   52.5063   12.9231   54.9530 O   0  0  0  0  0  0  0  0  0  0  0  0
   52.7822   10.6309   55.5530 O   0  0  0  0  0  0  0  0  0  0  0  0
   51.6990   11.2412   53.4496 O   0  0  0  0  0  0  0  0  0  0  0  0
   53.4759   10.8697   56.1876 H   0  0  0  0  0  0  0  0  0  0  0  0
  9 10  2  0  0  0
  9 14  1  0  0  0
 10 11  1  0  0  0
 11 12  2  0  0  0
 12 13  1  0  0  0
 13 14  2  0  0  0
 14  3  1  0  0  0
  3  4  2  0  0  0
  3  6  1  0  0  0
  4  5  1  0  0  0
  5  8  2  0  0  0
  6  7  2  0  0  0
  7  8  1  0  0  0
  8  2  1  0  0  0
  2  1  1  0  0  0
  1 15  1  0  0  0
 15 16  1  0  0  0
 16 23  1  0  0  0
 23 24  2  0  0  0
 23 25  1  0  0  0
 23 26  2  0  0  0
 16 17  1  0  0  0
 17 20  2  0  0  0
 17 18  1  0  0  0
 17 19  1  0  0  0
 18 21  1  0  0  0
 19 22  1  0  0  0
 25 27  1  0  0  0
M  END
> <minimizedAffinity>
-10.94428

$$$$
2ZCS_B70_A_640


 27 28  0  0  0  0  0  0  0  0999 V2000
   55.7077   13.2676   52.1230 C   0  0  0  0  0  0  0  0  0  0  0  0
   56.0152   13.8041   53.5246 C   0  0  0  0  0  0  0  0  0  0  0  0
   57.2696   17.9400   53.4459 C   0  0  0  0  0  0  0  0  0  0  0  0
   57.7150   17.0867   54.4493 C   0  0  0  0  0  0  0  0  0  0  0  0
   57.3225   15.7521   54.4635 C   0  0  0  0  0  0  0  0  0  0  0  0
   56.4339   17.4483   52.4503 C   0  0  0  0  0  0  0  0  0  0  0  0
   56.0402   16.1140   52.4664 C   0  0  0  0  0  0  0  0  0  0  0  0
   56.4802   15.2616   53.4744 C   0  0  0  0  0  0  0  0  0  0  0  0
   58.4569   19.7723   54.4798 C   0  0  0  0  0  0  0  0  0  0  0  0
   58.7938   21.1211   54.5136 C   0  0  0  0  0  0  0  0  0  0  0  0
   58.3476   21.9797   53.5145 C   0  0  0  0  0  0  0  0  0  0  0  0
   57.5684   21.4780   52.4789 C   0  0  0  0  0  0  0  0  0  0  0  0
   57.2325   20.1282   52.4450 C   0  0  0  0  0  0  0  0  0  0  0  0
   57.6687   19.2714   53.4494 C   0  0  0  0  0  0  0  0  0  0  0  0
   54.3096   12.6479   52.0444 C   0  0  0  0  0  0  0  0  0  0  0  0
   54.1907   11.3572   52.8594 C   0  0  0  0  0  0  0  0  0  0  0  0
   54.2099    9.8816   51.7653 P   0  0  0  0  0  0  0  0  0  0  0  0
   53.5438   10.3034   50.3610 O   0  0  0  0  0  0  0  0  0  0  0  0
   55.7637    9.6012   51.4512 O   0  0  0  0  0  0  0  0  0  0  0  0
   53.5197    8.7287   52.3865 O   0  0  0  0  0  0  0  0  0  0  0  0
   52.6001   10.4853   50.4925 H   0  0  0  0  0  0  0  0  0  0  0  0
   56.2170    9.3413   52.2685 H   0  0  0  0  0  0  0  0  0  0  0  0
   52.6870   11.3488   53.9061 S   0  0  0  0  0  0  0  0  0  0  0  0
   52.6897   12.5127   54.7397 O   0  0  0  0  0  0  0  0  0  0  0  0
   52.6605   10.1277   54.7791 O   0  0  0  0  0  0  0  0  0  0  0  0
   51.4640   11.3546   53.0374 O   0  0  0  0  0  0  0  0  0  0  0  0
   53.4488   10.1170   55.3441 H   0  0  0  0  0  0  0  0  0  0  0  0
  9 10  2  0  0  0
  9 14  1  0  0  0
 10 11  1  0  0  0
 11 12  2  0  0  0
 12 13  1  0  0  0
 13 14  2  0  0  0
 14  3  1  0  0  0
  3  4  2  0  0  0
  3  6  1  0  0  0
  4  5  1  0  0  0
  5  8  2  0  0  0
  6  7  2  0  0  0
  7  8  1  0  0  0
  8  2  1  0  0  0
  2  1  1  0  0  0
  1 15  1  0  0  0
 15 16  1  0  0  0
 16 23  1  0  0  0
 23 24  2  0  0  0
 23 25  1  0  0  0
 23 26  2  0  0  0
 16 17  1  0  0  0
 17 20  2  0  0  0
 17 18  1  0  0  0
 17 19  1  0  0  0
 18 21  1  0  0  0
 19 22  1  0  0  0
 25 27  1  0  0  0
M  END
> <minimizedAffinity>
-10.84362

$$$$
2ZCS_B70_A_640


 27 28  0  0  0  0  0  0  0  0999 V2000
   55.0290   13.4929   52.7975 C   0  0  0  0  0  0  0  0  0  0  0  0
   56.2070   13.8004   53.7275 C   0  0  0  0  0  0  0  0  0  0  0  0
   57.3452   17.9646   53.5044 C   0  0  0  0  0  0  0  0  0  0  0  0
   57.8591   17.1452   54.5035 C   0  0  0  0  0  0  0  0  0  0  0  0
   57.5035   15.8016   54.5637 C   0  0  0  0  0  0  0  0  0  0  0  0
   56.4779   17.4297   52.5594 C   0  0  0  0  0  0  0  0  0  0  0  0
   56.1213   16.0864   52.6216 C   0  0  0  0  0  0  0  0  0  0  0  0
   56.6299   15.2680   53.6253 C   0  0  0  0  0  0  0  0  0  0  0  0
   58.4474   19.8730   54.4940 C   0  0  0  0  0  0  0  0  0  0  0  0
   58.7468   21.2309   54.4787 C   0  0  0  0  0  0  0  0  0  0  0  0
   58.3120   22.0322   53.4282 C   0  0  0  0  0  0  0  0  0  0  0  0
   57.5821   21.4640   52.3911 C   0  0  0  0  0  0  0  0  0  0  0  0
   57.2836   20.1051   52.4064 C   0  0  0  0  0  0  0  0  0  0  0  0
   57.7083   19.3055   53.4617 C   0  0  0  0  0  0  0  0  0  0  0  0
   55.0126   12.0238   52.3658 C   0  0  0  0  0  0  0  0  0  0  0  0
   55.2087   11.0623   53.5411 C   0  0  0  0  0  0  0  0  0  0  0  0
   56.5402    9.8477   53.1851 P   0  0  0  0  0  0  0  0  0  0  0  0
   57.8142   10.6639   52.6334 O   0  0  0  0  0  0  0  0  0  0  0  0
   56.9784    9.2599   54.6183 O   0  0  0  0  0  0  0  0  0  0  0  0
   56.0917    8.8044   52.2355 O   0  0  0  0  0  0  0  0  0  0  0  0
   57.6044   11.0427   51.7654 H   0  0  0  0  0  0  0  0  0  0  0  0
   56.2428    8.7551   54.9993 H   0  0  0  0  0  0  0  0  0  0  0  0
   53.6566   10.1904   53.9739 S   0  0  0  0  0  0  0  0  0  0  0  0
   53.3764   10.3937   55.3631 O   0  0  0  0  0  0  0  0  0  0  0  0
   53.7915    8.7173   53.7175 O   0  0  0  0  0  0  0  0  0  0  0  0
   52.5253   10.7281   53.1484 O   0  0  0  0  0  0  0  0  0  0  0  0
   54.5216    8.3623   54.2483 H   0  0  0  0  0  0  0  0  0  0  0  0
  9 10  2  0  0  0
  9 14  1  0  0  0
 10 11  1  0  0  0
 11 12  2  0  0  0
 12 13  1  0  0  0
 13 14  2  0  0  0
 14  3  1  0  0  0
  3  4  2  0  0  0
  3  6  1  0  0  0
  4  5  1  0  0  0
  5  8  2  0  0  0
  6  7  2  0  0  0
  7  8  1  0  0  0
  8  2  1  0  0  0
  2  1  1  0  0  0
  1 15  1  0  0  0
 15 16  1  0  0  0
 16 23  1  0  0  0
 23 24  2  0  0  0
 23 25  1  0  0  0
 23 26  2  0  0  0
 16 17  1  0  0  0
 17 20  2  0  0  0
 17 18  1  0  0  0
 17 19  1  0  0  0
 18 21  1  0  0  0
 19 22  1  0  0  0
 25 27  1  0  0  0
M  END
> <minimizedAffinity>
-10.76842

$$$$
2ZCS_B70_A_640


 27 28  0  0  0  0  0  0  0  0999 V2000
   55.0225   13.6078   53.2370 C   0  0  0  0  0  0  0  0  0  0  0  0
   56.3784   13.8858   53.8936 C   0  0  0  0  0  0  0  0  0  0  0  0
   57.4338   18.0646   53.5628 C   0  0  0  0  0  0  0  0  0  0  0  0
   57.8945   17.3030   54.6311 C   0  0  0  0  0  0  0  0  0  0  0  0
   57.5664   15.9545   54.7269 C   0  0  0  0  0  0  0  0  0  0  0  0
   56.6480   17.4669   52.5847 C   0  0  0  0  0  0  0  0  0  0  0  0
   56.3188   16.1186   52.6824 C   0  0  0  0  0  0  0  0  0  0  0  0
   56.7738   15.3581   53.7550 C   0  0  0  0  0  0  0  0  0  0  0  0
   58.5071   20.0178   54.4952 C   0  0  0  0  0  0  0  0  0  0  0  0
   58.7778   21.3809   54.4452 C   0  0  0  0  0  0  0  0  0  0  0  0
   58.3142   22.1485   53.3819 C   0  0  0  0  0  0  0  0  0  0  0  0
   57.5845   21.5415   52.3669 C   0  0  0  0  0  0  0  0  0  0  0  0
   57.3148   20.1774   52.4169 C   0  0  0  0  0  0  0  0  0  0  0  0
   57.7682   19.4114   53.4850 C   0  0  0  0  0  0  0  0  0  0  0  0
   54.6507   12.1238   53.3041 C   0  0  0  0  0  0  0  0  0  0  0  0
   54.9017   11.3933   51.9821 C   0  0  0  0  0  0  0  0  0  0  0  0
   53.5423   10.2148   51.6108 P   0  0  0  0  0  0  0  0  0  0  0  0
   52.1485   10.9609   51.9184 O   0  0  0  0  0  0  0  0  0  0  0  0
   53.5858    9.9991   50.0161 O   0  0  0  0  0  0  0  0  0  0  0  0
   53.6826    8.9560   52.3770 O   0  0  0  0  0  0  0  0  0  0  0  0
   52.0691   11.1171   52.8725 H   0  0  0  0  0  0  0  0  0  0  0  0
   54.4106    9.5502   49.7729 H   0  0  0  0  0  0  0  0  0  0  0  0
   56.5128   10.5209   51.9813 S   0  0  0  0  0  0  0  0  0  0  0  0
   57.5010   11.3618   51.3767 O   0  0  0  0  0  0  0  0  0  0  0  0
   56.4190    9.2434   51.1982 O   0  0  0  0  0  0  0  0  0  0  0  0
   56.9175   10.2013   53.3901 O   0  0  0  0  0  0  0  0  0  0  0  0
   56.1575    9.4422   50.2855 H   0  0  0  0  0  0  0  0  0  0  0  0
  9 10  2  0  0  0
  9 14  1  0  0  0
 10 11  1  0  0  0
 11 12  2  0  0  0
 12 13  1  0  0  0
 13 14  2  0  0  0
 14  3  1  0  0  0
  3  4  2  0  0  0
  3  6  1  0  0  0
  4  5  1  0  0  0
  5  8  2  0  0  0
  6  7  2  0  0  0
  7  8  1  0  0  0
  8  2  1  0  0  0
  2  1  1  0  0  0
  1 15  1  0  0  0
 15 16  1  0  0  0
 16 23  1  0  0  0
 23 24  2  0  0  0
 23 25  1  0  0  0
 23 26  2  0  0  0
 16 17  1  0  0  0
 17 20  2  0  0  0
 17 18  1  0  0  0
 17 19  1  0  0  0
 18 21  1  0  0  0
 19 22  1  0  0  0
 25 27  1  0  0  0
M  END
> <minimizedAffinity>
-10.50629

$$$$
2ZCS_B70_A_640


 27 28  0  0  0  0  0  0  0  0999 V2000
   55.3579   13.6278   53.1042 C   0  0  0  0  0  0  0  0  0  0  0  0
   56.7418   13.9559   53.6736 C   0  0  0  0  0  0  0  0  0  0  0  0
   57.5130   18.2057   53.5016 C   0  0  0  0  0  0  0  0  0  0  0  0
   58.0019   17.4421   54.5558 C   0  0  0  0  0  0  0  0  0  0  0  0
   57.7657   16.0718   54.6007 C   0  0  0  0  0  0  0  0  0  0  0  0
   56.7917   17.5888   52.4864 C   0  0  0  0  0  0  0  0  0  0  0  0
   56.5543   16.2187   52.5332 C   0  0  0  0  0  0  0  0  0  0  0  0
   57.0375   15.4555   53.5916 C   0  0  0  0  0  0  0  0  0  0  0  0
   57.3213   20.3499   52.4052 C   0  0  0  0  0  0  0  0  0  0  0  0
   57.6281   21.7052   52.3513 C   0  0  0  0  0  0  0  0  0  0  0  0
   58.3689   22.2967   53.3691 C   0  0  0  0  0  0  0  0  0  0  0  0
   58.7941   21.5244   54.4433 C   0  0  0  0  0  0  0  0  0  0  0  0
   58.4861   20.1686   54.4973 C   0  0  0  0  0  0  0  0  0  0  0  0
   57.7551   19.5741   53.4748 C   0  0  0  0  0  0  0  0  0  0  0  0
   54.7811   12.3462   53.7121 C   0  0  0  0  0  0  0  0  0  0  0  0
   54.8772   11.1488   52.7626 C   0  0  0  0  0  0  0  0  0  0  0  0
   53.3424   10.1406   52.8143 P   0  0  0  0  0  0  0  0  0  0  0  0
   53.3017    9.2402   51.4796 O   0  0  0  0  0  0  0  0  0  0  0  0
   53.5462    9.1120   54.0356 O   0  0  0  0  0  0  0  0  0  0  0  0
   52.1351   10.9858   52.9544 O   0  0  0  0  0  0  0  0  0  0  0  0
   53.1797    9.8133   50.7065 H   0  0  0  0  0  0  0  0  0  0  0  0
   53.5781    9.6041   54.8709 H   0  0  0  0  0  0  0  0  0  0  0  0
   56.3344   10.1016   53.1326 S   0  0  0  0  0  0  0  0  0  0  0  0
   56.1461    8.8110   52.5424 O   0  0  0  0  0  0  0  0  0  0  0  0
   56.5008    9.9366   54.6155 O   0  0  0  0  0  0  0  0  0  0  0  0
   57.5716   10.7366   52.5701 O   0  0  0  0  0  0  0  0  0  0  0  0
   55.7041    9.5262   54.9866 H   0  0  0  0  0  0  0  0  0  0  0  0
  9 10  2  0  0  0
  9 14  1  0  0  0
 10 11  1  0  0  0
 11 12  2  0  0  0
 12 13  1  0  0  0
 13 14  2  0  0  0
 14  3  1  0  0  0
  3  4  2  0  0  0
  3  6  1  0  0  0
  4  5  1  0  0  0
  5  8  2  0  0  0
  6  7  2  0  0  0
  7  8  1  0  0  0
  8  2  1  0  0  0
  2  1  1  0  0  0
  1 15  1  0  0  0
 15 16  1  0  0  0
 16 23  1  0  0  0
 23 24  2  0  0  0
 23 25  1  0  0  0
 23 26  2  0  0  0
 16 17  1  0  0  0
 17 20  2  0  0  0
 17 18  1  0  0  0
 17 19  1  0  0  0
 18 21  1  0  0  0
 19 22  1  0  0  0
 25 27  1  0  0  0
M  END
> <minimizedAffinity>
-10.49185

$$$$
2ZCS_B70_A_640


 27 28  0  0  0  0  0  0  0  0999 V2000
   55.1879   13.6317   52.3246 C   0  0  0  0  0  0  0  0  0  0  0  0
   56.1458   13.9586   53.4747 C   0  0  0  0  0  0  0  0  0  0  0  0
   57.2569   18.1360   53.4792 C   0  0  0  0  0  0  0  0  0  0  0  0
   57.7351   17.2777   54.4632 C   0  0  0  0  0  0  0  0  0  0  0  0
   57.3887   15.9304   54.4505 C   0  0  0  0  0  0  0  0  0  0  0  0
   56.4349   17.6368   52.4760 C   0  0  0  0  0  0  0  0  0  0  0  0
   56.0875   16.2896   52.4652 C   0  0  0  0  0  0  0  0  0  0  0  0
   56.5602   15.4320   53.4537 C   0  0  0  0  0  0  0  0  0  0  0  0
   57.2010   20.3433   52.4990 C   0  0  0  0  0  0  0  0  0  0  0  0
   57.6163   21.6705   52.4989 C   0  0  0  0  0  0  0  0  0  0  0  0
   58.4421   22.1460   53.5121 C   0  0  0  0  0  0  0  0  0  0  0  0
   58.8430   21.2867   54.5279 C   0  0  0  0  0  0  0  0  0  0  0  0
   58.4263   19.9591   54.5281 C   0  0  0  0  0  0  0  0  0  0  0  0
   57.6100   19.4800   53.5096 C   0  0  0  0  0  0  0  0  0  0  0  0
   55.1629   12.1327   52.0128 C   0  0  0  0  0  0  0  0  0  0  0  0
   56.3862   11.3957   52.5650 C   0  0  0  0  0  0  0  0  0  0  0  0
   57.6717   11.1874   51.2692 P   0  0  0  0  0  0  0  0  0  0  0  0
   59.1065   11.1667   52.0005 O   0  0  0  0  0  0  0  0  0  0  0  0
   57.4527    9.7043   50.6829 O   0  0  0  0  0  0  0  0  0  0  0  0
   57.5866   12.2448   50.2367 O   0  0  0  0  0  0  0  0  0  0  0  0
   59.2911   12.0421   52.3751 H   0  0  0  0  0  0  0  0  0  0  0  0
   56.5969    9.6593   50.2285 H   0  0  0  0  0  0  0  0  0  0  0  0
   55.9367    9.7687   53.2772 S   0  0  0  0  0  0  0  0  0  0  0  0
   55.0691    9.0826   52.3684 O   0  0  0  0  0  0  0  0  0  0  0  0
   55.2241    9.9463   54.5866 O   0  0  0  0  0  0  0  0  0  0  0  0
   57.1758    8.9535   53.5024 O   0  0  0  0  0  0  0  0  0  0  0  0
   54.4211   10.4728   54.4489 H   0  0  0  0  0  0  0  0  0  0  0  0
  9 10  2  0  0  0
  9 14  1  0  0  0
 10 11  1  0  0  0
 11 12  2  0  0  0
 12 13  1  0  0  0
 13 14  2  0  0  0
 14  3  1  0  0  0
  3  4  2  0  0  0
  3  6  1  0  0  0
  4  5  1  0  0  0
  5  8  2  0  0  0
  6  7  2  0  0  0
  7  8  1  0  0  0
  8  2  1  0  0  0
  2  1  1  0  0  0
  1 15  1  0  0  0
 15 16  1  0  0  0
 16 23  1  0  0  0
 23 24  2  0  0  0
 23 25  1  0  0  0
 23 26  2  0  0  0
 16 17  1  0  0  0
 17 20  2  0  0  0
 17 18  1  0  0  0
 17 19  1  0  0  0
 18 21  1  0  0  0
 19 22  1  0  0  0
 25 27  1  0  0  0
M  END
> <minimizedAffinity>
-10.34952

$$$$
2ZCS_B70_A_640


 27 28  0  0  0  0  0  0  0  0999 V2000
   56.2808   12.4605   53.4589 C   0  0  0  0  0  0  0  0  0  0  0  0
   55.6148   13.3967   52.4454 C   0  0  0  0  0  0  0  0  0  0  0  0
   56.8935   17.4871   53.0102 C   0  0  0  0  0  0  0  0  0  0  0  0
   57.2533   16.5029   53.9242 C   0  0  0  0  0  0  0  0  0  0  0  0
   56.8538   15.1843   53.7318 C   0  0  0  0  0  0  0  0  0  0  0  0
   56.1368   17.1432   51.8964 C   0  0  0  0  0  0  0  0  0  0  0  0
   55.7360   15.8246   51.7059 C   0  0  0  0  0  0  0  0  0  0  0  0
   56.0901   14.8408   52.6240 C   0  0  0  0  0  0  0  0  0  0  0  0
   57.0215   19.7862   52.2794 C   0  0  0  0  0  0  0  0  0  0  0  0
   57.4902   21.0826   52.4628 C   0  0  0  0  0  0  0  0  0  0  0  0
   58.2371   21.4042   53.5912 C   0  0  0  0  0  0  0  0  0  0  0  0
   58.5054   20.4219   54.5369 C   0  0  0  0  0  0  0  0  0  0  0  0
   58.0353   19.1252   54.3534 C   0  0  0  0  0  0  0  0  0  0  0  0
   57.2982   18.8001   53.2202 C   0  0  0  0  0  0  0  0  0  0  0  0
   55.3810   11.2737   53.8148 C   0  0  0  0  0  0  0  0  0  0  0  0
   54.1144   11.2165   52.9563 C   0  0  0  0  0  0  0  0  0  0  0  0
   52.6106   11.4684   53.9810 P   0  0  0  0  0  0  0  0  0  0  0  0
   51.3333   11.4014   53.0024 O   0  0  0  0  0  0  0  0  0  0  0  0
   52.5129   10.1683   54.9253 O   0  0  0  0  0  0  0  0  0  0  0  0
   52.6684   12.7397   54.7372 O   0  0  0  0  0  0  0  0  0  0  0  0
   51.3418   12.1670   52.4067 H   0  0  0  0  0  0  0  0  0  0  0  0
   53.2635   10.1578   55.5396 H   0  0  0  0  0  0  0  0  0  0  0  0
   53.9910    9.6414   52.0287 S   0  0  0  0  0  0  0  0  0  0  0  0
   53.7826    8.5682   52.9530 O   0  0  0  0  0  0  0  0  0  0  0  0
   55.2555    9.3818   51.2621 O   0  0  0  0  0  0  0  0  0  0  0  0
   52.8418    9.7076   51.0668 O   0  0  0  0  0  0  0  0  0  0  0  0
   56.0036    9.3377   51.8779 H   0  0  0  0  0  0  0  0  0  0  0  0
  9 10  2  0  0  0
  9 14  1  0  0  0
 10 11  1  0  0  0
 11 12  2  0  0  0
 12 13  1  0  0  0
 13 14  2  0  0  0
 14  3  1  0  0  0
  3  4  2  0  0  0
  3  6  1  0  0  0
  4  5  1  0  0  0
  5  8  2  0  0  0
  6  7  2  0  0  0
  7  8  1  0  0  0
  8  2  1  0  0  0
  2  1  1  0  0  0
  1 15  1  0  0  0
 15 16  1  0  0  0
 16 23  1  0  0  0
 23 24  2  0  0  0
 23 25  1  0  0  0
 23 26  2  0  0  0
 16 17  1  0  0  0
 17 20  2  0  0  0
 17 18  1  0  0  0
 17 19  1  0  0  0
 18 21  1  0  0  0
 19 22  1  0  0  0
 25 27  1  0  0  0
M  END
> <minimizedAffinity>
-10.30270

$$$$
2ZCS_B70_A_640


 27 28  0  0  0  0  0  0  0  0999 V2000
   56.4271   12.8594   52.9435 C   0  0  0  0  0  0  0  0  0  0  0  0
   55.4477   13.9496   52.4970 C   0  0  0  0  0  0  0  0  0  0  0  0
   57.0124   17.9129   53.2245 C   0  0  0  0  0  0  0  0  0  0  0  0
   57.2914   16.8720   54.1032 C   0  0  0  0  0  0  0  0  0  0  0  0
   56.7998   15.5938   53.8584 C   0  0  0  0  0  0  0  0  0  0  0  0
   56.2437   17.6662   52.0932 C   0  0  0  0  0  0  0  0  0  0  0  0
   55.7508   16.3880   51.8503 C   0  0  0  0  0  0  0  0  0  0  0  0
   56.0240   15.3478   52.7332 C   0  0  0  0  0  0  0  0  0  0  0  0
   56.9755   20.2989   52.8480 C   0  0  0  0  0  0  0  0  0  0  0  0
   57.5230   21.5593   53.0620 C   0  0  0  0  0  0  0  0  0  0  0  0
   58.6068   21.7156   53.9196 C   0  0  0  0  0  0  0  0  0  0  0  0
   59.1337   20.6040   54.5661 C   0  0  0  0  0  0  0  0  0  0  0  0
   58.5848   19.3434   54.3524 C   0  0  0  0  0  0  0  0  0  0  0  0
   57.5086   19.1845   53.4866 C   0  0  0  0  0  0  0  0  0  0  0  0
   56.3011   11.5955   52.0881 C   0  0  0  0  0  0  0  0  0  0  0  0
   55.8837   10.3701   52.9058 C   0  0  0  0  0  0  0  0  0  0  0  0
   56.9491    8.9244   52.5188 P   0  0  0  0  0  0  0  0  0  0  0  0
   56.2024    7.6051   53.0625 O   0  0  0  0  0  0  0  0  0  0  0  0
   56.9437    8.8056   50.9134 O   0  0  0  0  0  0  0  0  0  0  0  0
   58.3061    9.0737   53.0913 O   0  0  0  0  0  0  0  0  0  0  0  0
   56.1769    7.6244   54.0320 H   0  0  0  0  0  0  0  0  0  0  0  0
   57.3844    9.5802   50.5303 H   0  0  0  0  0  0  0  0  0  0  0  0
   54.1210    9.9447   52.6438 S   0  0  0  0  0  0  0  0  0  0  0  0
   54.0074    9.1086   51.4873 O   0  0  0  0  0  0  0  0  0  0  0  0
   53.3069   11.1870   52.4253 O   0  0  0  0  0  0  0  0  0  0  0  0
   53.5905    9.2182   53.8443 O   0  0  0  0  0  0  0  0  0  0  0  0
   53.6443   11.6625   51.6501 H   0  0  0  0  0  0  0  0  0  0  0  0
  9 10  2  0  0  0
  9 14  1  0  0  0
 10 11  1  0  0  0
 11 12  2  0  0  0
 12 13  1  0  0  0
 13 14  2  0  0  0
 14  3  1  0  0  0
  3  4  2  0  0  0
  3  6  1  0  0  0
  4  5  1  0  0  0
  5  8  2  0  0  0
  6  7  2  0  0  0
  7  8  1  0  0  0
  8  2  1  0  0  0
  2  1  1  0  0  0
  1 15  1  0  0  0
 15 16  1  0  0  0
 16 23  1  0  0  0
 23 24  2  0  0  0
 23 25  1  0  0  0
 23 26  2  0  0  0
 16 17  1  0  0  0
 17 20  2  0  0  0
 17 18  1  0  0  0
 17 19  1  0  0  0
 18 21  1  0  0  0
 19 22  1  0  0  0
 25 27  1  0  0  0
M  END
> <minimizedAffinity>
-9.81870

$$$$
2ZCS_B70_A_640


 27 28  0  0  0  0  0  0  0  0999 V2000
   55.8277   14.0326   53.6897 C   0  0  0  0  0  0  0  0  0  0  0  0
   57.1621   14.5945   54.1905 C   0  0  0  0  0  0  0  0  0  0  0  0
   57.3188   18.8948   53.7796 C   0  0  0  0  0  0  0  0  0  0  0  0
   56.3388   18.1586   53.1231 C   0  0  0  0  0  0  0  0  0  0  0  0
   56.2808   16.7764   53.2695 C   0  0  0  0  0  0  0  0  0  0  0  0
   58.2378   18.2404   54.5913 C   0  0  0  0  0  0  0  0  0  0  0  0
   58.1802   16.8578   54.7355 C   0  0  0  0  0  0  0  0  0  0  0  0
   57.2039   16.1202   54.0730 C   0  0  0  0  0  0  0  0  0  0  0  0
   58.5626   20.9658   53.7612 C   0  0  0  0  0  0  0  0  0  0  0  0
   58.5880   22.3531   53.6685 C   0  0  0  0  0  0  0  0  0  0  0  0
   57.4147   23.0606   53.4292 C   0  0  0  0  0  0  0  0  0  0  0  0
   56.2184   22.3701   53.2766 C   0  0  0  0  0  0  0  0  0  0  0  0
   56.1937   20.9820   53.3684 C   0  0  0  0  0  0  0  0  0  0  0  0
   57.3642   20.2746   53.6189 C   0  0  0  0  0  0  0  0  0  0  0  0
   55.7858   12.5042   53.7743 C   0  0  0  0  0  0  0  0  0  0  0  0
   54.6680   11.8975   52.9217 C   0  0  0  0  0  0  0  0  0  0  0  0
   53.6779   10.6921   53.8920 P   0  0  0  0  0  0  0  0  0  0  0  0
   52.9611    9.6947   52.8504 O   0  0  0  0  0  0  0  0  0  0  0  0
   54.7530    9.7992   54.6910 O   0  0  0  0  0  0  0  0  0  0  0  0
   52.7036   11.3689   54.7775 O   0  0  0  0  0  0  0  0  0  0  0  0
   52.2983   10.1838   52.3382 H   0  0  0  0  0  0  0  0  0  0  0  0
   55.2178   10.3538   55.3369 H   0  0  0  0  0  0  0  0  0  0  0  0
   55.3226   11.1034   51.4059 S   0  0  0  0  0  0  0  0  0  0  0  0
   56.4066   11.8875   50.8966 O   0  0  0  0  0  0  0  0  0  0  0  0
   54.2539   11.0140   50.3553 O   0  0  0  0  0  0  0  0  0  0  0  0
   55.8086    9.7208   51.7267 O   0  0  0  0  0  0  0  0  0  0  0  0
   53.9344   11.9049   50.1425 H   0  0  0  0  0  0  0  0  0  0  0  0
  9 10  2  0  0  0
  9 14  1  0  0  0
 10 11  1  0  0  0
 11 12  2  0  0  0
 12 13  1  0  0  0
 13 14  2  0  0  0
 14  3  1  0  0  0
  3  4  2  0  0  0
  3  6  1  0  0  0
  4  5  1  0  0  0
  5  8  2  0  0  0
  6  7  2  0  0  0
  7  8  1  0  0  0
  8  2  1  0  0  0
  2  1  1  0  0  0
  1 15  1  0  0  0
 15 16  1  0  0  0
 16 23  1  0  0  0
 23 24  2  0  0  0
 23 25  1  0  0  0
 23 26  2  0  0  0
 16 17  1  0  0  0
 17 20  2  0  0  0
 17 18  1  0  0  0
 17 19  1  0  0  0
 18 21  1  0  0  0
 19 22  1  0  0  0
 25 27  1  0  0  0
M  END
> <minimizedAffinity>
-9.10225

$$$$
