5VAR_92Y_A_1101


 19 21  0  0  0  0  0  0  0  0999 V2000
   20.7777   -7.7430    6.9700 C   0  0  0  0  0  0  0  0  0  0  0  0
   18.9860   -8.4859    4.6703 C   0  0  0  0  0  0  0  0  0  0  0  0
   19.1674   -9.4682    6.7812 C   0  0  0  0  0  0  0  0  0  0  0  0
   21.7185   -6.9109    6.3221 O   0  0  0  0  0  0  0  0  0  0  0  0
   20.6097   -9.1757    6.3452 C   0  0  0  0  0  0  0  0  0  0  0  0
   19.3455   -7.1383    6.8225 C   0  0  0  0  0  0  0  0  0  0  0  0
   18.5494   -8.2361    6.1254 C   0  0  0  0  0  0  0  0  0  0  0  0
   20.4033   -9.0295    4.8099 C   0  0  0  0  0  0  0  0  0  0  0  0
   21.4582   -6.7887    5.3957 H   0  0  0  0  0  0  0  0  0  0  0  0
   22.5201  -11.8902    8.3006 C   0  0  0  0  0  0  0  0  0  0  0  0
   23.6669  -12.0710    7.4925 C   0  0  0  0  0  0  0  0  0  0  0  0
   23.8213  -11.2925    6.3377 C   0  0  0  0  0  0  0  0  0  0  0  0
   22.8323  -10.3365    5.9718 C   0  0  0  0  0  0  0  0  0  0  0  0
   21.6732  -10.1544    6.7666 C   0  0  0  0  0  0  0  0  0  0  0  0
   21.5429  -10.9488    7.9536 C   0  0  0  0  0  0  0  0  0  0  0  0
   19.2580   -5.7577    6.1510 C   0  0  0  0  0  0  0  0  0  0  0  0
   18.8163   -4.3185    8.1373 C   0  0  0  0  0  0  0  0  0  0  0  0
   19.7999   -4.7615    7.1075 N   0  0  0  0  0  0  0  0  0  0  0  0
   20.3578   -3.6084    6.3540 C   0  0  0  0  0  0  0  0  0  0  0  0
  2  8  1  0  0  0
  2  7  1  0  0  0
  8  5  1  0  0  0
 13 12  2  0  0  0
 13 14  1  0  0  0
  7  3  1  0  0  0
  7  6  1  0  0  0
 16  6  1  0  0  0
 16 18  1  0  0  0
  5  3  1  0  0  0
  5 14  1  0  0  0
  5  1  1  0  0  0
 12 11  1  0  0  0
  4  1  1  0  0  0
 19 18  1  0  0  0
 14 15  2  0  0  0
  6  1  1  0  0  0
 18 17  1  0  0  0
 11 10  2  0  0  0
 15 10  1  0  0  0
  4  9  1  0  0  0
M  END
> <minimizedAffinity>
-8.53775

$$$$
5VAR_92Y_A_1101


 19 21  0  0  0  0  0  0  0  0999 V2000
   20.9921   -8.4284    4.8955 C   0  0  0  0  0  0  0  0  0  0  0  0
   18.5608   -7.9189    6.5927 C   0  0  0  0  0  0  0  0  0  0  0  0
   20.8196   -7.6728    7.1325 C   0  0  0  0  0  0  0  0  0  0  0  0
   20.4342   -9.1944    3.8469 O   0  0  0  0  0  0  0  0  0  0  0  0
   20.7326   -8.9858    6.3423 C   0  0  0  0  0  0  0  0  0  0  0  0
   20.3112   -7.0239    4.9457 C   0  0  0  0  0  0  0  0  0  0  0  0
   19.7283   -6.9444    6.3524 C   0  0  0  0  0  0  0  0  0  0  0  0
   19.2147   -9.2924    6.4941 C   0  0  0  0  0  0  0  0  0  0  0  0
   19.4727   -9.2493    3.9627 H   0  0  0  0  0  0  0  0  0  0  0  0
   23.7458  -11.3844    6.4381 C   0  0  0  0  0  0  0  0  0  0  0  0
   23.4565  -12.1613    7.5841 C   0  0  0  0  0  0  0  0  0  0  0  0
   22.2753  -11.9172    8.2974 C   0  0  0  0  0  0  0  0  0  0  0  0
   21.3784  -10.8923    7.8832 C   0  0  0  0  0  0  0  0  0  0  0  0
   21.6629  -10.0993    6.7437 C   0  0  0  0  0  0  0  0  0  0  0  0
   22.8684  -10.3768    6.0179 C   0  0  0  0  0  0  0  0  0  0  0  0
   19.3118   -6.7140    3.8188 C   0  0  0  0  0  0  0  0  0  0  0  0
   20.8241   -5.3001    2.4313 C   0  0  0  0  0  0  0  0  0  0  0  0
   20.0849   -6.5891    2.5589 N   0  0  0  0  0  0  0  0  0  0  0  0
   19.1806   -6.8165    1.4017 C   0  0  0  0  0  0  0  0  0  0  0  0
  2  8  1  0  0  0
  2  7  1  0  0  0
  8  5  1  0  0  0
 13 12  2  0  0  0
 13 14  1  0  0  0
  7  3  1  0  0  0
  7  6  1  0  0  0
 16  6  1  0  0  0
 16 18  1  0  0  0
  5  3  1  0  0  0
  5 14  1  0  0  0
  5  1  1  0  0  0
 12 11  1  0  0  0
  4  1  1  0  0  0
 19 18  1  0  0  0
 14 15  2  0  0  0
  6  1  1  0  0  0
 18 17  1  0  0  0
 11 10  2  0  0  0
 15 10  1  0  0  0
  4  9  1  0  0  0
M  END
> <minimizedAffinity>
-6.80299

$$$$
5VAR_92Y_A_1101


 19 21  0  0  0  0  0  0  0  0999 V2000
   21.0033   -8.4308    4.9024 C   0  0  0  0  0  0  0  0  0  0  0  0
   18.5614   -7.9210    6.5841 C   0  0  0  0  0  0  0  0  0  0  0  0
   20.8163   -7.6587    7.1326 C   0  0  0  0  0  0  0  0  0  0  0  0
   20.4545   -9.2080    3.8573 O   0  0  0  0  0  0  0  0  0  0  0  0
   20.7400   -8.9783    6.3523 C   0  0  0  0  0  0  0  0  0  0  0  0
   20.3148   -7.0297    4.9384 C   0  0  0  0  0  0  0  0  0  0  0  0
   19.7249   -6.9422    6.3416 C   0  0  0  0  0  0  0  0  0  0  0  0
   19.2230   -9.2917    6.4994 C   0  0  0  0  0  0  0  0  0  0  0  0
   19.4928   -9.2671    3.9690 H   0  0  0  0  0  0  0  0  0  0  0  0
   22.2535  -11.9810    8.2324 C   0  0  0  0  0  0  0  0  0  0  0  0
   23.4209  -12.2337    7.4748 C   0  0  0  0  0  0  0  0  0  0  0  0
   23.7186  -11.4119    6.3796 C   0  0  0  0  0  0  0  0  0  0  0  0
   22.8529  -10.3398    6.0229 C   0  0  0  0  0  0  0  0  0  0  0  0
   21.6742  -10.0837    6.7668 C   0  0  0  0  0  0  0  0  0  0  0  0
   21.3969  -10.9257    7.8943 C   0  0  0  0  0  0  0  0  0  0  0  0
   19.3192   -6.7339    3.8045 C   0  0  0  0  0  0  0  0  0  0  0  0
   21.0743   -5.4057    2.6354 C   0  0  0  0  0  0  0  0  0  0  0  0
   20.1046   -6.5363    2.5616 N   0  0  0  0  0  0  0  0  0  0  0  0
   19.1760   -6.3846    1.4112 C   0  0  0  0  0  0  0  0  0  0  0  0
  2  8  1  0  0  0
  2  7  1  0  0  0
  8  5  1  0  0  0
 13 12  2  0  0  0
 13 14  1  0  0  0
  7  3  1  0  0  0
  7  6  1  0  0  0
 16  6  1  0  0  0
 16 18  1  0  0  0
  5  3  1  0  0  0
  5 14  1  0  0  0
  5  1  1  0  0  0
 12 11  1  0  0  0
  4  1  1  0  0  0
 19 18  1  0  0  0
 14 15  2  0  0  0
  6  1  1  0  0  0
 18 17  1  0  0  0
 11 10  2  0  0  0
 15 10  1  0  0  0
  4  9  1  0  0  0
M  END
> <minimizedAffinity>
-6.74225

$$$$
5VAR_92Y_A_1101


 19 21  0  0  0  0  0  0  0  0999 V2000
   20.9514   -7.3532    6.0913 C   0  0  0  0  0  0  0  0  0  0  0  0
   18.4708   -9.0465    5.9174 C   0  0  0  0  0  0  0  0  0  0  0  0
   19.1640   -7.2926    4.5400 C   0  0  0  0  0  0  0  0  0  0  0  0
   21.3826   -7.6394    7.4065 O   0  0  0  0  0  0  0  0  0  0  0  0
   19.4736   -6.8308    5.9707 C   0  0  0  0  0  0  0  0  0  0  0  0
   20.9171   -8.6667    5.2475 C   0  0  0  0  0  0  0  0  0  0  0  0
   19.4697   -8.7690    4.7792 C   0  0  0  0  0  0  0  0  0  0  0  0
   18.5402   -7.7850    6.7704 C   0  0  0  0  0  0  0  0  0  0  0  0
   20.8082   -8.3178    7.7947 H   0  0  0  0  0  0  0  0  0  0  0  0
   19.2791   -3.0057    5.5562 C   0  0  0  0  0  0  0  0  0  0  0  0
   18.9239   -2.5943    6.8620 C   0  0  0  0  0  0  0  0  0  0  0  0
   18.7776   -3.5583    7.8684 C   0  0  0  0  0  0  0  0  0  0  0  0
   18.9728   -4.9389    7.5820 C   0  0  0  0  0  0  0  0  0  0  0  0
   19.3173   -5.3647    6.2749 C   0  0  0  0  0  0  0  0  0  0  0  0
   19.4790   -4.3607    5.2636 C   0  0  0  0  0  0  0  0  0  0  0  0
   21.4589   -9.9301    5.9367 C   0  0  0  0  0  0  0  0  0  0  0  0
   23.4389   -9.7148    4.4385 C   0  0  0  0  0  0  0  0  0  0  0  0
   22.9383   -9.8957    5.8316 N   0  0  0  0  0  0  0  0  0  0  0  0
   23.5050  -11.1170    6.4609 C   0  0  0  0  0  0  0  0  0  0  0  0
  2  8  1  0  0  0
  2  7  1  0  0  0
  8  5  1  0  0  0
 13 12  2  0  0  0
 13 14  1  0  0  0
  7  3  1  0  0  0
  7  6  1  0  0  0
 16  6  1  0  0  0
 16 18  1  0  0  0
  5  3  1  0  0  0
  5 14  1  0  0  0
  5  1  1  0  0  0
 12 11  1  0  0  0
  4  1  1  0  0  0
 19 18  1  0  0  0
 14 15  2  0  0  0
  6  1  1  0  0  0
 18 17  1  0  0  0
 11 10  2  0  0  0
 15 10  1  0  0  0
  4  9  1  0  0  0
M  END
> <minimizedAffinity>
-6.73474

$$$$
5VAR_92Y_A_1101


 19 21  0  0  0  0  0  0  0  0999 V2000
   18.9288   -4.3595    7.4801 C   0  0  0  0  0  0  0  0  0  0  0  0
   20.7601   -3.1287    5.4350 C   0  0  0  0  0  0  0  0  0  0  0  0
   18.9338   -4.5498    5.1203 C   0  0  0  0  0  0  0  0  0  0  0  0
   19.6746   -4.1627    8.6644 O   0  0  0  0  0  0  0  0  0  0  0  0
   19.6862   -5.1191    6.3310 C   0  0  0  0  0  0  0  0  0  0  0  0
   18.6074   -2.9806    6.8212 C   0  0  0  0  0  0  0  0  0  0  0  0
   19.2212   -3.0828    5.4292 C   0  0  0  0  0  0  0  0  0  0  0  0
   21.0763   -4.4515    6.1234 C   0  0  0  0  0  0  0  0  0  0  0  0
   20.4730   -3.6502    8.4623 H   0  0  0  0  0  0  0  0  0  0  0  0
   18.5369   -8.7863    6.5997 C   0  0  0  0  0  0  0  0  0  0  0  0
   19.7722   -9.4651    6.7181 C   0  0  0  0  0  0  0  0  0  0  0  0
   20.9620   -8.7251    6.7367 C   0  0  0  0  0  0  0  0  0  0  0  0
   20.9335   -7.3062    6.6268 C   0  0  0  0  0  0  0  0  0  0  0  0
   19.7030   -6.6154    6.4957 C   0  0  0  0  0  0  0  0  0  0  0  0
   18.4960   -7.3902    6.4963 C   0  0  0  0  0  0  0  0  0  0  0  0
   19.0275   -1.7340    7.6175 C   0  0  0  0  0  0  0  0  0  0  0  0
   16.5407   -1.5715    7.5944 C   0  0  0  0  0  0  0  0  0  0  0  0
   17.8401   -0.8510    7.7228 N   0  0  0  0  0  0  0  0  0  0  0  0
   17.9548    0.2487    6.7298 C   0  0  0  0  0  0  0  0  0  0  0  0
  2  8  1  0  0  0
  2  7  1  0  0  0
  8  5  1  0  0  0
 13 12  2  0  0  0
 13 14  1  0  0  0
  7  3  1  0  0  0
  7  6  1  0  0  0
 16  6  1  0  0  0
 16 18  1  0  0  0
  5  3  1  0  0  0
  5 14  1  0  0  0
  5  1  1  0  0  0
 12 11  1  0  0  0
  4  1  1  0  0  0
 19 18  1  0  0  0
 14 15  2  0  0  0
  6  1  1  0  0  0
 18 17  1  0  0  0
 11 10  2  0  0  0
 15 10  1  0  0  0
  4  9  1  0  0  0
M  END
> <minimizedAffinity>
-6.41855

$$$$
5VAR_92Y_A_1101


 19 21  0  0  0  0  0  0  0  0999 V2000
   21.2357   -7.5914    5.9253 C   0  0  0  0  0  0  0  0  0  0  0  0
   19.4643   -8.5499    3.6904 C   0  0  0  0  0  0  0  0  0  0  0  0
   19.3492   -9.0209    5.9749 C   0  0  0  0  0  0  0  0  0  0  0  0
   22.3465   -7.1039    5.2000 O   0  0  0  0  0  0  0  0  0  0  0  0
   20.8420   -9.0831    5.6232 C   0  0  0  0  0  0  0  0  0  0  0  0
   19.9485   -6.8101    5.5114 C   0  0  0  0  0  0  0  0  0  0  0  0
   19.0034   -7.8941    5.0049 C   0  0  0  0  0  0  0  0  0  0  0  0
   20.7486   -9.2721    4.0815 C   0  0  0  0  0  0  0  0  0  0  0  0
   22.1631   -7.1631    4.2494 H   0  0  0  0  0  0  0  0  0  0  0  0
   23.7276  -11.4641    6.5424 C   0  0  0  0  0  0  0  0  0  0  0  0
   23.3054  -11.9526    7.8009 C   0  0  0  0  0  0  0  0  0  0  0  0
   22.0780  -11.5257    8.3252 C   0  0  0  0  0  0  0  0  0  0  0  0
   21.2665  -10.6022    7.6077 C   0  0  0  0  0  0  0  0  0  0  0  0
   21.6840  -10.0965    6.3514 C   0  0  0  0  0  0  0  0  0  0  0  0
   22.9352  -10.5593    5.8248 C   0  0  0  0  0  0  0  0  0  0  0  0
   20.1516   -5.6327    4.5434 C   0  0  0  0  0  0  0  0  0  0  0  0
   18.4944   -4.7826    2.8873 C   0  0  0  0  0  0  0  0  0  0  0  0
   18.8269   -5.0017    4.3245 N   0  0  0  0  0  0  0  0  0  0  0  0
   18.7495   -3.7372    5.1015 C   0  0  0  0  0  0  0  0  0  0  0  0
  2  8  1  0  0  0
  2  7  1  0  0  0
  8  5  1  0  0  0
 13 12  2  0  0  0
 13 14  1  0  0  0
  7  3  1  0  0  0
  7  6  1  0  0  0
 16  6  1  0  0  0
 16 18  1  0  0  0
  5  3  1  0  0  0
  5 14  1  0  0  0
  5  1  1  0  0  0
 12 11  1  0  0  0
  4  1  1  0  0  0
 19 18  1  0  0  0
 14 15  2  0  0  0
  6  1  1  0  0  0
 18 17  1  0  0  0
 11 10  2  0  0  0
 15 10  1  0  0  0
  4  9  1  0  0  0
M  END
> <minimizedAffinity>
-6.28156

$$$$
5VAR_92Y_A_1101


 19 21  0  0  0  0  0  0  0  0999 V2000
   20.6107   -7.4810    6.4047 C   0  0  0  0  0  0  0  0  0  0  0  0
   19.6513   -7.6575    3.5587 C   0  0  0  0  0  0  0  0  0  0  0  0
   19.1042   -8.9995    5.3900 C   0  0  0  0  0  0  0  0  0  0  0  0
   21.7345   -6.6362    6.2594 O   0  0  0  0  0  0  0  0  0  0  0  0
   20.6173   -8.7648    5.4974 C   0  0  0  0  0  0  0  0  0  0  0  0
   19.3231   -6.7361    5.9295 C   0  0  0  0  0  0  0  0  0  0  0  0
   18.7693   -7.6235    4.8201 C   0  0  0  0  0  0  0  0  0  0  0  0
   20.9292   -8.3397    4.0335 C   0  0  0  0  0  0  0  0  0  0  0  0
   21.7954   -6.3345    5.3396 H   0  0  0  0  0  0  0  0  0  0  0  0
   23.2909  -11.5222    5.7974 C   0  0  0  0  0  0  0  0  0  0  0  0
   23.0961  -11.9660    7.1262 C   0  0  0  0  0  0  0  0  0  0  0  0
   22.0831  -11.3855    7.9012 C   0  0  0  0  0  0  0  0  0  0  0  0
   21.2636  -10.3526    7.3649 C   0  0  0  0  0  0  0  0  0  0  0  0
   21.4567   -9.8911    6.0390 C   0  0  0  0  0  0  0  0  0  0  0  0
   22.4873  -10.5104    5.2571 C   0  0  0  0  0  0  0  0  0  0  0  0
   19.4984   -5.2585    5.5415 C   0  0  0  0  0  0  0  0  0  0  0  0
   19.1165   -4.3396    7.8265 C   0  0  0  0  0  0  0  0  0  0  0  0
   20.0822   -4.5566    6.7108 N   0  0  0  0  0  0  0  0  0  0  0  0
   20.6945   -3.2788    6.2627 C   0  0  0  0  0  0  0  0  0  0  0  0
  2  8  1  0  0  0
  2  7  1  0  0  0
  8  5  1  0  0  0
 13 12  2  0  0  0
 13 14  1  0  0  0
  7  3  1  0  0  0
  7  6  1  0  0  0
 16  6  1  0  0  0
 16 18  1  0  0  0
  5  3  1  0  0  0
  5 14  1  0  0  0
  5  1  1  0  0  0
 12 11  1  0  0  0
  4  1  1  0  0  0
 19 18  1  0  0  0
 14 15  2  0  0  0
  6  1  1  0  0  0
 18 17  1  0  0  0
 11 10  2  0  0  0
 15 10  1  0  0  0
  4  9  1  0  0  0
M  END
> <minimizedAffinity>
-6.26462

$$$$
5VAR_92Y_A_1101


 19 21  0  0  0  0  0  0  0  0999 V2000
   21.2424   -7.5744    6.0193 C   0  0  0  0  0  0  0  0  0  0  0  0
   18.5353   -8.6142    5.2184 C   0  0  0  0  0  0  0  0  0  0  0  0
   20.0547   -9.4816    6.7653 C   0  0  0  0  0  0  0  0  0  0  0  0
   21.5046   -6.6655    4.9692 O   0  0  0  0  0  0  0  0  0  0  0  0
   20.9049   -9.0412    5.5657 C   0  0  0  0  0  0  0  0  0  0  0  0
   19.9464   -7.1471    6.7785 C   0  0  0  0  0  0  0  0  0  0  0  0
   19.0278   -8.3577    6.6544 C   0  0  0  0  0  0  0  0  0  0  0  0
   19.8076   -8.9828    4.4640 C   0  0  0  0  0  0  0  0  0  0  0  0
   20.7307   -6.6124    4.3867 H   0  0  0  0  0  0  0  0  0  0  0  0
   24.1232  -11.1291    5.9187 C   0  0  0  0  0  0  0  0  0  0  0  0
   24.3562  -11.5237    4.5805 C   0  0  0  0  0  0  0  0  0  0  0  0
   23.4834  -11.0868    3.5751 C   0  0  0  0  0  0  0  0  0  0  0  0
   22.3667  -10.2636    3.8937 C   0  0  0  0  0  0  0  0  0  0  0  0
   22.1158   -9.8713    5.2322 C   0  0  0  0  0  0  0  0  0  0  0  0
   23.0309  -10.3150    6.2435 C   0  0  0  0  0  0  0  0  0  0  0  0
   19.3138   -5.8147    6.3439 C   0  0  0  0  0  0  0  0  0  0  0  0
   18.9912   -4.2935    8.2916 C   0  0  0  0  0  0  0  0  0  0  0  0
   19.8942   -4.7469    7.1946 N   0  0  0  0  0  0  0  0  0  0  0  0
   20.3227   -3.6119    6.3362 C   0  0  0  0  0  0  0  0  0  0  0  0
  2  8  1  0  0  0
  2  7  1  0  0  0
  8  5  1  0  0  0
 13 12  2  0  0  0
 13 14  1  0  0  0
  7  3  1  0  0  0
  7  6  1  0  0  0
 16  6  1  0  0  0
 16 18  1  0  0  0
  5  3  1  0  0  0
  5 14  1  0  0  0
  5  1  1  0  0  0
 12 11  1  0  0  0
  4  1  1  0  0  0
 19 18  1  0  0  0
 14 15  2  0  0  0
  6  1  1  0  0  0
 18 17  1  0  0  0
 11 10  2  0  0  0
 15 10  1  0  0  0
  4  9  1  0  0  0
M  END
> <minimizedAffinity>
-6.24157

$$$$
5VAR_92Y_A_1101


 19 21  0  0  0  0  0  0  0  0999 V2000
   19.9266   -7.0909    4.5893 C   0  0  0  0  0  0  0  0  0  0  0  0
   20.4994   -9.0492    6.8002 C   0  0  0  0  0  0  0  0  0  0  0  0
   18.5021   -7.9624    6.2675 C   0  0  0  0  0  0  0  0  0  0  0  0
   21.2368   -6.7244    4.2063 O   0  0  0  0  0  0  0  0  0  0  0  0
   19.5964   -6.8971    6.1140 C   0  0  0  0  0  0  0  0  0  0  0  0
   19.7270   -8.6270    4.3913 C   0  0  0  0  0  0  0  0  0  0  0  0
   19.3502   -9.1339    5.7791 C   0  0  0  0  0  0  0  0  0  0  0  0
   20.7295   -7.5504    6.9568 C   0  0  0  0  0  0  0  0  0  0  0  0
   21.8792   -7.2521    4.7061 H   0  0  0  0  0  0  0  0  0  0  0  0
   18.8372   -3.1278    5.8743 C   0  0  0  0  0  0  0  0  0  0  0  0
   18.4799   -2.8227    7.2084 C   0  0  0  0  0  0  0  0  0  0  0  0
   18.5149   -3.8356    8.1761 C   0  0  0  0  0  0  0  0  0  0  0  0
   18.8947   -5.1611    7.8229 C   0  0  0  0  0  0  0  0  0  0  0  0
   19.2434   -5.4820    6.4873 C   0  0  0  0  0  0  0  0  0  0  0  0
   19.2178   -4.4271    5.5159 C   0  0  0  0  0  0  0  0  0  0  0  0
   20.8901   -9.3821    3.7267 C   0  0  0  0  0  0  0  0  0  0  0  0
   19.6792   -8.7529    1.6412 C   0  0  0  0  0  0  0  0  0  0  0  0
   20.9948   -8.8979    2.3283 N   0  0  0  0  0  0  0  0  0  0  0  0
   21.9130   -9.7851    1.5676 C   0  0  0  0  0  0  0  0  0  0  0  0
  2  8  1  0  0  0
  2  7  1  0  0  0
  8  5  1  0  0  0
 13 12  2  0  0  0
 13 14  1  0  0  0
  7  3  1  0  0  0
  7  6  1  0  0  0
 16  6  1  0  0  0
 16 18  1  0  0  0
  5  3  1  0  0  0
  5 14  1  0  0  0
  5  1  1  0  0  0
 12 11  1  0  0  0
  4  1  1  0  0  0
 19 18  1  0  0  0
 14 15  2  0  0  0
  6  1  1  0  0  0
 18 17  1  0  0  0
 11 10  2  0  0  0
 15 10  1  0  0  0
  4  9  1  0  0  0
M  END
> <minimizedAffinity>
-5.93402

$$$$
