6GNW_F52_C_201


 15 15  0  0  0  0  0  0  0  0999 V2000
  -13.2017   -2.3798  -38.8144 C   0  0  0  0  0  0  0  0  0  0  0  0
  -13.3830   -2.9374  -37.5625 C   0  0  0  0  0  0  0  0  0  0  0  0
  -14.5325   -3.6453  -37.2663 C   0  0  0  0  0  0  0  0  0  0  0  0
  -14.7087   -4.3239  -35.6785 Cl  0  0  0  0  0  0  0  0  0  0  0  0
  -15.5298   -3.8097  -38.2265 C   0  0  0  0  0  0  0  0  0  0  0  0
  -16.9767   -4.6953  -37.8734 Cl  0  0  0  0  0  0  0  0  0  0  0  0
  -15.3666   -3.2531  -39.5038 C   0  0  0  0  0  0  0  0  0  0  0  0
  -14.1920   -2.5386  -39.7791 C   0  0  0  0  0  0  0  0  0  0  0  0
  -13.9769   -1.8445  -41.3540 Cl  0  0  0  0  0  0  0  0  0  0  0  0
  -12.0807   -1.6622  -39.1740 O   0  0  0  0  0  0  0  0  0  0  0  0
  -10.8353   -2.3460  -39.1372 C   0  0  0  0  0  0  0  0  0  0  0  0
  -10.5090   -3.2342  -41.3281 O   0  0  0  0  0  0  0  0  0  0  0  0
  -10.8271   -3.5029  -40.0970 C   0  0  0  0  0  0  0  0  0  0  0  0
  -11.1120   -4.6419  -39.7114 O   0  0  0  0  0  0  0  0  0  0  0  0
  -10.2999   -2.3554  -41.5769 H   0  0  0  0  0  0  0  0  0  0  0  0
  4  3  1  0  0  0
  6  5  1  0  0  0
  3  5  2  0  0  0
  3  2  1  0  0  0
  5  7  1  0  0  0
 14 13  2  0  0  0
  2  1  2  0  0  0
 12 13  1  0  0  0
 13 11  1  0  0  0
  7  8  2  0  0  0
  1  8  1  0  0  0
  1 10  1  0  0  0
  8  9  1  0  0  0
 11 10  1  0  0  0
 12 15  1  0  0  0
M  END
> <minimizedAffinity>
-6.30447

$$$$
6GNW_F52_C_201


 15 15  0  0  0  0  0  0  0  0999 V2000
  -13.3041   -3.9728  -38.3968 C   0  0  0  0  0  0  0  0  0  0  0  0
  -14.2288   -3.3894  -39.2426 C   0  0  0  0  0  0  0  0  0  0  0  0
  -15.3835   -2.8204  -38.7393 C   0  0  0  0  0  0  0  0  0  0  0  0
  -16.5107   -2.1019  -39.8463 Cl  0  0  0  0  0  0  0  0  0  0  0  0
  -15.6352   -2.8250  -37.3680 C   0  0  0  0  0  0  0  0  0  0  0  0
  -17.0766   -2.1152  -36.7191 Cl  0  0  0  0  0  0  0  0  0  0  0  0
  -14.7102   -3.4109  -36.4912 C   0  0  0  0  0  0  0  0  0  0  0  0
  -13.5471   -3.9822  -37.0267 C   0  0  0  0  0  0  0  0  0  0  0  0
  -12.3948   -4.7107  -35.9542 Cl  0  0  0  0  0  0  0  0  0  0  0  0
  -12.1343   -4.5577  -38.8334 O   0  0  0  0  0  0  0  0  0  0  0  0
  -11.0856   -3.6862  -39.2345 C   0  0  0  0  0  0  0  0  0  0  0  0
  -10.3654   -4.4499  -41.3778 O   0  0  0  0  0  0  0  0  0  0  0  0
  -11.0420   -3.5485  -40.7308 C   0  0  0  0  0  0  0  0  0  0  0  0
  -11.6274   -2.6171  -41.2938 O   0  0  0  0  0  0  0  0  0  0  0  0
   -9.9368   -5.1394  -40.9100 H   0  0  0  0  0  0  0  0  0  0  0  0
  4  3  1  0  0  0
  6  5  1  0  0  0
  3  5  2  0  0  0
  3  2  1  0  0  0
  5  7  1  0  0  0
 14 13  2  0  0  0
  2  1  2  0  0  0
 12 13  1  0  0  0
 13 11  1  0  0  0
  7  8  2  0  0  0
  1  8  1  0  0  0
  1 10  1  0  0  0
  8  9  1  0  0  0
 11 10  1  0  0  0
 12 15  1  0  0  0
M  END
> <minimizedAffinity>
-6.15967

$$$$
6GNW_F52_C_201


 15 15  0  0  0  0  0  0  0  0999 V2000
  -12.9596   -3.6568  -37.9616 C   0  0  0  0  0  0  0  0  0  0  0  0
  -13.2271   -3.1520  -39.2204 C   0  0  0  0  0  0  0  0  0  0  0  0
  -14.4928   -2.7010  -39.5443 C   0  0  0  0  0  0  0  0  0  0  0  0
  -14.7734   -2.0774  -41.1395 Cl  0  0  0  0  0  0  0  0  0  0  0  0
  -15.5225   -2.7473  -38.6055 C   0  0  0  0  0  0  0  0  0  0  0  0
  -17.1149   -2.1850  -38.9935 Cl  0  0  0  0  0  0  0  0  0  0  0  0
  -15.2734   -3.2550  -37.3218 C   0  0  0  0  0  0  0  0  0  0  0  0
  -13.9814   -3.7071  -37.0182 C   0  0  0  0  0  0  0  0  0  0  0  0
  -13.6592   -4.3378  -35.4349 Cl  0  0  0  0  0  0  0  0  0  0  0  0
  -11.7211   -4.1231  -37.5747 O   0  0  0  0  0  0  0  0  0  0  0  0
  -10.6236   -3.2297  -37.7055 C   0  0  0  0  0  0  0  0  0  0  0  0
  -10.7531   -2.4961  -35.4382 O   0  0  0  0  0  0  0  0  0  0  0  0
  -10.6995   -2.1296  -36.6839 C   0  0  0  0  0  0  0  0  0  0  0  0
  -10.7091   -0.9448  -37.0352 O   0  0  0  0  0  0  0  0  0  0  0  0
  -10.7433   -3.4066  -35.2169 H   0  0  0  0  0  0  0  0  0  0  0  0
  4  3  1  0  0  0
  6  5  1  0  0  0
  3  5  2  0  0  0
  3  2  1  0  0  0
  5  7  1  0  0  0
 14 13  2  0  0  0
  2  1  2  0  0  0
 12 13  1  0  0  0
 13 11  1  0  0  0
  7  8  2  0  0  0
  1  8  1  0  0  0
  1 10  1  0  0  0
  8  9  1  0  0  0
 11 10  1  0  0  0
 12 15  1  0  0  0
M  END
> <minimizedAffinity>
-6.14125

$$$$
6GNW_F52_C_201


 15 15  0  0  0  0  0  0  0  0999 V2000
  -15.7985   -3.4202  -38.0198 C   0  0  0  0  0  0  0  0  0  0  0  0
  -15.7994   -4.5861  -38.7626 C   0  0  0  0  0  0  0  0  0  0  0  0
  -16.9718   -5.0717  -39.3103 C   0  0  0  0  0  0  0  0  0  0  0  0
  -16.9158   -6.5402  -40.2337 Cl  0  0  0  0  0  0  0  0  0  0  0  0
  -18.1750   -4.3927  -39.1230 C   0  0  0  0  0  0  0  0  0  0  0  0
  -19.6541   -4.9859  -39.8033 Cl  0  0  0  0  0  0  0  0  0  0  0  0
  -18.1973   -3.2072  -38.3734 C   0  0  0  0  0  0  0  0  0  0  0  0
  -16.9949   -2.7360  -37.8275 C   0  0  0  0  0  0  0  0  0  0  0  0
  -17.0077   -1.2716  -36.8979 Cl  0  0  0  0  0  0  0  0  0  0  0  0
  -14.6658   -2.8828  -37.4462 O   0  0  0  0  0  0  0  0  0  0  0  0
  -13.5202   -3.7204  -37.3685 C   0  0  0  0  0  0  0  0  0  0  0  0
  -13.7264   -4.3863  -35.0860 O   0  0  0  0  0  0  0  0  0  0  0  0
  -12.9876   -3.7761  -35.9639 C   0  0  0  0  0  0  0  0  0  0  0  0
  -11.9002   -3.2605  -35.6829 O   0  0  0  0  0  0  0  0  0  0  0  0
  -14.5448   -4.7632  -35.3432 H   0  0  0  0  0  0  0  0  0  0  0  0
  4  3  1  0  0  0
  6  5  1  0  0  0
  3  5  2  0  0  0
  3  2  1  0  0  0
  5  7  1  0  0  0
 14 13  2  0  0  0
  2  1  2  0  0  0
 12 13  1  0  0  0
 13 11  1  0  0  0
  7  8  2  0  0  0
  1  8  1  0  0  0
  1 10  1  0  0  0
  8  9  1  0  0  0
 11 10  1  0  0  0
 12 15  1  0  0  0
M  END
> <minimizedAffinity>
-5.94928

$$$$
6GNW_F52_C_201


 15 15  0  0  0  0  0  0  0  0999 V2000
  -16.0454   -3.1514  -38.8157 C   0  0  0  0  0  0  0  0  0  0  0  0
  -16.1922   -2.0653  -37.9732 C   0  0  0  0  0  0  0  0  0  0  0  0
  -17.3984   -1.8190  -37.3450 C   0  0  0  0  0  0  0  0  0  0  0  0
  -17.5276   -0.4409  -36.2978 Cl  0  0  0  0  0  0  0  0  0  0  0  0
  -18.4888   -2.6631  -37.5503 C   0  0  0  0  0  0  0  0  0  0  0  0
  -20.0080   -2.3707  -36.7700 Cl  0  0  0  0  0  0  0  0  0  0  0  0
  -18.3621   -3.7716  -38.4006 C   0  0  0  0  0  0  0  0  0  0  0  0
  -17.1284   -3.9992  -39.0268 C   0  0  0  0  0  0  0  0  0  0  0  0
  -16.9575   -5.3658  -40.0813 Cl  0  0  0  0  0  0  0  0  0  0  0  0
  -14.8715   -3.4528  -39.4731 O   0  0  0  0  0  0  0  0  0  0  0  0
  -13.8640   -2.4504  -39.4908 C   0  0  0  0  0  0  0  0  0  0  0  0
  -14.1471   -1.8350  -41.7792 O   0  0  0  0  0  0  0  0  0  0  0  0
  -13.3148   -2.2628  -40.8775 C   0  0  0  0  0  0  0  0  0  0  0  0
  -12.1290   -2.5096  -41.1228 O   0  0  0  0  0  0  0  0  0  0  0  0
  -15.0385   -1.6604  -41.5489 H   0  0  0  0  0  0  0  0  0  0  0  0
  4  3  1  0  0  0
  6  5  1  0  0  0
  3  5  2  0  0  0
  3  2  1  0  0  0
  5  7  1  0  0  0
 14 13  2  0  0  0
  2  1  2  0  0  0
 12 13  1  0  0  0
 13 11  1  0  0  0
  7  8  2  0  0  0
  1  8  1  0  0  0
  1 10  1  0  0  0
  8  9  1  0  0  0
 11 10  1  0  0  0
 12 15  1  0  0  0
M  END
> <minimizedAffinity>
-5.88319

$$$$
6GNW_F52_C_201


 15 15  0  0  0  0  0  0  0  0999 V2000
  -14.6475   -3.1954  -39.1528 C   0  0  0  0  0  0  0  0  0  0  0  0
  -14.3143   -3.7125  -37.9148 C   0  0  0  0  0  0  0  0  0  0  0  0
  -13.0585   -3.5010  -37.3777 C   0  0  0  0  0  0  0  0  0  0  0  0
  -12.6933   -4.1733  -35.8198 Cl  0  0  0  0  0  0  0  0  0  0  0  0
  -12.1054   -2.7611  -38.0761 C   0  0  0  0  0  0  0  0  0  0  0  0
  -10.5266   -2.4846  -37.4177 Cl  0  0  0  0  0  0  0  0  0  0  0  0
  -12.4220   -2.2264  -39.3338 C   0  0  0  0  0  0  0  0  0  0  0  0
  -13.7023   -2.4559  -39.8572 C   0  0  0  0  0  0  0  0  0  0  0  0
  -14.1075   -1.8011  -41.4115 Cl  0  0  0  0  0  0  0  0  0  0  0  0
  -15.8802   -3.3701  -39.7451 O   0  0  0  0  0  0  0  0  0  0  0  0
  -16.8934   -3.9856  -38.9610 C   0  0  0  0  0  0  0  0  0  0  0  0
  -17.3363   -6.2798  -38.4753 O   0  0  0  0  0  0  0  0  0  0  0  0
  -17.1382   -5.3991  -39.4102 C   0  0  0  0  0  0  0  0  0  0  0  0
  -17.1457   -5.6844  -40.6126 O   0  0  0  0  0  0  0  0  0  0  0  0
  -17.3219   -6.0191  -37.5754 H   0  0  0  0  0  0  0  0  0  0  0  0
  4  3  1  0  0  0
  6  5  1  0  0  0
  3  5  2  0  0  0
  3  2  1  0  0  0
  5  7  1  0  0  0
 14 13  2  0  0  0
  2  1  2  0  0  0
 12 13  1  0  0  0
 13 11  1  0  0  0
  7  8  2  0  0  0
  1  8  1  0  0  0
  1 10  1  0  0  0
  8  9  1  0  0  0
 11 10  1  0  0  0
 12 15  1  0  0  0
M  END
> <minimizedAffinity>
-5.78772

$$$$
6GNW_F52_C_201


 15 15  0  0  0  0  0  0  0  0999 V2000
  -14.5541   -3.1935  -37.6301 C   0  0  0  0  0  0  0  0  0  0  0  0
  -14.3349   -2.6130  -38.8654 C   0  0  0  0  0  0  0  0  0  0  0  0
  -13.0634   -2.5634  -39.4049 C   0  0  0  0  0  0  0  0  0  0  0  0
  -12.8449   -1.8226  -40.9592 Cl  0  0  0  0  0  0  0  0  0  0  0  0
  -11.9790   -3.0992  -38.7117 C   0  0  0  0  0  0  0  0  0  0  0  0
  -10.3783   -3.0473  -39.3732 Cl  0  0  0  0  0  0  0  0  0  0  0  0
  -12.1784   -3.6937  -37.4568 C   0  0  0  0  0  0  0  0  0  0  0  0
  -13.4776   -3.7305  -36.9308 C   0  0  0  0  0  0  0  0  0  0  0  0
  -13.7388   -4.4622  -35.3800 Cl  0  0  0  0  0  0  0  0  0  0  0  0
  -15.7955   -3.2747  -37.0356 O   0  0  0  0  0  0  0  0  0  0  0  0
  -16.9170   -2.9046  -37.8264 C   0  0  0  0  0  0  0  0  0  0  0  0
  -17.9697   -0.8195  -38.3162 O   0  0  0  0  0  0  0  0  0  0  0  0
  -17.4730   -1.5792  -37.3861 C   0  0  0  0  0  0  0  0  0  0  0  0
  -17.4474   -1.2511  -36.1949 O   0  0  0  0  0  0  0  0  0  0  0  0
  -17.9684   -1.1085  -39.2075 H   0  0  0  0  0  0  0  0  0  0  0  0
  4  3  1  0  0  0
  6  5  1  0  0  0
  3  5  2  0  0  0
  3  2  1  0  0  0
  5  7  1  0  0  0
 14 13  2  0  0  0
  2  1  2  0  0  0
 12 13  1  0  0  0
 13 11  1  0  0  0
  7  8  2  0  0  0
  1  8  1  0  0  0
  1 10  1  0  0  0
  8  9  1  0  0  0
 11 10  1  0  0  0
 12 15  1  0  0  0
M  END
> <minimizedAffinity>
-5.72759

$$$$
6GNW_F52_C_201


 15 15  0  0  0  0  0  0  0  0999 V2000
  -14.5739   -3.1977  -39.1464 C   0  0  0  0  0  0  0  0  0  0  0  0
  -14.1487   -3.7417  -37.9489 C   0  0  0  0  0  0  0  0  0  0  0  0
  -12.8481   -3.5635  -37.5164 C   0  0  0  0  0  0  0  0  0  0  0  0
  -12.3672   -4.2688  -36.0052 Cl  0  0  0  0  0  0  0  0  0  0  0  0
  -11.9420   -2.8305  -38.2815 C   0  0  0  0  0  0  0  0  0  0  0  0
  -10.3081   -2.5955  -37.7544 Cl  0  0  0  0  0  0  0  0  0  0  0  0
  -12.3521   -2.2688  -39.4998 C   0  0  0  0  0  0  0  0  0  0  0  0
  -13.6763   -2.4648  -39.9168 C   0  0  0  0  0  0  0  0  0  0  0  0
  -14.1970   -1.7763  -41.4213 Cl  0  0  0  0  0  0  0  0  0  0  0  0
  -15.8554   -3.3387  -39.6353 O   0  0  0  0  0  0  0  0  0  0  0  0
  -16.8996   -3.4815  -38.6817 C   0  0  0  0  0  0  0  0  0  0  0  0
  -17.6902   -1.2358  -38.8465 O   0  0  0  0  0  0  0  0  0  0  0  0
  -17.2386   -2.1595  -38.0516 C   0  0  0  0  0  0  0  0  0  0  0  0
  -17.0869   -1.9842  -36.8378 O   0  0  0  0  0  0  0  0  0  0  0  0
  -17.7895   -1.4124  -39.7613 H   0  0  0  0  0  0  0  0  0  0  0  0
  4  3  1  0  0  0
  6  5  1  0  0  0
  3  5  2  0  0  0
  3  2  1  0  0  0
  5  7  1  0  0  0
 14 13  2  0  0  0
  2  1  2  0  0  0
 12 13  1  0  0  0
 13 11  1  0  0  0
  7  8  2  0  0  0
  1  8  1  0  0  0
  1 10  1  0  0  0
  8  9  1  0  0  0
 11 10  1  0  0  0
 12 15  1  0  0  0
M  END
> <minimizedAffinity>
-5.72195

$$$$
6GNW_F52_C_201


 15 15  0  0  0  0  0  0  0  0999 V2000
  -14.5573   -3.3428  -37.6850 C   0  0  0  0  0  0  0  0  0  0  0  0
  -14.2891   -2.7162  -38.8877 C   0  0  0  0  0  0  0  0  0  0  0  0
  -12.9865   -2.4703  -39.2789 C   0  0  0  0  0  0  0  0  0  0  0  0
  -12.7068   -1.6800  -40.7986 Cl  0  0  0  0  0  0  0  0  0  0  0  0
  -11.9195   -2.8509  -38.4662 C   0  0  0  0  0  0  0  0  0  0  0  0
  -10.2801   -2.5520  -38.9411 Cl  0  0  0  0  0  0  0  0  0  0  0  0
  -12.1685   -3.4889  -37.2419 C   0  0  0  0  0  0  0  0  0  0  0  0
  -13.4986   -3.7261  -36.8673 C   0  0  0  0  0  0  0  0  0  0  0  0
  -13.8212   -4.5136  -35.3559 Cl  0  0  0  0  0  0  0  0  0  0  0  0
  -15.8318   -3.6166  -37.2358 O   0  0  0  0  0  0  0  0  0  0  0  0
  -16.8743   -3.6069  -38.2018 C   0  0  0  0  0  0  0  0  0  0  0  0
  -16.9385   -5.0181  -40.1253 O   0  0  0  0  0  0  0  0  0  0  0  0
  -17.0388   -4.9622  -38.8308 C   0  0  0  0  0  0  0  0  0  0  0  0
  -17.2576   -5.9575  -38.1317 O   0  0  0  0  0  0  0  0  0  0  0  0
  -16.7717   -4.2377  -40.6164 H   0  0  0  0  0  0  0  0  0  0  0  0
  4  3  1  0  0  0
  6  5  1  0  0  0
  3  5  2  0  0  0
  3  2  1  0  0  0
  5  7  1  0  0  0
 14 13  2  0  0  0
  2  1  2  0  0  0
 12 13  1  0  0  0
 13 11  1  0  0  0
  7  8  2  0  0  0
  1  8  1  0  0  0
  1 10  1  0  0  0
  8  9  1  0  0  0
 11 10  1  0  0  0
 12 15  1  0  0  0
M  END
> <minimizedAffinity>
-5.67731

$$$$
6GNW_F52_C_201


 15 15  0  0  0  0  0  0  0  0999 V2000
  -12.8542   -2.2026  -38.3480 C   0  0  0  0  0  0  0  0  0  0  0  0
  -14.0420   -1.8024  -37.7648 C   0  0  0  0  0  0  0  0  0  0  0  0
  -15.1768   -2.5844  -37.8694 C   0  0  0  0  0  0  0  0  0  0  0  0
  -16.6415   -2.0340  -37.1184 Cl  0  0  0  0  0  0  0  0  0  0  0  0
  -15.1426   -3.7920  -38.5654 C   0  0  0  0  0  0  0  0  0  0  0  0
  -16.5550   -4.7859  -38.7055 Cl  0  0  0  0  0  0  0  0  0  0  0  0
  -13.9478   -4.2180  -39.1644 C   0  0  0  0  0  0  0  0  0  0  0  0
  -12.8108   -3.4063  -39.0448 C   0  0  0  0  0  0  0  0  0  0  0  0
  -11.3267   -3.9203  -39.7809 Cl  0  0  0  0  0  0  0  0  0  0  0  0
  -11.6880   -1.4701  -38.2820 O   0  0  0  0  0  0  0  0  0  0  0  0
  -10.6173   -2.0246  -37.5296 C   0  0  0  0  0  0  0  0  0  0  0  0
  -10.5261   -1.0182  -35.3676 O   0  0  0  0  0  0  0  0  0  0  0  0
  -10.9397   -2.0363  -36.0615 C   0  0  0  0  0  0  0  0  0  0  0  0
  -11.5670   -2.9771  -35.5629 O   0  0  0  0  0  0  0  0  0  0  0  0
  -10.0535   -0.3263  -35.7870 H   0  0  0  0  0  0  0  0  0  0  0  0
  4  3  1  0  0  0
  6  5  1  0  0  0
  3  5  2  0  0  0
  3  2  1  0  0  0
  5  7  1  0  0  0
 14 13  2  0  0  0
  2  1  2  0  0  0
 12 13  1  0  0  0
 13 11  1  0  0  0
  7  8  2  0  0  0
  1  8  1  0  0  0
  1 10  1  0  0  0
  8  9  1  0  0  0
 11 10  1  0  0  0
 12 15  1  0  0  0
M  END
> <minimizedAffinity>
-5.58312

$$$$
