3R7O_M61_A_1


 42 47  0  0  0  0  0  0  0  0999 V2000
   -4.2723   -8.3175  -16.4345 C   0  0  0  0  0  0  0  0  0  0  0  0
   -6.6019   -8.8944  -16.5426 N   0  0  0  0  0  0  0  0  0  0  0  0
   -4.9735   -6.4465  -12.9728 O   0  0  0  0  0  0  0  0  0  0  0  0
   -5.3350   -9.0243  -16.9540 C   0  0  0  0  0  0  0  0  0  0  0  0
   -6.8363   -8.0152  -15.5583 C   0  0  0  0  0  0  0  0  0  0  0  0
   -5.8172   -7.3263  -14.9168 C   0  0  0  0  0  0  0  0  0  0  0  0
   -4.5182   -7.4848  -15.3615 C   0  0  0  0  0  0  0  0  0  0  0  0
   -8.2541   -7.9556  -15.2639 C   0  0  0  0  0  0  0  0  0  0  0  0
   -8.9257   -7.1060  -14.4849 C   0  0  0  0  0  0  0  0  0  0  0  0
   -8.4410   -5.9932  -13.6939 C   0  0  0  0  0  0  0  0  0  0  0  0
   -7.1311   -5.6929  -13.3551 C   0  0  0  0  0  0  0  0  0  0  0  0
   -5.9489   -6.4896  -13.7170 C   0  0  0  0  0  0  0  0  0  0  0  0
   -9.4434   -5.1426  -13.2801 C   0  0  0  0  0  0  0  0  0  0  0  0
   -9.1616   -4.0380  -12.5168 C   0  0  0  0  0  0  0  0  0  0  0  0
   -7.8654   -3.7750  -12.1361 C   0  0  0  0  0  0  0  0  0  0  0  0
   -6.8492   -4.5964  -12.5638 C   0  0  0  0  0  0  0  0  0  0  0  0
   -2.9425   -8.4574  -16.9682 C   0  0  0  0  0  0  0  0  0  0  0  0
   -2.3198   -7.5341  -17.7768 C   0  0  0  0  0  0  0  0  0  0  0  0
   -1.0664   -8.0378  -17.9793 N   0  0  0  0  0  0  0  0  0  0  0  0
   -0.8273   -9.2044  -17.3532 N   0  0  0  0  0  0  0  0  0  0  0  0
   -1.9789   -9.4701  -16.7369 C   0  0  0  0  0  0  0  0  0  0  0  0
   -0.0160   -7.4049  -18.7594 C   0  0  0  0  0  0  0  0  0  0  0  0
   -0.1463   -5.8909  -18.6861 C   0  0  0  0  0  0  0  0  0  0  0  0
    0.7588   -5.1771  -19.6728 C   0  0  0  0  0  0  0  0  0  0  0  0
    0.5014   -5.7276  -21.0268 N   0  0  0  0  0  0  0  0  0  0  0  0
    0.8521   -7.1721  -21.1041 C   0  0  0  0  0  0  0  0  0  0  0  0
   -0.0973   -7.9149  -20.1870 C   0  0  0  0  0  0  0  0  0  0  0  0
    1.0628   -5.2134  -21.7058 H   0  0  0  0  0  0  0  0  0  0  0  0
   -7.6698   -2.6302  -11.2954 N   0  0  0  0  0  0  0  0  0  0  0  0
   -8.4346   -2.0260  -11.1571 H   0  0  0  0  0  0  0  0  0  0  0  0
   -6.1904   -2.2423  -10.5132 S   0  0  0  0  0  0  0  0  0  0  0  0
   -6.5899   -2.1687   -9.1203 O   0  0  0  0  0  0  0  0  0  0  0  0
   -5.0950   -3.1080  -10.9014 O   0  0  0  0  0  0  0  0  0  0  0  0
   -6.5438    0.4532  -10.3411 C   0  0  0  0  0  0  0  0  0  0  0  0
   -5.8667   -0.6485  -11.0504 N   0  0  0  0  0  0  0  0  0  0  0  0
   -5.7477   -0.4063  -12.5029 C   0  0  0  0  0  0  0  0  0  0  0  0
   -4.2734   -0.3687  -12.8476 C   0  0  0  0  0  0  0  0  0  0  0  0
   -3.8273    1.0592  -13.0963 C   0  0  0  0  0  0  0  0  0  0  0  0
   -2.4344    1.0594  -13.3911 O   0  0  0  0  0  0  0  0  0  0  0  0
   -2.2128    0.3059  -14.5800 C   0  0  0  0  0  0  0  0  0  0  0  0
   -2.6684   -1.1227  -14.3465 C   0  0  0  0  0  0  0  0  0  0  0  0
   -4.0578   -1.1243  -14.0370 O   0  0  0  0  0  0  0  0  0  0  0  0
  1  4  2  0  0  0
  1  7  1  0  0  0
  1 17  1  0  0  0
  2  4  1  0  0  0
  2  5  2  0  0  0
  3 12  2  0  0  0
 31 35  1  0  0  0
 31 32  2  0  0  0
 31 33  2  0  0  0
 31 29  1  0  0  0
  5  6  1  0  0  0
  5  8  1  0  0  0
  6  7  2  0  0  0
  6 12  1  0  0  0
  8  9  2  0  0  0
  9 10  1  0  0  0
 10 11  2  0  0  0
 10 13  1  0  0  0
 11 12  1  0  0  0
 11 16  1  0  0  0
 13 14  2  0  0  0
 14 15  1  0  0  0
 15 16  2  0  0  0
 15 29  1  0  0  0
 17 18  2  0  0  0
 17 21  1  0  0  0
 34 35  1  0  0  0
 35 36  1  0  0  0
 36 37  1  0  0  0
 37 38  1  0  0  0
 37 42  1  0  0  0
 38 39  1  0  0  0
 39 40  1  0  0  0
 40 41  1  0  0  0
 41 42  1  0  0  0
 18 19  1  0  0  0
 19 20  1  0  0  0
 19 22  1  0  0  0
 20 21  2  0  0  0
 22 23  1  0  0  0
 22 27  1  0  0  0
 23 24  1  0  0  0
 24 25  1  0  0  0
 25 26  1  0  0  0
 26 27  1  0  0  0
 29 30  1  0  0  0
 25 28  1  0  0  0
M  END
> <minimizedAffinity>
-11.71819

$$$$
3R7O_M61_A_1


 42 47  0  0  0  0  0  0  0  0999 V2000
   -4.5934   -8.4839  -16.4060 C   0  0  0  0  0  0  0  0  0  0  0  0
   -6.9512   -8.9446  -16.3851 N   0  0  0  0  0  0  0  0  0  0  0  0
   -5.0643   -6.3134  -13.0830 O   0  0  0  0  0  0  0  0  0  0  0  0
   -5.7094   -9.1726  -16.8293 C   0  0  0  0  0  0  0  0  0  0  0  0
   -7.1028   -7.9799  -15.4668 C   0  0  0  0  0  0  0  0  0  0  0  0
   -6.0264   -7.2973  -14.9191 C   0  0  0  0  0  0  0  0  0  0  0  0
   -4.7553   -7.5580  -15.3952 C   0  0  0  0  0  0  0  0  0  0  0  0
   -8.5032   -7.8231  -15.1282 C   0  0  0  0  0  0  0  0  0  0  0  0
   -9.1008   -6.8811  -14.3966 C   0  0  0  0  0  0  0  0  0  0  0  0
   -8.5308   -5.7367  -13.7151 C   0  0  0  0  0  0  0  0  0  0  0  0
   -7.1953   -5.4799  -13.4480 C   0  0  0  0  0  0  0  0  0  0  0  0
   -6.0691   -6.3634  -13.7863 C   0  0  0  0  0  0  0  0  0  0  0  0
   -9.4728   -4.8050  -13.3357 C   0  0  0  0  0  0  0  0  0  0  0  0
   -9.1069   -3.6602  -12.6738 C   0  0  0  0  0  0  0  0  0  0  0  0
   -7.7853   -3.4366  -12.3616 C   0  0  0  0  0  0  0  0  0  0  0  0
   -6.8286   -4.3411  -12.7576 C   0  0  0  0  0  0  0  0  0  0  0  0
   -3.2942   -8.7347  -16.9734 C   0  0  0  0  0  0  0  0  0  0  0  0
   -2.1189   -8.7716  -16.2583 C   0  0  0  0  0  0  0  0  0  0  0  0
   -1.1639   -9.1076  -17.1752 N   0  0  0  0  0  0  0  0  0  0  0  0
   -1.6328   -9.3049  -18.4207 N   0  0  0  0  0  0  0  0  0  0  0  0
   -2.9395   -9.0697  -18.3036 C   0  0  0  0  0  0  0  0  0  0  0  0
    0.2503   -9.2925  -16.8951 C   0  0  0  0  0  0  0  0  0  0  0  0
    0.5672  -10.7728  -16.7440 C   0  0  0  0  0  0  0  0  0  0  0  0
    1.9644  -11.0203  -16.2067 C   0  0  0  0  0  0  0  0  0  0  0  0
    2.1252  -10.2502  -14.9483 N   0  0  0  0  0  0  0  0  0  0  0  0
    2.0209   -8.7849  -15.1885 C   0  0  0  0  0  0  0  0  0  0  0  0
    0.6050   -8.5041  -15.6471 C   0  0  0  0  0  0  0  0  0  0  0  0
    3.0406  -10.4562  -14.5483 H   0  0  0  0  0  0  0  0  0  0  0  0
   -7.5003   -2.2414  -11.6228 N   0  0  0  0  0  0  0  0  0  0  0  0
   -8.1944   -1.5439  -11.5921 H   0  0  0  0  0  0  0  0  0  0  0  0
   -6.0288   -1.9446  -10.7876 S   0  0  0  0  0  0  0  0  0  0  0  0
   -6.4527   -1.0481   -9.7284 O   0  0  0  0  0  0  0  0  0  0  0  0
   -5.3056   -3.1560  -10.4567 O   0  0  0  0  0  0  0  0  0  0  0  0
   -5.2700    0.4344  -11.8761 C   0  0  0  0  0  0  0  0  0  0  0  0
   -5.1145   -1.0318  -11.9121 N   0  0  0  0  0  0  0  0  0  0  0  0
   -4.9596   -1.5574  -13.2841 C   0  0  0  0  0  0  0  0  0  0  0  0
   -3.4797   -1.5892  -13.6043 C   0  0  0  0  0  0  0  0  0  0  0  0
   -3.1971   -2.6143  -14.6856 C   0  0  0  0  0  0  0  0  0  0  0  0
   -1.8041   -2.5987  -14.9791 O   0  0  0  0  0  0  0  0  0  0  0  0
   -1.0802   -2.9686  -13.8088 C   0  0  0  0  0  0  0  0  0  0  0  0
   -1.3664   -1.9561  -12.7153 C   0  0  0  0  0  0  0  0  0  0  0  0
   -2.7610   -1.9593  -12.4302 O   0  0  0  0  0  0  0  0  0  0  0  0
  1  4  2  0  0  0
  1  7  1  0  0  0
  1 17  1  0  0  0
  2  4  1  0  0  0
  2  5  2  0  0  0
  3 12  2  0  0  0
 31 35  1  0  0  0
 31 32  2  0  0  0
 31 33  2  0  0  0
 31 29  1  0  0  0
  5  6  1  0  0  0
  5  8  1  0  0  0
  6  7  2  0  0  0
  6 12  1  0  0  0
  8  9  2  0  0  0
  9 10  1  0  0  0
 10 11  2  0  0  0
 10 13  1  0  0  0
 11 12  1  0  0  0
 11 16  1  0  0  0
 13 14  2  0  0  0
 14 15  1  0  0  0
 15 16  2  0  0  0
 15 29  1  0  0  0
 17 18  2  0  0  0
 17 21  1  0  0  0
 34 35  1  0  0  0
 35 36  1  0  0  0
 36 37  1  0  0  0
 37 38  1  0  0  0
 37 42  1  0  0  0
 38 39  1  0  0  0
 39 40  1  0  0  0
 40 41  1  0  0  0
 41 42  1  0  0  0
 18 19  1  0  0  0
 19 20  1  0  0  0
 19 22  1  0  0  0
 20 21  2  0  0  0
 22 23  1  0  0  0
 22 27  1  0  0  0
 23 24  1  0  0  0
 24 25  1  0  0  0
 25 26  1  0  0  0
 26 27  1  0  0  0
 29 30  1  0  0  0
 25 28  1  0  0  0
M  END
> <minimizedAffinity>
-11.70271

$$$$
3R7O_M61_A_1


 42 47  0  0  0  0  0  0  0  0999 V2000
   -3.8987   -8.2282  -16.5128 C   0  0  0  0  0  0  0  0  0  0  0  0
   -6.2007   -8.8707  -16.7580 N   0  0  0  0  0  0  0  0  0  0  0  0
   -4.8333   -6.4860  -13.0391 O   0  0  0  0  0  0  0  0  0  0  0  0
   -4.9110   -8.9501  -17.1069 C   0  0  0  0  0  0  0  0  0  0  0  0
   -6.5122   -8.0294  -15.7620 C   0  0  0  0  0  0  0  0  0  0  0  0
   -5.5491   -7.3305  -15.0488 C   0  0  0  0  0  0  0  0  0  0  0  0
   -4.2248   -7.4365  -15.4301 C   0  0  0  0  0  0  0  0  0  0  0  0
   -7.9443   -8.0211  -15.5397 C   0  0  0  0  0  0  0  0  0  0  0  0
   -8.6809   -7.2162  -14.7721 C   0  0  0  0  0  0  0  0  0  0  0  0
   -8.2721   -6.1142  -13.9250 C   0  0  0  0  0  0  0  0  0  0  0  0
   -6.9911   -5.7855  -13.5103 C   0  0  0  0  0  0  0  0  0  0  0  0
   -5.7677   -6.5352  -13.8336 C   0  0  0  0  0  0  0  0  0  0  0  0
   -9.3204   -5.3070  -13.5391 C   0  0  0  0  0  0  0  0  0  0  0  0
   -9.1125   -4.2184  -12.7304 C   0  0  0  0  0  0  0  0  0  0  0  0
   -7.8462   -3.9286  -12.2757 C   0  0  0  0  0  0  0  0  0  0  0  0
   -6.7843   -4.7059  -12.6739 C   0  0  0  0  0  0  0  0  0  0  0  0
   -2.5398   -8.3120  -16.9808 C   0  0  0  0  0  0  0  0  0  0  0  0
   -2.1618   -8.7979  -18.2117 C   0  0  0  0  0  0  0  0  0  0  0  0
   -0.8077   -8.6237  -18.2539 N   0  0  0  0  0  0  0  0  0  0  0  0
   -0.2855   -8.0504  -17.1544 N   0  0  0  0  0  0  0  0  0  0  0  0
   -1.3443   -7.8639  -16.3664 C   0  0  0  0  0  0  0  0  0  0  0  0
    0.0553   -8.9676  -19.3717 C   0  0  0  0  0  0  0  0  0  0  0  0
   -0.2283   -8.0546  -20.5552 C   0  0  0  0  0  0  0  0  0  0  0  0
    0.4554   -8.5173  -21.8282 C   0  0  0  0  0  0  0  0  0  0  0  0
    0.0829   -9.9331  -22.0715 N   0  0  0  0  0  0  0  0  0  0  0  0
    0.5754  -10.8215  -20.9835 C   0  0  0  0  0  0  0  0  0  0  0  0
   -0.1579  -10.4305  -19.7173 C   0  0  0  0  0  0  0  0  0  0  0  0
    0.4902  -10.2357  -22.9564 H   0  0  0  0  0  0  0  0  0  0  0  0
   -7.7295   -2.8049  -11.3930 N   0  0  0  0  0  0  0  0  0  0  0  0
   -8.5187   -2.2278  -11.2775 H   0  0  0  0  0  0  0  0  0  0  0  0
   -6.3051   -2.3980  -10.5234 S   0  0  0  0  0  0  0  0  0  0  0  0
   -6.7835   -2.3533   -9.1544 O   0  0  0  0  0  0  0  0  0  0  0  0
   -5.1712   -3.2349  -10.8610 O   0  0  0  0  0  0  0  0  0  0  0  0
   -6.6521    0.2920  -10.2707 C   0  0  0  0  0  0  0  0  0  0  0  0
   -5.9861   -0.7900  -11.0198 N   0  0  0  0  0  0  0  0  0  0  0  0
   -5.8861   -0.5071  -12.4663 C   0  0  0  0  0  0  0  0  0  0  0  0
   -4.4166   -0.4662  -12.8305 C   0  0  0  0  0  0  0  0  0  0  0  0
   -3.9874    0.9577  -13.1274 C   0  0  0  0  0  0  0  0  0  0  0  0
   -2.5983    0.9619  -13.4395 O   0  0  0  0  0  0  0  0  0  0  0  0
   -2.3839    0.1750  -14.6079 C   0  0  0  0  0  0  0  0  0  0  0  0
   -2.8229   -1.2500  -14.3261 C   0  0  0  0  0  0  0  0  0  0  0  0
   -4.2083   -1.2552  -13.9993 O   0  0  0  0  0  0  0  0  0  0  0  0
  1  4  2  0  0  0
  1  7  1  0  0  0
  1 17  1  0  0  0
  2  4  1  0  0  0
  2  5  2  0  0  0
  3 12  2  0  0  0
 31 35  1  0  0  0
 31 32  2  0  0  0
 31 33  2  0  0  0
 31 29  1  0  0  0
  5  6  1  0  0  0
  5  8  1  0  0  0
  6  7  2  0  0  0
  6 12  1  0  0  0
  8  9  2  0  0  0
  9 10  1  0  0  0
 10 11  2  0  0  0
 10 13  1  0  0  0
 11 12  1  0  0  0
 11 16  1  0  0  0
 13 14  2  0  0  0
 14 15  1  0  0  0
 15 16  2  0  0  0
 15 29  1  0  0  0
 17 18  2  0  0  0
 17 21  1  0  0  0
 34 35  1  0  0  0
 35 36  1  0  0  0
 36 37  1  0  0  0
 37 38  1  0  0  0
 37 42  1  0  0  0
 38 39  1  0  0  0
 39 40  1  0  0  0
 40 41  1  0  0  0
 41 42  1  0  0  0
 18 19  1  0  0  0
 19 20  1  0  0  0
 19 22  1  0  0  0
 20 21  2  0  0  0
 22 23  1  0  0  0
 22 27  1  0  0  0
 23 24  1  0  0  0
 24 25  1  0  0  0
 25 26  1  0  0  0
 26 27  1  0  0  0
 29 30  1  0  0  0
 25 28  1  0  0  0
M  END
> <minimizedAffinity>
-11.65808

$$$$
3R7O_M61_A_1


 42 47  0  0  0  0  0  0  0  0999 V2000
   -3.9130   -8.2764  -16.5136 C   0  0  0  0  0  0  0  0  0  0  0  0
   -6.2208   -8.8819  -16.7953 N   0  0  0  0  0  0  0  0  0  0  0  0
   -4.8597   -6.5938  -13.0139 O   0  0  0  0  0  0  0  0  0  0  0  0
   -4.9288   -8.9718  -17.1328 C   0  0  0  0  0  0  0  0  0  0  0  0
   -6.5311   -8.0572  -15.7851 C   0  0  0  0  0  0  0  0  0  0  0  0
   -5.5661   -7.3865  -15.0479 C   0  0  0  0  0  0  0  0  0  0  0  0
   -4.2394   -7.5029  -15.4180 C   0  0  0  0  0  0  0  0  0  0  0  0
   -7.9652   -8.0338  -15.5772 C   0  0  0  0  0  0  0  0  0  0  0  0
   -8.6987   -7.2348  -14.8004 C   0  0  0  0  0  0  0  0  0  0  0  0
   -8.2838   -6.1564  -13.9265 C   0  0  0  0  0  0  0  0  0  0  0  0
   -7.0029   -5.8540  -13.4921 C   0  0  0  0  0  0  0  0  0  0  0  0
   -5.7864   -6.6137  -13.8186 C   0  0  0  0  0  0  0  0  0  0  0  0
   -9.3250   -5.3429  -13.5344 C   0  0  0  0  0  0  0  0  0  0  0  0
   -9.1107   -4.2742  -12.7011 C   0  0  0  0  0  0  0  0  0  0  0  0
   -7.8454   -4.0115  -12.2277 C   0  0  0  0  0  0  0  0  0  0  0  0
   -6.7901   -4.7949  -12.6314 C   0  0  0  0  0  0  0  0  0  0  0  0
   -2.5506   -8.3692  -16.9695 C   0  0  0  0  0  0  0  0  0  0  0  0
   -2.1694   -8.7815  -18.2261 C   0  0  0  0  0  0  0  0  0  0  0  0
   -0.8103   -8.6458  -18.2396 N   0  0  0  0  0  0  0  0  0  0  0  0
   -0.2873   -8.1647  -17.0972 N   0  0  0  0  0  0  0  0  0  0  0  0
   -1.3513   -8.0003  -16.3113 C   0  0  0  0  0  0  0  0  0  0  0  0
    0.0581   -8.9389  -19.3677 C   0  0  0  0  0  0  0  0  0  0  0  0
   -0.2381   -7.9903  -20.5196 C   0  0  0  0  0  0  0  0  0  0  0  0
    0.4528   -8.3992  -21.8070 C   0  0  0  0  0  0  0  0  0  0  0  0
    0.1010   -9.8112  -22.0988 N   0  0  0  0  0  0  0  0  0  0  0  0
    0.6059  -10.7289  -21.0412 C   0  0  0  0  0  0  0  0  0  0  0  0
   -0.1336  -10.3920  -19.7632 C   0  0  0  0  0  0  0  0  0  0  0  0
    0.5131  -10.0774  -22.9931 H   0  0  0  0  0  0  0  0  0  0  0  0
   -7.7225   -2.9080  -11.3207 N   0  0  0  0  0  0  0  0  0  0  0  0
   -8.5502   -2.4759  -11.0085 H   0  0  0  0  0  0  0  0  0  0  0  0
   -6.2282   -2.2893  -10.7420 S   0  0  0  0  0  0  0  0  0  0  0  0
   -6.3997   -2.3686   -9.3035 O   0  0  0  0  0  0  0  0  0  0  0  0
   -5.0747   -2.9089  -11.3630 O   0  0  0  0  0  0  0  0  0  0  0  0
   -5.7383   -0.2724  -12.5061 C   0  0  0  0  0  0  0  0  0  0  0  0
   -6.2874   -0.6362  -11.1864 N   0  0  0  0  0  0  0  0  0  0  0  0
   -6.0107    0.3808  -10.1513 C   0  0  0  0  0  0  0  0  0  0  0  0
   -7.3396    0.8663   -9.6111 C   0  0  0  0  0  0  0  0  0  0  0  0
   -7.4546    2.3701   -9.7699 C   0  0  0  0  0  0  0  0  0  0  0  0
   -8.7234    2.7873   -9.2770 O   0  0  0  0  0  0  0  0  0  0  0  0
   -8.8067    2.4743   -7.8893 C   0  0  0  0  0  0  0  0  0  0  0  0
   -8.6793    0.9719   -7.7176 C   0  0  0  0  0  0  0  0  0  0  0  0
   -7.4173    0.5501   -8.2232 O   0  0  0  0  0  0  0  0  0  0  0  0
  1  4  2  0  0  0
  1  7  1  0  0  0
  1 17  1  0  0  0
  2  4  1  0  0  0
  2  5  2  0  0  0
  3 12  2  0  0  0
 31 35  1  0  0  0
 31 32  2  0  0  0
 31 33  2  0  0  0
 31 29  1  0  0  0
  5  6  1  0  0  0
  5  8  1  0  0  0
  6  7  2  0  0  0
  6 12  1  0  0  0
  8  9  2  0  0  0
  9 10  1  0  0  0
 10 11  2  0  0  0
 10 13  1  0  0  0
 11 12  1  0  0  0
 11 16  1  0  0  0
 13 14  2  0  0  0
 14 15  1  0  0  0
 15 16  2  0  0  0
 15 29  1  0  0  0
 17 18  2  0  0  0
 17 21  1  0  0  0
 34 35  1  0  0  0
 35 36  1  0  0  0
 36 37  1  0  0  0
 37 38  1  0  0  0
 37 42  1  0  0  0
 38 39  1  0  0  0
 39 40  1  0  0  0
 40 41  1  0  0  0
 41 42  1  0  0  0
 18 19  1  0  0  0
 19 20  1  0  0  0
 19 22  1  0  0  0
 20 21  2  0  0  0
 22 23  1  0  0  0
 22 27  1  0  0  0
 23 24  1  0  0  0
 24 25  1  0  0  0
 25 26  1  0  0  0
 26 27  1  0  0  0
 29 30  1  0  0  0
 25 28  1  0  0  0
M  END
> <minimizedAffinity>
-11.61922

$$$$
3R7O_M61_A_1


 42 47  0  0  0  0  0  0  0  0999 V2000
   -3.9762   -8.1884  -16.3601 C   0  0  0  0  0  0  0  0  0  0  0  0
   -6.2883   -8.7669  -16.6621 N   0  0  0  0  0  0  0  0  0  0  0  0
   -4.9411   -6.4549  -12.8903 O   0  0  0  0  0  0  0  0  0  0  0  0
   -4.9938   -8.8774  -16.9835 C   0  0  0  0  0  0  0  0  0  0  0  0
   -6.5995   -7.9271  -15.6647 C   0  0  0  0  0  0  0  0  0  0  0  0
   -5.6343   -7.2609  -14.9237 C   0  0  0  0  0  0  0  0  0  0  0  0
   -4.3051   -7.3986  -15.2769 C   0  0  0  0  0  0  0  0  0  0  0  0
   -8.0354   -7.8827  -15.4738 C   0  0  0  0  0  0  0  0  0  0  0  0
   -8.7673   -7.0657  -14.7144 C   0  0  0  0  0  0  0  0  0  0  0  0
   -8.3484   -5.9831  -13.8476 C   0  0  0  0  0  0  0  0  0  0  0  0
   -7.0687   -5.6927  -13.4017 C   0  0  0  0  0  0  0  0  0  0  0  0
   -5.8586   -6.4716  -13.7056 C   0  0  0  0  0  0  0  0  0  0  0  0
   -9.3832   -5.1519  -13.4766 C   0  0  0  0  0  0  0  0  0  0  0  0
   -9.1646   -4.0769  -12.6526 C   0  0  0  0  0  0  0  0  0  0  0  0
   -7.9015   -3.8254  -12.1674 C   0  0  0  0  0  0  0  0  0  0  0  0
   -6.8520   -4.6269  -12.5501 C   0  0  0  0  0  0  0  0  0  0  0  0
   -2.6099   -8.3039  -16.7990 C   0  0  0  0  0  0  0  0  0  0  0  0
   -1.9836   -9.4885  -17.1132 C   0  0  0  0  0  0  0  0  0  0  0  0
   -0.7399   -9.1215  -17.5425 N   0  0  0  0  0  0  0  0  0  0  0  0
   -0.5206   -7.7941  -17.5440 N   0  0  0  0  0  0  0  0  0  0  0  0
   -1.6635   -7.2880  -17.0811 C   0  0  0  0  0  0  0  0  0  0  0  0
    0.2958  -10.0281  -18.0094 C   0  0  0  0  0  0  0  0  0  0  0  0
    0.0355  -10.4237  -19.4552 C   0  0  0  0  0  0  0  0  0  0  0  0
    0.9313  -11.5556  -19.9225 C   0  0  0  0  0  0  0  0  0  0  0  0
    0.7965  -12.6838  -18.9678 N   0  0  0  0  0  0  0  0  0  0  0  0
    1.2704  -12.3072  -17.6079 C   0  0  0  0  0  0  0  0  0  0  0  0
    0.3369  -11.2339  -17.0878 C   0  0  0  0  0  0  0  0  0  0  0  0
    1.3498  -13.4715  -19.3052 H   0  0  0  0  0  0  0  0  0  0  0  0
   -7.7747   -2.7136  -11.2711 N   0  0  0  0  0  0  0  0  0  0  0  0
   -8.5613   -2.1359  -11.1419 H   0  0  0  0  0  0  0  0  0  0  0  0
   -6.3423   -2.3219  -10.4076 S   0  0  0  0  0  0  0  0  0  0  0  0
   -6.8083   -2.3013   -9.0337 O   0  0  0  0  0  0  0  0  0  0  0  0
   -5.2117   -3.1527  -10.7702 O   0  0  0  0  0  0  0  0  0  0  0  0
   -6.6763    0.3636  -10.0962 C   0  0  0  0  0  0  0  0  0  0  0  0
   -6.0278   -0.7054  -10.8785 N   0  0  0  0  0  0  0  0  0  0  0  0
   -5.9541   -0.3947  -12.3210 C   0  0  0  0  0  0  0  0  0  0  0  0
   -4.4938   -0.4008  -12.7227 C   0  0  0  0  0  0  0  0  0  0  0  0
   -4.0400    1.0019  -13.0781 C   0  0  0  0  0  0  0  0  0  0  0  0
   -2.6596    0.9628  -13.4247 O   0  0  0  0  0  0  0  0  0  0  0  0
   -2.4933    0.1328  -14.5709 C   0  0  0  0  0  0  0  0  0  0  0  0
   -2.9574   -1.2713  -14.2302 C   0  0  0  0  0  0  0  0  0  0  0  0
   -4.3337   -1.2329  -13.8691 O   0  0  0  0  0  0  0  0  0  0  0  0
  1  4  2  0  0  0
  1  7  1  0  0  0
  1 17  1  0  0  0
  2  4  1  0  0  0
  2  5  2  0  0  0
  3 12  2  0  0  0
 31 35  1  0  0  0
 31 32  2  0  0  0
 31 33  2  0  0  0
 31 29  1  0  0  0
  5  6  1  0  0  0
  5  8  1  0  0  0
  6  7  2  0  0  0
  6 12  1  0  0  0
  8  9  2  0  0  0
  9 10  1  0  0  0
 10 11  2  0  0  0
 10 13  1  0  0  0
 11 12  1  0  0  0
 11 16  1  0  0  0
 13 14  2  0  0  0
 14 15  1  0  0  0
 15 16  2  0  0  0
 15 29  1  0  0  0
 17 18  2  0  0  0
 17 21  1  0  0  0
 34 35  1  0  0  0
 35 36  1  0  0  0
 36 37  1  0  0  0
 37 38  1  0  0  0
 37 42  1  0  0  0
 38 39  1  0  0  0
 39 40  1  0  0  0
 40 41  1  0  0  0
 41 42  1  0  0  0
 18 19  1  0  0  0
 19 20  1  0  0  0
 19 22  1  0  0  0
 20 21  2  0  0  0
 22 23  1  0  0  0
 22 27  1  0  0  0
 23 24  1  0  0  0
 24 25  1  0  0  0
 25 26  1  0  0  0
 26 27  1  0  0  0
 29 30  1  0  0  0
 25 28  1  0  0  0
M  END
> <minimizedAffinity>
-11.60847

$$$$
3R7O_M61_A_1


 42 47  0  0  0  0  0  0  0  0999 V2000
   -4.3529   -7.6883  -16.0315 C   0  0  0  0  0  0  0  0  0  0  0  0
   -2.9087   -9.2385  -17.1642 N   0  0  0  0  0  0  0  0  0  0  0  0
   -1.9417   -4.7162  -17.1838 O   0  0  0  0  0  0  0  0  0  0  0  0
   -4.0596   -8.9287  -16.5553 C   0  0  0  0  0  0  0  0  0  0  0  0
   -1.9909   -8.2668  -17.2642 C   0  0  0  0  0  0  0  0  0  0  0  0
   -2.2340   -6.9667  -16.8454 C   0  0  0  0  0  0  0  0  0  0  0  0
   -3.4341   -6.6764  -16.2240 C   0  0  0  0  0  0  0  0  0  0  0  0
   -0.7901   -8.7721  -17.8992 C   0  0  0  0  0  0  0  0  0  0  0  0
    0.4045   -8.1952  -18.0398 C   0  0  0  0  0  0  0  0  0  0  0  0
    0.8594   -6.8893  -17.6077 C   0  0  0  0  0  0  0  0  0  0  0  0
    0.0944   -5.8222  -17.1643 C   0  0  0  0  0  0  0  0  0  0  0  0
   -1.3736   -5.7991  -17.0764 C   0  0  0  0  0  0  0  0  0  0  0  0
    2.2311   -6.7567  -17.6294 C   0  0  0  0  0  0  0  0  0  0  0  0
    2.8327   -5.5817  -17.2554 C   0  0  0  0  0  0  0  0  0  0  0  0
    2.0655   -4.5064  -16.8690 C   0  0  0  0  0  0  0  0  0  0  0  0
    0.6973   -4.6299  -16.8136 C   0  0  0  0  0  0  0  0  0  0  0  0
   -5.5854   -7.4399  -15.3300 C   0  0  0  0  0  0  0  0  0  0  0  0
   -5.7329   -6.5455  -14.2944 C   0  0  0  0  0  0  0  0  0  0  0  0
   -7.0632   -6.5849  -13.9873 N   0  0  0  0  0  0  0  0  0  0  0  0
   -7.7869   -7.4221  -14.7525 N   0  0  0  0  0  0  0  0  0  0  0  0
   -6.8825   -7.9553  -15.5738 C   0  0  0  0  0  0  0  0  0  0  0  0
   -7.7188   -5.7907  -12.9616 C   0  0  0  0  0  0  0  0  0  0  0  0
   -9.1268   -5.4205  -13.4031 C   0  0  0  0  0  0  0  0  0  0  0  0
   -9.7724   -4.3895  -12.4963 C   0  0  0  0  0  0  0  0  0  0  0  0
   -8.8607   -3.2233  -12.3900 N   0  0  0  0  0  0  0  0  0  0  0  0
   -7.5699   -3.5966  -11.7495 C   0  0  0  0  0  0  0  0  0  0  0  0
   -6.8693   -4.5642  -12.6805 C   0  0  0  0  0  0  0  0  0  0  0  0
   -9.3116   -2.4999  -11.8299 H   0  0  0  0  0  0  0  0  0  0  0  0
    2.7746   -3.3029  -16.5462 N   0  0  0  0  0  0  0  0  0  0  0  0
    3.0163   -2.6999  -17.2860 H   0  0  0  0  0  0  0  0  0  0  0  0
    3.2309   -2.8425  -14.9554 S   0  0  0  0  0  0  0  0  0  0  0  0
    2.7535   -3.9606  -14.1636 O   0  0  0  0  0  0  0  0  0  0  0  0
    4.6169   -2.4313  -14.8553 O   0  0  0  0  0  0  0  0  0  0  0  0
    2.8456   -0.1639  -14.6444 C   0  0  0  0  0  0  0  0  0  0  0  0
    2.2197   -1.4992  -14.6286 N   0  0  0  0  0  0  0  0  0  0  0  0
    1.1869   -1.6347  -13.5809 C   0  0  0  0  0  0  0  0  0  0  0  0
   -0.1471   -1.8387  -14.2683 C   0  0  0  0  0  0  0  0  0  0  0  0
   -0.9670   -0.5640  -14.2150 C   0  0  0  0  0  0  0  0  0  0  0  0
   -2.2002   -0.7837  -14.8916 O   0  0  0  0  0  0  0  0  0  0  0  0
   -2.9218   -1.8107  -14.2170 C   0  0  0  0  0  0  0  0  0  0  0  0
   -2.1039   -3.0884  -14.2526 C   0  0  0  0  0  0  0  0  0  0  0  0
   -0.8640   -2.8671  -13.5895 O   0  0  0  0  0  0  0  0  0  0  0  0
  1  4  2  0  0  0
  1  7  1  0  0  0
  1 17  1  0  0  0
  2  4  1  0  0  0
  2  5  2  0  0  0
  3 12  2  0  0  0
 31 35  1  0  0  0
 31 32  2  0  0  0
 31 33  2  0  0  0
 31 29  1  0  0  0
  5  6  1  0  0  0
  5  8  1  0  0  0
  6  7  2  0  0  0
  6 12  1  0  0  0
  8  9  2  0  0  0
  9 10  1  0  0  0
 10 11  2  0  0  0
 10 13  1  0  0  0
 11 12  1  0  0  0
 11 16  1  0  0  0
 13 14  2  0  0  0
 14 15  1  0  0  0
 15 16  2  0  0  0
 15 29  1  0  0  0
 17 18  2  0  0  0
 17 21  1  0  0  0
 34 35  1  0  0  0
 35 36  1  0  0  0
 36 37  1  0  0  0
 37 38  1  0  0  0
 37 42  1  0  0  0
 38 39  1  0  0  0
 39 40  1  0  0  0
 40 41  1  0  0  0
 41 42  1  0  0  0
 18 19  1  0  0  0
 19 20  1  0  0  0
 19 22  1  0  0  0
 20 21  2  0  0  0
 22 23  1  0  0  0
 22 27  1  0  0  0
 23 24  1  0  0  0
 24 25  1  0  0  0
 25 26  1  0  0  0
 26 27  1  0  0  0
 29 30  1  0  0  0
 25 28  1  0  0  0
M  END
> <minimizedAffinity>
-9.83620

$$$$
3R7O_M61_A_1


 42 47  0  0  0  0  0  0  0  0999 V2000
   -4.2930   -7.9514  -16.4733 C   0  0  0  0  0  0  0  0  0  0  0  0
   -2.3880   -9.0176  -17.4765 N   0  0  0  0  0  0  0  0  0  0  0  0
   -2.3330   -4.4716  -16.6294 O   0  0  0  0  0  0  0  0  0  0  0  0
   -3.6708   -9.0124  -17.0947 C   0  0  0  0  0  0  0  0  0  0  0  0
   -1.6746   -7.9094  -17.2322 C   0  0  0  0  0  0  0  0  0  0  0  0
   -2.2404   -6.7633  -16.6926 C   0  0  0  0  0  0  0  0  0  0  0  0
   -3.5690   -6.7873  -16.3123 C   0  0  0  0  0  0  0  0  0  0  0  0
   -0.3010   -8.0915  -17.6567 C   0  0  0  0  0  0  0  0  0  0  0  0
    0.7634   -7.3145  -17.4486 C   0  0  0  0  0  0  0  0  0  0  0  0
    0.8661   -6.0532  -16.7432 C   0  0  0  0  0  0  0  0  0  0  0  0
   -0.1614   -5.2214  -16.3272 C   0  0  0  0  0  0  0  0  0  0  0  0
   -1.5957   -5.4505  -16.5589 C   0  0  0  0  0  0  0  0  0  0  0  0
    2.1648   -5.7005  -16.4461 C   0  0  0  0  0  0  0  0  0  0  0  0
    2.4452   -4.5322  -15.7837 C   0  0  0  0  0  0  0  0  0  0  0  0
    1.4247   -3.6824  -15.4221 C   0  0  0  0  0  0  0  0  0  0  0  0
    0.1211   -4.0317  -15.6846 C   0  0  0  0  0  0  0  0  0  0  0  0
   -5.6597   -8.0357  -16.0288 C   0  0  0  0  0  0  0  0  0  0  0  0
   -6.2255   -7.2248  -15.0714 C   0  0  0  0  0  0  0  0  0  0  0  0
   -7.5362   -7.6061  -15.0227 N   0  0  0  0  0  0  0  0  0  0  0  0
   -7.8630   -8.5875  -15.8830 N   0  0  0  0  0  0  0  0  0  0  0  0
   -6.7123   -8.8600  -16.4979 C   0  0  0  0  0  0  0  0  0  0  0  0
   -8.5564   -7.0211  -14.1685 C   0  0  0  0  0  0  0  0  0  0  0  0
   -9.1679   -5.8007  -14.8402 C   0  0  0  0  0  0  0  0  0  0  0  0
  -10.0554   -5.0010  -13.9047 C   0  0  0  0  0  0  0  0  0  0  0  0
   -9.2759   -4.6755  -12.6845 N   0  0  0  0  0  0  0  0  0  0  0  0
   -8.8844   -5.9054  -11.9430 C   0  0  0  0  0  0  0  0  0  0  0  0
   -7.9301   -6.6795  -12.8285 C   0  0  0  0  0  0  0  0  0  0  0  0
   -9.8446   -4.0879  -12.0748 H   0  0  0  0  0  0  0  0  0  0  0  0
    1.8126   -2.4597  -14.7816 N   0  0  0  0  0  0  0  0  0  0  0  0
    2.7749   -2.2648  -14.7087 H   0  0  0  0  0  0  0  0  0  0  0  0
    0.7112   -1.3122  -14.1330 S   0  0  0  0  0  0  0  0  0  0  0  0
    1.6013   -0.3513  -13.5090 O   0  0  0  0  0  0  0  0  0  0  0  0
   -0.2741   -0.8596  -15.0945 O   0  0  0  0  0  0  0  0  0  0  0  0
   -1.5514   -2.2024  -12.9050 C   0  0  0  0  0  0  0  0  0  0  0  0
   -0.0768   -2.1831  -12.8863 N   0  0  0  0  0  0  0  0  0  0  0  0
    0.4773   -2.1102  -11.5188 C   0  0  0  0  0  0  0  0  0  0  0  0
    1.1956   -3.4139  -11.2392 C   0  0  0  0  0  0  0  0  0  0  0  0
    2.6971   -3.2017  -11.2561 C   0  0  0  0  0  0  0  0  0  0  0  0
    3.3381   -4.4390  -10.9644 O   0  0  0  0  0  0  0  0  0  0  0  0
    3.0062   -5.3828  -11.9792 C   0  0  0  0  0  0  0  0  0  0  0  0
    1.5033   -5.5928  -11.9801 C   0  0  0  0  0  0  0  0  0  0  0  0
    0.8595   -4.3538  -12.2569 O   0  0  0  0  0  0  0  0  0  0  0  0
  1  4  2  0  0  0
  1  7  1  0  0  0
  1 17  1  0  0  0
  2  4  1  0  0  0
  2  5  2  0  0  0
  3 12  2  0  0  0
 31 35  1  0  0  0
 31 32  2  0  0  0
 31 33  2  0  0  0
 31 29  1  0  0  0
  5  6  1  0  0  0
  5  8  1  0  0  0
  6  7  2  0  0  0
  6 12  1  0  0  0
  8  9  2  0  0  0
  9 10  1  0  0  0
 10 11  2  0  0  0
 10 13  1  0  0  0
 11 12  1  0  0  0
 11 16  1  0  0  0
 13 14  2  0  0  0
 14 15  1  0  0  0
 15 16  2  0  0  0
 15 29  1  0  0  0
 17 18  2  0  0  0
 17 21  1  0  0  0
 34 35  1  0  0  0
 35 36  1  0  0  0
 36 37  1  0  0  0
 37 38  1  0  0  0
 37 42  1  0  0  0
 38 39  1  0  0  0
 39 40  1  0  0  0
 40 41  1  0  0  0
 41 42  1  0  0  0
 18 19  1  0  0  0
 19 20  1  0  0  0
 19 22  1  0  0  0
 20 21  2  0  0  0
 22 23  1  0  0  0
 22 27  1  0  0  0
 23 24  1  0  0  0
 24 25  1  0  0  0
 25 26  1  0  0  0
 26 27  1  0  0  0
 29 30  1  0  0  0
 25 28  1  0  0  0
M  END
> <minimizedAffinity>
-9.54150

$$$$
3R7O_M61_A_1


 42 47  0  0  0  0  0  0  0  0999 V2000
   -6.0437   -6.5540  -14.2751 C   0  0  0  0  0  0  0  0  0  0  0  0
   -5.8179   -8.6081  -15.5005 N   0  0  0  0  0  0  0  0  0  0  0  0
   -3.0893   -5.0040  -16.4762 O   0  0  0  0  0  0  0  0  0  0  0  0
   -6.4796   -7.8031  -14.6606 C   0  0  0  0  0  0  0  0  0  0  0  0
   -4.6562   -8.1545  -15.9918 C   0  0  0  0  0  0  0  0  0  0  0  0
   -4.1847   -6.8765  -15.7288 C   0  0  0  0  0  0  0  0  0  0  0  0
   -4.8927   -6.0667  -14.8608 C   0  0  0  0  0  0  0  0  0  0  0  0
   -4.0427   -9.1570  -16.8397 C   0  0  0  0  0  0  0  0  0  0  0  0
   -2.8244   -9.1811  -17.3829 C   0  0  0  0  0  0  0  0  0  0  0  0
   -1.7516   -8.2114  -17.2955 C   0  0  0  0  0  0  0  0  0  0  0  0
   -1.8156   -6.9065  -16.8332 C   0  0  0  0  0  0  0  0  0  0  0  0
   -3.0296   -6.2245  -16.3595 C   0  0  0  0  0  0  0  0  0  0  0  0
   -0.5335   -8.7098  -17.7046 C   0  0  0  0  0  0  0  0  0  0  0  0
    0.5912   -7.9240  -17.6915 C   0  0  0  0  0  0  0  0  0  0  0  0
    0.5110   -6.6119  -17.2842 C   0  0  0  0  0  0  0  0  0  0  0  0
   -0.6898   -6.1062  -16.8454 C   0  0  0  0  0  0  0  0  0  0  0  0
   -6.7722   -5.7655  -13.3159 C   0  0  0  0  0  0  0  0  0  0  0  0
   -6.3961   -4.5157  -12.8792 C   0  0  0  0  0  0  0  0  0  0  0  0
   -7.4022   -4.1216  -12.0436 N   0  0  0  0  0  0  0  0  0  0  0  0
   -8.4035   -5.0115  -11.9192 N   0  0  0  0  0  0  0  0  0  0  0  0
   -8.0177   -6.0262  -12.6928 C   0  0  0  0  0  0  0  0  0  0  0  0
   -7.4724   -2.8488  -11.3452 C   0  0  0  0  0  0  0  0  0  0  0  0
   -6.7899   -1.7623  -12.1625 C   0  0  0  0  0  0  0  0  0  0  0  0
   -6.6076   -0.4723  -11.3847 C   0  0  0  0  0  0  0  0  0  0  0  0
   -5.9052   -0.7863  -10.1156 N   0  0  0  0  0  0  0  0  0  0  0  0
   -6.7165   -1.6868   -9.2515 C   0  0  0  0  0  0  0  0  0  0  0  0
   -6.8405   -3.0119   -9.9744 C   0  0  0  0  0  0  0  0  0  0  0  0
   -5.7256    0.0826   -9.6124 H   0  0  0  0  0  0  0  0  0  0  0  0
    1.7235   -5.8498  -17.3531 N   0  0  0  0  0  0  0  0  0  0  0  0
    2.5664   -6.3067  -17.1293 H   0  0  0  0  0  0  0  0  0  0  0  0
    1.8043   -4.1931  -17.7999 S   0  0  0  0  0  0  0  0  0  0  0  0
    2.9971   -4.1557  -18.6251 O   0  0  0  0  0  0  0  0  0  0  0  0
    0.5533   -3.6809  -18.3221 O   0  0  0  0  0  0  0  0  0  0  0  0
    3.4765   -2.7397  -16.2151 C   0  0  0  0  0  0  0  0  0  0  0  0
    2.1639   -3.4036  -16.3231 N   0  0  0  0  0  0  0  0  0  0  0  0
    1.7419   -4.0458  -15.0613 C   0  0  0  0  0  0  0  0  0  0  0  0
    0.9380   -3.0336  -14.2720 C   0  0  0  0  0  0  0  0  0  0  0  0
    0.2388   -3.7091  -13.1080 C   0  0  0  0  0  0  0  0  0  0  0  0
   -0.4843   -2.7260  -12.3748 O   0  0  0  0  0  0  0  0  0  0  0  0
   -1.4754   -2.1521  -13.2227 C   0  0  0  0  0  0  0  0  0  0  0  0
   -0.7869   -1.4845  -14.3987 C   0  0  0  0  0  0  0  0  0  0  0  0
   -0.0511   -2.4628  -15.1252 O   0  0  0  0  0  0  0  0  0  0  0  0
  1  4  2  0  0  0
  1  7  1  0  0  0
  1 17  1  0  0  0
  2  4  1  0  0  0
  2  5  2  0  0  0
  3 12  2  0  0  0
 31 35  1  0  0  0
 31 32  2  0  0  0
 31 33  2  0  0  0
 31 29  1  0  0  0
  5  6  1  0  0  0
  5  8  1  0  0  0
  6  7  2  0  0  0
  6 12  1  0  0  0
  8  9  2  0  0  0
  9 10  1  0  0  0
 10 11  2  0  0  0
 10 13  1  0  0  0
 11 12  1  0  0  0
 11 16  1  0  0  0
 13 14  2  0  0  0
 14 15  1  0  0  0
 15 16  2  0  0  0
 15 29  1  0  0  0
 17 18  2  0  0  0
 17 21  1  0  0  0
 34 35  1  0  0  0
 35 36  1  0  0  0
 36 37  1  0  0  0
 37 38  1  0  0  0
 37 42  1  0  0  0
 38 39  1  0  0  0
 39 40  1  0  0  0
 40 41  1  0  0  0
 41 42  1  0  0  0
 18 19  1  0  0  0
 19 20  1  0  0  0
 19 22  1  0  0  0
 20 21  2  0  0  0
 22 23  1  0  0  0
 22 27  1  0  0  0
 23 24  1  0  0  0
 24 25  1  0  0  0
 25 26  1  0  0  0
 26 27  1  0  0  0
 29 30  1  0  0  0
 25 28  1  0  0  0
M  END
> <minimizedAffinity>
-9.48773

$$$$
3R7O_M61_A_1


 42 47  0  0  0  0  0  0  0  0999 V2000
   -5.8960   -6.5820  -14.3884 C   0  0  0  0  0  0  0  0  0  0  0  0
   -5.6150   -8.6328  -15.6079 N   0  0  0  0  0  0  0  0  0  0  0  0
   -2.9247   -4.9870  -16.5339 O   0  0  0  0  0  0  0  0  0  0  0  0
   -6.3050   -7.8379  -14.7812 C   0  0  0  0  0  0  0  0  0  0  0  0
   -4.4513   -8.1613  -16.0773 C   0  0  0  0  0  0  0  0  0  0  0  0
   -4.0049   -6.8760  -15.8062 C   0  0  0  0  0  0  0  0  0  0  0  0
   -4.7418   -6.0770  -14.9524 C   0  0  0  0  0  0  0  0  0  0  0  0
   -3.8063   -9.1544  -16.9127 C   0  0  0  0  0  0  0  0  0  0  0  0
   -2.5777   -9.1598  -17.4327 C   0  0  0  0  0  0  0  0  0  0  0  0
   -1.5219   -8.1735  -17.3255 C   0  0  0  0  0  0  0  0  0  0  0  0
   -1.6150   -6.8695  -16.8654 C   0  0  0  0  0  0  0  0  0  0  0  0
   -2.8483   -6.2064  -16.4152 C   0  0  0  0  0  0  0  0  0  0  0  0
   -0.2886   -8.6530  -17.7110 C   0  0  0  0  0  0  0  0  0  0  0  0
    0.8232   -7.8498  -17.6770 C   0  0  0  0  0  0  0  0  0  0  0  0
    0.7149   -6.5389  -17.2722 C   0  0  0  0  0  0  0  0  0  0  0  0
   -0.5018   -6.0518  -16.8567 C   0  0  0  0  0  0  0  0  0  0  0  0
   -6.6548   -5.8046  -13.4436 C   0  0  0  0  0  0  0  0  0  0  0  0
   -6.3090   -4.5470  -13.0042 C   0  0  0  0  0  0  0  0  0  0  0  0
   -7.3360   -4.1693  -12.1867 N   0  0  0  0  0  0  0  0  0  0  0  0
   -8.3228   -5.0772  -12.0766 N   0  0  0  0  0  0  0  0  0  0  0  0
   -7.9056   -6.0865  -12.8408 C   0  0  0  0  0  0  0  0  0  0  0  0
   -7.4412   -2.8963  -11.4931 C   0  0  0  0  0  0  0  0  0  0  0  0
   -6.8312   -1.7864  -12.3360 C   0  0  0  0  0  0  0  0  0  0  0  0
   -6.6826   -0.4847  -11.5707 C   0  0  0  0  0  0  0  0  0  0  0  0
   -5.9301   -0.7596  -10.3214 N   0  0  0  0  0  0  0  0  0  0  0  0
   -6.6755   -1.6889   -9.4289 C   0  0  0  0  0  0  0  0  0  0  0  0
   -6.7626   -3.0228  -10.1410 C   0  0  0  0  0  0  0  0  0  0  0  0
   -5.7740    0.1196   -9.8283 H   0  0  0  0  0  0  0  0  0  0  0  0
    1.9165   -5.7581  -17.3185 N   0  0  0  0  0  0  0  0  0  0  0  0
    2.7179   -6.1221  -16.8776 H   0  0  0  0  0  0  0  0  0  0  0  0
    2.0516   -4.2301  -18.0918 S   0  0  0  0  0  0  0  0  0  0  0  0
    0.7222   -3.6771  -17.9128 O   0  0  0  0  0  0  0  0  0  0  0  0
    3.2089   -3.4721  -17.6603 O   0  0  0  0  0  0  0  0  0  0  0  0
    3.2427   -3.8959  -20.5186 C   0  0  0  0  0  0  0  0  0  0  0  0
    2.2307   -4.6395  -19.7452 N   0  0  0  0  0  0  0  0  0  0  0  0
    1.0161   -4.9391  -20.5312 C   0  0  0  0  0  0  0  0  0  0  0  0
    1.1985   -6.3024  -21.1652 C   0  0  0  0  0  0  0  0  0  0  0  0
    1.3120   -6.1712  -22.6718 C   0  0  0  0  0  0  0  0  0  0  0  0
    1.5082   -7.4658  -23.2309 O   0  0  0  0  0  0  0  0  0  0  0  0
    0.3734   -8.2750  -22.9345 C   0  0  0  0  0  0  0  0  0  0  0  0
    0.2424   -8.4019  -21.4280 C   0  0  0  0  0  0  0  0  0  0  0  0
    0.0608   -7.1072  -20.8650 O   0  0  0  0  0  0  0  0  0  0  0  0
  1  4  2  0  0  0
  1  7  1  0  0  0
  1 17  1  0  0  0
  2  4  1  0  0  0
  2  5  2  0  0  0
  3 12  2  0  0  0
 31 35  1  0  0  0
 31 32  2  0  0  0
 31 33  2  0  0  0
 31 29  1  0  0  0
  5  6  1  0  0  0
  5  8  1  0  0  0
  6  7  2  0  0  0
  6 12  1  0  0  0
  8  9  2  0  0  0
  9 10  1  0  0  0
 10 11  2  0  0  0
 10 13  1  0  0  0
 11 12  1  0  0  0
 11 16  1  0  0  0
 13 14  2  0  0  0
 14 15  1  0  0  0
 15 16  2  0  0  0
 15 29  1  0  0  0
 17 18  2  0  0  0
 17 21  1  0  0  0
 34 35  1  0  0  0
 35 36  1  0  0  0
 36 37  1  0  0  0
 37 38  1  0  0  0
 37 42  1  0  0  0
 38 39  1  0  0  0
 39 40  1  0  0  0
 40 41  1  0  0  0
 41 42  1  0  0  0
 18 19  1  0  0  0
 19 20  1  0  0  0
 19 22  1  0  0  0
 20 21  2  0  0  0
 22 23  1  0  0  0
 22 27  1  0  0  0
 23 24  1  0  0  0
 24 25  1  0  0  0
 25 26  1  0  0  0
 26 27  1  0  0  0
 29 30  1  0  0  0
 25 28  1  0  0  0
M  END
> <minimizedAffinity>
-9.26328

$$$$
3R7O_M61_A_1


 42 47  0  0  0  0  0  0  0  0999 V2000
   -3.5471   -8.0477  -16.7885 C   0  0  0  0  0  0  0  0  0  0  0  0
   -1.6916   -9.0908  -17.9027 N   0  0  0  0  0  0  0  0  0  0  0  0
   -1.5918   -4.5656  -16.9544 O   0  0  0  0  0  0  0  0  0  0  0  0
   -2.9555   -9.0942  -17.4622 C   0  0  0  0  0  0  0  0  0  0  0  0
   -0.9663   -7.9887  -17.6660 C   0  0  0  0  0  0  0  0  0  0  0  0
   -1.5052   -6.8553  -17.0746 C   0  0  0  0  0  0  0  0  0  0  0  0
   -2.8149   -6.8878  -16.6342 C   0  0  0  0  0  0  0  0  0  0  0  0
    0.3861   -8.1613  -18.1572 C   0  0  0  0  0  0  0  0  0  0  0  0
    1.4600   -7.3896  -17.9804 C   0  0  0  0  0  0  0  0  0  0  0  0
    1.5966   -6.1450  -17.2516 C   0  0  0  0  0  0  0  0  0  0  0  0
    0.5904   -5.3227  -16.7698 C   0  0  0  0  0  0  0  0  0  0  0  0
   -0.8533   -5.5461  -16.9405 C   0  0  0  0  0  0  0  0  0  0  0  0
    2.9081   -5.7995  -17.0065 C   0  0  0  0  0  0  0  0  0  0  0  0
    3.2201   -4.6468  -16.3309 C   0  0  0  0  0  0  0  0  0  0  0  0
    2.2184   -3.8054  -15.9033 C   0  0  0  0  0  0  0  0  0  0  0  0
    0.9037   -4.1483  -16.1136 C   0  0  0  0  0  0  0  0  0  0  0  0
   -4.8920   -8.1419  -16.2837 C   0  0  0  0  0  0  0  0  0  0  0  0
   -5.4198   -7.3366  -15.3003 C   0  0  0  0  0  0  0  0  0  0  0  0
   -6.7245   -7.7267  -15.1940 N   0  0  0  0  0  0  0  0  0  0  0  0
   -7.0830   -8.7086  -16.0410 N   0  0  0  0  0  0  0  0  0  0  0  0
   -5.9590   -8.9723  -16.7073 C   0  0  0  0  0  0  0  0  0  0  0  0
   -7.7094   -7.1501  -14.2939 C   0  0  0  0  0  0  0  0  0  0  0  0
   -8.8610   -6.5522  -15.0881 C   0  0  0  0  0  0  0  0  0  0  0  0
   -9.7938   -5.7188  -14.2292 C   0  0  0  0  0  0  0  0  0  0  0  0
   -8.9849   -4.7055  -13.5072 N   0  0  0  0  0  0  0  0  0  0  0  0
   -8.0149   -5.3443  -12.5762 C   0  0  0  0  0  0  0  0  0  0  0  0
   -7.0222   -6.1156  -13.4208 C   0  0  0  0  0  0  0  0  0  0  0  0
   -9.6098   -4.1024  -12.9723 H   0  0  0  0  0  0  0  0  0  0  0  0
    2.6369   -2.5979  -15.2534 N   0  0  0  0  0  0  0  0  0  0  0  0
    2.8932   -1.8357  -15.8214 H   0  0  0  0  0  0  0  0  0  0  0  0
    2.7212   -2.3918  -13.5501 S   0  0  0  0  0  0  0  0  0  0  0  0
    2.8315   -3.7602  -13.0805 O   0  0  0  0  0  0  0  0  0  0  0  0
    3.7064   -1.4107  -13.1416 O   0  0  0  0  0  0  0  0  0  0  0  0
    0.3132   -2.7037  -12.3155 C   0  0  0  0  0  0  0  0  0  0  0  0
    1.1575   -1.8229  -13.1440 N   0  0  0  0  0  0  0  0  0  0  0  0
    0.3868   -1.0912  -14.1702 C   0  0  0  0  0  0  0  0  0  0  0  0
    0.8128    0.3614  -14.1223 C   0  0  0  0  0  0  0  0  0  0  0  0
   -0.3854    1.2683  -14.3260 C   0  0  0  0  0  0  0  0  0  0  0  0
    0.0466    2.6227  -14.2490 O   0  0  0  0  0  0  0  0  0  0  0  0
    0.9812    2.8708  -15.2957 C   0  0  0  0  0  0  0  0  0  0  0  0
    2.1793    1.9583  -15.1090 C   0  0  0  0  0  0  0  0  0  0  0  0
    1.7476    0.6033  -15.1710 O   0  0  0  0  0  0  0  0  0  0  0  0
  1  4  2  0  0  0
  1  7  1  0  0  0
  1 17  1  0  0  0
  2  4  1  0  0  0
  2  5  2  0  0  0
  3 12  2  0  0  0
 31 35  1  0  0  0
 31 32  2  0  0  0
 31 33  2  0  0  0
 31 29  1  0  0  0
  5  6  1  0  0  0
  5  8  1  0  0  0
  6  7  2  0  0  0
  6 12  1  0  0  0
  8  9  2  0  0  0
  9 10  1  0  0  0
 10 11  2  0  0  0
 10 13  1  0  0  0
 11 12  1  0  0  0
 11 16  1  0  0  0
 13 14  2  0  0  0
 14 15  1  0  0  0
 15 16  2  0  0  0
 15 29  1  0  0  0
 17 18  2  0  0  0
 17 21  1  0  0  0
 34 35  1  0  0  0
 35 36  1  0  0  0
 36 37  1  0  0  0
 37 38  1  0  0  0
 37 42  1  0  0  0
 38 39  1  0  0  0
 39 40  1  0  0  0
 40 41  1  0  0  0
 41 42  1  0  0  0
 18 19  1  0  0  0
 19 20  1  0  0  0
 19 22  1  0  0  0
 20 21  2  0  0  0
 22 23  1  0  0  0
 22 27  1  0  0  0
 23 24  1  0  0  0
 24 25  1  0  0  0
 25 26  1  0  0  0
 26 27  1  0  0  0
 29 30  1  0  0  0
 25 28  1  0  0  0
M  END
> <minimizedAffinity>
-9.03231

$$$$
