2X0Y_X0T_A_1625


 20 21  0  0  0  0  0  0  0  0999 V2000
   35.0043   47.2725   21.9691 C   0  0  0  0  0  0  0  0  0  0  0  0
   34.8574   45.7829   22.0699 N   0  0  0  0  0  0  0  0  0  0  0  0
   35.9785   44.9598   22.1236 C   0  0  0  0  0  0  0  0  0  0  0  0
   37.0888   45.4966   22.0871 O   0  0  0  0  0  0  0  0  0  0  0  0
   35.8376   43.5437   22.2042 N   0  0  0  0  0  0  0  0  0  0  0  0
   37.0424   42.6807   22.2778 C   0  0  0  0  0  0  0  0  0  0  0  0
   34.5545   42.9695   22.2378 C   0  0  0  0  0  0  0  0  0  0  0  0
   34.4086   41.7394   22.3155 O   0  0  0  0  0  0  0  0  0  0  0  0
   33.4390   43.8186   22.1845 C   0  0  0  0  0  0  0  0  0  0  0  0
   33.5801   45.2024   22.1031 C   0  0  0  0  0  0  0  0  0  0  0  0
   32.3569   45.7464   22.0793 N   0  0  0  0  0  0  0  0  0  0  0  0
   31.4615   44.7524   22.1533 C   0  0  0  0  0  0  0  0  0  0  0  0
   32.1277   43.6010   22.2136 N   0  0  0  0  0  0  0  0  0  0  0  0
   31.5456   42.2539   22.2989 C   0  0  0  0  0  0  0  0  0  0  0  0
   30.0821   42.2221   22.6658 C   0  0  0  0  0  0  0  0  0  0  0  0
   29.9529   42.0531   24.0778 O   0  0  0  0  0  0  0  0  0  0  0  0
   30.3932   41.2318   24.3467 H   0  0  0  0  0  0  0  0  0  0  0  0
   29.4654   41.0251   21.9495 C   0  0  0  0  0  0  0  0  0  0  0  0
   28.1412   41.3719   21.6008 O   0  0  0  0  0  0  0  0  0  0  0  0
   27.6430   41.5933   22.4031 H   0  0  0  0  0  0  0  0  0  0  0  0
  1  2  1  0  0  0
  2  3  1  0  0  0
  2 10  1  0  0  0
  3  4  2  0  0  0
  3  5  1  0  0  0
  5  6  1  0  0  0
  5  7  1  0  0  0
  7  8  2  0  0  0
  7  9  1  0  0  0
  9 10  2  0  0  0
  9 13  1  0  0  0
 10 11  1  0  0  0
 11 12  2  0  0  0
 12 13  1  0  0  0
 13 14  1  0  0  0
 14 15  1  0  0  0
 15 16  1  0  0  0
 15 18  1  0  0  0
 18 19  1  0  0  0
 16 17  1  0  0  0
 19 20  1  0  0  0
M  END
> <minimizedAffinity>
-8.18915

$$$$
2X0Y_X0T_A_1625


 20 21  0  0  0  0  0  0  0  0999 V2000
   37.2135   43.0563   22.0810 C   0  0  0  0  0  0  0  0  0  0  0  0
   36.0186   43.9627   22.0474 N   0  0  0  0  0  0  0  0  0  0  0  0
   36.1711   45.3438   22.1293 C   0  0  0  0  0  0  0  0  0  0  0  0
   37.3166   45.7914   22.2284 O   0  0  0  0  0  0  0  0  0  0  0  0
   35.0341   46.2031   22.1124 N   0  0  0  0  0  0  0  0  0  0  0  0
   35.2141   47.6743   22.1835 C   0  0  0  0  0  0  0  0  0  0  0  0
   33.7442   45.6539   22.0041 C   0  0  0  0  0  0  0  0  0  0  0  0
   32.7407   46.3839   21.9798 O   0  0  0  0  0  0  0  0  0  0  0  0
   33.6146   44.2595   21.9207 C   0  0  0  0  0  0  0  0  0  0  0  0
   34.7280   43.4220   21.9402 C   0  0  0  0  0  0  0  0  0  0  0  0
   34.3013   42.1572   21.8348 N   0  0  0  0  0  0  0  0  0  0  0  0
   32.9649   42.1789   21.7403 C   0  0  0  0  0  0  0  0  0  0  0  0
   32.5682   43.4488   21.7958 N   0  0  0  0  0  0  0  0  0  0  0  0
   31.1838   43.9391   21.7343 C   0  0  0  0  0  0  0  0  0  0  0  0
   30.1307   42.8833   21.9668 C   0  0  0  0  0  0  0  0  0  0  0  0
   28.8811   43.3409   21.4490 O   0  0  0  0  0  0  0  0  0  0  0  0
   28.6363   44.1729   21.8834 H   0  0  0  0  0  0  0  0  0  0  0  0
   30.0174   42.6864   23.4750 C   0  0  0  0  0  0  0  0  0  0  0  0
   30.0150   43.9659   24.0736 O   0  0  0  0  0  0  0  0  0  0  0  0
   30.8336   44.4323   23.8430 H   0  0  0  0  0  0  0  0  0  0  0  0
  1  2  1  0  0  0
  2  3  1  0  0  0
  2 10  1  0  0  0
  3  4  2  0  0  0
  3  5  1  0  0  0
  5  6  1  0  0  0
  5  7  1  0  0  0
  7  8  2  0  0  0
  7  9  1  0  0  0
  9 10  2  0  0  0
  9 13  1  0  0  0
 10 11  1  0  0  0
 11 12  2  0  0  0
 12 13  1  0  0  0
 13 14  1  0  0  0
 14 15  1  0  0  0
 15 16  1  0  0  0
 15 18  1  0  0  0
 18 19  1  0  0  0
 16 17  1  0  0  0
 19 20  1  0  0  0
M  END
> <minimizedAffinity>
-7.74559

$$$$
2X0Y_X0T_A_1625


 20 21  0  0  0  0  0  0  0  0999 V2000
   36.7601   42.4810   22.1854 C   0  0  0  0  0  0  0  0  0  0  0  0
   35.6559   43.4960   22.1520 N   0  0  0  0  0  0  0  0  0  0  0  0
   34.3245   43.0964   22.0810 C   0  0  0  0  0  0  0  0  0  0  0  0
   34.0879   41.8859   22.0483 O   0  0  0  0  0  0  0  0  0  0  0  0
   33.2771   44.0619   22.0342 N   0  0  0  0  0  0  0  0  0  0  0  0
   31.8618   43.6199   21.9757 C   0  0  0  0  0  0  0  0  0  0  0  0
   33.5880   45.4329   22.0677 C   0  0  0  0  0  0  0  0  0  0  0  0
   32.6914   46.2906   22.0357 O   0  0  0  0  0  0  0  0  0  0  0  0
   34.9366   45.8124   22.1414 C   0  0  0  0  0  0  0  0  0  0  0  0
   35.9583   44.8660   22.1843 C   0  0  0  0  0  0  0  0  0  0  0  0
   37.1264   45.5157   22.2632 N   0  0  0  0  0  0  0  0  0  0  0  0
   36.8673   46.8302   22.2812 C   0  0  0  0  0  0  0  0  0  0  0  0
   35.5477   46.9915   22.2050 N   0  0  0  0  0  0  0  0  0  0  0  0
   34.8193   48.2681   22.1880 C   0  0  0  0  0  0  0  0  0  0  0  0
   35.4417   49.3369   21.3233 C   0  0  0  0  0  0  0  0  0  0  0  0
   35.6123   50.5272   22.0935 O   0  0  0  0  0  0  0  0  0  0  0  0
   34.7519   50.8178   22.4345 H   0  0  0  0  0  0  0  0  0  0  0  0
   34.4742   49.6057   20.1753 C   0  0  0  0  0  0  0  0  0  0  0  0
   33.5900   48.5070   20.0960 O   0  0  0  0  0  0  0  0  0  0  0  0
   34.0969   47.6944   19.9422 H   0  0  0  0  0  0  0  0  0  0  0  0
  1  2  1  0  0  0
  2  3  1  0  0  0
  2 10  1  0  0  0
  3  4  2  0  0  0
  3  5  1  0  0  0
  5  6  1  0  0  0
  5  7  1  0  0  0
  7  8  2  0  0  0
  7  9  1  0  0  0
  9 10  2  0  0  0
  9 13  1  0  0  0
 10 11  1  0  0  0
 11 12  2  0  0  0
 12 13  1  0  0  0
 13 14  1  0  0  0
 14 15  1  0  0  0
 15 16  1  0  0  0
 15 18  1  0  0  0
 18 19  1  0  0  0
 16 17  1  0  0  0
 19 20  1  0  0  0
M  END
> <minimizedAffinity>
-7.30306

$$$$
2X0Y_X0T_A_1625


 20 21  0  0  0  0  0  0  0  0999 V2000
   30.0302   41.8192   18.6791 C   0  0  0  0  0  0  0  0  0  0  0  0
   30.5467   42.2278   20.0270 N   0  0  0  0  0  0  0  0  0  0  0  0
   29.8789   41.8509   21.1886 C   0  0  0  0  0  0  0  0  0  0  0  0
   28.8553   41.1725   21.0696 O   0  0  0  0  0  0  0  0  0  0  0  0
   30.3624   42.2524   22.4680 N   0  0  0  0  0  0  0  0  0  0  0  0
   29.6488   41.8284   23.6979 C   0  0  0  0  0  0  0  0  0  0  0  0
   31.5298   43.0306   22.5615 C   0  0  0  0  0  0  0  0  0  0  0  0
   31.9727   43.3848   23.6656 O   0  0  0  0  0  0  0  0  0  0  0  0
   32.1874   43.3970   21.3777 C   0  0  0  0  0  0  0  0  0  0  0  0
   31.7107   43.0051   20.1285 C   0  0  0  0  0  0  0  0  0  0  0  0
   32.5406   43.4870   19.1947 N   0  0  0  0  0  0  0  0  0  0  0  0
   33.5206   44.1548   19.8184 C   0  0  0  0  0  0  0  0  0  0  0  0
   33.2925   44.0932   21.1288 N   0  0  0  0  0  0  0  0  0  0  0  0
   34.1120   44.6932   22.1914 C   0  0  0  0  0  0  0  0  0  0  0  0
   35.0567   45.7734   21.7242 C   0  0  0  0  0  0  0  0  0  0  0  0
   36.3979   45.3945   22.0350 O   0  0  0  0  0  0  0  0  0  0  0  0
   36.4809   45.2544   22.9912 H   0  0  0  0  0  0  0  0  0  0  0  0
   34.6959   47.0453   22.4847 C   0  0  0  0  0  0  0  0  0  0  0  0
   33.5158   46.7852   23.2161 O   0  0  0  0  0  0  0  0  0  0  0  0
   32.8064   46.5306   22.6055 H   0  0  0  0  0  0  0  0  0  0  0  0
  1  2  1  0  0  0
  2  3  1  0  0  0
  2 10  1  0  0  0
  3  4  2  0  0  0
  3  5  1  0  0  0
  5  6  1  0  0  0
  5  7  1  0  0  0
  7  8  2  0  0  0
  7  9  1  0  0  0
  9 10  2  0  0  0
  9 13  1  0  0  0
 10 11  1  0  0  0
 11 12  2  0  0  0
 12 13  1  0  0  0
 13 14  1  0  0  0
 14 15  1  0  0  0
 15 16  1  0  0  0
 15 18  1  0  0  0
 18 19  1  0  0  0
 16 17  1  0  0  0
 19 20  1  0  0  0
M  END
> <minimizedAffinity>
-7.15150

$$$$
2X0Y_X0T_A_1625


 20 21  0  0  0  0  0  0  0  0999 V2000
   29.4188   41.3316   23.6303 C   0  0  0  0  0  0  0  0  0  0  0  0
   30.0710   41.8943   22.4020 N   0  0  0  0  0  0  0  0  0  0  0  0
   29.6398   41.5195   21.1328 C   0  0  0  0  0  0  0  0  0  0  0  0
   28.7077   40.7148   21.0560 O   0  0  0  0  0  0  0  0  0  0  0  0
   30.2702   42.0432   19.9666 N   0  0  0  0  0  0  0  0  0  0  0  0
   29.7879   41.6470   18.6205 C   0  0  0  0  0  0  0  0  0  0  0  0
   31.3337   42.9540   20.0961 C   0  0  0  0  0  0  0  0  0  0  0  0
   31.8919   43.4284   19.0941 O   0  0  0  0  0  0  0  0  0  0  0  0
   31.7500   43.3191   21.3851 C   0  0  0  0  0  0  0  0  0  0  0  0
   31.1334   42.8032   22.5231 C   0  0  0  0  0  0  0  0  0  0  0  0
   31.7291   43.3344   23.5981 N   0  0  0  0  0  0  0  0  0  0  0  0
   32.6859   44.1690   23.1697 C   0  0  0  0  0  0  0  0  0  0  0  0
   32.6869   44.1465   21.8383 N   0  0  0  0  0  0  0  0  0  0  0  0
   33.5765   44.9064   20.9486 C   0  0  0  0  0  0  0  0  0  0  0  0
   33.3160   46.3926   20.9169 C   0  0  0  0  0  0  0  0  0  0  0  0
   33.2968   46.8397   19.5609 O   0  0  0  0  0  0  0  0  0  0  0  0
   34.1447   46.6296   19.1392 H   0  0  0  0  0  0  0  0  0  0  0  0
   34.4649   47.0659   21.6605 C   0  0  0  0  0  0  0  0  0  0  0  0
   34.5671   48.3901   21.1794 O   0  0  0  0  0  0  0  0  0  0  0  0
   34.7313   48.3750   20.2235 H   0  0  0  0  0  0  0  0  0  0  0  0
  1  2  1  0  0  0
  2  3  1  0  0  0
  2 10  1  0  0  0
  3  4  2  0  0  0
  3  5  1  0  0  0
  5  6  1  0  0  0
  5  7  1  0  0  0
  7  8  2  0  0  0
  7  9  1  0  0  0
  9 10  2  0  0  0
  9 13  1  0  0  0
 10 11  1  0  0  0
 11 12  2  0  0  0
 12 13  1  0  0  0
 13 14  1  0  0  0
 14 15  1  0  0  0
 15 16  1  0  0  0
 15 18  1  0  0  0
 18 19  1  0  0  0
 16 17  1  0  0  0
 19 20  1  0  0  0
M  END
> <minimizedAffinity>
-6.88371

$$$$
2X0Y_X0T_A_1625


 20 21  0  0  0  0  0  0  0  0999 V2000
   37.3069   42.9704   22.3032 C   0  0  0  0  0  0  0  0  0  0  0  0
   36.1151   43.8743   22.1876 N   0  0  0  0  0  0  0  0  0  0  0  0
   36.2705   45.2574   22.1723 C   0  0  0  0  0  0  0  0  0  0  0  0
   37.4157   45.7089   22.2551 O   0  0  0  0  0  0  0  0  0  0  0  0
   35.1362   46.1154   22.0775 N   0  0  0  0  0  0  0  0  0  0  0  0
   35.3195   47.5876   22.0453 C   0  0  0  0  0  0  0  0  0  0  0  0
   33.8464   45.5622   21.9907 C   0  0  0  0  0  0  0  0  0  0  0  0
   32.8455   46.2905   21.8998 O   0  0  0  0  0  0  0  0  0  0  0  0
   33.7140   44.1657   22.0059 C   0  0  0  0  0  0  0  0  0  0  0  0
   34.8246   43.3297   22.1013 C   0  0  0  0  0  0  0  0  0  0  0  0
   34.3958   42.0614   22.0811 N   0  0  0  0  0  0  0  0  0  0  0  0
   33.0610   42.0787   21.9663 C   0  0  0  0  0  0  0  0  0  0  0  0
   32.6671   43.3501   21.9248 N   0  0  0  0  0  0  0  0  0  0  0  0
   31.2851   43.8372   21.8086 C   0  0  0  0  0  0  0  0  0  0  0  0
   30.6680   43.6615   20.4426 C   0  0  0  0  0  0  0  0  0  0  0  0
   30.1625   42.3317   20.3205 O   0  0  0  0  0  0  0  0  0  0  0  0
   30.8840   41.6978   20.4565 H   0  0  0  0  0  0  0  0  0  0  0  0
   31.7755   43.8832   19.4176 C   0  0  0  0  0  0  0  0  0  0  0  0
   31.7741   45.2541   19.0772 O   0  0  0  0  0  0  0  0  0  0  0  0
   30.9081   45.4960   18.7133 H   0  0  0  0  0  0  0  0  0  0  0  0
  1  2  1  0  0  0
  2  3  1  0  0  0
  2 10  1  0  0  0
  3  4  2  0  0  0
  3  5  1  0  0  0
  5  6  1  0  0  0
  5  7  1  0  0  0
  7  8  2  0  0  0
  7  9  1  0  0  0
  9 10  2  0  0  0
  9 13  1  0  0  0
 10 11  1  0  0  0
 11 12  2  0  0  0
 12 13  1  0  0  0
 13 14  1  0  0  0
 14 15  1  0  0  0
 15 16  1  0  0  0
 15 18  1  0  0  0
 18 19  1  0  0  0
 16 17  1  0  0  0
 19 20  1  0  0  0
M  END
> <minimizedAffinity>
-6.87296

$$$$
2X0Y_X0T_A_1625


 20 21  0  0  0  0  0  0  0  0999 V2000
   29.3472   41.5411   23.4158 C   0  0  0  0  0  0  0  0  0  0  0  0
   30.1919   41.9670   22.2515 N   0  0  0  0  0  0  0  0  0  0  0  0
   29.8586   41.5873   20.9545 C   0  0  0  0  0  0  0  0  0  0  0  0
   28.8499   40.8940   20.7991 O   0  0  0  0  0  0  0  0  0  0  0  0
   30.6703   41.9801   19.8507 N   0  0  0  0  0  0  0  0  0  0  0  0
   30.2924   41.5814   18.4722 C   0  0  0  0  0  0  0  0  0  0  0  0
   31.8157   42.7658   20.0697 C   0  0  0  0  0  0  0  0  0  0  0  0
   32.5324   43.1255   19.1223 O   0  0  0  0  0  0  0  0  0  0  0  0
   32.1310   43.1385   21.3849 C   0  0  0  0  0  0  0  0  0  0  0  0
   31.3369   42.7506   22.4621 C   0  0  0  0  0  0  0  0  0  0  0  0
   31.8724   43.2575   23.5797 N   0  0  0  0  0  0  0  0  0  0  0  0
   32.9638   43.9544   23.2353 C   0  0  0  0  0  0  0  0  0  0  0  0
   33.1063   43.8710   21.9140 N   0  0  0  0  0  0  0  0  0  0  0  0
   34.1724   44.4806   21.1062 C   0  0  0  0  0  0  0  0  0  0  0  0
   35.4409   44.7860   21.8646 C   0  0  0  0  0  0  0  0  0  0  0  0
   35.7571   46.1707   21.7175 O   0  0  0  0  0  0  0  0  0  0  0  0
   35.8597   46.3807   20.7760 H   0  0  0  0  0  0  0  0  0  0  0  0
   36.5490   43.9404   21.2454 C   0  0  0  0  0  0  0  0  0  0  0  0
   36.9231   42.9646   22.1957 O   0  0  0  0  0  0  0  0  0  0  0  0
   37.2292   43.4024   23.0054 H   0  0  0  0  0  0  0  0  0  0  0  0
  1  2  1  0  0  0
  2  3  1  0  0  0
  2 10  1  0  0  0
  3  4  2  0  0  0
  3  5  1  0  0  0
  5  6  1  0  0  0
  5  7  1  0  0  0
  7  8  2  0  0  0
  7  9  1  0  0  0
  9 10  2  0  0  0
  9 13  1  0  0  0
 10 11  1  0  0  0
 11 12  2  0  0  0
 12 13  1  0  0  0
 13 14  1  0  0  0
 14 15  1  0  0  0
 15 16  1  0  0  0
 15 18  1  0  0  0
 18 19  1  0  0  0
 16 17  1  0  0  0
 19 20  1  0  0  0
M  END
> <minimizedAffinity>
-6.69631

$$$$
2X0Y_X0T_A_1625


 20 21  0  0  0  0  0  0  0  0999 V2000
   33.7552   46.7070   22.9979 C   0  0  0  0  0  0  0  0  0  0  0  0
   33.1609   45.8718   21.9026 N   0  0  0  0  0  0  0  0  0  0  0  0
   33.1979   46.3031   20.5797 C   0  0  0  0  0  0  0  0  0  0  0  0
   33.7346   47.3885   20.3431 O   0  0  0  0  0  0  0  0  0  0  0  0
   32.6196   45.5156   19.5418 N   0  0  0  0  0  0  0  0  0  0  0  0
   32.6821   45.9810   18.1343 C   0  0  0  0  0  0  0  0  0  0  0  0
   32.0117   44.2865   19.8530 C   0  0  0  0  0  0  0  0  0  0  0  0
   31.5088   43.5812   18.9640 O   0  0  0  0  0  0  0  0  0  0  0  0
   31.9880   43.8709   21.1927 C   0  0  0  0  0  0  0  0  0  0  0  0
   32.5518   44.6443   22.2053 C   0  0  0  0  0  0  0  0  0  0  0  0
   32.3901   43.9958   23.3655 N   0  0  0  0  0  0  0  0  0  0  0  0
   31.7559   42.8435   23.1095 C   0  0  0  0  0  0  0  0  0  0  0  0
   31.5196   42.7850   21.8003 N   0  0  0  0  0  0  0  0  0  0  0  0
   30.8401   41.6993   21.0790 C   0  0  0  0  0  0  0  0  0  0  0  0
   29.3329   41.7640   21.1178 C   0  0  0  0  0  0  0  0  0  0  0  0
   28.9280   43.0270   21.6469 O   0  0  0  0  0  0  0  0  0  0  0  0
   29.3005   43.1397   22.5354 H   0  0  0  0  0  0  0  0  0  0  0  0
   28.8590   40.6473   22.0423 C   0  0  0  0  0  0  0  0  0  0  0  0
   28.8223   41.1668   23.3554 O   0  0  0  0  0  0  0  0  0  0  0  0
   29.7071   41.4755   23.6058 H   0  0  0  0  0  0  0  0  0  0  0  0
  1  2  1  0  0  0
  2  3  1  0  0  0
  2 10  1  0  0  0
  3  4  2  0  0  0
  3  5  1  0  0  0
  5  6  1  0  0  0
  5  7  1  0  0  0
  7  8  2  0  0  0
  7  9  1  0  0  0
  9 10  2  0  0  0
  9 13  1  0  0  0
 10 11  1  0  0  0
 11 12  2  0  0  0
 12 13  1  0  0  0
 13 14  1  0  0  0
 14 15  1  0  0  0
 15 16  1  0  0  0
 15 18  1  0  0  0
 18 19  1  0  0  0
 16 17  1  0  0  0
 19 20  1  0  0  0
M  END
> <minimizedAffinity>
-6.03394

$$$$
