3K5X_P8D_A_401


 20 19  0  0  0  0  0  0  0  0999 V2000
  -27.6737   31.3797  -14.4231 C   0  0  0  0  0  0  0  0  0  0  0  0
  -25.9732   31.9748  -14.6169 P   0  0  0  0  0  0  0  0  0  0  0  0
  -25.9595   33.0053  -15.6886 O   0  0  0  0  0  0  0  0  0  0  0  0
  -25.4714   32.6099  -13.2435 O   0  0  0  0  0  0  0  0  0  0  0  0
  -25.4834   31.9317  -12.5502 H   0  0  0  0  0  0  0  0  0  0  0  0
  -23.6647   30.9204  -15.8640 C   0  0  0  0  0  0  0  0  0  0  0  0
  -25.7573   29.6347  -15.8213 N   0  0  0  0  0  0  0  0  0  0  0  0
  -24.9091   30.5471  -15.0382 C   0  0  0  0  0  0  0  0  0  0  0  0
  -25.2162   28.8123  -16.0881 H   0  0  0  0  0  0  0  0  0  0  0  0
  -26.0861   30.1123  -16.6604 H   0  0  0  0  0  0  0  0  0  0  0  0
  -28.2966   31.3431  -12.9949 C   0  0  0  0  0  0  0  0  0  0  0  0
  -29.8105   31.6674  -13.0152 C   0  0  0  0  0  0  0  0  0  0  0  0
  -30.5065   31.0887  -13.8536 O   0  0  0  0  0  0  0  0  0  0  0  0
  -30.2656   32.4738  -12.1745 O   0  0  0  0  0  0  0  0  0  0  0  0
  -30.1115   30.4937  -14.4603 H   0  0  0  0  0  0  0  0  0  0  0  0
  -27.8923   30.0255  -12.2999 C   0  0  0  0  0  0  0  0  0  0  0  0
  -27.9473   28.7034  -13.0769 C   0  0  0  0  0  0  0  0  0  0  0  0
  -26.8713   28.1630  -13.3966 O   0  0  0  0  0  0  0  0  0  0  0  0
  -29.0847   28.2671  -13.3340 O   0  0  0  0  0  0  0  0  0  0  0  0
  -26.0577   28.5634  -13.1605 H   0  0  0  0  0  0  0  0  0  0  0  0
  6  8  1  0  0  0
  7  8  1  0  0  0
  8  2  1  0  0  0
  2  1  1  0  0  0
  2  3  2  0  0  0
  2  4  1  0  0  0
  1 11  1  0  0  0
 11 12  1  0  0  0
 11 16  1  0  0  0
 12 13  1  0  0  0
 12 14  2  0  0  0
 16 17  1  0  0  0
 17 18  1  0  0  0
 17 19  2  0  0  0
  7  9  1  0  0  0
  7 10  1  0  0  0
  4  5  1  0  0  0
 13 15  1  0  0  0
 18 20  1  0  0  0
M  END
> <minimizedAffinity>
-6.67575

$$$$
3K5X_P8D_A_401


 20 19  0  0  0  0  0  0  0  0999 V2000
  -26.2759   31.8202  -13.9860 C   0  0  0  0  0  0  0  0  0  0  0  0
  -26.4710   30.0205  -14.0650 P   0  0  0  0  0  0  0  0  0  0  0  0
  -26.6076   29.6289  -15.4928 O   0  0  0  0  0  0  0  0  0  0  0  0
  -25.1904   29.3174  -13.4270 O   0  0  0  0  0  0  0  0  0  0  0  0
  -25.1086   29.5779  -12.4962 H   0  0  0  0  0  0  0  0  0  0  0  0
  -27.7815   29.7455  -11.5744 C   0  0  0  0  0  0  0  0  0  0  0  0
  -28.1937   28.1381  -13.3854 N   0  0  0  0  0  0  0  0  0  0  0  0
  -27.9513   29.5596  -13.0930 C   0  0  0  0  0  0  0  0  0  0  0  0
  -29.0133   27.8196  -12.8685 H   0  0  0  0  0  0  0  0  0  0  0  0
  -27.3806   27.5898  -13.1050 H   0  0  0  0  0  0  0  0  0  0  0  0
  -25.5889   32.5525  -15.1779 C   0  0  0  0  0  0  0  0  0  0  0  0
  -26.2454   33.9241  -15.4705 C   0  0  0  0  0  0  0  0  0  0  0  0
  -25.5484   34.7858  -16.0125 O   0  0  0  0  0  0  0  0  0  0  0  0
  -27.4483   34.0923  -15.1725 O   0  0  0  0  0  0  0  0  0  0  0  0
  -24.6513   34.6047  -16.2133 H   0  0  0  0  0  0  0  0  0  0  0  0
  -24.0619   32.5632  -14.9532 C   0  0  0  0  0  0  0  0  0  0  0  0
  -23.1949   31.4415  -15.5406 C   0  0  0  0  0  0  0  0  0  0  0  0
  -23.7677   30.4731  -16.0752 O   0  0  0  0  0  0  0  0  0  0  0  0
  -21.9633   31.5889  -15.4325 O   0  0  0  0  0  0  0  0  0  0  0  0
  -24.7036   30.4445  -16.1125 H   0  0  0  0  0  0  0  0  0  0  0  0
  6  8  1  0  0  0
  7  8  1  0  0  0
  8  2  1  0  0  0
  2  1  1  0  0  0
  2  3  2  0  0  0
  2  4  1  0  0  0
  1 11  1  0  0  0
 11 12  1  0  0  0
 11 16  1  0  0  0
 12 13  1  0  0  0
 12 14  2  0  0  0
 16 17  1  0  0  0
 17 18  1  0  0  0
 17 19  2  0  0  0
  7  9  1  0  0  0
  7 10  1  0  0  0
  4  5  1  0  0  0
 13 15  1  0  0  0
 18 20  1  0  0  0
M  END
> <minimizedAffinity>
-6.55051

$$$$
3K5X_P8D_A_401


 20 19  0  0  0  0  0  0  0  0999 V2000
  -26.8172   31.0142  -12.9764 C   0  0  0  0  0  0  0  0  0  0  0  0
  -25.8074   31.7826  -14.2699 P   0  0  0  0  0  0  0  0  0  0  0  0
  -26.7197   32.4063  -15.2645 O   0  0  0  0  0  0  0  0  0  0  0  0
  -24.8665   32.8940  -13.6212 O   0  0  0  0  0  0  0  0  0  0  0  0
  -24.2748   32.4791  -12.9740 H   0  0  0  0  0  0  0  0  0  0  0  0
  -23.5834   31.0387  -15.8500 C   0  0  0  0  0  0  0  0  0  0  0  0
  -25.6566   29.7231  -15.9158 N   0  0  0  0  0  0  0  0  0  0  0  0
  -24.7633   30.4863  -15.0301 C   0  0  0  0  0  0  0  0  0  0  0  0
  -25.1286   28.9795  -16.3725 H   0  0  0  0  0  0  0  0  0  0  0  0
  -26.0478   30.3458  -16.6226 H   0  0  0  0  0  0  0  0  0  0  0  0
  -28.1405   30.2992  -13.3846 C   0  0  0  0  0  0  0  0  0  0  0  0
  -28.0094   28.7577  -13.3196 C   0  0  0  0  0  0  0  0  0  0  0  0
  -26.8770   28.2772  -13.4154 O   0  0  0  0  0  0  0  0  0  0  0  0
  -29.0411   28.0716  -13.1490 O   0  0  0  0  0  0  0  0  0  0  0  0
  -26.1386   28.8398  -13.5428 H   0  0  0  0  0  0  0  0  0  0  0  0
  -29.3139   30.9161  -12.5941 C   0  0  0  0  0  0  0  0  0  0  0  0
  -30.6509   31.1865  -13.2971 C   0  0  0  0  0  0  0  0  0  0  0  0
  -31.2521   30.2233  -13.8098 O   0  0  0  0  0  0  0  0  0  0  0  0
  -31.0363   32.3704  -13.3023 O   0  0  0  0  0  0  0  0  0  0  0  0
  -30.8869   29.3619  -13.7581 H   0  0  0  0  0  0  0  0  0  0  0  0
  6  8  1  0  0  0
  7  8  1  0  0  0
  8  2  1  0  0  0
  2  1  1  0  0  0
  2  3  2  0  0  0
  2  4  1  0  0  0
  1 11  1  0  0  0
 11 12  1  0  0  0
 11 16  1  0  0  0
 12 13  1  0  0  0
 12 14  2  0  0  0
 16 17  1  0  0  0
 17 18  1  0  0  0
 17 19  2  0  0  0
  7  9  1  0  0  0
  7 10  1  0  0  0
  4  5  1  0  0  0
 13 15  1  0  0  0
 18 20  1  0  0  0
M  END
> <minimizedAffinity>
-6.48826

$$$$
3K5X_P8D_A_401


 20 19  0  0  0  0  0  0  0  0999 V2000
  -27.2019   31.6684  -13.3962 C   0  0  0  0  0  0  0  0  0  0  0  0
  -25.8214   32.1200  -14.4796 P   0  0  0  0  0  0  0  0  0  0  0  0
  -26.3576   32.9323  -15.6035 O   0  0  0  0  0  0  0  0  0  0  0  0
  -24.7528   32.9683  -13.6550 O   0  0  0  0  0  0  0  0  0  0  0  0
  -24.4083   32.4315  -12.9243 H   0  0  0  0  0  0  0  0  0  0  0  0
  -23.8732   30.8173  -16.0618 C   0  0  0  0  0  0  0  0  0  0  0  0
  -26.0955   29.8195  -15.7469 N   0  0  0  0  0  0  0  0  0  0  0  0
  -25.0307   30.5809  -15.0749 C   0  0  0  0  0  0  0  0  0  0  0  0
  -25.7138   28.9435  -16.1035 H   0  0  0  0  0  0  0  0  0  0  0  0
  -26.4688   30.3681  -16.5215 H   0  0  0  0  0  0  0  0  0  0  0  0
  -26.8981   30.8930  -12.0789 C   0  0  0  0  0  0  0  0  0  0  0  0
  -26.7603   31.8451  -10.8655 C   0  0  0  0  0  0  0  0  0  0  0  0
  -25.8856   32.7136  -10.9186 O   0  0  0  0  0  0  0  0  0  0  0  0
  -27.5484   31.7133   -9.9034 O   0  0  0  0  0  0  0  0  0  0  0  0
  -25.3220   32.7659  -11.6654 H   0  0  0  0  0  0  0  0  0  0  0  0
  -27.9107   29.7383  -11.9260 C   0  0  0  0  0  0  0  0  0  0  0  0
  -27.9543   28.6163  -12.9720 C   0  0  0  0  0  0  0  0  0  0  0  0
  -26.8738   28.1713  -13.4038 O   0  0  0  0  0  0  0  0  0  0  0  0
  -29.0880   28.2329  -13.3157 O   0  0  0  0  0  0  0  0  0  0  0  0
  -26.0637   28.5204  -13.0879 H   0  0  0  0  0  0  0  0  0  0  0  0
  6  8  1  0  0  0
  7  8  1  0  0  0
  8  2  1  0  0  0
  2  1  1  0  0  0
  2  3  2  0  0  0
  2  4  1  0  0  0
  1 11  1  0  0  0
 11 12  1  0  0  0
 11 16  1  0  0  0
 12 13  1  0  0  0
 12 14  2  0  0  0
 16 17  1  0  0  0
 17 18  1  0  0  0
 17 19  2  0  0  0
  7  9  1  0  0  0
  7 10  1  0  0  0
  4  5  1  0  0  0
 13 15  1  0  0  0
 18 20  1  0  0  0
M  END
> <minimizedAffinity>
-6.27903

$$$$
3K5X_P8D_A_401


 20 19  0  0  0  0  0  0  0  0999 V2000
  -26.8431   31.0933  -13.6182 C   0  0  0  0  0  0  0  0  0  0  0  0
  -25.6736   30.1123  -14.5945 P   0  0  0  0  0  0  0  0  0  0  0  0
  -25.1443   29.0235  -13.7312 O   0  0  0  0  0  0  0  0  0  0  0  0
  -26.4231   29.4913  -15.8570 O   0  0  0  0  0  0  0  0  0  0  0  0
  -26.7651   30.2076  -16.4145 H   0  0  0  0  0  0  0  0  0  0  0  0
  -24.8374   32.6010  -15.6448 C   0  0  0  0  0  0  0  0  0  0  0  0
  -23.7074   30.5235  -16.3087 N   0  0  0  0  0  0  0  0  0  0  0  0
  -24.3400   31.2210  -15.1780 C   0  0  0  0  0  0  0  0  0  0  0  0
  -22.9496   31.0961  -16.6804 H   0  0  0  0  0  0  0  0  0  0  0  0
  -24.4008   30.3614  -17.0390 H   0  0  0  0  0  0  0  0  0  0  0  0
  -28.3119   30.5905  -13.4818 C   0  0  0  0  0  0  0  0  0  0  0  0
  -28.3849   29.1844  -12.8374 C   0  0  0  0  0  0  0  0  0  0  0  0
  -27.6534   28.9622  -11.8691 O   0  0  0  0  0  0  0  0  0  0  0  0
  -29.1912   28.3492  -13.3028 O   0  0  0  0  0  0  0  0  0  0  0  0
  -27.0674   29.6260  -11.5625 H   0  0  0  0  0  0  0  0  0  0  0  0
  -29.1634   31.6904  -12.8129 C   0  0  0  0  0  0  0  0  0  0  0  0
  -30.6930   31.6501  -12.9299 C   0  0  0  0  0  0  0  0  0  0  0  0
  -31.2030   30.8119  -13.6974 O   0  0  0  0  0  0  0  0  0  0  0  0
  -31.3163   32.4758  -12.2370 O   0  0  0  0  0  0  0  0  0  0  0  0
  -30.6553   30.2266  -14.1826 H   0  0  0  0  0  0  0  0  0  0  0  0
  6  8  1  0  0  0
  7  8  1  0  0  0
  8  2  1  0  0  0
  2  1  1  0  0  0
  2  3  2  0  0  0
  2  4  1  0  0  0
  1 11  1  0  0  0
 11 12  1  0  0  0
 11 16  1  0  0  0
 12 13  1  0  0  0
 12 14  2  0  0  0
 16 17  1  0  0  0
 17 18  1  0  0  0
 17 19  2  0  0  0
  7  9  1  0  0  0
  7 10  1  0  0  0
  4  5  1  0  0  0
 13 15  1  0  0  0
 18 20  1  0  0  0
M  END
> <minimizedAffinity>
-6.27656

$$$$
3K5X_P8D_A_401


 20 19  0  0  0  0  0  0  0  0999 V2000
  -26.4240   31.3554  -14.4309 C   0  0  0  0  0  0  0  0  0  0  0  0
  -26.8169   29.9936  -13.3021 P   0  0  0  0  0  0  0  0  0  0  0  0
  -26.3329   28.7275  -13.9132 O   0  0  0  0  0  0  0  0  0  0  0  0
  -26.0921   30.2355  -11.9030 O   0  0  0  0  0  0  0  0  0  0  0  0
  -26.4132   31.0628  -11.5114 H   0  0  0  0  0  0  0  0  0  0  0  0
  -29.0646   30.5008  -11.6631 C   0  0  0  0  0  0  0  0  0  0  0  0
  -29.0297   28.5589  -13.1668 N   0  0  0  0  0  0  0  0  0  0  0  0
  -28.6277   29.9686  -13.0399 C   0  0  0  0  0  0  0  0  0  0  0  0
  -30.0373   28.4790  -13.0296 H   0  0  0  0  0  0  0  0  0  0  0  0
  -28.5454   28.0025  -12.4624 H   0  0  0  0  0  0  0  0  0  0  0  0
  -24.9462   31.5478  -14.8873 C   0  0  0  0  0  0  0  0  0  0  0  0
  -24.5649   30.5825  -16.0364 C   0  0  0  0  0  0  0  0  0  0  0  0
  -25.4716   29.9238  -16.5523 O   0  0  0  0  0  0  0  0  0  0  0  0
  -23.3718   30.5291  -16.4079 O   0  0  0  0  0  0  0  0  0  0  0  0
  -26.3489   30.0036  -16.2329 H   0  0  0  0  0  0  0  0  0  0  0  0
  -24.6869   33.0475  -15.1443 C   0  0  0  0  0  0  0  0  0  0  0  0
  -23.2984   33.6409  -14.8714 C   0  0  0  0  0  0  0  0  0  0  0  0
  -22.5489   33.0440  -14.0753 O   0  0  0  0  0  0  0  0  0  0  0  0
  -23.0252   34.6941  -15.4768 O   0  0  0  0  0  0  0  0  0  0  0  0
  -22.8376   32.2537  -13.6629 H   0  0  0  0  0  0  0  0  0  0  0  0
  6  8  1  0  0  0
  7  8  1  0  0  0
  8  2  1  0  0  0
  2  1  1  0  0  0
  2  3  2  0  0  0
  2  4  1  0  0  0
  1 11  1  0  0  0
 11 12  1  0  0  0
 11 16  1  0  0  0
 12 13  1  0  0  0
 12 14  2  0  0  0
 16 17  1  0  0  0
 17 18  1  0  0  0
 17 19  2  0  0  0
  7  9  1  0  0  0
  7 10  1  0  0  0
  4  5  1  0  0  0
 13 15  1  0  0  0
 18 20  1  0  0  0
M  END
> <minimizedAffinity>
-6.17916

$$$$
3K5X_P8D_A_401


 20 19  0  0  0  0  0  0  0  0999 V2000
  -27.5274   30.6143  -14.1646 C   0  0  0  0  0  0  0  0  0  0  0  0
  -27.9372   29.1834  -13.1312 P   0  0  0  0  0  0  0  0  0  0  0  0
  -29.3023   28.7207  -13.4960 O   0  0  0  0  0  0  0  0  0  0  0  0
  -26.8796   28.0190  -13.3902 O   0  0  0  0  0  0  0  0  0  0  0  0
  -25.9924   28.3287  -13.1498 H   0  0  0  0  0  0  0  0  0  0  0  0
  -28.7374   30.9002  -11.0315 C   0  0  0  0  0  0  0  0  0  0  0  0
  -26.4353   30.0503  -11.1398 N   0  0  0  0  0  0  0  0  0  0  0  0
  -27.8434   29.6955  -11.3770 C   0  0  0  0  0  0  0  0  0  0  0  0
  -26.3179   30.3466  -10.1708 H   0  0  0  0  0  0  0  0  0  0  0  0
  -26.1669   30.8118  -11.7630 H   0  0  0  0  0  0  0  0  0  0  0  0
  -26.0412   31.0757  -14.2503 C   0  0  0  0  0  0  0  0  0  0  0  0
  -25.3428   30.5443  -15.5260 C   0  0  0  0  0  0  0  0  0  0  0  0
  -25.7192   29.4569  -15.9713 O   0  0  0  0  0  0  0  0  0  0  0  0
  -24.4539   31.2422  -16.0617 O   0  0  0  0  0  0  0  0  0  0  0  0
  -26.3902   28.9760  -15.5280 H   0  0  0  0  0  0  0  0  0  0  0  0
  -25.9705   32.6004  -14.0209 C   0  0  0  0  0  0  0  0  0  0  0  0
  -26.5525   33.5588  -15.0684 C   0  0  0  0  0  0  0  0  0  0  0  0
  -25.8133   33.9345  -15.9981 O   0  0  0  0  0  0  0  0  0  0  0  0
  -27.7401   33.8942  -14.9026 O   0  0  0  0  0  0  0  0  0  0  0  0
  -24.9283   33.6304  -16.0451 H   0  0  0  0  0  0  0  0  0  0  0  0
  6  8  1  0  0  0
  7  8  1  0  0  0
  8  2  1  0  0  0
  2  1  1  0  0  0
  2  3  2  0  0  0
  2  4  1  0  0  0
  1 11  1  0  0  0
 11 12  1  0  0  0
 11 16  1  0  0  0
 12 13  1  0  0  0
 12 14  2  0  0  0
 16 17  1  0  0  0
 17 18  1  0  0  0
 17 19  2  0  0  0
  7  9  1  0  0  0
  7 10  1  0  0  0
  4  5  1  0  0  0
 13 15  1  0  0  0
 18 20  1  0  0  0
M  END
> <minimizedAffinity>
-6.04491

$$$$
3K5X_P8D_A_401


 20 19  0  0  0  0  0  0  0  0999 V2000
  -27.4531   31.2294  -14.0924 C   0  0  0  0  0  0  0  0  0  0  0  0
  -27.8133   32.1677  -12.5848 P   0  0  0  0  0  0  0  0  0  0  0  0
  -27.1840   33.5091  -12.7093 O   0  0  0  0  0  0  0  0  0  0  0  0
  -29.3912   32.3194  -12.4162 O   0  0  0  0  0  0  0  0  0  0  0  0
  -29.7938   31.4406  -12.3357 H   0  0  0  0  0  0  0  0  0  0  0  0
  -28.0983   30.1527  -10.6215 C   0  0  0  0  0  0  0  0  0  0  0  0
  -26.9104   32.2396  -10.1044 N   0  0  0  0  0  0  0  0  0  0  0  0
  -27.1470   31.2384  -11.1563 C   0  0  0  0  0  0  0  0  0  0  0  0
  -26.5355   31.7793   -9.2750 H   0  0  0  0  0  0  0  0  0  0  0  0
  -27.7897   32.7002   -9.8694 H   0  0  0  0  0  0  0  0  0  0  0  0
  -26.0353   30.6059  -14.2663 C   0  0  0  0  0  0  0  0  0  0  0  0
  -26.0742   29.0586  -14.2236 C   0  0  0  0  0  0  0  0  0  0  0  0
  -25.2688   28.4482  -14.9314 O   0  0  0  0  0  0  0  0  0  0  0  0
  -26.8932   28.4969  -13.4633 O   0  0  0  0  0  0  0  0  0  0  0  0
  -24.6772   28.9213  -15.4829 H   0  0  0  0  0  0  0  0  0  0  0  0
  -25.3531   31.2356  -15.4993 C   0  0  0  0  0  0  0  0  0  0  0  0
  -23.8489   31.0345  -15.7267 C   0  0  0  0  0  0  0  0  0  0  0  0
  -23.4863   30.1300  -16.5028 O   0  0  0  0  0  0  0  0  0  0  0  0
  -23.0940   31.8042  -15.1038 O   0  0  0  0  0  0  0  0  0  0  0  0
  -24.1260   29.5957  -16.9310 H   0  0  0  0  0  0  0  0  0  0  0  0
  6  8  1  0  0  0
  7  8  1  0  0  0
  8  2  1  0  0  0
  2  1  1  0  0  0
  2  3  2  0  0  0
  2  4  1  0  0  0
  1 11  1  0  0  0
 11 12  1  0  0  0
 11 16  1  0  0  0
 12 13  1  0  0  0
 12 14  2  0  0  0
 16 17  1  0  0  0
 17 18  1  0  0  0
 17 19  2  0  0  0
  7  9  1  0  0  0
  7 10  1  0  0  0
  4  5  1  0  0  0
 13 15  1  0  0  0
 18 20  1  0  0  0
M  END
> <minimizedAffinity>
-6.01676

$$$$
3K5X_P8D_A_401


 20 19  0  0  0  0  0  0  0  0999 V2000
  -26.3798   32.5156  -13.6833 C   0  0  0  0  0  0  0  0  0  0  0  0
  -27.9391   31.6351  -13.4068 P   0  0  0  0  0  0  0  0  0  0  0  0
  -28.8087   32.4850  -12.5511 O   0  0  0  0  0  0  0  0  0  0  0  0
  -28.6517   31.3614  -14.8063 O   0  0  0  0  0  0  0  0  0  0  0  0
  -28.0782   30.8067  -15.3581 H   0  0  0  0  0  0  0  0  0  0  0  0
  -27.9444   29.9765  -11.1166 C   0  0  0  0  0  0  0  0  0  0  0  0
  -26.1068   29.8536  -12.7419 N   0  0  0  0  0  0  0  0  0  0  0  0
  -27.5608   30.0337  -12.6063 C   0  0  0  0  0  0  0  0  0  0  0  0
  -25.8319   28.9708  -12.3113 H   0  0  0  0  0  0  0  0  0  0  0  0
  -25.6241   30.6231  -12.2779 H   0  0  0  0  0  0  0  0  0  0  0  0
  -25.9398   32.8186  -15.1474 C   0  0  0  0  0  0  0  0  0  0  0  0
  -25.9165   34.3386  -15.4420 C   0  0  0  0  0  0  0  0  0  0  0  0
  -24.8670   34.8189  -15.8779 O   0  0  0  0  0  0  0  0  0  0  0  0
  -26.9577   35.0052  -15.2529 O   0  0  0  0  0  0  0  0  0  0  0  0
  -24.1164   34.2715  -16.0000 H   0  0  0  0  0  0  0  0  0  0  0  0
  -24.6397   32.0458  -15.4555 C   0  0  0  0  0  0  0  0  0  0  0  0
  -24.7129   30.6146  -16.0040 C   0  0  0  0  0  0  0  0  0  0  0  0
  -23.6839   30.1226  -16.5053 O   0  0  0  0  0  0  0  0  0  0  0  0
  -25.8167   30.0470  -15.9055 O   0  0  0  0  0  0  0  0  0  0  0  0
  -22.8930   30.6239  -16.5379 H   0  0  0  0  0  0  0  0  0  0  0  0
  6  8  1  0  0  0
  7  8  1  0  0  0
  8  2  1  0  0  0
  2  1  1  0  0  0
  2  3  2  0  0  0
  2  4  1  0  0  0
  1 11  1  0  0  0
 11 12  1  0  0  0
 11 16  1  0  0  0
 12 13  1  0  0  0
 12 14  2  0  0  0
 16 17  1  0  0  0
 17 18  1  0  0  0
 17 19  2  0  0  0
  7  9  1  0  0  0
  7 10  1  0  0  0
  4  5  1  0  0  0
 13 15  1  0  0  0
 18 20  1  0  0  0
M  END
> <minimizedAffinity>
-5.98655

$$$$
3K5X_P8D_A_401


 20 19  0  0  0  0  0  0  0  0999 V2000
  -26.1535   31.5719  -13.5348 C   0  0  0  0  0  0  0  0  0  0  0  0
  -27.4373   30.5204  -14.2623 P   0  0  0  0  0  0  0  0  0  0  0  0
  -28.4993   31.3993  -14.8192 O   0  0  0  0  0  0  0  0  0  0  0  0
  -26.8025   29.6302  -15.4225 O   0  0  0  0  0  0  0  0  0  0  0  0
  -26.1111   29.0602  -15.0510 H   0  0  0  0  0  0  0  0  0  0  0  0
  -27.7808   29.9015  -11.5245 C   0  0  0  0  0  0  0  0  0  0  0  0
  -27.4474   28.1137  -13.1756 N   0  0  0  0  0  0  0  0  0  0  0  0
  -28.0884   29.4194  -12.9538 C   0  0  0  0  0  0  0  0  0  0  0  0
  -27.7728   27.4512  -12.4716 H   0  0  0  0  0  0  0  0  0  0  0  0
  -26.4350   28.2155  -13.1045 H   0  0  0  0  0  0  0  0  0  0  0  0
  -25.7654   32.8937  -14.2637 C   0  0  0  0  0  0  0  0  0  0  0  0
  -25.0795   33.9014  -13.3088 C   0  0  0  0  0  0  0  0  0  0  0  0
  -25.1087   33.6527  -12.1007 O   0  0  0  0  0  0  0  0  0  0  0  0
  -24.5083   34.9013  -13.7969 O   0  0  0  0  0  0  0  0  0  0  0  0
  -25.5522   32.8879  -11.7904 H   0  0  0  0  0  0  0  0  0  0  0  0
  -24.9969   32.5513  -15.5577 C   0  0  0  0  0  0  0  0  0  0  0  0
  -23.8849   31.4942  -15.5294 C   0  0  0  0  0  0  0  0  0  0  0  0
  -22.8874   31.7077  -14.8143 O   0  0  0  0  0  0  0  0  0  0  0  0
  -24.0691   30.4877  -16.2388 O   0  0  0  0  0  0  0  0  0  0  0  0
  -22.8319   32.4961  -14.3110 H   0  0  0  0  0  0  0  0  0  0  0  0
  6  8  1  0  0  0
  7  8  1  0  0  0
  8  2  1  0  0  0
  2  1  1  0  0  0
  2  3  2  0  0  0
  2  4  1  0  0  0
  1 11  1  0  0  0
 11 12  1  0  0  0
 11 16  1  0  0  0
 12 13  1  0  0  0
 12 14  2  0  0  0
 16 17  1  0  0  0
 17 18  1  0  0  0
 17 19  2  0  0  0
  7  9  1  0  0  0
  7 10  1  0  0  0
  4  5  1  0  0  0
 13 15  1  0  0  0
 18 20  1  0  0  0
M  END
> <minimizedAffinity>
-5.77056

$$$$
