4F9W_LM4_A_403


 25 28  0  0  0  0  0  0  0  0999 V2000
   -0.8309    2.8121   22.6561 C   0  0  0  0  0  0  0  0  0  0  0  0
   -1.3545    3.5448   21.6544 N   0  0  0  0  0  0  0  0  0  0  0  0
   -2.2957    3.0447   20.7681 N   0  0  0  0  0  0  0  0  0  0  0  0
   -2.7160    1.7792   20.8512 C   0  0  0  0  0  0  0  0  0  0  0  0
   -2.1923    0.9421   21.8710 C   0  0  0  0  0  0  0  0  0  0  0  0
   -1.2369    1.4739   22.7653 C   0  0  0  0  0  0  0  0  0  0  0  0
   -3.6866    1.3174   19.8558 C   0  0  0  0  0  0  0  0  0  0  0  0
   -3.2814    1.2298   18.5409 C   0  0  0  0  0  0  0  0  0  0  0  0
   -4.1554    0.7804   17.5771 C   0  0  0  0  0  0  0  0  0  0  0  0
   -3.7404    0.6884   16.2640 C   0  0  0  0  0  0  0  0  0  0  0  0
   -4.6158    0.2309   15.2862 C   0  0  0  0  0  0  0  0  0  0  0  0
   -5.9140   -0.1554   15.6213 C   0  0  0  0  0  0  0  0  0  0  0  0
   -6.3127   -0.0360   16.9473 C   0  0  0  0  0  0  0  0  0  0  0  0
   -5.4515    0.4290   17.9170 C   0  0  0  0  0  0  0  0  0  0  0  0
   -5.8605    0.4998   19.2328 C   0  0  0  0  0  0  0  0  0  0  0  0
   -4.9818    0.9361   20.2081 C   0  0  0  0  0  0  0  0  0  0  0  0
   -2.5191   -0.5197   22.0071 C   0  0  0  0  0  0  0  0  0  0  0  0
   -3.2114   -0.9561   23.1361 C   0  0  0  0  0  0  0  0  0  0  0  0
   -3.5872   -2.2901   23.2548 C   0  0  0  0  0  0  0  0  0  0  0  0
   -3.2994   -3.1587   22.2665 N   0  0  0  0  0  0  0  0  0  0  0  0
   -2.6752   -2.7624   21.1488 C   0  0  0  0  0  0  0  0  0  0  0  0
   -2.2928   -1.4438   20.9719 C   0  0  0  0  0  0  0  0  0  0  0  0
    0.9923    4.4569   22.9457 C   0  0  0  0  0  0  0  0  0  0  0  0
    0.1294    3.4169   23.4960 N   0  0  0  0  0  0  0  0  0  0  0  0
    0.3282    2.9642   24.8750 C   0  0  0  0  0  0  0  0  0  0  0  0
 11 12  2  0  0  0
 11 10  1  0  0  0
 12 13  1  0  0  0
 10  9  2  0  0  0
 13 14  2  0  0  0
  9 14  1  0  0  0
  9  8  1  0  0  0
 14 15  1  0  0  0
  8  7  2  0  0  0
 15 16  2  0  0  0
  7 16  1  0  0  0
  7  4  1  0  0  0
  3  4  2  0  0  0
  3  2  1  0  0  0
  4  5  1  0  0  0
 18 19  2  0  0  0
 18 17  1  0  0  0
  2  1  2  0  0  0
 19 20  1  0  0  0
  5 17  1  0  0  0
  5  6  2  0  0  0
 17 22  2  0  0  0
  1  6  1  0  0  0
  1 24  1  0  0  0
 20 21  2  0  0  0
 23 24  1  0  0  0
 24 25  1  0  0  0
 22 21  1  0  0  0
M  END
> <minimizedAffinity>
-10.51272

$$$$
4F9W_LM4_A_403


 25 28  0  0  0  0  0  0  0  0999 V2000
   -0.7526   -0.4513   23.6409 C   0  0  0  0  0  0  0  0  0  0  0  0
   -1.5084   -1.3820   23.0271 N   0  0  0  0  0  0  0  0  0  0  0  0
   -2.3204   -1.0958   21.9407 N   0  0  0  0  0  0  0  0  0  0  0  0
   -2.4137    0.1469   21.4589 C   0  0  0  0  0  0  0  0  0  0  0  0
   -1.6598    1.1836   22.0691 C   0  0  0  0  0  0  0  0  0  0  0  0
   -0.8362    0.8683   23.1725 C   0  0  0  0  0  0  0  0  0  0  0  0
   -3.3200    0.3734   20.3304 C   0  0  0  0  0  0  0  0  0  0  0  0
   -2.7785    0.4570   19.0652 C   0  0  0  0  0  0  0  0  0  0  0  0
   -3.5967    0.6480   17.9749 C   0  0  0  0  0  0  0  0  0  0  0  0
   -3.0482    0.7234   16.7106 C   0  0  0  0  0  0  0  0  0  0  0  0
   -3.8685    0.9112   15.6045 C   0  0  0  0  0  0  0  0  0  0  0  0
   -5.2521    1.0086   15.7561 C   0  0  0  0  0  0  0  0  0  0  0  0
   -5.7774    0.9478   17.0414 C   0  0  0  0  0  0  0  0  0  0  0  0
   -4.9661    0.7743   18.1412 C   0  0  0  0  0  0  0  0  0  0  0  0
   -5.5174    0.6770   19.4023 C   0  0  0  0  0  0  0  0  0  0  0  0
   -4.7016    0.4698   20.5001 C   0  0  0  0  0  0  0  0  0  0  0  0
   -1.7526    2.6321   21.6751 C   0  0  0  0  0  0  0  0  0  0  0  0
   -2.6931    3.4460   22.3054 C   0  0  0  0  0  0  0  0  0  0  0  0
   -2.7537    4.8041   22.0104 C   0  0  0  0  0  0  0  0  0  0  0  0
   -1.8875    5.3382   21.1282 N   0  0  0  0  0  0  0  0  0  0  0  0
   -0.9426    4.5927   20.5389 C   0  0  0  0  0  0  0  0  0  0  0  0
   -0.8275    3.2397   20.8079 C   0  0  0  0  0  0  0  0  0  0  0  0
    1.4508   -0.5119   24.7610 C   0  0  0  0  0  0  0  0  0  0  0  0
    0.0312   -0.8486   24.7461 N   0  0  0  0  0  0  0  0  0  0  0  0
   -0.5337   -1.6575   25.8289 C   0  0  0  0  0  0  0  0  0  0  0  0
 11 12  2  0  0  0
 11 10  1  0  0  0
 12 13  1  0  0  0
 10  9  2  0  0  0
 13 14  2  0  0  0
  9 14  1  0  0  0
  9  8  1  0  0  0
 14 15  1  0  0  0
  8  7  2  0  0  0
 15 16  2  0  0  0
  7 16  1  0  0  0
  7  4  1  0  0  0
  3  4  2  0  0  0
  3  2  1  0  0  0
  4  5  1  0  0  0
 18 19  2  0  0  0
 18 17  1  0  0  0
  2  1  2  0  0  0
 19 20  1  0  0  0
  5 17  1  0  0  0
  5  6  2  0  0  0
 17 22  2  0  0  0
  1  6  1  0  0  0
  1 24  1  0  0  0
 20 21  2  0  0  0
 23 24  1  0  0  0
 24 25  1  0  0  0
 22 21  1  0  0  0
M  END
> <minimizedAffinity>
-9.51884

$$$$
4F9W_LM4_A_403


 25 28  0  0  0  0  0  0  0  0999 V2000
   -1.8005    0.2756   24.8231 C   0  0  0  0  0  0  0  0  0  0  0  0
   -2.3260   -0.7443   24.1176 N   0  0  0  0  0  0  0  0  0  0  0  0
   -2.6953   -0.6276   22.7866 N   0  0  0  0  0  0  0  0  0  0  0  0
   -2.5696    0.5326   22.1360 C   0  0  0  0  0  0  0  0  0  0  0  0
   -2.0408    1.6568   22.8229 C   0  0  0  0  0  0  0  0  0  0  0  0
   -1.6677    1.5139   24.1777 C   0  0  0  0  0  0  0  0  0  0  0  0
   -3.0145    0.5828   20.7411 C   0  0  0  0  0  0  0  0  0  0  0  0
   -4.3395    0.3160   20.4688 C   0  0  0  0  0  0  0  0  0  0  0  0
   -4.8037    0.3731   19.1742 C   0  0  0  0  0  0  0  0  0  0  0  0
   -6.1330    0.1119   18.9101 C   0  0  0  0  0  0  0  0  0  0  0  0
   -6.6101    0.1725   17.6061 C   0  0  0  0  0  0  0  0  0  0  0  0
   -5.7584    0.5131   16.5546 C   0  0  0  0  0  0  0  0  0  0  0  0
   -4.4207    0.7535   16.8449 C   0  0  0  0  0  0  0  0  0  0  0  0
   -3.9418    0.6820   18.1348 C   0  0  0  0  0  0  0  0  0  0  0  0
   -2.6177    0.9648   18.4004 C   0  0  0  0  0  0  0  0  0  0  0  0
   -2.1489    0.9239   19.7013 C   0  0  0  0  0  0  0  0  0  0  0  0
   -1.9380    3.0332   22.2253 C   0  0  0  0  0  0  0  0  0  0  0  0
   -2.9598    3.9519   22.4623 C   0  0  0  0  0  0  0  0  0  0  0  0
   -2.8576    5.2527   21.9801 C   0  0  0  0  0  0  0  0  0  0  0  0
   -1.7588    5.6316   21.2998 N   0  0  0  0  0  0  0  0  0  0  0  0
   -0.7394    4.7864   21.0938 C   0  0  0  0  0  0  0  0  0  0  0  0
   -0.7820    3.4856   21.5652 C   0  0  0  0  0  0  0  0  0  0  0  0
   -1.3096   -1.3213   26.6458 C   0  0  0  0  0  0  0  0  0  0  0  0
   -1.4681    0.0512   26.1769 N   0  0  0  0  0  0  0  0  0  0  0  0
   -1.3622    1.1596   27.1290 C   0  0  0  0  0  0  0  0  0  0  0  0
 11 12  2  0  0  0
 11 10  1  0  0  0
 12 13  1  0  0  0
 10  9  2  0  0  0
 13 14  2  0  0  0
  9 14  1  0  0  0
  9  8  1  0  0  0
 14 15  1  0  0  0
  8  7  2  0  0  0
 15 16  2  0  0  0
  7 16  1  0  0  0
  7  4  1  0  0  0
  3  4  2  0  0  0
  3  2  1  0  0  0
  4  5  1  0  0  0
 18 19  2  0  0  0
 18 17  1  0  0  0
  2  1  2  0  0  0
 19 20  1  0  0  0
  5 17  1  0  0  0
  5  6  2  0  0  0
 17 22  2  0  0  0
  1  6  1  0  0  0
  1 24  1  0  0  0
 20 21  2  0  0  0
 23 24  1  0  0  0
 24 25  1  0  0  0
 22 21  1  0  0  0
M  END
> <minimizedAffinity>
-8.64454

$$$$
4F9W_LM4_A_403


 25 28  0  0  0  0  0  0  0  0999 V2000
    0.0482    6.0671   20.0396 C   0  0  0  0  0  0  0  0  0  0  0  0
    0.1051    4.9012   19.3674 N   0  0  0  0  0  0  0  0  0  0  0  0
   -0.5129    3.7437   19.8142 N   0  0  0  0  0  0  0  0  0  0  0  0
   -1.1848    3.7231   20.9688 C   0  0  0  0  0  0  0  0  0  0  0  0
   -1.2699    4.9115   21.7406 C   0  0  0  0  0  0  0  0  0  0  0  0
   -0.6356    6.0802   21.2642 C   0  0  0  0  0  0  0  0  0  0  0  0
   -1.7802    2.4517   21.3876 C   0  0  0  0  0  0  0  0  0  0  0  0
   -0.9868    1.5522   22.0674 C   0  0  0  0  0  0  0  0  0  0  0  0
   -1.5125    0.3549   22.4975 C   0  0  0  0  0  0  0  0  0  0  0  0
   -0.7142   -0.5376   23.1839 C   0  0  0  0  0  0  0  0  0  0  0  0
   -1.2392   -1.7463   23.6255 C   0  0  0  0  0  0  0  0  0  0  0  0
   -2.5784   -2.0637   23.3962 C   0  0  0  0  0  0  0  0  0  0  0  0
   -3.3559   -1.1560   22.6869 C   0  0  0  0  0  0  0  0  0  0  0  0
   -2.8354    0.0375   22.2368 C   0  0  0  0  0  0  0  0  0  0  0  0
   -3.6401    0.9385   21.5700 C   0  0  0  0  0  0  0  0  0  0  0  0
   -3.1214    2.1498   21.1488 C   0  0  0  0  0  0  0  0  0  0  0  0
   -1.9179    4.9874   23.0958 C   0  0  0  0  0  0  0  0  0  0  0  0
   -1.1282    4.8250   24.2336 C   0  0  0  0  0  0  0  0  0  0  0  0
   -1.6885    4.9592   25.4997 C   0  0  0  0  0  0  0  0  0  0  0  0
   -2.9934    5.2672   25.6267 N   0  0  0  0  0  0  0  0  0  0  0  0
   -3.7694    5.4741   24.5538 C   0  0  0  0  0  0  0  0  0  0  0  0
   -3.2598    5.3687   23.2711 C   0  0  0  0  0  0  0  0  0  0  0  0
   -0.0151    8.1069   18.6437 C   0  0  0  0  0  0  0  0  0  0  0  0
    0.7226    7.1840   19.4998 N   0  0  0  0  0  0  0  0  0  0  0  0
    2.1576    7.3846   19.7156 C   0  0  0  0  0  0  0  0  0  0  0  0
 11 12  2  0  0  0
 11 10  1  0  0  0
 12 13  1  0  0  0
 10  9  2  0  0  0
 13 14  2  0  0  0
  9 14  1  0  0  0
  9  8  1  0  0  0
 14 15  1  0  0  0
  8  7  2  0  0  0
 15 16  2  0  0  0
  7 16  1  0  0  0
  7  4  1  0  0  0
  3  4  2  0  0  0
  3  2  1  0  0  0
  4  5  1  0  0  0
 18 19  2  0  0  0
 18 17  1  0  0  0
  2  1  2  0  0  0
 19 20  1  0  0  0
  5 17  1  0  0  0
  5  6  2  0  0  0
 17 22  2  0  0  0
  1  6  1  0  0  0
  1 24  1  0  0  0
 20 21  2  0  0  0
 23 24  1  0  0  0
 24 25  1  0  0  0
 22 21  1  0  0  0
M  END
> <minimizedAffinity>
-8.28327

$$$$
4F9W_LM4_A_403


 25 28  0  0  0  0  0  0  0  0999 V2000
   -0.3721    0.4965   24.1101 C   0  0  0  0  0  0  0  0  0  0  0  0
    0.2327    1.6618   24.4111 N   0  0  0  0  0  0  0  0  0  0  0  0
   -0.0176    2.8394   23.7240 N   0  0  0  0  0  0  0  0  0  0  0  0
   -0.8673    2.8683   22.6934 C   0  0  0  0  0  0  0  0  0  0  0  0
   -1.5268    1.6721   22.3071 C   0  0  0  0  0  0  0  0  0  0  0  0
   -1.2594    0.4846   23.0238 C   0  0  0  0  0  0  0  0  0  0  0  0
   -1.0510    4.1446   21.9980 C   0  0  0  0  0  0  0  0  0  0  0  0
   -0.1549    4.4821   21.0060 C   0  0  0  0  0  0  0  0  0  0  0  0
   -0.3035    5.6622   20.3132 C   0  0  0  0  0  0  0  0  0  0  0  0
    0.5932    5.9901   19.3165 C   0  0  0  0  0  0  0  0  0  0  0  0
    0.4468    7.1776   18.6094 C   0  0  0  0  0  0  0  0  0  0  0  0
   -0.6137    8.0412   18.8858 C   0  0  0  0  0  0  0  0  0  0  0  0
   -1.4919    7.6967   19.9063 C   0  0  0  0  0  0  0  0  0  0  0  0
   -1.3424    6.5263   20.6177 C   0  0  0  0  0  0  0  0  0  0  0  0
   -2.2520    6.1892   21.5989 C   0  0  0  0  0  0  0  0  0  0  0  0
   -2.1167    4.9974   22.2879 C   0  0  0  0  0  0  0  0  0  0  0  0
   -2.4312    1.5612   21.1104 C   0  0  0  0  0  0  0  0  0  0  0  0
   -1.8639    1.4398   19.8424 C   0  0  0  0  0  0  0  0  0  0  0  0
   -2.6754    1.2661   18.7260 C   0  0  0  0  0  0  0  0  0  0  0  0
   -4.0122    1.1944   18.8730 N   0  0  0  0  0  0  0  0  0  0  0  0
   -4.5862    1.2623   20.0821 C   0  0  0  0  0  0  0  0  0  0  0  0
   -3.8251    1.4193   21.2276 C   0  0  0  0  0  0  0  0  0  0  0  0
   -0.1297   -1.9607   24.2406 C   0  0  0  0  0  0  0  0  0  0  0  0
   -0.0364   -0.6466   24.8679 N   0  0  0  0  0  0  0  0  0  0  0  0
    0.3209   -0.5431   26.2848 C   0  0  0  0  0  0  0  0  0  0  0  0
 11 12  2  0  0  0
 11 10  1  0  0  0
 12 13  1  0  0  0
 10  9  2  0  0  0
 13 14  2  0  0  0
  9 14  1  0  0  0
  9  8  1  0  0  0
 14 15  1  0  0  0
  8  7  2  0  0  0
 15 16  2  0  0  0
  7 16  1  0  0  0
  7  4  1  0  0  0
  3  4  2  0  0  0
  3  2  1  0  0  0
  4  5  1  0  0  0
 18 19  2  0  0  0
 18 17  1  0  0  0
  2  1  2  0  0  0
 19 20  1  0  0  0
  5 17  1  0  0  0
  5  6  2  0  0  0
 17 22  2  0  0  0
  1  6  1  0  0  0
  1 24  1  0  0  0
 20 21  2  0  0  0
 23 24  1  0  0  0
 24 25  1  0  0  0
 22 21  1  0  0  0
M  END
> <minimizedAffinity>
-8.01432

$$$$
4F9W_LM4_A_403


 25 28  0  0  0  0  0  0  0  0999 V2000
    0.1352    5.6767   20.5968 C   0  0  0  0  0  0  0  0  0  0  0  0
   -0.7467    4.9052   19.9325 N   0  0  0  0  0  0  0  0  0  0  0  0
   -1.4144    3.8443   20.5244 N   0  0  0  0  0  0  0  0  0  0  0  0
   -1.1899    3.5142   21.7994 C   0  0  0  0  0  0  0  0  0  0  0  0
   -0.2577    4.2718   22.5560 C   0  0  0  0  0  0  0  0  0  0  0  0
    0.4083    5.3508   21.9335 C   0  0  0  0  0  0  0  0  0  0  0  0
   -1.9099    2.3589   22.3406 C   0  0  0  0  0  0  0  0  0  0  0  0
   -1.6376    1.1146   21.8130 C   0  0  0  0  0  0  0  0  0  0  0  0
   -2.2762   -0.0002   22.3072 C   0  0  0  0  0  0  0  0  0  0  0  0
   -1.9931   -1.2435   21.7791 C   0  0  0  0  0  0  0  0  0  0  0  0
   -2.6304   -2.3742   22.2763 C   0  0  0  0  0  0  0  0  0  0  0  0
   -3.5477   -2.2687   23.3223 C   0  0  0  0  0  0  0  0  0  0  0  0
   -3.8286   -1.0034   23.8240 C   0  0  0  0  0  0  0  0  0  0  0  0
   -3.2081    0.1209   23.3250 C   0  0  0  0  0  0  0  0  0  0  0  0
   -3.4756    1.3606   23.8685 C   0  0  0  0  0  0  0  0  0  0  0  0
   -2.8255    2.4824   23.3863 C   0  0  0  0  0  0  0  0  0  0  0  0
    0.1448    3.9402   23.9667 C   0  0  0  0  0  0  0  0  0  0  0  0
   -0.3301    4.7338   25.0103 C   0  0  0  0  0  0  0  0  0  0  0  0
   -0.0303    4.4091   26.3292 C   0  0  0  0  0  0  0  0  0  0  0  0
    0.7038    3.3129   26.6000 N   0  0  0  0  0  0  0  0  0  0  0  0
    1.1374    2.5043   25.6232 C   0  0  0  0  0  0  0  0  0  0  0  0
    0.8547    2.7717   24.2947 C   0  0  0  0  0  0  0  0  0  0  0  0
    1.7931    7.5107   20.5739 C   0  0  0  0  0  0  0  0  0  0  0  0
    0.7673    6.7261   19.8950 N   0  0  0  0  0  0  0  0  0  0  0  0
    0.3561    7.0903   18.5369 C   0  0  0  0  0  0  0  0  0  0  0  0
 11 12  2  0  0  0
 11 10  1  0  0  0
 12 13  1  0  0  0
 10  9  2  0  0  0
 13 14  2  0  0  0
  9 14  1  0  0  0
  9  8  1  0  0  0
 14 15  1  0  0  0
  8  7  2  0  0  0
 15 16  2  0  0  0
  7 16  1  0  0  0
  7  4  1  0  0  0
  3  4  2  0  0  0
  3  2  1  0  0  0
  4  5  1  0  0  0
 18 19  2  0  0  0
 18 17  1  0  0  0
  2  1  2  0  0  0
 19 20  1  0  0  0
  5 17  1  0  0  0
  5  6  2  0  0  0
 17 22  2  0  0  0
  1  6  1  0  0  0
  1 24  1  0  0  0
 20 21  2  0  0  0
 23 24  1  0  0  0
 24 25  1  0  0  0
 22 21  1  0  0  0
M  END
> <minimizedAffinity>
-7.92342

$$$$
4F9W_LM4_A_403


 25 28  0  0  0  0  0  0  0  0999 V2000
   -3.8013    0.7891   18.3705 C   0  0  0  0  0  0  0  0  0  0  0  0
   -2.8836    1.7736   18.4233 N   0  0  0  0  0  0  0  0  0  0  0  0
   -2.0923    2.0063   19.5375 N   0  0  0  0  0  0  0  0  0  0  0  0
   -2.2244    1.2673   20.6427 C   0  0  0  0  0  0  0  0  0  0  0  0
   -3.1865    0.2236   20.6658 C   0  0  0  0  0  0  0  0  0  0  0  0
   -3.9791    0.0021   19.5179 C   0  0  0  0  0  0  0  0  0  0  0  0
   -1.3747    1.5987   21.7891 C   0  0  0  0  0  0  0  0  0  0  0  0
   -1.1494    2.9294   22.0712 C   0  0  0  0  0  0  0  0  0  0  0  0
   -0.3744    3.2848   23.1519 C   0  0  0  0  0  0  0  0  0  0  0  0
   -0.1592    4.6189   23.4325 C   0  0  0  0  0  0  0  0  0  0  0  0
    0.6181    4.9855   24.5247 C   0  0  0  0  0  0  0  0  0  0  0  0
    1.1742    4.0137   25.3573 C   0  0  0  0  0  0  0  0  0  0  0  0
    0.9576    2.6775   25.0423 C   0  0  0  0  0  0  0  0  0  0  0  0
    0.1980    2.3105   23.9531 C   0  0  0  0  0  0  0  0  0  0  0  0
   -0.0345    0.9769   23.6864 C   0  0  0  0  0  0  0  0  0  0  0  0
   -0.8251    0.6140   22.6108 C   0  0  0  0  0  0  0  0  0  0  0  0
   -3.4890   -0.6122   21.8791 C   0  0  0  0  0  0  0  0  0  0  0  0
   -3.0193   -1.9241   21.9314 C   0  0  0  0  0  0  0  0  0  0  0  0
   -3.2248   -2.6964   23.0699 C   0  0  0  0  0  0  0  0  0  0  0  0
   -3.8615   -2.1685   24.1329 N   0  0  0  0  0  0  0  0  0  0  0  0
   -4.2854   -0.8972   24.1319 C   0  0  0  0  0  0  0  0  0  0  0  0
   -4.0932   -0.0796   23.0316 C   0  0  0  0  0  0  0  0  0  0  0  0
   -3.9217    0.9048   15.9036 C   0  0  0  0  0  0  0  0  0  0  0  0
   -4.5613    0.6459   17.1892 N   0  0  0  0  0  0  0  0  0  0  0  0
   -5.9900    0.3253   17.2369 C   0  0  0  0  0  0  0  0  0  0  0  0
 11 12  2  0  0  0
 11 10  1  0  0  0
 12 13  1  0  0  0
 10  9  2  0  0  0
 13 14  2  0  0  0
  9 14  1  0  0  0
  9  8  1  0  0  0
 14 15  1  0  0  0
  8  7  2  0  0  0
 15 16  2  0  0  0
  7 16  1  0  0  0
  7  4  1  0  0  0
  3  4  2  0  0  0
  3  2  1  0  0  0
  4  5  1  0  0  0
 18 19  2  0  0  0
 18 17  1  0  0  0
  2  1  2  0  0  0
 19 20  1  0  0  0
  5 17  1  0  0  0
  5  6  2  0  0  0
 17 22  2  0  0  0
  1  6  1  0  0  0
  1 24  1  0  0  0
 20 21  2  0  0  0
 23 24  1  0  0  0
 24 25  1  0  0  0
 22 21  1  0  0  0
M  END
> <minimizedAffinity>
-7.70494

$$$$
4F9W_LM4_A_403


 25 28  0  0  0  0  0  0  0  0999 V2000
   -4.0525    0.4241   19.6342 C   0  0  0  0  0  0  0  0  0  0  0  0
   -3.7757   -0.7223   20.2849 N   0  0  0  0  0  0  0  0  0  0  0  0
   -2.9739   -0.7721   21.4145 N   0  0  0  0  0  0  0  0  0  0  0  0
   -2.4050    0.3329   21.9048 C   0  0  0  0  0  0  0  0  0  0  0  0
   -2.6369    1.5752   21.2582 C   0  0  0  0  0  0  0  0  0  0  0  0
   -3.4603    1.6030   20.1108 C   0  0  0  0  0  0  0  0  0  0  0  0
   -1.5438    0.1909   23.0814 C   0  0  0  0  0  0  0  0  0  0  0  0
   -1.9944    0.6919   24.2842 C   0  0  0  0  0  0  0  0  0  0  0  0
   -1.2259    0.5607   25.4186 C   0  0  0  0  0  0  0  0  0  0  0  0
   -1.6868    1.0583   26.6207 C   0  0  0  0  0  0  0  0  0  0  0  0
   -0.9185    0.9252   27.7712 C   0  0  0  0  0  0  0  0  0  0  0  0
    0.3152    0.2749   27.7287 C   0  0  0  0  0  0  0  0  0  0  0  0
    0.7645   -0.2009   26.5026 C   0  0  0  0  0  0  0  0  0  0  0  0
    0.0112   -0.0595   25.3578 C   0  0  0  0  0  0  0  0  0  0  0  0
    0.4630   -0.5767   24.1611 C   0  0  0  0  0  0  0  0  0  0  0  0
   -0.3118   -0.4614   23.0209 C   0  0  0  0  0  0  0  0  0  0  0  0
   -1.9798    2.8667   21.6614 C   0  0  0  0  0  0  0  0  0  0  0  0
   -0.7901    3.2437   21.0395 C   0  0  0  0  0  0  0  0  0  0  0  0
   -0.1979    4.4652   21.3430 C   0  0  0  0  0  0  0  0  0  0  0  0
   -0.7865    5.2953   22.2253 N   0  0  0  0  0  0  0  0  0  0  0  0
   -1.9529    4.9829   22.8066 C   0  0  0  0  0  0  0  0  0  0  0  0
   -2.5933    3.7876   22.5289 C   0  0  0  0  0  0  0  0  0  0  0  0
   -4.2842    0.6439   17.1824 C   0  0  0  0  0  0  0  0  0  0  0  0
   -4.8731    0.3607   18.4870 N   0  0  0  0  0  0  0  0  0  0  0  0
   -6.3106    0.0989   18.5923 C   0  0  0  0  0  0  0  0  0  0  0  0
 11 12  2  0  0  0
 11 10  1  0  0  0
 12 13  1  0  0  0
 10  9  2  0  0  0
 13 14  2  0  0  0
  9 14  1  0  0  0
  9  8  1  0  0  0
 14 15  1  0  0  0
  8  7  2  0  0  0
 15 16  2  0  0  0
  7 16  1  0  0  0
  7  4  1  0  0  0
  3  4  2  0  0  0
  3  2  1  0  0  0
  4  5  1  0  0  0
 18 19  2  0  0  0
 18 17  1  0  0  0
  2  1  2  0  0  0
 19 20  1  0  0  0
  5 17  1  0  0  0
  5  6  2  0  0  0
 17 22  2  0  0  0
  1  6  1  0  0  0
  1 24  1  0  0  0
 20 21  2  0  0  0
 23 24  1  0  0  0
 24 25  1  0  0  0
 22 21  1  0  0  0
M  END
> <minimizedAffinity>
-7.69045

$$$$
4F9W_LM4_A_403


 25 28  0  0  0  0  0  0  0  0999 V2000
   -0.8502    6.3195   20.5923 C   0  0  0  0  0  0  0  0  0  0  0  0
   -0.5719    5.2707   19.7943 N   0  0  0  0  0  0  0  0  0  0  0  0
   -0.7626    3.9548   20.1865 N   0  0  0  0  0  0  0  0  0  0  0  0
   -1.2150    3.6588   21.4082 C   0  0  0  0  0  0  0  0  0  0  0  0
   -1.5110    4.7141   22.3105 C   0  0  0  0  0  0  0  0  0  0  0  0
   -1.3126    6.0474   21.8883 C   0  0  0  0  0  0  0  0  0  0  0  0
   -1.3566    2.2431   21.7575 C   0  0  0  0  0  0  0  0  0  0  0  0
   -2.1533    1.4505   20.9587 C   0  0  0  0  0  0  0  0  0  0  0  0
   -2.2966    0.1105   21.2390 C   0  0  0  0  0  0  0  0  0  0  0  0
   -3.0899   -0.6783   20.4307 C   0  0  0  0  0  0  0  0  0  0  0  0
   -3.2355   -2.0331   20.7046 C   0  0  0  0  0  0  0  0  0  0  0  0
   -2.5709   -2.6133   21.7855 C   0  0  0  0  0  0  0  0  0  0  0  0
   -1.7929   -1.7937   22.5944 C   0  0  0  0  0  0  0  0  0  0  0  0
   -1.6564   -0.4479   22.3332 C   0  0  0  0  0  0  0  0  0  0  0  0
   -0.8457    0.3352   23.1289 C   0  0  0  0  0  0  0  0  0  0  0  0
   -0.6857    1.6792   22.8431 C   0  0  0  0  0  0  0  0  0  0  0  0
   -1.9370    4.5035   23.7375 C   0  0  0  0  0  0  0  0  0  0  0  0
   -3.2423    4.0891   23.9999 C   0  0  0  0  0  0  0  0  0  0  0  0
   -3.6425    3.8200   25.3047 C   0  0  0  0  0  0  0  0  0  0  0  0
   -2.7605    3.9403   26.3153 N   0  0  0  0  0  0  0  0  0  0  0  0
   -1.4870    4.2928   26.0921 C   0  0  0  0  0  0  0  0  0  0  0  0
   -1.0315    4.5569   24.8118 C   0  0  0  0  0  0  0  0  0  0  0  0
   -0.7455    8.7556   21.0020 C   0  0  0  0  0  0  0  0  0  0  0  0
   -0.6090    7.6195   20.0968 N   0  0  0  0  0  0  0  0  0  0  0  0
   -0.3076    7.8515   18.6821 C   0  0  0  0  0  0  0  0  0  0  0  0
 11 12  2  0  0  0
 11 10  1  0  0  0
 12 13  1  0  0  0
 10  9  2  0  0  0
 13 14  2  0  0  0
  9 14  1  0  0  0
  9  8  1  0  0  0
 14 15  1  0  0  0
  8  7  2  0  0  0
 15 16  2  0  0  0
  7 16  1  0  0  0
  7  4  1  0  0  0
  3  4  2  0  0  0
  3  2  1  0  0  0
  4  5  1  0  0  0
 18 19  2  0  0  0
 18 17  1  0  0  0
  2  1  2  0  0  0
 19 20  1  0  0  0
  5 17  1  0  0  0
  5  6  2  0  0  0
 17 22  2  0  0  0
  1  6  1  0  0  0
  1 24  1  0  0  0
 20 21  2  0  0  0
 23 24  1  0  0  0
 24 25  1  0  0  0
 22 21  1  0  0  0
M  END
> <minimizedAffinity>
-7.66587

$$$$
