4V24_GYR_A_1450


 34 37  0  0  0  0  0  0  0  0999 V2000
  -26.2245   12.9252  -17.1098 C   0  0  0  0  0  0  0  0  0  0  0  0
  -26.0500   12.5294  -18.4290 C   0  0  0  0  0  0  0  0  0  0  0  0
  -25.7233   11.2247  -18.7563 C   0  0  0  0  0  0  0  0  0  0  0  0
  -25.4459   10.8461  -20.1905 C   0  0  0  0  0  0  0  0  0  0  0  0
  -25.5872   10.2886  -17.7287 C   0  0  0  0  0  0  0  0  0  0  0  0
  -25.7685   10.6725  -16.4051 C   0  0  0  0  0  0  0  0  0  0  0  0
  -26.1174   11.9802  -16.0929 C   0  0  0  0  0  0  0  0  0  0  0  0
  -26.2823   14.3929  -16.7914 C   0  0  0  0  0  0  0  0  0  0  0  0
  -27.8194   16.5085  -16.7716 O   0  0  0  0  0  0  0  0  0  0  0  0
  -27.9418   15.0665  -16.7448 S   0  0  0  0  0  0  0  0  0  0  0  0
  -28.7390   14.4006  -17.7385 O   0  0  0  0  0  0  0  0  0  0  0  0
  -28.5524   14.6160  -15.1476 C   0  0  0  0  0  0  0  0  0  0  0  0
  -29.4137   13.5413  -15.0305 C   0  0  0  0  0  0  0  0  0  0  0  0
  -29.8339   13.1517  -13.7726 C   0  0  0  0  0  0  0  0  0  0  0  0
  -29.4232   13.8330  -12.6629 C   0  0  0  0  0  0  0  0  0  0  0  0
  -28.5630   14.9035  -12.7853 C   0  0  0  0  0  0  0  0  0  0  0  0
  -28.1155   15.3024  -14.0295 C   0  0  0  0  0  0  0  0  0  0  0  0
  -25.5546    9.8678  -15.2919 O   0  0  0  0  0  0  0  0  0  0  0  0
  -25.1938    8.4741  -15.4881 C   0  0  0  0  0  0  0  0  0  0  0  0
  -24.7917    7.8057  -14.1936 C   0  0  0  0  0  0  0  0  0  0  0  0
  -24.4655    8.5611  -13.0829 C   0  0  0  0  0  0  0  0  0  0  0  0
  -23.9625    7.9674  -11.9322 C   0  0  0  0  0  0  0  0  0  0  0  0
  -23.7788    6.5949  -11.8528 C   0  0  0  0  0  0  0  0  0  0  0  0
  -24.1427    5.8346  -12.9504 C   0  0  0  0  0  0  0  0  0  0  0  0
  -24.6406    6.4291  -14.1030 C   0  0  0  0  0  0  0  0  0  0  0  0
  -23.1989    5.9395  -10.6085 C   0  0  0  0  0  0  0  0  0  0  0  0
  -24.2093    5.3245   -9.6132 N   0  0  0  0  0  0  0  0  0  0  0  0
  -25.2436    6.2393   -8.9300 C   0  0  0  0  0  0  0  0  0  0  0  0
  -25.1024    6.1355   -7.4105 C   0  0  0  0  0  0  0  0  0  0  0  0
  -23.7404    5.5667   -7.2418 C   0  0  0  0  0  0  0  0  0  0  0  0
  -23.5925    4.6200   -8.4229 C   0  0  0  0  0  0  0  0  0  0  0  0
  -26.6639    5.9504   -9.3791 C   0  0  0  0  0  0  0  0  0  0  0  0
  -27.1367    4.6883   -8.9211 O   0  0  0  0  0  0  0  0  0  0  0  0
  -26.5804    3.9827   -9.2866 H   0  0  0  0  0  0  0  0  0  0  0  0
  9 10  2  0  0  0
 10 11  2  0  0  0
 10 12  1  0  0  0
 10  8  1  0  0  0
 12 13  1  0  0  0
 12 17  2  0  0  0
 13 14  2  0  0  0
 14 15  1  0  0  0
 15 16  2  0  0  0
 16 17  1  0  0  0
  8  1  1  0  0  0
  1  2  1  0  0  0
  1  7  2  0  0  0
  2  3  2  0  0  0
  3  4  1  0  0  0
  3  5  1  0  0  0
  5  6  2  0  0  0
  6  7  1  0  0  0
  6 18  1  0  0  0
 18 19  1  0  0  0
 19 20  1  0  0  0
 20 21  1  0  0  0
 20 25  2  0  0  0
 21 22  2  0  0  0
 22 23  1  0  0  0
 23 24  2  0  0  0
 23 26  1  0  0  0
 24 25  1  0  0  0
 26 27  1  0  0  0
 27 28  1  0  0  0
 27 31  1  0  0  0
 28 32  1  0  0  0
 28 29  1  0  0  0
 32 33  1  0  0  0
 29 30  1  0  0  0
 30 31  1  0  0  0
 33 34  1  0  0  0
M  END
> <minimizedAffinity>
-12.50426

$$$$
4V24_GYR_A_1450


 34 37  0  0  0  0  0  0  0  0999 V2000
  -26.2385   12.9581  -17.3720 C   0  0  0  0  0  0  0  0  0  0  0  0
  -26.1572   12.5621  -18.7002 C   0  0  0  0  0  0  0  0  0  0  0  0
  -25.7736   11.2792  -19.0510 C   0  0  0  0  0  0  0  0  0  0  0  0
  -25.6016   10.9061  -20.5031 C   0  0  0  0  0  0  0  0  0  0  0  0
  -25.4822   10.3644  -18.0366 C   0  0  0  0  0  0  0  0  0  0  0  0
  -25.5689   10.7481  -16.7034 C   0  0  0  0  0  0  0  0  0  0  0  0
  -25.9761   12.0324  -16.3656 C   0  0  0  0  0  0  0  0  0  0  0  0
  -26.3668   14.4216  -17.0551 C   0  0  0  0  0  0  0  0  0  0  0  0
  -28.0235   16.4421  -16.9473 O   0  0  0  0  0  0  0  0  0  0  0  0
  -28.0587   14.9953  -16.9206 S   0  0  0  0  0  0  0  0  0  0  0  0
  -28.8650   14.2847  -17.8752 O   0  0  0  0  0  0  0  0  0  0  0  0
  -28.5587   14.5072  -15.2962 C   0  0  0  0  0  0  0  0  0  0  0  0
  -28.2061   15.2926  -14.2148 C   0  0  0  0  0  0  0  0  0  0  0  0
  -28.6570   14.9429  -12.9558 C   0  0  0  0  0  0  0  0  0  0  0  0
  -29.4201   13.8246  -12.7789 C   0  0  0  0  0  0  0  0  0  0  0  0
  -29.7699   13.0454  -13.8612 C   0  0  0  0  0  0  0  0  0  0  0  0
  -29.3459   13.3824  -15.1318 C   0  0  0  0  0  0  0  0  0  0  0  0
  -25.2015    9.9706  -15.6113 O   0  0  0  0  0  0  0  0  0  0  0  0
  -25.1846    8.5243  -15.7491 C   0  0  0  0  0  0  0  0  0  0  0  0
  -24.8359    7.8356  -14.4497 C   0  0  0  0  0  0  0  0  0  0  0  0
  -24.3425    8.5588  -13.3800 C   0  0  0  0  0  0  0  0  0  0  0  0
  -23.8888    7.9238  -12.2309 C   0  0  0  0  0  0  0  0  0  0  0  0
  -23.9236    6.5423  -12.1117 C   0  0  0  0  0  0  0  0  0  0  0  0
  -24.4543    5.8207  -13.1666 C   0  0  0  0  0  0  0  0  0  0  0  0
  -24.9029    6.4557  -14.3178 C   0  0  0  0  0  0  0  0  0  0  0  0
  -23.3996    5.8365  -10.8702 C   0  0  0  0  0  0  0  0  0  0  0  0
  -24.1067    6.1644   -9.5351 N   0  0  0  0  0  0  0  0  0  0  0  0
  -24.3573    5.0335   -8.5193 C   0  0  0  0  0  0  0  0  0  0  0  0
  -25.8527    4.9348   -8.2135 C   0  0  0  0  0  0  0  0  0  0  0  0
  -26.4738    5.6463   -9.3603 C   0  0  0  0  0  0  0  0  0  0  0  0
  -25.4906    6.7644   -9.6705 C   0  0  0  0  0  0  0  0  0  0  0  0
  -23.5385    5.1962   -7.2524 C   0  0  0  0  0  0  0  0  0  0  0  0
  -22.3481    5.9478   -7.4628 O   0  0  0  0  0  0  0  0  0  0  0  0
  -21.7830    5.4861   -8.1019 H   0  0  0  0  0  0  0  0  0  0  0  0
  9 10  2  0  0  0
 10 11  2  0  0  0
 10 12  1  0  0  0
 10  8  1  0  0  0
 12 13  1  0  0  0
 12 17  2  0  0  0
 13 14  2  0  0  0
 14 15  1  0  0  0
 15 16  2  0  0  0
 16 17  1  0  0  0
  8  1  1  0  0  0
  1  2  1  0  0  0
  1  7  2  0  0  0
  2  3  2  0  0  0
  3  4  1  0  0  0
  3  5  1  0  0  0
  5  6  2  0  0  0
  6  7  1  0  0  0
  6 18  1  0  0  0
 18 19  1  0  0  0
 19 20  1  0  0  0
 20 21  1  0  0  0
 20 25  2  0  0  0
 21 22  2  0  0  0
 22 23  1  0  0  0
 23 24  2  0  0  0
 23 26  1  0  0  0
 24 25  1  0  0  0
 26 27  1  0  0  0
 27 28  1  0  0  0
 27 31  1  0  0  0
 28 32  1  0  0  0
 28 29  1  0  0  0
 32 33  1  0  0  0
 29 30  1  0  0  0
 30 31  1  0  0  0
 33 34  1  0  0  0
M  END
> <minimizedAffinity>
-11.86060

$$$$
4V24_GYR_A_1450


 34 37  0  0  0  0  0  0  0  0999 V2000
  -23.7589    5.4587   -9.0285 C   0  0  0  0  0  0  0  0  0  0  0  0
  -25.1224    5.5585   -8.7867 C   0  0  0  0  0  0  0  0  0  0  0  0
  -25.9733    6.1800   -9.6844 C   0  0  0  0  0  0  0  0  0  0  0  0
  -27.4341    6.3581   -9.3506 C   0  0  0  0  0  0  0  0  0  0  0  0
  -25.4399    6.6983  -10.8666 C   0  0  0  0  0  0  0  0  0  0  0  0
  -24.0774    6.5959  -11.1224 C   0  0  0  0  0  0  0  0  0  0  0  0
  -23.2388    5.9505  -10.2228 C   0  0  0  0  0  0  0  0  0  0  0  0
  -22.8484    5.0484   -7.9054 C   0  0  0  0  0  0  0  0  0  0  0  0
  -24.1930    3.7100   -6.1055 O   0  0  0  0  0  0  0  0  0  0  0  0
  -23.2532    3.4619   -7.1780 S   0  0  0  0  0  0  0  0  0  0  0  0
  -23.5988    2.5456   -8.2303 O   0  0  0  0  0  0  0  0  0  0  0  0
  -21.7399    2.9191   -6.4416 C   0  0  0  0  0  0  0  0  0  0  0  0
  -21.6849    1.6718   -5.8486 C   0  0  0  0  0  0  0  0  0  0  0  0
  -20.4818    1.2251   -5.3349 C   0  0  0  0  0  0  0  0  0  0  0  0
  -19.3689    2.0141   -5.3910 C   0  0  0  0  0  0  0  0  0  0  0  0
  -19.4290    3.2570   -5.9847 C   0  0  0  0  0  0  0  0  0  0  0  0
  -20.6151    3.7196   -6.5202 C   0  0  0  0  0  0  0  0  0  0  0  0
  -23.4112    7.1641  -12.2021 O   0  0  0  0  0  0  0  0  0  0  0  0
  -23.6950    6.6775  -13.5413 C   0  0  0  0  0  0  0  0  0  0  0  0
  -24.4482    7.6956  -14.3661 C   0  0  0  0  0  0  0  0  0  0  0  0
  -24.9112    7.3755  -15.6285 C   0  0  0  0  0  0  0  0  0  0  0  0
  -25.4816    8.3388  -16.4508 C   0  0  0  0  0  0  0  0  0  0  0  0
  -25.6159    9.6540  -16.0311 C   0  0  0  0  0  0  0  0  0  0  0  0
  -25.1887    9.9660  -14.7523 C   0  0  0  0  0  0  0  0  0  0  0  0
  -24.6134    9.0035  -13.9322 C   0  0  0  0  0  0  0  0  0  0  0  0
  -26.2102   10.7224  -16.9365 C   0  0  0  0  0  0  0  0  0  0  0  0
  -26.5270   12.0874  -16.2837 N   0  0  0  0  0  0  0  0  0  0  0  0
  -27.9602   12.6463  -16.3671 C   0  0  0  0  0  0  0  0  0  0  0  0
  -27.9413   14.0212  -17.0371 C   0  0  0  0  0  0  0  0  0  0  0  0
  -26.6311   14.0312  -17.7373 C   0  0  0  0  0  0  0  0  0  0  0  0
  -25.7144   13.2541  -16.8052 C   0  0  0  0  0  0  0  0  0  0  0  0
  -28.6467   12.6942  -15.0148 C   0  0  0  0  0  0  0  0  0  0  0  0
  -27.7422   12.4920  -13.9345 O   0  0  0  0  0  0  0  0  0  0  0  0
  -27.3388   11.6132  -14.0106 H   0  0  0  0  0  0  0  0  0  0  0  0
  9 10  2  0  0  0
 10 11  2  0  0  0
 10 12  1  0  0  0
 10  8  1  0  0  0
 12 13  1  0  0  0
 12 17  2  0  0  0
 13 14  2  0  0  0
 14 15  1  0  0  0
 15 16  2  0  0  0
 16 17  1  0  0  0
  8  1  1  0  0  0
  1  2  1  0  0  0
  1  7  2  0  0  0
  2  3  2  0  0  0
  3  4  1  0  0  0
  3  5  1  0  0  0
  5  6  2  0  0  0
  6  7  1  0  0  0
  6 18  1  0  0  0
 18 19  1  0  0  0
 19 20  1  0  0  0
 20 21  1  0  0  0
 20 25  2  0  0  0
 21 22  2  0  0  0
 22 23  1  0  0  0
 23 24  2  0  0  0
 23 26  1  0  0  0
 24 25  1  0  0  0
 26 27  1  0  0  0
 27 28  1  0  0  0
 27 31  1  0  0  0
 28 32  1  0  0  0
 28 29  1  0  0  0
 32 33  1  0  0  0
 29 30  1  0  0  0
 30 31  1  0  0  0
 33 34  1  0  0  0
M  END
> <minimizedAffinity>
-10.88980

$$$$
4V24_GYR_A_1450


 34 37  0  0  0  0  0  0  0  0999 V2000
  -23.8201    5.2394   -9.0774 C   0  0  0  0  0  0  0  0  0  0  0  0
  -25.1610    5.4401   -8.7786 C   0  0  0  0  0  0  0  0  0  0  0  0
  -26.0295    6.0091   -9.6940 C   0  0  0  0  0  0  0  0  0  0  0  0
  -27.4583    6.3027   -9.3073 C   0  0  0  0  0  0  0  0  0  0  0  0
  -25.5390    6.3686  -10.9514 C   0  0  0  0  0  0  0  0  0  0  0  0
  -24.2001    6.1640  -11.2638 C   0  0  0  0  0  0  0  0  0  0  0  0
  -23.3448    5.5720  -10.3432 C   0  0  0  0  0  0  0  0  0  0  0  0
  -22.8688    4.9006   -7.9643 C   0  0  0  0  0  0  0  0  0  0  0  0
  -24.0872    3.6060   -6.0464 O   0  0  0  0  0  0  0  0  0  0  0  0
  -23.2081    3.3341   -7.1636 S   0  0  0  0  0  0  0  0  0  0  0  0
  -23.6014    2.3795   -8.1637 O   0  0  0  0  0  0  0  0  0  0  0  0
  -21.6469    2.8345   -6.5003 C   0  0  0  0  0  0  0  0  0  0  0  0
  -20.5847    3.7184   -6.5298 C   0  0  0  0  0  0  0  0  0  0  0  0
  -19.3864    3.3476   -5.9491 C   0  0  0  0  0  0  0  0  0  0  0  0
  -19.2462    2.1167   -5.3751 C   0  0  0  0  0  0  0  0  0  0  0  0
  -20.3093    1.2393   -5.3473 C   0  0  0  0  0  0  0  0  0  0  0  0
  -21.5221    1.5922   -5.9060 C   0  0  0  0  0  0  0  0  0  0  0  0
  -23.5687    6.5765  -12.4315 O   0  0  0  0  0  0  0  0  0  0  0  0
  -24.2414    6.3797  -13.7042 C   0  0  0  0  0  0  0  0  0  0  0  0
  -24.7206    7.6838  -14.2991 C   0  0  0  0  0  0  0  0  0  0  0  0
  -25.0048    7.7796  -15.6484 C   0  0  0  0  0  0  0  0  0  0  0  0
  -25.3120    9.0015  -16.2334 C   0  0  0  0  0  0  0  0  0  0  0  0
  -25.3540   10.1673  -15.4831 C   0  0  0  0  0  0  0  0  0  0  0  0
  -25.1085   10.0652  -14.1250 C   0  0  0  0  0  0  0  0  0  0  0  0
  -24.7960    8.8439  -13.5413 C   0  0  0  0  0  0  0  0  0  0  0  0
  -25.6582   11.5146  -16.1208 C   0  0  0  0  0  0  0  0  0  0  0  0
  -26.5059   11.4947  -17.4135 N   0  0  0  0  0  0  0  0  0  0  0  0
  -25.8876   12.0125  -18.7262 C   0  0  0  0  0  0  0  0  0  0  0  0
  -26.7452   13.1465  -19.2901 C   0  0  0  0  0  0  0  0  0  0  0  0
  -27.5396   13.5795  -18.1117 C   0  0  0  0  0  0  0  0  0  0  0  0
  -27.7944   12.2879  -17.3502 C   0  0  0  0  0  0  0  0  0  0  0  0
  -25.6799   10.9096  -19.7473 C   0  0  0  0  0  0  0  0  0  0  0  0
  -25.0654   11.3790  -20.9424 O   0  0  0  0  0  0  0  0  0  0  0  0
  -25.6368   12.0416  -21.3611 H   0  0  0  0  0  0  0  0  0  0  0  0
  9 10  2  0  0  0
 10 11  2  0  0  0
 10 12  1  0  0  0
 10  8  1  0  0  0
 12 13  1  0  0  0
 12 17  2  0  0  0
 13 14  2  0  0  0
 14 15  1  0  0  0
 15 16  2  0  0  0
 16 17  1  0  0  0
  8  1  1  0  0  0
  1  2  1  0  0  0
  1  7  2  0  0  0
  2  3  2  0  0  0
  3  4  1  0  0  0
  3  5  1  0  0  0
  5  6  2  0  0  0
  6  7  1  0  0  0
  6 18  1  0  0  0
 18 19  1  0  0  0
 19 20  1  0  0  0
 20 21  1  0  0  0
 20 25  2  0  0  0
 21 22  2  0  0  0
 22 23  1  0  0  0
 23 24  2  0  0  0
 23 26  1  0  0  0
 24 25  1  0  0  0
 26 27  1  0  0  0
 27 28  1  0  0  0
 27 31  1  0  0  0
 28 32  1  0  0  0
 28 29  1  0  0  0
 32 33  1  0  0  0
 29 30  1  0  0  0
 30 31  1  0  0  0
 33 34  1  0  0  0
M  END
> <minimizedAffinity>
-10.87188

$$$$
4V24_GYR_A_1450


 34 37  0  0  0  0  0  0  0  0999 V2000
  -26.5181   10.3498  -16.8715 C   0  0  0  0  0  0  0  0  0  0  0  0
  -27.0128   11.2415  -15.9294 C   0  0  0  0  0  0  0  0  0  0  0  0
  -26.4460   11.3544  -14.6716 C   0  0  0  0  0  0  0  0  0  0  0  0
  -27.0641   12.2622  -13.6365 C   0  0  0  0  0  0  0  0  0  0  0  0
  -25.3392   10.5615  -14.3602 C   0  0  0  0  0  0  0  0  0  0  0  0
  -24.8305    9.6718  -15.2993 C   0  0  0  0  0  0  0  0  0  0  0  0
  -25.3959    9.5847  -16.5650 C   0  0  0  0  0  0  0  0  0  0  0  0
  -27.3385   10.0540  -18.0954 C   0  0  0  0  0  0  0  0  0  0  0  0
  -25.7309   11.2599  -19.7688 O   0  0  0  0  0  0  0  0  0  0  0  0
  -27.1351   11.2455  -19.4179 S   0  0  0  0  0  0  0  0  0  0  0  0
  -28.1200   10.9835  -20.4316 O   0  0  0  0  0  0  0  0  0  0  0  0
  -27.5096   12.8017  -18.6665 C   0  0  0  0  0  0  0  0  0  0  0  0
  -28.8304   13.1555  -18.4644 C   0  0  0  0  0  0  0  0  0  0  0  0
  -29.1158   14.3421  -17.8154 C   0  0  0  0  0  0  0  0  0  0  0  0
  -28.1082   15.1648  -17.4007 C   0  0  0  0  0  0  0  0  0  0  0  0
  -26.7924   14.8066  -17.6037 C   0  0  0  0  0  0  0  0  0  0  0  0
  -26.4805   13.6183  -18.2350 C   0  0  0  0  0  0  0  0  0  0  0  0
  -23.8098    8.7548  -15.0764 O   0  0  0  0  0  0  0  0  0  0  0  0
  -24.1447    7.3486  -14.9303 C   0  0  0  0  0  0  0  0  0  0  0  0
  -23.7750    6.8173  -13.5646 C   0  0  0  0  0  0  0  0  0  0  0  0
  -24.3465    5.6544  -13.0833 C   0  0  0  0  0  0  0  0  0  0  0  0
  -24.1227    5.2293  -11.7799 C   0  0  0  0  0  0  0  0  0  0  0  0
  -23.3103    5.9511  -10.9179 C   0  0  0  0  0  0  0  0  0  0  0  0
  -22.7063    7.0940  -11.4120 C   0  0  0  0  0  0  0  0  0  0  0  0
  -22.9347    7.5217  -12.7138 C   0  0  0  0  0  0  0  0  0  0  0  0
  -23.0849    5.5103   -9.4794 C   0  0  0  0  0  0  0  0  0  0  0  0
  -24.2472    4.7549   -8.7950 N   0  0  0  0  0  0  0  0  0  0  0  0
  -25.3866    5.5604   -8.1421 C   0  0  0  0  0  0  0  0  0  0  0  0
  -25.5052    5.1844   -6.6643 C   0  0  0  0  0  0  0  0  0  0  0  0
  -24.1892    4.5590   -6.3742 C   0  0  0  0  0  0  0  0  0  0  0  0
  -23.8386    3.8340   -7.6643 C   0  0  0  0  0  0  0  0  0  0  0  0
  -26.7085    5.3935   -8.8680 C   0  0  0  0  0  0  0  0  0  0  0  0
  -27.6962    4.7550   -8.0662 O   0  0  0  0  0  0  0  0  0  0  0  0
  -27.3943    3.8640   -7.8298 H   0  0  0  0  0  0  0  0  0  0  0  0
  9 10  2  0  0  0
 10 11  2  0  0  0
 10 12  1  0  0  0
 10  8  1  0  0  0
 12 13  1  0  0  0
 12 17  2  0  0  0
 13 14  2  0  0  0
 14 15  1  0  0  0
 15 16  2  0  0  0
 16 17  1  0  0  0
  8  1  1  0  0  0
  1  2  1  0  0  0
  1  7  2  0  0  0
  2  3  2  0  0  0
  3  4  1  0  0  0
  3  5  1  0  0  0
  5  6  2  0  0  0
  6  7  1  0  0  0
  6 18  1  0  0  0
 18 19  1  0  0  0
 19 20  1  0  0  0
 20 21  1  0  0  0
 20 25  2  0  0  0
 21 22  2  0  0  0
 22 23  1  0  0  0
 23 24  2  0  0  0
 23 26  1  0  0  0
 24 25  1  0  0  0
 26 27  1  0  0  0
 27 28  1  0  0  0
 27 31  1  0  0  0
 28 32  1  0  0  0
 28 29  1  0  0  0
 32 33  1  0  0  0
 29 30  1  0  0  0
 30 31  1  0  0  0
 33 34  1  0  0  0
M  END
> <minimizedAffinity>
-9.97851

$$$$
4V24_GYR_A_1450


 34 37  0  0  0  0  0  0  0  0999 V2000
  -26.6749   11.5849  -16.9238 C   0  0  0  0  0  0  0  0  0  0  0  0
  -26.9537   12.0501  -15.6457 C   0  0  0  0  0  0  0  0  0  0  0  0
  -26.4366   11.4308  -14.5210 C   0  0  0  0  0  0  0  0  0  0  0  0
  -26.8340   11.8999  -13.1428 C   0  0  0  0  0  0  0  0  0  0  0  0
  -25.6006   10.3244  -14.6881 C   0  0  0  0  0  0  0  0  0  0  0  0
  -25.3081    9.8560  -15.9638 C   0  0  0  0  0  0  0  0  0  0  0  0
  -25.8165   10.5005  -17.0842 C   0  0  0  0  0  0  0  0  0  0  0  0
  -27.4870   12.0992  -18.0791 C   0  0  0  0  0  0  0  0  0  0  0  0
  -26.3551   14.4559  -18.0157 O   0  0  0  0  0  0  0  0  0  0  0  0
  -27.6803   13.8803  -18.1019 S   0  0  0  0  0  0  0  0  0  0  0  0
  -28.5425   14.2376  -19.1952 O   0  0  0  0  0  0  0  0  0  0  0  0
  -28.5177   14.2491  -16.5888 C   0  0  0  0  0  0  0  0  0  0  0  0
  -29.6535   13.5367  -16.2526 C   0  0  0  0  0  0  0  0  0  0  0  0
  -30.2649   13.7822  -15.0374 C   0  0  0  0  0  0  0  0  0  0  0  0
  -29.7681   14.7315  -14.1911 C   0  0  0  0  0  0  0  0  0  0  0  0
  -28.6341   15.4384  -14.5308 C   0  0  0  0  0  0  0  0  0  0  0  0
  -27.9951   15.2002  -15.7319 C   0  0  0  0  0  0  0  0  0  0  0  0
  -24.5844    8.7061  -16.2581 O   0  0  0  0  0  0  0  0  0  0  0  0
  -25.1059    7.4174  -15.8360 C   0  0  0  0  0  0  0  0  0  0  0  0
  -24.4913    6.9565  -14.5345 C   0  0  0  0  0  0  0  0  0  0  0  0
  -24.9999    5.8591  -13.8655 C   0  0  0  0  0  0  0  0  0  0  0  0
  -24.5364    5.5077  -12.6040 C   0  0  0  0  0  0  0  0  0  0  0  0
  -23.5401    6.2394  -11.9747 C   0  0  0  0  0  0  0  0  0  0  0  0
  -23.0031    7.3143  -12.6612 C   0  0  0  0  0  0  0  0  0  0  0  0
  -23.4706    7.6686  -13.9204 C   0  0  0  0  0  0  0  0  0  0  0  0
  -23.0487    5.8811  -10.5803 C   0  0  0  0  0  0  0  0  0  0  0  0
  -24.0869    5.2620   -9.6165 N   0  0  0  0  0  0  0  0  0  0  0  0
  -25.1522    6.1708   -8.9742 C   0  0  0  0  0  0  0  0  0  0  0  0
  -25.0620    6.0766   -7.4502 C   0  0  0  0  0  0  0  0  0  0  0  0
  -23.7014    5.5215   -7.2319 C   0  0  0  0  0  0  0  0  0  0  0  0
  -23.5046    4.5699   -8.4019 C   0  0  0  0  0  0  0  0  0  0  0  0
  -26.5536    5.8662   -9.4698 C   0  0  0  0  0  0  0  0  0  0  0  0
  -27.1657    4.7967   -8.7573 O   0  0  0  0  0  0  0  0  0  0  0  0
  -26.6454    3.9872   -8.8794 H   0  0  0  0  0  0  0  0  0  0  0  0
  9 10  2  0  0  0
 10 11  2  0  0  0
 10 12  1  0  0  0
 10  8  1  0  0  0
 12 13  1  0  0  0
 12 17  2  0  0  0
 13 14  2  0  0  0
 14 15  1  0  0  0
 15 16  2  0  0  0
 16 17  1  0  0  0
  8  1  1  0  0  0
  1  2  1  0  0  0
  1  7  2  0  0  0
  2  3  2  0  0  0
  3  4  1  0  0  0
  3  5  1  0  0  0
  5  6  2  0  0  0
  6  7  1  0  0  0
  6 18  1  0  0  0
 18 19  1  0  0  0
 19 20  1  0  0  0
 20 21  1  0  0  0
 20 25  2  0  0  0
 21 22  2  0  0  0
 22 23  1  0  0  0
 23 24  2  0  0  0
 23 26  1  0  0  0
 24 25  1  0  0  0
 26 27  1  0  0  0
 27 28  1  0  0  0
 27 31  1  0  0  0
 28 32  1  0  0  0
 28 29  1  0  0  0
 32 33  1  0  0  0
 29 30  1  0  0  0
 30 31  1  0  0  0
 33 34  1  0  0  0
M  END
> <minimizedAffinity>
-9.84822

$$$$
4V24_GYR_A_1450


 34 37  0  0  0  0  0  0  0  0999 V2000
  -24.7020    6.0850  -10.2581 C   0  0  0  0  0  0  0  0  0  0  0  0
  -23.3918    6.4300   -9.9547 C   0  0  0  0  0  0  0  0  0  0  0  0
  -22.5381    6.9454  -10.9147 C   0  0  0  0  0  0  0  0  0  0  0  0
  -21.0928    7.2210  -10.5793 C   0  0  0  0  0  0  0  0  0  0  0  0
  -23.0220    7.1363  -12.2109 C   0  0  0  0  0  0  0  0  0  0  0  0
  -24.3347    6.8023  -12.5229 C   0  0  0  0  0  0  0  0  0  0  0  0
  -25.1867    6.3064  -11.5444 C   0  0  0  0  0  0  0  0  0  0  0  0
  -25.4855    5.2641   -9.2727 C   0  0  0  0  0  0  0  0  0  0  0  0
  -24.9014    7.1202   -7.5256 O   0  0  0  0  0  0  0  0  0  0  0  0
  -25.1952    5.7033   -7.5602 S   0  0  0  0  0  0  0  0  0  0  0  0
  -26.2680    5.1785   -6.7602 O   0  0  0  0  0  0  0  0  0  0  0  0
  -23.7101    4.8436   -7.1335 C   0  0  0  0  0  0  0  0  0  0  0  0
  -23.7865    3.5313   -6.7061 C   0  0  0  0  0  0  0  0  0  0  0  0
  -22.6179    2.8430   -6.4391 C   0  0  0  0  0  0  0  0  0  0  0  0
  -21.4060    3.4575   -6.5726 C   0  0  0  0  0  0  0  0  0  0  0  0
  -21.3353    4.7662   -7.0004 C   0  0  0  0  0  0  0  0  0  0  0  0
  -22.4876    5.4707   -7.2896 C   0  0  0  0  0  0  0  0  0  0  0  0
  -24.9003    6.8407  -13.7923 O   0  0  0  0  0  0  0  0  0  0  0  0
  -24.2023    7.5448  -14.8543 C   0  0  0  0  0  0  0  0  0  0  0  0
  -24.9228    8.8083  -15.2650 C   0  0  0  0  0  0  0  0  0  0  0  0
  -25.1686    9.8094  -14.3442 C   0  0  0  0  0  0  0  0  0  0  0  0
  -25.9481   10.9117  -14.6715 C   0  0  0  0  0  0  0  0  0  0  0  0
  -26.4994   11.0520  -15.9365 C   0  0  0  0  0  0  0  0  0  0  0  0
  -26.2205   10.0695  -16.8703 C   0  0  0  0  0  0  0  0  0  0  0  0
  -25.4454    8.9647  -16.5411 C   0  0  0  0  0  0  0  0  0  0  0  0
  -27.3804   12.2396  -16.2942 C   0  0  0  0  0  0  0  0  0  0  0  0
  -27.0597   13.5782  -15.5906 N   0  0  0  0  0  0  0  0  0  0  0  0
  -28.1758   14.3093  -14.8204 C   0  0  0  0  0  0  0  0  0  0  0  0
  -28.3556   15.7196  -15.3845 C   0  0  0  0  0  0  0  0  0  0  0  0
  -27.7136   15.6268  -16.7211 C   0  0  0  0  0  0  0  0  0  0  0  0
  -26.5474   14.6761  -16.4994 C   0  0  0  0  0  0  0  0  0  0  0  0
  -27.9305   14.3345  -13.3233 C   0  0  0  0  0  0  0  0  0  0  0  0
  -28.0150   15.6462  -12.7769 O   0  0  0  0  0  0  0  0  0  0  0  0
  -27.3351   16.2087  -13.1797 H   0  0  0  0  0  0  0  0  0  0  0  0
  9 10  2  0  0  0
 10 11  2  0  0  0
 10 12  1  0  0  0
 10  8  1  0  0  0
 12 13  1  0  0  0
 12 17  2  0  0  0
 13 14  2  0  0  0
 14 15  1  0  0  0
 15 16  2  0  0  0
 16 17  1  0  0  0
  8  1  1  0  0  0
  1  2  1  0  0  0
  1  7  2  0  0  0
  2  3  2  0  0  0
  3  4  1  0  0  0
  3  5  1  0  0  0
  5  6  2  0  0  0
  6  7  1  0  0  0
  6 18  1  0  0  0
 18 19  1  0  0  0
 19 20  1  0  0  0
 20 21  1  0  0  0
 20 25  2  0  0  0
 21 22  2  0  0  0
 22 23  1  0  0  0
 23 24  2  0  0  0
 23 26  1  0  0  0
 24 25  1  0  0  0
 26 27  1  0  0  0
 27 28  1  0  0  0
 27 31  1  0  0  0
 28 32  1  0  0  0
 28 29  1  0  0  0
 32 33  1  0  0  0
 29 30  1  0  0  0
 30 31  1  0  0  0
 33 34  1  0  0  0
M  END
> <minimizedAffinity>
-9.81214

$$$$
