3L0V_724_A_485


 24 26  0  0  0  0  0  0  0  0999 V2000
    6.0546    8.5940   23.8582 N   0  0  0  0  0  0  0  0  0  0  0  0
    7.4654    8.4013   23.9768 N   0  0  0  0  0  0  0  0  0  0  0  0
    5.3765    8.7662   25.0258 C   0  0  0  0  0  0  0  0  0  0  0  0
    6.4252    8.7307   26.0329 C   0  0  0  0  0  0  0  0  0  0  0  0
    7.6506    8.5064   25.3517 C   0  0  0  0  0  0  0  0  0  0  0  0
    8.8576    8.4103   26.0353 C   0  0  0  0  0  0  0  0  0  0  0  0
    8.7920    8.5630   27.4078 C   0  0  0  0  0  0  0  0  0  0  0  0
    7.5346    8.7960   28.0765 C   0  0  0  0  0  0  0  0  0  0  0  0
    6.3352    8.8814   27.3704 C   0  0  0  0  0  0  0  0  0  0  0  0
    4.1699    8.9389   25.1914 O   0  0  0  0  0  0  0  0  0  0  0  0
    8.1317    8.2373   23.2708 H   0  0  0  0  0  0  0  0  0  0  0  0
    7.3370    8.9471   29.4053 O   0  0  0  0  0  0  0  0  0  0  0  0
    8.1124    8.1331   30.3131 C   0  0  0  0  0  0  0  0  0  0  0  0
    5.4395    8.6505   22.5698 C   0  0  0  0  0  0  0  0  0  0  0  0
    7.3397   11.5076   22.6086 N   0  0  0  0  0  0  0  0  0  0  0  0
    6.7667   10.6779   21.6644 C   0  0  0  0  0  0  0  0  0  0  0  0
    5.3702   10.1853   22.1614 C   0  0  0  0  0  0  0  0  0  0  0  0
    5.2347   11.0481   23.3616 N   0  0  0  0  0  0  0  0  0  0  0  0
    6.3774   11.8222   23.6030 C   0  0  0  0  0  0  0  0  0  0  0  0
    6.5280   12.7157   24.4330 O   0  0  0  0  0  0  0  0  0  0  0  0
    7.3077   10.2468   20.6607 O   0  0  0  0  0  0  0  0  0  0  0  0
    4.2767   10.4981   21.1148 C   0  0  0  0  0  0  0  0  0  0  0  0
    8.2698   11.8301   22.5939 H   0  0  0  0  0  0  0  0  0  0  0  0
    4.4291   11.0736   23.9269 H   0  0  0  0  0  0  0  0  0  0  0  0
  1  2  1  0  0  0
  1  3  1  0  0  0
  1 14  1  0  0  0
  2  5  1  0  0  0
  3  4  1  0  0  0
  3 10  2  0  0  0
 15 16  1  0  0  0
 15 19  1  0  0  0
 16 17  1  0  0  0
 16 21  2  0  0  0
 17 18  1  0  0  0
 17 22  1  0  0  0
 17 14  1  0  0  0
 18 19  1  0  0  0
 19 20  2  0  0  0
  4  5  2  0  0  0
  4  9  1  0  0  0
  5  6  1  0  0  0
  6  7  2  0  0  0
  7  8  1  0  0  0
  8  9  2  0  0  0
  8 12  1  0  0  0
 12 13  1  0  0  0
  2 11  1  0  0  0
 15 23  1  0  0  0
 18 24  1  0  0  0
M  END
> <minimizedAffinity>
-8.13539

$$$$
3L0V_724_A_485


 24 26  0  0  0  0  0  0  0  0999 V2000
    6.6604    9.3236   25.0114 N   0  0  0  0  0  0  0  0  0  0  0  0
    8.0525    9.0284   25.1400 N   0  0  0  0  0  0  0  0  0  0  0  0
    5.9298    9.2625   26.1582 C   0  0  0  0  0  0  0  0  0  0  0  0
    6.9207    8.9373   27.1720 C   0  0  0  0  0  0  0  0  0  0  0  0
    8.1689    8.8052   26.5083 C   0  0  0  0  0  0  0  0  0  0  0  0
    9.3321    8.4861   27.2002 C   0  0  0  0  0  0  0  0  0  0  0  0
    9.2007    8.3241   28.5669 C   0  0  0  0  0  0  0  0  0  0  0  0
    7.9217    8.4694   29.2190 C   0  0  0  0  0  0  0  0  0  0  0  0
    6.7667    8.7828   28.5032 C   0  0  0  0  0  0  0  0  0  0  0  0
    4.7254    9.4615   26.3095 O   0  0  0  0  0  0  0  0  0  0  0  0
    8.7470    8.9925   24.4432 H   0  0  0  0  0  0  0  0  0  0  0  0
    7.6609    8.3233   30.5374 O   0  0  0  0  0  0  0  0  0  0  0  0
    7.6491    6.9894   31.0929 C   0  0  0  0  0  0  0  0  0  0  0  0
    6.1179    9.7087   23.7468 C   0  0  0  0  0  0  0  0  0  0  0  0
    5.1179    6.8707   22.0973 N   0  0  0  0  0  0  0  0  0  0  0  0
    5.4642    8.1683   21.7742 C   0  0  0  0  0  0  0  0  0  0  0  0
    6.6404    8.6505   22.6819 C   0  0  0  0  0  0  0  0  0  0  0  0
    6.9719    7.3596   23.3353 N   0  0  0  0  0  0  0  0  0  0  0  0
    6.0913    6.3302   22.9773 C   0  0  0  0  0  0  0  0  0  0  0  0
    6.1719    5.1339   23.2460 O   0  0  0  0  0  0  0  0  0  0  0  0
    4.8610    8.9074   21.0153 O   0  0  0  0  0  0  0  0  0  0  0  0
    7.8169    9.1669   21.8227 C   0  0  0  0  0  0  0  0  0  0  0  0
    4.3208    6.3954   21.7686 H   0  0  0  0  0  0  0  0  0  0  0  0
    7.7288    7.2396   23.9534 H   0  0  0  0  0  0  0  0  0  0  0  0
  1  2  1  0  0  0
  1  3  1  0  0  0
  1 14  1  0  0  0
  2  5  1  0  0  0
  3  4  1  0  0  0
  3 10  2  0  0  0
 15 16  1  0  0  0
 15 19  1  0  0  0
 16 17  1  0  0  0
 16 21  2  0  0  0
 17 18  1  0  0  0
 17 22  1  0  0  0
 17 14  1  0  0  0
 18 19  1  0  0  0
 19 20  2  0  0  0
  4  5  2  0  0  0
  4  9  1  0  0  0
  5  6  1  0  0  0
  6  7  2  0  0  0
  7  8  1  0  0  0
  8  9  2  0  0  0
  8 12  1  0  0  0
 12 13  1  0  0  0
  2 11  1  0  0  0
 15 23  1  0  0  0
 18 24  1  0  0  0
M  END
> <minimizedAffinity>
-8.01591

$$$$
3L0V_724_A_485


 24 26  0  0  0  0  0  0  0  0999 V2000
    6.5319    9.4128   25.1623 N   0  0  0  0  0  0  0  0  0  0  0  0
    7.9241    9.0911   25.1734 N   0  0  0  0  0  0  0  0  0  0  0  0
    5.8945    9.3426   26.3629 C   0  0  0  0  0  0  0  0  0  0  0  0
    6.9571    8.9811   27.2879 C   0  0  0  0  0  0  0  0  0  0  0  0
    8.1454    8.8400   26.5238 C   0  0  0  0  0  0  0  0  0  0  0  0
    9.3541    8.4877   27.1142 C   0  0  0  0  0  0  0  0  0  0  0  0
    9.3295    8.3020   28.4840 C   0  0  0  0  0  0  0  0  0  0  0  0
    8.1098    8.4571   29.2393 C   0  0  0  0  0  0  0  0  0  0  0  0
    6.9073    8.8040   28.6243 C   0  0  0  0  0  0  0  0  0  0  0  0
    4.7100    9.5596   26.6141 O   0  0  0  0  0  0  0  0  0  0  0  0
    8.5598    9.0564   24.4225 H   0  0  0  0  0  0  0  0  0  0  0  0
    7.9526    8.2906   30.5717 O   0  0  0  0  0  0  0  0  0  0  0  0
    7.5922    6.9806   31.0636 C   0  0  0  0  0  0  0  0  0  0  0  0
    5.8973    9.8312   23.9524 C   0  0  0  0  0  0  0  0  0  0  0  0
    6.5799    9.3584   20.6229 N   0  0  0  0  0  0  0  0  0  0  0  0
    7.1899    9.0990   21.8348 C   0  0  0  0  0  0  0  0  0  0  0  0
    6.1221    8.6696   22.8908 C   0  0  0  0  0  0  0  0  0  0  0  0
    4.9483    8.5379   21.9918 N   0  0  0  0  0  0  0  0  0  0  0  0
    5.2293    8.9259   20.6751 C   0  0  0  0  0  0  0  0  0  0  0  0
    4.5143    8.8155   19.6818 O   0  0  0  0  0  0  0  0  0  0  0  0
    8.3560    9.3168   22.1157 O   0  0  0  0  0  0  0  0  0  0  0  0
    6.4997    7.3132   23.5287 C   0  0  0  0  0  0  0  0  0  0  0  0
    7.0140    9.7775   19.8450 H   0  0  0  0  0  0  0  0  0  0  0  0
    4.0676    8.2131   22.2887 H   0  0  0  0  0  0  0  0  0  0  0  0
  1  2  1  0  0  0
  1  3  1  0  0  0
  1 14  1  0  0  0
  2  5  1  0  0  0
  3  4  1  0  0  0
  3 10  2  0  0  0
 15 16  1  0  0  0
 15 19  1  0  0  0
 16 17  1  0  0  0
 16 21  2  0  0  0
 17 18  1  0  0  0
 17 22  1  0  0  0
 17 14  1  0  0  0
 18 19  1  0  0  0
 19 20  2  0  0  0
  4  5  2  0  0  0
  4  9  1  0  0  0
  5  6  1  0  0  0
  6  7  2  0  0  0
  7  8  1  0  0  0
  8  9  2  0  0  0
  8 12  1  0  0  0
 12 13  1  0  0  0
  2 11  1  0  0  0
 15 23  1  0  0  0
 18 24  1  0  0  0
M  END
> <minimizedAffinity>
-7.92840

$$$$
3L0V_724_A_485


 24 26  0  0  0  0  0  0  0  0999 V2000
    5.6546    8.9521   23.8929 N   0  0  0  0  0  0  0  0  0  0  0  0
    4.7791    9.1879   24.9973 N   0  0  0  0  0  0  0  0  0  0  0  0
    6.9661    8.7603   24.2025 C   0  0  0  0  0  0  0  0  0  0  0  0
    6.9828    8.8289   25.6552 C   0  0  0  0  0  0  0  0  0  0  0  0
    5.6522    9.0898   26.0760 C   0  0  0  0  0  0  0  0  0  0  0  0
    5.3261    9.2235   27.4212 C   0  0  0  0  0  0  0  0  0  0  0  0
    6.3681    9.0701   28.3168 C   0  0  0  0  0  0  0  0  0  0  0  0
    7.7113    8.7995   27.8642 C   0  0  0  0  0  0  0  0  0  0  0  0
    8.0161    8.6768   26.5090 C   0  0  0  0  0  0  0  0  0  0  0  0
    7.9092    8.5509   23.4410 O   0  0  0  0  0  0  0  0  0  0  0  0
    3.8119    9.3715   24.9953 H   0  0  0  0  0  0  0  0  0  0  0  0
    8.8119    8.6438   28.6337 O   0  0  0  0  0  0  0  0  0  0  0  0
    8.6363    8.2617   30.0162 C   0  0  0  0  0  0  0  0  0  0  0  0
    5.1356    8.8755   22.5638 C   0  0  0  0  0  0  0  0  0  0  0  0
    7.2340   11.5651   22.1920 N   0  0  0  0  0  0  0  0  0  0  0  0
    6.5623   10.6763   21.3752 C   0  0  0  0  0  0  0  0  0  0  0  0
    5.1577   10.3526   21.9768 C   0  0  0  0  0  0  0  0  0  0  0  0
    5.1369   11.3578   23.0688 N   0  0  0  0  0  0  0  0  0  0  0  0
    6.3412   12.0661   23.1749 C   0  0  0  0  0  0  0  0  0  0  0  0
    6.5915   13.0366   23.8858 O   0  0  0  0  0  0  0  0  0  0  0  0
    7.0265   10.0909   20.4120 O   0  0  0  0  0  0  0  0  0  0  0  0
    4.0440   10.6227   20.9395 C   0  0  0  0  0  0  0  0  0  0  0  0
    8.1830   11.8122   22.1059 H   0  0  0  0  0  0  0  0  0  0  0  0
    4.3608   11.5104   23.6550 H   0  0  0  0  0  0  0  0  0  0  0  0
  1  2  1  0  0  0
  1  3  1  0  0  0
  1 14  1  0  0  0
  2  5  1  0  0  0
  3  4  1  0  0  0
  3 10  2  0  0  0
 15 16  1  0  0  0
 15 19  1  0  0  0
 16 17  1  0  0  0
 16 21  2  0  0  0
 17 18  1  0  0  0
 17 22  1  0  0  0
 17 14  1  0  0  0
 18 19  1  0  0  0
 19 20  2  0  0  0
  4  5  2  0  0  0
  4  9  1  0  0  0
  5  6  1  0  0  0
  6  7  2  0  0  0
  7  8  1  0  0  0
  8  9  2  0  0  0
  8 12  1  0  0  0
 12 13  1  0  0  0
  2 11  1  0  0  0
 15 23  1  0  0  0
 18 24  1  0  0  0
M  END
> <minimizedAffinity>
-7.72863

$$$$
3L0V_724_A_485


 24 26  0  0  0  0  0  0  0  0999 V2000
    6.1474   11.4950   21.9729 N   0  0  0  0  0  0  0  0  0  0  0  0
    6.7607   11.2286   20.7102 N   0  0  0  0  0  0  0  0  0  0  0  0
    6.3202   12.7519   22.4660 C   0  0  0  0  0  0  0  0  0  0  0  0
    7.0861   13.4197   21.4254 C   0  0  0  0  0  0  0  0  0  0  0  0
    7.3244   12.4631   20.4037 C   0  0  0  0  0  0  0  0  0  0  0  0
    8.0452   12.7838   19.2586 C   0  0  0  0  0  0  0  0  0  0  0  0
    8.4966   14.0876   19.1705 C   0  0  0  0  0  0  0  0  0  0  0  0
    8.2364   15.0431   20.2201 C   0  0  0  0  0  0  0  0  0  0  0  0
    7.5171   14.6964   21.3634 C   0  0  0  0  0  0  0  0  0  0  0  0
    5.9056   13.2222   23.5243 O   0  0  0  0  0  0  0  0  0  0  0  0
    6.7795   10.3912   20.1929 H   0  0  0  0  0  0  0  0  0  0  0  0
    8.6329   16.3349   20.2592 O   0  0  0  0  0  0  0  0  0  0  0  0
    8.2073   17.1519   21.3725 C   0  0  0  0  0  0  0  0  0  0  0  0
    5.3625   10.4918   22.6203 C   0  0  0  0  0  0  0  0  0  0  0  0
    5.1858    8.3163   25.2682 N   0  0  0  0  0  0  0  0  0  0  0  0
    5.8530    8.4005   24.0616 C   0  0  0  0  0  0  0  0  0  0  0  0
    6.2634    9.8809   23.7788 C   0  0  0  0  0  0  0  0  0  0  0  0
    5.9110   10.4734   25.0933 N   0  0  0  0  0  0  0  0  0  0  0  0
    5.3001    9.5529   25.9552 C   0  0  0  0  0  0  0  0  0  0  0  0
    5.0096    9.6990   27.1401 O   0  0  0  0  0  0  0  0  0  0  0  0
    5.9777    7.5057   23.2432 O   0  0  0  0  0  0  0  0  0  0  0  0
    7.7806    9.9835   23.5018 C   0  0  0  0  0  0  0  0  0  0  0  0
    4.7062    7.5230   25.5996 H   0  0  0  0  0  0  0  0  0  0  0  0
    6.0873   11.4117   25.3337 H   0  0  0  0  0  0  0  0  0  0  0  0
  1  2  1  0  0  0
  1  3  1  0  0  0
  1 14  1  0  0  0
  2  5  1  0  0  0
  3  4  1  0  0  0
  3 10  2  0  0  0
 15 16  1  0  0  0
 15 19  1  0  0  0
 16 17  1  0  0  0
 16 21  2  0  0  0
 17 18  1  0  0  0
 17 22  1  0  0  0
 17 14  1  0  0  0
 18 19  1  0  0  0
 19 20  2  0  0  0
  4  5  2  0  0  0
  4  9  1  0  0  0
  5  6  1  0  0  0
  6  7  2  0  0  0
  7  8  1  0  0  0
  8  9  2  0  0  0
  8 12  1  0  0  0
 12 13  1  0  0  0
  2 11  1  0  0  0
 15 23  1  0  0  0
 18 24  1  0  0  0
M  END
> <minimizedAffinity>
-7.25688

$$$$
3L0V_724_A_485


 24 26  0  0  0  0  0  0  0  0999 V2000
    6.4123    9.4103   24.0398 N   0  0  0  0  0  0  0  0  0  0  0  0
    5.3124    9.2089   24.9293 N   0  0  0  0  0  0  0  0  0  0  0  0
    7.6501    9.3749   24.6051 C   0  0  0  0  0  0  0  0  0  0  0  0
    7.3740    9.0799   26.0023 C   0  0  0  0  0  0  0  0  0  0  0  0
    5.9634    8.9954   26.1401 C   0  0  0  0  0  0  0  0  0  0  0  0
    5.3655    8.7306   27.3674 C   0  0  0  0  0  0  0  0  0  0  0  0
    6.2253    8.5391   28.4330 C   0  0  0  0  0  0  0  0  0  0  0  0
    7.6560    8.6246   28.2660 C   0  0  0  0  0  0  0  0  0  0  0  0
    8.2330    8.8986   27.0264 C   0  0  0  0  0  0  0  0  0  0  0  0
    8.7435    9.5273   24.0626 O   0  0  0  0  0  0  0  0  0  0  0  0
    4.3471    9.2187   24.7360 H   0  0  0  0  0  0  0  0  0  0  0  0
    8.5963    8.4723   29.2253 O   0  0  0  0  0  0  0  0  0  0  0  0
    8.2209    7.8216   30.4596 C   0  0  0  0  0  0  0  0  0  0  0  0
    6.1864    9.5806   22.6392 C   0  0  0  0  0  0  0  0  0  0  0  0
    5.0714    6.4472   21.7943 N   0  0  0  0  0  0  0  0  0  0  0  0
    5.4999    7.5866   21.1413 C   0  0  0  0  0  0  0  0  0  0  0  0
    6.6765    8.2452   21.9296 C   0  0  0  0  0  0  0  0  0  0  0  0
    6.9159    7.1718   22.9266 N   0  0  0  0  0  0  0  0  0  0  0  0
    5.9880    6.1264   22.8291 C   0  0  0  0  0  0  0  0  0  0  0  0
    5.9929    5.0490   23.4199 O   0  0  0  0  0  0  0  0  0  0  0  0
    4.9608    8.1141   20.1836 O   0  0  0  0  0  0  0  0  0  0  0  0
    7.9035    8.4470   21.0117 C   0  0  0  0  0  0  0  0  0  0  0  0
    4.2578    5.9377   21.5760 H   0  0  0  0  0  0  0  0  0  0  0  0
    7.6475    7.1922   23.5850 H   0  0  0  0  0  0  0  0  0  0  0  0
  1  2  1  0  0  0
  1  3  1  0  0  0
  1 14  1  0  0  0
  2  5  1  0  0  0
  3  4  1  0  0  0
  3 10  2  0  0  0
 15 16  1  0  0  0
 15 19  1  0  0  0
 16 17  1  0  0  0
 16 21  2  0  0  0
 17 18  1  0  0  0
 17 22  1  0  0  0
 17 14  1  0  0  0
 18 19  1  0  0  0
 19 20  2  0  0  0
  4  5  2  0  0  0
  4  9  1  0  0  0
  5  6  1  0  0  0
  6  7  2  0  0  0
  7  8  1  0  0  0
  8  9  2  0  0  0
  8 12  1  0  0  0
 12 13  1  0  0  0
  2 11  1  0  0  0
 15 23  1  0  0  0
 18 24  1  0  0  0
M  END
> <minimizedAffinity>
-7.24990

$$$$
3L0V_724_A_485


 24 26  0  0  0  0  0  0  0  0999 V2000
    6.1730    9.9679   23.8118 N   0  0  0  0  0  0  0  0  0  0  0  0
    5.1126    9.8328   24.7598 N   0  0  0  0  0  0  0  0  0  0  0  0
    7.4262    9.7162   24.2796 C   0  0  0  0  0  0  0  0  0  0  0  0
    7.1983    9.3324   25.6638 C   0  0  0  0  0  0  0  0  0  0  0  0
    5.8008    9.4235   25.8975 C   0  0  0  0  0  0  0  0  0  0  0  0
    5.2486    9.1280   27.1390 C   0  0  0  0  0  0  0  0  0  0  0  0
    6.1374    8.7261   28.1188 C   0  0  0  0  0  0  0  0  0  0  0  0
    7.5531    8.6359   27.8548 C   0  0  0  0  0  0  0  0  0  0  0  0
    8.0853    8.9445   26.6033 C   0  0  0  0  0  0  0  0  0  0  0  0
    8.4948    9.7716   23.6728 O   0  0  0  0  0  0  0  0  0  0  0  0
    4.1479    9.9886   24.6395 H   0  0  0  0  0  0  0  0  0  0  0  0
    8.5204    8.2719   28.7263 O   0  0  0  0  0  0  0  0  0  0  0  0
    8.2105    8.2722   30.1376 C   0  0  0  0  0  0  0  0  0  0  0  0
    5.8872   10.2957   22.4507 C   0  0  0  0  0  0  0  0  0  0  0  0
    6.3184    8.8918   19.3493 N   0  0  0  0  0  0  0  0  0  0  0  0
    6.8223    8.7207   20.6241 C   0  0  0  0  0  0  0  0  0  0  0  0
    5.6881    8.9200   21.6795 C   0  0  0  0  0  0  0  0  0  0  0  0
    4.5259    8.9913   20.7588 N   0  0  0  0  0  0  0  0  0  0  0  0
    4.9021    8.9589   19.4094 C   0  0  0  0  0  0  0  0  0  0  0  0
    4.1773    8.8753   18.4207 O   0  0  0  0  0  0  0  0  0  0  0  0
    7.9970    8.5931   20.9233 O   0  0  0  0  0  0  0  0  0  0  0  0
    5.5922    7.6941   22.6159 C   0  0  0  0  0  0  0  0  0  0  0  0
    6.8572    8.9570   18.5280 H   0  0  0  0  0  0  0  0  0  0  0  0
    3.5919    9.0545   21.0633 H   0  0  0  0  0  0  0  0  0  0  0  0
  1  2  1  0  0  0
  1  3  1  0  0  0
  1 14  1  0  0  0
  2  5  1  0  0  0
  3  4  1  0  0  0
  3 10  2  0  0  0
 15 16  1  0  0  0
 15 19  1  0  0  0
 16 17  1  0  0  0
 16 21  2  0  0  0
 17 18  1  0  0  0
 17 22  1  0  0  0
 17 14  1  0  0  0
 18 19  1  0  0  0
 19 20  2  0  0  0
  4  5  2  0  0  0
  4  9  1  0  0  0
  5  6  1  0  0  0
  6  7  2  0  0  0
  7  8  1  0  0  0
  8  9  2  0  0  0
  8 12  1  0  0  0
 12 13  1  0  0  0
  2 11  1  0  0  0
 15 23  1  0  0  0
 18 24  1  0  0  0
M  END
> <minimizedAffinity>
-6.99838

$$$$
3L0V_724_A_485


 24 26  0  0  0  0  0  0  0  0999 V2000
    5.9067   10.4689   23.0745 N   0  0  0  0  0  0  0  0  0  0  0  0
    4.5642   10.7040   22.6456 N   0  0  0  0  0  0  0  0  0  0  0  0
    6.7884   10.1081   22.1023 C   0  0  0  0  0  0  0  0  0  0  0  0
    5.9852   10.1406   20.8902 C   0  0  0  0  0  0  0  0  0  0  0  0
    4.6657   10.4981   21.2734 C   0  0  0  0  0  0  0  0  0  0  0  0
    3.6406   10.6095   20.3404 C   0  0  0  0  0  0  0  0  0  0  0  0
    3.9888   10.3692   19.0241 C   0  0  0  0  0  0  0  0  0  0  0  0
    5.3386   10.0129   18.6593 C   0  0  0  0  0  0  0  0  0  0  0  0
    6.3490    9.8999   19.6137 C   0  0  0  0  0  0  0  0  0  0  0  0
    7.9846    9.8444   22.2140 O   0  0  0  0  0  0  0  0  0  0  0  0
    3.7746   10.9478   23.1806 H   0  0  0  0  0  0  0  0  0  0  0  0
    5.7997    9.7412   17.4178 O   0  0  0  0  0  0  0  0  0  0  0  0
    7.1981    9.4137   17.2596 C   0  0  0  0  0  0  0  0  0  0  0  0
    6.2726   10.6650   24.4417 C   0  0  0  0  0  0  0  0  0  0  0  0
    7.2788    9.1074   27.3291 N   0  0  0  0  0  0  0  0  0  0  0  0
    6.0958    9.3343   26.6529 C   0  0  0  0  0  0  0  0  0  0  0  0
    6.3300    9.2249   25.1125 C   0  0  0  0  0  0  0  0  0  0  0  0
    7.7188    8.7012   25.1266 N   0  0  0  0  0  0  0  0  0  0  0  0
    8.2542    8.6229   26.4192 C   0  0  0  0  0  0  0  0  0  0  0  0
    9.3185    8.1197   26.7712 O   0  0  0  0  0  0  0  0  0  0  0  0
    5.0488    9.7215   27.1427 O   0  0  0  0  0  0  0  0  0  0  0  0
    5.3500    8.2094   24.4820 C   0  0  0  0  0  0  0  0  0  0  0  0
    7.4228    9.2582   28.2913 H   0  0  0  0  0  0  0  0  0  0  0  0
    8.2106    8.4374   24.3156 H   0  0  0  0  0  0  0  0  0  0  0  0
  1  2  1  0  0  0
  1  3  1  0  0  0
  1 14  1  0  0  0
  2  5  1  0  0  0
  3  4  1  0  0  0
  3 10  2  0  0  0
 15 16  1  0  0  0
 15 19  1  0  0  0
 16 17  1  0  0  0
 16 21  2  0  0  0
 17 18  1  0  0  0
 17 22  1  0  0  0
 17 14  1  0  0  0
 18 19  1  0  0  0
 19 20  2  0  0  0
  4  5  2  0  0  0
  4  9  1  0  0  0
  5  6  1  0  0  0
  6  7  2  0  0  0
  7  8  1  0  0  0
  8  9  2  0  0  0
  8 12  1  0  0  0
 12 13  1  0  0  0
  2 11  1  0  0  0
 15 23  1  0  0  0
 18 24  1  0  0  0
M  END
> <minimizedAffinity>
-6.99786

$$$$
3L0V_724_A_485


 24 26  0  0  0  0  0  0  0  0999 V2000
    5.6057   10.2838   23.0462 N   0  0  0  0  0  0  0  0  0  0  0  0
    5.5917   10.1765   21.6215 N   0  0  0  0  0  0  0  0  0  0  0  0
    6.1449   11.4265   23.5526 C   0  0  0  0  0  0  0  0  0  0  0  0
    6.4931   12.1898   22.3646 C   0  0  0  0  0  0  0  0  0  0  0  0
    6.1450   11.3949   21.2408 C   0  0  0  0  0  0  0  0  0  0  0  0
    6.3599   11.8375   19.9402 C   0  0  0  0  0  0  0  0  0  0  0  0
    6.9134   13.0979   19.8113 C   0  0  0  0  0  0  0  0  0  0  0  0
    7.2532   13.8889   20.9693 C   0  0  0  0  0  0  0  0  0  0  0  0
    7.0353   13.4210   22.2648 C   0  0  0  0  0  0  0  0  0  0  0  0
    6.2809   11.7514   24.7311 O   0  0  0  0  0  0  0  0  0  0  0  0
    5.2739    9.4350   21.0573 H   0  0  0  0  0  0  0  0  0  0  0  0
    7.8088   15.1213   20.9766 O   0  0  0  0  0  0  0  0  0  0  0  0
    8.9830   15.3515   20.1665 C   0  0  0  0  0  0  0  0  0  0  0  0
    5.0288    9.2555   23.8534 C   0  0  0  0  0  0  0  0  0  0  0  0
    6.8288    7.6818   26.3149 N   0  0  0  0  0  0  0  0  0  0  0  0
    5.8913    7.3381   25.3604 C   0  0  0  0  0  0  0  0  0  0  0  0
    6.1464    8.1415   24.0454 C   0  0  0  0  0  0  0  0  0  0  0  0
    7.4513    8.7545   24.3988 N   0  0  0  0  0  0  0  0  0  0  0  0
    7.8448    8.4688   25.7129 C   0  0  0  0  0  0  0  0  0  0  0  0
    8.9175    8.7213   26.2565 O   0  0  0  0  0  0  0  0  0  0  0  0
    4.9071    6.6404   25.5355 O   0  0  0  0  0  0  0  0  0  0  0  0
    6.2804    7.1852   22.8385 C   0  0  0  0  0  0  0  0  0  0  0  0
    6.7971    7.4217   27.2638 H   0  0  0  0  0  0  0  0  0  0  0  0
    7.9828    9.3025   23.7772 H   0  0  0  0  0  0  0  0  0  0  0  0
  1  2  1  0  0  0
  1  3  1  0  0  0
  1 14  1  0  0  0
  2  5  1  0  0  0
  3  4  1  0  0  0
  3 10  2  0  0  0
 15 16  1  0  0  0
 15 19  1  0  0  0
 16 17  1  0  0  0
 16 21  2  0  0  0
 17 18  1  0  0  0
 17 22  1  0  0  0
 17 14  1  0  0  0
 18 19  1  0  0  0
 19 20  2  0  0  0
  4  5  2  0  0  0
  4  9  1  0  0  0
  5  6  1  0  0  0
  6  7  2  0  0  0
  7  8  1  0  0  0
  8  9  2  0  0  0
  8 12  1  0  0  0
 12 13  1  0  0  0
  2 11  1  0  0  0
 15 23  1  0  0  0
 18 24  1  0  0  0
M  END
> <minimizedAffinity>
-6.91701

$$$$
3L0V_724_A_485


 24 26  0  0  0  0  0  0  0  0999 V2000
    6.0701   11.2714   22.5773 N   0  0  0  0  0  0  0  0  0  0  0  0
    5.5657   12.3800   23.3244 N   0  0  0  0  0  0  0  0  0  0  0  0
    6.9169   11.5766   21.5563 C   0  0  0  0  0  0  0  0  0  0  0  0
    7.0364   13.0237   21.6390 C   0  0  0  0  0  0  0  0  0  0  0  0
    6.2062   13.4506   22.7088 C   0  0  0  0  0  0  0  0  0  0  0  0
    6.0884   14.7938   23.0487 C   0  0  0  0  0  0  0  0  0  0  0  0
    6.8382   15.6787   22.2963 C   0  0  0  0  0  0  0  0  0  0  0  0
    7.6792   15.2193   21.2174 C   0  0  0  0  0  0  0  0  0  0  0  0
    7.7760   13.8673   20.8898 C   0  0  0  0  0  0  0  0  0  0  0  0
    7.4720   10.8124   20.7683 O   0  0  0  0  0  0  0  0  0  0  0  0
    4.9313   12.3849   24.0772 H   0  0  0  0  0  0  0  0  0  0  0  0
    8.4451   15.9804   20.4039 O   0  0  0  0  0  0  0  0  0  0  0  0
    9.3825   15.3196   19.5249 C   0  0  0  0  0  0  0  0  0  0  0  0
    5.7250    9.9349   22.9468 C   0  0  0  0  0  0  0  0  0  0  0  0
    5.5079    8.1179   25.8497 N   0  0  0  0  0  0  0  0  0  0  0  0
    6.2810    8.1207   24.7049 C   0  0  0  0  0  0  0  0  0  0  0  0
    6.5629    9.5890   24.2526 C   0  0  0  0  0  0  0  0  0  0  0  0
    6.0207   10.3031   25.4356 N   0  0  0  0  0  0  0  0  0  0  0  0
    5.4243    9.4384   26.3629 C   0  0  0  0  0  0  0  0  0  0  0  0
    5.0025    9.7032   27.4862 O   0  0  0  0  0  0  0  0  0  0  0  0
    6.5791    7.1473   24.0344 O   0  0  0  0  0  0  0  0  0  0  0  0
    8.0815    9.8297   24.0950 C   0  0  0  0  0  0  0  0  0  0  0  0
    5.0818    7.3244   26.2472 H   0  0  0  0  0  0  0  0  0  0  0  0
    6.0743   11.2788   25.5556 H   0  0  0  0  0  0  0  0  0  0  0  0
  1  2  1  0  0  0
  1  3  1  0  0  0
  1 14  1  0  0  0
  2  5  1  0  0  0
  3  4  1  0  0  0
  3 10  2  0  0  0
 15 16  1  0  0  0
 15 19  1  0  0  0
 16 17  1  0  0  0
 16 21  2  0  0  0
 17 18  1  0  0  0
 17 22  1  0  0  0
 17 14  1  0  0  0
 18 19  1  0  0  0
 19 20  2  0  0  0
  4  5  2  0  0  0
  4  9  1  0  0  0
  5  6  1  0  0  0
  6  7  2  0  0  0
  7  8  1  0  0  0
  8  9  2  0  0  0
  8 12  1  0  0  0
 12 13  1  0  0  0
  2 11  1  0  0  0
 15 23  1  0  0  0
 18 24  1  0  0  0
M  END
> <minimizedAffinity>
-6.91120

$$$$
