3SU5_SU3_A_1


 56 61  0  0  0  0  0  0  0  0999 V2000
  -15.0442   -9.7583   13.4276 N   0  0  0  0  0  0  0  0  0  0  0  0
  -13.6314   -9.7709   13.8869 C   0  0  0  0  0  0  0  0  0  0  0  0
  -12.9058  -10.5975   12.8640 C   0  0  0  0  0  0  0  0  0  0  0  0
  -13.9611  -11.6247   12.4796 C   0  0  0  0  0  0  0  0  0  0  0  0
  -16.0023   -9.0100   13.9536 C   0  0  0  0  0  0  0  0  0  0  0  0
  -15.7014   -8.2491   14.8831 O   0  0  0  0  0  0  0  0  0  0  0  0
  -17.4207   -9.0088   13.3794 C   0  0  0  0  0  0  0  0  0  0  0  0
  -18.3604   -9.2611   14.4822 N   0  0  0  0  0  0  0  0  0  0  0  0
  -18.8774  -10.4557   14.6822 C   0  0  0  0  0  0  0  0  0  0  0  0
  -19.6873  -10.5335   15.7649 O   0  0  0  0  0  0  0  0  0  0  0  0
  -18.7232  -11.4123   13.9236 O   0  0  0  0  0  0  0  0  0  0  0  0
  -13.4352  -13.6325   13.6626 C   0  0  0  0  0  0  0  0  0  0  0  0
  -12.4968  -13.8268   12.8751 O   0  0  0  0  0  0  0  0  0  0  0  0
  -13.6264  -14.4387   14.6733 N   0  0  0  0  0  0  0  0  0  0  0  0
  -12.8140  -15.5947   15.0751 C   0  0  0  0  0  0  0  0  0  0  0  0
  -13.4417  -16.0984   16.3529 C   0  0  0  0  0  0  0  0  0  0  0  0
  -14.5745  -15.3504   16.6631 C   0  0  0  0  0  0  0  0  0  0  0  0
  -14.7526  -14.2522   15.6131 C   0  0  0  0  0  0  0  0  0  0  0  0
  -13.0723  -17.1542   17.1713 C   0  0  0  0  0  0  0  0  0  0  0  0
  -13.8118  -17.4551   18.2975 C   0  0  0  0  0  0  0  0  0  0  0  0
  -14.9337  -16.7072   18.6041 C   0  0  0  0  0  0  0  0  0  0  0  0
  -15.3291  -15.6392   17.8060 C   0  0  0  0  0  0  0  0  0  0  0  0
  -16.6250  -14.9830   18.2896 C   0  0  0  0  0  0  0  0  0  0  0  0
  -16.6150  -13.5246   18.6207 C   0  0  0  0  0  0  0  0  0  0  0  0
  -18.0931  -13.1253   18.7507 C   0  0  0  0  0  0  0  0  0  0  0  0
  -18.6766  -12.8302   17.3671 C   0  0  0  0  0  0  0  0  0  0  0  0
  -20.1026  -12.2934   17.4059 C   0  0  0  0  0  0  0  0  0  0  0  0
  -20.3606  -11.7754   16.0097 C   0  0  0  0  0  0  0  0  0  0  0  0
  -21.1252  -13.4010   17.6831 C   0  0  0  0  0  0  0  0  0  0  0  0
  -20.2362  -11.1746   18.4541 C   0  0  0  0  0  0  0  0  0  0  0  0
  -15.2205  -10.7601   12.3579 C   0  0  0  0  0  0  0  0  0  0  0  0
  -14.2691  -12.5784   13.5285 O   0  0  0  0  0  0  0  0  0  0  0  0
  -18.6080   -8.5218   15.0833 H   0  0  0  0  0  0  0  0  0  0  0  0
  -13.1671   -8.3164   13.8817 C   0  0  0  0  0  0  0  0  0  0  0  0
  -13.1339   -7.6497   12.8451 O   0  0  0  0  0  0  0  0  0  0  0  0
  -12.7557   -7.8614   15.0645 N   0  0  0  0  0  0  0  0  0  0  0  0
  -12.6267   -8.5084   15.7953 H   0  0  0  0  0  0  0  0  0  0  0  0
  -12.4883   -6.4599   15.3295 C   0  0  0  0  0  0  0  0  0  0  0  0
  -13.7827   -5.6076   15.2825 C   0  0  0  0  0  0  0  0  0  0  0  0
  -13.0782   -5.8823   16.6099 C   0  0  0  0  0  0  0  0  0  0  0  0
  -11.1460   -5.8683   14.9316 C   0  0  0  0  0  0  0  0  0  0  0  0
  -10.5086   -6.4981   13.9708 N   0  0  0  0  0  0  0  0  0  0  0  0
  -10.7086   -4.9166   15.5715 O   0  0  0  0  0  0  0  0  0  0  0  0
  -10.8676   -7.3120   13.5489 H   0  0  0  0  0  0  0  0  0  0  0  0
   -9.1158   -5.8580   13.5329 S   0  0  0  0  0  0  0  0  0  0  0  0
   -9.3284   -4.6936   12.6258 O   0  0  0  0  0  0  0  0  0  0  0  0
   -8.2403   -5.5486   14.6830 O   0  0  0  0  0  0  0  0  0  0  0  0
   -8.3092   -7.1325   12.5662 C   0  0  0  0  0  0  0  0  0  0  0  0
   -6.9265   -6.7381   12.0714 C   0  0  0  0  0  0  0  0  0  0  0  0
   -7.0818   -7.7347   13.2330 C   0  0  0  0  0  0  0  0  0  0  0  0
  -13.7301   -4.1668   14.7658 C   0  0  0  0  0  0  0  0  0  0  0  0
  -14.9555   -3.8380   13.9031 C   0  0  0  0  0  0  0  0  0  0  0  0
  -17.7460   -7.6937   12.6470 C   0  0  0  0  0  0  0  0  0  0  0  0
  -16.5340   -7.0939   11.9098 C   0  0  0  0  0  0  0  0  0  0  0  0
  -18.8764   -7.9403   11.6596 C   0  0  0  0  0  0  0  0  0  0  0  0
  -18.2207   -6.6640   13.6770 C   0  0  0  0  0  0  0  0  0  0  0  0
 34 36  1  0  0  0
  1  5  1  0  0  0
  1  2  1  0  0  0
 35 34  2  0  0  0
  2 34  1  0  0  0
  3  2  1  0  0  0
  4  3  1  0  0  0
  4 32  1  0  0  0
  5  6  2  0  0  0
  7  5  1  0  0  0
  7  8  1  0  0  0
  8  9  1  0  0  0
  9 10  1  0  0  0
 10 28  1  0  0  0
 53  7  1  0  0  0
 53 55  1  0  0  0
 11  9  2  0  0  0
 12 14  1  0  0  0
 13 12  2  0  0  0
 14 15  1  0  0  0
 14 18  1  0  0  0
 51 39  1  0  0  0
 52 51  1  0  0  0
 54 53  1  0  0  0
 36 38  1  0  0  0
 38 39  1  0  0  0
 38 40  1  0  0  0
 41 38  1  0  0  0
 41 43  2  0  0  0
 39 40  1  0  0  0
 15 16  1  0  0  0
 16 17  2  0  0  0
 16 19  1  0  0  0
 17 22  1  0  0  0
 18 17  1  0  0  0
 19 20  2  0  0  0
 20 21  1  0  0  0
 22 21  2  0  0  0
 22 23  1  0  0  0
 23 24  1  0  0  0
 42 41  1  0  0  0
 45 42  1  0  0  0
 45 47  2  0  0  0
 48 45  1  0  0  0
 48 50  1  0  0  0
 46 45  2  0  0  0
 49 48  1  0  0  0
 49 50  1  0  0  0
 24 25  1  0  0  0
 26 25  1  0  0  0
 27 26  1  0  0  0
 27 29  1  0  0  0
 27 30  1  0  0  0
 28 27  1  0  0  0
 56 53  1  0  0  0
 31  1  1  0  0  0
 31  4  1  0  0  0
 32 12  1  0  0  0
  8 33  1  0  0  0
 36 37  1  0  0  0
 42 44  1  0  0  0
M  END
> <minimizedAffinity>
-11.49897

$$$$
3SU5_SU3_A_1


 56 61  0  0  0  0  0  0  0  0999 V2000
  -15.0533  -10.2236   13.2050 N   0  0  0  0  0  0  0  0  0  0  0  0
  -13.6093  -10.2181   13.5544 C   0  0  0  0  0  0  0  0  0  0  0  0
  -12.9639  -11.0957   12.5202 C   0  0  0  0  0  0  0  0  0  0  0  0
  -14.0449  -12.1372   12.2687 C   0  0  0  0  0  0  0  0  0  0  0  0
  -15.9687   -9.4478   13.7659 C   0  0  0  0  0  0  0  0  0  0  0  0
  -15.5979   -8.6434   14.6313 O   0  0  0  0  0  0  0  0  0  0  0  0
  -17.4271   -9.4703   13.3031 C   0  0  0  0  0  0  0  0  0  0  0  0
  -18.2790   -9.6659   14.4858 N   0  0  0  0  0  0  0  0  0  0  0  0
  -18.7782  -10.8478   14.7829 C   0  0  0  0  0  0  0  0  0  0  0  0
  -19.5023  -10.8704   15.9272 O   0  0  0  0  0  0  0  0  0  0  0  0
  -18.6820  -11.8407   14.0623 O   0  0  0  0  0  0  0  0  0  0  0  0
  -13.4280  -14.0866   13.5042 C   0  0  0  0  0  0  0  0  0  0  0  0
  -12.5528  -14.3218   12.6574 O   0  0  0  0  0  0  0  0  0  0  0  0
  -13.5402  -14.8421   14.5647 N   0  0  0  0  0  0  0  0  0  0  0  0
  -12.6984  -15.9796   14.9588 C   0  0  0  0  0  0  0  0  0  0  0  0
  -13.2256  -16.4186   16.3042 C   0  0  0  0  0  0  0  0  0  0  0  0
  -14.3317  -15.6530   16.6636 C   0  0  0  0  0  0  0  0  0  0  0  0
  -14.5910  -14.6067   15.5781 C   0  0  0  0  0  0  0  0  0  0  0  0
  -12.7936  -17.4344   17.1422 C   0  0  0  0  0  0  0  0  0  0  0  0
  -13.4440  -17.6779   18.3353 C   0  0  0  0  0  0  0  0  0  0  0  0
  -14.5396  -16.9126   18.6904 C   0  0  0  0  0  0  0  0  0  0  0  0
  -14.9960  -15.8836   17.8739 C   0  0  0  0  0  0  0  0  0  0  0  0
  -16.2514  -15.2008   18.4231 C   0  0  0  0  0  0  0  0  0  0  0  0
  -16.2171  -13.7281   18.6809 C   0  0  0  0  0  0  0  0  0  0  0  0
  -17.6811  -13.3185   18.9045 C   0  0  0  0  0  0  0  0  0  0  0  0
  -18.3696  -13.0894   17.5571 C   0  0  0  0  0  0  0  0  0  0  0  0
  -19.7887  -12.5471   17.6791 C   0  0  0  0  0  0  0  0  0  0  0  0
  -20.1538  -12.0969   16.2833 C   0  0  0  0  0  0  0  0  0  0  0  0
  -20.7861  -13.6368   18.0878 C   0  0  0  0  0  0  0  0  0  0  0  0
  -19.8423  -11.3782   18.6787 C   0  0  0  0  0  0  0  0  0  0  0  0
  -15.3106  -11.2759   12.2021 C   0  0  0  0  0  0  0  0  0  0  0  0
  -14.2705  -13.0378   13.3834 O   0  0  0  0  0  0  0  0  0  0  0  0
  -18.4802   -8.8975   15.0673 H   0  0  0  0  0  0  0  0  0  0  0  0
  -13.1480   -8.7670   13.4426 C   0  0  0  0  0  0  0  0  0  0  0  0
  -12.6691   -8.1624   14.4045 O   0  0  0  0  0  0  0  0  0  0  0  0
  -13.3588   -8.2083   12.2514 N   0  0  0  0  0  0  0  0  0  0  0  0
  -13.9215   -8.6893   11.6023 H   0  0  0  0  0  0  0  0  0  0  0  0
  -12.8004   -6.9265   11.8629 C   0  0  0  0  0  0  0  0  0  0  0  0
  -11.2628   -7.0003   11.6778 C   0  0  0  0  0  0  0  0  0  0  0  0
  -12.1863   -6.8426   10.4711 C   0  0  0  0  0  0  0  0  0  0  0  0
  -13.4723   -5.6468   12.3330 C   0  0  0  0  0  0  0  0  0  0  0  0
  -13.9737   -5.6798   13.5469 N   0  0  0  0  0  0  0  0  0  0  0  0
  -13.5812   -4.7139   11.5428 O   0  0  0  0  0  0  0  0  0  0  0  0
  -13.9344   -6.4872   14.1089 H   0  0  0  0  0  0  0  0  0  0  0  0
  -14.6500   -4.3268   14.0502 S   0  0  0  0  0  0  0  0  0  0  0  0
  -14.1093   -3.1537   13.3049 O   0  0  0  0  0  0  0  0  0  0  0  0
  -16.1268   -4.3886   14.0476 O   0  0  0  0  0  0  0  0  0  0  0  0
  -14.1184   -4.1540   15.7523 C   0  0  0  0  0  0  0  0  0  0  0  0
  -13.9353   -5.4817   16.4707 C   0  0  0  0  0  0  0  0  0  0  0  0
  -12.7113   -4.6668   16.0186 C   0  0  0  0  0  0  0  0  0  0  0  0
  -10.3917   -5.7922   12.0346 C   0  0  0  0  0  0  0  0  0  0  0  0
   -9.7674   -5.9459   13.4277 C   0  0  0  0  0  0  0  0  0  0  0  0
  -17.8087   -8.1916   12.5346 C   0  0  0  0  0  0  0  0  0  0  0  0
  -18.2485   -7.0383   13.4559 C   0  0  0  0  0  0  0  0  0  0  0  0
  -16.6260   -7.7484   11.6869 C   0  0  0  0  0  0  0  0  0  0  0  0
  -18.9791   -8.5128   11.5999 C   0  0  0  0  0  0  0  0  0  0  0  0
 34 36  1  0  0  0
  1  5  1  0  0  0
  1  2  1  0  0  0
 35 34  2  0  0  0
  2 34  1  0  0  0
  3  2  1  0  0  0
  4  3  1  0  0  0
  4 32  1  0  0  0
  5  6  2  0  0  0
  7  5  1  0  0  0
  7  8  1  0  0  0
  8  9  1  0  0  0
  9 10  1  0  0  0
 10 28  1  0  0  0
 53  7  1  0  0  0
 53 55  1  0  0  0
 11  9  2  0  0  0
 12 14  1  0  0  0
 13 12  2  0  0  0
 14 15  1  0  0  0
 14 18  1  0  0  0
 51 39  1  0  0  0
 52 51  1  0  0  0
 54 53  1  0  0  0
 36 38  1  0  0  0
 38 39  1  0  0  0
 38 40  1  0  0  0
 41 38  1  0  0  0
 41 43  2  0  0  0
 39 40  1  0  0  0
 15 16  1  0  0  0
 16 17  2  0  0  0
 16 19  1  0  0  0
 17 22  1  0  0  0
 18 17  1  0  0  0
 19 20  2  0  0  0
 20 21  1  0  0  0
 22 21  2  0  0  0
 22 23  1  0  0  0
 23 24  1  0  0  0
 42 41  1  0  0  0
 45 42  1  0  0  0
 45 47  2  0  0  0
 48 45  1  0  0  0
 48 50  1  0  0  0
 46 45  2  0  0  0
 49 48  1  0  0  0
 49 50  1  0  0  0
 24 25  1  0  0  0
 26 25  1  0  0  0
 27 26  1  0  0  0
 27 29  1  0  0  0
 27 30  1  0  0  0
 28 27  1  0  0  0
 56 53  1  0  0  0
 31  1  1  0  0  0
 31  4  1  0  0  0
 32 12  1  0  0  0
  8 33  1  0  0  0
 36 37  1  0  0  0
 42 44  1  0  0  0
M  END
> <minimizedAffinity>
-8.84330

$$$$
3SU5_SU3_A_1


 56 61  0  0  0  0  0  0  0  0999 V2000
  -14.1758  -10.3849   11.1765 N   0  0  0  0  0  0  0  0  0  0  0  0
  -12.8036  -10.0077   10.7498 C   0  0  0  0  0  0  0  0  0  0  0  0
  -12.7979  -10.2123    9.2617 C   0  0  0  0  0  0  0  0  0  0  0  0
  -13.7240  -11.4096    9.1025 C   0  0  0  0  0  0  0  0  0  0  0  0
  -14.6648  -10.2023   12.3939 C   0  0  0  0  0  0  0  0  0  0  0  0
  -13.9375   -9.6606   13.2373 O   0  0  0  0  0  0  0  0  0  0  0  0
  -16.1126  -10.5612   12.7353 C   0  0  0  0  0  0  0  0  0  0  0  0
  -16.1014  -11.4195   13.9294 N   0  0  0  0  0  0  0  0  0  0  0  0
  -16.2257  -12.7271   13.8347 C   0  0  0  0  0  0  0  0  0  0  0  0
  -16.1490  -13.3772   15.0204 O   0  0  0  0  0  0  0  0  0  0  0  0
  -16.4733  -13.3247   12.7879 O   0  0  0  0  0  0  0  0  0  0  0  0
  -12.3305  -13.3284    8.8132 C   0  0  0  0  0  0  0  0  0  0  0  0
  -12.0891  -12.9535    7.6558 O   0  0  0  0  0  0  0  0  0  0  0  0
  -11.7389  -14.3866    9.3011 N   0  0  0  0  0  0  0  0  0  0  0  0
  -10.7242  -15.2329    8.6594 C   0  0  0  0  0  0  0  0  0  0  0  0
  -10.3333  -16.2496    9.7054 C   0  0  0  0  0  0  0  0  0  0  0  0
  -11.0925  -16.0730   10.8592 C   0  0  0  0  0  0  0  0  0  0  0  0
  -12.0264  -14.8767   10.6663 C   0  0  0  0  0  0  0  0  0  0  0  0
   -9.4053  -17.2772    9.6463 C   0  0  0  0  0  0  0  0  0  0  0  0
   -9.2203  -18.1128   10.7295 C   0  0  0  0  0  0  0  0  0  0  0  0
   -9.9734  -17.9314   11.8750 C   0  0  0  0  0  0  0  0  0  0  0  0
  -10.9100  -16.9076   11.9680 C   0  0  0  0  0  0  0  0  0  0  0  0
  -11.6729  -16.9181   13.2953 C   0  0  0  0  0  0  0  0  0  0  0  0
  -11.6311  -15.6991   14.1607 C   0  0  0  0  0  0  0  0  0  0  0  0
  -12.7263  -15.9110   15.2175 C   0  0  0  0  0  0  0  0  0  0  0  0
  -14.0846  -15.4904   14.6517 C   0  0  0  0  0  0  0  0  0  0  0  0
  -15.2143  -15.5363   15.6738 C   0  0  0  0  0  0  0  0  0  0  0  0
  -16.3587  -14.7955   15.0213 C   0  0  0  0  0  0  0  0  0  0  0  0
  -15.6865  -16.9694   15.9430 C   0  0  0  0  0  0  0  0  0  0  0  0
  -14.7869  -14.8634   16.9902 C   0  0  0  0  0  0  0  0  0  0  0  0
  -14.8677  -11.0597   10.0607 C   0  0  0  0  0  0  0  0  0  0  0  0
  -13.1797  -12.6520    9.6169 O   0  0  0  0  0  0  0  0  0  0  0  0
  -15.9988  -11.0081   14.8179 H   0  0  0  0  0  0  0  0  0  0  0  0
  -12.6275   -8.5386   11.1265 C   0  0  0  0  0  0  0  0  0  0  0  0
  -13.4208   -7.6728   10.7506 O   0  0  0  0  0  0  0  0  0  0  0  0
  -11.5303   -8.2756   11.8352 N   0  0  0  0  0  0  0  0  0  0  0  0
  -10.8508   -8.9824   11.9248 H   0  0  0  0  0  0  0  0  0  0  0  0
  -11.2866   -6.9995   12.4818 C   0  0  0  0  0  0  0  0  0  0  0  0
   -9.8529   -6.4780   12.2051 C   0  0  0  0  0  0  0  0  0  0  0  0
  -11.0649   -5.8016   11.5669 C   0  0  0  0  0  0  0  0  0  0  0  0
  -12.0008   -6.6742   13.7834 C   0  0  0  0  0  0  0  0  0  0  0  0
  -12.7689   -5.6085   13.7604 N   0  0  0  0  0  0  0  0  0  0  0  0
  -11.7574   -7.3552   14.7752 O   0  0  0  0  0  0  0  0  0  0  0  0
  -12.8610   -5.0455   12.9581 H   0  0  0  0  0  0  0  0  0  0  0  0
  -13.5419   -5.2869   15.1171 S   0  0  0  0  0  0  0  0  0  0  0  0
  -14.3754   -6.4484   15.5414 O   0  0  0  0  0  0  0  0  0  0  0  0
  -12.6463   -4.7916   16.1835 O   0  0  0  0  0  0  0  0  0  0  0  0
  -14.6702   -3.9599   14.6982 C   0  0  0  0  0  0  0  0  0  0  0  0
  -14.6866   -3.6194   13.2163 C   0  0  0  0  0  0  0  0  0  0  0  0
  -15.8542   -4.3962   13.8487 C   0  0  0  0  0  0  0  0  0  0  0  0
   -9.1105   -5.6781   13.2796 C   0  0  0  0  0  0  0  0  0  0  0  0
   -7.9915   -6.5091   13.9210 C   0  0  0  0  0  0  0  0  0  0  0  0
  -16.9837   -9.3088   12.9453 C   0  0  0  0  0  0  0  0  0  0  0  0
  -16.7701   -8.6443   14.3183 C   0  0  0  0  0  0  0  0  0  0  0  0
  -16.6900   -8.3068   11.8392 C   0  0  0  0  0  0  0  0  0  0  0  0
  -18.4574   -9.7157   12.8493 C   0  0  0  0  0  0  0  0  0  0  0  0
 34 36  1  0  0  0
  1  5  1  0  0  0
  1  2  1  0  0  0
 35 34  2  0  0  0
  2 34  1  0  0  0
  3  2  1  0  0  0
  4  3  1  0  0  0
  4 32  1  0  0  0
  5  6  2  0  0  0
  7  5  1  0  0  0
  7  8  1  0  0  0
  8  9  1  0  0  0
  9 10  1  0  0  0
 10 28  1  0  0  0
 53  7  1  0  0  0
 53 55  1  0  0  0
 11  9  2  0  0  0
 12 14  1  0  0  0
 13 12  2  0  0  0
 14 15  1  0  0  0
 14 18  1  0  0  0
 51 39  1  0  0  0
 52 51  1  0  0  0
 54 53  1  0  0  0
 36 38  1  0  0  0
 38 39  1  0  0  0
 38 40  1  0  0  0
 41 38  1  0  0  0
 41 43  2  0  0  0
 39 40  1  0  0  0
 15 16  1  0  0  0
 16 17  2  0  0  0
 16 19  1  0  0  0
 17 22  1  0  0  0
 18 17  1  0  0  0
 19 20  2  0  0  0
 20 21  1  0  0  0
 22 21  2  0  0  0
 22 23  1  0  0  0
 23 24  1  0  0  0
 42 41  1  0  0  0
 45 42  1  0  0  0
 45 47  2  0  0  0
 48 45  1  0  0  0
 48 50  1  0  0  0
 46 45  2  0  0  0
 49 48  1  0  0  0
 49 50  1  0  0  0
 24 25  1  0  0  0
 26 25  1  0  0  0
 27 26  1  0  0  0
 27 29  1  0  0  0
 27 30  1  0  0  0
 28 27  1  0  0  0
 56 53  1  0  0  0
 31  1  1  0  0  0
 31  4  1  0  0  0
 32 12  1  0  0  0
  8 33  1  0  0  0
 36 37  1  0  0  0
 42 44  1  0  0  0
M  END
> <minimizedAffinity>
-8.78111

$$$$
