2YAZ_UMP_A_1265


 24 25  0  0  0  0  0  0  0  0999 V2000
  -18.0727   35.1081   -9.0589 C   0  0  0  0  0  0  0  0  0  0  0  0
  -19.2113   36.0935   -8.8380 C   0  0  0  0  0  0  0  0  0  0  0  0
  -19.4724   36.6443  -10.2236 C   0  0  0  0  0  0  0  0  0  0  0  0
  -18.2306   36.3071  -11.0157 C   0  0  0  0  0  0  0  0  0  0  0  0
  -20.5287   35.9713  -10.8519 O   0  0  0  0  0  0  0  0  0  0  0  0
  -17.3482   35.5942  -10.1635 O   0  0  0  0  0  0  0  0  0  0  0  0
  -20.3224   35.0250  -10.9060 H   0  0  0  0  0  0  0  0  0  0  0  0
  -17.3289   34.9081   -7.7985 N   0  0  0  0  0  0  0  0  0  0  0  0
  -17.9027   34.1008   -6.8215 C   0  0  0  0  0  0  0  0  0  0  0  0
  -17.2876   33.8893   -5.6132 N   0  0  0  0  0  0  0  0  0  0  0  0
  -16.0701   34.4786   -5.3768 C   0  0  0  0  0  0  0  0  0  0  0  0
  -15.4754   35.2951   -6.3457 C   0  0  0  0  0  0  0  0  0  0  0  0
  -16.1169   35.5021   -7.5680 C   0  0  0  0  0  0  0  0  0  0  0  0
  -18.9813   33.5598   -6.9976 O   0  0  0  0  0  0  0  0  0  0  0  0
  -15.5325   34.2785   -4.2928 O   0  0  0  0  0  0  0  0  0  0  0  0
  -17.7120   33.3246   -4.9275 H   0  0  0  0  0  0  0  0  0  0  0  0
  -17.6118   37.6075  -11.5141 C   0  0  0  0  0  0  0  0  0  0  0  0
  -17.6076   37.5983  -12.9287 O   0  0  0  0  0  0  0  0  0  0  0  0
  -17.2551   38.9639  -13.7036 P   0  0  0  0  0  0  0  0  0  0  0  0
  -17.6062   38.6293  -15.1633 O   0  0  0  0  0  0  0  0  0  0  0  0
  -15.8183   39.3673  -13.4160 O   0  0  0  0  0  0  0  0  0  0  0  0
  -18.1339   40.0565  -13.1807 O   0  0  0  0  0  0  0  0  0  0  0  0
  -15.2177   38.6793  -13.7427 H   0  0  0  0  0  0  0  0  0  0  0  0
  -19.0627   39.8322  -13.3476 H   0  0  0  0  0  0  0  0  0  0  0  0
  8  9  1  0  0  0
  8 13  1  0  0  0
  8  1  1  0  0  0
  9 10  1  0  0  0
  9 14  2  0  0  0
 10 11  1  0  0  0
 11 12  1  0  0  0
 11 15  2  0  0  0
 12 13  2  0  0  0
  1  2  1  0  0  0
  1  6  1  0  0  0
  2  3  1  0  0  0
  3  4  1  0  0  0
  3  5  1  0  0  0
  4  6  1  0  0  0
  4 17  1  0  0  0
 17 18  1  0  0  0
 18 19  1  0  0  0
 19 20  2  0  0  0
 19 21  1  0  0  0
 19 22  1  0  0  0
 10 16  1  0  0  0
  5  7  1  0  0  0
 21 23  1  0  0  0
 22 24  1  0  0  0
M  END
> <minimizedAffinity>
-11.14698

$$$$
2YAZ_UMP_A_1265


 24 25  0  0  0  0  0  0  0  0999 V2000
  -18.2499   35.1185   -9.0941 C   0  0  0  0  0  0  0  0  0  0  0  0
  -19.4400   36.0543   -8.9383 C   0  0  0  0  0  0  0  0  0  0  0  0
  -19.6525   36.5879  -10.3389 C   0  0  0  0  0  0  0  0  0  0  0  0
  -18.3580   36.3018  -11.0638 C   0  0  0  0  0  0  0  0  0  0  0  0
  -20.6448   35.8671  -11.0166 O   0  0  0  0  0  0  0  0  0  0  0  0
  -17.4909   35.6313  -10.1629 O   0  0  0  0  0  0  0  0  0  0  0  0
  -20.3954   34.9305  -11.0542 H   0  0  0  0  0  0  0  0  0  0  0  0
  -17.5645   34.9560   -7.7958 N   0  0  0  0  0  0  0  0  0  0  0  0
  -16.1741   35.0012   -7.7802 C   0  0  0  0  0  0  0  0  0  0  0  0
  -15.4636   34.8304   -6.6187 N   0  0  0  0  0  0  0  0  0  0  0  0
  -16.1487   34.6265   -5.4462 C   0  0  0  0  0  0  0  0  0  0  0  0
  -17.5474   34.5767   -5.4396 C   0  0  0  0  0  0  0  0  0  0  0  0
  -18.2539   34.7492   -6.6310 C   0  0  0  0  0  0  0  0  0  0  0  0
  -15.5330   35.1825   -8.8015 O   0  0  0  0  0  0  0  0  0  0  0  0
  -15.4994   34.4772   -4.4166 O   0  0  0  0  0  0  0  0  0  0  0  0
  -14.4794   34.8535   -6.6258 H   0  0  0  0  0  0  0  0  0  0  0  0
  -17.7710   37.6259  -11.5376 C   0  0  0  0  0  0  0  0  0  0  0  0
  -17.6762   37.6042  -12.9490 O   0  0  0  0  0  0  0  0  0  0  0  0
  -17.2769   38.9636  -13.7119 P   0  0  0  0  0  0  0  0  0  0  0  0
  -17.6149   38.6449  -15.1782 O   0  0  0  0  0  0  0  0  0  0  0  0
  -15.8345   39.3282  -13.4012 O   0  0  0  0  0  0  0  0  0  0  0  0
  -18.1347   40.0764  -13.1966 O   0  0  0  0  0  0  0  0  0  0  0  0
  -15.2472   38.6262  -13.7224 H   0  0  0  0  0  0  0  0  0  0  0  0
  -19.0664   39.8771  -13.3783 H   0  0  0  0  0  0  0  0  0  0  0  0
  8  9  1  0  0  0
  8 13  1  0  0  0
  8  1  1  0  0  0
  9 10  1  0  0  0
  9 14  2  0  0  0
 10 11  1  0  0  0
 11 12  1  0  0  0
 11 15  2  0  0  0
 12 13  2  0  0  0
  1  2  1  0  0  0
  1  6  1  0  0  0
  2  3  1  0  0  0
  3  4  1  0  0  0
  3  5  1  0  0  0
  4  6  1  0  0  0
  4 17  1  0  0  0
 17 18  1  0  0  0
 18 19  1  0  0  0
 19 20  2  0  0  0
 19 21  1  0  0  0
 19 22  1  0  0  0
 10 16  1  0  0  0
  5  7  1  0  0  0
 21 23  1  0  0  0
 22 24  1  0  0  0
M  END
> <minimizedAffinity>
-9.85171

$$$$
2YAZ_UMP_A_1265


 24 25  0  0  0  0  0  0  0  0999 V2000
  -16.8374   37.3820  -11.8879 C   0  0  0  0  0  0  0  0  0  0  0  0
  -17.9186   38.0130  -12.7535 C   0  0  0  0  0  0  0  0  0  0  0  0
  -17.1880   39.1291  -13.4692 C   0  0  0  0  0  0  0  0  0  0  0  0
  -15.9283   39.3475  -12.6638 C   0  0  0  0  0  0  0  0  0  0  0  0
  -16.7690   38.7311  -14.7457 O   0  0  0  0  0  0  0  0  0  0  0  0
  -15.9234   38.4122  -11.5969 O   0  0  0  0  0  0  0  0  0  0  0  0
  -16.1926   37.9547  -14.6693 H   0  0  0  0  0  0  0  0  0  0  0  0
  -17.4545   36.6831  -10.7422 N   0  0  0  0  0  0  0  0  0  0  0  0
  -16.7308   35.6646  -10.1305 C   0  0  0  0  0  0  0  0  0  0  0  0
  -17.2466   34.9494   -9.0790 N   0  0  0  0  0  0  0  0  0  0  0  0
  -18.5004   35.2632   -8.6153 C   0  0  0  0  0  0  0  0  0  0  0  0
  -19.2459   36.2838   -9.2167 C   0  0  0  0  0  0  0  0  0  0  0  0
  -18.7069   36.9988  -10.2875 C   0  0  0  0  0  0  0  0  0  0  0  0
  -15.6140   35.3603  -10.5141 O   0  0  0  0  0  0  0  0  0  0  0  0
  -18.9466   34.6160   -7.6741 O   0  0  0  0  0  0  0  0  0  0  0  0
  -16.7266   34.2236   -8.6642 H   0  0  0  0  0  0  0  0  0  0  0  0
  -15.9253   40.7853  -12.1587 C   0  0  0  0  0  0  0  0  0  0  0  0
  -15.4274   41.6271  -13.1808 O   0  0  0  0  0  0  0  0  0  0  0  0
  -16.1416   43.0493  -13.4190 P   0  0  0  0  0  0  0  0  0  0  0  0
  -15.7628   43.8383  -12.1541 O   0  0  0  0  0  0  0  0  0  0  0  0
  -17.6240   42.8470  -13.6863 O   0  0  0  0  0  0  0  0  0  0  0  0
  -15.5554   43.6857  -14.6400 O   0  0  0  0  0  0  0  0  0  0  0  0
  -18.0387   42.4345  -12.9125 H   0  0  0  0  0  0  0  0  0  0  0  0
  -14.6058   43.8305  -14.5049 H   0  0  0  0  0  0  0  0  0  0  0  0
  8  9  1  0  0  0
  8 13  1  0  0  0
  8  1  1  0  0  0
  9 10  1  0  0  0
  9 14  2  0  0  0
 10 11  1  0  0  0
 11 12  1  0  0  0
 11 15  2  0  0  0
 12 13  2  0  0  0
  1  2  1  0  0  0
  1  6  1  0  0  0
  2  3  1  0  0  0
  3  4  1  0  0  0
  3  5  1  0  0  0
  4  6  1  0  0  0
  4 17  1  0  0  0
 17 18  1  0  0  0
 18 19  1  0  0  0
 19 20  2  0  0  0
 19 21  1  0  0  0
 19 22  1  0  0  0
 10 16  1  0  0  0
  5  7  1  0  0  0
 21 23  1  0  0  0
 22 24  1  0  0  0
M  END
> <minimizedAffinity>
-9.07851

$$$$
2YAZ_UMP_A_1265


 24 25  0  0  0  0  0  0  0  0999 V2000
  -17.3867   36.7495  -11.0872 C   0  0  0  0  0  0  0  0  0  0  0  0
  -18.2019   38.0317  -10.9987 C   0  0  0  0  0  0  0  0  0  0  0  0
  -17.6434   38.8806  -12.1208 C   0  0  0  0  0  0  0  0  0  0  0  0
  -16.3106   38.2527  -12.4562 C   0  0  0  0  0  0  0  0  0  0  0  0
  -18.4246   38.7765  -13.2795 O   0  0  0  0  0  0  0  0  0  0  0  0
  -16.1372   37.1204  -11.6190 O   0  0  0  0  0  0  0  0  0  0  0  0
  -18.4681   37.8483  -13.5577 H   0  0  0  0  0  0  0  0  0  0  0  0
  -17.3870   36.0620   -9.7799 N   0  0  0  0  0  0  0  0  0  0  0  0
  -18.5878   35.5303   -9.3209 C   0  0  0  0  0  0  0  0  0  0  0  0
  -18.6759   34.9021   -8.1040 N   0  0  0  0  0  0  0  0  0  0  0  0
  -17.5445   34.7854   -7.3347 C   0  0  0  0  0  0  0  0  0  0  0  0
  -16.3263   35.3138   -7.7771 C   0  0  0  0  0  0  0  0  0  0  0  0
  -16.2558   35.9527   -9.0162 C   0  0  0  0  0  0  0  0  0  0  0  0
  -19.6116   35.6134   -9.9781 O   0  0  0  0  0  0  0  0  0  0  0  0
  -17.6393   34.2199   -6.2506 O   0  0  0  0  0  0  0  0  0  0  0  0
  -19.5356   34.5412   -7.7880 H   0  0  0  0  0  0  0  0  0  0  0  0
  -15.2206   39.2945  -12.2354 C   0  0  0  0  0  0  0  0  0  0  0  0
  -15.2669   40.2344  -13.2917 O   0  0  0  0  0  0  0  0  0  0  0  0
  -15.8739   41.6946  -12.9931 P   0  0  0  0  0  0  0  0  0  0  0  0
  -15.6995   41.8328  -11.4712 O   0  0  0  0  0  0  0  0  0  0  0  0
  -17.2906   41.7880  -13.5353 O   0  0  0  0  0  0  0  0  0  0  0  0
  -15.0549   42.7156  -13.7186 O   0  0  0  0  0  0  0  0  0  0  0  0
  -17.8524   41.1375  -13.0858 H   0  0  0  0  0  0  0  0  0  0  0  0
  -14.1404   42.6846  -13.3969 H   0  0  0  0  0  0  0  0  0  0  0  0
  8  9  1  0  0  0
  8 13  1  0  0  0
  8  1  1  0  0  0
  9 10  1  0  0  0
  9 14  2  0  0  0
 10 11  1  0  0  0
 11 12  1  0  0  0
 11 15  2  0  0  0
 12 13  2  0  0  0
  1  2  1  0  0  0
  1  6  1  0  0  0
  2  3  1  0  0  0
  3  4  1  0  0  0
  3  5  1  0  0  0
  4  6  1  0  0  0
  4 17  1  0  0  0
 17 18  1  0  0  0
 18 19  1  0  0  0
 19 20  2  0  0  0
 19 21  1  0  0  0
 19 22  1  0  0  0
 10 16  1  0  0  0
  5  7  1  0  0  0
 21 23  1  0  0  0
 22 24  1  0  0  0
M  END
> <minimizedAffinity>
-9.00564

$$$$
2YAZ_UMP_A_1265


 24 25  0  0  0  0  0  0  0  0999 V2000
  -17.1096   36.1702  -10.8753 C   0  0  0  0  0  0  0  0  0  0  0  0
  -18.3664   36.8254  -11.4299 C   0  0  0  0  0  0  0  0  0  0  0  0
  -17.8323   38.0184  -12.1936 C   0  0  0  0  0  0  0  0  0  0  0  0
  -16.4306   38.2206  -11.6668 C   0  0  0  0  0  0  0  0  0  0  0  0
  -17.6970   37.7338  -13.5590 O   0  0  0  0  0  0  0  0  0  0  0  0
  -16.1735   37.2079  -10.7069 O   0  0  0  0  0  0  0  0  0  0  0  0
  -17.1034   36.9753  -13.6739 H   0  0  0  0  0  0  0  0  0  0  0  0
  -17.4463   35.3645   -9.6839 N   0  0  0  0  0  0  0  0  0  0  0  0
  -16.6439   34.2672   -9.3885 C   0  0  0  0  0  0  0  0  0  0  0  0
  -16.9080   33.4531   -8.3157 N   0  0  0  0  0  0  0  0  0  0  0  0
  -17.9815   33.7447   -7.5107 C   0  0  0  0  0  0  0  0  0  0  0  0
  -18.8022   34.8434   -7.7904 C   0  0  0  0  0  0  0  0  0  0  0  0
  -18.5207   35.6588   -8.8877 C   0  0  0  0  0  0  0  0  0  0  0  0
  -15.6813   33.9797  -10.0797 O   0  0  0  0  0  0  0  0  0  0  0  0
  -18.2034   33.0086   -6.5551 O   0  0  0  0  0  0  0  0  0  0  0  0
  -16.3375   32.6734   -8.1265 H   0  0  0  0  0  0  0  0  0  0  0  0
  -16.3435   39.6151  -11.0584 C   0  0  0  0  0  0  0  0  0  0  0  0
  -17.0362   40.5219  -11.8946 O   0  0  0  0  0  0  0  0  0  0  0  0
  -16.1887   41.3939  -12.9486 P   0  0  0  0  0  0  0  0  0  0  0  0
  -17.2108   41.6697  -14.0645 O   0  0  0  0  0  0  0  0  0  0  0  0
  -14.9246   40.6474  -13.3416 O   0  0  0  0  0  0  0  0  0  0  0  0
  -15.7624   42.6679  -12.2891 O   0  0  0  0  0  0  0  0  0  0  0  0
  -15.1633   39.8125  -13.7739 H   0  0  0  0  0  0  0  0  0  0  0  0
  -16.5470   43.1728  -12.0237 H   0  0  0  0  0  0  0  0  0  0  0  0
  8  9  1  0  0  0
  8 13  1  0  0  0
  8  1  1  0  0  0
  9 10  1  0  0  0
  9 14  2  0  0  0
 10 11  1  0  0  0
 11 12  1  0  0  0
 11 15  2  0  0  0
 12 13  2  0  0  0
  1  2  1  0  0  0
  1  6  1  0  0  0
  2  3  1  0  0  0
  3  4  1  0  0  0
  3  5  1  0  0  0
  4  6  1  0  0  0
  4 17  1  0  0  0
 17 18  1  0  0  0
 18 19  1  0  0  0
 19 20  2  0  0  0
 19 21  1  0  0  0
 19 22  1  0  0  0
 10 16  1  0  0  0
  5  7  1  0  0  0
 21 23  1  0  0  0
 22 24  1  0  0  0
M  END
> <minimizedAffinity>
-8.88664

$$$$
2YAZ_UMP_A_1265


 24 25  0  0  0  0  0  0  0  0999 V2000
  -16.2579   36.1325   -9.1365 C   0  0  0  0  0  0  0  0  0  0  0  0
  -16.2931   35.0651  -10.2208 C   0  0  0  0  0  0  0  0  0  0  0  0
  -16.2908   35.8682  -11.5040 C   0  0  0  0  0  0  0  0  0  0  0  0
  -16.7036   37.2617  -11.0905 C   0  0  0  0  0  0  0  0  0  0  0  0
  -14.9982   35.9866  -12.0320 O   0  0  0  0  0  0  0  0  0  0  0  0
  -16.8935   37.2627   -9.6844 O   0  0  0  0  0  0  0  0  0  0  0  0
  -14.4190   36.4076  -11.3777 H   0  0  0  0  0  0  0  0  0  0  0  0
  -16.8108   35.5903   -7.8787 N   0  0  0  0  0  0  0  0  0  0  0  0
  -18.1736   35.3156   -7.8281 C   0  0  0  0  0  0  0  0  0  0  0  0
  -18.7674   34.8370   -6.6873 N   0  0  0  0  0  0  0  0  0  0  0  0
  -17.9886   34.6113   -5.5791 C   0  0  0  0  0  0  0  0  0  0  0  0
  -16.6156   34.8816   -5.6081 C   0  0  0  0  0  0  0  0  0  0  0  0
  -16.0289   35.3713   -6.7761 C   0  0  0  0  0  0  0  0  0  0  0  0
  -18.8952   35.5016   -8.7934 O   0  0  0  0  0  0  0  0  0  0  0  0
  -18.5338   34.1820   -4.5679 O   0  0  0  0  0  0  0  0  0  0  0  0
  -19.7353   34.6585   -6.6637 H   0  0  0  0  0  0  0  0  0  0  0  0
  -17.9821   37.6242  -11.8364 C   0  0  0  0  0  0  0  0  0  0  0  0
  -17.7070   37.6587  -13.2236 O   0  0  0  0  0  0  0  0  0  0  0  0
  -17.3769   39.0787  -13.9050 P   0  0  0  0  0  0  0  0  0  0  0  0
  -15.8547   39.0116  -14.1154 O   0  0  0  0  0  0  0  0  0  0  0  0
  -17.9025   40.2071  -13.0330 O   0  0  0  0  0  0  0  0  0  0  0  0
  -18.0933   39.1633  -15.2162 O   0  0  0  0  0  0  0  0  0  0  0  0
  -17.4584   40.1832  -12.1710 H   0  0  0  0  0  0  0  0  0  0  0  0
  -17.7818   38.4550  -15.8011 H   0  0  0  0  0  0  0  0  0  0  0  0
  8  9  1  0  0  0
  8 13  1  0  0  0
  8  1  1  0  0  0
  9 10  1  0  0  0
  9 14  2  0  0  0
 10 11  1  0  0  0
 11 12  1  0  0  0
 11 15  2  0  0  0
 12 13  2  0  0  0
  1  2  1  0  0  0
  1  6  1  0  0  0
  2  3  1  0  0  0
  3  4  1  0  0  0
  3  5  1  0  0  0
  4  6  1  0  0  0
  4 17  1  0  0  0
 17 18  1  0  0  0
 18 19  1  0  0  0
 19 20  2  0  0  0
 19 21  1  0  0  0
 19 22  1  0  0  0
 10 16  1  0  0  0
  5  7  1  0  0  0
 21 23  1  0  0  0
 22 24  1  0  0  0
M  END
> <minimizedAffinity>
-8.57614

$$$$
