2VES_GVR_A_1296


 33 36  0  0  0  0  0  0  0  0999 V2000
   57.0228   40.1168   17.2356 C   0  0  0  0  0  0  0  0  0  0  0  0
   55.9843   41.0248   19.1673 O   0  0  0  0  0  0  0  0  0  0  0  0
   56.9685   41.0119   18.4377 C   0  0  0  0  0  0  0  0  0  0  0  0
   58.0017   41.7938   18.7180 N   0  0  0  0  0  0  0  0  0  0  0  0
   57.9015   42.6009   19.8597 O   0  0  0  0  0  0  0  0  0  0  0  0
   58.8049   41.8070   18.1488 H   0  0  0  0  0  0  0  0  0  0  0  0
   57.0439   42.4509   20.2875 H   0  0  0  0  0  0  0  0  0  0  0  0
   58.2431   40.2801   16.4862 N   0  0  0  0  0  0  0  0  0  0  0  0
   58.5804   41.2252   16.6690 H   0  0  0  0  0  0  0  0  0  0  0  0
   59.4510   39.3000   16.7545 S   0  0  0  0  0  0  0  0  0  0  0  0
   59.6547   39.1801   18.1689 O   0  0  0  0  0  0  0  0  0  0  0  0
   60.6018   39.8303   16.0805 O   0  0  0  0  0  0  0  0  0  0  0  0
   59.0729   37.8711   16.1011 C   0  0  0  0  0  0  0  0  0  0  0  0
   59.1487   37.7400   14.7061 C   0  0  0  0  0  0  0  0  0  0  0  0
   58.8416   36.5341   14.0643 C   0  0  0  0  0  0  0  0  0  0  0  0
   58.4542   35.4233   14.8043 C   0  0  0  0  0  0  0  0  0  0  0  0
   58.1465   34.2083   14.1943 C   0  0  0  0  0  0  0  0  0  0  0  0
   58.3680   35.5466   16.2781 C   0  0  0  0  0  0  0  0  0  0  0  0
   58.6814   36.7694   16.8823 C   0  0  0  0  0  0  0  0  0  0  0  0
   57.9758   34.4241   17.0141 C   0  0  0  0  0  0  0  0  0  0  0  0
   57.6626   33.2275   16.3564 C   0  0  0  0  0  0  0  0  0  0  0  0
   57.7578   33.1156   14.9699 C   0  0  0  0  0  0  0  0  0  0  0  0
   55.8710   40.3815   16.2822 C   0  0  0  0  0  0  0  0  0  0  0  0
   55.7072   39.2501   15.2826 C   0  0  0  0  0  0  0  0  0  0  0  0
   55.8842   39.4971   13.9207 C   0  0  0  0  0  0  0  0  0  0  0  0
   55.7193   38.4794   12.9823 C   0  0  0  0  0  0  0  0  0  0  0  0
   55.3629   37.2016   13.3970 C   0  0  0  0  0  0  0  0  0  0  0  0
   55.1895   36.1506   12.4935 C   0  0  0  0  0  0  0  0  0  0  0  0
   55.1715   36.9383   14.8388 C   0  0  0  0  0  0  0  0  0  0  0  0
   54.8167   35.6662   15.2705 C   0  0  0  0  0  0  0  0  0  0  0  0
   54.6548   34.6435   14.3315 C   0  0  0  0  0  0  0  0  0  0  0  0
   54.8259   34.8925   12.9690 C   0  0  0  0  0  0  0  0  0  0  0  0
   55.3449   37.9879   15.7323 C   0  0  0  0  0  0  0  0  0  0  0  0
  2  3  2  0  0  0
  3  4  1  0  0  0
  3  1  1  0  0  0
  4  5  1  0  0  0
  1 23  1  0  0  0
  1  8  1  0  0  0
 23 24  1  0  0  0
 24 25  1  0  0  0
 24 33  2  0  0  0
 25 26  2  0  0  0
 26 27  1  0  0  0
 27 28  1  0  0  0
 27 29  2  0  0  0
 28 32  2  0  0  0
 29 30  1  0  0  0
 29 33  1  0  0  0
 30 31  2  0  0  0
 31 32  1  0  0  0
  8 10  1  0  0  0
 10 11  2  0  0  0
 10 12  2  0  0  0
 10 13  1  0  0  0
 13 14  1  0  0  0
 13 19  2  0  0  0
 14 15  2  0  0  0
 15 16  1  0  0  0
 16 17  1  0  0  0
 16 18  2  0  0  0
 17 22  2  0  0  0
 18 19  1  0  0  0
 18 20  1  0  0  0
 20 21  2  0  0  0
 21 22  1  0  0  0
  4  6  1  0  0  0
  5  7  1  0  0  0
  8  9  1  0  0  0
M  END
> <minimizedAffinity>
-10.07937

$$$$
2VES_GVR_A_1296


 33 36  0  0  0  0  0  0  0  0999 V2000
   56.1149   40.4270   16.7738 C   0  0  0  0  0  0  0  0  0  0  0  0
   56.1236   42.3878   18.1116 O   0  0  0  0  0  0  0  0  0  0  0  0
   55.5223   41.3753   17.7731 C   0  0  0  0  0  0  0  0  0  0  0  0
   54.3296   41.1180   18.2915 N   0  0  0  0  0  0  0  0  0  0  0  0
   53.8191   42.0440   19.2117 O   0  0  0  0  0  0  0  0  0  0  0  0
   53.8241   40.3112   18.0409 H   0  0  0  0  0  0  0  0  0  0  0  0
   54.4552   42.7667   19.3298 H   0  0  0  0  0  0  0  0  0  0  0  0
   57.5456   40.5664   16.6684 N   0  0  0  0  0  0  0  0  0  0  0  0
   57.7821   41.4900   17.0309 H   0  0  0  0  0  0  0  0  0  0  0  0
   58.4789   39.5292   17.4064 S   0  0  0  0  0  0  0  0  0  0  0  0
   57.9758   39.3016   18.7298 O   0  0  0  0  0  0  0  0  0  0  0  0
   59.8097   40.0668   17.4134 O   0  0  0  0  0  0  0  0  0  0  0  0
   58.4696   38.1643   16.5410 C   0  0  0  0  0  0  0  0  0  0  0  0
   58.7944   38.2420   15.1781 C   0  0  0  0  0  0  0  0  0  0  0  0
   58.8130   37.1045   14.3619 C   0  0  0  0  0  0  0  0  0  0  0  0
   58.5106   35.8554   14.8908 C   0  0  0  0  0  0  0  0  0  0  0  0
   58.5250   34.7045   14.1045 C   0  0  0  0  0  0  0  0  0  0  0  0
   58.1642   35.7575   16.3279 C   0  0  0  0  0  0  0  0  0  0  0  0
   58.1550   36.9177   17.1104 C   0  0  0  0  0  0  0  0  0  0  0  0
   57.8600   34.4967   16.8507 C   0  0  0  0  0  0  0  0  0  0  0  0
   57.8736   33.3696   16.0188 C   0  0  0  0  0  0  0  0  0  0  0  0
   58.2125   33.4679   14.6699 C   0  0  0  0  0  0  0  0  0  0  0  0
   55.5392   40.6382   15.3847 C   0  0  0  0  0  0  0  0  0  0  0  0
   55.4906   39.3384   14.6009 C   0  0  0  0  0  0  0  0  0  0  0  0
   55.7350   39.3476   13.2271 C   0  0  0  0  0  0  0  0  0  0  0  0
   55.6761   38.1705   12.4827 C   0  0  0  0  0  0  0  0  0  0  0  0
   55.3596   36.9687   13.1051 C   0  0  0  0  0  0  0  0  0  0  0  0
   55.2917   35.7645   12.4006 C   0  0  0  0  0  0  0  0  0  0  0  0
   55.0969   36.9569   14.5596 C   0  0  0  0  0  0  0  0  0  0  0  0
   54.7806   35.7639   15.1977 C   0  0  0  0  0  0  0  0  0  0  0  0
   54.7250   34.5818   14.4538 C   0  0  0  0  0  0  0  0  0  0  0  0
   54.9634   34.5926   13.0787 C   0  0  0  0  0  0  0  0  0  0  0  0
   55.1653   38.1579   15.2545 C   0  0  0  0  0  0  0  0  0  0  0  0
  2  3  2  0  0  0
  3  4  1  0  0  0
  3  1  1  0  0  0
  4  5  1  0  0  0
  1 23  1  0  0  0
  1  8  1  0  0  0
 23 24  1  0  0  0
 24 25  1  0  0  0
 24 33  2  0  0  0
 25 26  2  0  0  0
 26 27  1  0  0  0
 27 28  1  0  0  0
 27 29  2  0  0  0
 28 32  2  0  0  0
 29 30  1  0  0  0
 29 33  1  0  0  0
 30 31  2  0  0  0
 31 32  1  0  0  0
  8 10  1  0  0  0
 10 11  2  0  0  0
 10 12  2  0  0  0
 10 13  1  0  0  0
 13 14  1  0  0  0
 13 19  2  0  0  0
 14 15  2  0  0  0
 15 16  1  0  0  0
 16 17  1  0  0  0
 16 18  2  0  0  0
 17 22  2  0  0  0
 18 19  1  0  0  0
 18 20  1  0  0  0
 20 21  2  0  0  0
 21 22  1  0  0  0
  4  6  1  0  0  0
  5  7  1  0  0  0
  8  9  1  0  0  0
M  END
> <minimizedAffinity>
-9.93246

$$$$
2VES_GVR_A_1296


 33 36  0  0  0  0  0  0  0  0999 V2000
   58.1293   39.6890   17.6557 C   0  0  0  0  0  0  0  0  0  0  0  0
   59.5499   40.8317   19.1757 O   0  0  0  0  0  0  0  0  0  0  0  0
   58.4465   40.7688   18.6469 C   0  0  0  0  0  0  0  0  0  0  0  0
   57.5231   41.6707   18.9493 N   0  0  0  0  0  0  0  0  0  0  0  0
   57.8776   42.6638   19.8728 O   0  0  0  0  0  0  0  0  0  0  0  0
   56.6268   41.6441   18.5427 H   0  0  0  0  0  0  0  0  0  0  0  0
   58.7937   42.5258   20.1602 H   0  0  0  0  0  0  0  0  0  0  0  0
   56.7166   39.4132   17.5800 N   0  0  0  0  0  0  0  0  0  0  0  0
   56.2982   39.7647   18.4412 H   0  0  0  0  0  0  0  0  0  0  0  0
   55.8767   40.0085   16.3835 S   0  0  0  0  0  0  0  0  0  0  0  0
   56.6126   41.0809   15.7794 O   0  0  0  0  0  0  0  0  0  0  0  0
   54.6136   40.4418   16.9095 O   0  0  0  0  0  0  0  0  0  0  0  0
   55.6219   38.8136   15.3256 C   0  0  0  0  0  0  0  0  0  0  0  0
   55.7741   39.0951   13.9593 C   0  0  0  0  0  0  0  0  0  0  0  0
   55.5755   38.1133   12.9810 C   0  0  0  0  0  0  0  0  0  0  0  0
   55.2229   36.8194   13.3457 C   0  0  0  0  0  0  0  0  0  0  0  0
   55.0227   35.8198   12.3950 C   0  0  0  0  0  0  0  0  0  0  0  0
   55.0569   36.5073   14.7843 C   0  0  0  0  0  0  0  0  0  0  0  0
   55.2627   37.5163   15.7319 C   0  0  0  0  0  0  0  0  0  0  0  0
   54.7005   35.2031   15.1415 C   0  0  0  0  0  0  0  0  0  0  0  0
   54.4959   34.2346   14.1502 C   0  0  0  0  0  0  0  0  0  0  0  0
   54.6659   34.5328   12.7988 C   0  0  0  0  0  0  0  0  0  0  0  0
   58.8242   38.3838   18.0011 C   0  0  0  0  0  0  0  0  0  0  0  0
   58.7072   37.3770   16.8702 C   0  0  0  0  0  0  0  0  0  0  0  0
   58.9225   37.7853   15.5534 C   0  0  0  0  0  0  0  0  0  0  0  0
   58.8009   36.8842   14.4966 C   0  0  0  0  0  0  0  0  0  0  0  0
   58.4500   35.5627   14.7460 C   0  0  0  0  0  0  0  0  0  0  0  0
   58.3193   34.6242   13.7196 C   0  0  0  0  0  0  0  0  0  0  0  0
   58.2181   35.1285   16.1397 C   0  0  0  0  0  0  0  0  0  0  0  0
   57.8682   33.8107   16.4066 C   0  0  0  0  0  0  0  0  0  0  0  0
   57.7497   32.9046   15.3488 C   0  0  0  0  0  0  0  0  0  0  0  0
   57.9591   33.3150   14.0314 C   0  0  0  0  0  0  0  0  0  0  0  0
   58.3491   36.0668   17.1559 C   0  0  0  0  0  0  0  0  0  0  0  0
  2  3  2  0  0  0
  3  4  1  0  0  0
  3  1  1  0  0  0
  4  5  1  0  0  0
  1 23  1  0  0  0
  1  8  1  0  0  0
 23 24  1  0  0  0
 24 25  1  0  0  0
 24 33  2  0  0  0
 25 26  2  0  0  0
 26 27  1  0  0  0
 27 28  1  0  0  0
 27 29  2  0  0  0
 28 32  2  0  0  0
 29 30  1  0  0  0
 29 33  1  0  0  0
 30 31  2  0  0  0
 31 32  1  0  0  0
  8 10  1  0  0  0
 10 11  2  0  0  0
 10 12  2  0  0  0
 10 13  1  0  0  0
 13 14  1  0  0  0
 13 19  2  0  0  0
 14 15  2  0  0  0
 15 16  1  0  0  0
 16 17  1  0  0  0
 16 18  2  0  0  0
 17 22  2  0  0  0
 18 19  1  0  0  0
 18 20  1  0  0  0
 20 21  2  0  0  0
 21 22  1  0  0  0
  4  6  1  0  0  0
  5  7  1  0  0  0
  8  9  1  0  0  0
M  END
> <minimizedAffinity>
-9.11782

$$$$
2VES_GVR_A_1296


 33 36  0  0  0  0  0  0  0  0999 V2000
   54.9075   43.0325   16.6192 C   0  0  0  0  0  0  0  0  0  0  0  0
   54.5915   45.3784   16.4423 O   0  0  0  0  0  0  0  0  0  0  0  0
   54.6358   44.3982   17.1761 C   0  0  0  0  0  0  0  0  0  0  0  0
   54.4343   44.5453   18.4781 N   0  0  0  0  0  0  0  0  0  0  0  0
   54.1734   45.8420   18.9421 O   0  0  0  0  0  0  0  0  0  0  0  0
   54.4665   43.7769   19.0926 H   0  0  0  0  0  0  0  0  0  0  0  0
   54.1822   46.4607   18.1951 H   0  0  0  0  0  0  0  0  0  0  0  0
   56.1838   42.5130   17.0416 N   0  0  0  0  0  0  0  0  0  0  0  0
   56.6336   43.2423   17.5949 H   0  0  0  0  0  0  0  0  0  0  0  0
   56.2331   41.1884   17.8985 S   0  0  0  0  0  0  0  0  0  0  0  0
   54.9440   40.9573   18.4826 O   0  0  0  0  0  0  0  0  0  0  0  0
   57.2603   41.3464   18.8884 O   0  0  0  0  0  0  0  0  0  0  0  0
   56.6432   39.9811   16.9055 C   0  0  0  0  0  0  0  0  0  0  0  0
   57.8311   40.1042   16.1687 C   0  0  0  0  0  0  0  0  0  0  0  0
   58.2577   39.1005   15.2906 C   0  0  0  0  0  0  0  0  0  0  0  0
   57.5068   37.9420   15.1300 C   0  0  0  0  0  0  0  0  0  0  0  0
   57.9079   36.9236   14.2669 C   0  0  0  0  0  0  0  0  0  0  0  0
   56.2494   37.7982   15.9000 C   0  0  0  0  0  0  0  0  0  0  0  0
   55.8560   38.8243   16.7664 C   0  0  0  0  0  0  0  0  0  0  0  0
   55.5000   36.6298   15.7306 C   0  0  0  0  0  0  0  0  0  0  0  0
   55.9353   35.6390   14.8410 C   0  0  0  0  0  0  0  0  0  0  0  0
   57.1262   35.7762   14.1289 C   0  0  0  0  0  0  0  0  0  0  0  0
   54.9016   43.0305   15.1007 C   0  0  0  0  0  0  0  0  0  0  0  0
   54.4932   41.6758   14.5494 C   0  0  0  0  0  0  0  0  0  0  0  0
   53.3447   41.0480   15.0330 C   0  0  0  0  0  0  0  0  0  0  0  0
   52.9605   39.7953   14.5572 C   0  0  0  0  0  0  0  0  0  0  0  0
   53.7306   39.1496   13.5970 C   0  0  0  0  0  0  0  0  0  0  0  0
   53.3835   37.8956   13.0890 C   0  0  0  0  0  0  0  0  0  0  0  0
   54.9495   39.8110   13.0856 C   0  0  0  0  0  0  0  0  0  0  0  0
   55.7297   39.1801   12.1245 C   0  0  0  0  0  0  0  0  0  0  0  0
   55.3441   37.9257   11.6432 C   0  0  0  0  0  0  0  0  0  0  0  0
   54.1988   37.2956   12.1318 C   0  0  0  0  0  0  0  0  0  0  0  0
   55.2897   41.0578   13.5953 C   0  0  0  0  0  0  0  0  0  0  0  0
  2  3  2  0  0  0
  3  4  1  0  0  0
  3  1  1  0  0  0
  4  5  1  0  0  0
  1 23  1  0  0  0
  1  8  1  0  0  0
 23 24  1  0  0  0
 24 25  1  0  0  0
 24 33  2  0  0  0
 25 26  2  0  0  0
 26 27  1  0  0  0
 27 28  1  0  0  0
 27 29  2  0  0  0
 28 32  2  0  0  0
 29 30  1  0  0  0
 29 33  1  0  0  0
 30 31  2  0  0  0
 31 32  1  0  0  0
  8 10  1  0  0  0
 10 11  2  0  0  0
 10 12  2  0  0  0
 10 13  1  0  0  0
 13 14  1  0  0  0
 13 19  2  0  0  0
 14 15  2  0  0  0
 15 16  1  0  0  0
 16 17  1  0  0  0
 16 18  2  0  0  0
 17 22  2  0  0  0
 18 19  1  0  0  0
 18 20  1  0  0  0
 20 21  2  0  0  0
 21 22  1  0  0  0
  4  6  1  0  0  0
  5  7  1  0  0  0
  8  9  1  0  0  0
M  END
> <minimizedAffinity>
-7.60473

$$$$
2VES_GVR_A_1296


 33 36  0  0  0  0  0  0  0  0999 V2000
   55.8661   40.8138   16.8825 C   0  0  0  0  0  0  0  0  0  0  0  0
   53.7801   40.1790   17.8204 O   0  0  0  0  0  0  0  0  0  0  0  0
   54.6878   41.0014   17.7910 C   0  0  0  0  0  0  0  0  0  0  0  0
   54.6313   42.0673   18.5771 N   0  0  0  0  0  0  0  0  0  0  0  0
   53.5130   42.1860   19.4139 O   0  0  0  0  0  0  0  0  0  0  0  0
   55.3441   42.7464   18.5734 H   0  0  0  0  0  0  0  0  0  0  0  0
   52.9249   41.4268   19.2774 H   0  0  0  0  0  0  0  0  0  0  0  0
   57.0867   41.3210   17.4572 N   0  0  0  0  0  0  0  0  0  0  0  0
   56.8207   41.9295   18.2315 H   0  0  0  0  0  0  0  0  0  0  0  0
   58.1573   40.3051   18.0168 S   0  0  0  0  0  0  0  0  0  0  0  0
   57.7350   39.8381   19.3052 O   0  0  0  0  0  0  0  0  0  0  0  0
   59.4197   40.9860   18.0700 O   0  0  0  0  0  0  0  0  0  0  0  0
   58.2649   39.0828   16.9650 C   0  0  0  0  0  0  0  0  0  0  0  0
   58.8566   39.3329   15.7174 C   0  0  0  0  0  0  0  0  0  0  0  0
   58.9910   38.3261   14.7536 C   0  0  0  0  0  0  0  0  0  0  0  0
   58.5396   37.0380   15.0158 C   0  0  0  0  0  0  0  0  0  0  0  0
   58.6634   36.0141   14.0782 C   0  0  0  0  0  0  0  0  0  0  0  0
   57.9112   36.7590   16.3280 C   0  0  0  0  0  0  0  0  0  0  0  0
   57.7937   37.7923   17.2643 C   0  0  0  0  0  0  0  0  0  0  0  0
   57.4587   35.4604   16.5820 C   0  0  0  0  0  0  0  0  0  0  0  0
   57.5917   34.4665   15.6037 C   0  0  0  0  0  0  0  0  0  0  0  0
   58.1953   34.7338   14.3756 C   0  0  0  0  0  0  0  0  0  0  0  0
   55.6701   41.5169   15.5510 C   0  0  0  0  0  0  0  0  0  0  0  0
   55.5308   40.5210   14.4131 C   0  0  0  0  0  0  0  0  0  0  0  0
   55.3644   39.1646   14.6953 C   0  0  0  0  0  0  0  0  0  0  0  0
   55.2547   38.2289   13.6677 C   0  0  0  0  0  0  0  0  0  0  0  0
   55.3222   38.6404   12.3419 C   0  0  0  0  0  0  0  0  0  0  0  0
   55.2145   37.7395   11.2798 C   0  0  0  0  0  0  0  0  0  0  0  0
   55.5019   40.0761   12.0404 C   0  0  0  0  0  0  0  0  0  0  0  0
   55.5698   40.5046   10.7204 C   0  0  0  0  0  0  0  0  0  0  0  0
   55.4560   39.5685    9.6886 C   0  0  0  0  0  0  0  0  0  0  0  0
   55.2958   38.2113    9.9715 C   0  0  0  0  0  0  0  0  0  0  0  0
   55.6090   40.9670   13.1010 C   0  0  0  0  0  0  0  0  0  0  0  0
  2  3  2  0  0  0
  3  4  1  0  0  0
  3  1  1  0  0  0
  4  5  1  0  0  0
  1 23  1  0  0  0
  1  8  1  0  0  0
 23 24  1  0  0  0
 24 25  1  0  0  0
 24 33  2  0  0  0
 25 26  2  0  0  0
 26 27  1  0  0  0
 27 28  1  0  0  0
 27 29  2  0  0  0
 28 32  2  0  0  0
 29 30  1  0  0  0
 29 33  1  0  0  0
 30 31  2  0  0  0
 31 32  1  0  0  0
  8 10  1  0  0  0
 10 11  2  0  0  0
 10 12  2  0  0  0
 10 13  1  0  0  0
 13 14  1  0  0  0
 13 19  2  0  0  0
 14 15  2  0  0  0
 15 16  1  0  0  0
 16 17  1  0  0  0
 16 18  2  0  0  0
 17 22  2  0  0  0
 18 19  1  0  0  0
 18 20  1  0  0  0
 20 21  2  0  0  0
 21 22  1  0  0  0
  4  6  1  0  0  0
  5  7  1  0  0  0
  8  9  1  0  0  0
M  END
> <minimizedAffinity>
-7.56933

$$$$
2VES_GVR_A_1296


 33 36  0  0  0  0  0  0  0  0999 V2000
   54.7527   40.3532   14.5185 C   0  0  0  0  0  0  0  0  0  0  0  0
   53.8311   42.4964   14.9560 O   0  0  0  0  0  0  0  0  0  0  0  0
   54.7852   41.8524   14.5363 C   0  0  0  0  0  0  0  0  0  0  0  0
   55.8629   42.4885   14.0988 N   0  0  0  0  0  0  0  0  0  0  0  0
   55.8431   43.8892   14.1492 O   0  0  0  0  0  0  0  0  0  0  0  0
   56.6436   41.9981   13.7534 H   0  0  0  0  0  0  0  0  0  0  0  0
   54.9966   44.1876   14.5168 H   0  0  0  0  0  0  0  0  0  0  0  0
   53.7198   39.8383   13.6552 N   0  0  0  0  0  0  0  0  0  0  0  0
   53.1396   40.6307   13.3799 H   0  0  0  0  0  0  0  0  0  0  0  0
   54.1263   39.0827   12.3303 S   0  0  0  0  0  0  0  0  0  0  0  0
   54.9302   39.9515   11.5207 O   0  0  0  0  0  0  0  0  0  0  0  0
   52.9179   38.6824   11.6674 O   0  0  0  0  0  0  0  0  0  0  0  0
   54.9525   37.7610   12.7575 C   0  0  0  0  0  0  0  0  0  0  0  0
   54.2642   36.5396   12.8147 C   0  0  0  0  0  0  0  0  0  0  0  0
   54.9095   35.3494   13.1719 C   0  0  0  0  0  0  0  0  0  0  0  0
   56.2653   35.3499   13.4774 C   0  0  0  0  0  0  0  0  0  0  0  0
   56.9361   34.1805   13.8321 C   0  0  0  0  0  0  0  0  0  0  0  0
   57.0052   36.6321   13.4230 C   0  0  0  0  0  0  0  0  0  0  0  0
   56.3244   37.8006   13.0632 C   0  0  0  0  0  0  0  0  0  0  0  0
   58.3687   36.6228   13.7335 C   0  0  0  0  0  0  0  0  0  0  0  0
   58.9977   35.4254   14.0984 C   0  0  0  0  0  0  0  0  0  0  0  0
   58.2973   34.2204   14.1357 C   0  0  0  0  0  0  0  0  0  0  0  0
   54.5104   39.7772   15.9024 C   0  0  0  0  0  0  0  0  0  0  0  0
   55.7101   38.9849   16.3913 C   0  0  0  0  0  0  0  0  0  0  0  0
   56.9091   39.6427   16.6685 C   0  0  0  0  0  0  0  0  0  0  0  0
   58.0301   38.9344   17.0990 C   0  0  0  0  0  0  0  0  0  0  0  0
   57.9665   37.5538   17.2462 C   0  0  0  0  0  0  0  0  0  0  0  0
   59.0628   36.8031   17.6773 C   0  0  0  0  0  0  0  0  0  0  0  0
   56.6986   36.8544   16.9499 C   0  0  0  0  0  0  0  0  0  0  0  0
   56.6175   35.4748   17.0934 C   0  0  0  0  0  0  0  0  0  0  0  0
   57.7391   34.7632   17.5287 C   0  0  0  0  0  0  0  0  0  0  0  0
   58.9398   35.4208   17.7999 C   0  0  0  0  0  0  0  0  0  0  0  0
   55.6121   37.6065   16.5210 C   0  0  0  0  0  0  0  0  0  0  0  0
  2  3  2  0  0  0
  3  4  1  0  0  0
  3  1  1  0  0  0
  4  5  1  0  0  0
  1 23  1  0  0  0
  1  8  1  0  0  0
 23 24  1  0  0  0
 24 25  1  0  0  0
 24 33  2  0  0  0
 25 26  2  0  0  0
 26 27  1  0  0  0
 27 28  1  0  0  0
 27 29  2  0  0  0
 28 32  2  0  0  0
 29 30  1  0  0  0
 29 33  1  0  0  0
 30 31  2  0  0  0
 31 32  1  0  0  0
  8 10  1  0  0  0
 10 11  2  0  0  0
 10 12  2  0  0  0
 10 13  1  0  0  0
 13 14  1  0  0  0
 13 19  2  0  0  0
 14 15  2  0  0  0
 15 16  1  0  0  0
 16 17  1  0  0  0
 16 18  2  0  0  0
 17 22  2  0  0  0
 18 19  1  0  0  0
 18 20  1  0  0  0
 20 21  2  0  0  0
 21 22  1  0  0  0
  4  6  1  0  0  0
  5  7  1  0  0  0
  8  9  1  0  0  0
M  END
> <minimizedAffinity>
-7.49488

$$$$
2VES_GVR_A_1296


 33 36  0  0  0  0  0  0  0  0999 V2000
   56.4696   36.1482   15.7271 C   0  0  0  0  0  0  0  0  0  0  0  0
   56.7478   33.7911   15.7026 O   0  0  0  0  0  0  0  0  0  0  0  0
   57.0432   34.8569   16.2297 C   0  0  0  0  0  0  0  0  0  0  0  0
   57.8860   34.8701   17.2529 N   0  0  0  0  0  0  0  0  0  0  0  0
   58.4003   33.6357   17.6735 O   0  0  0  0  0  0  0  0  0  0  0  0
   58.1398   35.7106   17.6983 H   0  0  0  0  0  0  0  0  0  0  0  0
   58.0376   32.9281   17.1179 H   0  0  0  0  0  0  0  0  0  0  0  0
   56.4267   37.1629   16.7498 N   0  0  0  0  0  0  0  0  0  0  0  0
   56.8139   36.7479   17.5973 H   0  0  0  0  0  0  0  0  0  0  0  0
   57.1858   38.5270   16.5166 S   0  0  0  0  0  0  0  0  0  0  0  0
   58.3137   38.2978   15.6611 O   0  0  0  0  0  0  0  0  0  0  0  0
   57.5704   39.0382   17.8014 O   0  0  0  0  0  0  0  0  0  0  0  0
   56.1416   39.5549   15.8346 C   0  0  0  0  0  0  0  0  0  0  0  0
   54.9154   39.7780   16.4792 C   0  0  0  0  0  0  0  0  0  0  0  0
   53.9596   40.6567   15.9549 C   0  0  0  0  0  0  0  0  0  0  0  0
   54.2088   41.3404   14.7708 C   0  0  0  0  0  0  0  0  0  0  0  0
   53.2788   42.2247   14.2266 C   0  0  0  0  0  0  0  0  0  0  0  0
   55.4984   41.1141   14.0778 C   0  0  0  0  0  0  0  0  0  0  0  0
   56.4273   40.2267   14.6329 C   0  0  0  0  0  0  0  0  0  0  0  0
   55.7394   41.8053   12.8864 C   0  0  0  0  0  0  0  0  0  0  0  0
   54.7691   42.6737   12.3696 C   0  0  0  0  0  0  0  0  0  0  0  0
   53.5626   42.8908   13.0339 C   0  0  0  0  0  0  0  0  0  0  0  0
   55.0534   35.9729   15.2081 C   0  0  0  0  0  0  0  0  0  0  0  0
   54.7936   36.8519   13.9974 C   0  0  0  0  0  0  0  0  0  0  0  0
   55.7779   36.9922   13.0183 C   0  0  0  0  0  0  0  0  0  0  0  0
   55.5706   37.8095   11.9082 C   0  0  0  0  0  0  0  0  0  0  0  0
   54.3761   38.5068   11.7709 C   0  0  0  0  0  0  0  0  0  0  0  0
   54.1230   39.3347   10.6747 C   0  0  0  0  0  0  0  0  0  0  0  0
   53.3333   38.3626   12.8083 C   0  0  0  0  0  0  0  0  0  0  0  0
   52.1329   39.0514   12.6857 C   0  0  0  0  0  0  0  0  0  0  0  0
   51.9214   39.8682   11.5714 C   0  0  0  0  0  0  0  0  0  0  0  0
   52.9087   40.0130   10.5956 C   0  0  0  0  0  0  0  0  0  0  0  0
   53.5913   37.5382   13.8964 C   0  0  0  0  0  0  0  0  0  0  0  0
  2  3  2  0  0  0
  3  4  1  0  0  0
  3  1  1  0  0  0
  4  5  1  0  0  0
  1 23  1  0  0  0
  1  8  1  0  0  0
 23 24  1  0  0  0
 24 25  1  0  0  0
 24 33  2  0  0  0
 25 26  2  0  0  0
 26 27  1  0  0  0
 27 28  1  0  0  0
 27 29  2  0  0  0
 28 32  2  0  0  0
 29 30  1  0  0  0
 29 33  1  0  0  0
 30 31  2  0  0  0
 31 32  1  0  0  0
  8 10  1  0  0  0
 10 11  2  0  0  0
 10 12  2  0  0  0
 10 13  1  0  0  0
 13 14  1  0  0  0
 13 19  2  0  0  0
 14 15  2  0  0  0
 15 16  1  0  0  0
 16 17  1  0  0  0
 16 18  2  0  0  0
 17 22  2  0  0  0
 18 19  1  0  0  0
 18 20  1  0  0  0
 20 21  2  0  0  0
 21 22  1  0  0  0
  4  6  1  0  0  0
  5  7  1  0  0  0
  8  9  1  0  0  0
M  END
> <minimizedAffinity>
-7.27131

$$$$
