4KNM_E1E_A_302


 25 26  0  0  0  0  0  0  0  0999 V2000
   10.4741   -4.2505    9.9094 C   0  0  0  0  0  0  0  0  0  0  0  0
   11.6992   -3.3191    8.0218 C   0  0  0  0  0  0  0  0  0  0  0  0
   12.2970   -4.5818    7.7772 C   0  0  0  0  0  0  0  0  0  0  0  0
   10.0365   -1.6133    9.3721 Cl  0  0  0  0  0  0  0  0  0  0  0  0
   10.8073   -3.1413    9.0885 C   0  0  0  0  0  0  0  0  0  0  0  0
   11.0584   -5.4771    9.6825 C   0  0  0  0  0  0  0  0  0  0  0  0
   11.9769   -5.6511    8.6065 C   0  0  0  0  0  0  0  0  0  0  0  0
   12.1715   -1.9161    7.0083 S   0  0  0  0  0  0  0  0  0  0  0  0
   13.1103   -1.1225    7.8979 O   0  0  0  0  0  0  0  0  0  0  0  0
   13.2385   -2.5518    5.6566 N   0  0  0  0  0  0  0  0  0  0  0  0
   10.8683   -1.0396    6.4587 O   0  0  0  0  0  0  0  0  0  0  0  0
   14.0158   -3.0779    6.0559 H   0  0  0  0  0  0  0  0  0  0  0  0
   13.6014   -1.7687    5.1131 H   0  0  0  0  0  0  0  0  0  0  0  0
   10.6634   -6.5916   10.6043 C   0  0  0  0  0  0  0  0  0  0  0  0
    9.6938   -7.3209   10.2812 O   0  0  0  0  0  0  0  0  0  0  0  0
   11.4387   -6.8095   11.8772 C   0  0  0  0  0  0  0  0  0  0  0  0
   11.8437   -8.5768   12.0214 S   0  0  0  0  0  0  0  0  0  0  0  0
   12.7822   -8.7143   10.5014 C   0  0  0  0  0  0  0  0  0  0  0  0
   13.9563   -8.0374   10.2189 N   0  0  0  0  0  0  0  0  0  0  0  0
   14.5871   -8.2592    9.0201 C   0  0  0  0  0  0  0  0  0  0  0  0
   15.8497   -7.5330    8.7016 C   0  0  0  0  0  0  0  0  0  0  0  0
   14.0411   -9.1809    8.0916 C   0  0  0  0  0  0  0  0  0  0  0  0
   12.8477   -9.8500    8.4234 C   0  0  0  0  0  0  0  0  0  0  0  0
   12.2488   -9.5868    9.6102 N   0  0  0  0  0  0  0  0  0  0  0  0
   12.1625  -10.8473    7.5456 C   0  0  0  0  0  0  0  0  0  0  0  0
 25 23  1  0  0  0
 23 24  2  0  0  0
 23 22  1  0  0  0
 24 18  1  0  0  0
 22 20  2  0  0  0
 18 17  1  0  0  0
 18 19  2  0  0  0
 17 16  1  0  0  0
 20 19  1  0  0  0
 20 21  1  0  0  0
 16 14  1  0  0  0
 14 15  2  0  0  0
 14  6  1  0  0  0
  7  6  2  0  0  0
  7  3  1  0  0  0
  6  1  1  0  0  0
  3  2  2  0  0  0
  1  5  2  0  0  0
  2  5  1  0  0  0
  2  8  1  0  0  0
  5  4  1  0  0  0
 10  8  1  0  0  0
  9  8  2  0  0  0
  8 11  2  0  0  0
 10 12  1  0  0  0
 10 13  1  0  0  0
M  END
> <minimizedAffinity>
-8.15445

$$$$
4KNM_E1E_A_302


 25 26  0  0  0  0  0  0  0  0999 V2000
   12.4541   -5.7836    9.6376 C   0  0  0  0  0  0  0  0  0  0  0  0
   11.9096   -3.8657    8.2390 C   0  0  0  0  0  0  0  0  0  0  0  0
   10.9421   -3.4410    9.1850 C   0  0  0  0  0  0  0  0  0  0  0  0
   13.8680   -5.5434    7.3186 Cl  0  0  0  0  0  0  0  0  0  0  0  0
   12.6518   -5.0365    8.4469 C   0  0  0  0  0  0  0  0  0  0  0  0
   11.5094   -5.3812   10.5559 C   0  0  0  0  0  0  0  0  0  0  0  0
   10.7453   -4.1986   10.3344 C   0  0  0  0  0  0  0  0  0  0  0  0
   12.1092   -2.9396    6.7154 S   0  0  0  0  0  0  0  0  0  0  0  0
   10.8887   -2.0391    6.6727 O   0  0  0  0  0  0  0  0  0  0  0  0
   13.5238   -1.7941    6.9524 N   0  0  0  0  0  0  0  0  0  0  0  0
   12.2706   -3.9135    5.3759 O   0  0  0  0  0  0  0  0  0  0  0  0
   13.3662   -1.2271    7.7855 H   0  0  0  0  0  0  0  0  0  0  0  0
   13.6089   -1.1858    6.1381 H   0  0  0  0  0  0  0  0  0  0  0  0
   11.3533   -6.2345   11.7788 C   0  0  0  0  0  0  0  0  0  0  0  0
   11.6129   -5.7296   12.8986 O   0  0  0  0  0  0  0  0  0  0  0  0
   10.8854   -7.6589   11.6328 C   0  0  0  0  0  0  0  0  0  0  0  0
   12.2306   -8.7725   12.1413 S   0  0  0  0  0  0  0  0  0  0  0  0
   12.9950   -8.9473   10.5304 C   0  0  0  0  0  0  0  0  0  0  0  0
   14.3014   -8.6093   10.2208 N   0  0  0  0  0  0  0  0  0  0  0  0
   14.7658   -8.8222    8.9467 C   0  0  0  0  0  0  0  0  0  0  0  0
   16.1692   -8.4582    8.5990 C   0  0  0  0  0  0  0  0  0  0  0  0
   13.9137   -9.3921    7.9676 C   0  0  0  0  0  0  0  0  0  0  0  0
   12.5941   -9.7245    8.3287 C   0  0  0  0  0  0  0  0  0  0  0  0
   12.1720   -9.4801    9.5930 N   0  0  0  0  0  0  0  0  0  0  0  0
   11.5895  -10.3327    7.4038 C   0  0  0  0  0  0  0  0  0  0  0  0
 25 23  1  0  0  0
 23 24  2  0  0  0
 23 22  1  0  0  0
 24 18  1  0  0  0
 22 20  2  0  0  0
 18 17  1  0  0  0
 18 19  2  0  0  0
 17 16  1  0  0  0
 20 19  1  0  0  0
 20 21  1  0  0  0
 16 14  1  0  0  0
 14 15  2  0  0  0
 14  6  1  0  0  0
  7  6  2  0  0  0
  7  3  1  0  0  0
  6  1  1  0  0  0
  3  2  2  0  0  0
  1  5  2  0  0  0
  2  5  1  0  0  0
  2  8  1  0  0  0
  5  4  1  0  0  0
 10  8  1  0  0  0
  9  8  2  0  0  0
  8 11  2  0  0  0
 10 12  1  0  0  0
 10 13  1  0  0  0
M  END
> <minimizedAffinity>
-8.11177

$$$$
4KNM_E1E_A_302


 25 26  0  0  0  0  0  0  0  0999 V2000
   10.4284   -4.1686    9.8927 C   0  0  0  0  0  0  0  0  0  0  0  0
   11.6753   -3.2905    7.9940 C   0  0  0  0  0  0  0  0  0  0  0  0
   12.2407   -4.5707    7.7636 C   0  0  0  0  0  0  0  0  0  0  0  0
   10.0576   -1.5276    9.3253 Cl  0  0  0  0  0  0  0  0  0  0  0  0
   10.7890   -3.0778    9.0589 C   0  0  0  0  0  0  0  0  0  0  0  0
   10.9811   -5.4122    9.6796 C   0  0  0  0  0  0  0  0  0  0  0  0
   11.8941   -5.6219    8.6053 C   0  0  0  0  0  0  0  0  0  0  0  0
   12.1824   -1.9117    6.9642 S   0  0  0  0  0  0  0  0  0  0  0  0
   13.1294   -1.1234    7.8497 O   0  0  0  0  0  0  0  0  0  0  0  0
   13.2474   -2.5874    5.6304 N   0  0  0  0  0  0  0  0  0  0  0  0
   10.9006   -1.0185    6.3915 O   0  0  0  0  0  0  0  0  0  0  0  0
   14.0113   -3.1223    6.0435 H   0  0  0  0  0  0  0  0  0  0  0  0
   13.6296   -1.8194    5.0786 H   0  0  0  0  0  0  0  0  0  0  0  0
   10.5586   -6.5057   10.6144 C   0  0  0  0  0  0  0  0  0  0  0  0
    9.5614   -7.2041   10.3074 O   0  0  0  0  0  0  0  0  0  0  0  0
   11.3398   -6.7401   11.8808 C   0  0  0  0  0  0  0  0  0  0  0  0
   11.5139   -8.5321   12.1386 S   0  0  0  0  0  0  0  0  0  0  0  0
   12.2587   -8.9130   10.5543 C   0  0  0  0  0  0  0  0  0  0  0  0
   11.7442   -9.7911    9.6157 N   0  0  0  0  0  0  0  0  0  0  0  0
   12.4082   -9.9682    8.4275 C   0  0  0  0  0  0  0  0  0  0  0  0
   11.8673  -10.9146    7.4102 C   0  0  0  0  0  0  0  0  0  0  0  0
   13.6013   -9.2479    8.1678 C   0  0  0  0  0  0  0  0  0  0  0  0
   14.0850   -8.3622    9.1494 C   0  0  0  0  0  0  0  0  0  0  0  0
   13.4073   -8.2321   10.3157 N   0  0  0  0  0  0  0  0  0  0  0  0
   15.3243   -7.5378    9.0111 C   0  0  0  0  0  0  0  0  0  0  0  0
 25 23  1  0  0  0
 23 24  2  0  0  0
 23 22  1  0  0  0
 24 18  1  0  0  0
 22 20  2  0  0  0
 18 17  1  0  0  0
 18 19  2  0  0  0
 17 16  1  0  0  0
 20 19  1  0  0  0
 20 21  1  0  0  0
 16 14  1  0  0  0
 14 15  2  0  0  0
 14  6  1  0  0  0
  7  6  2  0  0  0
  7  3  1  0  0  0
  6  1  1  0  0  0
  3  2  2  0  0  0
  1  5  2  0  0  0
  2  5  1  0  0  0
  2  8  1  0  0  0
  5  4  1  0  0  0
 10  8  1  0  0  0
  9  8  2  0  0  0
  8 11  2  0  0  0
 10 12  1  0  0  0
 10 13  1  0  0  0
M  END
> <minimizedAffinity>
-7.72474

$$$$
4KNM_E1E_A_302


 25 26  0  0  0  0  0  0  0  0999 V2000
   11.0291   -7.2079   10.9634 C   0  0  0  0  0  0  0  0  0  0  0  0
   11.4521   -7.4967   13.3444 C   0  0  0  0  0  0  0  0  0  0  0  0
   11.4673   -6.0895   13.5200 C   0  0  0  0  0  0  0  0  0  0  0  0
   11.1896   -9.7796   11.8553 Cl  0  0  0  0  0  0  0  0  0  0  0  0
   11.2532   -8.0601   12.0763 C   0  0  0  0  0  0  0  0  0  0  0  0
   11.0518   -5.8402   11.1261 C   0  0  0  0  0  0  0  0  0  0  0  0
   11.2697   -5.2700   12.4141 C   0  0  0  0  0  0  0  0  0  0  0  0
   11.7896   -8.5580   14.7510 S   0  0  0  0  0  0  0  0  0  0  0  0
   13.0902   -9.2481   14.3841 O   0  0  0  0  0  0  0  0  0  0  0  0
   12.2232   -7.4709   16.1652 N   0  0  0  0  0  0  0  0  0  0  0  0
   10.5451   -9.6095   15.0889 O   0  0  0  0  0  0  0  0  0  0  0  0
   12.9887   -6.8527   15.8965 H   0  0  0  0  0  0  0  0  0  0  0  0
   12.5111   -8.0437   16.9585 H   0  0  0  0  0  0  0  0  0  0  0  0
   10.8212   -5.0124    9.8974 C   0  0  0  0  0  0  0  0  0  0  0  0
   10.3225   -3.8680   10.0312 O   0  0  0  0  0  0  0  0  0  0  0  0
   11.1985   -5.5678    8.5490 C   0  0  0  0  0  0  0  0  0  0  0  0
   12.8492   -4.9487    8.1015 S   0  0  0  0  0  0  0  0  0  0  0  0
   13.6584   -6.5424    7.9788 C   0  0  0  0  0  0  0  0  0  0  0  0
   13.1461   -7.7409    8.4454 N   0  0  0  0  0  0  0  0  0  0  0  0
   13.8647   -8.8956    8.2596 C   0  0  0  0  0  0  0  0  0  0  0  0
   13.3264  -10.1922    8.7616 C   0  0  0  0  0  0  0  0  0  0  0  0
   15.1117   -8.8541    7.5867 C   0  0  0  0  0  0  0  0  0  0  0  0
   15.5914   -7.6135    7.1252 C   0  0  0  0  0  0  0  0  0  0  0  0
   14.8577   -6.4959    7.3466 N   0  0  0  0  0  0  0  0  0  0  0  0
   16.8840   -7.4210    6.3993 C   0  0  0  0  0  0  0  0  0  0  0  0
 25 23  1  0  0  0
 23 24  2  0  0  0
 23 22  1  0  0  0
 24 18  1  0  0  0
 22 20  2  0  0  0
 18 17  1  0  0  0
 18 19  2  0  0  0
 17 16  1  0  0  0
 20 19  1  0  0  0
 20 21  1  0  0  0
 16 14  1  0  0  0
 14 15  2  0  0  0
 14  6  1  0  0  0
  7  6  2  0  0  0
  7  3  1  0  0  0
  6  1  1  0  0  0
  3  2  2  0  0  0
  1  5  2  0  0  0
  2  5  1  0  0  0
  2  8  1  0  0  0
  5  4  1  0  0  0
 10  8  1  0  0  0
  9  8  2  0  0  0
  8 11  2  0  0  0
 10 12  1  0  0  0
 10 13  1  0  0  0
M  END
> <minimizedAffinity>
-7.49587

$$$$
4KNM_E1E_A_302


 25 26  0  0  0  0  0  0  0  0999 V2000
   12.4508   -5.8270    9.4741 C   0  0  0  0  0  0  0  0  0  0  0  0
   11.9659   -3.8884    8.0819 C   0  0  0  0  0  0  0  0  0  0  0  0
   10.9536   -3.4815    8.9881 C   0  0  0  0  0  0  0  0  0  0  0  0
   13.9712   -5.5459    7.2281 Cl  0  0  0  0  0  0  0  0  0  0  0  0
   12.7015   -5.0604    8.3059 C   0  0  0  0  0  0  0  0  0  0  0  0
   11.4628   -5.4419   10.3532 C   0  0  0  0  0  0  0  0  0  0  0  0
   10.7057   -4.2579   10.1148 C   0  0  0  0  0  0  0  0  0  0  0  0
   12.2335   -2.9376    6.5842 S   0  0  0  0  0  0  0  0  0  0  0  0
   10.9795   -2.0926    6.4591 O   0  0  0  0  0  0  0  0  0  0  0  0
   13.5733   -1.7323    6.9332 N   0  0  0  0  0  0  0  0  0  0  0  0
   12.5365   -3.8884    5.2527 O   0  0  0  0  0  0  0  0  0  0  0  0
   13.3296   -1.1821    7.7568 H   0  0  0  0  0  0  0  0  0  0  0  0
   13.6896   -1.1118    6.1320 H   0  0  0  0  0  0  0  0  0  0  0  0
   11.2524   -6.3151   11.5538 C   0  0  0  0  0  0  0  0  0  0  0  0
   11.5546   -5.8613   12.6847 O   0  0  0  0  0  0  0  0  0  0  0  0
   10.6814   -7.6972   11.3730 C   0  0  0  0  0  0  0  0  0  0  0  0
    9.3397   -7.6211   10.1474 S   0  0  0  0  0  0  0  0  0  0  0  0
    9.8784   -9.0028    9.1422 C   0  0  0  0  0  0  0  0  0  0  0  0
    9.0789  -10.0547    8.7288 N   0  0  0  0  0  0  0  0  0  0  0  0
    9.6187  -11.0366    7.9357 C   0  0  0  0  0  0  0  0  0  0  0  0
    8.7697  -12.1774    7.4876 C   0  0  0  0  0  0  0  0  0  0  0  0
   10.9779  -10.9609    7.5401 C   0  0  0  0  0  0  0  0  0  0  0  0
   11.7519   -9.8705    7.9805 C   0  0  0  0  0  0  0  0  0  0  0  0
   11.1831   -8.9336    8.7774 N   0  0  0  0  0  0  0  0  0  0  0  0
   13.1922   -9.6605    7.6398 C   0  0  0  0  0  0  0  0  0  0  0  0
 25 23  1  0  0  0
 23 24  2  0  0  0
 23 22  1  0  0  0
 24 18  1  0  0  0
 22 20  2  0  0  0
 18 17  1  0  0  0
 18 19  2  0  0  0
 17 16  1  0  0  0
 20 19  1  0  0  0
 20 21  1  0  0  0
 16 14  1  0  0  0
 14 15  2  0  0  0
 14  6  1  0  0  0
  7  6  2  0  0  0
  7  3  1  0  0  0
  6  1  1  0  0  0
  3  2  2  0  0  0
  1  5  2  0  0  0
  2  5  1  0  0  0
  2  8  1  0  0  0
  5  4  1  0  0  0
 10  8  1  0  0  0
  9  8  2  0  0  0
  8 11  2  0  0  0
 10 12  1  0  0  0
 10 13  1  0  0  0
M  END
> <minimizedAffinity>
-7.42713

$$$$
4KNM_E1E_A_302


 25 26  0  0  0  0  0  0  0  0999 V2000
   10.7398   -4.4699    9.8555 C   0  0  0  0  0  0  0  0  0  0  0  0
   11.8782   -3.3780    7.9999 C   0  0  0  0  0  0  0  0  0  0  0  0
   12.5774   -4.5781    7.7129 C   0  0  0  0  0  0  0  0  0  0  0  0
   10.0847   -1.8613    9.4072 Cl  0  0  0  0  0  0  0  0  0  0  0  0
   10.9779   -3.3102    9.0722 C   0  0  0  0  0  0  0  0  0  0  0  0
   11.4226   -5.6358    9.5873 C   0  0  0  0  0  0  0  0  0  0  0  0
   12.3491   -5.6974    8.5059 C   0  0  0  0  0  0  0  0  0  0  0  0
   12.2302   -1.9077    7.0340 S   0  0  0  0  0  0  0  0  0  0  0  0
   13.1425   -1.0914    7.9306 O   0  0  0  0  0  0  0  0  0  0  0  0
   13.2950   -2.4180    5.6286 N   0  0  0  0  0  0  0  0  0  0  0  0
   10.8582   -1.0960    6.5570 O   0  0  0  0  0  0  0  0  0  0  0  0
   14.1157   -2.9083    5.9843 H   0  0  0  0  0  0  0  0  0  0  0  0
   13.5913   -1.5918    5.1089 H   0  0  0  0  0  0  0  0  0  0  0  0
   11.1236   -6.8093   10.4713 C   0  0  0  0  0  0  0  0  0  0  0  0
   10.8372   -6.5951   11.6748 O   0  0  0  0  0  0  0  0  0  0  0  0
   11.1661   -8.2003    9.8948 C   0  0  0  0  0  0  0  0  0  0  0  0
    9.8655   -8.3512    8.6323 S   0  0  0  0  0  0  0  0  0  0  0  0
    8.5037   -8.6666    9.7530 C   0  0  0  0  0  0  0  0  0  0  0  0
    8.6008   -9.3170   10.9713 N   0  0  0  0  0  0  0  0  0  0  0  0
    7.4759   -9.4667   11.7436 C   0  0  0  0  0  0  0  0  0  0  0  0
    7.5660  -10.1694   13.0555 C   0  0  0  0  0  0  0  0  0  0  0  0
    6.2346   -8.9486   11.2961 C   0  0  0  0  0  0  0  0  0  0  0  0
    6.1840   -8.2904   10.0526 C   0  0  0  0  0  0  0  0  0  0  0  0
    7.3152   -8.1815    9.3145 N   0  0  0  0  0  0  0  0  0  0  0  0
    4.9487   -7.6939    9.4585 C   0  0  0  0  0  0  0  0  0  0  0  0
 25 23  1  0  0  0
 23 24  2  0  0  0
 23 22  1  0  0  0
 24 18  1  0  0  0
 22 20  2  0  0  0
 18 17  1  0  0  0
 18 19  2  0  0  0
 17 16  1  0  0  0
 20 19  1  0  0  0
 20 21  1  0  0  0
 16 14  1  0  0  0
 14 15  2  0  0  0
 14  6  1  0  0  0
  7  6  2  0  0  0
  7  3  1  0  0  0
  6  1  1  0  0  0
  3  2  2  0  0  0
  1  5  2  0  0  0
  2  5  1  0  0  0
  2  8  1  0  0  0
  5  4  1  0  0  0
 10  8  1  0  0  0
  9  8  2  0  0  0
  8 11  2  0  0  0
 10 12  1  0  0  0
 10 13  1  0  0  0
M  END
> <minimizedAffinity>
-7.32459

$$$$
4KNM_E1E_A_302


 25 26  0  0  0  0  0  0  0  0999 V2000
   10.7728   -4.4663    9.8673 C   0  0  0  0  0  0  0  0  0  0  0  0
   11.8883   -3.3653    8.0031 C   0  0  0  0  0  0  0  0  0  0  0  0
   12.5886   -4.5622    7.7056 C   0  0  0  0  0  0  0  0  0  0  0  0
   10.1040   -1.8588    9.4329 Cl  0  0  0  0  0  0  0  0  0  0  0  0
   10.9988   -3.3036    9.0848 C   0  0  0  0  0  0  0  0  0  0  0  0
   11.4568   -5.6291    9.5888 C   0  0  0  0  0  0  0  0  0  0  0  0
   12.3724   -5.6844    8.4978 C   0  0  0  0  0  0  0  0  0  0  0  0
   12.2252   -1.8911    7.0378 S   0  0  0  0  0  0  0  0  0  0  0  0
   13.1434   -1.0739    7.9274 O   0  0  0  0  0  0  0  0  0  0  0  0
   13.2779   -2.3937    5.6205 N   0  0  0  0  0  0  0  0  0  0  0  0
   10.8456   -1.0833    6.5766 O   0  0  0  0  0  0  0  0  0  0  0  0
   14.1038   -2.8819    5.9667 H   0  0  0  0  0  0  0  0  0  0  0  0
   13.5659   -1.5651    5.1001 H   0  0  0  0  0  0  0  0  0  0  0  0
   11.1710   -6.8061   10.4726 C   0  0  0  0  0  0  0  0  0  0  0  0
   11.3903   -6.6977   11.7040 O   0  0  0  0  0  0  0  0  0  0  0  0
   10.6256   -8.0723    9.8657 C   0  0  0  0  0  0  0  0  0  0  0  0
   10.0178   -9.1474   11.2011 S   0  0  0  0  0  0  0  0  0  0  0  0
    8.2680   -8.9072   10.9006 C   0  0  0  0  0  0  0  0  0  0  0  0
    7.7201   -7.9333   10.0834 N   0  0  0  0  0  0  0  0  0  0  0  0
    6.3579   -7.8807    9.9224 C   0  0  0  0  0  0  0  0  0  0  0  0
    5.7548   -6.8338    9.0489 C   0  0  0  0  0  0  0  0  0  0  0  0
    5.5293   -8.8239   10.5809 C   0  0  0  0  0  0  0  0  0  0  0  0
    6.1307   -9.7996   11.3985 C   0  0  0  0  0  0  0  0  0  0  0  0
    7.4780   -9.8031   11.5435 N   0  0  0  0  0  0  0  0  0  0  0  0
    5.3837  -10.8553   12.1483 C   0  0  0  0  0  0  0  0  0  0  0  0
 25 23  1  0  0  0
 23 24  2  0  0  0
 23 22  1  0  0  0
 24 18  1  0  0  0
 22 20  2  0  0  0
 18 17  1  0  0  0
 18 19  2  0  0  0
 17 16  1  0  0  0
 20 19  1  0  0  0
 20 21  1  0  0  0
 16 14  1  0  0  0
 14 15  2  0  0  0
 14  6  1  0  0  0
  7  6  2  0  0  0
  7  3  1  0  0  0
  6  1  1  0  0  0
  3  2  2  0  0  0
  1  5  2  0  0  0
  2  5  1  0  0  0
  2  8  1  0  0  0
  5  4  1  0  0  0
 10  8  1  0  0  0
  9  8  2  0  0  0
  8 11  2  0  0  0
 10 12  1  0  0  0
 10 13  1  0  0  0
M  END
> <minimizedAffinity>
-7.23006

$$$$
4KNM_E1E_A_302


 25 26  0  0  0  0  0  0  0  0999 V2000
   10.6668   -4.2413    9.9700 C   0  0  0  0  0  0  0  0  0  0  0  0
   11.8668   -3.3437    8.0502 C   0  0  0  0  0  0  0  0  0  0  0  0
   12.5437   -4.5793    7.8862 C   0  0  0  0  0  0  0  0  0  0  0  0
   10.0812   -1.6698    9.2777 Cl  0  0  0  0  0  0  0  0  0  0  0  0
   10.9472   -3.1614    9.0923 C   0  0  0  0  0  0  0  0  0  0  0  0
   11.3276   -5.4408    9.8213 C   0  0  0  0  0  0  0  0  0  0  0  0
   12.2738   -5.6182    8.7702 C   0  0  0  0  0  0  0  0  0  0  0  0
   12.2719   -1.9732    6.9656 S   0  0  0  0  0  0  0  0  0  0  0  0
   13.1959   -1.1069    7.8012 O   0  0  0  0  0  0  0  0  0  0  0  0
   13.3389   -2.6327    5.6254 N   0  0  0  0  0  0  0  0  0  0  0  0
   10.9293   -1.1694    6.4000 O   0  0  0  0  0  0  0  0  0  0  0  0
   14.1410   -3.1121    6.0343 H   0  0  0  0  0  0  0  0  0  0  0  0
   13.6646   -1.8633    5.0404 H   0  0  0  0  0  0  0  0  0  0  0  0
   10.9840   -6.5242   10.7992 C   0  0  0  0  0  0  0  0  0  0  0  0
   11.6351   -6.5926   11.8705 O   0  0  0  0  0  0  0  0  0  0  0  0
    9.8715   -7.4871   10.4765 C   0  0  0  0  0  0  0  0  0  0  0  0
   10.0491   -8.9609   11.5275 S   0  0  0  0  0  0  0  0  0  0  0  0
   11.2148   -9.8369   10.4865 C   0  0  0  0  0  0  0  0  0  0  0  0
   11.8791   -9.3000    9.3970 N   0  0  0  0  0  0  0  0  0  0  0  0
   12.7688  -10.0808    8.7020 C   0  0  0  0  0  0  0  0  0  0  0  0
   13.4872   -9.5162    7.5238 C   0  0  0  0  0  0  0  0  0  0  0  0
   13.0071  -11.4177    9.1087 C   0  0  0  0  0  0  0  0  0  0  0  0
   12.3124  -11.9200   10.2254 C   0  0  0  0  0  0  0  0  0  0  0  0
   11.4294  -11.1200   10.8708 N   0  0  0  0  0  0  0  0  0  0  0  0
   12.4657  -13.3050   10.7669 C   0  0  0  0  0  0  0  0  0  0  0  0
 25 23  1  0  0  0
 23 24  2  0  0  0
 23 22  1  0  0  0
 24 18  1  0  0  0
 22 20  2  0  0  0
 18 17  1  0  0  0
 18 19  2  0  0  0
 17 16  1  0  0  0
 20 19  1  0  0  0
 20 21  1  0  0  0
 16 14  1  0  0  0
 14 15  2  0  0  0
 14  6  1  0  0  0
  7  6  2  0  0  0
  7  3  1  0  0  0
  6  1  1  0  0  0
  3  2  2  0  0  0
  1  5  2  0  0  0
  2  5  1  0  0  0
  2  8  1  0  0  0
  5  4  1  0  0  0
 10  8  1  0  0  0
  9  8  2  0  0  0
  8 11  2  0  0  0
 10 12  1  0  0  0
 10 13  1  0  0  0
M  END
> <minimizedAffinity>
-7.05489

$$$$
4KNM_E1E_A_302


 25 26  0  0  0  0  0  0  0  0999 V2000
   10.6767   -4.3173    9.9586 C   0  0  0  0  0  0  0  0  0  0  0  0
   11.8363   -3.3361    8.0550 C   0  0  0  0  0  0  0  0  0  0  0  0
   12.5083   -4.5632    7.8223 C   0  0  0  0  0  0  0  0  0  0  0  0
   10.0788   -1.7178    9.3928 Cl  0  0  0  0  0  0  0  0  0  0  0  0
   10.9393   -3.1998    9.1235 C   0  0  0  0  0  0  0  0  0  0  0  0
   11.3331   -5.5090    9.7432 C   0  0  0  0  0  0  0  0  0  0  0  0
   12.2564   -5.6400    8.6653 C   0  0  0  0  0  0  0  0  0  0  0  0
   12.2193   -1.9191    7.0233 S   0  0  0  0  0  0  0  0  0  0  0  0
   13.1704   -1.0959    7.8719 O   0  0  0  0  0  0  0  0  0  0  0  0
   13.2461   -2.5212    5.6258 N   0  0  0  0  0  0  0  0  0  0  0  0
   10.8664   -1.0846    6.5318 O   0  0  0  0  0  0  0  0  0  0  0  0
   14.0563   -3.0222    5.9904 H   0  0  0  0  0  0  0  0  0  0  0  0
   13.5601   -1.7272    5.0678 H   0  0  0  0  0  0  0  0  0  0  0  0
   11.0094   -6.6344   10.6796 C   0  0  0  0  0  0  0  0  0  0  0  0
   11.5389   -6.6374   11.8180 O   0  0  0  0  0  0  0  0  0  0  0  0
   10.0600   -7.7165   10.2362 C   0  0  0  0  0  0  0  0  0  0  0  0
   10.0049   -9.0080   11.5158 S   0  0  0  0  0  0  0  0  0  0  0  0
   11.3729   -9.9881   10.9011 C   0  0  0  0  0  0  0  0  0  0  0  0
   11.9597  -11.0523   11.5642 N   0  0  0  0  0  0  0  0  0  0  0  0
   12.9873  -11.7344   10.9614 C   0  0  0  0  0  0  0  0  0  0  0  0
   13.6311  -12.8793   11.6668 C   0  0  0  0  0  0  0  0  0  0  0  0
   13.4293  -11.3534    9.6695 C   0  0  0  0  0  0  0  0  0  0  0  0
   12.8000  -10.2679    9.0310 C   0  0  0  0  0  0  0  0  0  0  0  0
   11.8019   -9.6114    9.6706 N   0  0  0  0  0  0  0  0  0  0  0  0
   13.1587   -9.7597    7.6716 C   0  0  0  0  0  0  0  0  0  0  0  0
 25 23  1  0  0  0
 23 24  2  0  0  0
 23 22  1  0  0  0
 24 18  1  0  0  0
 22 20  2  0  0  0
 18 17  1  0  0  0
 18 19  2  0  0  0
 17 16  1  0  0  0
 20 19  1  0  0  0
 20 21  1  0  0  0
 16 14  1  0  0  0
 14 15  2  0  0  0
 14  6  1  0  0  0
  7  6  2  0  0  0
  7  3  1  0  0  0
  6  1  1  0  0  0
  3  2  2  0  0  0
  1  5  2  0  0  0
  2  5  1  0  0  0
  2  8  1  0  0  0
  5  4  1  0  0  0
 10  8  1  0  0  0
  9  8  2  0  0  0
  8 11  2  0  0  0
 10 12  1  0  0  0
 10 13  1  0  0  0
M  END
> <minimizedAffinity>
-7.03174

$$$$
4KNM_E1E_A_302


 25 26  0  0  0  0  0  0  0  0999 V2000
   10.4979   -4.3173    9.7644 C   0  0  0  0  0  0  0  0  0  0  0  0
   11.7407   -3.2879    7.9403 C   0  0  0  0  0  0  0  0  0  0  0  0
   12.3492   -4.5337    7.6418 C   0  0  0  0  0  0  0  0  0  0  0  0
   10.0510   -1.6594    9.3512 Cl  0  0  0  0  0  0  0  0  0  0  0  0
   10.8345   -3.1674    9.0030 C   0  0  0  0  0  0  0  0  0  0  0  0
   11.0924   -5.5281    9.4851 C   0  0  0  0  0  0  0  0  0  0  0  0
   12.0253   -5.6442    8.4137 C   0  0  0  0  0  0  0  0  0  0  0  0
   12.2170   -1.8343    7.0028 S   0  0  0  0  0  0  0  0  0  0  0  0
   13.1211   -1.0684    7.9507 O   0  0  0  0  0  0  0  0  0  0  0  0
   13.3271   -2.3937    5.6521 N   0  0  0  0  0  0  0  0  0  0  0  0
   10.9150   -0.9524    6.4593 O   0  0  0  0  0  0  0  0  0  0  0  0
   14.1020   -2.9263    6.0475 H   0  0  0  0  0  0  0  0  0  0  0  0
   13.6918   -1.5821    5.1535 H   0  0  0  0  0  0  0  0  0  0  0  0
   10.6927   -6.6886   10.3462 C   0  0  0  0  0  0  0  0  0  0  0  0
   11.5102   -7.1097   11.2011 O   0  0  0  0  0  0  0  0  0  0  0  0
    9.3305   -7.3069   10.1697 C   0  0  0  0  0  0  0  0  0  0  0  0
    9.4953   -8.8079    9.1558 S   0  0  0  0  0  0  0  0  0  0  0  0
    7.7841   -9.3297    9.2517 C   0  0  0  0  0  0  0  0  0  0  0  0
    6.7110   -8.5104    9.5581 N   0  0  0  0  0  0  0  0  0  0  0  0
    5.4445   -9.0397    9.5701 C   0  0  0  0  0  0  0  0  0  0  0  0
    4.2807   -8.1693    9.9032 C   0  0  0  0  0  0  0  0  0  0  0  0
    5.2453  -10.4087    9.2605 C   0  0  0  0  0  0  0  0  0  0  0  0
    6.3656  -11.2030    8.9503 C   0  0  0  0  0  0  0  0  0  0  0  0
    7.5996  -10.6434    8.9684 N   0  0  0  0  0  0  0  0  0  0  0  0
    6.3050  -12.6556    8.6025 C   0  0  0  0  0  0  0  0  0  0  0  0
 25 23  1  0  0  0
 23 24  2  0  0  0
 23 22  1  0  0  0
 24 18  1  0  0  0
 22 20  2  0  0  0
 18 17  1  0  0  0
 18 19  2  0  0  0
 17 16  1  0  0  0
 20 19  1  0  0  0
 20 21  1  0  0  0
 16 14  1  0  0  0
 14 15  2  0  0  0
 14  6  1  0  0  0
  7  6  2  0  0  0
  7  3  1  0  0  0
  6  1  1  0  0  0
  3  2  2  0  0  0
  1  5  2  0  0  0
  2  5  1  0  0  0
  2  8  1  0  0  0
  5  4  1  0  0  0
 10  8  1  0  0  0
  9  8  2  0  0  0
  8 11  2  0  0  0
 10 12  1  0  0  0
 10 13  1  0  0  0
M  END
> <minimizedAffinity>
-6.99574

$$$$
