2J94_G15_A_1245


 33 36  0  0  0  0  0  0  0  0999 V2000
    6.4337    8.8395   20.8161 N   0  0  0  0  0  0  0  0  0  0  0  0
    5.7786    9.1126   20.0835 H   0  0  0  0  0  0  0  0  0  0  0  0
    6.0728    5.2390   20.7873 N   0  0  0  0  0  0  0  0  0  0  0  0
    4.6939    5.5639   21.1330 C   0  0  0  0  0  0  0  0  0  0  0  0
    4.6585    7.0627   20.8088 C   0  0  0  0  0  0  0  0  0  0  0  0
    6.8908    6.2889   20.8938 C   0  0  0  0  0  0  0  0  0  0  0  0
    8.0759    6.1814   20.6988 O   0  0  0  0  0  0  0  0  0  0  0  0
    6.0555    7.5028   21.2664 C   0  0  0  0  0  0  0  0  0  0  0  0
    6.5985    3.9324   20.3595 C   0  0  0  0  0  0  0  0  0  0  0  0
    6.0653    2.8081   21.2620 C   0  0  0  0  0  0  0  0  0  0  0  0
    5.3160    3.9955   18.3485 O   0  0  0  0  0  0  0  0  0  0  0  0
    6.3684    3.6391   18.8704 C   0  0  0  0  0  0  0  0  0  0  0  0
    7.3297    3.0098   18.1344 N   0  0  0  0  0  0  0  0  0  0  0  0
    7.0183    2.6797   16.7334 C   0  0  0  0  0  0  0  0  0  0  0  0
    8.1370    3.1750   15.8174 C   0  0  0  0  0  0  0  0  0  0  0  0
    9.3640    2.6254   16.2989 O   0  0  0  0  0  0  0  0  0  0  0  0
    9.7150    3.1293   17.5833 C   0  0  0  0  0  0  0  0  0  0  0  0
    8.6703    2.6321   18.5830 C   0  0  0  0  0  0  0  0  0  0  0  0
    6.4459   10.0343   21.9353 S   0  0  0  0  0  0  0  0  0  0  0  0
    5.0824   10.2951   22.3035 O   0  0  0  0  0  0  0  0  0  0  0  0
    7.2810   11.0400   21.3604 O   0  0  0  0  0  0  0  0  0  0  0  0
    7.2116    9.4893   23.3914 C   0  0  0  0  0  0  0  0  0  0  0  0
    6.5153    9.1546   24.4490 N   0  0  0  0  0  0  0  0  0  0  0  0
    7.3577    8.7213   25.4198 N   0  0  0  0  0  0  0  0  0  0  0  0
    8.5243    9.2412   23.5232 N   0  0  0  0  0  0  0  0  0  0  0  0
    8.6275    8.8004   24.8323 C   0  0  0  0  0  0  0  0  0  0  0  0
    7.1294    8.4201   26.3289 H   0  0  0  0  0  0  0  0  0  0  0  0
    9.9048    8.3877   25.4876 C   0  0  0  0  0  0  0  0  0  0  0  0
    9.8859    7.5986   26.6383 C   0  0  0  0  0  0  0  0  0  0  0  0
   11.2140    7.3180   27.0490 C   0  0  0  0  0  0  0  0  0  0  0  0
   12.1314    7.9278   26.1653 C   0  0  0  0  0  0  0  0  0  0  0  0
   11.4480    8.7997   24.8873 S   0  0  0  0  0  0  0  0  0  0  0  0
   13.8419    7.7718   26.3119 Cl  0  0  0  0  0  0  0  0  0  0  0  0
 11 12  2  0  0  0
 12 13  1  0  0  0
 12  9  1  0  0  0
 13 14  1  0  0  0
 13 18  1  0  0  0
 14 15  1  0  0  0
 15 16  1  0  0  0
 16 17  1  0  0  0
 17 18  1  0  0  0
  9 10  1  0  0  0
  9  3  1  0  0  0
  3  4  1  0  0  0
  3  6  1  0  0  0
  4  5  1  0  0  0
  5  8  1  0  0  0
  6  7  2  0  0  0
  6  8  1  0  0  0
  8  1  1  0  0  0
  1 19  1  0  0  0
 19 21  2  0  0  0
 19 22  1  0  0  0
 19 20  2  0  0  0
 22 23  2  0  0  0
 22 25  1  0  0  0
 23 24  1  0  0  0
 24 26  1  0  0  0
 25 26  2  0  0  0
 26 28  1  0  0  0
 28 29  2  0  0  0
 28 32  1  0  0  0
 29 30  1  0  0  0
 30 31  2  0  0  0
 31 32  1  0  0  0
 31 33  1  0  0  0
  1  2  1  0  0  0
 24 27  1  0  0  0
M  END
> <minimizedAffinity>
-8.57303

$$$$
2J94_G15_A_1245


 33 36  0  0  0  0  0  0  0  0999 V2000
    6.0252    9.0277   19.1233 N   0  0  0  0  0  0  0  0  0  0  0  0
    5.0907    9.3114   18.8289 H   0  0  0  0  0  0  0  0  0  0  0  0
    5.9393    5.5801   20.2191 N   0  0  0  0  0  0  0  0  0  0  0  0
    4.6723    5.9968   20.8087 C   0  0  0  0  0  0  0  0  0  0  0  0
    4.4440    7.3334   20.0918 C   0  0  0  0  0  0  0  0  0  0  0  0
    6.6767    6.6121   19.8020 C   0  0  0  0  0  0  0  0  0  0  0  0
    7.7785    6.4481   19.3404 O   0  0  0  0  0  0  0  0  0  0  0  0
    5.8743    7.8845   20.0194 C   0  0  0  0  0  0  0  0  0  0  0  0
    6.4360    4.2037   20.0590 C   0  0  0  0  0  0  0  0  0  0  0  0
    5.7586    3.2591   21.0648 C   0  0  0  0  0  0  0  0  0  0  0  0
    5.3133    3.8919   17.9768 O   0  0  0  0  0  0  0  0  0  0  0  0
    6.3390    3.6829   18.6182 C   0  0  0  0  0  0  0  0  0  0  0  0
    7.3867    3.0157   18.0535 N   0  0  0  0  0  0  0  0  0  0  0  0
    7.2037    2.4662   16.6995 C   0  0  0  0  0  0  0  0  0  0  0  0
    8.3631    2.8932   15.7999 C   0  0  0  0  0  0  0  0  0  0  0  0
    9.5758    2.4986   16.4426 O   0  0  0  0  0  0  0  0  0  0  0  0
    9.7982    3.2052   17.6583 C   0  0  0  0  0  0  0  0  0  0  0  0
    8.7060    2.7933   18.6459 C   0  0  0  0  0  0  0  0  0  0  0  0
    6.7773   10.3547   19.7180 S   0  0  0  0  0  0  0  0  0  0  0  0
    5.8273   11.0622   20.5300 O   0  0  0  0  0  0  0  0  0  0  0  0
    7.3873   10.9506   18.5725 O   0  0  0  0  0  0  0  0  0  0  0  0
    8.0463    9.8929   20.8044 C   0  0  0  0  0  0  0  0  0  0  0  0
    9.3085   10.0233   20.4801 N   0  0  0  0  0  0  0  0  0  0  0  0
   10.0808    9.6357   21.5258 N   0  0  0  0  0  0  0  0  0  0  0  0
    7.8654    9.5011   22.0755 N   0  0  0  0  0  0  0  0  0  0  0  0
    9.1591    9.2868   22.5220 C   0  0  0  0  0  0  0  0  0  0  0  0
   11.0637    9.6064   21.5739 H   0  0  0  0  0  0  0  0  0  0  0  0
    9.5139    8.8314   23.8996 C   0  0  0  0  0  0  0  0  0  0  0  0
    8.5275    8.3475   24.7599 C   0  0  0  0  0  0  0  0  0  0  0  0
    9.1148    7.9530   25.9889 C   0  0  0  0  0  0  0  0  0  0  0  0
   10.5086    8.1775   25.9519 C   0  0  0  0  0  0  0  0  0  0  0  0
   11.1073    8.8280   24.5100 S   0  0  0  0  0  0  0  0  0  0  0  0
   11.5723    7.7767   27.2477 Cl  0  0  0  0  0  0  0  0  0  0  0  0
 11 12  2  0  0  0
 12 13  1  0  0  0
 12  9  1  0  0  0
 13 14  1  0  0  0
 13 18  1  0  0  0
 14 15  1  0  0  0
 15 16  1  0  0  0
 16 17  1  0  0  0
 17 18  1  0  0  0
  9 10  1  0  0  0
  9  3  1  0  0  0
  3  4  1  0  0  0
  3  6  1  0  0  0
  4  5  1  0  0  0
  5  8  1  0  0  0
  6  7  2  0  0  0
  6  8  1  0  0  0
  8  1  1  0  0  0
  1 19  1  0  0  0
 19 21  2  0  0  0
 19 22  1  0  0  0
 19 20  2  0  0  0
 22 23  2  0  0  0
 22 25  1  0  0  0
 23 24  1  0  0  0
 24 26  1  0  0  0
 25 26  2  0  0  0
 26 28  1  0  0  0
 28 29  2  0  0  0
 28 32  1  0  0  0
 29 30  1  0  0  0
 30 31  2  0  0  0
 31 32  1  0  0  0
 31 33  1  0  0  0
  1  2  1  0  0  0
 24 27  1  0  0  0
M  END
> <minimizedAffinity>
-8.32771

$$$$
2J94_G15_A_1245


 33 36  0  0  0  0  0  0  0  0999 V2000
    7.4847    9.8385   18.9650 N   0  0  0  0  0  0  0  0  0  0  0  0
    7.3757   10.2718   18.0480 H   0  0  0  0  0  0  0  0  0  0  0  0
    5.8822    6.6058   18.6891 N   0  0  0  0  0  0  0  0  0  0  0  0
    4.7853    7.4059   18.1570 C   0  0  0  0  0  0  0  0  0  0  0  0
    5.4991    8.7372   17.8911 C   0  0  0  0  0  0  0  0  0  0  0  0
    6.8269    7.3496   19.2697 C   0  0  0  0  0  0  0  0  0  0  0  0
    7.7777    6.8429   19.8111 O   0  0  0  0  0  0  0  0  0  0  0  0
    6.4536    8.8120   19.0902 C   0  0  0  0  0  0  0  0  0  0  0  0
    6.0203    5.1411   18.6401 C   0  0  0  0  0  0  0  0  0  0  0  0
    4.6541    4.4586   18.8141 C   0  0  0  0  0  0  0  0  0  0  0  0
    6.8758    5.3841   16.4260 O   0  0  0  0  0  0  0  0  0  0  0  0
    6.7652    4.6390   17.3953 C   0  0  0  0  0  0  0  0  0  0  0  0
    7.3137    3.3898   17.3764 N   0  0  0  0  0  0  0  0  0  0  0  0
    7.9415    2.9323   16.1253 C   0  0  0  0  0  0  0  0  0  0  0  0
    9.3428    2.3923   16.4094 C   0  0  0  0  0  0  0  0  0  0  0  0
    9.2216    1.3865   17.4160 O   0  0  0  0  0  0  0  0  0  0  0  0
    8.7929    1.9198   18.6644 C   0  0  0  0  0  0  0  0  0  0  0  0
    7.3654    2.4381   18.4867 C   0  0  0  0  0  0  0  0  0  0  0  0
    7.4895   11.0388   20.0784 S   0  0  0  0  0  0  0  0  0  0  0  0
    6.1900   11.6499   20.0603 O   0  0  0  0  0  0  0  0  0  0  0  0
    8.6776   11.7762   19.7887 O   0  0  0  0  0  0  0  0  0  0  0  0
    7.6586   10.3817   21.6731 C   0  0  0  0  0  0  0  0  0  0  0  0
    6.6152   10.0930   22.4104 N   0  0  0  0  0  0  0  0  0  0  0  0
    7.0322    9.5515   23.5821 N   0  0  0  0  0  0  0  0  0  0  0  0
    8.8193    9.9978   22.2274 N   0  0  0  0  0  0  0  0  0  0  0  0
    8.4282    9.5156   23.4657 C   0  0  0  0  0  0  0  0  0  0  0  0
    6.4805    9.2522   24.3406 H   0  0  0  0  0  0  0  0  0  0  0  0
    9.3620    8.9583   24.4898 C   0  0  0  0  0  0  0  0  0  0  0  0
    8.8741    8.1885   25.5464 C   0  0  0  0  0  0  0  0  0  0  0  0
    9.9512    7.7538   26.3601 C   0  0  0  0  0  0  0  0  0  0  0  0
   11.1726    8.2399   25.8440 C   0  0  0  0  0  0  0  0  0  0  0  0
   11.0537    9.1752   24.4399 S   0  0  0  0  0  0  0  0  0  0  0  0
   12.7094    7.8801   26.5371 Cl  0  0  0  0  0  0  0  0  0  0  0  0
 11 12  2  0  0  0
 12 13  1  0  0  0
 12  9  1  0  0  0
 13 14  1  0  0  0
 13 18  1  0  0  0
 14 15  1  0  0  0
 15 16  1  0  0  0
 16 17  1  0  0  0
 17 18  1  0  0  0
  9 10  1  0  0  0
  9  3  1  0  0  0
  3  4  1  0  0  0
  3  6  1  0  0  0
  4  5  1  0  0  0
  5  8  1  0  0  0
  6  7  2  0  0  0
  6  8  1  0  0  0
  8  1  1  0  0  0
  1 19  1  0  0  0
 19 21  2  0  0  0
 19 22  1  0  0  0
 19 20  2  0  0  0
 22 23  2  0  0  0
 22 25  1  0  0  0
 23 24  1  0  0  0
 24 26  1  0  0  0
 25 26  2  0  0  0
 26 28  1  0  0  0
 28 29  2  0  0  0
 28 32  1  0  0  0
 29 30  1  0  0  0
 30 31  2  0  0  0
 31 32  1  0  0  0
 31 33  1  0  0  0
  1  2  1  0  0  0
 24 27  1  0  0  0
M  END
> <minimizedAffinity>
-8.25409

$$$$
2J94_G15_A_1245


 33 36  0  0  0  0  0  0  0  0999 V2000
    5.2341    8.7850   20.3563 N   0  0  0  0  0  0  0  0  0  0  0  0
    4.3944    8.2163   20.4648 H   0  0  0  0  0  0  0  0  0  0  0  0
    7.2181    6.0674   19.0248 N   0  0  0  0  0  0  0  0  0  0  0  0
    7.3755    5.7413   20.4374 C   0  0  0  0  0  0  0  0  0  0  0  0
    6.2769    6.6113   21.0607 C   0  0  0  0  0  0  0  0  0  0  0  0
    6.6953    7.2808   18.8323 C   0  0  0  0  0  0  0  0  0  0  0  0
    6.5497    7.7308   17.7231 O   0  0  0  0  0  0  0  0  0  0  0  0
    6.3629    7.8733   20.1920 C   0  0  0  0  0  0  0  0  0  0  0  0
    7.5671    5.2211   17.8721 C   0  0  0  0  0  0  0  0  0  0  0  0
    8.8812    4.4660   18.1282 C   0  0  0  0  0  0  0  0  0  0  0  0
    5.8983    3.5653   18.2796 O   0  0  0  0  0  0  0  0  0  0  0  0
    6.4333    4.2815   17.4384 C   0  0  0  0  0  0  0  0  0  0  0  0
    6.0138    4.2595   16.1402 N   0  0  0  0  0  0  0  0  0  0  0  0
    4.9816    3.2777   15.7667 C   0  0  0  0  0  0  0  0  0  0  0  0
    3.8466    3.9715   15.0142 C   0  0  0  0  0  0  0  0  0  0  0  0
    4.4249    4.6738   13.9134 O   0  0  0  0  0  0  0  0  0  0  0  0
    5.2679    5.7406   14.3353 C   0  0  0  0  0  0  0  0  0  0  0  0
    6.4702    5.1304   15.0565 C   0  0  0  0  0  0  0  0  0  0  0  0
    5.2877    9.8281   21.6170 S   0  0  0  0  0  0  0  0  0  0  0  0
    4.4225    9.3129   22.6410 O   0  0  0  0  0  0  0  0  0  0  0  0
    5.0754   11.1072   21.0185 O   0  0  0  0  0  0  0  0  0  0  0  0
    6.8699    9.8387   22.3244 C   0  0  0  0  0  0  0  0  0  0  0  0
    7.7768   10.7123   21.9640 N   0  0  0  0  0  0  0  0  0  0  0  0
    8.8964   10.5262   22.7068 N   0  0  0  0  0  0  0  0  0  0  0  0
    7.2552    9.0733   23.3576 N   0  0  0  0  0  0  0  0  0  0  0  0
    8.5642    9.4735   23.5700 C   0  0  0  0  0  0  0  0  0  0  0  0
    9.7475   11.0180   22.6520 H   0  0  0  0  0  0  0  0  0  0  0  0
    9.4580    8.9157   24.6289 C   0  0  0  0  0  0  0  0  0  0  0  0
    8.9187    8.2489   25.7296 C   0  0  0  0  0  0  0  0  0  0  0  0
    9.9638    7.7901   26.5713 C   0  0  0  0  0  0  0  0  0  0  0  0
   11.2157    8.1558   26.0295 C   0  0  0  0  0  0  0  0  0  0  0  0
   11.1608    9.0089   24.5702 S   0  0  0  0  0  0  0  0  0  0  0  0
   12.7244    7.7317   26.7475 Cl  0  0  0  0  0  0  0  0  0  0  0  0
 11 12  2  0  0  0
 12 13  1  0  0  0
 12  9  1  0  0  0
 13 14  1  0  0  0
 13 18  1  0  0  0
 14 15  1  0  0  0
 15 16  1  0  0  0
 16 17  1  0  0  0
 17 18  1  0  0  0
  9 10  1  0  0  0
  9  3  1  0  0  0
  3  4  1  0  0  0
  3  6  1  0  0  0
  4  5  1  0  0  0
  5  8  1  0  0  0
  6  7  2  0  0  0
  6  8  1  0  0  0
  8  1  1  0  0  0
  1 19  1  0  0  0
 19 21  2  0  0  0
 19 22  1  0  0  0
 19 20  2  0  0  0
 22 23  2  0  0  0
 22 25  1  0  0  0
 23 24  1  0  0  0
 24 26  1  0  0  0
 25 26  2  0  0  0
 26 28  1  0  0  0
 28 29  2  0  0  0
 28 32  1  0  0  0
 29 30  1  0  0  0
 30 31  2  0  0  0
 31 32  1  0  0  0
 31 33  1  0  0  0
  1  2  1  0  0  0
 24 27  1  0  0  0
M  END
> <minimizedAffinity>
-7.74329

$$$$
2J94_G15_A_1245


 33 36  0  0  0  0  0  0  0  0999 V2000
    6.0298   12.3396   19.3178 N   0  0  0  0  0  0  0  0  0  0  0  0
    5.3711   12.5773   20.0595 H   0  0  0  0  0  0  0  0  0  0  0  0
    5.3134    9.4965   17.1970 N   0  0  0  0  0  0  0  0  0  0  0  0
    4.3213    9.2169   18.2286 C   0  0  0  0  0  0  0  0  0  0  0  0
    4.2951   10.5555   18.9769 C   0  0  0  0  0  0  0  0  0  0  0  0
    6.1879   10.4357   17.5656 C   0  0  0  0  0  0  0  0  0  0  0  0
    7.1087   10.7480   16.8524 O   0  0  0  0  0  0  0  0  0  0  0  0
    5.7764   10.9536   18.9340 C   0  0  0  0  0  0  0  0  0  0  0  0
    5.4196    8.8667   15.8708 C   0  0  0  0  0  0  0  0  0  0  0  0
    4.7167    7.4998   15.8585 C   0  0  0  0  0  0  0  0  0  0  0  0
    3.9484   10.4673   14.8876 O   0  0  0  0  0  0  0  0  0  0  0  0
    4.9471    9.7722   14.7248 C   0  0  0  0  0  0  0  0  0  0  0  0
    5.6406    9.8180   13.5506 N   0  0  0  0  0  0  0  0  0  0  0  0
    5.0920   10.6397   12.4585 C   0  0  0  0  0  0  0  0  0  0  0  0
    6.1730   11.5697   11.9087 C   0  0  0  0  0  0  0  0  0  0  0  0
    7.2911   10.7611   11.5403 O   0  0  0  0  0  0  0  0  0  0  0  0
    7.9035   10.1401   12.6655 C   0  0  0  0  0  0  0  0  0  0  0  0
    6.9037    9.1426   13.2515 C   0  0  0  0  0  0  0  0  0  0  0  0
    7.5311   12.7078   19.8570 S   0  0  0  0  0  0  0  0  0  0  0  0
    7.3928   13.7319   20.8544 O   0  0  0  0  0  0  0  0  0  0  0  0
    8.2887   12.9100   18.6635 O   0  0  0  0  0  0  0  0  0  0  0  0
    8.2215   11.3542   20.6907 C   0  0  0  0  0  0  0  0  0  0  0  0
    9.0042   10.4993   20.0808 N   0  0  0  0  0  0  0  0  0  0  0  0
    9.4396    9.5762   20.9743 N   0  0  0  0  0  0  0  0  0  0  0  0
    8.1322   11.1385   22.0125 N   0  0  0  0  0  0  0  0  0  0  0  0
    8.8652    9.9764   22.1882 C   0  0  0  0  0  0  0  0  0  0  0  0
   10.0250    8.8023   20.8080 H   0  0  0  0  0  0  0  0  0  0  0  0
    9.0789    9.3018   23.5037 C   0  0  0  0  0  0  0  0  0  0  0  0
    8.0131    8.6923   24.1667 C   0  0  0  0  0  0  0  0  0  0  0  0
    8.4729    8.1002   25.3705 C   0  0  0  0  0  0  0  0  0  0  0  0
    9.8607    8.3180   25.5161 C   0  0  0  0  0  0  0  0  0  0  0  0
   10.5999    9.1888   24.2688 S   0  0  0  0  0  0  0  0  0  0  0  0
   10.7874    7.7056   26.8343 Cl  0  0  0  0  0  0  0  0  0  0  0  0
 11 12  2  0  0  0
 12 13  1  0  0  0
 12  9  1  0  0  0
 13 14  1  0  0  0
 13 18  1  0  0  0
 14 15  1  0  0  0
 15 16  1  0  0  0
 16 17  1  0  0  0
 17 18  1  0  0  0
  9 10  1  0  0  0
  9  3  1  0  0  0
  3  4  1  0  0  0
  3  6  1  0  0  0
  4  5  1  0  0  0
  5  8  1  0  0  0
  6  7  2  0  0  0
  6  8  1  0  0  0
  8  1  1  0  0  0
  1 19  1  0  0  0
 19 21  2  0  0  0
 19 22  1  0  0  0
 19 20  2  0  0  0
 22 23  2  0  0  0
 22 25  1  0  0  0
 23 24  1  0  0  0
 24 26  1  0  0  0
 25 26  2  0  0  0
 26 28  1  0  0  0
 28 29  2  0  0  0
 28 32  1  0  0  0
 29 30  1  0  0  0
 30 31  2  0  0  0
 31 32  1  0  0  0
 31 33  1  0  0  0
  1  2  1  0  0  0
 24 27  1  0  0  0
M  END
> <minimizedAffinity>
-7.67442

$$$$
2J94_G15_A_1245


 33 36  0  0  0  0  0  0  0  0999 V2000
    2.5219    3.8701   24.2771 N   0  0  0  0  0  0  0  0  0  0  0  0
    1.9796    3.7625   25.1343 H   0  0  0  0  0  0  0  0  0  0  0  0
    2.9777    7.3453   23.3773 N   0  0  0  0  0  0  0  0  0  0  0  0
    1.6616    7.4805   23.9907 C   0  0  0  0  0  0  0  0  0  0  0  0
    1.5452    6.1400   24.7269 C   0  0  0  0  0  0  0  0  0  0  0  0
    3.3170    6.0718   23.1633 C   0  0  0  0  0  0  0  0  0  0  0  0
    4.3498    5.7835   22.6117 O   0  0  0  0  0  0  0  0  0  0  0  0
    2.2166    5.1883   23.7278 C   0  0  0  0  0  0  0  0  0  0  0  0
    3.8992    8.4295   23.0004 C   0  0  0  0  0  0  0  0  0  0  0  0
    3.1231    9.7150   22.6715 C   0  0  0  0  0  0  0  0  0  0  0  0
    4.7238    8.7011   25.2228 O   0  0  0  0  0  0  0  0  0  0  0  0
    5.0119    8.6712   24.0298 C   0  0  0  0  0  0  0  0  0  0  0  0
    6.3050    8.8294   23.6241 N   0  0  0  0  0  0  0  0  0  0  0  0
    7.3149    9.1427   24.6491 C   0  0  0  0  0  0  0  0  0  0  0  0
    8.5034    8.1903   24.5218 C   0  0  0  0  0  0  0  0  0  0  0  0
    8.9773    8.2692   23.1769 O   0  0  0  0  0  0  0  0  0  0  0  0
    8.0286    7.7716   22.2393 C   0  0  0  0  0  0  0  0  0  0  0  0
    6.8170    8.7041   22.2591 C   0  0  0  0  0  0  0  0  0  0  0  0
    2.2093    2.5709   23.3312 S   0  0  0  0  0  0  0  0  0  0  0  0
    0.8038    2.5799   23.0357 O   0  0  0  0  0  0  0  0  0  0  0  0
    2.8324    1.4843   24.0169 O   0  0  0  0  0  0  0  0  0  0  0  0
    2.9956    2.7393   21.7959 C   0  0  0  0  0  0  0  0  0  0  0  0
    2.3816    3.2630   20.7643 N   0  0  0  0  0  0  0  0  0  0  0  0
    3.2393    3.3189   19.7149 N   0  0  0  0  0  0  0  0  0  0  0  0
    4.2931    2.4844   21.5646 N   0  0  0  0  0  0  0  0  0  0  0  0
    4.4388    2.8042   20.2247 C   0  0  0  0  0  0  0  0  0  0  0  0
    3.0602    3.6461   18.8038 H   0  0  0  0  0  0  0  0  0  0  0  0
    5.7193    2.6943   19.4634 C   0  0  0  0  0  0  0  0  0  0  0  0
    6.9352    2.5809   20.1384 C   0  0  0  0  0  0  0  0  0  0  0  0
    7.9938    2.4614   19.2022 C   0  0  0  0  0  0  0  0  0  0  0  0
    7.4812    2.4977   17.8868 C   0  0  0  0  0  0  0  0  0  0  0  0
    5.8027    2.6618   17.7594 S   0  0  0  0  0  0  0  0  0  0  0  0
    8.4611    2.3326   16.4782 Cl  0  0  0  0  0  0  0  0  0  0  0  0
 11 12  2  0  0  0
 12 13  1  0  0  0
 12  9  1  0  0  0
 13 14  1  0  0  0
 13 18  1  0  0  0
 14 15  1  0  0  0
 15 16  1  0  0  0
 16 17  1  0  0  0
 17 18  1  0  0  0
  9 10  1  0  0  0
  9  3  1  0  0  0
  3  4  1  0  0  0
  3  6  1  0  0  0
  4  5  1  0  0  0
  5  8  1  0  0  0
  6  7  2  0  0  0
  6  8  1  0  0  0
  8  1  1  0  0  0
  1 19  1  0  0  0
 19 21  2  0  0  0
 19 22  1  0  0  0
 19 20  2  0  0  0
 22 23  2  0  0  0
 22 25  1  0  0  0
 23 24  1  0  0  0
 24 26  1  0  0  0
 25 26  2  0  0  0
 26 28  1  0  0  0
 28 29  2  0  0  0
 28 32  1  0  0  0
 29 30  1  0  0  0
 30 31  2  0  0  0
 31 32  1  0  0  0
 31 33  1  0  0  0
  1  2  1  0  0  0
 24 27  1  0  0  0
M  END
> <minimizedAffinity>
-7.53112

$$$$
2J94_G15_A_1245


 33 36  0  0  0  0  0  0  0  0999 V2000
    7.7500    9.5973   21.9708 N   0  0  0  0  0  0  0  0  0  0  0  0
    7.9259    8.6286   22.2373 H   0  0  0  0  0  0  0  0  0  0  0  0
    4.6224    9.3147   23.7687 N   0  0  0  0  0  0  0  0  0  0  0  0
    4.0621    9.6729   22.4710 C   0  0  0  0  0  0  0  0  0  0  0  0
    5.2763    9.4540   21.5598 C   0  0  0  0  0  0  0  0  0  0  0  0
    5.9434    9.4998   23.8274 C   0  0  0  0  0  0  0  0  0  0  0  0
    6.5580    9.3058   24.8465 O   0  0  0  0  0  0  0  0  0  0  0  0
    6.4187    9.9507   22.4559 C   0  0  0  0  0  0  0  0  0  0  0  0
    3.8950    8.8002   24.9405 C   0  0  0  0  0  0  0  0  0  0  0  0
    3.4230    9.9544   25.8392 C   0  0  0  0  0  0  0  0  0  0  0  0
    1.6022    8.1421   24.8886 O   0  0  0  0  0  0  0  0  0  0  0  0
    2.7514    7.8427   24.5776 C   0  0  0  0  0  0  0  0  0  0  0  0
    3.0082    6.6860   23.9009 N   0  0  0  0  0  0  0  0  0  0  0  0
    1.8835    5.7675   23.6558 C   0  0  0  0  0  0  0  0  0  0  0  0
    1.8374    5.3784   22.1785 C   0  0  0  0  0  0  0  0  0  0  0  0
    3.1194    4.8545   21.8302 O   0  0  0  0  0  0  0  0  0  0  0  0
    4.1437    5.8407   21.9000 C   0  0  0  0  0  0  0  0  0  0  0  0
    4.2986    6.2522   23.3645 C   0  0  0  0  0  0  0  0  0  0  0  0
    8.0208    9.7212   20.3609 S   0  0  0  0  0  0  0  0  0  0  0  0
    9.4291    9.9322   20.1748 O   0  0  0  0  0  0  0  0  0  0  0  0
    7.0477   10.6674   19.9170 O   0  0  0  0  0  0  0  0  0  0  0  0
    7.6809    8.2147   19.5743 C   0  0  0  0  0  0  0  0  0  0  0  0
    6.9413    8.1557   18.4950 N   0  0  0  0  0  0  0  0  0  0  0  0
    6.8803    6.8706   18.0650 N   0  0  0  0  0  0  0  0  0  0  0  0
    8.2291    7.0345   19.9040 N   0  0  0  0  0  0  0  0  0  0  0  0
    7.6799    6.1662   18.9749 C   0  0  0  0  0  0  0  0  0  0  0  0
    6.3872    6.5145   17.2908 H   0  0  0  0  0  0  0  0  0  0  0  0
    7.9732    4.7031   18.9079 C   0  0  0  0  0  0  0  0  0  0  0  0
    7.2104    3.7951   19.6433 C   0  0  0  0  0  0  0  0  0  0  0  0
    7.6613    2.4746   19.3900 C   0  0  0  0  0  0  0  0  0  0  0  0
    8.7389    2.4992   18.4775 C   0  0  0  0  0  0  0  0  0  0  0  0
    9.2011    4.0318   17.9315 S   0  0  0  0  0  0  0  0  0  0  0  0
    9.5221    1.0802   17.8905 Cl  0  0  0  0  0  0  0  0  0  0  0  0
 11 12  2  0  0  0
 12 13  1  0  0  0
 12  9  1  0  0  0
 13 14  1  0  0  0
 13 18  1  0  0  0
 14 15  1  0  0  0
 15 16  1  0  0  0
 16 17  1  0  0  0
 17 18  1  0  0  0
  9 10  1  0  0  0
  9  3  1  0  0  0
  3  4  1  0  0  0
  3  6  1  0  0  0
  4  5  1  0  0  0
  5  8  1  0  0  0
  6  7  2  0  0  0
  6  8  1  0  0  0
  8  1  1  0  0  0
  1 19  1  0  0  0
 19 21  2  0  0  0
 19 22  1  0  0  0
 19 20  2  0  0  0
 22 23  2  0  0  0
 22 25  1  0  0  0
 23 24  1  0  0  0
 24 26  1  0  0  0
 25 26  2  0  0  0
 26 28  1  0  0  0
 28 29  2  0  0  0
 28 32  1  0  0  0
 29 30  1  0  0  0
 30 31  2  0  0  0
 31 32  1  0  0  0
 31 33  1  0  0  0
  1  2  1  0  0  0
 24 27  1  0  0  0
M  END
> <minimizedAffinity>
-7.47168

$$$$
2J94_G15_A_1245


 33 36  0  0  0  0  0  0  0  0999 V2000
    4.9912    8.6370   20.9643 N   0  0  0  0  0  0  0  0  0  0  0  0
    3.9876    8.7238   20.8039 H   0  0  0  0  0  0  0  0  0  0  0  0
    5.7706    5.1120   20.7171 N   0  0  0  0  0  0  0  0  0  0  0  0
    4.6117    4.9878   21.5934 C   0  0  0  0  0  0  0  0  0  0  0  0
    3.9942    6.3852   21.4583 C   0  0  0  0  0  0  0  0  0  0  0  0
    6.1998    6.3716   20.6073 C   0  0  0  0  0  0  0  0  0  0  0  0
    7.1832    6.6440   19.9650 O   0  0  0  0  0  0  0  0  0  0  0  0
    5.2501    7.2642   21.3894 C   0  0  0  0  0  0  0  0  0  0  0  0
    6.4586    4.0306   19.9932 C   0  0  0  0  0  0  0  0  0  0  0  0
    6.9074    2.9252   20.9623 C   0  0  0  0  0  0  0  0  0  0  0  0
    4.7028    2.7264   19.0398 O   0  0  0  0  0  0  0  0  0  0  0  0
    5.6496    3.4741   18.8132 C   0  0  0  0  0  0  0  0  0  0  0  0
    5.9670    3.8235   17.5330 N   0  0  0  0  0  0  0  0  0  0  0  0
    5.2099    3.1919   16.4391 C   0  0  0  0  0  0  0  0  0  0  0  0
    4.6886    4.2599   15.4781 C   0  0  0  0  0  0  0  0  0  0  0  0
    5.8063    5.0410   15.0537 O   0  0  0  0  0  0  0  0  0  0  0  0
    6.3837    5.7839   16.1221 C   0  0  0  0  0  0  0  0  0  0  0  0
    6.9848    4.7877   17.1141 C   0  0  0  0  0  0  0  0  0  0  0  0
    5.4310    9.8365   21.9880 S   0  0  0  0  0  0  0  0  0  0  0  0
    4.6439    9.6963   23.1811 O   0  0  0  0  0  0  0  0  0  0  0  0
    5.3831   11.0150   21.1830 O   0  0  0  0  0  0  0  0  0  0  0  0
    7.0724    9.6206   22.5006 C   0  0  0  0  0  0  0  0  0  0  0  0
    8.0749   10.1174   21.8196 N   0  0  0  0  0  0  0  0  0  0  0  0
    9.2346    9.8438   22.4679 N   0  0  0  0  0  0  0  0  0  0  0  0
    7.4480    9.0643   23.6631 N   0  0  0  0  0  0  0  0  0  0  0  0
    8.8293    9.1588   23.6212 C   0  0  0  0  0  0  0  0  0  0  0  0
   10.1510   10.0739   22.1915 H   0  0  0  0  0  0  0  0  0  0  0  0
    9.7433    8.6738   24.6985 C   0  0  0  0  0  0  0  0  0  0  0  0
    9.2322    8.0016   25.8093 C   0  0  0  0  0  0  0  0  0  0  0  0
   10.2937    7.6192   26.6684 C   0  0  0  0  0  0  0  0  0  0  0  0
   11.5281    8.0421   26.1282 C   0  0  0  0  0  0  0  0  0  0  0  0
   11.4388    8.8599   24.6505 S   0  0  0  0  0  0  0  0  0  0  0  0
   13.0517    7.7174   26.8663 Cl  0  0  0  0  0  0  0  0  0  0  0  0
 11 12  2  0  0  0
 12 13  1  0  0  0
 12  9  1  0  0  0
 13 14  1  0  0  0
 13 18  1  0  0  0
 14 15  1  0  0  0
 15 16  1  0  0  0
 16 17  1  0  0  0
 17 18  1  0  0  0
  9 10  1  0  0  0
  9  3  1  0  0  0
  3  4  1  0  0  0
  3  6  1  0  0  0
  4  5  1  0  0  0
  5  8  1  0  0  0
  6  7  2  0  0  0
  6  8  1  0  0  0
  8  1  1  0  0  0
  1 19  1  0  0  0
 19 21  2  0  0  0
 19 22  1  0  0  0
 19 20  2  0  0  0
 22 23  2  0  0  0
 22 25  1  0  0  0
 23 24  1  0  0  0
 24 26  1  0  0  0
 25 26  2  0  0  0
 26 28  1  0  0  0
 28 29  2  0  0  0
 28 32  1  0  0  0
 29 30  1  0  0  0
 30 31  2  0  0  0
 31 32  1  0  0  0
 31 33  1  0  0  0
  1  2  1  0  0  0
 24 27  1  0  0  0
M  END
> <minimizedAffinity>
-7.38698

$$$$
2J94_G15_A_1245


 33 36  0  0  0  0  0  0  0  0999 V2000
    4.5760    9.0647   20.2058 N   0  0  0  0  0  0  0  0  0  0  0  0
    3.6047    8.7804   20.3325 H   0  0  0  0  0  0  0  0  0  0  0  0
    6.0973    5.9936   19.0446 N   0  0  0  0  0  0  0  0  0  0  0  0
    5.6253    5.4954   20.3312 C   0  0  0  0  0  0  0  0  0  0  0  0
    4.6534    6.6108   20.7359 C   0  0  0  0  0  0  0  0  0  0  0  0
    6.0324    7.3241   18.9530 C   0  0  0  0  0  0  0  0  0  0  0  0
    6.4360    7.9047   17.9763 O   0  0  0  0  0  0  0  0  0  0  0  0
    5.3933    7.8547   20.2259 C   0  0  0  0  0  0  0  0  0  0  0  0
    6.6059    5.1986   17.9150 C   0  0  0  0  0  0  0  0  0  0  0  0
    6.4489    5.9670   16.5930 C   0  0  0  0  0  0  0  0  0  0  0  0
    8.7437    5.2227   18.9742 O   0  0  0  0  0  0  0  0  0  0  0  0
    8.0388    4.6887   18.1228 C   0  0  0  0  0  0  0  0  0  0  0  0
    8.5131    3.6434   17.3852 N   0  0  0  0  0  0  0  0  0  0  0  0
    9.9215    3.2541   17.5689 C   0  0  0  0  0  0  0  0  0  0  0  0
   10.0211    1.7492   17.8163 C   0  0  0  0  0  0  0  0  0  0  0  0
    9.3580    1.0898   16.7369 O   0  0  0  0  0  0  0  0  0  0  0  0
    7.9584    1.3498   16.7224 C   0  0  0  0  0  0  0  0  0  0  0  0
    7.7613    2.8364   16.4237 C   0  0  0  0  0  0  0  0  0  0  0  0
    4.9029   10.2113   21.3278 S   0  0  0  0  0  0  0  0  0  0  0  0
    4.0514    9.9650   22.4578 O   0  0  0  0  0  0  0  0  0  0  0  0
    4.8553   11.4366   20.5960 O   0  0  0  0  0  0  0  0  0  0  0  0
    6.5178   10.0242   21.9287 C   0  0  0  0  0  0  0  0  0  0  0  0
    7.5370   10.6092   21.3504 N   0  0  0  0  0  0  0  0  0  0  0  0
    8.6657   10.3356   22.0513 N   0  0  0  0  0  0  0  0  0  0  0  0
    6.8456    9.3998   23.0708 N   0  0  0  0  0  0  0  0  0  0  0  0
    8.2213    9.5523   23.1249 C   0  0  0  0  0  0  0  0  0  0  0  0
    9.5863   10.6217   21.8514 H   0  0  0  0  0  0  0  0  0  0  0  0
    9.0881    9.0268   24.2220 C   0  0  0  0  0  0  0  0  0  0  0  0
    8.5236    8.3650   25.3131 C   0  0  0  0  0  0  0  0  0  0  0  0
    9.5472    7.9383   26.1969 C   0  0  0  0  0  0  0  0  0  0  0  0
   10.8100    8.3208   25.6934 C   0  0  0  0  0  0  0  0  0  0  0  0
   10.7898    9.1523   24.2208 S   0  0  0  0  0  0  0  0  0  0  0  0
   12.3006    7.9360   26.4691 Cl  0  0  0  0  0  0  0  0  0  0  0  0
 11 12  2  0  0  0
 12 13  1  0  0  0
 12  9  1  0  0  0
 13 14  1  0  0  0
 13 18  1  0  0  0
 14 15  1  0  0  0
 15 16  1  0  0  0
 16 17  1  0  0  0
 17 18  1  0  0  0
  9 10  1  0  0  0
  9  3  1  0  0  0
  3  4  1  0  0  0
  3  6  1  0  0  0
  4  5  1  0  0  0
  5  8  1  0  0  0
  6  7  2  0  0  0
  6  8  1  0  0  0
  8  1  1  0  0  0
  1 19  1  0  0  0
 19 21  2  0  0  0
 19 22  1  0  0  0
 19 20  2  0  0  0
 22 23  2  0  0  0
 22 25  1  0  0  0
 23 24  1  0  0  0
 24 26  1  0  0  0
 25 26  2  0  0  0
 26 28  1  0  0  0
 28 29  2  0  0  0
 28 32  1  0  0  0
 29 30  1  0  0  0
 30 31  2  0  0  0
 31 32  1  0  0  0
 31 33  1  0  0  0
  1  2  1  0  0  0
 24 27  1  0  0  0
M  END
> <minimizedAffinity>
-7.29177

$$$$
2J94_G15_A_1245


 33 36  0  0  0  0  0  0  0  0999 V2000
    5.8134    6.3184   21.9464 N   0  0  0  0  0  0  0  0  0  0  0  0
    6.7879    6.0890   22.1421 H   0  0  0  0  0  0  0  0  0  0  0  0
    5.7267    5.6563   18.3899 N   0  0  0  0  0  0  0  0  0  0  0  0
    6.6576    6.7780   18.3502 C   0  0  0  0  0  0  0  0  0  0  0  0
    7.0411    6.8900   19.8310 C   0  0  0  0  0  0  0  0  0  0  0  0
    5.1250    5.5290   19.5751 C   0  0  0  0  0  0  0  0  0  0  0  0
    4.2832    4.6862   19.7623 O   0  0  0  0  0  0  0  0  0  0  0  0
    5.7029    6.5759   20.5132 C   0  0  0  0  0  0  0  0  0  0  0  0
    5.4186    4.7169   17.2994 C   0  0  0  0  0  0  0  0  0  0  0  0
    4.3862    5.3215   16.3343 C   0  0  0  0  0  0  0  0  0  0  0  0
    7.0862    4.8240   15.5963 O   0  0  0  0  0  0  0  0  0  0  0  0
    6.6650    4.2012   16.5667 C   0  0  0  0  0  0  0  0  0  0  0  0
    7.3063    3.0782   17.0021 N   0  0  0  0  0  0  0  0  0  0  0  0
    8.4448    2.5844   16.2093 C   0  0  0  0  0  0  0  0  0  0  0  0
    9.6506    2.3445   17.1173 C   0  0  0  0  0  0  0  0  0  0  0  0
    9.2333    1.4702   18.1666 O   0  0  0  0  0  0  0  0  0  0  0  0
    8.2670    2.0733   19.0207 C   0  0  0  0  0  0  0  0  0  0  0  0
    6.9956    2.3009   18.2023 C   0  0  0  0  0  0  0  0  0  0  0  0
    5.3790    7.5261   22.9628 S   0  0  0  0  0  0  0  0  0  0  0  0
    4.5999    6.9425   24.0188 O   0  0  0  0  0  0  0  0  0  0  0  0
    4.8509    8.5334   22.0993 O   0  0  0  0  0  0  0  0  0  0  0  0
    6.7767    8.1887   23.7446 C   0  0  0  0  0  0  0  0  0  0  0  0
    6.8930    9.4739   23.9683 N   0  0  0  0  0  0  0  0  0  0  0  0
    8.0520    9.7086   24.6329 N   0  0  0  0  0  0  0  0  0  0  0  0
    7.7671    7.4658   24.2910 N   0  0  0  0  0  0  0  0  0  0  0  0
    8.6079    8.4350   24.8130 C   0  0  0  0  0  0  0  0  0  0  0  0
    8.4186   10.5752   24.9225 H   0  0  0  0  0  0  0  0  0  0  0  0
    9.8812    8.1479   25.5394 C   0  0  0  0  0  0  0  0  0  0  0  0
    9.8641    7.4447   26.7445 C   0  0  0  0  0  0  0  0  0  0  0  0
   11.1896    7.2743   27.2189 C   0  0  0  0  0  0  0  0  0  0  0  0
   12.1034    7.8721   26.3233 C   0  0  0  0  0  0  0  0  0  0  0  0
   11.4198    8.6065   24.9617 S   0  0  0  0  0  0  0  0  0  0  0  0
   13.8132    7.8295   26.5379 Cl  0  0  0  0  0  0  0  0  0  0  0  0
 11 12  2  0  0  0
 12 13  1  0  0  0
 12  9  1  0  0  0
 13 14  1  0  0  0
 13 18  1  0  0  0
 14 15  1  0  0  0
 15 16  1  0  0  0
 16 17  1  0  0  0
 17 18  1  0  0  0
  9 10  1  0  0  0
  9  3  1  0  0  0
  3  4  1  0  0  0
  3  6  1  0  0  0
  4  5  1  0  0  0
  5  8  1  0  0  0
  6  7  2  0  0  0
  6  8  1  0  0  0
  8  1  1  0  0  0
  1 19  1  0  0  0
 19 21  2  0  0  0
 19 22  1  0  0  0
 19 20  2  0  0  0
 22 23  2  0  0  0
 22 25  1  0  0  0
 23 24  1  0  0  0
 24 26  1  0  0  0
 25 26  2  0  0  0
 26 28  1  0  0  0
 28 29  2  0  0  0
 28 32  1  0  0  0
 29 30  1  0  0  0
 30 31  2  0  0  0
 31 32  1  0  0  0
 31 33  1  0  0  0
  1  2  1  0  0  0
 24 27  1  0  0  0
M  END
> <minimizedAffinity>
-7.29091

$$$$
