4NH7_E0G_A_301


 37 40  0  0  0  0  0  0  0  0999 V2000
   18.8157   10.7593   15.1844 C   0  0  0  0  0  0  0  0  0  0  0  0
   19.5383   11.8782   14.7074 C   0  0  0  0  0  0  0  0  0  0  0  0
   18.7044   13.1971   16.5573 C   0  0  0  0  0  0  0  0  0  0  0  0
   17.9646   12.1130   17.0064 C   0  0  0  0  0  0  0  0  0  0  0  0
   18.0334   10.8893   16.3392 C   0  0  0  0  0  0  0  0  0  0  0  0
   19.4759   13.0811   15.4193 C   0  0  0  0  0  0  0  0  0  0  0  0
   17.0357   12.2735   18.0730 N   0  0  0  0  0  0  0  0  0  0  0  0
   16.5110   13.5334   18.3652 N   0  0  0  0  0  0  0  0  0  0  0  0
   15.7568   13.3314   19.4326 C   0  0  0  0  0  0  0  0  0  0  0  0
   15.7609   11.9709   19.8362 C   0  0  0  0  0  0  0  0  0  0  0  0
   16.6012   11.3294   18.9495 C   0  0  0  0  0  0  0  0  0  0  0  0
   15.3727    9.7358   20.9741 C   0  0  0  0  0  0  0  0  0  0  0  0
   17.8516    9.7529   21.4014 C   0  0  0  0  0  0  0  0  0  0  0  0
   14.4882   11.8086   21.8030 O   0  0  0  0  0  0  0  0  0  0  0  0
   16.9562    9.8765   19.0552 C   0  0  0  0  0  0  0  0  0  0  0  0
   16.7460    9.2797   20.4529 C   0  0  0  0  0  0  0  0  0  0  0  0
   15.1434   11.2347   20.9328 C   0  0  0  0  0  0  0  0  0  0  0  0
   16.8011    7.7608   20.3631 C   0  0  0  0  0  0  0  0  0  0  0  0
   13.7366   14.4255   19.9190 F   0  0  0  0  0  0  0  0  0  0  0  0
   15.2843   14.5989   21.3163 F   0  0  0  0  0  0  0  0  0  0  0  0
   15.4661   15.6296   19.5535 F   0  0  0  0  0  0  0  0  0  0  0  0
   15.0568   14.4995   20.0503 C   0  0  0  0  0  0  0  0  0  0  0  0
   21.4715   12.5812   13.3985 N   0  0  0  0  0  0  0  0  0  0  0  0
   19.9624   11.1729   12.4867 O   0  0  0  0  0  0  0  0  0  0  0  0
   20.3532   11.8449   13.4476 C   0  0  0  0  0  0  0  0  0  0  0  0
   22.0267   12.5795   12.5854 H   0  0  0  0  0  0  0  0  0  0  0  0
   21.7381   13.1238   14.1755 H   0  0  0  0  0  0  0  0  0  0  0  0
   18.8754    9.5439   14.5004 N   0  0  0  0  0  0  0  0  0  0  0  0
   19.7071    9.3784   14.0004 H   0  0  0  0  0  0  0  0  0  0  0  0
   17.8742    8.4852   14.4249 C   0  0  0  0  0  0  0  0  0  0  0  0
   17.5151    6.0513   13.8797 C   0  0  0  0  0  0  0  0  0  0  0  0
   16.3979    6.4025   12.9138 C   0  0  0  0  0  0  0  0  0  0  0  0
   15.7184    7.7119   13.2922 C   0  0  0  0  0  0  0  0  0  0  0  0
   16.7309    8.8663   13.4865 C   0  0  0  0  0  0  0  0  0  0  0  0
   15.4395    5.3288   12.9362 O   0  0  0  0  0  0  0  0  0  0  0  0
   18.5278    7.1843   13.9836 C   0  0  0  0  0  0  0  0  0  0  0  0
   15.0830    5.2323   13.8332 H   0  0  0  0  0  0  0  0  0  0  0  0
 24 25  2  0  0  0
 23 25  1  0  0  0
 25  2  1  0  0  0
 36 31  1  0  0  0
 36 30  1  0  0  0
 32 31  1  0  0  0
 32 35  1  0  0  0
 32 33  1  0  0  0
 28 30  1  0  0  0
 28  1  1  0  0  0
 34 33  1  0  0  0
 34 30  1  0  0  0
  2  1  2  0  0  0
  2  6  1  0  0  0
  1  5  1  0  0  0
  6  3  2  0  0  0
  5  4  2  0  0  0
  3  4  1  0  0  0
  4  7  1  0  0  0
  7 11  1  0  0  0
  7  8  1  0  0  0
 15 11  1  0  0  0
 15 16  1  0  0  0
 13 16  1  0  0  0
 18 16  1  0  0  0
 11 10  2  0  0  0
  8  9  2  0  0  0
 16 12  1  0  0  0
 10  9  1  0  0  0
 10 17  1  0  0  0
  9 22  1  0  0  0
 12 17  1  0  0  0
 19 22  1  0  0  0
 17 14  2  0  0  0
 22 21  1  0  0  0
 22 20  1  0  0  0
 23 26  1  0  0  0
 23 27  1  0  0  0
 28 29  1  0  0  0
 35 37  1  0  0  0
M  END
> <minimizedAffinity>
-12.73759

$$$$
4NH7_E0G_A_301


 37 40  0  0  0  0  0  0  0  0999 V2000
   18.6813    9.9046   15.0003 C   0  0  0  0  0  0  0  0  0  0  0  0
   19.0661   11.1656   14.4869 C   0  0  0  0  0  0  0  0  0  0  0  0
   18.5319   12.1876   16.6146 C   0  0  0  0  0  0  0  0  0  0  0  0
   18.1179   10.9595   17.1091 C   0  0  0  0  0  0  0  0  0  0  0  0
   18.2108    9.8145   16.3168 C   0  0  0  0  0  0  0  0  0  0  0  0
   18.9941   12.2885   15.3185 C   0  0  0  0  0  0  0  0  0  0  0  0
   17.4802   10.8779   18.3791 N   0  0  0  0  0  0  0  0  0  0  0  0
   17.4946    9.6816   19.0978 N   0  0  0  0  0  0  0  0  0  0  0  0
   16.7654    9.9385   20.1706 C   0  0  0  0  0  0  0  0  0  0  0  0
   16.2884   11.2750   20.1812 C   0  0  0  0  0  0  0  0  0  0  0  0
   16.7559   11.8388   19.0118 C   0  0  0  0  0  0  0  0  0  0  0  0
   15.2089   13.5031   20.7396 C   0  0  0  0  0  0  0  0  0  0  0  0
   13.9068   13.1744   18.6124 C   0  0  0  0  0  0  0  0  0  0  0  0
   14.9175   11.5262   22.0710 O   0  0  0  0  0  0  0  0  0  0  0  0
   16.4201   13.2344   18.5785 C   0  0  0  0  0  0  0  0  0  0  0  0
   15.1561   13.8072   19.2327 C   0  0  0  0  0  0  0  0  0  0  0  0
   15.4424   12.0447   21.0855 C   0  0  0  0  0  0  0  0  0  0  0  0
   15.1066   15.3105   18.9968 C   0  0  0  0  0  0  0  0  0  0  0  0
   15.2450    8.5681   21.3219 F   0  0  0  0  0  0  0  0  0  0  0  0
   17.0966    7.7356   20.8155 F   0  0  0  0  0  0  0  0  0  0  0  0
   17.0514    9.1235   22.3236 F   0  0  0  0  0  0  0  0  0  0  0  0
   16.5351    8.8439   21.1631 C   0  0  0  0  0  0  0  0  0  0  0  0
   18.6002   11.3696   12.1024 N   0  0  0  0  0  0  0  0  0  0  0  0
   20.7320   11.4826   12.8337 O   0  0  0  0  0  0  0  0  0  0  0  0
   19.5250   11.3633   13.0718 C   0  0  0  0  0  0  0  0  0  0  0  0
   18.8711   11.4972   11.1645 H   0  0  0  0  0  0  0  0  0  0  0  0
   17.6498   11.2467   12.3279 H   0  0  0  0  0  0  0  0  0  0  0  0
   18.7598    8.7672   14.1950 N   0  0  0  0  0  0  0  0  0  0  0  0
   19.6571    8.3723   14.1042 H   0  0  0  0  0  0  0  0  0  0  0  0
   17.6947    8.0832   13.4694 C   0  0  0  0  0  0  0  0  0  0  0  0
   15.2033    7.7193   13.3662 C   0  0  0  0  0  0  0  0  0  0  0  0
   15.3935    6.2133   13.3771 C   0  0  0  0  0  0  0  0  0  0  0  0
   16.7404    5.8125   12.7901 C   0  0  0  0  0  0  0  0  0  0  0  0
   17.9184    6.5724   13.4460 C   0  0  0  0  0  0  0  0  0  0  0  0
   14.3289    5.6271   12.6057 O   0  0  0  0  0  0  0  0  0  0  0  0
   16.3463    8.4226   14.0866 C   0  0  0  0  0  0  0  0  0  0  0  0
   14.3688    5.9589   11.6951 H   0  0  0  0  0  0  0  0  0  0  0  0
 24 25  2  0  0  0
 23 25  1  0  0  0
 25  2  1  0  0  0
 36 31  1  0  0  0
 36 30  1  0  0  0
 32 31  1  0  0  0
 32 35  1  0  0  0
 32 33  1  0  0  0
 28 30  1  0  0  0
 28  1  1  0  0  0
 34 33  1  0  0  0
 34 30  1  0  0  0
  2  1  2  0  0  0
  2  6  1  0  0  0
  1  5  1  0  0  0
  6  3  2  0  0  0
  5  4  2  0  0  0
  3  4  1  0  0  0
  4  7  1  0  0  0
  7 11  1  0  0  0
  7  8  1  0  0  0
 15 11  1  0  0  0
 15 16  1  0  0  0
 13 16  1  0  0  0
 18 16  1  0  0  0
 11 10  2  0  0  0
  8  9  2  0  0  0
 16 12  1  0  0  0
 10  9  1  0  0  0
 10 17  1  0  0  0
  9 22  1  0  0  0
 12 17  1  0  0  0
 19 22  1  0  0  0
 17 14  2  0  0  0
 22 21  1  0  0  0
 22 20  1  0  0  0
 23 26  1  0  0  0
 23 27  1  0  0  0
 28 29  1  0  0  0
 35 37  1  0  0  0
M  END
> <minimizedAffinity>
-12.52238

$$$$
4NH7_E0G_A_301


 37 40  0  0  0  0  0  0  0  0999 V2000
   16.8141   10.0035   19.7009 C   0  0  0  0  0  0  0  0  0  0  0  0
   16.5823    8.7162   20.2402 C   0  0  0  0  0  0  0  0  0  0  0  0
   16.9301    7.7437   18.0515 C   0  0  0  0  0  0  0  0  0  0  0  0
   17.1203    9.0075   17.5120 C   0  0  0  0  0  0  0  0  0  0  0  0
   17.0857   10.1354   18.3330 C   0  0  0  0  0  0  0  0  0  0  0  0
   16.6589    7.6023   19.3969 C   0  0  0  0  0  0  0  0  0  0  0  0
   17.2269    9.1749   16.1025 N   0  0  0  0  0  0  0  0  0  0  0  0
   17.9213   10.2641   15.5741 N   0  0  0  0  0  0  0  0  0  0  0  0
   17.7618   10.1475   14.2665 C   0  0  0  0  0  0  0  0  0  0  0  0
   16.9962    9.0026   13.9247 C   0  0  0  0  0  0  0  0  0  0  0  0
   16.6617    8.4147   15.1273 C   0  0  0  0  0  0  0  0  0  0  0  0
   15.7448    7.1356   12.7459 C   0  0  0  0  0  0  0  0  0  0  0  0
   13.7303    7.9690   14.0009 C   0  0  0  0  0  0  0  0  0  0  0  0
   16.7001    9.0142   11.5953 O   0  0  0  0  0  0  0  0  0  0  0  0
   15.7824    7.2051   15.2365 C   0  0  0  0  0  0  0  0  0  0  0  0
   14.8886    6.9669   14.0125 C   0  0  0  0  0  0  0  0  0  0  0  0
   16.5146    8.4404   12.6686 C   0  0  0  0  0  0  0  0  0  0  0  0
   14.3119    5.5595   14.0789 C   0  0  0  0  0  0  0  0  0  0  0  0
   19.4119   10.7379   12.7032 F   0  0  0  0  0  0  0  0  0  0  0  0
   17.5234   11.6120   12.4842 F   0  0  0  0  0  0  0  0  0  0  0  0
   18.7021   12.2552   14.0332 F   0  0  0  0  0  0  0  0  0  0  0  0
   18.3568   11.1889   13.3735 C   0  0  0  0  0  0  0  0  0  0  0  0
   17.0566    7.7466   22.4265 N   0  0  0  0  0  0  0  0  0  0  0  0
   15.1754    8.9572   22.1301 O   0  0  0  0  0  0  0  0  0  0  0  0
   16.2269    8.4882   21.6803 C   0  0  0  0  0  0  0  0  0  0  0  0
   16.8499    7.5798   23.3745 H   0  0  0  0  0  0  0  0  0  0  0  0
   17.8730    7.3686   22.0267 H   0  0  0  0  0  0  0  0  0  0  0  0
   16.7593   11.1283   20.5256 N   0  0  0  0  0  0  0  0  0  0  0  0
   17.4953   11.2162   21.1736 H   0  0  0  0  0  0  0  0  0  0  0  0
   15.7609   12.1918   20.5592 C   0  0  0  0  0  0  0  0  0  0  0  0
   13.2930   12.6794   20.4108 C   0  0  0  0  0  0  0  0  0  0  0  0
   13.5324   13.7091   19.3214 C   0  0  0  0  0  0  0  0  0  0  0  0
   14.9234   14.3210   19.4220 C   0  0  0  0  0  0  0  0  0  0  0  0
   16.0359   13.2472   19.4897 C   0  0  0  0  0  0  0  0  0  0  0  0
   12.5339   14.7370   19.4568 O   0  0  0  0  0  0  0  0  0  0  0  0
   14.3688   11.6012   20.3934 C   0  0  0  0  0  0  0  0  0  0  0  0
   12.6149   15.1535   20.3291 H   0  0  0  0  0  0  0  0  0  0  0  0
 24 25  2  0  0  0
 23 25  1  0  0  0
 25  2  1  0  0  0
 36 31  1  0  0  0
 36 30  1  0  0  0
 32 31  1  0  0  0
 32 35  1  0  0  0
 32 33  1  0  0  0
 28 30  1  0  0  0
 28  1  1  0  0  0
 34 33  1  0  0  0
 34 30  1  0  0  0
  2  1  2  0  0  0
  2  6  1  0  0  0
  1  5  1  0  0  0
  6  3  2  0  0  0
  5  4  2  0  0  0
  3  4  1  0  0  0
  4  7  1  0  0  0
  7 11  1  0  0  0
  7  8  1  0  0  0
 15 11  1  0  0  0
 15 16  1  0  0  0
 13 16  1  0  0  0
 18 16  1  0  0  0
 11 10  2  0  0  0
  8  9  2  0  0  0
 16 12  1  0  0  0
 10  9  1  0  0  0
 10 17  1  0  0  0
  9 22  1  0  0  0
 12 17  1  0  0  0
 19 22  1  0  0  0
 17 14  2  0  0  0
 22 21  1  0  0  0
 22 20  1  0  0  0
 23 26  1  0  0  0
 23 27  1  0  0  0
 28 29  1  0  0  0
 35 37  1  0  0  0
M  END
> <minimizedAffinity>
-10.13738

$$$$
4NH7_E0G_A_301


 37 40  0  0  0  0  0  0  0  0999 V2000
   17.7155    8.9058   16.5524 C   0  0  0  0  0  0  0  0  0  0  0  0
   18.4988    7.8062   16.9756 C   0  0  0  0  0  0  0  0  0  0  0  0
   17.7105    8.1251   19.2414 C   0  0  0  0  0  0  0  0  0  0  0  0
   16.9711    9.2269   18.8371 C   0  0  0  0  0  0  0  0  0  0  0  0
   16.9521    9.6073   17.4945 C   0  0  0  0  0  0  0  0  0  0  0  0
   18.4684    7.4287   18.3226 C   0  0  0  0  0  0  0  0  0  0  0  0
   16.3285   10.0509   19.8036 N   0  0  0  0  0  0  0  0  0  0  0  0
   15.8022    9.4898   20.9681 N   0  0  0  0  0  0  0  0  0  0  0  0
   15.2297   10.5074   21.5889 C   0  0  0  0  0  0  0  0  0  0  0  0
   15.3817   11.7216   20.8704 C   0  0  0  0  0  0  0  0  0  0  0  0
   16.0782   11.3851   19.7278 C   0  0  0  0  0  0  0  0  0  0  0  0
   15.3649   14.1284   20.0650 C   0  0  0  0  0  0  0  0  0  0  0  0
   14.1056   13.2405   18.0766 C   0  0  0  0  0  0  0  0  0  0  0  0
   14.2077   13.3890   22.0347 O   0  0  0  0  0  0  0  0  0  0  0  0
   16.3945   12.3644   18.6374 C   0  0  0  0  0  0  0  0  0  0  0  0
   15.4891   13.6029   18.6247 C   0  0  0  0  0  0  0  0  0  0  0  0
   14.9315   13.0918   21.0842 C   0  0  0  0  0  0  0  0  0  0  0  0
   16.1047   14.6650   17.7242 C   0  0  0  0  0  0  0  0  0  0  0  0
   13.3998   10.9609   22.9892 F   0  0  0  0  0  0  0  0  0  0  0  0
   14.1785    9.0192   23.0237 F   0  0  0  0  0  0  0  0  0  0  0  0
   15.2771   10.5070   23.9081 F   0  0  0  0  0  0  0  0  0  0  0  0
   14.5203   10.2550   22.8809 C   0  0  0  0  0  0  0  0  0  0  0  0
   20.5254    6.5223   16.5406 N   0  0  0  0  0  0  0  0  0  0  0  0
   19.0778    6.9218   14.8563 O   0  0  0  0  0  0  0  0  0  0  0  0
   19.3908    7.0360   16.0465 C   0  0  0  0  0  0  0  0  0  0  0  0
   21.1306    6.0121   15.9552 H   0  0  0  0  0  0  0  0  0  0  0  0
   20.7538    6.6550   17.4890 H   0  0  0  0  0  0  0  0  0  0  0  0
   17.7167    9.2911   15.2108 N   0  0  0  0  0  0  0  0  0  0  0  0
   17.3056    8.6519   14.5850 H   0  0  0  0  0  0  0  0  0  0  0  0
   18.2436   10.5112   14.6086 C   0  0  0  0  0  0  0  0  0  0  0  0
   19.7163   11.4089   12.7714 C   0  0  0  0  0  0  0  0  0  0  0  0
   20.5115   12.2302   13.7702 C   0  0  0  0  0  0  0  0  0  0  0  0
   19.6770   12.5914   14.9920 C   0  0  0  0  0  0  0  0  0  0  0  0
   19.0029   11.3538   15.6318 C   0  0  0  0  0  0  0  0  0  0  0  0
   20.9525   13.4287   13.1063 O   0  0  0  0  0  0  0  0  0  0  0  0
   19.1336   10.1627   13.4251 C   0  0  0  0  0  0  0  0  0  0  0  0
   20.1813   13.9329   12.8031 H   0  0  0  0  0  0  0  0  0  0  0  0
 24 25  2  0  0  0
 23 25  1  0  0  0
 25  2  1  0  0  0
 36 31  1  0  0  0
 36 30  1  0  0  0
 32 31  1  0  0  0
 32 35  1  0  0  0
 32 33  1  0  0  0
 28 30  1  0  0  0
 28  1  1  0  0  0
 34 33  1  0  0  0
 34 30  1  0  0  0
  2  1  2  0  0  0
  2  6  1  0  0  0
  1  5  1  0  0  0
  6  3  2  0  0  0
  5  4  2  0  0  0
  3  4  1  0  0  0
  4  7  1  0  0  0
  7 11  1  0  0  0
  7  8  1  0  0  0
 15 11  1  0  0  0
 15 16  1  0  0  0
 13 16  1  0  0  0
 18 16  1  0  0  0
 11 10  2  0  0  0
  8  9  2  0  0  0
 16 12  1  0  0  0
 10  9  1  0  0  0
 10 17  1  0  0  0
  9 22  1  0  0  0
 12 17  1  0  0  0
 19 22  1  0  0  0
 17 14  2  0  0  0
 22 21  1  0  0  0
 22 20  1  0  0  0
 23 26  1  0  0  0
 23 27  1  0  0  0
 28 29  1  0  0  0
 35 37  1  0  0  0
M  END
> <minimizedAffinity>
-10.02840

$$$$
4NH7_E0G_A_301


 37 40  0  0  0  0  0  0  0  0999 V2000
   17.4156    9.4854   14.2314 C   0  0  0  0  0  0  0  0  0  0  0  0
   18.3051   10.5775   14.0979 C   0  0  0  0  0  0  0  0  0  0  0  0
   18.4831   10.7187   16.5073 C   0  0  0  0  0  0  0  0  0  0  0  0
   17.5818    9.6731   16.6427 C   0  0  0  0  0  0  0  0  0  0  0  0
   17.0636    9.0400   15.5121 C   0  0  0  0  0  0  0  0  0  0  0  0
   18.8344   11.1676   15.2508 C   0  0  0  0  0  0  0  0  0  0  0  0
   17.0830    9.3205   17.9284 N   0  0  0  0  0  0  0  0  0  0  0  0
   17.0940   10.2527   18.9671 N   0  0  0  0  0  0  0  0  0  0  0  0
   16.6368    9.5815   20.0107 C   0  0  0  0  0  0  0  0  0  0  0  0
   16.3114    8.2407   19.6789 C   0  0  0  0  0  0  0  0  0  0  0  0
   16.6237    8.1094   18.3413 C   0  0  0  0  0  0  0  0  0  0  0  0
   15.5485    5.8201   19.6647 C   0  0  0  0  0  0  0  0  0  0  0  0
   17.9171    5.2900   19.0038 C   0  0  0  0  0  0  0  0  0  0  0  0
   15.6426    7.1613   21.6542 O   0  0  0  0  0  0  0  0  0  0  0  0
   16.5051    6.8168   17.5908 C   0  0  0  0  0  0  0  0  0  0  0  0
   16.5035    5.5702   18.4851 C   0  0  0  0  0  0  0  0  0  0  0  0
   15.8135    7.0988   20.4366 C   0  0  0  0  0  0  0  0  0  0  0  0
   16.0385    4.3701   17.6718 C   0  0  0  0  0  0  0  0  0  0  0  0
   15.3456   10.1622   21.8843 F   0  0  0  0  0  0  0  0  0  0  0  0
   17.3844    9.8083   22.1942 F   0  0  0  0  0  0  0  0  0  0  0  0
   16.8481   11.5396   21.2363 F   0  0  0  0  0  0  0  0  0  0  0  0
   16.5482   10.2777   21.3312 C   0  0  0  0  0  0  0  0  0  0  0  0
   19.9656   11.5211   12.5822 N   0  0  0  0  0  0  0  0  0  0  0  0
   17.8255   11.3117   11.8979 O   0  0  0  0  0  0  0  0  0  0  0  0
   18.6896   11.1569   12.7680 C   0  0  0  0  0  0  0  0  0  0  0  0
   20.2477   11.9043   11.7203 H   0  0  0  0  0  0  0  0  0  0  0  0
   20.6211   11.4056   13.3077 H   0  0  0  0  0  0  0  0  0  0  0  0
   16.8873    8.8697   13.0955 N   0  0  0  0  0  0  0  0  0  0  0  0
   16.7351    9.4615   12.3236 H   0  0  0  0  0  0  0  0  0  0  0  0
   16.5298    7.4694   12.8952 C   0  0  0  0  0  0  0  0  0  0  0  0
   14.8812    5.6729   13.5317 C   0  0  0  0  0  0  0  0  0  0  0  0
   16.0088    4.7416   13.9385 C   0  0  0  0  0  0  0  0  0  0  0  0
   17.2924    5.0472   13.1780 C   0  0  0  0  0  0  0  0  0  0  0  0
   17.6860    6.5416   13.2633 C   0  0  0  0  0  0  0  0  0  0  0  0
   15.5880    3.3921   13.6670 O   0  0  0  0  0  0  0  0  0  0  0  0
   15.2851    7.1317   13.7020 C   0  0  0  0  0  0  0  0  0  0  0  0
   15.4044    3.2951   12.7195 H   0  0  0  0  0  0  0  0  0  0  0  0
 24 25  2  0  0  0
 23 25  1  0  0  0
 25  2  1  0  0  0
 36 31  1  0  0  0
 36 30  1  0  0  0
 32 31  1  0  0  0
 32 35  1  0  0  0
 32 33  1  0  0  0
 28 30  1  0  0  0
 28  1  1  0  0  0
 34 33  1  0  0  0
 34 30  1  0  0  0
  2  1  2  0  0  0
  2  6  1  0  0  0
  1  5  1  0  0  0
  6  3  2  0  0  0
  5  4  2  0  0  0
  3  4  1  0  0  0
  4  7  1  0  0  0
  7 11  1  0  0  0
  7  8  1  0  0  0
 15 11  1  0  0  0
 15 16  1  0  0  0
 13 16  1  0  0  0
 18 16  1  0  0  0
 11 10  2  0  0  0
  8  9  2  0  0  0
 16 12  1  0  0  0
 10  9  1  0  0  0
 10 17  1  0  0  0
  9 22  1  0  0  0
 12 17  1  0  0  0
 19 22  1  0  0  0
 17 14  2  0  0  0
 22 21  1  0  0  0
 22 20  1  0  0  0
 23 26  1  0  0  0
 23 27  1  0  0  0
 28 29  1  0  0  0
 35 37  1  0  0  0
M  END
> <minimizedAffinity>
-9.99486

$$$$
4NH7_E0G_A_301


 37 40  0  0  0  0  0  0  0  0999 V2000
   17.2340   11.8123   18.2051 C   0  0  0  0  0  0  0  0  0  0  0  0
   16.2295   12.5772   18.8435 C   0  0  0  0  0  0  0  0  0  0  0  0
   15.3562   10.5651   19.8659 C   0  0  0  0  0  0  0  0  0  0  0  0
   16.3160    9.8070   19.2116 C   0  0  0  0  0  0  0  0  0  0  0  0
   17.2682   10.4255   18.4003 C   0  0  0  0  0  0  0  0  0  0  0  0
   15.3113   11.9312   19.6786 C   0  0  0  0  0  0  0  0  0  0  0  0
   16.2612    8.3855   19.2616 N   0  0  0  0  0  0  0  0  0  0  0  0
   16.1371    7.7290   20.4870 N   0  0  0  0  0  0  0  0  0  0  0  0
   16.1889    6.4451   20.1742 C   0  0  0  0  0  0  0  0  0  0  0  0
   16.3267    6.2440   18.7762 C   0  0  0  0  0  0  0  0  0  0  0  0
   16.3828    7.5094   18.2290 C   0  0  0  0  0  0  0  0  0  0  0  0
   16.5373    5.2982   16.4305 C   0  0  0  0  0  0  0  0  0  0  0  0
   18.7416    6.5081   16.3598 C   0  0  0  0  0  0  0  0  0  0  0  0
   16.5315    3.9341   18.4065 O   0  0  0  0  0  0  0  0  0  0  0  0
   16.6035    7.7662   16.7684 C   0  0  0  0  0  0  0  0  0  0  0  0
   17.2515    6.5962   16.0168 C   0  0  0  0  0  0  0  0  0  0  0  0
   16.4586    5.0659   17.9274 C   0  0  0  0  0  0  0  0  0  0  0  0
   17.1113    6.8237   14.5180 C   0  0  0  0  0  0  0  0  0  0  0  0
   14.9266    4.8572   21.3574 F   0  0  0  0  0  0  0  0  0  0  0  0
   16.9695    4.4748   21.1158 F   0  0  0  0  0  0  0  0  0  0  0  0
   16.4205    5.9504   22.4287 F   0  0  0  0  0  0  0  0  0  0  0  0
   16.1209    5.4336   21.2734 C   0  0  0  0  0  0  0  0  0  0  0  0
   15.4431   14.7620   19.5873 N   0  0  0  0  0  0  0  0  0  0  0  0
   16.5212   14.5798   17.6133 O   0  0  0  0  0  0  0  0  0  0  0  0
   16.0826   14.0574   18.6440 C   0  0  0  0  0  0  0  0  0  0  0  0
   15.3312   15.7346   19.4841 H   0  0  0  0  0  0  0  0  0  0  0  0
   15.0851   14.3070   20.3836 H   0  0  0  0  0  0  0  0  0  0  0  0
   18.1713   12.4365   17.3803 N   0  0  0  0  0  0  0  0  0  0  0  0
   18.3226   13.3930   17.5574 H   0  0  0  0  0  0  0  0  0  0  0  0
   18.9576   11.8659   16.2918 C   0  0  0  0  0  0  0  0  0  0  0  0
   20.3281   12.4263   14.2527 C   0  0  0  0  0  0  0  0  0  0  0  0
   19.5038   11.4770   13.4019 C   0  0  0  0  0  0  0  0  0  0  0  0
   18.9054   10.3511   14.2348 C   0  0  0  0  0  0  0  0  0  0  0  0
   18.1338   10.8773   15.4689 C   0  0  0  0  0  0  0  0  0  0  0  0
   20.3655   10.9308   12.3866 O   0  0  0  0  0  0  0  0  0  0  0  0
   19.5082   12.9779   15.4118 C   0  0  0  0  0  0  0  0  0  0  0  0
   21.0954   10.4493   12.8067 H   0  0  0  0  0  0  0  0  0  0  0  0
 24 25  2  0  0  0
 23 25  1  0  0  0
 25  2  1  0  0  0
 36 31  1  0  0  0
 36 30  1  0  0  0
 32 31  1  0  0  0
 32 35  1  0  0  0
 32 33  1  0  0  0
 28 30  1  0  0  0
 28  1  1  0  0  0
 34 33  1  0  0  0
 34 30  1  0  0  0
  2  1  2  0  0  0
  2  6  1  0  0  0
  1  5  1  0  0  0
  6  3  2  0  0  0
  5  4  2  0  0  0
  3  4  1  0  0  0
  4  7  1  0  0  0
  7 11  1  0  0  0
  7  8  1  0  0  0
 15 11  1  0  0  0
 15 16  1  0  0  0
 13 16  1  0  0  0
 18 16  1  0  0  0
 11 10  2  0  0  0
  8  9  2  0  0  0
 16 12  1  0  0  0
 10  9  1  0  0  0
 10 17  1  0  0  0
  9 22  1  0  0  0
 12 17  1  0  0  0
 19 22  1  0  0  0
 17 14  2  0  0  0
 22 21  1  0  0  0
 22 20  1  0  0  0
 23 26  1  0  0  0
 23 27  1  0  0  0
 28 29  1  0  0  0
 35 37  1  0  0  0
M  END
> <minimizedAffinity>
-9.98934

$$$$
4NH7_E0G_A_301


 37 40  0  0  0  0  0  0  0  0999 V2000
   17.6083   11.3501   17.2747 C   0  0  0  0  0  0  0  0  0  0  0  0
   18.4932   11.7251   16.2364 C   0  0  0  0  0  0  0  0  0  0  0  0
   18.3236    9.5010   15.2974 C   0  0  0  0  0  0  0  0  0  0  0  0
   17.4861    9.1187   16.3350 C   0  0  0  0  0  0  0  0  0  0  0  0
   17.1083   10.0419   17.3109 C   0  0  0  0  0  0  0  0  0  0  0  0
   18.8243   10.7859   15.2535 C   0  0  0  0  0  0  0  0  0  0  0  0
   17.1071    7.7546   16.4828 N   0  0  0  0  0  0  0  0  0  0  0  0
   17.7173    6.9559   17.4511 N   0  0  0  0  0  0  0  0  0  0  0  0
   17.1884    5.7584   17.2647 C   0  0  0  0  0  0  0  0  0  0  0  0
   16.2368    5.7559   16.2120 C   0  0  0  0  0  0  0  0  0  0  0  0
   16.2235    7.0482   15.7286 C   0  0  0  0  0  0  0  0  0  0  0  0
   14.4645    5.1708   14.4920 C   0  0  0  0  0  0  0  0  0  0  0  0
   16.1809    5.8613   12.7876 C   0  0  0  0  0  0  0  0  0  0  0  0
   15.4946    3.5461   15.9290 O   0  0  0  0  0  0  0  0  0  0  0  0
   15.4038    7.4782   14.5491 C   0  0  0  0  0  0  0  0  0  0  0  0
   14.9855    6.3284   13.6235 C   0  0  0  0  0  0  0  0  0  0  0  0
   15.4094    4.7274   15.5927 C   0  0  0  0  0  0  0  0  0  0  0  0
   13.8946    6.8157   12.6799 C   0  0  0  0  0  0  0  0  0  0  0  0
   18.2706    3.6804   17.4246 F   0  0  0  0  0  0  0  0  0  0  0  0
   18.4876    5.0033   19.0311 F   0  0  0  0  0  0  0  0  0  0  0  0
   16.6712    4.0851   18.7858 F   0  0  0  0  0  0  0  0  0  0  0  0
   17.6517    4.6256   18.1239 C   0  0  0  0  0  0  0  0  0  0  0  0
   20.4571   13.1609   16.0747 N   0  0  0  0  0  0  0  0  0  0  0  0
   18.4046   14.0913   16.1908 O   0  0  0  0  0  0  0  0  0  0  0  0
   19.1217   13.0853   16.1534 C   0  0  0  0  0  0  0  0  0  0  0  0
   20.8980   14.0394   16.0191 H   0  0  0  0  0  0  0  0  0  0  0  0
   20.9975   12.3379   16.0725 H   0  0  0  0  0  0  0  0  0  0  0  0
   17.2502   12.2744   18.2574 N   0  0  0  0  0  0  0  0  0  0  0  0
   17.9986   12.7445   18.6913 H   0  0  0  0  0  0  0  0  0  0  0  0
   15.9190   12.6397   18.7298 C   0  0  0  0  0  0  0  0  0  0  0  0
   14.4095   14.5818   19.2774 C   0  0  0  0  0  0  0  0  0  0  0  0
   14.1261   14.0108   20.6551 C   0  0  0  0  0  0  0  0  0  0  0  0
   14.2693   12.4947   20.6756 C   0  0  0  0  0  0  0  0  0  0  0  0
   15.6247   12.0231   20.0960 C   0  0  0  0  0  0  0  0  0  0  0  0
   12.7840   14.3812   21.0203 O   0  0  0  0  0  0  0  0  0  0  0  0
   15.7832   14.1541   18.7774 C   0  0  0  0  0  0  0  0  0  0  0  0
   12.1601   14.0132   20.3751 H   0  0  0  0  0  0  0  0  0  0  0  0
 24 25  2  0  0  0
 23 25  1  0  0  0
 25  2  1  0  0  0
 36 31  1  0  0  0
 36 30  1  0  0  0
 32 31  1  0  0  0
 32 35  1  0  0  0
 32 33  1  0  0  0
 28 30  1  0  0  0
 28  1  1  0  0  0
 34 33  1  0  0  0
 34 30  1  0  0  0
  2  1  2  0  0  0
  2  6  1  0  0  0
  1  5  1  0  0  0
  6  3  2  0  0  0
  5  4  2  0  0  0
  3  4  1  0  0  0
  4  7  1  0  0  0
  7 11  1  0  0  0
  7  8  1  0  0  0
 15 11  1  0  0  0
 15 16  1  0  0  0
 13 16  1  0  0  0
 18 16  1  0  0  0
 11 10  2  0  0  0
  8  9  2  0  0  0
 16 12  1  0  0  0
 10  9  1  0  0  0
 10 17  1  0  0  0
  9 22  1  0  0  0
 12 17  1  0  0  0
 19 22  1  0  0  0
 17 14  2  0  0  0
 22 21  1  0  0  0
 22 20  1  0  0  0
 23 26  1  0  0  0
 23 27  1  0  0  0
 28 29  1  0  0  0
 35 37  1  0  0  0
M  END
> <minimizedAffinity>
-9.89929

$$$$
4NH7_E0G_A_301


 37 40  0  0  0  0  0  0  0  0999 V2000
   18.4057   10.5770   15.4105 C   0  0  0  0  0  0  0  0  0  0  0  0
   18.8214   11.3353   14.2908 C   0  0  0  0  0  0  0  0  0  0  0  0
   17.3704   10.0197   12.8693 C   0  0  0  0  0  0  0  0  0  0  0  0
   16.9895    9.2495   13.9582 C   0  0  0  0  0  0  0  0  0  0  0  0
   17.4849    9.5366   15.2309 C   0  0  0  0  0  0  0  0  0  0  0  0
   18.2790   11.0448   13.0341 C   0  0  0  0  0  0  0  0  0  0  0  0
   16.1913    8.0864   13.7676 N   0  0  0  0  0  0  0  0  0  0  0  0
   14.9535    8.1795   13.1296 N   0  0  0  0  0  0  0  0  0  0  0  0
   14.4652    6.9519   13.1874 C   0  0  0  0  0  0  0  0  0  0  0  0
   15.3571    6.0552   13.8309 C   0  0  0  0  0  0  0  0  0  0  0  0
   16.4434    6.8221   14.1993 C   0  0  0  0  0  0  0  0  0  0  0  0
   16.5272    4.0417   14.8399 C   0  0  0  0  0  0  0  0  0  0  0  0
   16.4441    5.3306   16.9986 C   0  0  0  0  0  0  0  0  0  0  0  0
   14.2929    3.9662   13.9637 O   0  0  0  0  0  0  0  0  0  0  0  0
   17.6038    6.2845   14.9820 C   0  0  0  0  0  0  0  0  0  0  0  0
   17.2918    5.0030   15.7657 C   0  0  0  0  0  0  0  0  0  0  0  0
   15.3013    4.6397   14.1760 C   0  0  0  0  0  0  0  0  0  0  0  0
   18.5959    4.3681   16.2285 C   0  0  0  0  0  0  0  0  0  0  0  0
   12.2235    6.3553   13.5530 F   0  0  0  0  0  0  0  0  0  0  0  0
   12.6165    7.7207   12.0171 F   0  0  0  0  0  0  0  0  0  0  0  0
   13.1315    5.7603   11.7100 F   0  0  0  0  0  0  0  0  0  0  0  0
   13.1071    6.6904   12.6188 C   0  0  0  0  0  0  0  0  0  0  0  0
   20.7754   12.5045   13.4192 N   0  0  0  0  0  0  0  0  0  0  0  0
   19.8295   13.2004   15.3462 O   0  0  0  0  0  0  0  0  0  0  0  0
   19.8466   12.4275   14.3818 C   0  0  0  0  0  0  0  0  0  0  0  0
   21.4610   13.2103   13.4520 H   0  0  0  0  0  0  0  0  0  0  0  0
   20.7723   11.8553   12.6791 H   0  0  0  0  0  0  0  0  0  0  0  0
   18.9204   10.8587   16.6771 N   0  0  0  0  0  0  0  0  0  0  0  0
   19.8805   10.6759   16.7957 H   0  0  0  0  0  0  0  0  0  0  0  0
   18.2307   11.3870   17.8493 C   0  0  0  0  0  0  0  0  0  0  0  0
   16.6896   10.7901   19.7517 C   0  0  0  0  0  0  0  0  0  0  0  0
   15.7516   11.9265   19.3868 C   0  0  0  0  0  0  0  0  0  0  0  0
   16.4875   13.0588   18.6828 C   0  0  0  0  0  0  0  0  0  0  0  0
   17.3242   12.5597   17.4802 C   0  0  0  0  0  0  0  0  0  0  0  0
   15.1517   12.4126   20.6016 O   0  0  0  0  0  0  0  0  0  0  0  0
   17.4370   10.2798   18.5264 C   0  0  0  0  0  0  0  0  0  0  0  0
   15.8453   12.7349   21.1982 H   0  0  0  0  0  0  0  0  0  0  0  0
 24 25  2  0  0  0
 23 25  1  0  0  0
 25  2  1  0  0  0
 36 31  1  0  0  0
 36 30  1  0  0  0
 32 31  1  0  0  0
 32 35  1  0  0  0
 32 33  1  0  0  0
 28 30  1  0  0  0
 28  1  1  0  0  0
 34 33  1  0  0  0
 34 30  1  0  0  0
  2  1  2  0  0  0
  2  6  1  0  0  0
  1  5  1  0  0  0
  6  3  2  0  0  0
  5  4  2  0  0  0
  3  4  1  0  0  0
  4  7  1  0  0  0
  7 11  1  0  0  0
  7  8  1  0  0  0
 15 11  1  0  0  0
 15 16  1  0  0  0
 13 16  1  0  0  0
 18 16  1  0  0  0
 11 10  2  0  0  0
  8  9  2  0  0  0
 16 12  1  0  0  0
 10  9  1  0  0  0
 10 17  1  0  0  0
  9 22  1  0  0  0
 12 17  1  0  0  0
 19 22  1  0  0  0
 17 14  2  0  0  0
 22 21  1  0  0  0
 22 20  1  0  0  0
 23 26  1  0  0  0
 23 27  1  0  0  0
 28 29  1  0  0  0
 35 37  1  0  0  0
M  END
> <minimizedAffinity>
-9.88391

$$$$
