3HF8_ML0_A_401


 43 46  0  0  0  0  0  0  0  0999 V2000
    7.7005    1.0139   17.9891 C   0  0  0  0  0  0  0  0  0  0  0  0
    7.2883   -0.3005   18.2095 C   0  0  0  0  0  0  0  0  0  0  0  0
    7.0620    1.7579   17.0484 N   0  0  0  0  0  0  0  0  0  0  0  0
    6.0530    1.2351   16.3085 C   0  0  0  0  0  0  0  0  0  0  0  0
    5.4378    1.9882   15.3699 N   0  0  0  0  0  0  0  0  0  0  0  0
    5.6509   -0.0414   16.5015 N   0  0  0  0  0  0  0  0  0  0  0  0
    6.2491   -0.8181   17.4389 C   0  0  0  0  0  0  0  0  0  0  0  0
    5.7225    2.9188   15.2211 H   0  0  0  0  0  0  0  0  0  0  0  0
    4.7048    1.6062   14.8350 H   0  0  0  0  0  0  0  0  0  0  0  0
   10.7707    2.7769   20.3974 C   0  0  0  0  0  0  0  0  0  0  0  0
    9.5804    2.3440   20.9776 C   0  0  0  0  0  0  0  0  0  0  0  0
    8.5955    1.7662   20.1820 C   0  0  0  0  0  0  0  0  0  0  0  0
   10.9722    2.6399   19.0225 C   0  0  0  0  0  0  0  0  0  0  0  0
    9.9827    2.0584   18.2300 C   0  0  0  0  0  0  0  0  0  0  0  0
    8.7909    1.6148   18.8114 C   0  0  0  0  0  0  0  0  0  0  0  0
   11.8124    3.4127   21.2881 C   0  0  0  0  0  0  0  0  0  0  0  0
   11.7752    2.9060   22.7217 C   0  0  0  0  0  0  0  0  0  0  0  0
   11.4598    4.0009   23.6284 N   0  0  0  0  0  0  0  0  0  0  0  0
   12.1545    4.7403   23.5232 H   0  0  0  0  0  0  0  0  0  0  0  0
   11.4692    3.6598   24.5896 H   0  0  0  0  0  0  0  0  0  0  0  0
   13.2704    1.4563   23.8833 O   0  0  0  0  0  0  0  0  0  0  0  0
   13.1353    2.3228   22.9847 C   0  0  0  0  0  0  0  0  0  0  0  0
   14.1039    2.7529   22.3040 O   0  0  0  0  0  0  0  0  0  0  0  0
   12.5236    1.1628   24.3672 H   0  0  0  0  0  0  0  0  0  0  0  0
    5.8433   -2.1151   17.6398 O   0  0  0  0  0  0  0  0  0  0  0  0
    4.5084   -2.4055   18.0577 C   0  0  0  0  0  0  0  0  0  0  0  0
    4.4700   -2.8656   19.4719 C   0  0  0  0  0  0  0  0  0  0  0  0
    3.6262   -2.2640   20.4087 C   0  0  0  0  0  0  0  0  0  0  0  0
    3.6124   -2.7114   21.7314 C   0  0  0  0  0  0  0  0  0  0  0  0
    5.2989   -3.9154   19.8681 C   0  0  0  0  0  0  0  0  0  0  0  0
    5.2847   -4.3603   21.1875 C   0  0  0  0  0  0  0  0  0  0  0  0
    4.4402   -3.7653   22.1270 C   0  0  0  0  0  0  0  0  0  0  0  0
    4.4372   -4.2576   23.5384 C   0  0  0  0  0  0  0  0  0  0  0  0
    4.1016   -5.5810   23.8272 C   0  0  0  0  0  0  0  0  0  0  0  0
    4.7691   -3.3940   24.5880 C   0  0  0  0  0  0  0  0  0  0  0  0
    4.7675   -3.8545   25.9079 C   0  0  0  0  0  0  0  0  0  0  0  0
    5.0922   -3.0185   26.9123 F   0  0  0  0  0  0  0  0  0  0  0  0
    4.4314   -5.1802   26.1844 C   0  0  0  0  0  0  0  0  0  0  0  0
    4.0998   -6.0439   25.1429 C   0  0  0  0  0  0  0  0  0  0  0  0
    3.9301   -3.4648   17.1299 C   0  0  0  0  0  0  0  0  0  0  0  0
    2.6699   -3.6939   17.4389 F   0  0  0  0  0  0  0  0  0  0  0  0
    3.9822   -3.0429   15.8816 F   0  0  0  0  0  0  0  0  0  0  0  0
    4.6307   -4.5724   17.2771 F   0  0  0  0  0  0  0  0  0  0  0  0
 22 21  1  0  0  0
 23 22  2  0  0  0
 22 17  1  0  0  0
 16 17  1  0  0  0
 17 18  1  0  0  0
 16 10  1  0  0  0
 13 10  2  0  0  0
 10 11  1  0  0  0
 11 12  2  0  0  0
 15 12  1  0  0  0
 13 14  1  0  0  0
 14 15  2  0  0  0
 15  1  1  0  0  0
  3  1  2  0  0  0
  1  2  1  0  0  0
  2  7  2  0  0  0
  3  4  1  0  0  0
  5  4  1  0  0  0
  4  6  2  0  0  0
  6  7  1  0  0  0
  7 25  1  0  0  0
 25 26  1  0  0  0
 27 26  1  0  0  0
 26 40  1  0  0  0
 40 41  1  0  0  0
 40 43  1  0  0  0
 40 42  1  0  0  0
 30 27  2  0  0  0
 27 28  1  0  0  0
 29 28  2  0  0  0
 32 29  1  0  0  0
 31 30  1  0  0  0
 31 32  2  0  0  0
 33 32  1  0  0  0
 34 33  2  0  0  0
 33 35  1  0  0  0
 39 34  1  0  0  0
 36 35  2  0  0  0
 38 36  1  0  0  0
 36 37  1  0  0  0
 39 38  2  0  0  0
 21 24  1  0  0  0
 18 19  1  0  0  0
 18 20  1  0  0  0
  5  8  1  0  0  0
  5  9  1  0  0  0
M  END
> <minimizedAffinity>
-11.83757

$$$$
3HF8_ML0_A_401


 43 46  0  0  0  0  0  0  0  0999 V2000
    8.4766    1.3634   18.0293 C   0  0  0  0  0  0  0  0  0  0  0  0
    8.0362    0.1407   18.5365 C   0  0  0  0  0  0  0  0  0  0  0  0
    7.7959    1.9368   17.0027 N   0  0  0  0  0  0  0  0  0  0  0  0
    6.7166    1.3283   16.4518 C   0  0  0  0  0  0  0  0  0  0  0  0
    6.0596    1.9100   15.4238 N   0  0  0  0  0  0  0  0  0  0  0  0
    6.2855    0.1369   16.9239 N   0  0  0  0  0  0  0  0  0  0  0  0
    6.9246   -0.4673   17.9566 C   0  0  0  0  0  0  0  0  0  0  0  0
    6.3649    2.7774   15.0723 H   0  0  0  0  0  0  0  0  0  0  0  0
    5.2756    1.4663   15.0266 H   0  0  0  0  0  0  0  0  0  0  0  0
   11.8771    3.3506   19.7092 C   0  0  0  0  0  0  0  0  0  0  0  0
   11.5743    3.4921   18.3568 C   0  0  0  0  0  0  0  0  0  0  0  0
   10.4611    2.8455   17.8279 C   0  0  0  0  0  0  0  0  0  0  0  0
   11.0728    2.5570   20.5296 C   0  0  0  0  0  0  0  0  0  0  0  0
    9.9572    1.9128   19.9949 C   0  0  0  0  0  0  0  0  0  0  0  0
    9.6460    2.0607   18.6397 C   0  0  0  0  0  0  0  0  0  0  0  0
   13.1009    4.0546   20.2472 C   0  0  0  0  0  0  0  0  0  0  0  0
   14.3362    3.8717   19.3788 C   0  0  0  0  0  0  0  0  0  0  0  0
   15.4348    3.3503   20.1800 N   0  0  0  0  0  0  0  0  0  0  0  0
   15.6256    3.9891   20.9519 H   0  0  0  0  0  0  0  0  0  0  0  0
   16.2678    3.2618   19.5980 H   0  0  0  0  0  0  0  0  0  0  0  0
   15.1115    6.1195   19.5596 O   0  0  0  0  0  0  0  0  0  0  0  0
   14.6407    5.2292   18.8098 C   0  0  0  0  0  0  0  0  0  0  0  0
   14.3811    5.4317   17.5940 O   0  0  0  0  0  0  0  0  0  0  0  0
   15.2907    5.9279   20.4591 H   0  0  0  0  0  0  0  0  0  0  0  0
    6.4896   -1.6771   18.4408 O   0  0  0  0  0  0  0  0  0  0  0  0
    5.0956   -1.9322   18.6210 C   0  0  0  0  0  0  0  0  0  0  0  0
    4.4834   -0.9605   19.5667 C   0  0  0  0  0  0  0  0  0  0  0  0
    5.0859   -0.6602   20.7907 C   0  0  0  0  0  0  0  0  0  0  0  0
    4.4885    0.2520   21.6629 C   0  0  0  0  0  0  0  0  0  0  0  0
    3.2806   -0.3429   19.2230 C   0  0  0  0  0  0  0  0  0  0  0  0
    2.6855    0.5662   20.0938 C   0  0  0  0  0  0  0  0  0  0  0  0
    3.2856    0.8731   21.3168 C   0  0  0  0  0  0  0  0  0  0  0  0
    2.6331    1.8530   22.2379 C   0  0  0  0  0  0  0  0  0  0  0  0
    3.3712    2.4847   23.2397 C   0  0  0  0  0  0  0  0  0  0  0  0
    1.2713    2.1461   22.1070 C   0  0  0  0  0  0  0  0  0  0  0  0
    0.6611    3.0633   22.9676 C   0  0  0  0  0  0  0  0  0  0  0  0
   -0.6490    3.3435   22.8327 F   0  0  0  0  0  0  0  0  0  0  0  0
    1.4095    3.6897   23.9648 C   0  0  0  0  0  0  0  0  0  0  0  0
    2.7657    3.4009   24.0994 C   0  0  0  0  0  0  0  0  0  0  0  0
    4.9257   -3.3577   19.1273 C   0  0  0  0  0  0  0  0  0  0  0  0
    4.8832   -4.1942   18.1102 F   0  0  0  0  0  0  0  0  0  0  0  0
    5.9483   -3.6855   19.8928 F   0  0  0  0  0  0  0  0  0  0  0  0
    3.7960   -3.4257   19.8044 F   0  0  0  0  0  0  0  0  0  0  0  0
 22 21  1  0  0  0
 23 22  2  0  0  0
 22 17  1  0  0  0
 16 17  1  0  0  0
 17 18  1  0  0  0
 16 10  1  0  0  0
 13 10  2  0  0  0
 10 11  1  0  0  0
 11 12  2  0  0  0
 15 12  1  0  0  0
 13 14  1  0  0  0
 14 15  2  0  0  0
 15  1  1  0  0  0
  3  1  2  0  0  0
  1  2  1  0  0  0
  2  7  2  0  0  0
  3  4  1  0  0  0
  5  4  1  0  0  0
  4  6  2  0  0  0
  6  7  1  0  0  0
  7 25  1  0  0  0
 25 26  1  0  0  0
 27 26  1  0  0  0
 26 40  1  0  0  0
 40 41  1  0  0  0
 40 43  1  0  0  0
 40 42  1  0  0  0
 30 27  2  0  0  0
 27 28  1  0  0  0
 29 28  2  0  0  0
 32 29  1  0  0  0
 31 30  1  0  0  0
 31 32  2  0  0  0
 33 32  1  0  0  0
 34 33  2  0  0  0
 33 35  1  0  0  0
 39 34  1  0  0  0
 36 35  2  0  0  0
 38 36  1  0  0  0
 36 37  1  0  0  0
 39 38  2  0  0  0
 21 24  1  0  0  0
 18 19  1  0  0  0
 18 20  1  0  0  0
  5  8  1  0  0  0
  5  9  1  0  0  0
M  END
> <minimizedAffinity>
-11.66630

$$$$
3HF8_ML0_A_401


 43 46  0  0  0  0  0  0  0  0999 V2000
    7.7967    1.2629   17.7684 C   0  0  0  0  0  0  0  0  0  0  0  0
    7.2444    0.0098   18.0342 C   0  0  0  0  0  0  0  0  0  0  0  0
    7.2956    2.0025   16.7448 N   0  0  0  0  0  0  0  0  0  0  0  0
    6.2896    1.5310   15.9673 C   0  0  0  0  0  0  0  0  0  0  0  0
    5.8123    2.2777   14.9468 N   0  0  0  0  0  0  0  0  0  0  0  0
    5.7527    0.3129   16.2042 N   0  0  0  0  0  0  0  0  0  0  0  0
    6.2107   -0.4556   17.2238 C   0  0  0  0  0  0  0  0  0  0  0  0
    6.1959    3.1660   14.7654 H   0  0  0  0  0  0  0  0  0  0  0  0
    5.0811    1.9332   14.3848 H   0  0  0  0  0  0  0  0  0  0  0  0
   10.8639    2.8603   20.2934 C   0  0  0  0  0  0  0  0  0  0  0  0
    9.7191    2.2916   20.8475 C   0  0  0  0  0  0  0  0  0  0  0  0
    8.7349    1.7701   20.0131 C   0  0  0  0  0  0  0  0  0  0  0  0
   11.0202    2.9149   18.9070 C   0  0  0  0  0  0  0  0  0  0  0  0
   10.0317    2.3891   18.0752 C   0  0  0  0  0  0  0  0  0  0  0  0
    8.8861    1.8095   18.6292 C   0  0  0  0  0  0  0  0  0  0  0  0
   11.9055    3.4299   21.2280 C   0  0  0  0  0  0  0  0  0  0  0  0
   11.8126    2.8837   22.6445 C   0  0  0  0  0  0  0  0  0  0  0  0
   11.4491    3.9507   23.5663 N   0  0  0  0  0  0  0  0  0  0  0  0
   12.1407    4.6984   23.5107 H   0  0  0  0  0  0  0  0  0  0  0  0
   11.4212    3.5834   24.5175 H   0  0  0  0  0  0  0  0  0  0  0  0
   13.2798    1.4554   23.8667 O   0  0  0  0  0  0  0  0  0  0  0  0
   13.1659    2.3047   22.9489 C   0  0  0  0  0  0  0  0  0  0  0  0
   14.1500    2.7210   22.2821 O   0  0  0  0  0  0  0  0  0  0  0  0
   12.5220    1.1718   24.3393 H   0  0  0  0  0  0  0  0  0  0  0  0
    5.6677   -1.6933   17.4695 O   0  0  0  0  0  0  0  0  0  0  0  0
    4.4209   -1.8200   18.1554 C   0  0  0  0  0  0  0  0  0  0  0  0
    4.4581   -1.1422   19.4793 C   0  0  0  0  0  0  0  0  0  0  0  0
    5.3981   -1.4960   20.4502 C   0  0  0  0  0  0  0  0  0  0  0  0
    5.4090   -0.8477   21.6869 C   0  0  0  0  0  0  0  0  0  0  0  0
    3.5305   -0.1374   19.7549 C   0  0  0  0  0  0  0  0  0  0  0  0
    3.5419    0.5079   20.9888 C   0  0  0  0  0  0  0  0  0  0  0  0
    4.4820    0.1611   21.9613 C   0  0  0  0  0  0  0  0  0  0  0  0
    4.4802    0.8662   23.2793 C   0  0  0  0  0  0  0  0  0  0  0  0
    4.1821    0.1738   24.4538 C   0  0  0  0  0  0  0  0  0  0  0  0
    4.7755    2.2320   23.3497 C   0  0  0  0  0  0  0  0  0  0  0  0
    4.7750    2.8914   24.5823 C   0  0  0  0  0  0  0  0  0  0  0  0
    5.0645    4.2051   24.6426 F   0  0  0  0  0  0  0  0  0  0  0  0
    4.4767    2.1883   25.7501 C   0  0  0  0  0  0  0  0  0  0  0  0
    4.1816    0.8284   25.6853 C   0  0  0  0  0  0  0  0  0  0  0  0
    4.1048   -3.3003   18.3160 C   0  0  0  0  0  0  0  0  0  0  0  0
    5.2228   -3.9935   18.3906 F   0  0  0  0  0  0  0  0  0  0  0  0
    3.4206   -3.4938   19.4267 F   0  0  0  0  0  0  0  0  0  0  0  0
    3.4096   -3.6925   17.2662 F   0  0  0  0  0  0  0  0  0  0  0  0
 22 21  1  0  0  0
 23 22  2  0  0  0
 22 17  1  0  0  0
 16 17  1  0  0  0
 17 18  1  0  0  0
 16 10  1  0  0  0
 13 10  2  0  0  0
 10 11  1  0  0  0
 11 12  2  0  0  0
 15 12  1  0  0  0
 13 14  1  0  0  0
 14 15  2  0  0  0
 15  1  1  0  0  0
  3  1  2  0  0  0
  1  2  1  0  0  0
  2  7  2  0  0  0
  3  4  1  0  0  0
  5  4  1  0  0  0
  4  6  2  0  0  0
  6  7  1  0  0  0
  7 25  1  0  0  0
 25 26  1  0  0  0
 27 26  1  0  0  0
 26 40  1  0  0  0
 40 41  1  0  0  0
 40 43  1  0  0  0
 40 42  1  0  0  0
 30 27  2  0  0  0
 27 28  1  0  0  0
 29 28  2  0  0  0
 32 29  1  0  0  0
 31 30  1  0  0  0
 31 32  2  0  0  0
 33 32  1  0  0  0
 34 33  2  0  0  0
 33 35  1  0  0  0
 39 34  1  0  0  0
 36 35  2  0  0  0
 38 36  1  0  0  0
 36 37  1  0  0  0
 39 38  2  0  0  0
 21 24  1  0  0  0
 18 19  1  0  0  0
 18 20  1  0  0  0
  5  8  1  0  0  0
  5  9  1  0  0  0
M  END
> <minimizedAffinity>
-11.65038

$$$$
3HF8_ML0_A_401


 43 46  0  0  0  0  0  0  0  0999 V2000
    8.5152    1.4468   18.0463 C   0  0  0  0  0  0  0  0  0  0  0  0
    8.0560    0.2364   18.5659 C   0  0  0  0  0  0  0  0  0  0  0  0
    7.8448    2.0191   17.0123 N   0  0  0  0  0  0  0  0  0  0  0  0
    6.7576    1.4206   16.4659 C   0  0  0  0  0  0  0  0  0  0  0  0
    6.1110    2.0008   15.4305 N   0  0  0  0  0  0  0  0  0  0  0  0
    6.3082    0.2408   16.9501 N   0  0  0  0  0  0  0  0  0  0  0  0
    6.9365   -0.3614   17.9904 C   0  0  0  0  0  0  0  0  0  0  0  0
    6.4297    2.8597   15.0702 H   0  0  0  0  0  0  0  0  0  0  0  0
    5.3213    1.5644   15.0367 H   0  0  0  0  0  0  0  0  0  0  0  0
   11.9416    3.4024   19.7108 C   0  0  0  0  0  0  0  0  0  0  0  0
   11.6386    3.5401   18.3580 C   0  0  0  0  0  0  0  0  0  0  0  0
   10.5171    2.9040   17.8341 C   0  0  0  0  0  0  0  0  0  0  0  0
   11.1290    2.6230   20.5366 C   0  0  0  0  0  0  0  0  0  0  0  0
   10.0050    1.9892   20.0069 C   0  0  0  0  0  0  0  0  0  0  0  0
    9.6938    2.1334   18.6513 C   0  0  0  0  0  0  0  0  0  0  0  0
   13.1745    4.0946   20.2432 C   0  0  0  0  0  0  0  0  0  0  0  0
   14.4027    3.9047   19.3663 C   0  0  0  0  0  0  0  0  0  0  0  0
   15.5010    3.3683   20.1578 N   0  0  0  0  0  0  0  0  0  0  0  0
   15.7027    4.0009   20.9321 H   0  0  0  0  0  0  0  0  0  0  0  0
   16.3296    3.2750   19.5703 H   0  0  0  0  0  0  0  0  0  0  0  0
   15.1590    6.1575   19.5645 O   0  0  0  0  0  0  0  0  0  0  0  0
   14.7168    5.2624   18.8030 C   0  0  0  0  0  0  0  0  0  0  0  0
   14.4938    5.4601   17.5792 O   0  0  0  0  0  0  0  0  0  0  0  0
   15.3114    5.9694   20.4697 H   0  0  0  0  0  0  0  0  0  0  0  0
    6.4829   -1.5594   18.4868 O   0  0  0  0  0  0  0  0  0  0  0  0
    5.1760   -1.6663   19.0539 C   0  0  0  0  0  0  0  0  0  0  0  0
    5.0604   -0.8706   20.3056 C   0  0  0  0  0  0  0  0  0  0  0  0
    5.9847   -1.0112   21.3436 C   0  0  0  0  0  0  0  0  0  0  0  0
    5.8511   -0.2560   22.5104 C   0  0  0  0  0  0  0  0  0  0  0  0
    4.0031    0.0289   20.4442 C   0  0  0  0  0  0  0  0  0  0  0  0
    3.8706    0.7810   21.6086 C   0  0  0  0  0  0  0  0  0  0  0  0
    4.7940    0.6474   22.6475 C   0  0  0  0  0  0  0  0  0  0  0  0
    4.6368    1.4647   23.8892 C   0  0  0  0  0  0  0  0  0  0  0  0
    4.6695    2.8585   23.8297 C   0  0  0  0  0  0  0  0  0  0  0  0
    4.4573    0.8394   25.1278 C   0  0  0  0  0  0  0  0  0  0  0  0
    4.3091    1.6035   26.2890 C   0  0  0  0  0  0  0  0  0  0  0  0
    4.1324    0.9946   27.4770 F   0  0  0  0  0  0  0  0  0  0  0  0
    4.3422    2.9966   26.2171 C   0  0  0  0  0  0  0  0  0  0  0  0
    4.5211    3.6239   24.9862 C   0  0  0  0  0  0  0  0  0  0  0  0
    4.8824   -3.1360   19.3199 C   0  0  0  0  0  0  0  0  0  0  0  0
    5.9574   -3.7305   19.7963 F   0  0  0  0  0  0  0  0  0  0  0  0
    3.9171   -3.2451   20.2118 F   0  0  0  0  0  0  0  0  0  0  0  0
    4.5311   -3.7017   18.1815 F   0  0  0  0  0  0  0  0  0  0  0  0
 22 21  1  0  0  0
 23 22  2  0  0  0
 22 17  1  0  0  0
 16 17  1  0  0  0
 17 18  1  0  0  0
 16 10  1  0  0  0
 13 10  2  0  0  0
 10 11  1  0  0  0
 11 12  2  0  0  0
 15 12  1  0  0  0
 13 14  1  0  0  0
 14 15  2  0  0  0
 15  1  1  0  0  0
  3  1  2  0  0  0
  1  2  1  0  0  0
  2  7  2  0  0  0
  3  4  1  0  0  0
  5  4  1  0  0  0
  4  6  2  0  0  0
  6  7  1  0  0  0
  7 25  1  0  0  0
 25 26  1  0  0  0
 27 26  1  0  0  0
 26 40  1  0  0  0
 40 41  1  0  0  0
 40 43  1  0  0  0
 40 42  1  0  0  0
 30 27  2  0  0  0
 27 28  1  0  0  0
 29 28  2  0  0  0
 32 29  1  0  0  0
 31 30  1  0  0  0
 31 32  2  0  0  0
 33 32  1  0  0  0
 34 33  2  0  0  0
 33 35  1  0  0  0
 39 34  1  0  0  0
 36 35  2  0  0  0
 38 36  1  0  0  0
 36 37  1  0  0  0
 39 38  2  0  0  0
 21 24  1  0  0  0
 18 19  1  0  0  0
 18 20  1  0  0  0
  5  8  1  0  0  0
  5  9  1  0  0  0
M  END
> <minimizedAffinity>
-11.63737

$$$$
3HF8_ML0_A_401


 43 46  0  0  0  0  0  0  0  0999 V2000
    6.7683    1.3170   17.2991 C   0  0  0  0  0  0  0  0  0  0  0  0
    6.2912    0.0136   17.1600 C   0  0  0  0  0  0  0  0  0  0  0  0
    6.0632    2.3410   16.7511 N   0  0  0  0  0  0  0  0  0  0  0  0
    4.9230    2.1117   16.0538 C   0  0  0  0  0  0  0  0  0  0  0  0
    4.2418    3.1431   15.5069 N   0  0  0  0  0  0  0  0  0  0  0  0
    4.4548    0.8527   15.8992 N   0  0  0  0  0  0  0  0  0  0  0  0
    5.1172   -0.2001   16.4404 C   0  0  0  0  0  0  0  0  0  0  0  0
    4.5737    4.0638   15.6133 H   0  0  0  0  0  0  0  0  0  0  0  0
    3.4137    2.9736   15.0022 H   0  0  0  0  0  0  0  0  0  0  0  0
   10.2731    2.1310   19.6203 C   0  0  0  0  0  0  0  0  0  0  0  0
    9.1295    1.6156   20.2265 C   0  0  0  0  0  0  0  0  0  0  0  0
    8.0011    1.3496   19.4566 C   0  0  0  0  0  0  0  0  0  0  0  0
   10.2854    2.3877   18.2479 C   0  0  0  0  0  0  0  0  0  0  0  0
    9.1524    2.1174   17.4805 C   0  0  0  0  0  0  0  0  0  0  0  0
    8.0065    1.5915   18.0852 C   0  0  0  0  0  0  0  0  0  0  0  0
   11.4753    2.4217   20.4882 C   0  0  0  0  0  0  0  0  0  0  0  0
   11.3665    3.7303   21.2558 C   0  0  0  0  0  0  0  0  0  0  0  0
   11.8955    4.8237   20.4526 N   0  0  0  0  0  0  0  0  0  0  0  0
   12.8658    4.6269   20.2073 H   0  0  0  0  0  0  0  0  0  0  0  0
   11.8491    5.6914   20.9868 H   0  0  0  0  0  0  0  0  0  0  0  0
   11.6652    3.9234   23.6138 O   0  0  0  0  0  0  0  0  0  0  0  0
   12.1467    3.5263   22.5242 C   0  0  0  0  0  0  0  0  0  0  0  0
   13.2804    2.9841   22.4395 O   0  0  0  0  0  0  0  0  0  0  0  0
   10.8174    4.3219   23.6338 H   0  0  0  0  0  0  0  0  0  0  0  0
    4.6449   -1.4810   16.2874 O   0  0  0  0  0  0  0  0  0  0  0  0
    3.5708   -1.9641   17.0961 C   0  0  0  0  0  0  0  0  0  0  0  0
    3.9225   -1.9330   18.5413 C   0  0  0  0  0  0  0  0  0  0  0  0
    5.0252   -2.6339   19.0356 C   0  0  0  0  0  0  0  0  0  0  0  0
    5.3312   -2.5923   20.3974 C   0  0  0  0  0  0  0  0  0  0  0  0
    3.1296   -1.1924   19.4181 C   0  0  0  0  0  0  0  0  0  0  0  0
    3.4355   -1.1521   20.7760 C   0  0  0  0  0  0  0  0  0  0  0  0
    4.5389   -1.8475   21.2748 C   0  0  0  0  0  0  0  0  0  0  0  0
    4.8529   -1.7910   22.7352 C   0  0  0  0  0  0  0  0  0  0  0  0
    3.9468   -2.2840   23.6750 C   0  0  0  0  0  0  0  0  0  0  0  0
    6.0605   -1.2394   23.1768 C   0  0  0  0  0  0  0  0  0  0  0  0
    6.3548   -1.1874   24.5424 C   0  0  0  0  0  0  0  0  0  0  0  0
    7.5210   -0.6590   24.9595 F   0  0  0  0  0  0  0  0  0  0  0  0
    5.4416   -1.6846   25.4728 C   0  0  0  0  0  0  0  0  0  0  0  0
    4.2377   -2.2345   25.0382 C   0  0  0  0  0  0  0  0  0  0  0  0
    3.2309   -3.3805   16.6540 C   0  0  0  0  0  0  0  0  0  0  0  0
    2.9652   -4.1284   17.7057 F   0  0  0  0  0  0  0  0  0  0  0  0
    2.1660   -3.3632   15.8763 F   0  0  0  0  0  0  0  0  0  0  0  0
    4.2703   -3.8749   16.0100 F   0  0  0  0  0  0  0  0  0  0  0  0
 22 21  1  0  0  0
 23 22  2  0  0  0
 22 17  1  0  0  0
 16 17  1  0  0  0
 17 18  1  0  0  0
 16 10  1  0  0  0
 13 10  2  0  0  0
 10 11  1  0  0  0
 11 12  2  0  0  0
 15 12  1  0  0  0
 13 14  1  0  0  0
 14 15  2  0  0  0
 15  1  1  0  0  0
  3  1  2  0  0  0
  1  2  1  0  0  0
  2  7  2  0  0  0
  3  4  1  0  0  0
  5  4  1  0  0  0
  4  6  2  0  0  0
  6  7  1  0  0  0
  7 25  1  0  0  0
 25 26  1  0  0  0
 27 26  1  0  0  0
 26 40  1  0  0  0
 40 41  1  0  0  0
 40 43  1  0  0  0
 40 42  1  0  0  0
 30 27  2  0  0  0
 27 28  1  0  0  0
 29 28  2  0  0  0
 32 29  1  0  0  0
 31 30  1  0  0  0
 31 32  2  0  0  0
 33 32  1  0  0  0
 34 33  2  0  0  0
 33 35  1  0  0  0
 39 34  1  0  0  0
 36 35  2  0  0  0
 38 36  1  0  0  0
 36 37  1  0  0  0
 39 38  2  0  0  0
 21 24  1  0  0  0
 18 19  1  0  0  0
 18 20  1  0  0  0
  5  8  1  0  0  0
  5  9  1  0  0  0
M  END
> <minimizedAffinity>
-11.54650

$$$$
3HF8_ML0_A_401


 43 46  0  0  0  0  0  0  0  0999 V2000
    8.1776    1.3573   17.8413 C   0  0  0  0  0  0  0  0  0  0  0  0
    7.7612    0.1004   18.2804 C   0  0  0  0  0  0  0  0  0  0  0  0
    7.4178    2.0260   16.9349 N   0  0  0  0  0  0  0  0  0  0  0  0
    6.2811    1.4805   16.4359 C   0  0  0  0  0  0  0  0  0  0  0  0
    5.5448    2.1573   15.5266 N   0  0  0  0  0  0  0  0  0  0  0  0
    5.8713    0.2577   16.8419 N   0  0  0  0  0  0  0  0  0  0  0  0
    6.5896   -0.4417   17.7556 C   0  0  0  0  0  0  0  0  0  0  0  0
    5.8340    3.0484   15.2240 H   0  0  0  0  0  0  0  0  0  0  0  0
    4.7194    1.7592   15.1669 H   0  0  0  0  0  0  0  0  0  0  0  0
   11.6718    3.1884   19.5064 C   0  0  0  0  0  0  0  0  0  0  0  0
   10.7116    2.6155   20.3375 C   0  0  0  0  0  0  0  0  0  0  0  0
    9.5851    2.0177   19.7801 C   0  0  0  0  0  0  0  0  0  0  0  0
   11.5017    3.1709   18.1206 C   0  0  0  0  0  0  0  0  0  0  0  0
   10.3719    2.5687   17.5670 C   0  0  0  0  0  0  0  0  0  0  0  0
    9.4112    1.9850   18.3987 C   0  0  0  0  0  0  0  0  0  0  0  0
   12.8750    3.8416   20.1455 C   0  0  0  0  0  0  0  0  0  0  0  0
   14.1580    3.6595   19.3491 C   0  0  0  0  0  0  0  0  0  0  0  0
   15.2516    3.3035   20.2422 N   0  0  0  0  0  0  0  0  0  0  0  0
   15.3637    4.0302   20.9491 H   0  0  0  0  0  0  0  0  0  0  0  0
   16.1143    3.2156   19.7052 H   0  0  0  0  0  0  0  0  0  0  0  0
   14.6490    5.9930   19.3341 O   0  0  0  0  0  0  0  0  0  0  0  0
   14.3958    4.9697   18.6519 C   0  0  0  0  0  0  0  0  0  0  0  0
   14.3020    4.9960   17.3961 O   0  0  0  0  0  0  0  0  0  0  0  0
   14.7104    5.9308   20.2670 H   0  0  0  0  0  0  0  0  0  0  0  0
    6.1768   -1.6839   18.1723 O   0  0  0  0  0  0  0  0  0  0  0  0
    4.8083   -1.9245   18.5047 C   0  0  0  0  0  0  0  0  0  0  0  0
    4.6747   -2.5082   19.8665 C   0  0  0  0  0  0  0  0  0  0  0  0
    3.6594   -2.1006   20.7350 C   0  0  0  0  0  0  0  0  0  0  0  0
    3.5585   -2.6607   22.0101 C   0  0  0  0  0  0  0  0  0  0  0  0
    5.5870   -3.4780   20.2830 C   0  0  0  0  0  0  0  0  0  0  0  0
    5.4858   -4.0354   21.5550 C   0  0  0  0  0  0  0  0  0  0  0  0
    4.4703   -3.6345   22.4257 C   0  0  0  0  0  0  0  0  0  0  0  0
    4.3762   -4.2455   23.7867 C   0  0  0  0  0  0  0  0  0  0  0  0
    3.8391   -5.5224   23.9553 C   0  0  0  0  0  0  0  0  0  0  0  0
    4.8241   -3.5409   24.9093 C   0  0  0  0  0  0  0  0  0  0  0  0
    4.7372   -4.1125   26.1821 C   0  0  0  0  0  0  0  0  0  0  0  0
    5.1744   -3.4299   27.2573 F   0  0  0  0  0  0  0  0  0  0  0  0
    4.1995   -5.3905   26.3382 C   0  0  0  0  0  0  0  0  0  0  0  0
    3.7517   -6.0960   25.2235 C   0  0  0  0  0  0  0  0  0  0  0  0
    4.2122   -2.8552   17.4580 C   0  0  0  0  0  0  0  0  0  0  0  0
    2.9109   -2.9583   17.6366 F   0  0  0  0  0  0  0  0  0  0  0  0
    4.4291   -2.3690   16.2514 F   0  0  0  0  0  0  0  0  0  0  0  0
    4.7729   -4.0415   17.5901 F   0  0  0  0  0  0  0  0  0  0  0  0
 22 21  1  0  0  0
 23 22  2  0  0  0
 22 17  1  0  0  0
 16 17  1  0  0  0
 17 18  1  0  0  0
 16 10  1  0  0  0
 13 10  2  0  0  0
 10 11  1  0  0  0
 11 12  2  0  0  0
 15 12  1  0  0  0
 13 14  1  0  0  0
 14 15  2  0  0  0
 15  1  1  0  0  0
  3  1  2  0  0  0
  1  2  1  0  0  0
  2  7  2  0  0  0
  3  4  1  0  0  0
  5  4  1  0  0  0
  4  6  2  0  0  0
  6  7  1  0  0  0
  7 25  1  0  0  0
 25 26  1  0  0  0
 27 26  1  0  0  0
 26 40  1  0  0  0
 40 41  1  0  0  0
 40 43  1  0  0  0
 40 42  1  0  0  0
 30 27  2  0  0  0
 27 28  1  0  0  0
 29 28  2  0  0  0
 32 29  1  0  0  0
 31 30  1  0  0  0
 31 32  2  0  0  0
 33 32  1  0  0  0
 34 33  2  0  0  0
 33 35  1  0  0  0
 39 34  1  0  0  0
 36 35  2  0  0  0
 38 36  1  0  0  0
 36 37  1  0  0  0
 39 38  2  0  0  0
 21 24  1  0  0  0
 18 19  1  0  0  0
 18 20  1  0  0  0
  5  8  1  0  0  0
  5  9  1  0  0  0
M  END
> <minimizedAffinity>
-11.16754

$$$$
3HF8_ML0_A_401


 43 46  0  0  0  0  0  0  0  0999 V2000
    8.6001    1.7271   19.0407 C   0  0  0  0  0  0  0  0  0  0  0  0
    8.0845    1.3487   20.2805 C   0  0  0  0  0  0  0  0  0  0  0  0
    8.0797    1.1771   17.9126 N   0  0  0  0  0  0  0  0  0  0  0  0
    7.0897    0.2526   17.9769 C   0  0  0  0  0  0  0  0  0  0  0  0
    6.5928   -0.2909   16.8435 N   0  0  0  0  0  0  0  0  0  0  0  0
    6.5885   -0.1340   19.1717 N   0  0  0  0  0  0  0  0  0  0  0  0
    7.0668    0.3978   20.3242 C   0  0  0  0  0  0  0  0  0  0  0  0
    6.9504   -0.0167   15.9682 H   0  0  0  0  0  0  0  0  0  0  0  0
    5.8733   -0.9610   16.8933 H   0  0  0  0  0  0  0  0  0  0  0  0
   11.7228    4.6409   18.7353 C   0  0  0  0  0  0  0  0  0  0  0  0
   11.4890    3.7457   17.6938 C   0  0  0  0  0  0  0  0  0  0  0  0
   10.4652    2.8096   17.8056 C   0  0  0  0  0  0  0  0  0  0  0  0
   10.9395    4.5945   19.8903 C   0  0  0  0  0  0  0  0  0  0  0  0
    9.9135    3.6556   19.9965 C   0  0  0  0  0  0  0  0  0  0  0  0
    9.6710    2.7621   18.9486 C   0  0  0  0  0  0  0  0  0  0  0  0
   12.8515    5.6343   18.5868 C   0  0  0  0  0  0  0  0  0  0  0  0
   14.2111    4.9819   18.3890 C   0  0  0  0  0  0  0  0  0  0  0  0
   14.4755    4.0447   19.4717 N   0  0  0  0  0  0  0  0  0  0  0  0
   14.4358    4.5366   20.3644 H   0  0  0  0  0  0  0  0  0  0  0  0
   15.4022    3.6365   19.3494 H   0  0  0  0  0  0  0  0  0  0  0  0
   15.5423    6.6635   19.4314 O   0  0  0  0  0  0  0  0  0  0  0  0
   15.2047    6.1092   18.3565 C   0  0  0  0  0  0  0  0  0  0  0  0
   15.6434    6.4776   17.2347 O   0  0  0  0  0  0  0  0  0  0  0  0
   15.1927    6.3588   20.2455 H   0  0  0  0  0  0  0  0  0  0  0  0
    6.5601    0.0094   21.5406 O   0  0  0  0  0  0  0  0  0  0  0  0
    5.3432   -0.7348   21.6200 C   0  0  0  0  0  0  0  0  0  0  0  0
    4.1691    0.1614   21.7976 C   0  0  0  0  0  0  0  0  0  0  0  0
    4.1967    1.2234   22.7047 C   0  0  0  0  0  0  0  0  0  0  0  0
    3.0795    2.0473   22.8562 C   0  0  0  0  0  0  0  0  0  0  0  0
    3.0172   -0.0700   21.0454 C   0  0  0  0  0  0  0  0  0  0  0  0
    1.9035    0.7519   21.1978 C   0  0  0  0  0  0  0  0  0  0  0  0
    1.9272    1.8173   22.1001 C   0  0  0  0  0  0  0  0  0  0  0  0
    0.7228    2.6902   22.2487 C   0  0  0  0  0  0  0  0  0  0  0  0
    0.7141    3.7353   23.1734 C   0  0  0  0  0  0  0  0  0  0  0  0
   -0.4125    2.4666   21.4622 C   0  0  0  0  0  0  0  0  0  0  0  0
   -1.5385    3.2834   21.6003 C   0  0  0  0  0  0  0  0  0  0  0  0
   -2.6259    3.0647   20.8368 F   0  0  0  0  0  0  0  0  0  0  0  0
   -1.5351    4.3262   22.5274 C   0  0  0  0  0  0  0  0  0  0  0  0
   -0.4073    4.5527   23.3131 C   0  0  0  0  0  0  0  0  0  0  0  0
    5.4514   -1.7178   22.7772 C   0  0  0  0  0  0  0  0  0  0  0  0
    4.2561   -1.9574   23.2772 F   0  0  0  0  0  0  0  0  0  0  0  0
    5.9596   -2.8573   22.3503 F   0  0  0  0  0  0  0  0  0  0  0  0
    6.2207   -1.1831   23.7054 F   0  0  0  0  0  0  0  0  0  0  0  0
 22 21  1  0  0  0
 23 22  2  0  0  0
 22 17  1  0  0  0
 16 17  1  0  0  0
 17 18  1  0  0  0
 16 10  1  0  0  0
 13 10  2  0  0  0
 10 11  1  0  0  0
 11 12  2  0  0  0
 15 12  1  0  0  0
 13 14  1  0  0  0
 14 15  2  0  0  0
 15  1  1  0  0  0
  3  1  2  0  0  0
  1  2  1  0  0  0
  2  7  2  0  0  0
  3  4  1  0  0  0
  5  4  1  0  0  0
  4  6  2  0  0  0
  6  7  1  0  0  0
  7 25  1  0  0  0
 25 26  1  0  0  0
 27 26  1  0  0  0
 26 40  1  0  0  0
 40 41  1  0  0  0
 40 43  1  0  0  0
 40 42  1  0  0  0
 30 27  2  0  0  0
 27 28  1  0  0  0
 29 28  2  0  0  0
 32 29  1  0  0  0
 31 30  1  0  0  0
 31 32  2  0  0  0
 33 32  1  0  0  0
 34 33  2  0  0  0
 33 35  1  0  0  0
 39 34  1  0  0  0
 36 35  2  0  0  0
 38 36  1  0  0  0
 36 37  1  0  0  0
 39 38  2  0  0  0
 21 24  1  0  0  0
 18 19  1  0  0  0
 18 20  1  0  0  0
  5  8  1  0  0  0
  5  9  1  0  0  0
M  END
> <minimizedAffinity>
-11.16285

$$$$
3HF8_ML0_A_401


 43 46  0  0  0  0  0  0  0  0999 V2000
    4.0687   -1.3527   21.8858 C   0  0  0  0  0  0  0  0  0  0  0  0
    3.6617   -1.4671   20.5564 C   0  0  0  0  0  0  0  0  0  0  0  0
    4.4181   -2.4740   22.5688 N   0  0  0  0  0  0  0  0  0  0  0  0
    4.3527   -3.6972   21.9871 C   0  0  0  0  0  0  0  0  0  0  0  0
    4.6943   -4.8017   22.6871 N   0  0  0  0  0  0  0  0  0  0  0  0
    3.9477   -3.8255   20.7035 N   0  0  0  0  0  0  0  0  0  0  0  0
    3.6023   -2.7331   19.9773 C   0  0  0  0  0  0  0  0  0  0  0  0
    4.9906   -4.7198   23.6223 H   0  0  0  0  0  0  0  0  0  0  0  0
    4.6468   -5.6883   22.2617 H   0  0  0  0  0  0  0  0  0  0  0  0
    4.2868    2.5099   23.7208 C   0  0  0  0  0  0  0  0  0  0  0  0
    3.0912    1.7947   23.7225 C   0  0  0  0  0  0  0  0  0  0  0  0
    3.0390    0.5372   23.1282 C   0  0  0  0  0  0  0  0  0  0  0  0
    5.4260    1.9721   23.1186 C   0  0  0  0  0  0  0  0  0  0  0  0
    5.3687    0.7106   22.5262 C   0  0  0  0  0  0  0  0  0  0  0  0
    4.1723   -0.0130   22.5346 C   0  0  0  0  0  0  0  0  0  0  0  0
    4.3044    3.8779   24.3619 C   0  0  0  0  0  0  0  0  0  0  0  0
    5.1148    3.9344   25.6478 C   0  0  0  0  0  0  0  0  0  0  0  0
    4.2217    3.9994   26.7962 N   0  0  0  0  0  0  0  0  0  0  0  0
    3.6183    4.8174   26.7117 H   0  0  0  0  0  0  0  0  0  0  0  0
    4.7726    4.0702   27.6517 H   0  0  0  0  0  0  0  0  0  0  0  0
    6.0172    5.9791   26.4790 O   0  0  0  0  0  0  0  0  0  0  0  0
    5.9821    5.1564   25.5312 C   0  0  0  0  0  0  0  0  0  0  0  0
    6.6257    5.3239   24.4615 O   0  0  0  0  0  0  0  0  0  0  0  0
    5.5233    5.8171   27.2586 H   0  0  0  0  0  0  0  0  0  0  0  0
    3.1915   -2.8581   18.6724 O   0  0  0  0  0  0  0  0  0  0  0  0
    4.1331   -2.7824   17.6006 C   0  0  0  0  0  0  0  0  0  0  0  0
    4.2990   -1.3838   17.1213 C   0  0  0  0  0  0  0  0  0  0  0  0
    5.5260   -0.9221   16.6388 C   0  0  0  0  0  0  0  0  0  0  0  0
    5.6568    0.3967   16.1992 C   0  0  0  0  0  0  0  0  0  0  0  0
    3.2064   -0.5173   17.1614 C   0  0  0  0  0  0  0  0  0  0  0  0
    3.3383    0.7979   16.7232 C   0  0  0  0  0  0  0  0  0  0  0  0
    4.5614    1.2633   16.2361 C   0  0  0  0  0  0  0  0  0  0  0  0
    4.6835    2.6777   15.7683 C   0  0  0  0  0  0  0  0  0  0  0  0
    5.1989    2.9644   14.5035 C   0  0  0  0  0  0  0  0  0  0  0  0
    4.2840    3.7323   16.5964 C   0  0  0  0  0  0  0  0  0  0  0  0
    4.3971    5.0550   16.1587 C   0  0  0  0  0  0  0  0  0  0  0  0
    4.0065    6.0644   16.9598 F   0  0  0  0  0  0  0  0  0  0  0  0
    4.9128    5.3294   14.8915 C   0  0  0  0  0  0  0  0  0  0  0  0
    5.3123    4.2830   14.0633 C   0  0  0  0  0  0  0  0  0  0  0  0
    3.6563   -3.6862   16.4724 C   0  0  0  0  0  0  0  0  0  0  0  0
    4.1918   -3.3021   15.3315 F   0  0  0  0  0  0  0  0  0  0  0  0
    4.0272   -4.9296   16.7081 F   0  0  0  0  0  0  0  0  0  0  0  0
    2.3426   -3.5981   16.3970 F   0  0  0  0  0  0  0  0  0  0  0  0
 22 21  1  0  0  0
 23 22  2  0  0  0
 22 17  1  0  0  0
 16 17  1  0  0  0
 17 18  1  0  0  0
 16 10  1  0  0  0
 13 10  2  0  0  0
 10 11  1  0  0  0
 11 12  2  0  0  0
 15 12  1  0  0  0
 13 14  1  0  0  0
 14 15  2  0  0  0
 15  1  1  0  0  0
  3  1  2  0  0  0
  1  2  1  0  0  0
  2  7  2  0  0  0
  3  4  1  0  0  0
  5  4  1  0  0  0
  4  6  2  0  0  0
  6  7  1  0  0  0
  7 25  1  0  0  0
 25 26  1  0  0  0
 27 26  1  0  0  0
 26 40  1  0  0  0
 40 41  1  0  0  0
 40 43  1  0  0  0
 40 42  1  0  0  0
 30 27  2  0  0  0
 27 28  1  0  0  0
 29 28  2  0  0  0
 32 29  1  0  0  0
 31 30  1  0  0  0
 31 32  2  0  0  0
 33 32  1  0  0  0
 34 33  2  0  0  0
 33 35  1  0  0  0
 39 34  1  0  0  0
 36 35  2  0  0  0
 38 36  1  0  0  0
 36 37  1  0  0  0
 39 38  2  0  0  0
 21 24  1  0  0  0
 18 19  1  0  0  0
 18 20  1  0  0  0
  5  8  1  0  0  0
  5  9  1  0  0  0
M  END
> <minimizedAffinity>
-11.08932

$$$$
3HF8_ML0_A_401


 43 46  0  0  0  0  0  0  0  0999 V2000
    4.0659   -2.8761   19.7730 C   0  0  0  0  0  0  0  0  0  0  0  0
    4.5512   -1.5696   19.7124 C   0  0  0  0  0  0  0  0  0  0  0  0
    3.6440   -3.4781   18.6304 N   0  0  0  0  0  0  0  0  0  0  0  0
    3.6646   -2.8214   17.4442 C   0  0  0  0  0  0  0  0  0  0  0  0
    3.2303   -3.4341   16.3206 N   0  0  0  0  0  0  0  0  0  0  0  0
    4.1199   -1.5503   17.3716 N   0  0  0  0  0  0  0  0  0  0  0  0
    4.5645   -0.9130   18.4834 C   0  0  0  0  0  0  0  0  0  0  0  0
    2.8967   -4.3595   16.3620 H   0  0  0  0  0  0  0  0  0  0  0  0
    3.2474   -2.9551   15.4606 H   0  0  0  0  0  0  0  0  0  0  0  0
    4.0490   -5.0956   23.4347 C   0  0  0  0  0  0  0  0  0  0  0  0
    4.7675   -5.5566   22.3337 C   0  0  0  0  0  0  0  0  0  0  0  0
    4.7687   -4.8195   21.1532 C   0  0  0  0  0  0  0  0  0  0  0  0
    3.3263   -3.9037   23.3526 C   0  0  0  0  0  0  0  0  0  0  0  0
    3.3325   -3.1679   22.1677 C   0  0  0  0  0  0  0  0  0  0  0  0
    4.0602   -3.6239   21.0642 C   0  0  0  0  0  0  0  0  0  0  0  0
    4.0576   -5.9279   24.6957 C   0  0  0  0  0  0  0  0  0  0  0  0
    4.5344   -5.1651   25.9222 C   0  0  0  0  0  0  0  0  0  0  0  0
    5.7735   -5.7468   26.4192 N   0  0  0  0  0  0  0  0  0  0  0  0
    5.6223   -6.7310   26.6404 H   0  0  0  0  0  0  0  0  0  0  0  0
    6.0686   -5.2508   27.2602 H   0  0  0  0  0  0  0  0  0  0  0  0
    2.4981   -6.0974   26.7412 O   0  0  0  0  0  0  0  0  0  0  0  0
    3.4179   -5.2624   26.9238 C   0  0  0  0  0  0  0  0  0  0  0  0
    3.4339   -4.4723   27.9046 O   0  0  0  0  0  0  0  0  0  0  0  0
    2.5237   -6.6676   25.9981 H   0  0  0  0  0  0  0  0  0  0  0  0
    5.0294    0.3779   18.4147 O   0  0  0  0  0  0  0  0  0  0  0  0
    6.1373    0.7107   17.5765 C   0  0  0  0  0  0  0  0  0  0  0  0
    7.3142    1.1423   18.3779 C   0  0  0  0  0  0  0  0  0  0  0  0
    7.2255    1.3202   19.7606 C   0  0  0  0  0  0  0  0  0  0  0  0
    8.3437    1.7306   20.4893 C   0  0  0  0  0  0  0  0  0  0  0  0
    8.5274    1.3786   17.7311 C   0  0  0  0  0  0  0  0  0  0  0  0
    9.6416    1.7884   18.4588 C   0  0  0  0  0  0  0  0  0  0  0  0
    9.5596    1.9637   19.8417 C   0  0  0  0  0  0  0  0  0  0  0  0
   10.7668    2.4022   20.6065 C   0  0  0  0  0  0  0  0  0  0  0  0
   10.9606    1.9871   21.9247 C   0  0  0  0  0  0  0  0  0  0  0  0
   11.7164    3.2378   20.0085 C   0  0  0  0  0  0  0  0  0  0  0  0
   12.8459    3.6471   20.7232 C   0  0  0  0  0  0  0  0  0  0  0  0
   13.7576    4.4478   20.1395 F   0  0  0  0  0  0  0  0  0  0  0  0
   13.0296    3.2246   22.0403 C   0  0  0  0  0  0  0  0  0  0  0  0
   12.0868    2.3929   22.6404 C   0  0  0  0  0  0  0  0  0  0  0  0
    5.7054    1.8107   16.6170 C   0  0  0  0  0  0  0  0  0  0  0  0
    4.5242    1.5252   16.1079 F   0  0  0  0  0  0  0  0  0  0  0  0
    5.6140    2.9571   17.2624 F   0  0  0  0  0  0  0  0  0  0  0  0
    6.5974    1.8907   15.6489 F   0  0  0  0  0  0  0  0  0  0  0  0
 22 21  1  0  0  0
 23 22  2  0  0  0
 22 17  1  0  0  0
 16 17  1  0  0  0
 17 18  1  0  0  0
 16 10  1  0  0  0
 13 10  2  0  0  0
 10 11  1  0  0  0
 11 12  2  0  0  0
 15 12  1  0  0  0
 13 14  1  0  0  0
 14 15  2  0  0  0
 15  1  1  0  0  0
  3  1  2  0  0  0
  1  2  1  0  0  0
  2  7  2  0  0  0
  3  4  1  0  0  0
  5  4  1  0  0  0
  4  6  2  0  0  0
  6  7  1  0  0  0
  7 25  1  0  0  0
 25 26  1  0  0  0
 27 26  1  0  0  0
 26 40  1  0  0  0
 40 41  1  0  0  0
 40 43  1  0  0  0
 40 42  1  0  0  0
 30 27  2  0  0  0
 27 28  1  0  0  0
 29 28  2  0  0  0
 32 29  1  0  0  0
 31 30  1  0  0  0
 31 32  2  0  0  0
 33 32  1  0  0  0
 34 33  2  0  0  0
 33 35  1  0  0  0
 39 34  1  0  0  0
 36 35  2  0  0  0
 38 36  1  0  0  0
 36 37  1  0  0  0
 39 38  2  0  0  0
 21 24  1  0  0  0
 18 19  1  0  0  0
 18 20  1  0  0  0
  5  8  1  0  0  0
  5  9  1  0  0  0
M  END
> <minimizedAffinity>
-10.82430

$$$$
3HF8_ML0_A_401


 43 46  0  0  0  0  0  0  0  0999 V2000
    4.4122   -0.4365   23.7703 C   0  0  0  0  0  0  0  0  0  0  0  0
    4.2326   -0.6453   22.4028 C   0  0  0  0  0  0  0  0  0  0  0  0
    4.5804   -1.5097   24.5864 N   0  0  0  0  0  0  0  0  0  0  0  0
    4.5509   -2.7736   24.0960 C   0  0  0  0  0  0  0  0  0  0  0  0
    4.7094   -3.8284   24.9260 N   0  0  0  0  0  0  0  0  0  0  0  0
    4.3648   -2.9926   22.7748 N   0  0  0  0  0  0  0  0  0  0  0  0
    4.2064   -1.9520   21.9193 C   0  0  0  0  0  0  0  0  0  0  0  0
    4.8456   -3.6804   25.8897 H   0  0  0  0  0  0  0  0  0  0  0  0
    4.6887   -4.7448   24.5669 H   0  0  0  0  0  0  0  0  0  0  0  0
    4.6472    3.5556   25.3010 C   0  0  0  0  0  0  0  0  0  0  0  0
    4.7295    3.3196   23.9304 C   0  0  0  0  0  0  0  0  0  0  0  0
    4.6439    2.0168   23.4485 C   0  0  0  0  0  0  0  0  0  0  0  0
    4.4879    2.4896   26.1887 C   0  0  0  0  0  0  0  0  0  0  0  0
    4.4007    1.1860   25.7003 C   0  0  0  0  0  0  0  0  0  0  0  0
    4.4739    0.9476   24.3245 C   0  0  0  0  0  0  0  0  0  0  0  0
    4.7585    4.9805   25.7909 C   0  0  0  0  0  0  0  0  0  0  0  0
    6.1766    5.3842   26.1639 C   0  0  0  0  0  0  0  0  0  0  0  0
    6.1776    6.0660   27.4507 N   0  0  0  0  0  0  0  0  0  0  0  0
    5.5687    6.8830   27.4030 H   0  0  0  0  0  0  0  0  0  0  0  0
    7.1269    6.3623   27.6778 H   0  0  0  0  0  0  0  0  0  0  0  0
    7.4529    5.8109   24.1953 O   0  0  0  0  0  0  0  0  0  0  0  0
    6.6558    6.2714   25.0492 C   0  0  0  0  0  0  0  0  0  0  0  0
    6.2564    7.4658   25.0318 O   0  0  0  0  0  0  0  0  0  0  0  0
    7.7258    4.9158   24.2438 H   0  0  0  0  0  0  0  0  0  0  0  0
    4.0184   -2.1692   20.5759 O   0  0  0  0  0  0  0  0  0  0  0  0
    5.1101   -2.0656   19.6603 C   0  0  0  0  0  0  0  0  0  0  0  0
    4.9121   -0.9436   18.7036 C   0  0  0  0  0  0  0  0  0  0  0  0
    5.9675   -0.4529   17.9312 C   0  0  0  0  0  0  0  0  0  0  0  0
    5.7565    0.6045   17.0440 C   0  0  0  0  0  0  0  0  0  0  0  0
    3.6467   -0.3690   18.5824 C   0  0  0  0  0  0  0  0  0  0  0  0
    3.4376    0.6858   17.6977 C   0  0  0  0  0  0  0  0  0  0  0  0
    4.4882    1.1775   16.9202 C   0  0  0  0  0  0  0  0  0  0  0  0
    4.2444    2.3091   15.9744 C   0  0  0  0  0  0  0  0  0  0  0  0
    5.3117    2.9430   15.3368 C   0  0  0  0  0  0  0  0  0  0  0  0
    2.9406    2.7479   15.7197 C   0  0  0  0  0  0  0  0  0  0  0  0
    2.7123    3.8054   14.8344 C   0  0  0  0  0  0  0  0  0  0  0  0
    1.4542    4.2193   14.5910 F   0  0  0  0  0  0  0  0  0  0  0  0
    3.7873    4.4307   14.2017 C   0  0  0  0  0  0  0  0  0  0  0  0
    5.0874    3.9978   14.4524 C   0  0  0  0  0  0  0  0  0  0  0  0
    5.2479   -3.3882   18.9194 C   0  0  0  0  0  0  0  0  0  0  0  0
    4.9235   -4.3861   19.7163 F   0  0  0  0  0  0  0  0  0  0  0  0
    4.4366   -3.4055   17.8799 F   0  0  0  0  0  0  0  0  0  0  0  0
    6.5023   -3.5191   18.5337 F   0  0  0  0  0  0  0  0  0  0  0  0
 22 21  1  0  0  0
 23 22  2  0  0  0
 22 17  1  0  0  0
 16 17  1  0  0  0
 17 18  1  0  0  0
 16 10  1  0  0  0
 13 10  2  0  0  0
 10 11  1  0  0  0
 11 12  2  0  0  0
 15 12  1  0  0  0
 13 14  1  0  0  0
 14 15  2  0  0  0
 15  1  1  0  0  0
  3  1  2  0  0  0
  1  2  1  0  0  0
  2  7  2  0  0  0
  3  4  1  0  0  0
  5  4  1  0  0  0
  4  6  2  0  0  0
  6  7  1  0  0  0
  7 25  1  0  0  0
 25 26  1  0  0  0
 27 26  1  0  0  0
 26 40  1  0  0  0
 40 41  1  0  0  0
 40 43  1  0  0  0
 40 42  1  0  0  0
 30 27  2  0  0  0
 27 28  1  0  0  0
 29 28  2  0  0  0
 32 29  1  0  0  0
 31 30  1  0  0  0
 31 32  2  0  0  0
 33 32  1  0  0  0
 34 33  2  0  0  0
 33 35  1  0  0  0
 39 34  1  0  0  0
 36 35  2  0  0  0
 38 36  1  0  0  0
 36 37  1  0  0  0
 39 38  2  0  0  0
 21 24  1  0  0  0
 18 19  1  0  0  0
 18 20  1  0  0  0
  5  8  1  0  0  0
  5  9  1  0  0  0
M  END
> <minimizedAffinity>
-10.46782

$$$$
