3P5L_IT5_A_263


 18 19  0  0  0  0  0  0  0  0999 V2000
   -3.6323    6.0035   13.4169 N   0  0  0  0  0  0  0  0  0  0  0  0
   -2.7775    4.8224   13.5117 C   0  0  0  0  0  0  0  0  0  0  0  0
   -5.0085    5.7871   13.0272 C   0  0  0  0  0  0  0  0  0  0  0  0
   -3.4165    3.7780   14.3737 C   0  0  0  0  0  0  0  0  0  0  0  0
   -5.5698    4.9220   14.0787 C   0  0  0  0  0  0  0  0  0  0  0  0
   -4.8501    3.6465   14.1887 C   0  0  0  0  0  0  0  0  0  0  0  0
   -6.5848    1.3681   17.4888 C   0  0  0  0  0  0  0  0  0  0  0  0
   -5.3230    0.9686   16.9258 C   0  0  0  0  0  0  0  0  0  0  0  0
   -7.2729    2.4885   16.9586 C   0  0  0  0  0  0  0  0  0  0  0  0
   -4.7908    1.7026   15.8778 C   0  0  0  0  0  0  0  0  0  0  0  0
   -6.7467    3.2387   15.9025 C   0  0  0  0  0  0  0  0  0  0  0  0
   -5.4819    2.8537   15.3554 C   0  0  0  0  0  0  0  0  0  0  0  0
   -2.6150    8.0590   11.9894 S   0  0  0  0  0  0  0  0  0  0  0  0
   -2.2862    7.8589   14.9351 S   0  0  0  0  0  0  0  0  0  0  0  0
   -3.0691    7.2887   13.4876 C   0  0  0  0  0  0  0  0  0  0  0  0
   -2.7487    7.1599   16.0061 H   0  0  0  0  0  0  0  0  0  0  0  0
   -5.2973    2.3705   11.8694 N   0  0  0  0  0  0  0  0  0  0  0  0
   -5.1041    2.9143   12.8591 C   0  0  0  0  0  0  0  0  0  0  0  0
 17 18  3  0  0  0
  3  1  1  0  0  0
  2  1  1  0  0  0
  1 15  1  0  0  0
 15 13  2  0  0  0
 15 14  1  0  0  0
 18  6  1  0  0  0
  8  7  2  0  0  0
  7  9  1  0  0  0
 10  8  1  0  0  0
 11  9  2  0  0  0
 10 12  2  0  0  0
 12 11  1  0  0  0
  4  2  1  0  0  0
  5  3  1  0  0  0
  6  4  1  0  0  0
  6  5  1  0  0  0
  6 12  1  0  0  0
 14 16  1  0  0  0
M  END
> <minimizedAffinity>
-6.91265

$$$$
3P5L_IT5_A_263


 18 19  0  0  0  0  0  0  0  0999 V2000
   -3.2761    6.0423   13.4054 N   0  0  0  0  0  0  0  0  0  0  0  0
   -2.5039    4.8021   13.3923 C   0  0  0  0  0  0  0  0  0  0  0  0
   -4.6802    5.9439   13.0716 C   0  0  0  0  0  0  0  0  0  0  0  0
   -3.1764    3.7545   14.2245 C   0  0  0  0  0  0  0  0  0  0  0  0
   -5.2540    5.0584   14.0990 C   0  0  0  0  0  0  0  0  0  0  0  0
   -4.6225    3.7324   14.1024 C   0  0  0  0  0  0  0  0  0  0  0  0
   -6.4677    1.4611   17.3470 C   0  0  0  0  0  0  0  0  0  0  0  0
   -7.1808    2.5518   16.7383 C   0  0  0  0  0  0  0  0  0  0  0  0
   -5.1595    1.1379   16.9065 C   0  0  0  0  0  0  0  0  0  0  0  0
   -6.5773    3.2617   15.7125 C   0  0  0  0  0  0  0  0  0  0  0  0
   -4.5395    1.8448   15.8717 C   0  0  0  0  0  0  0  0  0  0  0  0
   -5.2564    2.9170   15.2522 C   0  0  0  0  0  0  0  0  0  0  0  0
   -2.4435    7.9584   15.1180 S   0  0  0  0  0  0  0  0  0  0  0  0
   -2.5290    8.3873   12.1797 S   0  0  0  0  0  0  0  0  0  0  0  0
   -2.6205    7.2796   13.5205 C   0  0  0  0  0  0  0  0  0  0  0  0
   -2.6851    7.7030   11.0148 H   0  0  0  0  0  0  0  0  0  0  0  0
   -5.2551    2.6252   11.7399 N   0  0  0  0  0  0  0  0  0  0  0  0
   -4.9869    3.0993   12.7478 C   0  0  0  0  0  0  0  0  0  0  0  0
 17 18  3  0  0  0
  3  1  1  0  0  0
  2  1  1  0  0  0
  1 15  1  0  0  0
 15 13  2  0  0  0
 15 14  1  0  0  0
 18  6  1  0  0  0
  8  7  2  0  0  0
  7  9  1  0  0  0
 10  8  1  0  0  0
 11  9  2  0  0  0
 10 12  2  0  0  0
 12 11  1  0  0  0
  4  2  1  0  0  0
  5  3  1  0  0  0
  6  4  1  0  0  0
  6  5  1  0  0  0
  6 12  1  0  0  0
 14 16  1  0  0  0
M  END
> <minimizedAffinity>
-6.70280

$$$$
3P5L_IT5_A_263


 18 19  0  0  0  0  0  0  0  0999 V2000
   -3.0696    5.2927   12.6237 N   0  0  0  0  0  0  0  0  0  0  0  0
   -3.9503    4.3704   11.9108 C   0  0  0  0  0  0  0  0  0  0  0  0
   -3.6508    6.0420   13.7160 C   0  0  0  0  0  0  0  0  0  0  0  0
   -4.6448    3.4565   12.8726 C   0  0  0  0  0  0  0  0  0  0  0  0
   -4.0942    5.0229   14.6825 C   0  0  0  0  0  0  0  0  0  0  0  0
   -5.0761    4.0985   14.1008 C   0  0  0  0  0  0  0  0  0  0  0  0
   -6.1036    1.1453   17.1526 C   0  0  0  0  0  0  0  0  0  0  0  0
   -7.0271    2.2015   16.8360 C   0  0  0  0  0  0  0  0  0  0  0  0
   -4.8532    1.0762   16.4880 C   0  0  0  0  0  0  0  0  0  0  0  0
   -6.6815    3.1300   15.8671 C   0  0  0  0  0  0  0  0  0  0  0  0
   -4.4925    2.0054   15.5075 C   0  0  0  0  0  0  0  0  0  0  0  0
   -5.4193    3.0444   15.1778 C   0  0  0  0  0  0  0  0  0  0  0  0
   -0.7848    4.2405   11.6386 S   0  0  0  0  0  0  0  0  0  0  0  0
   -0.9850    7.0804   12.4871 S   0  0  0  0  0  0  0  0  0  0  0  0
   -1.7925    5.5829   12.1148 C   0  0  0  0  0  0  0  0  0  0  0  0
   -1.9065    8.0173   12.8374 H   0  0  0  0  0  0  0  0  0  0  0  0
   -7.2372    5.5967   13.5602 N   0  0  0  0  0  0  0  0  0  0  0  0
   -6.3163    4.9558   13.7922 C   0  0  0  0  0  0  0  0  0  0  0  0
 17 18  3  0  0  0
  3  1  1  0  0  0
  2  1  1  0  0  0
  1 15  1  0  0  0
 15 13  2  0  0  0
 15 14  1  0  0  0
 18  6  1  0  0  0
  8  7  2  0  0  0
  7  9  1  0  0  0
 10  8  1  0  0  0
 11  9  2  0  0  0
 10 12  2  0  0  0
 12 11  1  0  0  0
  4  2  1  0  0  0
  5  3  1  0  0  0
  6  4  1  0  0  0
  6  5  1  0  0  0
  6 12  1  0  0  0
 14 16  1  0  0  0
M  END
> <minimizedAffinity>
-6.52415

$$$$
3P5L_IT5_A_263


 18 19  0  0  0  0  0  0  0  0999 V2000
   -4.5757    5.3922   12.1141 N   0  0  0  0  0  0  0  0  0  0  0  0
   -4.5699    6.1344   13.3725 C   0  0  0  0  0  0  0  0  0  0  0  0
   -3.8601    4.1353   12.0910 C   0  0  0  0  0  0  0  0  0  0  0  0
   -5.0029    5.2549   14.5044 C   0  0  0  0  0  0  0  0  0  0  0  0
   -4.5317    3.2969   13.0985 C   0  0  0  0  0  0  0  0  0  0  0  0
   -4.4889    3.8991   14.4373 C   0  0  0  0  0  0  0  0  0  0  0  0
   -6.7528    1.3085   17.1308 C   0  0  0  0  0  0  0  0  0  0  0  0
   -7.3471    2.5194   16.6314 C   0  0  0  0  0  0  0  0  0  0  0  0
   -5.4264    0.9681   16.7641 C   0  0  0  0  0  0  0  0  0  0  0  0
   -6.6118    3.3290   15.7804 C   0  0  0  0  0  0  0  0  0  0  0  0
   -4.6739    1.7750   15.9052 C   0  0  0  0  0  0  0  0  0  0  0  0
   -5.2718    2.9694   15.3921 C   0  0  0  0  0  0  0  0  0  0  0  0
   -4.0718    5.9171    9.5125 S   0  0  0  0  0  0  0  0  0  0  0  0
   -6.2611    7.2602   11.0052 S   0  0  0  0  0  0  0  0  0  0  0  0
   -5.0673    5.9936   10.9433 C   0  0  0  0  0  0  0  0  0  0  0  0
   -6.9466    7.1802   12.1771 H   0  0  0  0  0  0  0  0  0  0  0  0
   -1.8933    3.9364   15.1219 N   0  0  0  0  0  0  0  0  0  0  0  0
   -3.0014    3.9225   14.8310 C   0  0  0  0  0  0  0  0  0  0  0  0
 17 18  3  0  0  0
  3  1  1  0  0  0
  2  1  1  0  0  0
  1 15  1  0  0  0
 15 13  2  0  0  0
 15 14  1  0  0  0
 18  6  1  0  0  0
  8  7  2  0  0  0
  7  9  1  0  0  0
 10  8  1  0  0  0
 11  9  2  0  0  0
 10 12  2  0  0  0
 12 11  1  0  0  0
  4  2  1  0  0  0
  5  3  1  0  0  0
  6  4  1  0  0  0
  6  5  1  0  0  0
  6 12  1  0  0  0
 14 16  1  0  0  0
M  END
> <minimizedAffinity>
-6.26912

$$$$
3P5L_IT5_A_263


 18 19  0  0  0  0  0  0  0  0999 V2000
   -5.2269    3.1477   14.9902 N   0  0  0  0  0  0  0  0  0  0  0  0
   -6.1586    4.2716   14.9323 C   0  0  0  0  0  0  0  0  0  0  0  0
   -4.2584    3.0432   13.9208 C   0  0  0  0  0  0  0  0  0  0  0  0
   -5.4177    5.5611   14.7579 C   0  0  0  0  0  0  0  0  0  0  0  0
   -3.4618    4.2790   14.0074 C   0  0  0  0  0  0  0  0  0  0  0  0
   -4.2884    5.4826   13.8494 C   0  0  0  0  0  0  0  0  0  0  0  0
   -1.6656    8.9522   14.2662 C   0  0  0  0  0  0  0  0  0  0  0  0
   -1.8912    8.3746   12.9684 C   0  0  0  0  0  0  0  0  0  0  0  0
   -2.2788    8.3824   15.4103 C   0  0  0  0  0  0  0  0  0  0  0  0
   -2.7242    7.2727   12.8575 C   0  0  0  0  0  0  0  0  0  0  0  0
   -3.1226    7.2717   15.3125 C   0  0  0  0  0  0  0  0  0  0  0  0
   -3.3633    6.7091   14.0191 C   0  0  0  0  0  0  0  0  0  0  0  0
   -4.4066    0.7039   15.7983 S   0  0  0  0  0  0  0  0  0  0  0  0
   -6.9444    1.9192   16.7511 S   0  0  0  0  0  0  0  0  0  0  0  0
   -5.4254    2.1150   15.9220 C   0  0  0  0  0  0  0  0  0  0  0  0
   -7.6123    3.1039   16.7594 H   0  0  0  0  0  0  0  0  0  0  0  0
   -5.2267    5.3809   11.3361 N   0  0  0  0  0  0  0  0  0  0  0  0
   -4.8260    5.4267   12.4084 C   0  0  0  0  0  0  0  0  0  0  0  0
 17 18  3  0  0  0
  3  1  1  0  0  0
  2  1  1  0  0  0
  1 15  1  0  0  0
 15 13  2  0  0  0
 15 14  1  0  0  0
 18  6  1  0  0  0
  8  7  2  0  0  0
  7  9  1  0  0  0
 10  8  1  0  0  0
 11  9  2  0  0  0
 10 12  2  0  0  0
 12 11  1  0  0  0
  4  2  1  0  0  0
  5  3  1  0  0  0
  6  4  1  0  0  0
  6  5  1  0  0  0
  6 12  1  0  0  0
 14 16  1  0  0  0
M  END
> <minimizedAffinity>
-6.14788

$$$$
3P5L_IT5_A_263


 18 19  0  0  0  0  0  0  0  0999 V2000
   -5.1011    3.0995   14.6086 N   0  0  0  0  0  0  0  0  0  0  0  0
   -5.9605    4.2762   14.5029 C   0  0  0  0  0  0  0  0  0  0  0  0
   -4.0269    2.9836   13.6467 C   0  0  0  0  0  0  0  0  0  0  0  0
   -5.1383    5.5273   14.4705 C   0  0  0  0  0  0  0  0  0  0  0  0
   -3.1812    4.1672   13.8770 C   0  0  0  0  0  0  0  0  0  0  0  0
   -3.9210    5.4216   13.6871 C   0  0  0  0  0  0  0  0  0  0  0  0
   -1.2270    8.7196   14.6652 C   0  0  0  0  0  0  0  0  0  0  0  0
   -2.3063    8.3861   15.5556 C   0  0  0  0  0  0  0  0  0  0  0  0
   -1.0516    7.9905   13.4621 C   0  0  0  0  0  0  0  0  0  0  0  0
   -3.1515    7.3385   15.2262 C   0  0  0  0  0  0  0  0  0  0  0  0
   -1.8960    6.9304   13.1183 C   0  0  0  0  0  0  0  0  0  0  0  0
   -2.9575    6.5852   14.0135 C   0  0  0  0  0  0  0  0  0  0  0  0
   -6.7659    2.3100   16.5842 S   0  0  0  0  0  0  0  0  0  0  0  0
   -4.3261    0.7774   15.8604 S   0  0  0  0  0  0  0  0  0  0  0  0
   -5.4554    2.0425   15.4638 C   0  0  0  0  0  0  0  0  0  0  0  0
   -3.3739    0.6998   14.8924 H   0  0  0  0  0  0  0  0  0  0  0  0
   -4.5789    5.4852   11.0851 N   0  0  0  0  0  0  0  0  0  0  0  0
   -4.2978    5.4556   12.1954 C   0  0  0  0  0  0  0  0  0  0  0  0
 17 18  3  0  0  0
  3  1  1  0  0  0
  2  1  1  0  0  0
  1 15  1  0  0  0
 15 13  2  0  0  0
 15 14  1  0  0  0
 18  6  1  0  0  0
  8  7  2  0  0  0
  7  9  1  0  0  0
 10  8  1  0  0  0
 11  9  2  0  0  0
 10 12  2  0  0  0
 12 11  1  0  0  0
  4  2  1  0  0  0
  5  3  1  0  0  0
  6  4  1  0  0  0
  6  5  1  0  0  0
  6 12  1  0  0  0
 14 16  1  0  0  0
M  END
> <minimizedAffinity>
-5.78470

$$$$
3P5L_IT5_A_263


 18 19  0  0  0  0  0  0  0  0999 V2000
   -4.1076    3.2586   13.9170 N   0  0  0  0  0  0  0  0  0  0  0  0
   -3.1164    3.6255   12.9083 C   0  0  0  0  0  0  0  0  0  0  0  0
   -4.5454    4.3036   14.8164 C   0  0  0  0  0  0  0  0  0  0  0  0
   -3.5656    4.8319   12.1433 C   0  0  0  0  0  0  0  0  0  0  0  0
   -5.1599    5.3209   13.9465 C   0  0  0  0  0  0  0  0  0  0  0  0
   -4.2126    5.8465   12.9548 C   0  0  0  0  0  0  0  0  0  0  0  0
   -6.4333    8.6655   10.4622 C   0  0  0  0  0  0  0  0  0  0  0  0
   -7.1405    7.6875   11.2445 C   0  0  0  0  0  0  0  0  0  0  0  0
   -5.0162    8.7000   10.4859 C   0  0  0  0  0  0  0  0  0  0  0  0
   -6.4180    6.8004   12.0264 C   0  0  0  0  0  0  0  0  0  0  0  0
   -4.2749    7.8120   11.2715 C   0  0  0  0  0  0  0  0  0  0  0  0
   -4.9787    6.8520   12.0654 C   0  0  0  0  0  0  0  0  0  0  0  0
   -4.3341    1.2908   15.7539 S   0  0  0  0  0  0  0  0  0  0  0  0
   -4.3454    0.7426   12.8342 S   0  0  0  0  0  0  0  0  0  0  0  0
   -4.4348    1.9082   14.1251 C   0  0  0  0  0  0  0  0  0  0  0  0
   -4.4385    1.3829   11.6380 H   0  0  0  0  0  0  0  0  0  0  0  0
   -2.3263    7.1317   14.3680 N   0  0  0  0  0  0  0  0  0  0  0  0
   -3.1321    6.5822   13.7670 C   0  0  0  0  0  0  0  0  0  0  0  0
 17 18  3  0  0  0
  3  1  1  0  0  0
  2  1  1  0  0  0
  1 15  1  0  0  0
 15 13  2  0  0  0
 15 14  1  0  0  0
 18  6  1  0  0  0
  8  7  2  0  0  0
  7  9  1  0  0  0
 10  8  1  0  0  0
 11  9  2  0  0  0
 10 12  2  0  0  0
 12 11  1  0  0  0
  4  2  1  0  0  0
  5  3  1  0  0  0
  6  4  1  0  0  0
  6  5  1  0  0  0
  6 12  1  0  0  0
 14 16  1  0  0  0
M  END
> <minimizedAffinity>
-5.55312

$$$$
3P5L_IT5_A_263


 18 19  0  0  0  0  0  0  0  0999 V2000
   -3.8731    6.9275   11.8738 N   0  0  0  0  0  0  0  0  0  0  0  0
   -2.9339    6.8808   12.9919 C   0  0  0  0  0  0  0  0  0  0  0  0
   -4.1417    5.6810   11.1906 C   0  0  0  0  0  0  0  0  0  0  0  0
   -3.3283    5.8144   13.9664 C   0  0  0  0  0  0  0  0  0  0  0  0
   -4.7258    4.8025   12.2183 C   0  0  0  0  0  0  0  0  0  0  0  0
   -3.8142    4.5931   13.3506 C   0  0  0  0  0  0  0  0  0  0  0  0
   -5.8438    2.0774   16.2906 C   0  0  0  0  0  0  0  0  0  0  0  0
   -4.4563    1.8504   15.9872 C   0  0  0  0  0  0  0  0  0  0  0  0
   -6.5555    3.1042   15.6204 C   0  0  0  0  0  0  0  0  0  0  0  0
   -3.8313    2.6572   15.0498 C   0  0  0  0  0  0  0  0  0  0  0  0
   -5.9369    3.9264   14.6737 C   0  0  0  0  0  0  0  0  0  0  0  0
   -4.5514    3.7140   14.3863 C   0  0  0  0  0  0  0  0  0  0  0  0
   -5.8227    8.2033   10.5064 S   0  0  0  0  0  0  0  0  0  0  0  0
   -3.1839    9.4570   11.0451 S   0  0  0  0  0  0  0  0  0  0  0  0
   -4.3061    8.1649   11.3682 C   0  0  0  0  0  0  0  0  0  0  0  0
   -2.0611    9.2795   11.7917 H   0  0  0  0  0  0  0  0  0  0  0  0
   -1.7148    3.2585   12.3415 N   0  0  0  0  0  0  0  0  0  0  0  0
   -2.6107    3.8266   12.7741 C   0  0  0  0  0  0  0  0  0  0  0  0
 17 18  3  0  0  0
  3  1  1  0  0  0
  2  1  1  0  0  0
  1 15  1  0  0  0
 15 13  2  0  0  0
 15 14  1  0  0  0
 18  6  1  0  0  0
  8  7  2  0  0  0
  7  9  1  0  0  0
 10  8  1  0  0  0
 11  9  2  0  0  0
 10 12  2  0  0  0
 12 11  1  0  0  0
  4  2  1  0  0  0
  5  3  1  0  0  0
  6  4  1  0  0  0
  6  5  1  0  0  0
  6 12  1  0  0  0
 14 16  1  0  0  0
M  END
> <minimizedAffinity>
-5.44415

$$$$
3P5L_IT5_A_263


 18 19  0  0  0  0  0  0  0  0999 V2000
   -1.3213    5.8006   11.7579 N   0  0  0  0  0  0  0  0  0  0  0  0
   -1.2207    4.3555   11.9480 C   0  0  0  0  0  0  0  0  0  0  0  0
   -2.5842    6.3115   11.2713 C   0  0  0  0  0  0  0  0  0  0  0  0
   -2.3557    3.8547   12.7865 C   0  0  0  0  0  0  0  0  0  0  0  0
   -3.5685    5.9342   12.2998 C   0  0  0  0  0  0  0  0  0  0  0  0
   -3.6330    4.4804   12.4974 C   0  0  0  0  0  0  0  0  0  0  0  0
   -6.5178    3.7707   15.7014 C   0  0  0  0  0  0  0  0  0  0  0  0
   -6.4582    5.0572   15.0611 C   0  0  0  0  0  0  0  0  0  0  0  0
   -5.6268    2.7415   15.3053 C   0  0  0  0  0  0  0  0  0  0  0  0
   -5.5344    5.2633   14.0489 C   0  0  0  0  0  0  0  0  0  0  0  0
   -4.6911    2.9354   14.2846 C   0  0  0  0  0  0  0  0  0  0  0  0
   -4.6450    4.2087   13.6336 C   0  0  0  0  0  0  0  0  0  0  0  0
    1.3756    5.8307   11.6040 S   0  0  0  0  0  0  0  0  0  0  0  0
   -0.1745    8.1118   12.7081 S   0  0  0  0  0  0  0  0  0  0  0  0
   -0.1711    6.6037   11.8370 C   0  0  0  0  0  0  0  0  0  0  0  0
   -1.4485    8.5784   12.8017 H   0  0  0  0  0  0  0  0  0  0  0  0
   -4.5631    3.4779   10.1872 N   0  0  0  0  0  0  0  0  0  0  0  0
   -4.1665    3.9080   11.1722 C   0  0  0  0  0  0  0  0  0  0  0  0
 17 18  3  0  0  0
  3  1  1  0  0  0
  2  1  1  0  0  0
  1 15  1  0  0  0
 15 13  2  0  0  0
 15 14  1  0  0  0
 18  6  1  0  0  0
  8  7  2  0  0  0
  7  9  1  0  0  0
 10  8  1  0  0  0
 11  9  2  0  0  0
 10 12  2  0  0  0
 12 11  1  0  0  0
  4  2  1  0  0  0
  5  3  1  0  0  0
  6  4  1  0  0  0
  6  5  1  0  0  0
  6 12  1  0  0  0
 14 16  1  0  0  0
M  END
> <minimizedAffinity>
-5.41798

$$$$
3P5L_IT5_A_263


 18 19  0  0  0  0  0  0  0  0999 V2000
   -2.2949    7.2048   12.8269 N   0  0  0  0  0  0  0  0  0  0  0  0
   -1.2222    6.2288   12.6496 C   0  0  0  0  0  0  0  0  0  0  0  0
   -3.5765    6.8847   12.2375 C   0  0  0  0  0  0  0  0  0  0  0  0
   -1.6761    4.8656   13.0714 C   0  0  0  0  0  0  0  0  0  0  0  0
   -4.0005    5.6407   12.9021 C   0  0  0  0  0  0  0  0  0  0  0  0
   -3.0414    4.5479   12.6950 C   0  0  0  0  0  0  0  0  0  0  0  0
   -4.4909    1.1145   14.9760 C   0  0  0  0  0  0  0  0  0  0  0  0
   -4.1389    2.3318   15.6566 C   0  0  0  0  0  0  0  0  0  0  0  0
   -4.3477    1.0245   13.5684 C   0  0  0  0  0  0  0  0  0  0  0  0
   -3.6786    3.4085   14.9157 C   0  0  0  0  0  0  0  0  0  0  0  0
   -3.8860    2.1036   12.8085 C   0  0  0  0  0  0  0  0  0  0  0  0
   -3.5549    3.3213   13.4829 C   0  0  0  0  0  0  0  0  0  0  0  0
   -1.1224    9.5903   12.3445 S   0  0  0  0  0  0  0  0  0  0  0  0
   -1.9657    8.7609   15.0696 S   0  0  0  0  0  0  0  0  0  0  0  0
   -2.0108    8.4767   13.3520 C   0  0  0  0  0  0  0  0  0  0  0  0
   -2.7028    7.8113   15.7057 H   0  0  0  0  0  0  0  0  0  0  0  0
   -3.0942    4.0300   10.0614 N   0  0  0  0  0  0  0  0  0  0  0  0
   -3.0738    4.2522   11.1851 C   0  0  0  0  0  0  0  0  0  0  0  0
 17 18  3  0  0  0
  3  1  1  0  0  0
  2  1  1  0  0  0
  1 15  1  0  0  0
 15 13  2  0  0  0
 15 14  1  0  0  0
 18  6  1  0  0  0
  8  7  2  0  0  0
  7  9  1  0  0  0
 10  8  1  0  0  0
 11  9  2  0  0  0
 10 12  2  0  0  0
 12 11  1  0  0  0
  4  2  1  0  0  0
  5  3  1  0  0  0
  6  4  1  0  0  0
  6  5  1  0  0  0
  6 12  1  0  0  0
 14 16  1  0  0  0
M  END
> <minimizedAffinity>
-5.38804

$$$$
