3VHD_VHE_A_1


 31 33  0  0  0  0  0  0  0  0999 V2000
  -11.7043   -5.4555  -10.7259 C   0  0  0  0  0  0  0  0  0  0  0  0
  -10.6092   -6.1257  -11.2906 C   0  0  0  0  0  0  0  0  0  0  0  0
   -9.3108   -5.7827  -10.7959 C   0  0  0  0  0  0  0  0  0  0  0  0
   -9.1022   -4.8137   -9.7883 C   0  0  0  0  0  0  0  0  0  0  0  0
  -10.2170   -4.1448   -9.2734 C   0  0  0  0  0  0  0  0  0  0  0  0
  -11.5052   -4.4726   -9.7086 C   0  0  0  0  0  0  0  0  0  0  0  0
  -10.1717   -3.1388   -8.2265 C   0  0  0  0  0  0  0  0  0  0  0  0
   -7.6710   -4.5056   -9.3495 C   0  0  0  0  0  0  0  0  0  0  0  0
   -9.5616   -3.3223   -7.1331 O   0  0  0  0  0  0  0  0  0  0  0  0
  -10.8747   -1.9821   -8.5011 N   0  0  0  0  0  0  0  0  0  0  0  0
  -10.7342   -7.1738  -12.4190 C   0  0  0  0  0  0  0  0  0  0  0  0
  -13.0894   -5.6286  -11.1705 C   0  0  0  0  0  0  0  0  0  0  0  0
  -13.8278   -4.4796  -11.5494 C   0  0  0  0  0  0  0  0  0  0  0  0
  -15.1260   -4.7158  -11.9874 C   0  0  0  0  0  0  0  0  0  0  0  0
  -15.6949   -5.9121  -12.0481 N   0  0  0  0  0  0  0  0  0  0  0  0
  -14.9049   -6.9817  -11.6694 C   0  0  0  0  0  0  0  0  0  0  0  0
  -13.6259   -6.8421  -11.2502 N   0  0  0  0  0  0  0  0  0  0  0  0
  -15.4272   -8.2886  -11.6793 N   0  0  0  0  0  0  0  0  0  0  0  0
  -10.9611   -0.8796   -7.4843 C   0  0  0  0  0  0  0  0  0  0  0  0
  -12.1569    0.0297   -7.8782 C   0  0  0  0  0  0  0  0  0  0  0  0
  -13.4978   -0.5274   -7.4100 C   0  0  0  0  0  0  0  0  0  0  0  0
  -14.1644   -1.5132   -8.3143 N   0  0  0  0  0  0  0  0  0  0  0  0
  -15.0459   -1.1020   -9.3027 C   0  0  0  0  0  0  0  0  0  0  0  0
  -15.6923   -2.1754  -10.1205 C   0  0  0  0  0  0  0  0  0  0  0  0
  -15.3018    0.1146   -9.5007 O   0  0  0  0  0  0  0  0  0  0  0  0
  -15.5105   -1.9465  -11.6502 C   0  0  0  0  0  0  0  0  0  0  0  0
  -16.2061   -3.4270  -12.5127 S   0  0  0  0  0  0  0  0  0  0  0  0
  -11.3234   -1.8792   -9.3714 H   0  0  0  0  0  0  0  0  0  0  0  0
  -16.3528   -8.4466  -11.9753 H   0  0  0  0  0  0  0  0  0  0  0  0
  -14.8670   -9.0449  -11.3903 H   0  0  0  0  0  0  0  0  0  0  0  0
  -13.9741   -2.4731   -8.2062 H   0  0  0  0  0  0  0  0  0  0  0  0
  1  2  2  0  0  0
  1  6  1  0  0  0
  1 12  1  0  0  0
  2  3  1  0  0  0
  2 11  1  0  0  0
  3  4  2  0  0  0
  4  5  1  0  0  0
  4  8  1  0  0  0
  5  6  2  0  0  0
  5  7  1  0  0  0
  7  9  2  0  0  0
  7 10  1  0  0  0
 10 19  1  0  0  0
 12 13  2  0  0  0
 12 17  1  0  0  0
 13 14  1  0  0  0
 14 15  2  0  0  0
 14 27  1  0  0  0
 15 16  1  0  0  0
 16 17  2  0  0  0
 16 18  1  0  0  0
 19 20  1  0  0  0
 20 21  1  0  0  0
 21 22  1  0  0  0
 22 23  1  0  0  0
 23 24  1  0  0  0
 23 25  2  0  0  0
 24 26  1  0  0  0
 26 27  1  0  0  0
 10 28  1  0  0  0
 18 29  1  0  0  0
 18 30  1  0  0  0
 22 31  1  0  0  0
M  END
> <minimizedAffinity>
-11.31313

$$$$
3VHD_VHE_A_1


 31 33  0  0  0  0  0  0  0  0999 V2000
   -9.8389   -3.6330   -9.1519 C   0  0  0  0  0  0  0  0  0  0  0  0
   -9.0125   -4.6254   -9.6991 C   0  0  0  0  0  0  0  0  0  0  0  0
   -9.6146   -5.5360  -10.6246 C   0  0  0  0  0  0  0  0  0  0  0  0
  -10.9782   -5.4720  -10.9907 C   0  0  0  0  0  0  0  0  0  0  0  0
  -11.7762   -4.4880  -10.3989 C   0  0  0  0  0  0  0  0  0  0  0  0
  -11.2190   -3.5602   -9.5129 C   0  0  0  0  0  0  0  0  0  0  0  0
  -13.1860   -4.2810  -10.6814 C   0  0  0  0  0  0  0  0  0  0  0  0
  -11.5260   -6.5096  -11.9701 C   0  0  0  0  0  0  0  0  0  0  0  0
  -13.6356   -4.1805  -11.8600 O   0  0  0  0  0  0  0  0  0  0  0  0
  -13.9917   -4.1666   -9.5655 N   0  0  0  0  0  0  0  0  0  0  0  0
   -7.5208   -4.7964   -9.3344 C   0  0  0  0  0  0  0  0  0  0  0  0
   -9.4039   -2.6738   -8.1336 C   0  0  0  0  0  0  0  0  0  0  0  0
  -10.1463   -2.5806   -6.9298 C   0  0  0  0  0  0  0  0  0  0  0  0
   -9.6647   -1.6716   -5.9945 C   0  0  0  0  0  0  0  0  0  0  0  0
   -8.5993   -0.9019   -6.1708 N   0  0  0  0  0  0  0  0  0  0  0  0
   -7.9259   -1.0597   -7.3680 C   0  0  0  0  0  0  0  0  0  0  0  0
   -8.3151   -1.9354   -8.3234 N   0  0  0  0  0  0  0  0  0  0  0  0
   -6.7957   -0.2718   -7.6559 N   0  0  0  0  0  0  0  0  0  0  0  0
  -15.4622   -3.8938   -9.7082 C   0  0  0  0  0  0  0  0  0  0  0  0
  -15.9767   -3.3666   -8.3411 C   0  0  0  0  0  0  0  0  0  0  0  0
  -15.7044   -1.8784   -8.1450 C   0  0  0  0  0  0  0  0  0  0  0  0
  -14.3644   -1.5108   -7.5944 N   0  0  0  0  0  0  0  0  0  0  0  0
  -14.1531   -1.4001   -6.2284 C   0  0  0  0  0  0  0  0  0  0  0  0
  -12.7857   -0.9812   -5.7882 C   0  0  0  0  0  0  0  0  0  0  0  0
  -15.0670   -1.6300   -5.3938 O   0  0  0  0  0  0  0  0  0  0  0  0
  -12.1720   -1.9616   -4.7453 C   0  0  0  0  0  0  0  0  0  0  0  0
  -10.4346   -1.4111   -4.4314 S   0  0  0  0  0  0  0  0  0  0  0  0
  -13.5988   -4.2647   -8.6682 H   0  0  0  0  0  0  0  0  0  0  0  0
   -6.4698    0.3815   -6.9954 H   0  0  0  0  0  0  0  0  0  0  0  0
   -6.3310   -0.3740   -8.5178 H   0  0  0  0  0  0  0  0  0  0  0  0
  -13.6173   -1.3442   -8.2136 H   0  0  0  0  0  0  0  0  0  0  0  0
  1  2  2  0  0  0
  1  6  1  0  0  0
  1 12  1  0  0  0
  2  3  1  0  0  0
  2 11  1  0  0  0
  3  4  2  0  0  0
  4  5  1  0  0  0
  4  8  1  0  0  0
  5  6  2  0  0  0
  5  7  1  0  0  0
  7  9  2  0  0  0
  7 10  1  0  0  0
 10 19  1  0  0  0
 12 13  2  0  0  0
 12 17  1  0  0  0
 13 14  1  0  0  0
 14 15  2  0  0  0
 14 27  1  0  0  0
 15 16  1  0  0  0
 16 17  2  0  0  0
 16 18  1  0  0  0
 19 20  1  0  0  0
 20 21  1  0  0  0
 21 22  1  0  0  0
 22 23  1  0  0  0
 23 24  1  0  0  0
 23 25  2  0  0  0
 24 26  1  0  0  0
 26 27  1  0  0  0
 10 28  1  0  0  0
 18 29  1  0  0  0
 18 30  1  0  0  0
 22 31  1  0  0  0
M  END
> <minimizedAffinity>
-8.82959

$$$$
3VHD_VHE_A_1


 31 33  0  0  0  0  0  0  0  0999 V2000
  -11.4285   -4.3964   -9.9220 C   0  0  0  0  0  0  0  0  0  0  0  0
  -10.4726   -5.2448  -10.4998 C   0  0  0  0  0  0  0  0  0  0  0  0
   -9.1441   -5.1837   -9.9710 C   0  0  0  0  0  0  0  0  0  0  0  0
   -8.7738   -4.3167   -8.9180 C   0  0  0  0  0  0  0  0  0  0  0  0
   -9.7482   -3.4638   -8.3902 C   0  0  0  0  0  0  0  0  0  0  0  0
  -11.0651   -3.5143   -8.8588 C   0  0  0  0  0  0  0  0  0  0  0  0
   -9.5316   -2.5300   -7.2988 C   0  0  0  0  0  0  0  0  0  0  0  0
   -7.3206   -4.3137   -8.4447 C   0  0  0  0  0  0  0  0  0  0  0  0
   -8.9949   -2.8744   -6.2058 O   0  0  0  0  0  0  0  0  0  0  0  0
   -9.9885   -1.2476   -7.5317 N   0  0  0  0  0  0  0  0  0  0  0  0
  -10.7736   -6.2007  -11.6758 C   0  0  0  0  0  0  0  0  0  0  0  0
  -12.8100   -4.2760  -10.3944 C   0  0  0  0  0  0  0  0  0  0  0  0
  -13.3006   -2.9899  -10.7324 C   0  0  0  0  0  0  0  0  0  0  0  0
  -14.6093   -2.9486  -11.1997 C   0  0  0  0  0  0  0  0  0  0  0  0
  -15.3995   -4.0066  -11.3224 N   0  0  0  0  0  0  0  0  0  0  0  0
  -14.8427   -5.2250  -10.9804 C   0  0  0  0  0  0  0  0  0  0  0  0
  -13.5712   -5.3563  -10.5364 N   0  0  0  0  0  0  0  0  0  0  0  0
  -15.6100   -6.4025  -11.0566 N   0  0  0  0  0  0  0  0  0  0  0  0
   -9.8815   -0.1922   -6.4679 C   0  0  0  0  0  0  0  0  0  0  0  0
  -10.8671    0.9493   -6.8383 C   0  0  0  0  0  0  0  0  0  0  0  0
  -12.3016    0.6474   -6.4156 C   0  0  0  0  0  0  0  0  0  0  0  0
  -13.1266   -0.1505   -7.3730 N   0  0  0  0  0  0  0  0  0  0  0  0
  -13.8875    0.4659   -8.3549 C   0  0  0  0  0  0  0  0  0  0  0  0
  -14.7119   -0.4253   -9.2295 C   0  0  0  0  0  0  0  0  0  0  0  0
  -13.8961    1.7161   -8.5019 O   0  0  0  0  0  0  0  0  0  0  0  0
  -14.4531   -0.1739  -10.7445 C   0  0  0  0  0  0  0  0  0  0  0  0
  -15.4043   -1.4525  -11.6828 S   0  0  0  0  0  0  0  0  0  0  0  0
  -10.3880   -1.0230   -8.4030 H   0  0  0  0  0  0  0  0  0  0  0  0
  -16.5414   -6.3635  -11.3731 H   0  0  0  0  0  0  0  0  0  0  0  0
  -15.2152   -7.2652  -10.7935 H   0  0  0  0  0  0  0  0  0  0  0  0
  -13.1300   -1.1326   -7.3051 H   0  0  0  0  0  0  0  0  0  0  0  0
  1  2  2  0  0  0
  1  6  1  0  0  0
  1 12  1  0  0  0
  2  3  1  0  0  0
  2 11  1  0  0  0
  3  4  2  0  0  0
  4  5  1  0  0  0
  4  8  1  0  0  0
  5  6  2  0  0  0
  5  7  1  0  0  0
  7  9  2  0  0  0
  7 10  1  0  0  0
 10 19  1  0  0  0
 12 13  2  0  0  0
 12 17  1  0  0  0
 13 14  1  0  0  0
 14 15  2  0  0  0
 14 27  1  0  0  0
 15 16  1  0  0  0
 16 17  2  0  0  0
 16 18  1  0  0  0
 19 20  1  0  0  0
 20 21  1  0  0  0
 21 22  1  0  0  0
 22 23  1  0  0  0
 23 24  1  0  0  0
 23 25  2  0  0  0
 24 26  1  0  0  0
 26 27  1  0  0  0
 10 28  1  0  0  0
 18 29  1  0  0  0
 18 30  1  0  0  0
 22 31  1  0  0  0
M  END
> <minimizedAffinity>
-8.35990

$$$$
3VHD_VHE_A_1


 31 33  0  0  0  0  0  0  0  0999 V2000
  -11.5942   -4.8838   -9.2515 C   0  0  0  0  0  0  0  0  0  0  0  0
  -10.4356   -5.1693   -9.9885 C   0  0  0  0  0  0  0  0  0  0  0  0
   -9.1910   -5.1378   -9.2824 C   0  0  0  0  0  0  0  0  0  0  0  0
   -9.0946   -4.8320   -7.9059 C   0  0  0  0  0  0  0  0  0  0  0  0
  -10.2693   -4.5219   -7.2136 C   0  0  0  0  0  0  0  0  0  0  0  0
  -11.5085   -4.5711   -7.8603 C   0  0  0  0  0  0  0  0  0  0  0  0
  -10.3397   -4.2040   -5.7979 C   0  0  0  0  0  0  0  0  0  0  0  0
   -7.7123   -4.8020   -7.2546 C   0  0  0  0  0  0  0  0  0  0  0  0
   -9.8043   -4.9302   -4.9106 O   0  0  0  0  0  0  0  0  0  0  0  0
  -11.0656   -3.0694   -5.4924 N   0  0  0  0  0  0  0  0  0  0  0  0
  -10.4368   -5.4804  -11.5020 C   0  0  0  0  0  0  0  0  0  0  0  0
  -12.9354   -4.7954   -9.8342 C   0  0  0  0  0  0  0  0  0  0  0  0
  -13.6886   -3.6132   -9.6245 C   0  0  0  0  0  0  0  0  0  0  0  0
  -14.9411   -3.5827  -10.2270 C   0  0  0  0  0  0  0  0  0  0  0  0
  -15.4569   -4.5720  -10.9439 N   0  0  0  0  0  0  0  0  0  0  0  0
  -14.6554   -5.6864  -11.1085 C   0  0  0  0  0  0  0  0  0  0  0  0
  -13.4168   -5.7897  -10.5735 N   0  0  0  0  0  0  0  0  0  0  0  0
  -15.1241   -6.7968  -11.8354 N   0  0  0  0  0  0  0  0  0  0  0  0
  -11.2689   -2.6528   -4.0634 C   0  0  0  0  0  0  0  0  0  0  0  0
  -12.4674   -1.6659   -4.0281 C   0  0  0  0  0  0  0  0  0  0  0  0
  -13.8161   -2.3791   -4.0277 C   0  0  0  0  0  0  0  0  0  0  0  0
  -14.3760   -2.7509   -5.3628 N   0  0  0  0  0  0  0  0  0  0  0  0
  -15.1984   -1.8832   -6.0654 C   0  0  0  0  0  0  0  0  0  0  0  0
  -15.7410   -2.3748   -7.3704 C   0  0  0  0  0  0  0  0  0  0  0  0
  -15.4866   -0.7390   -5.6267 O   0  0  0  0  0  0  0  0  0  0  0  0
  -15.4572   -1.3871   -8.5406 C   0  0  0  0  0  0  0  0  0  0  0  0
  -16.0297   -2.2035  -10.0981 S   0  0  0  0  0  0  0  0  0  0  0  0
  -11.4533   -2.5285   -6.2179 H   0  0  0  0  0  0  0  0  0  0  0  0
  -16.0187   -6.7745  -12.2457 H   0  0  0  0  0  0  0  0  0  0  0  0
  -14.5573   -7.5958  -11.9335 H   0  0  0  0  0  0  0  0  0  0  0  0
  -14.1566   -3.6287   -5.7508 H   0  0  0  0  0  0  0  0  0  0  0  0
  1  2  2  0  0  0
  1  6  1  0  0  0
  1 12  1  0  0  0
  2  3  1  0  0  0
  2 11  1  0  0  0
  3  4  2  0  0  0
  4  5  1  0  0  0
  4  8  1  0  0  0
  5  6  2  0  0  0
  5  7  1  0  0  0
  7  9  2  0  0  0
  7 10  1  0  0  0
 10 19  1  0  0  0
 12 13  2  0  0  0
 12 17  1  0  0  0
 13 14  1  0  0  0
 14 15  2  0  0  0
 14 27  1  0  0  0
 15 16  1  0  0  0
 16 17  2  0  0  0
 16 18  1  0  0  0
 19 20  1  0  0  0
 20 21  1  0  0  0
 21 22  1  0  0  0
 22 23  1  0  0  0
 23 24  1  0  0  0
 23 25  2  0  0  0
 24 26  1  0  0  0
 26 27  1  0  0  0
 10 28  1  0  0  0
 18 29  1  0  0  0
 18 30  1  0  0  0
 22 31  1  0  0  0
M  END
> <minimizedAffinity>
-8.35199

$$$$
