1E66_HUX_A_803


 23 26  0  0  0  0  0  0  0  0999 V2000
    7.9006   71.3399   69.5837 Cl  0  0  0  0  0  0  0  0  0  0  0  0
    6.5953   70.8632   68.6685 C   0  0  0  0  0  0  0  0  0  0  0  0
    5.7198   69.7571   65.2336 N   0  0  0  0  0  0  0  0  0  0  0  0
    5.5173   70.0941   66.6393 C   0  0  0  0  0  0  0  0  0  0  0  0
    4.6541   69.2786   64.5583 C   0  0  0  0  0  0  0  0  0  0  0  0
    1.9156   69.2270   67.0260 N   0  0  0  0  0  0  0  0  0  0  0  0
    3.1751   69.4340   66.4942 C   0  0  0  0  0  0  0  0  0  0  0  0
    6.6909   70.5276   67.2254 C   0  0  0  0  0  0  0  0  0  0  0  0
    5.2452   70.7237   69.3220 C   0  0  0  0  0  0  0  0  0  0  0  0
    4.2829   69.9331   67.2214 C   0  0  0  0  0  0  0  0  0  0  0  0
    4.9927   68.9107   63.0132 C   0  0  0  0  0  0  0  0  0  0  0  0
    3.3788   69.0644   65.0510 C   0  0  0  0  0  0  0  0  0  0  0  0
    3.9832   67.9132   62.4205 C   0  0  0  0  0  0  0  0  0  0  0  0
    4.0010   66.4254   63.1848 C   0  0  0  0  0  0  0  0  0  0  0  0
    2.5825   68.4568   62.6148 C   0  0  0  0  0  0  0  0  0  0  0  0
    3.2068   66.0225   64.1792 C   0  0  0  0  0  0  0  0  0  0  0  0
    2.1674   67.0153   64.6471 C   0  0  0  0  0  0  0  0  0  0  0  0
    2.2756   68.4588   64.1758 C   0  0  0  0  0  0  0  0  0  0  0  0
    4.1430   70.2976   68.6786 C   0  0  0  0  0  0  0  0  0  0  0  0
    1.7350   69.4541   67.9667 H   0  0  0  0  0  0  0  0  0  0  0  0
    1.1994   68.8525   66.4638 H   0  0  0  0  0  0  0  0  0  0  0  0
    3.4165   64.5766   64.7774 C   0  0  0  0  0  0  0  0  0  0  0  0
    4.4919   63.6320   64.1936 C   0  0  0  0  0  0  0  0  0  0  0  0
  1  2  1  0  0  0
  2  8  2  0  0  0
  2  9  1  0  0  0
  3  4  2  0  0  0
  3  5  1  0  0  0
  4  8  1  0  0  0
  4 10  1  0  0  0
  5 11  1  0  0  0
  5 12  2  0  0  0
  6  7  1  0  0  0
  7 10  2  0  0  0
  7 12  1  0  0  0
  9 19  2  0  0  0
 10 19  1  0  0  0
 11 13  1  0  0  0
 12 18  1  0  0  0
 13 14  1  0  0  0
 13 15  1  0  0  0
 14 16  2  0  0  0
 15 18  1  0  0  0
 16 17  1  0  0  0
 16 22  1  0  0  0
 17 18  1  0  0  0
 22 23  1  0  0  0
  6 20  1  0  0  0
  6 21  1  0  0  0
M  END
> <minimizedAffinity>
-12.76708

$$$$
