3SUR_NGT_A_2000


 17 18  0  0  0  0  0  0  0  0999 V2000
   35.6140   19.0664  -16.1815 C   0  0  0  0  0  0  0  0  0  0  0  0
   35.1559   18.0113  -17.2517 C   0  0  0  0  0  0  0  0  0  0  0  0
   34.5598   16.6990  -16.6559 C   0  0  0  0  0  0  0  0  0  0  0  0
   35.3737   16.1889  -15.4615 C   0  0  0  0  0  0  0  0  0  0  0  0
   35.4176   17.3142  -14.4262 C   0  0  0  0  0  0  0  0  0  0  0  0
   33.4556   19.6874  -17.4126 C   0  0  0  0  0  0  0  0  0  0  0  0
   32.3167   20.4969  -17.9963 C   0  0  0  0  0  0  0  0  0  0  0  0
   34.0703   18.6866  -18.0586 N   0  0  0  0  0  0  0  0  0  0  0  0
   34.1176   20.0008  -15.8559 S   0  0  0  0  0  0  0  0  0  0  0  0
   34.4852   15.6592  -17.6452 O   0  0  0  0  0  0  0  0  0  0  0  0
   34.7496   15.0034  -14.9336 O   0  0  0  0  0  0  0  0  0  0  0  0
   36.1514   18.4651  -14.9960 O   0  0  0  0  0  0  0  0  0  0  0  0
   35.3795   15.4360  -17.9476 H   0  0  0  0  0  0  0  0  0  0  0  0
   33.8394   15.2082  -14.6680 H   0  0  0  0  0  0  0  0  0  0  0  0
   36.1114   16.8788  -13.1375 C   0  0  0  0  0  0  0  0  0  0  0  0
   35.3803   17.4727  -12.0659 O   0  0  0  0  0  0  0  0  0  0  0  0
   35.3782   18.4370  -12.1713 H   0  0  0  0  0  0  0  0  0  0  0  0
  1  2  1  0  0  0
  1  9  1  0  0  0
  1 12  1  0  0  0
  2  3  1  0  0  0
  2  8  1  0  0  0
  3  4  1  0  0  0
  3 10  1  0  0  0
  4  5  1  0  0  0
  4 11  1  0  0  0
  5 15  1  0  0  0
  5 12  1  0  0  0
 15 16  1  0  0  0
  6  7  1  0  0  0
  6  8  2  0  0  0
  6  9  1  0  0  0
 10 13  1  0  0  0
 11 14  1  0  0  0
 16 17  1  0  0  0
M  END
> <minimizedAffinity>
-7.93270

$$$$
3SUR_NGT_A_2000


 17 18  0  0  0  0  0  0  0  0999 V2000
   36.3730   18.7464  -14.9024 C   0  0  0  0  0  0  0  0  0  0  0  0
   36.1291   17.1946  -14.8730 C   0  0  0  0  0  0  0  0  0  0  0  0
   35.5839   16.5976  -16.2068 C   0  0  0  0  0  0  0  0  0  0  0  0
   34.4890   17.4752  -16.8237 C   0  0  0  0  0  0  0  0  0  0  0  0
   35.0835   18.8700  -17.0265 C   0  0  0  0  0  0  0  0  0  0  0  0
   38.5159   17.3446  -14.9549 C   0  0  0  0  0  0  0  0  0  0  0  0
   39.9659   16.9311  -14.8143 C   0  0  0  0  0  0  0  0  0  0  0  0
   37.4795   16.5697  -14.6057 N   0  0  0  0  0  0  0  0  0  0  0  0
   38.0421   18.8900  -15.5440 S   0  0  0  0  0  0  0  0  0  0  0  0
   35.0634   15.2719  -16.0152 O   0  0  0  0  0  0  0  0  0  0  0  0
   34.0595   16.8930  -18.0686 O   0  0  0  0  0  0  0  0  0  0  0  0
   35.4162   19.4489  -15.7067 O   0  0  0  0  0  0  0  0  0  0  0  0
   34.3087   15.3056  -15.4067 H   0  0  0  0  0  0  0  0  0  0  0  0
   34.8180   16.8162  -18.6683 H   0  0  0  0  0  0  0  0  0  0  0  0
   34.1132   19.8065  -17.7430 C   0  0  0  0  0  0  0  0  0  0  0  0
   33.2504   20.3377  -16.7386 O   0  0  0  0  0  0  0  0  0  0  0  0
   32.7913   19.6109  -16.2893 H   0  0  0  0  0  0  0  0  0  0  0  0
  1  2  1  0  0  0
  1  9  1  0  0  0
  1 12  1  0  0  0
  2  3  1  0  0  0
  2  8  1  0  0  0
  3  4  1  0  0  0
  3 10  1  0  0  0
  4  5  1  0  0  0
  4 11  1  0  0  0
  5 15  1  0  0  0
  5 12  1  0  0  0
 15 16  1  0  0  0
  6  7  1  0  0  0
  6  8  2  0  0  0
  6  9  1  0  0  0
 10 13  1  0  0  0
 11 14  1  0  0  0
 16 17  1  0  0  0
M  END
> <minimizedAffinity>
-5.77772

$$$$
