5ODX_9RZ_A_301


 38 42  0  0  0  0  0  0  0  0999 V2000
   -1.2591   32.9606   23.8752 C   0  0  0  0  0  0  0  0  0  0  0  0
   -0.0114   32.1657   25.7594 C   0  0  0  0  0  0  0  0  0  0  0  0
    1.1678   32.6425   25.1595 C   0  0  0  0  0  0  0  0  0  0  0  0
    2.2179   32.3118   26.1121 C   0  0  0  0  0  0  0  0  0  0  0  0
   -0.0770   33.4260   23.2829 C   0  0  0  0  0  0  0  0  0  0  0  0
    1.1244   33.2672   23.9273 C   0  0  0  0  0  0  0  0  0  0  0  0
   -1.2183   32.3233   25.0931 C   0  0  0  0  0  0  0  0  0  0  0  0
   -2.4128   33.1522   23.2368 O   0  0  0  0  0  0  0  0  0  0  0  0
    1.6216   31.7583   27.1211 N   0  0  0  0  0  0  0  0  0  0  0  0
    0.3790   31.6288   26.9370 N   0  0  0  0  0  0  0  0  0  0  0  0
   -2.4226   33.5883   22.4076 H   0  0  0  0  0  0  0  0  0  0  0  0
   -0.2309   31.1903   27.5733 H   0  0  0  0  0  0  0  0  0  0  0  0
    3.6215   32.7190   25.9527 C   0  0  0  0  0  0  0  0  0  0  0  0
    5.9239   32.6785   25.1051 C   0  0  0  0  0  0  0  0  0  0  0  0
    5.4229   29.9241   24.6240 C   0  0  0  0  0  0  0  0  0  0  0  0
    6.6173   30.6381   24.0172 C   0  0  0  0  0  0  0  0  0  0  0  0
    7.0235   31.6410   25.0389 C   0  0  0  0  0  0  0  0  0  0  0  0
    3.8950   33.7416   26.4956 O   0  0  0  0  0  0  0  0  0  0  0  0
    4.5543   32.1013   25.2340 N   0  0  0  0  0  0  0  0  0  0  0  0
    4.2311   30.8612   24.5626 C   0  0  0  0  0  0  0  0  0  0  0  0
    5.1036   28.8243   23.8731 O   0  0  0  0  0  0  0  0  0  0  0  0
    5.3464   28.9900   22.4928 C   0  0  0  0  0  0  0  0  0  0  0  0
   -0.1394   34.1050   21.9834 C   0  0  0  0  0  0  0  0  0  0  0  0
    0.3307   36.0053   20.5692 C   0  0  0  0  0  0  0  0  0  0  0  0
    0.4002   35.3303   21.8459 N   0  0  0  0  0  0  0  0  0  0  0  0
   -0.6675   33.5386   21.0691 O   0  0  0  0  0  0  0  0  0  0  0  0
    1.0340   36.0199   22.8855 C   0  0  0  0  0  0  0  0  0  0  0  0
    0.8913   37.3544   24.8523 C   0  0  0  0  0  0  0  0  0  0  0  0
    2.4045   36.0348   23.0368 C   0  0  0  0  0  0  0  0  0  0  0  0
    2.2654   37.3880   24.9930 C   0  0  0  0  0  0  0  0  0  0  0  0
    3.0131   36.6976   24.0650 C   0  0  0  0  0  0  0  0  0  0  0  0
    0.2893   36.6883   23.8199 C   0  0  0  0  0  0  0  0  0  0  0  0
    3.8668   37.3293   26.8656 C   0  0  0  0  0  0  0  0  0  0  0  0
    4.1789   38.0635   28.1642 C   0  0  0  0  0  0  0  0  0  0  0  0
    3.4490   40.1107   27.3133 C   0  0  0  0  0  0  0  0  0  0  0  0
    2.8865   38.0581   26.0517 N   0  0  0  0  0  0  0  0  0  0  0  0
    4.5273   39.3845   27.8606 O   0  0  0  0  0  0  0  0  0  0  0  0
    3.0948   39.4970   25.9504 C   0  0  0  0  0  0  0  0  0  0  0  0
 24 25  1  0  0  0
 26 23  2  0  0  0
 25 23  1  0  0  0
 25 27  1  0  0  0
 23  5  1  0  0  0
 32 27  2  0  0  0
 32 28  1  0  0  0
 27 29  1  0  0  0
 22 21  1  0  0  0
 21 15  1  0  0  0
  5  6  2  0  0  0
  5  1  1  0  0  0
  8  1  1  0  0  0
 28 30  2  0  0  0
 29 31  2  0  0  0
 16 15  1  0  0  0
 16 17  1  0  0  0
  6  3  1  0  0  0
  1  7  2  0  0  0
 20 15  1  0  0  0
 20 19  1  0  0  0
 30 31  1  0  0  0
 30 36  1  0  0  0
 14 17  1  0  0  0
 14 19  1  0  0  0
 19 13  1  0  0  0
  3  2  2  0  0  0
  3  4  1  0  0  0
  7  2  1  0  0  0
 38 36  1  0  0  0
 38 35  1  0  0  0
 36 33  1  0  0  0
  2 10  1  0  0  0
 13  4  1  0  0  0
 13 18  2  0  0  0
  4  9  2  0  0  0
 35 37  1  0  0  0
 33 34  1  0  0  0
 10  9  1  0  0  0
 37 34  1  0  0  0
  8 11  1  0  0  0
 10 12  1  0  0  0
M  END
> <minimizedAffinity>
-11.38390

$$$$
5ODX_9RZ_A_301


 38 42  0  0  0  0  0  0  0  0999 V2000
   -1.2972   33.2636   24.3353 C   0  0  0  0  0  0  0  0  0  0  0  0
    0.0331   31.9637   25.8451 C   0  0  0  0  0  0  0  0  0  0  0  0
    1.0633   31.9358   24.8881 C   0  0  0  0  0  0  0  0  0  0  0  0
    2.1272   31.1717   25.5236 C   0  0  0  0  0  0  0  0  0  0  0  0
   -0.2668   33.2240   23.3859 C   0  0  0  0  0  0  0  0  0  0  0  0
    0.9039   32.5651   23.6679 C   0  0  0  0  0  0  0  0  0  0  0  0
   -1.1494   32.6244   25.5439 C   0  0  0  0  0  0  0  0  0  0  0  0
   -2.4115   33.9326   24.0422 O   0  0  0  0  0  0  0  0  0  0  0  0
    1.6942   30.8770   26.7092 N   0  0  0  0  0  0  0  0  0  0  0  0
    0.5115   31.2741   26.9048 N   0  0  0  0  0  0  0  0  0  0  0  0
   -2.4957   34.3625   23.2139 H   0  0  0  0  0  0  0  0  0  0  0  0
    0.0002   31.1025   27.7285 H   0  0  0  0  0  0  0  0  0  0  0  0
    3.4566   30.9734   24.9281 C   0  0  0  0  0  0  0  0  0  0  0  0
    5.8420   31.3570   24.4998 C   0  0  0  0  0  0  0  0  0  0  0  0
    5.2988   34.0167   25.3365 C   0  0  0  0  0  0  0  0  0  0  0  0
    6.7174   33.4907   25.2129 C   0  0  0  0  0  0  0  0  0  0  0  0
    6.6759   32.5429   24.0663 C   0  0  0  0  0  0  0  0  0  0  0  0
    3.5478   29.9935   24.2596 O   0  0  0  0  0  0  0  0  0  0  0  0
    4.5348   31.7288   25.1149 N   0  0  0  0  0  0  0  0  0  0  0  0
    4.4380   32.9184   25.9326 C   0  0  0  0  0  0  0  0  0  0  0  0
    5.2641   35.0690   26.2120 O   0  0  0  0  0  0  0  0  0  0  0  0
    6.4614   35.2421   26.9387 C   0  0  0  0  0  0  0  0  0  0  0  0
   -0.4412   33.9128   22.1019 C   0  0  0  0  0  0  0  0  0  0  0  0
   -0.0042   35.7757   20.6286 C   0  0  0  0  0  0  0  0  0  0  0  0
    0.1748   35.0904   21.8890 N   0  0  0  0  0  0  0  0  0  0  0  0
   -1.1282   33.3966   21.2669 O   0  0  0  0  0  0  0  0  0  0  0  0
    0.9925   35.7200   22.8340 C   0  0  0  0  0  0  0  0  0  0  0  0
    3.1663   36.3433   23.5795 C   0  0  0  0  0  0  0  0  0  0  0  0
    0.4825   36.3841   23.9294 C   0  0  0  0  0  0  0  0  0  0  0  0
    2.6578   36.9909   24.6890 C   0  0  0  0  0  0  0  0  0  0  0  0
    1.2888   37.0100   24.8378 C   0  0  0  0  0  0  0  0  0  0  0  0
    2.3523   35.7189   22.6742 C   0  0  0  0  0  0  0  0  0  0  0  0
    4.5400   38.5258   25.1086 C   0  0  0  0  0  0  0  0  0  0  0  0
    5.5552   38.8663   26.1932 C   0  0  0  0  0  0  0  0  0  0  0  0
    4.0610   38.3510   27.9107 C   0  0  0  0  0  0  0  0  0  0  0  0
    3.4836   37.6399   25.6123 N   0  0  0  0  0  0  0  0  0  0  0  0
    4.8697   39.3424   27.3165 O   0  0  0  0  0  0  0  0  0  0  0  0
    2.9444   37.9816   26.9225 C   0  0  0  0  0  0  0  0  0  0  0  0
 24 25  1  0  0  0
 26 23  2  0  0  0
 25 23  1  0  0  0
 25 27  1  0  0  0
 23  5  1  0  0  0
 32 27  2  0  0  0
 32 28  1  0  0  0
 27 29  1  0  0  0
 22 21  1  0  0  0
 21 15  1  0  0  0
  5  6  2  0  0  0
  5  1  1  0  0  0
  8  1  1  0  0  0
 28 30  2  0  0  0
 29 31  2  0  0  0
 16 15  1  0  0  0
 16 17  1  0  0  0
  6  3  1  0  0  0
  1  7  2  0  0  0
 20 15  1  0  0  0
 20 19  1  0  0  0
 30 31  1  0  0  0
 30 36  1  0  0  0
 14 17  1  0  0  0
 14 19  1  0  0  0
 19 13  1  0  0  0
  3  2  2  0  0  0
  3  4  1  0  0  0
  7  2  1  0  0  0
 38 36  1  0  0  0
 38 35  1  0  0  0
 36 33  1  0  0  0
  2 10  1  0  0  0
 13  4  1  0  0  0
 13 18  2  0  0  0
  4  9  2  0  0  0
 35 37  1  0  0  0
 33 34  1  0  0  0
 10  9  1  0  0  0
 37 34  1  0  0  0
  8 11  1  0  0  0
 10 12  1  0  0  0
M  END
> <minimizedAffinity>
-10.96669

$$$$
5ODX_9RZ_A_301


 38 42  0  0  0  0  0  0  0  0999 V2000
    6.3446   34.5702   25.8967 C   0  0  0  0  0  0  0  0  0  0  0  0
    5.4526   32.6879   24.7134 C   0  0  0  0  0  0  0  0  0  0  0  0
    4.2827   32.7749   25.4891 C   0  0  0  0  0  0  0  0  0  0  0  0
    3.4390   31.6966   24.9941 C   0  0  0  0  0  0  0  0  0  0  0  0
    5.1771   34.6439   26.6689 C   0  0  0  0  0  0  0  0  0  0  0  0
    4.1559   33.7509   26.4596 C   0  0  0  0  0  0  0  0  0  0  0  0
    6.4818   33.5901   24.9419 C   0  0  0  0  0  0  0  0  0  0  0  0
    7.3075   35.4668   26.1061 O   0  0  0  0  0  0  0  0  0  0  0  0
    4.1011   31.1419   24.0276 N   0  0  0  0  0  0  0  0  0  0  0  0
    5.2465   31.6504   23.8717 N   0  0  0  0  0  0  0  0  0  0  0  0
    7.1977   36.1280   26.7609 H   0  0  0  0  0  0  0  0  0  0  0  0
    5.9085   31.3304   23.2170 H   0  0  0  0  0  0  0  0  0  0  0  0
    2.0583   31.4687   25.4447 C   0  0  0  0  0  0  0  0  0  0  0  0
   -0.3922   31.5945   25.4347 C   0  0  0  0  0  0  0  0  0  0  0  0
   -0.0046   33.9868   23.9530 C   0  0  0  0  0  0  0  0  0  0  0  0
   -1.3600   33.3084   24.0371 C   0  0  0  0  0  0  0  0  0  0  0  0
   -1.4077   32.7158   25.4014 C   0  0  0  0  0  0  0  0  0  0  0  0
    1.9630   30.6990   26.3468 O   0  0  0  0  0  0  0  0  0  0  0  0
    0.9516   31.9791   24.9132 N   0  0  0  0  0  0  0  0  0  0  0  0
    1.0548   32.9099   23.8104 C   0  0  0  0  0  0  0  0  0  0  0  0
    0.0619   34.7623   22.8264 O   0  0  0  0  0  0  0  0  0  0  0  0
   -0.3273   34.0876   21.6495 C   0  0  0  0  0  0  0  0  0  0  0  0
    5.0472   35.6970   27.6826 C   0  0  0  0  0  0  0  0  0  0  0  0
    4.2048   37.8429   28.4021 C   0  0  0  0  0  0  0  0  0  0  0  0
    4.3253   36.7995   27.4086 N   0  0  0  0  0  0  0  0  0  0  0  0
    5.5868   35.5394   28.7407 O   0  0  0  0  0  0  0  0  0  0  0  0
    3.6722   37.0159   26.1901 C   0  0  0  0  0  0  0  0  0  0  0  0
    1.6535   37.1220   24.9319 C   0  0  0  0  0  0  0  0  0  0  0  0
    4.3456   37.3807   25.0435 C   0  0  0  0  0  0  0  0  0  0  0  0
    2.3293   37.4667   23.7771 C   0  0  0  0  0  0  0  0  0  0  0  0
    3.6968   37.6059   23.8623 C   0  0  0  0  0  0  0  0  0  0  0  0
    2.3105   36.8983   26.1110 C   0  0  0  0  0  0  0  0  0  0  0  0
    0.7380   38.8444   22.4946 C   0  0  0  0  0  0  0  0  0  0  0  0
   -0.1565   38.7616   21.2634 C   0  0  0  0  0  0  0  0  0  0  0  0
    1.3174   37.3351   20.1498 C   0  0  0  0  0  0  0  0  0  0  0  0
    1.6629   37.7071   22.5713 N   0  0  0  0  0  0  0  0  0  0  0  0
    0.6494   38.5772   20.1342 O   0  0  0  0  0  0  0  0  0  0  0  0
    2.3121   37.3355   21.3205 C   0  0  0  0  0  0  0  0  0  0  0  0
 24 25  1  0  0  0
 26 23  2  0  0  0
 25 23  1  0  0  0
 25 27  1  0  0  0
 23  5  1  0  0  0
 32 27  2  0  0  0
 32 28  1  0  0  0
 27 29  1  0  0  0
 22 21  1  0  0  0
 21 15  1  0  0  0
  5  6  2  0  0  0
  5  1  1  0  0  0
  8  1  1  0  0  0
 28 30  2  0  0  0
 29 31  2  0  0  0
 16 15  1  0  0  0
 16 17  1  0  0  0
  6  3  1  0  0  0
  1  7  2  0  0  0
 20 15  1  0  0  0
 20 19  1  0  0  0
 30 31  1  0  0  0
 30 36  1  0  0  0
 14 17  1  0  0  0
 14 19  1  0  0  0
 19 13  1  0  0  0
  3  2  2  0  0  0
  3  4  1  0  0  0
  7  2  1  0  0  0
 38 36  1  0  0  0
 38 35  1  0  0  0
 36 33  1  0  0  0
  2 10  1  0  0  0
 13  4  1  0  0  0
 13 18  2  0  0  0
  4  9  2  0  0  0
 35 37  1  0  0  0
 33 34  1  0  0  0
 10  9  1  0  0  0
 37 34  1  0  0  0
  8 11  1  0  0  0
 10 12  1  0  0  0
M  END
> <minimizedAffinity>
-10.62840

$$$$
5ODX_9RZ_A_301


 38 42  0  0  0  0  0  0  0  0999 V2000
    3.3537   31.2334   24.7797 C   0  0  0  0  0  0  0  0  0  0  0  0
    5.2682   32.6698   24.8815 C   0  0  0  0  0  0  0  0  0  0  0  0
    4.6013   33.4649   25.8306 C   0  0  0  0  0  0  0  0  0  0  0  0
    5.5530   34.5184   26.1533 C   0  0  0  0  0  0  0  0  0  0  0  0
    2.6953   32.0365   25.7212 C   0  0  0  0  0  0  0  0  0  0  0  0
    3.3216   33.1417   26.2410 C   0  0  0  0  0  0  0  0  0  0  0  0
    4.6202   31.5610   24.3559 C   0  0  0  0  0  0  0  0  0  0  0  0
    2.7294   30.1531   24.3125 O   0  0  0  0  0  0  0  0  0  0  0  0
    6.6198   34.2572   25.4649 N   0  0  0  0  0  0  0  0  0  0  0  0
    6.4775   33.2506   24.7156 N   0  0  0  0  0  0  0  0  0  0  0  0
    1.8664   29.9445   24.6120 H   0  0  0  0  0  0  0  0  0  0  0  0
    7.1636   32.9283   24.0875 H   0  0  0  0  0  0  0  0  0  0  0  0
    5.3254   35.5329   27.1926 C   0  0  0  0  0  0  0  0  0  0  0  0
    4.3123   37.4749   28.2986 C   0  0  0  0  0  0  0  0  0  0  0  0
    3.6478   38.3024   25.6637 C   0  0  0  0  0  0  0  0  0  0  0  0
    3.0155   38.9419   26.8866 C   0  0  0  0  0  0  0  0  0  0  0  0
    4.0827   38.9228   27.9237 C   0  0  0  0  0  0  0  0  0  0  0  0
    5.9279   35.3393   28.2000 O   0  0  0  0  0  0  0  0  0  0  0  0
    4.4933   36.5680   27.1280 N   0  0  0  0  0  0  0  0  0  0  0  0
    3.7491   36.8086   25.9109 C   0  0  0  0  0  0  0  0  0  0  0  0
    2.8357   38.4713   24.5741 O   0  0  0  0  0  0  0  0  0  0  0  0
    3.5397   38.6780   23.3686 C   0  0  0  0  0  0  0  0  0  0  0  0
    1.3444   31.6712   26.1630 C   0  0  0  0  0  0  0  0  0  0  0  0
   -1.0513   31.9681   26.0968 C   0  0  0  0  0  0  0  0  0  0  0  0
    0.2798   32.3194   25.6551 N   0  0  0  0  0  0  0  0  0  0  0  0
    1.2262   30.7901   26.9662 O   0  0  0  0  0  0  0  0  0  0  0  0
    0.3755   33.3456   24.7087 C   0  0  0  0  0  0  0  0  0  0  0  0
    0.2395   34.0718   22.4451 C   0  0  0  0  0  0  0  0  0  0  0  0
    0.6471   34.6517   25.0574 C   0  0  0  0  0  0  0  0  0  0  0  0
    0.5327   35.3770   22.7908 C   0  0  0  0  0  0  0  0  0  0  0  0
    0.7222   35.6498   24.1273 C   0  0  0  0  0  0  0  0  0  0  0  0
    0.1660   33.0778   23.3824 C   0  0  0  0  0  0  0  0  0  0  0  0
    0.1369   37.7408   22.2157 C   0  0  0  0  0  0  0  0  0  0  0  0
   -0.0583   38.6332   20.9958 C   0  0  0  0  0  0  0  0  0  0  0  0
    1.3584   37.3299   19.6759 C   0  0  0  0  0  0  0  0  0  0  0  0
    0.5990   36.3994   21.8390 N   0  0  0  0  0  0  0  0  0  0  0  0
    1.1106   38.6046   20.2267 O   0  0  0  0  0  0  0  0  0  0  0  0
    1.6462   36.3535   20.8264 C   0  0  0  0  0  0  0  0  0  0  0  0
 24 25  1  0  0  0
 26 23  2  0  0  0
 25 23  1  0  0  0
 25 27  1  0  0  0
 23  5  1  0  0  0
 32 27  2  0  0  0
 32 28  1  0  0  0
 27 29  1  0  0  0
 22 21  1  0  0  0
 21 15  1  0  0  0
  5  6  2  0  0  0
  5  1  1  0  0  0
  8  1  1  0  0  0
 28 30  2  0  0  0
 29 31  2  0  0  0
 16 15  1  0  0  0
 16 17  1  0  0  0
  6  3  1  0  0  0
  1  7  2  0  0  0
 20 15  1  0  0  0
 20 19  1  0  0  0
 30 31  1  0  0  0
 30 36  1  0  0  0
 14 17  1  0  0  0
 14 19  1  0  0  0
 19 13  1  0  0  0
  3  2  2  0  0  0
  3  4  1  0  0  0
  7  2  1  0  0  0
 38 36  1  0  0  0
 38 35  1  0  0  0
 36 33  1  0  0  0
  2 10  1  0  0  0
 13  4  1  0  0  0
 13 18  2  0  0  0
  4  9  2  0  0  0
 35 37  1  0  0  0
 33 34  1  0  0  0
 10  9  1  0  0  0
 37 34  1  0  0  0
  8 11  1  0  0  0
 10 12  1  0  0  0
M  END
> <minimizedAffinity>
-10.36923

$$$$
5ODX_9RZ_A_301


 38 42  0  0  0  0  0  0  0  0999 V2000
    3.5502   39.2020   26.8600 C   0  0  0  0  0  0  0  0  0  0  0  0
    4.2370   37.4735   28.3698 C   0  0  0  0  0  0  0  0  0  0  0  0
    5.0203   36.9121   27.3456 C   0  0  0  0  0  0  0  0  0  0  0  0
    5.6432   35.7495   27.9619 C   0  0  0  0  0  0  0  0  0  0  0  0
    4.3289   38.6306   25.8442 C   0  0  0  0  0  0  0  0  0  0  0  0
    5.0586   37.4949   26.0928 C   0  0  0  0  0  0  0  0  0  0  0  0
    3.4959   38.6158   28.1028 C   0  0  0  0  0  0  0  0  0  0  0  0
    2.8732   40.3186   26.5955 O   0  0  0  0  0  0  0  0  0  0  0  0
    5.2474   35.7463   29.1962 N   0  0  0  0  0  0  0  0  0  0  0  0
    4.4305   36.6768   29.4446 N   0  0  0  0  0  0  0  0  0  0  0  0
    2.9214   40.7048   25.7431 H   0  0  0  0  0  0  0  0  0  0  0  0
    3.9885   36.8061   30.3147 H   0  0  0  0  0  0  0  0  0  0  0  0
    6.6421   34.9065   27.2890 C   0  0  0  0  0  0  0  0  0  0  0  0
    7.5556   33.3149   25.6602 C   0  0  0  0  0  0  0  0  0  0  0  0
    4.8831   32.3702   25.4739 C   0  0  0  0  0  0  0  0  0  0  0  0
    5.9396   31.9891   24.4526 C   0  0  0  0  0  0  0  0  0  0  0  0
    7.2083   31.9075   25.2262 C   0  0  0  0  0  0  0  0  0  0  0  0
    7.7572   35.0811   27.6652 O   0  0  0  0  0  0  0  0  0  0  0  0
    6.4234   34.0486   26.2971 N   0  0  0  0  0  0  0  0  0  0  0  0
    5.0725   33.8341   25.8258 C   0  0  0  0  0  0  0  0  0  0  0  0
    3.6350   32.2515   24.9233 O   0  0  0  0  0  0  0  0  0  0  0  0
    3.2581   30.9183   24.6544 C   0  0  0  0  0  0  0  0  0  0  0  0
    4.3761   39.2703   24.5244 C   0  0  0  0  0  0  0  0  0  0  0  0
    3.6778   39.4038   22.2164 C   0  0  0  0  0  0  0  0  0  0  0  0
    3.6248   38.7814   23.5203 N   0  0  0  0  0  0  0  0  0  0  0  0
    5.0839   40.2260   24.3792 O   0  0  0  0  0  0  0  0  0  0  0  0
    2.7786   37.6749   23.6524 C   0  0  0  0  0  0  0  0  0  0  0  0
    2.4180   35.3295   23.4559 C   0  0  0  0  0  0  0  0  0  0  0  0
    1.4945   37.7791   24.1438 C   0  0  0  0  0  0  0  0  0  0  0  0
    1.1238   35.4354   23.9280 C   0  0  0  0  0  0  0  0  0  0  0  0
    0.6815   36.6900   24.2846 C   0  0  0  0  0  0  0  0  0  0  0  0
    3.2260   36.4249   23.3179 C   0  0  0  0  0  0  0  0  0  0  0  0
    0.5010   33.4472   25.2447 C   0  0  0  0  0  0  0  0  0  0  0  0
   -0.2190   32.1136   25.0840 C   0  0  0  0  0  0  0  0  0  0  0  0
   -1.6974   32.9751   23.4967 C   0  0  0  0  0  0  0  0  0  0  0  0
    0.2963   34.3185   24.0813 N   0  0  0  0  0  0  0  0  0  0  0  0
   -1.5574   32.3620   24.7592 O   0  0  0  0  0  0  0  0  0  0  0  0
   -1.0657   34.3737   23.5655 C   0  0  0  0  0  0  0  0  0  0  0  0
 24 25  1  0  0  0
 26 23  2  0  0  0
 25 23  1  0  0  0
 25 27  1  0  0  0
 23  5  1  0  0  0
 32 27  2  0  0  0
 32 28  1  0  0  0
 27 29  1  0  0  0
 22 21  1  0  0  0
 21 15  1  0  0  0
  5  6  2  0  0  0
  5  1  1  0  0  0
  8  1  1  0  0  0
 28 30  2  0  0  0
 29 31  2  0  0  0
 16 15  1  0  0  0
 16 17  1  0  0  0
  6  3  1  0  0  0
  1  7  2  0  0  0
 20 15  1  0  0  0
 20 19  1  0  0  0
 30 31  1  0  0  0
 30 36  1  0  0  0
 14 17  1  0  0  0
 14 19  1  0  0  0
 19 13  1  0  0  0
  3  2  2  0  0  0
  3  4  1  0  0  0
  7  2  1  0  0  0
 38 36  1  0  0  0
 38 35  1  0  0  0
 36 33  1  0  0  0
  2 10  1  0  0  0
 13  4  1  0  0  0
 13 18  2  0  0  0
  4  9  2  0  0  0
 35 37  1  0  0  0
 33 34  1  0  0  0
 10  9  1  0  0  0
 37 34  1  0  0  0
  8 11  1  0  0  0
 10 12  1  0  0  0
M  END
> <minimizedAffinity>
-10.13369

$$$$
5ODX_9RZ_A_301


 38 42  0  0  0  0  0  0  0  0999 V2000
   -0.2580   33.9878   22.2519 C   0  0  0  0  0  0  0  0  0  0  0  0
    1.0789   35.9145   21.7625 C   0  0  0  0  0  0  0  0  0  0  0  0
    1.0892   36.2354   23.1316 C   0  0  0  0  0  0  0  0  0  0  0  0
    1.8875   37.4502   23.2129 C   0  0  0  0  0  0  0  0  0  0  0  0
   -0.2472   34.3205   23.6135 C   0  0  0  0  0  0  0  0  0  0  0  0
    0.4260   35.4365   24.0440 C   0  0  0  0  0  0  0  0  0  0  0  0
    0.3862   34.7893   21.3388 C   0  0  0  0  0  0  0  0  0  0  0  0
   -0.8987   32.8845   21.8681 O   0  0  0  0  0  0  0  0  0  0  0  0
    2.2821   37.6981   22.0033 N   0  0  0  0  0  0  0  0  0  0  0  0
    1.8150   36.8778   21.1645 N   0  0  0  0  0  0  0  0  0  0  0  0
   -1.3325   32.3497   22.5035 H   0  0  0  0  0  0  0  0  0  0  0  0
    1.9683   36.9331   20.1936 H   0  0  0  0  0  0  0  0  0  0  0  0
    2.2610   38.0977   24.4788 C   0  0  0  0  0  0  0  0  0  0  0  0
    3.7118   38.8880   26.2930 C   0  0  0  0  0  0  0  0  0  0  0  0
    5.4391   36.7853   25.4781 C   0  0  0  0  0  0  0  0  0  0  0  0
    5.9088   37.8937   26.4029 C   0  0  0  0  0  0  0  0  0  0  0  0
    4.7156   38.2405   27.2219 C   0  0  0  0  0  0  0  0  0  0  0  0
    1.3738   38.6967   24.9978 O   0  0  0  0  0  0  0  0  0  0  0  0
    3.4677   38.1216   25.0366 N   0  0  0  0  0  0  0  0  0  0  0  0
    4.5563   37.4035   24.4100 C   0  0  0  0  0  0  0  0  0  0  0  0
    6.5110   36.2268   24.8344 O   0  0  0  0  0  0  0  0  0  0  0  0
    7.7476   36.4837   25.4639 C   0  0  0  0  0  0  0  0  0  0  0  0
   -0.9388   33.4531   24.5741 C   0  0  0  0  0  0  0  0  0  0  0  0
   -0.9157   31.6910   26.2254 C   0  0  0  0  0  0  0  0  0  0  0  0
   -0.2347   32.5537   25.2861 N   0  0  0  0  0  0  0  0  0  0  0  0
   -2.1233   33.5779   24.7048 O   0  0  0  0  0  0  0  0  0  0  0  0
    1.1495   32.3847   25.1700 C   0  0  0  0  0  0  0  0  0  0  0  0
    3.3579   33.1431   25.6360 C   0  0  0  0  0  0  0  0  0  0  0  0
    1.7120   31.2983   24.5340 C   0  0  0  0  0  0  0  0  0  0  0  0
    3.9229   32.0661   24.9805 C   0  0  0  0  0  0  0  0  0  0  0  0
    3.0652   31.1337   24.4403 C   0  0  0  0  0  0  0  0  0  0  0  0
    2.0017   33.3007   25.7258 C   0  0  0  0  0  0  0  0  0  0  0  0
    6.1782   32.8207   25.6278 C   0  0  0  0  0  0  0  0  0  0  0  0
    7.6251   32.7270   25.1581 C   0  0  0  0  0  0  0  0  0  0  0  0
    7.3165   30.5903   24.2709 C   0  0  0  0  0  0  0  0  0  0  0  0
    5.3080   31.8936   24.8944 N   0  0  0  0  0  0  0  0  0  0  0  0
    8.0237   31.3860   25.1963 O   0  0  0  0  0  0  0  0  0  0  0  0
    5.8406   30.5517   24.6950 C   0  0  0  0  0  0  0  0  0  0  0  0
 24 25  1  0  0  0
 26 23  2  0  0  0
 25 23  1  0  0  0
 25 27  1  0  0  0
 23  5  1  0  0  0
 32 27  2  0  0  0
 32 28  1  0  0  0
 27 29  1  0  0  0
 22 21  1  0  0  0
 21 15  1  0  0  0
  5  6  2  0  0  0
  5  1  1  0  0  0
  8  1  1  0  0  0
 28 30  2  0  0  0
 29 31  2  0  0  0
 16 15  1  0  0  0
 16 17  1  0  0  0
  6  3  1  0  0  0
  1  7  2  0  0  0
 20 15  1  0  0  0
 20 19  1  0  0  0
 30 31  1  0  0  0
 30 36  1  0  0  0
 14 17  1  0  0  0
 14 19  1  0  0  0
 19 13  1  0  0  0
  3  2  2  0  0  0
  3  4  1  0  0  0
  7  2  1  0  0  0
 38 36  1  0  0  0
 38 35  1  0  0  0
 36 33  1  0  0  0
  2 10  1  0  0  0
 13  4  1  0  0  0
 13 18  2  0  0  0
  4  9  2  0  0  0
 35 37  1  0  0  0
 33 34  1  0  0  0
 10  9  1  0  0  0
 37 34  1  0  0  0
  8 11  1  0  0  0
 10 12  1  0  0  0
M  END
> <minimizedAffinity>
-10.02871

$$$$
5ODX_9RZ_A_301


 38 42  0  0  0  0  0  0  0  0999 V2000
    6.5046   35.1246   26.5399 C   0  0  0  0  0  0  0  0  0  0  0  0
    5.8980   33.3583   25.0396 C   0  0  0  0  0  0  0  0  0  0  0  0
    4.6266   33.3077   25.6385 C   0  0  0  0  0  0  0  0  0  0  0  0
    3.9243   32.2613   24.9095 C   0  0  0  0  0  0  0  0  0  0  0  0
    5.2367   35.0614   27.1343 C   0  0  0  0  0  0  0  0  0  0  0  0
    4.3079   34.1586   26.6801 C   0  0  0  0  0  0  0  0  0  0  0  0
    6.8315   34.2683   25.5148 C   0  0  0  0  0  0  0  0  0  0  0  0
    7.3757   36.0287   26.9860 O   0  0  0  0  0  0  0  0  0  0  0  0
    4.7476   31.8495   23.9970 N   0  0  0  0  0  0  0  0  0  0  0  0
    5.8729   32.4181   24.0686 N   0  0  0  0  0  0  0  0  0  0  0  0
    7.1365   36.6045   27.6854 H   0  0  0  0  0  0  0  0  0  0  0  0
    6.6384   32.2029   23.4882 H   0  0  0  0  0  0  0  0  0  0  0  0
    2.5086   31.9276   25.1234 C   0  0  0  0  0  0  0  0  0  0  0  0
    0.0732   32.0423   24.8464 C   0  0  0  0  0  0  0  0  0  0  0  0
    0.5530   34.7192   24.0260 C   0  0  0  0  0  0  0  0  0  0  0  0
   -0.7801   34.0348   23.7835 C   0  0  0  0  0  0  0  0  0  0  0  0
   -0.9674   33.1356   24.9545 C   0  0  0  0  0  0  0  0  0  0  0  0
    2.3337   30.9657   25.8012 O   0  0  0  0  0  0  0  0  0  0  0  0
    1.4555   32.5450   24.5965 N   0  0  0  0  0  0  0  0  0  0  0  0
    1.6564   33.7110   23.7639 C   0  0  0  0  0  0  0  0  0  0  0  0
    0.7254   35.7399   23.1294 O   0  0  0  0  0  0  0  0  0  0  0  0
    0.4375   35.3782   21.7960 C   0  0  0  0  0  0  0  0  0  0  0  0
    4.9045   35.9838   28.2263 C   0  0  0  0  0  0  0  0  0  0  0  0
    4.0273   38.0899   29.0181 C   0  0  0  0  0  0  0  0  0  0  0  0
    4.3458   37.1755   27.9445 N   0  0  0  0  0  0  0  0  0  0  0  0
    5.1348   35.6417   29.3512 O   0  0  0  0  0  0  0  0  0  0  0  0
    4.0520   37.6068   26.6462 C   0  0  0  0  0  0  0  0  0  0  0  0
    2.4885   37.8506   24.8669 C   0  0  0  0  0  0  0  0  0  0  0  0
    4.9768   38.2532   25.8536 C   0  0  0  0  0  0  0  0  0  0  0  0
    3.4204   38.4794   24.0637 C   0  0  0  0  0  0  0  0  0  0  0  0
    4.6751   38.6853   24.5929 C   0  0  0  0  0  0  0  0  0  0  0  0
    2.7983   37.4208   26.1284 C   0  0  0  0  0  0  0  0  0  0  0  0
    1.7006   38.9357   22.3582 C   0  0  0  0  0  0  0  0  0  0  0  0
    1.5624   39.1086   20.8503 C   0  0  0  0  0  0  0  0  0  0  0  0
    3.6870   40.0539   20.6508 C   0  0  0  0  0  0  0  0  0  0  0  0
    3.1073   38.9304   22.7775 N   0  0  0  0  0  0  0  0  0  0  0  0
    2.3011   40.2304   20.4572 O   0  0  0  0  0  0  0  0  0  0  0  0
    3.9543   39.9426   22.1594 C   0  0  0  0  0  0  0  0  0  0  0  0
 24 25  1  0  0  0
 26 23  2  0  0  0
 25 23  1  0  0  0
 25 27  1  0  0  0
 23  5  1  0  0  0
 32 27  2  0  0  0
 32 28  1  0  0  0
 27 29  1  0  0  0
 22 21  1  0  0  0
 21 15  1  0  0  0
  5  6  2  0  0  0
  5  1  1  0  0  0
  8  1  1  0  0  0
 28 30  2  0  0  0
 29 31  2  0  0  0
 16 15  1  0  0  0
 16 17  1  0  0  0
  6  3  1  0  0  0
  1  7  2  0  0  0
 20 15  1  0  0  0
 20 19  1  0  0  0
 30 31  1  0  0  0
 30 36  1  0  0  0
 14 17  1  0  0  0
 14 19  1  0  0  0
 19 13  1  0  0  0
  3  2  2  0  0  0
  3  4  1  0  0  0
  7  2  1  0  0  0
 38 36  1  0  0  0
 38 35  1  0  0  0
 36 33  1  0  0  0
  2 10  1  0  0  0
 13  4  1  0  0  0
 13 18  2  0  0  0
  4  9  2  0  0  0
 35 37  1  0  0  0
 33 34  1  0  0  0
 10  9  1  0  0  0
 37 34  1  0  0  0
  8 11  1  0  0  0
 10 12  1  0  0  0
M  END
> <minimizedAffinity>
-10.00573

$$$$
5ODX_9RZ_A_301


 38 42  0  0  0  0  0  0  0  0999 V2000
   -0.6036   33.7199   22.6726 C   0  0  0  0  0  0  0  0  0  0  0  0
    1.0200   35.3076   21.9101 C   0  0  0  0  0  0  0  0  0  0  0  0
    1.5257   35.3954   23.2193 C   0  0  0  0  0  0  0  0  0  0  0  0
    2.6240   36.3460   23.1204 C   0  0  0  0  0  0  0  0  0  0  0  0
   -0.0963   33.8198   23.9755 C   0  0  0  0  0  0  0  0  0  0  0  0
    0.9630   34.6518   24.2396 C   0  0  0  0  0  0  0  0  0  0  0  0
   -0.0577   34.4707   21.6581 C   0  0  0  0  0  0  0  0  0  0  0  0
   -1.6159   32.8846   22.4428 O   0  0  0  0  0  0  0  0  0  0  0  0
    2.6969   36.6764   21.8691 N   0  0  0  0  0  0  0  0  0  0  0  0
    1.7891   36.1406   21.1737 N   0  0  0  0  0  0  0  0  0  0  0  0
   -1.9761   32.3804   23.1457 H   0  0  0  0  0  0  0  0  0  0  0  0
    1.6575   36.3090   20.2127 H   0  0  0  0  0  0  0  0  0  0  0  0
    3.5235   36.6722   24.2365 C   0  0  0  0  0  0  0  0  0  0  0  0
    4.3608   37.8518   26.2186 C   0  0  0  0  0  0  0  0  0  0  0  0
    2.8402   40.0415   25.2379 C   0  0  0  0  0  0  0  0  0  0  0  0
    3.3862   40.0169   26.6542 C   0  0  0  0  0  0  0  0  0  0  0  0
    4.6821   39.2923   26.5524 C   0  0  0  0  0  0  0  0  0  0  0  0
    4.4018   35.8862   24.3978 O   0  0  0  0  0  0  0  0  0  0  0  0
    3.4078   37.6919   25.0820 N   0  0  0  0  0  0  0  0  0  0  0  0
    2.3387   38.6496   24.9007 C   0  0  0  0  0  0  0  0  0  0  0  0
    1.7611   40.8815   25.1666 O   0  0  0  0  0  0  0  0  0  0  0  0
    1.8788   41.8726   24.1688 C   0  0  0  0  0  0  0  0  0  0  0  0
   -0.6903   33.0102   25.0456 C   0  0  0  0  0  0  0  0  0  0  0  0
   -0.5006   31.3562   26.7950 C   0  0  0  0  0  0  0  0  0  0  0  0
    0.0847   32.1623   25.7472 N   0  0  0  0  0  0  0  0  0  0  0  0
   -1.8601   33.1351   25.2725 O   0  0  0  0  0  0  0  0  0  0  0  0
    1.4552   31.9956   25.5200 C   0  0  0  0  0  0  0  0  0  0  0  0
    3.2330   30.8280   24.4494 C   0  0  0  0  0  0  0  0  0  0  0  0
    2.4045   32.8279   26.0745 C   0  0  0  0  0  0  0  0  0  0  0  0
    4.1866   31.6481   25.0214 C   0  0  0  0  0  0  0  0  0  0  0  0
    3.7397   32.6669   25.8332 C   0  0  0  0  0  0  0  0  0  0  0  0
    1.8977   30.9958   24.6959 C   0  0  0  0  0  0  0  0  0  0  0  0
    6.4975   32.4218   25.3897 C   0  0  0  0  0  0  0  0  0  0  0  0
    7.8766   32.3426   24.7457 C   0  0  0  0  0  0  0  0  0  0  0  0
    7.4803   30.2053   23.8954 C   0  0  0  0  0  0  0  0  0  0  0  0
    5.5521   31.4886   24.7653 N   0  0  0  0  0  0  0  0  0  0  0  0
    8.2887   31.0052   24.7299 O   0  0  0  0  0  0  0  0  0  0  0  0
    6.0679   30.1521   24.4972 C   0  0  0  0  0  0  0  0  0  0  0  0
 24 25  1  0  0  0
 26 23  2  0  0  0
 25 23  1  0  0  0
 25 27  1  0  0  0
 23  5  1  0  0  0
 32 27  2  0  0  0
 32 28  1  0  0  0
 27 29  1  0  0  0
 22 21  1  0  0  0
 21 15  1  0  0  0
  5  6  2  0  0  0
  5  1  1  0  0  0
  8  1  1  0  0  0
 28 30  2  0  0  0
 29 31  2  0  0  0
 16 15  1  0  0  0
 16 17  1  0  0  0
  6  3  1  0  0  0
  1  7  2  0  0  0
 20 15  1  0  0  0
 20 19  1  0  0  0
 30 31  1  0  0  0
 30 36  1  0  0  0
 14 17  1  0  0  0
 14 19  1  0  0  0
 19 13  1  0  0  0
  3  2  2  0  0  0
  3  4  1  0  0  0
  7  2  1  0  0  0
 38 36  1  0  0  0
 38 35  1  0  0  0
 36 33  1  0  0  0
  2 10  1  0  0  0
 13  4  1  0  0  0
 13 18  2  0  0  0
  4  9  2  0  0  0
 35 37  1  0  0  0
 33 34  1  0  0  0
 10  9  1  0  0  0
 37 34  1  0  0  0
  8 11  1  0  0  0
 10 12  1  0  0  0
M  END
> <minimizedAffinity>
-9.85217

$$$$
5ODX_9RZ_A_301


 38 42  0  0  0  0  0  0  0  0999 V2000
    5.1813   36.6979   26.9287 C   0  0  0  0  0  0  0  0  0  0  0  0
    3.7949   38.4942   26.1607 C   0  0  0  0  0  0  0  0  0  0  0  0
    4.2323   38.2489   24.8469 C   0  0  0  0  0  0  0  0  0  0  0  0
    3.5259   39.2338   24.0402 C   0  0  0  0  0  0  0  0  0  0  0  0
    5.6160   36.4662   25.6164 C   0  0  0  0  0  0  0  0  0  0  0  0
    5.1387   37.2383   24.5869 C   0  0  0  0  0  0  0  0  0  0  0  0
    4.2927   37.7133   27.1940 C   0  0  0  0  0  0  0  0  0  0  0  0
    5.6432   35.9153   27.9030 O   0  0  0  0  0  0  0  0  0  0  0  0
    2.7675   39.8890   24.8622 N   0  0  0  0  0  0  0  0  0  0  0  0
    2.9238   39.5231   26.0607 N   0  0  0  0  0  0  0  0  0  0  0  0
    6.2483   35.2279   27.7047 H   0  0  0  0  0  0  0  0  0  0  0  0
    2.4671   39.9368   26.8285 H   0  0  0  0  0  0  0  0  0  0  0  0
    3.5925   39.2852   22.5725 C   0  0  0  0  0  0  0  0  0  0  0  0
    2.9715   38.8166   20.2453 C   0  0  0  0  0  0  0  0  0  0  0  0
    1.8288   36.4400   21.3012 C   0  0  0  0  0  0  0  0  0  0  0  0
    1.5130   36.9246   19.8977 C   0  0  0  0  0  0  0  0  0  0  0  0
    2.7699   37.5636   19.4213 C   0  0  0  0  0  0  0  0  0  0  0  0
    4.3777   40.0724   22.1495 O   0  0  0  0  0  0  0  0  0  0  0  0
    2.8395   38.6019   21.7157 N   0  0  0  0  0  0  0  0  0  0  0  0
    1.8754   37.6476   22.2187 C   0  0  0  0  0  0  0  0  0  0  0  0
    0.8202   35.6331   21.7561 O   0  0  0  0  0  0  0  0  0  0  0  0
   -0.1331   35.3054   20.7685 C   0  0  0  0  0  0  0  0  0  0  0  0
    6.5636   35.3774   25.3514 C   0  0  0  0  0  0  0  0  0  0  0  0
    7.0335   33.0614   24.8538 C   0  0  0  0  0  0  0  0  0  0  0  0
    6.1012   34.1376   25.1049 N   0  0  0  0  0  0  0  0  0  0  0  0
    7.7352   35.6283   25.3536 O   0  0  0  0  0  0  0  0  0  0  0  0
    4.7418   33.8068   25.0832 C   0  0  0  0  0  0  0  0  0  0  0  0
    2.8446   32.8440   26.1524 C   0  0  0  0  0  0  0  0  0  0  0  0
    3.9167   34.1342   24.0280 C   0  0  0  0  0  0  0  0  0  0  0  0
    2.0212   33.1525   25.0865 C   0  0  0  0  0  0  0  0  0  0  0  0
    2.5867   33.8212   24.0236 C   0  0  0  0  0  0  0  0  0  0  0  0
    4.1755   33.1609   26.1493 C   0  0  0  0  0  0  0  0  0  0  0  0
    0.1432   31.9454   26.1308 C   0  0  0  0  0  0  0  0  0  0  0  0
   -1.2508   31.4298   25.7936 C   0  0  0  0  0  0  0  0  0  0  0  0
   -1.6675   33.1900   24.3186 C   0  0  0  0  0  0  0  0  0  0  0  0
    0.6579   32.8408   25.0878 N   0  0  0  0  0  0  0  0  0  0  0  0
   -2.0730   32.5216   25.4927 O   0  0  0  0  0  0  0  0  0  0  0  0
   -0.2899   33.8206   24.5723 C   0  0  0  0  0  0  0  0  0  0  0  0
 24 25  1  0  0  0
 26 23  2  0  0  0
 25 23  1  0  0  0
 25 27  1  0  0  0
 23  5  1  0  0  0
 32 27  2  0  0  0
 32 28  1  0  0  0
 27 29  1  0  0  0
 22 21  1  0  0  0
 21 15  1  0  0  0
  5  6  2  0  0  0
  5  1  1  0  0  0
  8  1  1  0  0  0
 28 30  2  0  0  0
 29 31  2  0  0  0
 16 15  1  0  0  0
 16 17  1  0  0  0
  6  3  1  0  0  0
  1  7  2  0  0  0
 20 15  1  0  0  0
 20 19  1  0  0  0
 30 31  1  0  0  0
 30 36  1  0  0  0
 14 17  1  0  0  0
 14 19  1  0  0  0
 19 13  1  0  0  0
  3  2  2  0  0  0
  3  4  1  0  0  0
  7  2  1  0  0  0
 38 36  1  0  0  0
 38 35  1  0  0  0
 36 33  1  0  0  0
  2 10  1  0  0  0
 13  4  1  0  0  0
 13 18  2  0  0  0
  4  9  2  0  0  0
 35 37  1  0  0  0
 33 34  1  0  0  0
 10  9  1  0  0  0
 37 34  1  0  0  0
  8 11  1  0  0  0
 10 12  1  0  0  0
M  END
> <minimizedAffinity>
-9.84863

$$$$
5ODX_9RZ_A_301


 38 42  0  0  0  0  0  0  0  0999 V2000
    5.0005   37.5858   26.5802 C   0  0  0  0  0  0  0  0  0  0  0  0
    6.1393   35.6271   27.3584 C   0  0  0  0  0  0  0  0  0  0  0  0
    6.6383   35.4208   26.0599 C   0  0  0  0  0  0  0  0  0  0  0  0
    7.4510   34.2180   26.1711 C   0  0  0  0  0  0  0  0  0  0  0  0
    5.4978   37.3672   25.2880 C   0  0  0  0  0  0  0  0  0  0  0  0
    6.3127   36.2916   25.0370 C   0  0  0  0  0  0  0  0  0  0  0  0
    5.3082   36.7124   27.5968 C   0  0  0  0  0  0  0  0  0  0  0  0
    4.2328   38.6527   26.7980 O   0  0  0  0  0  0  0  0  0  0  0  0
    7.4044   33.8713   27.4193 N   0  0  0  0  0  0  0  0  0  0  0  0
    6.6483   34.6186   28.1009 N   0  0  0  0  0  0  0  0  0  0  0  0
    4.0330   39.2377   26.0939 H   0  0  0  0  0  0  0  0  0  0  0  0
    6.4533   34.4833   29.0563 H   0  0  0  0  0  0  0  0  0  0  0  0
    8.2638   33.6781   25.0715 C   0  0  0  0  0  0  0  0  0  0  0  0
    8.8062   32.3681   23.0689 C   0  0  0  0  0  0  0  0  0  0  0  0
    6.6732   30.6893   23.9060 C   0  0  0  0  0  0  0  0  0  0  0  0
    7.2632   30.5975   22.5103 C   0  0  0  0  0  0  0  0  0  0  0  0
    8.7083   30.9078   22.6844 C   0  0  0  0  0  0  0  0  0  0  0  0
    9.3391   34.1775   24.9722 O   0  0  0  0  0  0  0  0  0  0  0  0
    7.8929   32.7639   24.1801 N   0  0  0  0  0  0  0  0  0  0  0  0
    6.5845   32.1557   24.2860 C   0  0  0  0  0  0  0  0  0  0  0  0
    5.3942   30.1999   23.9069 O   0  0  0  0  0  0  0  0  0  0  0  0
    5.3240   28.7961   23.7792 C   0  0  0  0  0  0  0  0  0  0  0  0
    5.1604   38.3102   24.2155 C   0  0  0  0  0  0  0  0  0  0  0  0
    3.6659   39.0992   22.4903 C   0  0  0  0  0  0  0  0  0  0  0  0
    3.9955   38.1775   23.5543 N   0  0  0  0  0  0  0  0  0  0  0  0
    5.9368   39.1868   23.9621 O   0  0  0  0  0  0  0  0  0  0  0  0
    3.0586   37.1746   23.8272 C   0  0  0  0  0  0  0  0  0  0  0  0
    2.2632   34.9572   23.4808 C   0  0  0  0  0  0  0  0  0  0  0  0
    2.0296   37.3480   24.7284 C   0  0  0  0  0  0  0  0  0  0  0  0
    1.2190   35.1367   24.3677 C   0  0  0  0  0  0  0  0  0  0  0  0
    1.1293   36.3567   25.0003 C   0  0  0  0  0  0  0  0  0  0  0  0
    3.1607   35.9548   23.2139 C   0  0  0  0  0  0  0  0  0  0  0  0
   -0.8602   33.9534   23.7747 C   0  0  0  0  0  0  0  0  0  0  0  0
   -1.9209   33.0597   24.4064 C   0  0  0  0  0  0  0  0  0  0  0  0
   -0.3830   32.0676   25.8549 C   0  0  0  0  0  0  0  0  0  0  0  0
    0.3045   34.1178   24.6528 N   0  0  0  0  0  0  0  0  0  0  0  0
   -1.3162   31.8661   24.8166 O   0  0  0  0  0  0  0  0  0  0  0  0
    0.7814   32.9038   25.3031 C   0  0  0  0  0  0  0  0  0  0  0  0
 24 25  1  0  0  0
 26 23  2  0  0  0
 25 23  1  0  0  0
 25 27  1  0  0  0
 23  5  1  0  0  0
 32 27  2  0  0  0
 32 28  1  0  0  0
 27 29  1  0  0  0
 22 21  1  0  0  0
 21 15  1  0  0  0
  5  6  2  0  0  0
  5  1  1  0  0  0
  8  1  1  0  0  0
 28 30  2  0  0  0
 29 31  2  0  0  0
 16 15  1  0  0  0
 16 17  1  0  0  0
  6  3  1  0  0  0
  1  7  2  0  0  0
 20 15  1  0  0  0
 20 19  1  0  0  0
 30 31  1  0  0  0
 30 36  1  0  0  0
 14 17  1  0  0  0
 14 19  1  0  0  0
 19 13  1  0  0  0
  3  2  2  0  0  0
  3  4  1  0  0  0
  7  2  1  0  0  0
 38 36  1  0  0  0
 38 35  1  0  0  0
 36 33  1  0  0  0
  2 10  1  0  0  0
 13  4  1  0  0  0
 13 18  2  0  0  0
  4  9  2  0  0  0
 35 37  1  0  0  0
 33 34  1  0  0  0
 10  9  1  0  0  0
 37 34  1  0  0  0
  8 11  1  0  0  0
 10 12  1  0  0  0
M  END
> <minimizedAffinity>
-9.08445

$$$$
