4AYP_SMD_A_503


 31 32  0  0  0  0  0  0  0  0999 V2000
  -29.0208  -13.0049  -11.3167 S   0  0  0  0  0  0  0  0  0  0  0  0
  -27.6888  -15.1089  -14.0575 O   0  0  0  0  0  0  0  0  0  0  0  0
  -27.8540  -13.7492  -13.6570 C   0  0  0  0  0  0  0  0  0  0  0  0
  -27.5911  -12.8898  -14.8772 C   0  0  0  0  0  0  0  0  0  0  0  0
  -28.3104  -13.4248  -15.9946 O   0  0  0  0  0  0  0  0  0  0  0  0
  -28.0016  -11.4480  -14.6032 C   0  0  0  0  0  0  0  0  0  0  0  0
  -27.2302  -10.9075  -13.5282 O   0  0  0  0  0  0  0  0  0  0  0  0
  -29.4925  -11.3578  -14.2470 C   0  0  0  0  0  0  0  0  0  0  0  0
  -30.0678  -12.6141  -13.8337 O   0  0  0  0  0  0  0  0  0  0  0  0
  -29.2618  -13.5017  -13.0545 C   0  0  0  0  0  0  0  0  0  0  0  0
  -26.8011  -15.2310  -14.4290 H   0  0  0  0  0  0  0  0  0  0  0  0
  -29.2603  -13.4234  -15.7982 H   0  0  0  0  0  0  0  0  0  0  0  0
  -27.3948  -11.4210  -12.7220 H   0  0  0  0  0  0  0  0  0  0  0  0
  -30.2863  -10.9363  -15.4826 C   0  0  0  0  0  0  0  0  0  0  0  0
  -31.6911  -10.9000  -15.2653 O   0  0  0  0  0  0  0  0  0  0  0  0
  -32.0059  -11.7885  -15.0363 H   0  0  0  0  0  0  0  0  0  0  0  0
  -30.4928  -13.6802  -10.5064 C   0  0  0  0  0  0  0  0  0  0  0  0
  -31.1347  -12.5538   -9.6962 C   0  0  0  0  0  0  0  0  0  0  0  0
  -30.3247  -12.2136   -8.5713 O   0  0  0  0  0  0  0  0  0  0  0  0
  -30.2113  -14.8658   -9.5696 C   0  0  0  0  0  0  0  0  0  0  0  0
  -29.5067  -15.8843  -10.2785 O   0  0  0  0  0  0  0  0  0  0  0  0
  -29.4241  -14.4495   -8.3316 C   0  0  0  0  0  0  0  0  0  0  0  0
  -29.3430  -15.5321   -7.4064 O   0  0  0  0  0  0  0  0  0  0  0  0
  -30.1258  -13.2860   -7.6398 C   0  0  0  0  0  0  0  0  0  0  0  0
  -28.6530  -15.5366  -10.5804 H   0  0  0  0  0  0  0  0  0  0  0  0
  -30.2366  -15.7878   -7.1289 H   0  0  0  0  0  0  0  0  0  0  0  0
  -29.3308  -12.7106   -6.4912 C   0  0  0  0  0  0  0  0  0  0  0  0
  -28.0498  -13.3446   -6.4806 O   0  0  0  0  0  0  0  0  0  0  0  0
  -28.1639  -14.3021   -6.3749 H   0  0  0  0  0  0  0  0  0  0  0  0
  -32.4214  -12.9769   -9.2879 O   0  0  0  0  0  0  0  0  0  0  0  0
  -33.3774  -11.9067   -9.2936 C   0  0  0  0  0  0  0  0  0  0  0  0
  2  3  1  0  0  0
  3  4  1  0  0  0
  3 10  1  0  0  0
  4  5  1  0  0  0
  4  6  1  0  0  0
  6  7  1  0  0  0
  6  8  1  0  0  0
  8 14  1  0  0  0
  8  9  1  0  0  0
 14 15  1  0  0  0
  9 10  1  0  0  0
 10  1  1  0  0  0
  1 17  1  0  0  0
 17 18  1  0  0  0
 17 20  1  0  0  0
 18 30  1  0  0  0
 18 19  1  0  0  0
 30 31  1  0  0  0
 19 24  1  0  0  0
 20 21  1  0  0  0
 20 22  1  0  0  0
 22 23  1  0  0  0
 22 24  1  0  0  0
 24 27  1  0  0  0
 27 28  1  0  0  0
  2 11  1  0  0  0
  5 12  1  0  0  0
  7 13  1  0  0  0
 15 16  1  0  0  0
 21 25  1  0  0  0
 23 26  1  0  0  0
 28 29  1  0  0  0
M  END
> <minimizedAffinity>
-9.01956

$$$$
4AYP_SMD_A_503


 31 32  0  0  0  0  0  0  0  0999 V2000
  -30.2268  -14.5643  -10.9814 S   0  0  0  0  0  0  0  0  0  0  0  0
  -28.5644  -11.3135  -10.3636 O   0  0  0  0  0  0  0  0  0  0  0  0
  -29.1612  -12.4215   -9.6909 C   0  0  0  0  0  0  0  0  0  0  0  0
  -29.3767  -12.0049   -8.2498 C   0  0  0  0  0  0  0  0  0  0  0  0
  -29.9826  -10.7071   -8.2198 O   0  0  0  0  0  0  0  0  0  0  0  0
  -30.2453  -13.0299   -7.5305 C   0  0  0  0  0  0  0  0  0  0  0  0
  -29.5983  -14.3041   -7.5125 O   0  0  0  0  0  0  0  0  0  0  0  0
  -31.6130  -13.1700   -8.2142 C   0  0  0  0  0  0  0  0  0  0  0  0
  -31.6398  -12.6703   -9.5669 O   0  0  0  0  0  0  0  0  0  0  0  0
  -30.4793  -12.8614  -10.3802 C   0  0  0  0  0  0  0  0  0  0  0  0
  -27.7445  -11.0631   -9.9097 H   0  0  0  0  0  0  0  0  0  0  0  0
  -30.8374  -10.7388   -8.6772 H   0  0  0  0  0  0  0  0  0  0  0  0
  -29.4672  -14.6131   -8.4225 H   0  0  0  0  0  0  0  0  0  0  0  0
  -32.6483  -12.3409   -7.4561 C   0  0  0  0  0  0  0  0  0  0  0  0
  -32.1128  -11.6681   -6.3236 O   0  0  0  0  0  0  0  0  0  0  0  0
  -31.7768  -12.3203   -5.6890 H   0  0  0  0  0  0  0  0  0  0  0  0
  -28.9253  -14.3545  -12.2231 C   0  0  0  0  0  0  0  0  0  0  0  0
  -29.5518  -13.6782  -13.4426 C   0  0  0  0  0  0  0  0  0  0  0  0
  -30.4418  -14.5691  -14.1146 O   0  0  0  0  0  0  0  0  0  0  0  0
  -28.2611  -15.6663  -12.6708 C   0  0  0  0  0  0  0  0  0  0  0  0
  -27.7704  -16.3721  -11.5318 O   0  0  0  0  0  0  0  0  0  0  0  0
  -29.2127  -16.5534  -13.4664 C   0  0  0  0  0  0  0  0  0  0  0  0
  -28.5117  -17.6673  -14.0163 O   0  0  0  0  0  0  0  0  0  0  0  0
  -29.8189  -15.7590  -14.6181 C   0  0  0  0  0  0  0  0  0  0  0  0
  -28.5114  -16.5997  -10.9486 H   0  0  0  0  0  0  0  0  0  0  0  0
  -27.8179  -17.3492  -14.6148 H   0  0  0  0  0  0  0  0  0  0  0  0
  -30.8910  -16.5181  -15.3643 C   0  0  0  0  0  0  0  0  0  0  0  0
  -31.6114  -17.3091  -14.4166 O   0  0  0  0  0  0  0  0  0  0  0  0
  -31.0010  -17.9202  -13.9750 H   0  0  0  0  0  0  0  0  0  0  0  0
  -28.5099  -13.2554  -14.3011 O   0  0  0  0  0  0  0  0  0  0  0  0
  -27.9448  -11.9991  -13.8992 C   0  0  0  0  0  0  0  0  0  0  0  0
  2  3  1  0  0  0
  3  4  1  0  0  0
  3 10  1  0  0  0
  4  5  1  0  0  0
  4  6  1  0  0  0
  6  7  1  0  0  0
  6  8  1  0  0  0
  8 14  1  0  0  0
  8  9  1  0  0  0
 14 15  1  0  0  0
  9 10  1  0  0  0
 10  1  1  0  0  0
  1 17  1  0  0  0
 17 18  1  0  0  0
 17 20  1  0  0  0
 18 30  1  0  0  0
 18 19  1  0  0  0
 30 31  1  0  0  0
 19 24  1  0  0  0
 20 21  1  0  0  0
 20 22  1  0  0  0
 22 23  1  0  0  0
 22 24  1  0  0  0
 24 27  1  0  0  0
 27 28  1  0  0  0
  2 11  1  0  0  0
  5 12  1  0  0  0
  7 13  1  0  0  0
 15 16  1  0  0  0
 21 25  1  0  0  0
 23 26  1  0  0  0
 28 29  1  0  0  0
M  END
> <minimizedAffinity>
-8.35741

$$$$
4AYP_SMD_A_503


 31 32  0  0  0  0  0  0  0  0999 V2000
  -29.5223  -11.3194  -10.5116 S   0  0  0  0  0  0  0  0  0  0  0  0
  -26.8128  -10.1526  -12.7500 O   0  0  0  0  0  0  0  0  0  0  0  0
  -28.1207  -10.7231  -12.7638 C   0  0  0  0  0  0  0  0  0  0  0  0
  -28.3780  -11.2146  -14.1742 C   0  0  0  0  0  0  0  0  0  0  0  0
  -27.2413  -11.9584  -14.6289 O   0  0  0  0  0  0  0  0  0  0  0  0
  -29.6397  -12.0684  -14.2115 C   0  0  0  0  0  0  0  0  0  0  0  0
  -30.7750  -11.2948  -13.8171 O   0  0  0  0  0  0  0  0  0  0  0  0
  -29.5111  -13.2828  -13.2807 C   0  0  0  0  0  0  0  0  0  0  0  0
  -28.4747  -13.1456  -12.2871 O   0  0  0  0  0  0  0  0  0  0  0  0
  -28.2580  -11.8545  -11.7117 C   0  0  0  0  0  0  0  0  0  0  0  0
  -26.7593   -9.4504  -13.4170 H   0  0  0  0  0  0  0  0  0  0  0  0
  -27.0974  -12.7187  -14.0441 H   0  0  0  0  0  0  0  0  0  0  0  0
  -30.6539  -10.9842  -12.9062 H   0  0  0  0  0  0  0  0  0  0  0  0
  -29.1256  -14.5134  -14.1000 C   0  0  0  0  0  0  0  0  0  0  0  0
  -27.7208  -14.7159  -14.1870 O   0  0  0  0  0  0  0  0  0  0  0  0
  -27.3121  -13.9587  -14.6347 H   0  0  0  0  0  0  0  0  0  0  0  0
  -29.5119  -12.6667   -9.3015 C   0  0  0  0  0  0  0  0  0  0  0  0
  -30.5946  -13.6657   -9.7098 C   0  0  0  0  0  0  0  0  0  0  0  0
  -31.8954  -13.1144   -9.5068 O   0  0  0  0  0  0  0  0  0  0  0  0
  -29.7714  -12.2189   -7.8543 C   0  0  0  0  0  0  0  0  0  0  0  0
  -28.8417  -11.1993   -7.4905 O   0  0  0  0  0  0  0  0  0  0  0  0
  -31.1989  -11.7226   -7.6504 C   0  0  0  0  0  0  0  0  0  0  0  0
  -31.4522  -11.4915   -6.2658 O   0  0  0  0  0  0  0  0  0  0  0  0
  -32.1871  -12.7735   -8.1444 C   0  0  0  0  0  0  0  0  0  0  0  0
  -28.9661  -10.4281   -8.0656 H   0  0  0  0  0  0  0  0  0  0  0  0
  -31.3437  -12.3208   -5.7745 H   0  0  0  0  0  0  0  0  0  0  0  0
  -33.6210  -12.2981   -8.1218 C   0  0  0  0  0  0  0  0  0  0  0  0
  -34.1576  -12.5780   -6.8269 O   0  0  0  0  0  0  0  0  0  0  0  0
  -34.1083  -13.5315   -6.6557 H   0  0  0  0  0  0  0  0  0  0  0  0
  -30.4182  -14.8473   -8.9521 O   0  0  0  0  0  0  0  0  0  0  0  0
  -29.1832  -15.5126   -9.2542 C   0  0  0  0  0  0  0  0  0  0  0  0
  2  3  1  0  0  0
  3  4  1  0  0  0
  3 10  1  0  0  0
  4  5  1  0  0  0
  4  6  1  0  0  0
  6  7  1  0  0  0
  6  8  1  0  0  0
  8 14  1  0  0  0
  8  9  1  0  0  0
 14 15  1  0  0  0
  9 10  1  0  0  0
 10  1  1  0  0  0
  1 17  1  0  0  0
 17 18  1  0  0  0
 17 20  1  0  0  0
 18 30  1  0  0  0
 18 19  1  0  0  0
 30 31  1  0  0  0
 19 24  1  0  0  0
 20 21  1  0  0  0
 20 22  1  0  0  0
 22 23  1  0  0  0
 22 24  1  0  0  0
 24 27  1  0  0  0
 27 28  1  0  0  0
  2 11  1  0  0  0
  5 12  1  0  0  0
  7 13  1  0  0  0
 15 16  1  0  0  0
 21 25  1  0  0  0
 23 26  1  0  0  0
 28 29  1  0  0  0
M  END
> <minimizedAffinity>
-8.13703

$$$$
4AYP_SMD_A_503


 31 32  0  0  0  0  0  0  0  0999 V2000
  -30.1797  -14.4936  -11.0289 S   0  0  0  0  0  0  0  0  0  0  0  0
  -29.3048  -14.5907   -7.4319 O   0  0  0  0  0  0  0  0  0  0  0  0
  -30.2415  -14.0294   -8.3506 C   0  0  0  0  0  0  0  0  0  0  0  0
  -30.9824  -12.9301   -7.6163 C   0  0  0  0  0  0  0  0  0  0  0  0
  -30.0372  -12.1043   -6.9259 O   0  0  0  0  0  0  0  0  0  0  0  0
  -31.8113  -12.1091   -8.5967 C   0  0  0  0  0  0  0  0  0  0  0  0
  -32.7923  -12.9333   -9.2299 O   0  0  0  0  0  0  0  0  0  0  0  0
  -30.9203  -11.4713   -9.6724 C   0  0  0  0  0  0  0  0  0  0  0  0
  -29.6251  -12.0935   -9.7973 O   0  0  0  0  0  0  0  0  0  0  0  0
  -29.5388  -13.5113   -9.6327 C   0  0  0  0  0  0  0  0  0  0  0  0
  -29.7740  -14.9046   -6.6431 H   0  0  0  0  0  0  0  0  0  0  0  0
  -29.4255  -11.7083   -7.5662 H   0  0  0  0  0  0  0  0  0  0  0  0
  -32.3494  -13.6356   -9.7316 H   0  0  0  0  0  0  0  0  0  0  0  0
  -30.6362  -10.0168   -9.3012 C   0  0  0  0  0  0  0  0  0  0  0  0
  -29.5608   -9.8686   -8.3828 O   0  0  0  0  0  0  0  0  0  0  0  0
  -29.7810  -10.3178   -7.5518 H   0  0  0  0  0  0  0  0  0  0  0  0
  -28.8654  -14.3270  -12.2636 C   0  0  0  0  0  0  0  0  0  0  0  0
  -29.4714  -13.6622  -13.4997 C   0  0  0  0  0  0  0  0  0  0  0  0
  -30.3706  -14.5502  -14.1631 O   0  0  0  0  0  0  0  0  0  0  0  0
  -28.2194  -15.6570  -12.6831 C   0  0  0  0  0  0  0  0  0  0  0  0
  -27.7491  -16.3505  -11.5279 O   0  0  0  0  0  0  0  0  0  0  0  0
  -29.1793  -16.5424  -13.4705 C   0  0  0  0  0  0  0  0  0  0  0  0
  -28.4924  -17.6771  -13.9952 O   0  0  0  0  0  0  0  0  0  0  0  0
  -29.7635  -15.7588  -14.6408 C   0  0  0  0  0  0  0  0  0  0  0  0
  -28.4981  -16.5557  -10.9468 H   0  0  0  0  0  0  0  0  0  0  0  0
  -27.7889  -17.3810  -14.5937 H   0  0  0  0  0  0  0  0  0  0  0  0
  -30.8422  -16.5133  -15.3821 C   0  0  0  0  0  0  0  0  0  0  0  0
  -31.5618  -17.3010  -14.4309 O   0  0  0  0  0  0  0  0  0  0  0  0
  -30.9522  -17.9146  -13.9919 H   0  0  0  0  0  0  0  0  0  0  0  0
  -28.4161  -13.2716  -14.3572 O   0  0  0  0  0  0  0  0  0  0  0  0
  -28.3167  -11.8461  -14.4891 C   0  0  0  0  0  0  0  0  0  0  0  0
  2  3  1  0  0  0
  3  4  1  0  0  0
  3 10  1  0  0  0
  4  5  1  0  0  0
  4  6  1  0  0  0
  6  7  1  0  0  0
  6  8  1  0  0  0
  8 14  1  0  0  0
  8  9  1  0  0  0
 14 15  1  0  0  0
  9 10  1  0  0  0
 10  1  1  0  0  0
  1 17  1  0  0  0
 17 18  1  0  0  0
 17 20  1  0  0  0
 18 30  1  0  0  0
 18 19  1  0  0  0
 30 31  1  0  0  0
 19 24  1  0  0  0
 20 21  1  0  0  0
 20 22  1  0  0  0
 22 23  1  0  0  0
 22 24  1  0  0  0
 24 27  1  0  0  0
 27 28  1  0  0  0
  2 11  1  0  0  0
  5 12  1  0  0  0
  7 13  1  0  0  0
 15 16  1  0  0  0
 21 25  1  0  0  0
 23 26  1  0  0  0
 28 29  1  0  0  0
M  END
> <minimizedAffinity>
-7.94948

$$$$
4AYP_SMD_A_503


 31 32  0  0  0  0  0  0  0  0999 V2000
  -29.8143  -14.0548  -11.9098 S   0  0  0  0  0  0  0  0  0  0  0  0
  -29.7475  -16.4325   -9.0716 O   0  0  0  0  0  0  0  0  0  0  0  0
  -30.3334  -15.2042   -9.5011 C   0  0  0  0  0  0  0  0  0  0  0  0
  -30.9636  -14.5606   -8.2824 C   0  0  0  0  0  0  0  0  0  0  0  0
  -30.0310  -14.5955   -7.1955 O   0  0  0  0  0  0  0  0  0  0  0  0
  -31.3792  -13.1291   -8.5995 C   0  0  0  0  0  0  0  0  0  0  0  0
  -32.3575  -13.1151   -9.6414 O   0  0  0  0  0  0  0  0  0  0  0  0
  -30.1704  -12.2876   -9.0335 C   0  0  0  0  0  0  0  0  0  0  0  0
  -29.0375  -13.0736   -9.4565 O   0  0  0  0  0  0  0  0  0  0  0  0
  -29.2866  -14.2821  -10.1793 C   0  0  0  0  0  0  0  0  0  0  0  0
  -30.4257  -16.9853   -8.6530 H   0  0  0  0  0  0  0  0  0  0  0  0
  -29.2304  -14.1058   -7.4407 H   0  0  0  0  0  0  0  0  0  0  0  0
  -31.9773  -13.4988  -10.4471 H   0  0  0  0  0  0  0  0  0  0  0  0
  -29.6713  -11.4643   -7.8473 C   0  0  0  0  0  0  0  0  0  0  0  0
  -29.5229  -10.0813   -8.1430 O   0  0  0  0  0  0  0  0  0  0  0  0
  -28.8605   -9.9695   -8.8428 H   0  0  0  0  0  0  0  0  0  0  0  0
  -28.3089  -13.4341  -12.7022 C   0  0  0  0  0  0  0  0  0  0  0  0
  -28.3515  -11.9069  -12.6477 C   0  0  0  0  0  0  0  0  0  0  0  0
  -29.3599  -11.3967  -13.5195 O   0  0  0  0  0  0  0  0  0  0  0  0
  -28.1372  -13.8729  -14.1652 C   0  0  0  0  0  0  0  0  0  0  0  0
  -28.2113  -15.2952  -14.2542 O   0  0  0  0  0  0  0  0  0  0  0  0
  -29.1739  -13.2362  -15.0847 C   0  0  0  0  0  0  0  0  0  0  0  0
  -28.8703  -13.5209  -16.4490 O   0  0  0  0  0  0  0  0  0  0  0  0
  -29.1658  -11.7223  -14.9029 C   0  0  0  0  0  0  0  0  0  0  0  0
  -29.0853  -15.5927  -13.9567 H   0  0  0  0  0  0  0  0  0  0  0  0
  -27.9997  -13.1545  -16.6698 H   0  0  0  0  0  0  0  0  0  0  0  0
  -30.2703  -11.0265  -15.6634 C   0  0  0  0  0  0  0  0  0  0  0  0
  -31.4864  -11.2020  -14.9332 O   0  0  0  0  0  0  0  0  0  0  0  0
  -31.6749  -12.1492  -14.8421 H   0  0  0  0  0  0  0  0  0  0  0  0
  -27.0741  -11.4132  -13.0026 O   0  0  0  0  0  0  0  0  0  0  0  0
  -27.0301   -9.9792  -13.0332 C   0  0  0  0  0  0  0  0  0  0  0  0
  2  3  1  0  0  0
  3  4  1  0  0  0
  3 10  1  0  0  0
  4  5  1  0  0  0
  4  6  1  0  0  0
  6  7  1  0  0  0
  6  8  1  0  0  0
  8 14  1  0  0  0
  8  9  1  0  0  0
 14 15  1  0  0  0
  9 10  1  0  0  0
 10  1  1  0  0  0
  1 17  1  0  0  0
 17 18  1  0  0  0
 17 20  1  0  0  0
 18 30  1  0  0  0
 18 19  1  0  0  0
 30 31  1  0  0  0
 19 24  1  0  0  0
 20 21  1  0  0  0
 20 22  1  0  0  0
 22 23  1  0  0  0
 22 24  1  0  0  0
 24 27  1  0  0  0
 27 28  1  0  0  0
  2 11  1  0  0  0
  5 12  1  0  0  0
  7 13  1  0  0  0
 15 16  1  0  0  0
 21 25  1  0  0  0
 23 26  1  0  0  0
 28 29  1  0  0  0
M  END
> <minimizedAffinity>
-7.72348

$$$$
4AYP_SMD_A_503


 31 32  0  0  0  0  0  0  0  0999 V2000
  -29.3587  -11.7935  -10.5030 S   0  0  0  0  0  0  0  0  0  0  0  0
  -28.2492  -14.7904  -12.3739 O   0  0  0  0  0  0  0  0  0  0  0  0
  -28.2538  -13.3644  -12.4275 C   0  0  0  0  0  0  0  0  0  0  0  0
  -27.8683  -12.9699  -13.8391 C   0  0  0  0  0  0  0  0  0  0  0  0
  -28.6294  -13.7480  -14.7705 O   0  0  0  0  0  0  0  0  0  0  0  0
  -28.1044  -11.4794  -14.0515 C   0  0  0  0  0  0  0  0  0  0  0  0
  -27.2902  -10.7154  -13.1592 O   0  0  0  0  0  0  0  0  0  0  0  0
  -29.5787  -11.1168  -13.8221 C   0  0  0  0  0  0  0  0  0  0  0  0
  -30.3095  -12.1060  -13.0687 O   0  0  0  0  0  0  0  0  0  0  0  0
  -29.6304  -12.7848  -12.0091 C   0  0  0  0  0  0  0  0  0  0  0  0
  -27.3771  -15.1212  -12.6404 H   0  0  0  0  0  0  0  0  0  0  0  0
  -29.5751  -13.5794  -14.6358 H   0  0  0  0  0  0  0  0  0  0  0  0
  -27.5293  -10.9258  -12.2430 H   0  0  0  0  0  0  0  0  0  0  0  0
  -30.2951  -11.0229  -15.1683 C   0  0  0  0  0  0  0  0  0  0  0  0
  -29.6068  -11.6860  -16.2211 O   0  0  0  0  0  0  0  0  0  0  0  0
  -28.7392  -11.2721  -16.3513 H   0  0  0  0  0  0  0  0  0  0  0  0
  -29.4533  -13.0375   -9.1904 C   0  0  0  0  0  0  0  0  0  0  0  0
  -30.5903  -13.9973   -9.5415 C   0  0  0  0  0  0  0  0  0  0  0  0
  -31.8567  -13.3521   -9.4104 O   0  0  0  0  0  0  0  0  0  0  0  0
  -29.7076  -12.4601   -7.7888 C   0  0  0  0  0  0  0  0  0  0  0  0
  -28.7212  -11.4740   -7.4870 O   0  0  0  0  0  0  0  0  0  0  0  0
  -31.1039  -11.8618   -7.6552 C   0  0  0  0  0  0  0  0  0  0  0  0
  -31.3646  -11.5053   -6.2990 O   0  0  0  0  0  0  0  0  0  0  0  0
  -32.1485  -12.8857   -8.0857 C   0  0  0  0  0  0  0  0  0  0  0  0
  -28.7872  -10.7452   -8.1237 H   0  0  0  0  0  0  0  0  0  0  0  0
  -31.3169  -12.2977   -5.7415 H   0  0  0  0  0  0  0  0  0  0  0  0
  -33.5496  -12.3224   -8.1313 C   0  0  0  0  0  0  0  0  0  0  0  0
  -34.1134  -12.4373   -6.8229 O   0  0  0  0  0  0  0  0  0  0  0  0
  -34.1259  -13.3701   -6.5570 H   0  0  0  0  0  0  0  0  0  0  0  0
  -30.5015  -15.1230   -8.6893 O   0  0  0  0  0  0  0  0  0  0  0  0
  -29.2705  -15.8412   -8.8569 C   0  0  0  0  0  0  0  0  0  0  0  0
  2  3  1  0  0  0
  3  4  1  0  0  0
  3 10  1  0  0  0
  4  5  1  0  0  0
  4  6  1  0  0  0
  6  7  1  0  0  0
  6  8  1  0  0  0
  8 14  1  0  0  0
  8  9  1  0  0  0
 14 15  1  0  0  0
  9 10  1  0  0  0
 10  1  1  0  0  0
  1 17  1  0  0  0
 17 18  1  0  0  0
 17 20  1  0  0  0
 18 30  1  0  0  0
 18 19  1  0  0  0
 30 31  1  0  0  0
 19 24  1  0  0  0
 20 21  1  0  0  0
 20 22  1  0  0  0
 22 23  1  0  0  0
 22 24  1  0  0  0
 24 27  1  0  0  0
 27 28  1  0  0  0
  2 11  1  0  0  0
  5 12  1  0  0  0
  7 13  1  0  0  0
 15 16  1  0  0  0
 21 25  1  0  0  0
 23 26  1  0  0  0
 28 29  1  0  0  0
M  END
> <minimizedAffinity>
-7.64510

$$$$
4AYP_SMD_A_503


 31 32  0  0  0  0  0  0  0  0999 V2000
  -30.7703  -12.1478  -11.0788 S   0  0  0  0  0  0  0  0  0  0  0  0
  -28.2451   -9.4543  -11.3644 O   0  0  0  0  0  0  0  0  0  0  0  0
  -29.0132  -10.3685  -12.1460 C   0  0  0  0  0  0  0  0  0  0  0  0
  -28.4156  -10.3760  -13.5387 C   0  0  0  0  0  0  0  0  0  0  0  0
  -26.9920  -10.5011  -13.4402 O   0  0  0  0  0  0  0  0  0  0  0  0
  -29.0085  -11.5153  -14.3590 C   0  0  0  0  0  0  0  0  0  0  0  0
  -30.4198  -11.3419  -14.5029 O   0  0  0  0  0  0  0  0  0  0  0  0
  -28.7338  -12.8727  -13.6960 C   0  0  0  0  0  0  0  0  0  0  0  0
  -28.3834  -12.7769  -12.3002 O   0  0  0  0  0  0  0  0  0  0  0  0
  -29.0362  -11.7818  -11.5073 C   0  0  0  0  0  0  0  0  0  0  0  0
  -28.2502   -8.5823  -11.7891 H   0  0  0  0  0  0  0  0  0  0  0  0
  -26.7707  -11.3315  -12.9903 H   0  0  0  0  0  0  0  0  0  0  0  0
  -30.8384  -11.3575  -13.6279 H   0  0  0  0  0  0  0  0  0  0  0  0
  -27.5329  -13.5345  -14.3699 C   0  0  0  0  0  0  0  0  0  0  0  0
  -27.0269  -12.7947  -15.4738 O   0  0  0  0  0  0  0  0  0  0  0  0
  -27.7115  -12.7251  -16.1575 H   0  0  0  0  0  0  0  0  0  0  0  0
  -30.8434  -11.7083   -9.3235 C   0  0  0  0  0  0  0  0  0  0  0  0
  -29.4229  -11.7914   -8.7647 C   0  0  0  0  0  0  0  0  0  0  0  0
  -28.9833  -13.1477   -8.6976 O   0  0  0  0  0  0  0  0  0  0  0  0
  -31.7600  -12.6115   -8.4830 C   0  0  0  0  0  0  0  0  0  0  0  0
  -33.0664  -12.6405   -9.0565 O   0  0  0  0  0  0  0  0  0  0  0  0
  -31.2133  -14.0292   -8.3541 C   0  0  0  0  0  0  0  0  0  0  0  0
  -31.9910  -14.7794   -7.4230 O   0  0  0  0  0  0  0  0  0  0  0  0
  -29.7767  -13.9851   -7.8451 C   0  0  0  0  0  0  0  0  0  0  0  0
  -33.0192  -13.0160   -9.9496 H   0  0  0  0  0  0  0  0  0  0  0  0
  -31.9498  -14.3554   -6.5516 H   0  0  0  0  0  0  0  0  0  0  0  0
  -29.1075  -15.3395   -7.8359 C   0  0  0  0  0  0  0  0  0  0  0  0
  -29.7917  -16.1753   -8.7720 O   0  0  0  0  0  0  0  0  0  0  0  0
  -30.7245  -16.2505   -8.5168 H   0  0  0  0  0  0  0  0  0  0  0  0
  -29.4124  -11.1887   -7.4848 O   0  0  0  0  0  0  0  0  0  0  0  0
  -29.9394   -9.8541   -7.5034 C   0  0  0  0  0  0  0  0  0  0  0  0
  2  3  1  0  0  0
  3  4  1  0  0  0
  3 10  1  0  0  0
  4  5  1  0  0  0
  4  6  1  0  0  0
  6  7  1  0  0  0
  6  8  1  0  0  0
  8 14  1  0  0  0
  8  9  1  0  0  0
 14 15  1  0  0  0
  9 10  1  0  0  0
 10  1  1  0  0  0
  1 17  1  0  0  0
 17 18  1  0  0  0
 17 20  1  0  0  0
 18 30  1  0  0  0
 18 19  1  0  0  0
 30 31  1  0  0  0
 19 24  1  0  0  0
 20 21  1  0  0  0
 20 22  1  0  0  0
 22 23  1  0  0  0
 22 24  1  0  0  0
 24 27  1  0  0  0
 27 28  1  0  0  0
  2 11  1  0  0  0
  5 12  1  0  0  0
  7 13  1  0  0  0
 15 16  1  0  0  0
 21 25  1  0  0  0
 23 26  1  0  0  0
 28 29  1  0  0  0
M  END
> <minimizedAffinity>
-7.64190

$$$$
4AYP_SMD_A_503


 31 32  0  0  0  0  0  0  0  0999 V2000
  -30.7484  -13.3814  -11.0016 S   0  0  0  0  0  0  0  0  0  0  0  0
  -28.3192  -16.1435  -11.4296 O   0  0  0  0  0  0  0  0  0  0  0  0
  -28.5329  -14.7691  -11.7487 C   0  0  0  0  0  0  0  0  0  0  0  0
  -27.5170  -14.3943  -12.8090 C   0  0  0  0  0  0  0  0  0  0  0  0
  -27.5093  -15.3987  -13.8305 O   0  0  0  0  0  0  0  0  0  0  0  0
  -27.8461  -13.0252  -13.3919 C   0  0  0  0  0  0  0  0  0  0  0  0
  -27.7866  -12.0243  -12.3734 O   0  0  0  0  0  0  0  0  0  0  0  0
  -29.2456  -13.0171  -14.0234 C   0  0  0  0  0  0  0  0  0  0  0  0
  -30.0900  -14.0982  -13.5779 O   0  0  0  0  0  0  0  0  0  0  0  0
  -29.9906  -14.5138  -12.2133 C   0  0  0  0  0  0  0  0  0  0  0  0
  -27.4011  -16.2700  -11.1434 H   0  0  0  0  0  0  0  0  0  0  0  0
  -28.3895  -15.4563  -14.2338 H   0  0  0  0  0  0  0  0  0  0  0  0
  -28.4444  -12.2207  -11.6881 H   0  0  0  0  0  0  0  0  0  0  0  0
  -29.1226  -13.1968  -15.5357 C   0  0  0  0  0  0  0  0  0  0  0  0
  -27.7766  -13.2167  -15.9938 O   0  0  0  0  0  0  0  0  0  0  0  0
  -27.3533  -12.3679  -15.7907 H   0  0  0  0  0  0  0  0  0  0  0  0
  -29.7939  -13.7159   -9.4994 C   0  0  0  0  0  0  0  0  0  0  0  0
  -30.7193  -14.4231   -8.5092 C   0  0  0  0  0  0  0  0  0  0  0  0
  -31.7148  -13.5265   -8.0169 O   0  0  0  0  0  0  0  0  0  0  0  0
  -29.2138  -12.4618   -8.8263 C   0  0  0  0  0  0  0  0  0  0  0  0
  -28.4386  -11.7228   -9.7694 O   0  0  0  0  0  0  0  0  0  0  0  0
  -30.2991  -11.5723   -8.2294 C   0  0  0  0  0  0  0  0  0  0  0  0
  -29.7147  -10.5225   -7.4606 O   0  0  0  0  0  0  0  0  0  0  0  0
  -31.1924  -12.3948   -7.3072 C   0  0  0  0  0  0  0  0  0  0  0  0
  -29.0083  -11.4308  -10.4981 H   0  0  0  0  0  0  0  0  0  0  0  0
  -29.1975  -10.9033   -6.7338 H   0  0  0  0  0  0  0  0  0  0  0  0
  -32.3869  -11.6248   -6.7947 C   0  0  0  0  0  0  0  0  0  0  0  0
  -32.0270  -11.0347   -5.5436 O   0  0  0  0  0  0  0  0  0  0  0  0
  -31.7728  -11.7316   -4.9187 H   0  0  0  0  0  0  0  0  0  0  0  0
  -29.9309  -14.9383   -7.4535 O   0  0  0  0  0  0  0  0  0  0  0  0
  -28.7883  -15.6655   -7.9276 C   0  0  0  0  0  0  0  0  0  0  0  0
  2  3  1  0  0  0
  3  4  1  0  0  0
  3 10  1  0  0  0
  4  5  1  0  0  0
  4  6  1  0  0  0
  6  7  1  0  0  0
  6  8  1  0  0  0
  8 14  1  0  0  0
  8  9  1  0  0  0
 14 15  1  0  0  0
  9 10  1  0  0  0
 10  1  1  0  0  0
  1 17  1  0  0  0
 17 18  1  0  0  0
 17 20  1  0  0  0
 18 30  1  0  0  0
 18 19  1  0  0  0
 30 31  1  0  0  0
 19 24  1  0  0  0
 20 21  1  0  0  0
 20 22  1  0  0  0
 22 23  1  0  0  0
 22 24  1  0  0  0
 24 27  1  0  0  0
 27 28  1  0  0  0
  2 11  1  0  0  0
  5 12  1  0  0  0
  7 13  1  0  0  0
 15 16  1  0  0  0
 21 25  1  0  0  0
 23 26  1  0  0  0
 28 29  1  0  0  0
M  END
> <minimizedAffinity>
-7.46507

$$$$
4AYP_SMD_A_503


 31 32  0  0  0  0  0  0  0  0999 V2000
  -29.8822  -11.2412  -10.1314 S   0  0  0  0  0  0  0  0  0  0  0  0
  -28.7619  -14.5274  -11.4193 O   0  0  0  0  0  0  0  0  0  0  0  0
  -28.6071  -13.1235  -11.6226 C   0  0  0  0  0  0  0  0  0  0  0  0
  -27.9251  -12.9395  -12.9634 C   0  0  0  0  0  0  0  0  0  0  0  0
  -28.5755  -13.7614  -13.9399 O   0  0  0  0  0  0  0  0  0  0  0  0
  -27.9599  -11.4723  -13.3741 C   0  0  0  0  0  0  0  0  0  0  0  0
  -27.2518  -10.6735  -12.4237 O   0  0  0  0  0  0  0  0  0  0  0  0
  -29.4049  -10.9640  -13.4807 C   0  0  0  0  0  0  0  0  0  0  0  0
  -30.3633  -11.7891  -12.7872 O   0  0  0  0  0  0  0  0  0  0  0  0
  -29.9693  -12.3853  -11.5486 C   0  0  0  0  0  0  0  0  0  0  0  0
  -27.8948  -14.9592  -11.4715 H   0  0  0  0  0  0  0  0  0  0  0  0
  -29.5068  -13.5003  -14.0137 H   0  0  0  0  0  0  0  0  0  0  0  0
  -27.6788  -10.7487  -11.5561 H   0  0  0  0  0  0  0  0  0  0  0  0
  -29.8428  -10.9786  -14.9444 C   0  0  0  0  0  0  0  0  0  0  0  0
  -31.2500  -10.8638  -15.1134 O   0  0  0  0  0  0  0  0  0  0  0  0
  -31.6887  -11.6216  -14.6962 H   0  0  0  0  0  0  0  0  0  0  0  0
  -30.8386  -12.1114   -8.8634 C   0  0  0  0  0  0  0  0  0  0  0  0
  -31.6780  -11.0721   -8.1203 C   0  0  0  0  0  0  0  0  0  0  0  0
  -30.8491  -10.2298   -7.3198 O   0  0  0  0  0  0  0  0  0  0  0  0
  -29.9839  -12.8796   -7.8427 C   0  0  0  0  0  0  0  0  0  0  0  0
  -29.1069  -13.7753   -8.5245 O   0  0  0  0  0  0  0  0  0  0  0  0
  -29.1821  -11.9463   -6.9419 C   0  0  0  0  0  0  0  0  0  0  0  0
  -28.5499  -12.6844   -5.8978 O   0  0  0  0  0  0  0  0  0  0  0  0
  -30.1115  -10.9208   -6.3020 C   0  0  0  0  0  0  0  0  0  0  0  0
  -28.5054  -13.2690   -9.0926 H   0  0  0  0  0  0  0  0  0  0  0  0
  -29.2252  -13.1246   -5.3583 H   0  0  0  0  0  0  0  0  0  0  0  0
  -29.3759   -9.8612   -5.5153 C   0  0  0  0  0  0  0  0  0  0  0  0
  -28.1153   -9.6368   -6.1504 O   0  0  0  0  0  0  0  0  0  0  0  0
  -27.6103  -10.4648   -6.1684 H   0  0  0  0  0  0  0  0  0  0  0  0
  -32.6293  -11.7541   -7.3258 O   0  0  0  0  0  0  0  0  0  0  0  0
  -33.9512  -11.2148   -7.4704 C   0  0  0  0  0  0  0  0  0  0  0  0
  2  3  1  0  0  0
  3  4  1  0  0  0
  3 10  1  0  0  0
  4  5  1  0  0  0
  4  6  1  0  0  0
  6  7  1  0  0  0
  6  8  1  0  0  0
  8 14  1  0  0  0
  8  9  1  0  0  0
 14 15  1  0  0  0
  9 10  1  0  0  0
 10  1  1  0  0  0
  1 17  1  0  0  0
 17 18  1  0  0  0
 17 20  1  0  0  0
 18 30  1  0  0  0
 18 19  1  0  0  0
 30 31  1  0  0  0
 19 24  1  0  0  0
 20 21  1  0  0  0
 20 22  1  0  0  0
 22 23  1  0  0  0
 22 24  1  0  0  0
 24 27  1  0  0  0
 27 28  1  0  0  0
  2 11  1  0  0  0
  5 12  1  0  0  0
  7 13  1  0  0  0
 15 16  1  0  0  0
 21 25  1  0  0  0
 23 26  1  0  0  0
 28 29  1  0  0  0
M  END
> <minimizedAffinity>
-7.34688

$$$$
4AYP_SMD_A_503


 31 32  0  0  0  0  0  0  0  0999 V2000
  -29.8214  -10.1300  -11.0099 S   0  0  0  0  0  0  0  0  0  0  0  0
  -26.6771  -10.0056  -12.9620 O   0  0  0  0  0  0  0  0  0  0  0  0
  -28.0562  -10.3572  -13.0653 C   0  0  0  0  0  0  0  0  0  0  0  0
  -28.2187  -11.1541  -14.3441 C   0  0  0  0  0  0  0  0  0  0  0  0
  -27.1935  -12.1524  -14.4110 O   0  0  0  0  0  0  0  0  0  0  0  0
  -29.6032  -11.7889  -14.3957 C   0  0  0  0  0  0  0  0  0  0  0  0
  -30.6136  -10.7780  -14.3935 O   0  0  0  0  0  0  0  0  0  0  0  0
  -29.8254  -12.7245  -13.1987 C   0  0  0  0  0  0  0  0  0  0  0  0
  -28.9175  -12.4908  -12.1027 O   0  0  0  0  0  0  0  0  0  0  0  0
  -28.5374  -11.1422  -11.8170 C   0  0  0  0  0  0  0  0  0  0  0  0
  -26.4075   -9.5172  -13.7555 H   0  0  0  0  0  0  0  0  0  0  0  0
  -27.2712  -12.7472  -13.6487 H   0  0  0  0  0  0  0  0  0  0  0  0
  -30.5539  -10.2631  -13.5736 H   0  0  0  0  0  0  0  0  0  0  0  0
  -29.5766  -14.1692  -13.6290 C   0  0  0  0  0  0  0  0  0  0  0  0
  -29.4851  -14.3302  -15.0388 O   0  0  0  0  0  0  0  0  0  0  0  0
  -30.3248  -14.0705  -15.4491 H   0  0  0  0  0  0  0  0  0  0  0  0
  -30.7677  -11.3626  -10.0800 C   0  0  0  0  0  0  0  0  0  0  0  0
  -32.1912  -10.8293   -9.9176 C   0  0  0  0  0  0  0  0  0  0  0  0
  -32.2172   -9.7189   -9.0212 O   0  0  0  0  0  0  0  0  0  0  0  0
  -30.1964  -11.6811   -8.6891 C   0  0  0  0  0  0  0  0  0  0  0  0
  -28.8287  -12.0705   -8.8068 O   0  0  0  0  0  0  0  0  0  0  0  0
  -30.3247  -10.5036   -7.7285 C   0  0  0  0  0  0  0  0  0  0  0  0
  -29.9546  -10.8962   -6.4082 O   0  0  0  0  0  0  0  0  0  0  0  0
  -31.7707  -10.0213   -7.6920 C   0  0  0  0  0  0  0  0  0  0  0  0
  -28.3141  -11.3362   -9.1769 H   0  0  0  0  0  0  0  0  0  0  0  0
  -30.5437  -11.6043   -6.1042 H   0  0  0  0  0  0  0  0  0  0  0  0
  -31.9561   -8.7590   -6.8829 C   0  0  0  0  0  0  0  0  0  0  0  0
  -32.1015   -9.1326   -5.5109 O   0  0  0  0  0  0  0  0  0  0  0  0
  -32.8685   -9.7187   -5.4150 H   0  0  0  0  0  0  0  0  0  0  0  0
  -33.0100  -11.8828   -9.4474 O   0  0  0  0  0  0  0  0  0  0  0  0
  -34.4035  -11.6458   -9.6949 C   0  0  0  0  0  0  0  0  0  0  0  0
  2  3  1  0  0  0
  3  4  1  0  0  0
  3 10  1  0  0  0
  4  5  1  0  0  0
  4  6  1  0  0  0
  6  7  1  0  0  0
  6  8  1  0  0  0
  8 14  1  0  0  0
  8  9  1  0  0  0
 14 15  1  0  0  0
  9 10  1  0  0  0
 10  1  1  0  0  0
  1 17  1  0  0  0
 17 18  1  0  0  0
 17 20  1  0  0  0
 18 30  1  0  0  0
 18 19  1  0  0  0
 30 31  1  0  0  0
 19 24  1  0  0  0
 20 21  1  0  0  0
 20 22  1  0  0  0
 22 23  1  0  0  0
 22 24  1  0  0  0
 24 27  1  0  0  0
 27 28  1  0  0  0
  2 11  1  0  0  0
  5 12  1  0  0  0
  7 13  1  0  0  0
 15 16  1  0  0  0
 21 25  1  0  0  0
 23 26  1  0  0  0
 28 29  1  0  0  0
M  END
> <minimizedAffinity>
-7.31050

$$$$
