4QGD_PZZ_A_201


 19 20  0  0  0  0  0  0  0  0999 V2000
  -20.0601    4.3300    6.6230 C   0  0  0  0  0  0  0  0  0  0  0  0
  -20.9785    4.6128    5.5560 C   0  0  0  0  0  0  0  0  0  0  0  0
  -19.2561    3.2443    6.2506 N   0  0  0  0  0  0  0  0  0  0  0  0
  -21.3018    3.4992    3.2560 C   0  0  0  0  0  0  0  0  0  0  0  0
  -20.8040    2.4857    2.4441 C   0  0  0  0  0  0  0  0  0  0  0  0
  -19.7809    1.6133    2.8299 C   0  0  0  0  0  0  0  0  0  0  0  0
  -19.1471    1.7036    4.0515 C   0  0  0  0  0  0  0  0  0  0  0  0
  -20.6986    3.6333    4.4975 C   0  0  0  0  0  0  0  0  0  0  0  0
  -19.6073    2.7694    4.9881 C   0  0  0  0  0  0  0  0  0  0  0  0
  -18.5376    2.8665    6.8077 H   0  0  0  0  0  0  0  0  0  0  0  0
  -22.0994    5.6208    5.3302 C   0  0  0  0  0  0  0  0  0  0  0  0
  -21.7695    7.0028    4.9586 N   0  0  0  0  0  0  0  0  0  0  0  0
  -21.5161    7.6772    6.2451 C   0  0  0  0  0  0  0  0  0  0  0  0
  -20.5772    7.1952    4.0918 C   0  0  0  0  0  0  0  0  0  0  0  0
  -17.9871    0.7641    4.4002 C   0  0  0  0  0  0  0  0  0  0  0  0
  -16.8476    1.4221    5.2056 C   0  0  0  0  0  0  0  0  0  0  0  0
  -16.6956    0.8520    6.6295 C   0  0  0  0  0  0  0  0  0  0  0  0
  -16.9760    1.7713    7.7547 O   0  0  0  0  0  0  0  0  0  0  0  0
  -16.3317    2.4963    7.7481 H   0  0  0  0  0  0  0  0  0  0  0  0
  1  3  1  0  0  0
  1  2  2  0  0  0
  2  8  1  0  0  0
  2 11  1  0  0  0
  3  9  1  0  0  0
  4  5  2  0  0  0
  4  8  1  0  0  0
  5  6  1  0  0  0
  6  7  2  0  0  0
  7 15  1  0  0  0
  7  9  1  0  0  0
  8  9  2  0  0  0
 11 12  1  0  0  0
 12 13  1  0  0  0
 12 14  1  0  0  0
 15 16  1  0  0  0
 16 17  1  0  0  0
 17 18  1  0  0  0
  3 10  1  0  0  0
 18 19  1  0  0  0
M  END
> <minimizedAffinity>
-6.25831

$$$$
4QGD_PZZ_A_201


 19 20  0  0  0  0  0  0  0  0999 V2000
  -17.5556    2.7787    6.8635 C   0  0  0  0  0  0  0  0  0  0  0  0
  -18.2482    3.3649    7.9764 C   0  0  0  0  0  0  0  0  0  0  0  0
  -18.2814    3.0375    5.6930 N   0  0  0  0  0  0  0  0  0  0  0  0
  -20.4380    4.7164    8.0905 C   0  0  0  0  0  0  0  0  0  0  0  0
  -21.4560    5.2318    7.2954 C   0  0  0  0  0  0  0  0  0  0  0  0
  -21.5353    5.0378    5.9125 C   0  0  0  0  0  0  0  0  0  0  0  0
  -20.5822    4.3371    5.2035 C   0  0  0  0  0  0  0  0  0  0  0  0
  -19.4523    4.0020    7.4263 C   0  0  0  0  0  0  0  0  0  0  0  0
  -19.4440    3.7541    5.9715 C   0  0  0  0  0  0  0  0  0  0  0  0
  -18.0062    2.7509    4.7922 H   0  0  0  0  0  0  0  0  0  0  0  0
  -18.0172    3.4341    9.4815 C   0  0  0  0  0  0  0  0  0  0  0  0
  -18.2694    2.2482   10.3102 N   0  0  0  0  0  0  0  0  0  0  0  0
  -16.9620    1.5706   10.3871 C   0  0  0  0  0  0  0  0  0  0  0  0
  -18.7475    2.4912   11.6967 C   0  0  0  0  0  0  0  0  0  0  0  0
  -20.6813    4.2084    3.6792 C   0  0  0  0  0  0  0  0  0  0  0  0
  -21.3599    2.9134    3.1868 C   0  0  0  0  0  0  0  0  0  0  0  0
  -20.3592    1.8187    2.7676 C   0  0  0  0  0  0  0  0  0  0  0  0
  -19.7270    1.0353    3.8522 O   0  0  0  0  0  0  0  0  0  0  0  0
  -19.1809    1.6219    4.3987 H   0  0  0  0  0  0  0  0  0  0  0  0
  1  3  1  0  0  0
  1  2  2  0  0  0
  2  8  1  0  0  0
  2 11  1  0  0  0
  3  9  1  0  0  0
  4  5  2  0  0  0
  4  8  1  0  0  0
  5  6  1  0  0  0
  6  7  2  0  0  0
  7 15  1  0  0  0
  7  9  1  0  0  0
  8  9  2  0  0  0
 11 12  1  0  0  0
 12 13  1  0  0  0
 12 14  1  0  0  0
 15 16  1  0  0  0
 16 17  1  0  0  0
 17 18  1  0  0  0
  3 10  1  0  0  0
 18 19  1  0  0  0
M  END
> <minimizedAffinity>
-6.04937

$$$$
4QGD_PZZ_A_201


 19 20  0  0  0  0  0  0  0  0999 V2000
  -20.7941    5.1343    3.5501 C   0  0  0  0  0  0  0  0  0  0  0  0
  -20.9527    4.2316    4.6555 C   0  0  0  0  0  0  0  0  0  0  0  0
  -20.9085    6.4492    4.0209 N   0  0  0  0  0  0  0  0  0  0  0  0
  -21.3669    4.6721    7.1593 C   0  0  0  0  0  0  0  0  0  0  0  0
  -21.5283    5.6979    8.0844 C   0  0  0  0  0  0  0  0  0  0  0  0
  -21.5365    7.0550    7.7459 C   0  0  0  0  0  0  0  0  0  0  0  0
  -21.3508    7.5009    6.4541 C   0  0  0  0  0  0  0  0  0  0  0  0
  -21.1765    5.0664    5.8435 C   0  0  0  0  0  0  0  0  0  0  0  0
  -21.1588    6.4713    5.3919 C   0  0  0  0  0  0  0  0  0  0  0  0
  -20.8232    7.2519    3.4573 H   0  0  0  0  0  0  0  0  0  0  0  0
  -20.9570    2.7168    4.8252 C   0  0  0  0  0  0  0  0  0  0  0  0
  -19.7035    1.9659    4.6776 N   0  0  0  0  0  0  0  0  0  0  0  0
  -19.6979    1.5365    3.2670 C   0  0  0  0  0  0  0  0  0  0  0  0
  -18.4438    2.7103    4.9404 C   0  0  0  0  0  0  0  0  0  0  0  0
  -21.3035    9.0017    6.1456 C   0  0  0  0  0  0  0  0  0  0  0  0
  -22.3444    9.4779    5.1113 C   0  0  0  0  0  0  0  0  0  0  0  0
  -22.5481   11.0056    5.1060 C   0  0  0  0  0  0  0  0  0  0  0  0
  -22.0093   11.7513    3.9470 O   0  0  0  0  0  0  0  0  0  0  0  0
  -21.0431   11.6675    3.9294 H   0  0  0  0  0  0  0  0  0  0  0  0
  1  3  1  0  0  0
  1  2  2  0  0  0
  2  8  1  0  0  0
  2 11  1  0  0  0
  3  9  1  0  0  0
  4  5  2  0  0  0
  4  8  1  0  0  0
  5  6  1  0  0  0
  6  7  2  0  0  0
  7 15  1  0  0  0
  7  9  1  0  0  0
  8  9  2  0  0  0
 11 12  1  0  0  0
 12 13  1  0  0  0
 12 14  1  0  0  0
 15 16  1  0  0  0
 16 17  1  0  0  0
 17 18  1  0  0  0
  3 10  1  0  0  0
 18 19  1  0  0  0
M  END
> <minimizedAffinity>
-5.99002

$$$$
4QGD_PZZ_A_201


 19 20  0  0  0  0  0  0  0  0999 V2000
  -21.0914    3.6878    8.0562 C   0  0  0  0  0  0  0  0  0  0  0  0
  -21.3207    4.9984    8.5964 C   0  0  0  0  0  0  0  0  0  0  0  0
  -20.9530    3.7906    6.6656 N   0  0  0  0  0  0  0  0  0  0  0  0
  -21.4814    7.3005    7.4524 C   0  0  0  0  0  0  0  0  0  0  0  0
  -21.4058    7.9195    6.2093 C   0  0  0  0  0  0  0  0  0  0  0  0
  -21.2121    7.2291    5.0083 C   0  0  0  0  0  0  0  0  0  0  0  0
  -21.0450    5.8612    4.9549 C   0  0  0  0  0  0  0  0  0  0  0  0
  -21.3198    5.9232    7.4550 C   0  0  0  0  0  0  0  0  0  0  0  0
  -21.1006    5.1106    6.2427 C   0  0  0  0  0  0  0  0  0  0  0  0
  -20.7750    3.0304    6.0659 H   0  0  0  0  0  0  0  0  0  0  0  0
  -21.5645    5.5687    9.9888 C   0  0  0  0  0  0  0  0  0  0  0  0
  -22.6615    5.0387   10.8089 N   0  0  0  0  0  0  0  0  0  0  0  0
  -22.5547    5.7741   12.0825 C   0  0  0  0  0  0  0  0  0  0  0  0
  -24.0392    5.2226   10.2817 C   0  0  0  0  0  0  0  0  0  0  0  0
  -20.7707    5.1599    3.6196 C   0  0  0  0  0  0  0  0  0  0  0  0
  -21.7657    4.0342    3.2691 C   0  0  0  0  0  0  0  0  0  0  0  0
  -21.1036    2.6480    3.1456 C   0  0  0  0  0  0  0  0  0  0  0  0
  -21.1030    1.7936    4.3539 O   0  0  0  0  0  0  0  0  0  0  0  0
  -20.5762    2.2175    5.0493 H   0  0  0  0  0  0  0  0  0  0  0  0
  1  3  1  0  0  0
  1  2  2  0  0  0
  2  8  1  0  0  0
  2 11  1  0  0  0
  3  9  1  0  0  0
  4  5  2  0  0  0
  4  8  1  0  0  0
  5  6  1  0  0  0
  6  7  2  0  0  0
  7 15  1  0  0  0
  7  9  1  0  0  0
  8  9  2  0  0  0
 11 12  1  0  0  0
 12 13  1  0  0  0
 12 14  1  0  0  0
 15 16  1  0  0  0
 16 17  1  0  0  0
 17 18  1  0  0  0
  3 10  1  0  0  0
 18 19  1  0  0  0
M  END
> <minimizedAffinity>
-5.83974

$$$$
4QGD_PZZ_A_201


 19 20  0  0  0  0  0  0  0  0999 V2000
  -18.0566    2.7849    6.9657 C   0  0  0  0  0  0  0  0  0  0  0  0
  -18.5424    2.7591    5.6147 C   0  0  0  0  0  0  0  0  0  0  0  0
  -18.8713    3.6379    7.7222 N   0  0  0  0  0  0  0  0  0  0  0  0
  -20.5377    3.9526    4.5063 C   0  0  0  0  0  0  0  0  0  0  0  0
  -21.5908    4.8196    4.7778 C   0  0  0  0  0  0  0  0  0  0  0  0
  -21.8161    5.3996    6.0306 C   0  0  0  0  0  0  0  0  0  0  0  0
  -21.0231    5.1339    7.1272 C   0  0  0  0  0  0  0  0  0  0  0  0
  -19.7083    3.6519    5.5763 C   0  0  0  0  0  0  0  0  0  0  0  0
  -19.8720    4.2049    6.9348 C   0  0  0  0  0  0  0  0  0  0  0  0
  -18.7526    3.8137    8.6836 H   0  0  0  0  0  0  0  0  0  0  0  0
  -18.1164    2.0703    4.3233 C   0  0  0  0  0  0  0  0  0  0  0  0
  -18.8037    0.8461    3.8923 N   0  0  0  0  0  0  0  0  0  0  0  0
  -19.2568    1.1442    2.5211 C   0  0  0  0  0  0  0  0  0  0  0  0
  -17.9906   -0.3977    3.8516 C   0  0  0  0  0  0  0  0  0  0  0  0
  -21.3515    5.7448    8.4943 C   0  0  0  0  0  0  0  0  0  0  0  0
  -22.3606    4.9345    9.3340 C   0  0  0  0  0  0  0  0  0  0  0  0
  -21.7247    3.7388   10.0697 C   0  0  0  0  0  0  0  0  0  0  0  0
  -22.0528    2.3872    9.5642 O   0  0  0  0  0  0  0  0  0  0  0  0
  -23.0022    2.2222    9.6753 H   0  0  0  0  0  0  0  0  0  0  0  0
  1  3  1  0  0  0
  1  2  2  0  0  0
  2  8  1  0  0  0
  2 11  1  0  0  0
  3  9  1  0  0  0
  4  5  2  0  0  0
  4  8  1  0  0  0
  5  6  1  0  0  0
  6  7  2  0  0  0
  7 15  1  0  0  0
  7  9  1  0  0  0
  8  9  2  0  0  0
 11 12  1  0  0  0
 12 13  1  0  0  0
 12 14  1  0  0  0
 15 16  1  0  0  0
 16 17  1  0  0  0
 17 18  1  0  0  0
  3 10  1  0  0  0
 18 19  1  0  0  0
M  END
> <minimizedAffinity>
-5.76435

$$$$
4QGD_PZZ_A_201


 19 20  0  0  0  0  0  0  0  0999 V2000
  -18.3152    3.0245    6.6736 C   0  0  0  0  0  0  0  0  0  0  0  0
  -18.6365    2.7059    5.3108 C   0  0  0  0  0  0  0  0  0  0  0  0
  -19.2621    3.9361    7.1595 N   0  0  0  0  0  0  0  0  0  0  0  0
  -20.5549    3.5049    3.7890 C   0  0  0  0  0  0  0  0  0  0  0  0
  -21.6819    4.3197    3.7745 C   0  0  0  0  0  0  0  0  0  0  0  0
  -22.0867    5.1049    4.8590 C   0  0  0  0  0  0  0  0  0  0  0  0
  -21.4136    5.1150    6.0627 C   0  0  0  0  0  0  0  0  0  0  0  0
  -19.8406    3.4787    4.9774 C   0  0  0  0  0  0  0  0  0  0  0  0
  -20.1951    4.2623    6.1767 C   0  0  0  0  0  0  0  0  0  0  0  0
  -19.2676    4.2985    8.0748 H   0  0  0  0  0  0  0  0  0  0  0  0
  -18.0220    1.8232    4.2308 C   0  0  0  0  0  0  0  0  0  0  0  0
  -18.7087    0.5910    3.8222 N   0  0  0  0  0  0  0  0  0  0  0  0
  -18.9435    0.7649    2.3769 C   0  0  0  0  0  0  0  0  0  0  0  0
  -17.9696   -0.6834    4.0215 C   0  0  0  0  0  0  0  0  0  0  0  0
  -21.9358    5.9436    7.2420 C   0  0  0  0  0  0  0  0  0  0  0  0
  -21.2816    7.3329    7.3903 C   0  0  0  0  0  0  0  0  0  0  0  0
  -21.6478    8.3070    6.2535 C   0  0  0  0  0  0  0  0  0  0  0  0
  -20.6752    8.4439    5.1466 O   0  0  0  0  0  0  0  0  0  0  0  0
  -19.8482    8.8192    5.4875 H   0  0  0  0  0  0  0  0  0  0  0  0
  1  3  1  0  0  0
  1  2  2  0  0  0
  2  8  1  0  0  0
  2 11  1  0  0  0
  3  9  1  0  0  0
  4  5  2  0  0  0
  4  8  1  0  0  0
  5  6  1  0  0  0
  6  7  2  0  0  0
  7 15  1  0  0  0
  7  9  1  0  0  0
  8  9  2  0  0  0
 11 12  1  0  0  0
 12 13  1  0  0  0
 12 14  1  0  0  0
 15 16  1  0  0  0
 16 17  1  0  0  0
 17 18  1  0  0  0
  3 10  1  0  0  0
 18 19  1  0  0  0
M  END
> <minimizedAffinity>
-5.72042

$$$$
4QGD_PZZ_A_201


 19 20  0  0  0  0  0  0  0  0999 V2000
  -20.5843    5.5427    3.5734 C   0  0  0  0  0  0  0  0  0  0  0  0
  -20.6161    4.6109    4.6656 C   0  0  0  0  0  0  0  0  0  0  0  0
  -20.8589    6.8254    4.0663 N   0  0  0  0  0  0  0  0  0  0  0  0
  -21.0561    4.9583    7.1796 C   0  0  0  0  0  0  0  0  0  0  0  0
  -21.3361    5.9417    8.1224 C   0  0  0  0  0  0  0  0  0  0  0  0
  -21.5192    7.2917    7.8057 C   0  0  0  0  0  0  0  0  0  0  0  0
  -21.4050    7.7766    6.5196 C   0  0  0  0  0  0  0  0  0  0  0  0
  -20.9309    5.3930    5.8686 C   0  0  0  0  0  0  0  0  0  0  0  0
  -21.0956    6.7954    5.4395 C   0  0  0  0  0  0  0  0  0  0  0  0
  -20.8817    7.6407    3.5149 H   0  0  0  0  0  0  0  0  0  0  0  0
  -20.4272    3.1054    4.8110 C   0  0  0  0  0  0  0  0  0  0  0  0
  -19.7456    2.3531    3.7497 N   0  0  0  0  0  0  0  0  0  0  0  0
  -18.5754    1.7552    4.4185 C   0  0  0  0  0  0  0  0  0  0  0  0
  -20.5185    1.2601    3.1034 C   0  0  0  0  0  0  0  0  0  0  0  0
  -21.5508    9.2758    6.2349 C   0  0  0  0  0  0  0  0  0  0  0  0
  -21.0371   10.1963    7.3612 C   0  0  0  0  0  0  0  0  0  0  0  0
  -22.1617   10.9525    8.0952 C   0  0  0  0  0  0  0  0  0  0  0  0
  -23.3136   11.3993    7.2808 O   0  0  0  0  0  0  0  0  0  0  0  0
  -23.0142   12.0501    6.6267 H   0  0  0  0  0  0  0  0  0  0  0  0
  1  3  1  0  0  0
  1  2  2  0  0  0
  2  8  1  0  0  0
  2 11  1  0  0  0
  3  9  1  0  0  0
  4  5  2  0  0  0
  4  8  1  0  0  0
  5  6  1  0  0  0
  6  7  2  0  0  0
  7 15  1  0  0  0
  7  9  1  0  0  0
  8  9  2  0  0  0
 11 12  1  0  0  0
 12 13  1  0  0  0
 12 14  1  0  0  0
 15 16  1  0  0  0
 16 17  1  0  0  0
 17 18  1  0  0  0
  3 10  1  0  0  0
 18 19  1  0  0  0
M  END
> <minimizedAffinity>
-5.50151

$$$$
4QGD_PZZ_A_201


 19 20  0  0  0  0  0  0  0  0999 V2000
  -20.6727    3.8436    9.3144 C   0  0  0  0  0  0  0  0  0  0  0  0
  -19.2672    3.5493    9.3183 C   0  0  0  0  0  0  0  0  0  0  0  0
  -21.1077    3.9510    7.9866 N   0  0  0  0  0  0  0  0  0  0  0  0
  -17.5997    3.2102    7.3848 C   0  0  0  0  0  0  0  0  0  0  0  0
  -17.5132    3.1887    5.9968 C   0  0  0  0  0  0  0  0  0  0  0  0
  -18.5926    3.4524    5.1472 C   0  0  0  0  0  0  0  0  0  0  0  0
  -19.8595    3.7284    5.6172 C   0  0  0  0  0  0  0  0  0  0  0  0
  -18.8536    3.4836    7.9102 C   0  0  0  0  0  0  0  0  0  0  0  0
  -20.0522    3.7633    7.0959 C   0  0  0  0  0  0  0  0  0  0  0  0
  -22.0369    4.1349    7.7182 H   0  0  0  0  0  0  0  0  0  0  0  0
  -18.2089    3.3325   10.3936 C   0  0  0  0  0  0  0  0  0  0  0  0
  -18.0798    2.0155   11.0305 N   0  0  0  0  0  0  0  0  0  0  0  0
  -16.6912    1.6072   10.7489 C   0  0  0  0  0  0  0  0  0  0  0  0
  -18.2896    1.9609   12.5012 C   0  0  0  0  0  0  0  0  0  0  0  0
  -21.0230    3.9463    4.6432 C   0  0  0  0  0  0  0  0  0  0  0  0
  -20.6861    3.6582    3.1655 C   0  0  0  0  0  0  0  0  0  0  0  0
  -21.0449    2.2260    2.7233 C   0  0  0  0  0  0  0  0  0  0  0  0
  -20.8423    1.1461    3.7146 O   0  0  0  0  0  0  0  0  0  0  0  0
  -19.8979    1.0718    3.9233 H   0  0  0  0  0  0  0  0  0  0  0  0
  1  3  1  0  0  0
  1  2  2  0  0  0
  2  8  1  0  0  0
  2 11  1  0  0  0
  3  9  1  0  0  0
  4  5  2  0  0  0
  4  8  1  0  0  0
  5  6  1  0  0  0
  6  7  2  0  0  0
  7 15  1  0  0  0
  7  9  1  0  0  0
  8  9  2  0  0  0
 11 12  1  0  0  0
 12 13  1  0  0  0
 12 14  1  0  0  0
 15 16  1  0  0  0
 16 17  1  0  0  0
 17 18  1  0  0  0
  3 10  1  0  0  0
 18 19  1  0  0  0
M  END
> <minimizedAffinity>
-5.50132

$$$$
4QGD_PZZ_A_201


 19 20  0  0  0  0  0  0  0  0999 V2000
  -20.8666    3.8340    3.9019 C   0  0  0  0  0  0  0  0  0  0  0  0
  -21.0649    4.4469    5.1852 C   0  0  0  0  0  0  0  0  0  0  0  0
  -19.7231    3.0262    3.9593 N   0  0  0  0  0  0  0  0  0  0  0  0
  -19.7271    4.2616    7.3785 C   0  0  0  0  0  0  0  0  0  0  0  0
  -18.6189    3.6387    7.9425 C   0  0  0  0  0  0  0  0  0  0  0  0
  -17.7599    2.7917    7.2346 C   0  0  0  0  0  0  0  0  0  0  0  0
  -17.9577    2.4710    5.9079 C   0  0  0  0  0  0  0  0  0  0  0  0
  -19.9715    3.9729    6.0443 C   0  0  0  0  0  0  0  0  0  0  0  0
  -19.1298    3.0848    5.2192 C   0  0  0  0  0  0  0  0  0  0  0  0
  -19.3833    2.4878    3.2083 H   0  0  0  0  0  0  0  0  0  0  0  0
  -22.0785    5.4202    5.7760 C   0  0  0  0  0  0  0  0  0  0  0  0
  -21.8979    6.8644    5.5804 N   0  0  0  0  0  0  0  0  0  0  0  0
  -21.4605    7.3604    6.8984 C   0  0  0  0  0  0  0  0  0  0  0  0
  -20.8896    7.2811    4.5707 C   0  0  0  0  0  0  0  0  0  0  0  0
  -17.0238    1.4860    5.1954 C   0  0  0  0  0  0  0  0  0  0  0  0
  -17.5908    0.0594    5.0426 C   0  0  0  0  0  0  0  0  0  0  0  0
  -18.0001   -0.2855    3.5974 C   0  0  0  0  0  0  0  0  0  0  0  0
  -18.1816    0.8467    2.6620 O   0  0  0  0  0  0  0  0  0  0  0  0
  -18.9190    1.4001    2.9634 H   0  0  0  0  0  0  0  0  0  0  0  0
  1  3  1  0  0  0
  1  2  2  0  0  0
  2  8  1  0  0  0
  2 11  1  0  0  0
  3  9  1  0  0  0
  4  5  2  0  0  0
  4  8  1  0  0  0
  5  6  1  0  0  0
  6  7  2  0  0  0
  7 15  1  0  0  0
  7  9  1  0  0  0
  8  9  2  0  0  0
 11 12  1  0  0  0
 12 13  1  0  0  0
 12 14  1  0  0  0
 15 16  1  0  0  0
 16 17  1  0  0  0
 17 18  1  0  0  0
  3 10  1  0  0  0
 18 19  1  0  0  0
M  END
> <minimizedAffinity>
-5.47786

$$$$
4QGD_PZZ_A_201


 19 20  0  0  0  0  0  0  0  0999 V2000
  -21.5740    5.7189    8.5209 C   0  0  0  0  0  0  0  0  0  0  0  0
  -21.4445    7.0069    7.8995 C   0  0  0  0  0  0  0  0  0  0  0  0
  -21.4322    4.7282    7.5400 N   0  0  0  0  0  0  0  0  0  0  0  0
  -21.0114    7.6725    5.4492 C   0  0  0  0  0  0  0  0  0  0  0  0
  -20.7930    7.1357    4.1850 C   0  0  0  0  0  0  0  0  0  0  0  0
  -20.8031    5.7640    3.9112 C   0  0  0  0  0  0  0  0  0  0  0  0
  -21.0011    4.8115    4.8887 C   0  0  0  0  0  0  0  0  0  0  0  0
  -21.2166    6.7565    6.4700 C   0  0  0  0  0  0  0  0  0  0  0  0
  -21.2343    5.2929    6.2811 C   0  0  0  0  0  0  0  0  0  0  0  0
  -21.4677    3.7603    7.7168 H   0  0  0  0  0  0  0  0  0  0  0  0
  -21.5116    8.4524    8.3785 C   0  0  0  0  0  0  0  0  0  0  0  0
  -21.1204    8.7801    9.7556 N   0  0  0  0  0  0  0  0  0  0  0  0
  -20.2274    9.9450    9.6150 C   0  0  0  0  0  0  0  0  0  0  0  0
  -22.2153    9.1460   10.6922 C   0  0  0  0  0  0  0  0  0  0  0  0
  -20.9382    3.3183    4.5476 C   0  0  0  0  0  0  0  0  0  0  0  0
  -21.1205    2.9933    3.0506 C   0  0  0  0  0  0  0  0  0  0  0  0
  -20.4057    1.6997    2.6131 C   0  0  0  0  0  0  0  0  0  0  0  0
  -19.9165    0.8065    3.6867 O   0  0  0  0  0  0  0  0  0  0  0  0
  -19.2312    1.2627    4.1996 H   0  0  0  0  0  0  0  0  0  0  0  0
  1  3  1  0  0  0
  1  2  2  0  0  0
  2  8  1  0  0  0
  2 11  1  0  0  0
  3  9  1  0  0  0
  4  5  2  0  0  0
  4  8  1  0  0  0
  5  6  1  0  0  0
  6  7  2  0  0  0
  7 15  1  0  0  0
  7  9  1  0  0  0
  8  9  2  0  0  0
 11 12  1  0  0  0
 12 13  1  0  0  0
 12 14  1  0  0  0
 15 16  1  0  0  0
 16 17  1  0  0  0
 17 18  1  0  0  0
  3 10  1  0  0  0
 18 19  1  0  0  0
M  END
> <minimizedAffinity>
-5.44938

$$$$
