1A69_FMB_A_240


 24 26  0  0  0  0  0  0  0  0999 V2000
  -18.2844   72.0365   65.5155 N   0  0  0  0  0  0  0  0  0  0  0  0
  -17.4335   72.1795   66.5864 C   0  0  0  0  0  0  0  0  0  0  0  0
  -17.5161   71.4646   67.7054 N   0  0  0  0  0  0  0  0  0  0  0  0
  -18.5284   70.5742   67.6563 C   0  0  0  0  0  0  0  0  0  0  0  0
  -19.4308   70.3562   66.6336 C   0  0  0  0  0  0  0  0  0  0  0  0
  -19.3363   71.1222   65.4550 C   0  0  0  0  0  0  0  0  0  0  0  0
  -20.0468   71.0649   64.4476 O   0  0  0  0  0  0  0  0  0  0  0  0
  -20.3259   69.3513   66.9682 N   0  0  0  0  0  0  0  0  0  0  0  0
  -19.9602   68.9871   68.1731 N   0  0  0  0  0  0  0  0  0  0  0  0
  -18.8713   69.6912   68.6530 C   0  0  0  0  0  0  0  0  0  0  0  0
  -18.1411   72.6209   64.7363 H   0  0  0  0  0  0  0  0  0  0  0  0
  -21.0656   68.9938   66.4258 H   0  0  0  0  0  0  0  0  0  0  0  0
  -18.4414   69.0696   69.9306 C   0  0  0  0  0  0  0  0  0  0  0  0
  -16.9361   69.1615   70.1527 C   0  0  0  0  0  0  0  0  0  0  0  0
  -16.4174   67.8569   70.3235 O   0  0  0  0  0  0  0  0  0  0  0  0
  -16.7728   70.1030   71.3724 C   0  0  0  0  0  0  0  0  0  0  0  0
  -16.3906   69.4202   72.5855 O   0  0  0  0  0  0  0  0  0  0  0  0
  -18.1532   70.7271   71.5461 C   0  0  0  0  0  0  0  0  0  0  0  0
  -19.0738   69.7522   71.0027 O   0  0  0  0  0  0  0  0  0  0  0  0
  -16.8756   67.4205   71.0587 H   0  0  0  0  0  0  0  0  0  0  0  0
  -17.0627   68.7575   72.8090 H   0  0  0  0  0  0  0  0  0  0  0  0
  -18.3338   72.0696   70.8414 C   0  0  0  0  0  0  0  0  0  0  0  0
  -19.7061   72.4967   70.7582 O   0  0  0  0  0  0  0  0  0  0  0  0
  -20.2134   71.8550   70.2368 H   0  0  0  0  0  0  0  0  0  0  0  0
  1  2  1  0  0  0
  1  6  1  0  0  0
  2  3  2  0  0  0
  3  4  1  0  0  0
  4  5  2  0  0  0
  4 10  1  0  0  0
  5  6  1  0  0  0
  5  8  1  0  0  0
  6  7  2  0  0  0
  8  9  1  0  0  0
  9 10  2  0  0  0
 10 13  1  0  0  0
 13 14  1  0  0  0
 13 19  1  0  0  0
 14 15  1  0  0  0
 14 16  1  0  0  0
 16 17  1  0  0  0
 16 18  1  0  0  0
 18 19  1  0  0  0
 18 22  1  0  0  0
 22 23  1  0  0  0
  1 11  1  0  0  0
  8 12  1  0  0  0
 15 20  1  0  0  0
 17 21  1  0  0  0
 23 24  1  0  0  0
M  END
> <minimizedAffinity>
-9.09626

$$$$
1A69_FMB_A_240


 24 26  0  0  0  0  0  0  0  0999 V2000
  -18.5608   72.6301   64.8789 N   0  0  0  0  0  0  0  0  0  0  0  0
  -17.5850   72.8267   65.8278 C   0  0  0  0  0  0  0  0  0  0  0  0
  -17.4208   72.0559   66.8997 N   0  0  0  0  0  0  0  0  0  0  0  0
  -18.3201   71.0510   66.9354 C   0  0  0  0  0  0  0  0  0  0  0  0
  -19.3309   70.7714   66.0365 C   0  0  0  0  0  0  0  0  0  0  0  0
  -19.4979   71.5972   64.9073 C   0  0  0  0  0  0  0  0  0  0  0  0
  -20.3364   71.4998   64.0070 O   0  0  0  0  0  0  0  0  0  0  0  0
  -20.0459   69.6496   66.4278 N   0  0  0  0  0  0  0  0  0  0  0  0
  -19.4690   69.2776   67.5445 N   0  0  0  0  0  0  0  0  0  0  0  0
  -18.4102   70.0872   67.9120 C   0  0  0  0  0  0  0  0  0  0  0  0
  -18.6008   73.2632   64.1260 H   0  0  0  0  0  0  0  0  0  0  0  0
  -20.8107   69.2295   65.9720 H   0  0  0  0  0  0  0  0  0  0  0  0
  -17.7300   69.4645   69.0752 C   0  0  0  0  0  0  0  0  0  0  0  0
  -16.4637   70.2083   69.4841 C   0  0  0  0  0  0  0  0  0  0  0  0
  -15.3712   69.3113   69.4414 O   0  0  0  0  0  0  0  0  0  0  0  0
  -16.7834   70.7951   70.8819 C   0  0  0  0  0  0  0  0  0  0  0  0
  -16.1147   70.1131   71.9644 O   0  0  0  0  0  0  0  0  0  0  0  0
  -18.2923   70.6236   71.0196 C   0  0  0  0  0  0  0  0  0  0  0  0
  -18.6157   69.4873   70.1843 O   0  0  0  0  0  0  0  0  0  0  0  0
  -15.5557   68.5496   70.0129 H   0  0  0  0  0  0  0  0  0  0  0  0
  -16.3746   69.1786   71.9674 H   0  0  0  0  0  0  0  0  0  0  0  0
  -19.1092   71.8401   70.5903 C   0  0  0  0  0  0  0  0  0  0  0  0
  -20.4924   71.5413   70.3261 O   0  0  0  0  0  0  0  0  0  0  0  0
  -20.5524   70.9110   69.5912 H   0  0  0  0  0  0  0  0  0  0  0  0
  1  2  1  0  0  0
  1  6  1  0  0  0
  2  3  2  0  0  0
  3  4  1  0  0  0
  4  5  2  0  0  0
  4 10  1  0  0  0
  5  6  1  0  0  0
  5  8  1  0  0  0
  6  7  2  0  0  0
  8  9  1  0  0  0
  9 10  2  0  0  0
 10 13  1  0  0  0
 13 14  1  0  0  0
 13 19  1  0  0  0
 14 15  1  0  0  0
 14 16  1  0  0  0
 16 17  1  0  0  0
 16 18  1  0  0  0
 18 19  1  0  0  0
 18 22  1  0  0  0
 22 23  1  0  0  0
  1 11  1  0  0  0
  8 12  1  0  0  0
 15 20  1  0  0  0
 17 21  1  0  0  0
 23 24  1  0  0  0
M  END
> <minimizedAffinity>
-8.94516

$$$$
1A69_FMB_A_240


 24 26  0  0  0  0  0  0  0  0999 V2000
  -21.1594   70.3322   68.6894 N   0  0  0  0  0  0  0  0  0  0  0  0
  -20.8403   70.4879   70.0180 C   0  0  0  0  0  0  0  0  0  0  0  0
  -19.6078   70.3788   70.5070 N   0  0  0  0  0  0  0  0  0  0  0  0
  -18.7079   70.1094   69.5388 C   0  0  0  0  0  0  0  0  0  0  0  0
  -18.9283   69.9365   68.1862 C   0  0  0  0  0  0  0  0  0  0  0  0
  -20.2382   70.0500   67.6805 C   0  0  0  0  0  0  0  0  0  0  0  0
  -20.6195   69.9303   66.5129 O   0  0  0  0  0  0  0  0  0  0  0  0
  -17.7413   69.6696   67.5208 N   0  0  0  0  0  0  0  0  0  0  0  0
  -16.8358   69.6787   68.4685 N   0  0  0  0  0  0  0  0  0  0  0  0
  -17.3557   69.9405   69.7226 C   0  0  0  0  0  0  0  0  0  0  0  0
  -22.1049   70.4267   68.4320 H   0  0  0  0  0  0  0  0  0  0  0  0
  -17.6091   69.5101   66.5583 H   0  0  0  0  0  0  0  0  0  0  0  0
  -16.2250   70.1075   70.6697 C   0  0  0  0  0  0  0  0  0  0  0  0
  -16.6171   70.8794   71.9244 C   0  0  0  0  0  0  0  0  0  0  0  0
  -15.7793   72.0122   72.0463 O   0  0  0  0  0  0  0  0  0  0  0  0
  -16.5058   69.8475   73.0748 C   0  0  0  0  0  0  0  0  0  0  0  0
  -15.3609   70.0529   73.9297 O   0  0  0  0  0  0  0  0  0  0  0  0
  -16.3800   68.5069   72.3592 C   0  0  0  0  0  0  0  0  0  0  0  0
  -15.7829   68.8223   71.0796 O   0  0  0  0  0  0  0  0  0  0  0  0
  -14.8518   71.7285   72.0592 H   0  0  0  0  0  0  0  0  0  0  0  0
  -14.5491   69.9985   73.4015 H   0  0  0  0  0  0  0  0  0  0  0  0
  -17.7029   67.7724   72.1544 C   0  0  0  0  0  0  0  0  0  0  0  0
  -17.5616   66.3420   72.0752 O   0  0  0  0  0  0  0  0  0  0  0  0
  -17.0120   66.1133   71.3094 H   0  0  0  0  0  0  0  0  0  0  0  0
  1  2  1  0  0  0
  1  6  1  0  0  0
  2  3  2  0  0  0
  3  4  1  0  0  0
  4  5  2  0  0  0
  4 10  1  0  0  0
  5  6  1  0  0  0
  5  8  1  0  0  0
  6  7  2  0  0  0
  8  9  1  0  0  0
  9 10  2  0  0  0
 10 13  1  0  0  0
 13 14  1  0  0  0
 13 19  1  0  0  0
 14 15  1  0  0  0
 14 16  1  0  0  0
 16 17  1  0  0  0
 16 18  1  0  0  0
 18 19  1  0  0  0
 18 22  1  0  0  0
 22 23  1  0  0  0
  1 11  1  0  0  0
  8 12  1  0  0  0
 15 20  1  0  0  0
 17 21  1  0  0  0
 23 24  1  0  0  0
M  END
> <minimizedAffinity>
-8.82233

$$$$
1A69_FMB_A_240


 24 26  0  0  0  0  0  0  0  0999 V2000
  -20.1508   70.4823   65.4666 N   0  0  0  0  0  0  0  0  0  0  0  0
  -20.5020   69.4281   66.2769 C   0  0  0  0  0  0  0  0  0  0  0  0
  -19.8471   69.0875   67.3838 N   0  0  0  0  0  0  0  0  0  0  0  0
  -18.8043   69.9099   67.6207 C   0  0  0  0  0  0  0  0  0  0  0  0
  -18.3742   70.9881   66.8721 C   0  0  0  0  0  0  0  0  0  0  0  0
  -19.0730   71.3367   65.6996 C   0  0  0  0  0  0  0  0  0  0  0  0
  -18.8367   72.2598   64.9153 O   0  0  0  0  0  0  0  0  0  0  0  0
  -17.2600   71.5789   67.4487 N   0  0  0  0  0  0  0  0  0  0  0  0
  -17.0332   70.8554   68.5179 N   0  0  0  0  0  0  0  0  0  0  0  0
  -17.9365   69.8219   68.6837 C   0  0  0  0  0  0  0  0  0  0  0  0
  -20.6989   70.6455   64.6653 H   0  0  0  0  0  0  0  0  0  0  0  0
  -16.7556   72.3615   67.1288 H   0  0  0  0  0  0  0  0  0  0  0  0
  -17.6926   69.1984   70.0086 C   0  0  0  0  0  0  0  0  0  0  0  0
  -16.5292   69.8402   70.7559 C   0  0  0  0  0  0  0  0  0  0  0  0
  -15.5715   68.8439   71.0558 O   0  0  0  0  0  0  0  0  0  0  0  0
  -17.1782   70.5250   71.9850 C   0  0  0  0  0  0  0  0  0  0  0  0
  -16.9279   69.8395   73.2305 O   0  0  0  0  0  0  0  0  0  0  0  0
  -18.6713   70.5027   71.6763 C   0  0  0  0  0  0  0  0  0  0  0  0
  -18.8549   69.3606   70.8072 O   0  0  0  0  0  0  0  0  0  0  0  0
  -15.9927   68.1329   71.5637 H   0  0  0  0  0  0  0  0  0  0  0  0
  -17.2737   68.9348   73.1769 H   0  0  0  0  0  0  0  0  0  0  0  0
  -19.1964   71.7669   70.9997 C   0  0  0  0  0  0  0  0  0  0  0  0
  -20.4615   71.5832   70.3378 O   0  0  0  0  0  0  0  0  0  0  0  0
  -20.3639   70.9269   69.6303 H   0  0  0  0  0  0  0  0  0  0  0  0
  1  2  1  0  0  0
  1  6  1  0  0  0
  2  3  2  0  0  0
  3  4  1  0  0  0
  4  5  2  0  0  0
  4 10  1  0  0  0
  5  6  1  0  0  0
  5  8  1  0  0  0
  6  7  2  0  0  0
  8  9  1  0  0  0
  9 10  2  0  0  0
 10 13  1  0  0  0
 13 14  1  0  0  0
 13 19  1  0  0  0
 14 15  1  0  0  0
 14 16  1  0  0  0
 16 17  1  0  0  0
 16 18  1  0  0  0
 18 19  1  0  0  0
 18 22  1  0  0  0
 22 23  1  0  0  0
  1 11  1  0  0  0
  8 12  1  0  0  0
 15 20  1  0  0  0
 17 21  1  0  0  0
 23 24  1  0  0  0
M  END
> <minimizedAffinity>
-8.34655

$$$$
1A69_FMB_A_240


 24 26  0  0  0  0  0  0  0  0999 V2000
  -16.4619   68.1877   73.1619 N   0  0  0  0  0  0  0  0  0  0  0  0
  -17.2629   67.6624   72.1751 C   0  0  0  0  0  0  0  0  0  0  0  0
  -17.7230   68.3582   71.1386 N   0  0  0  0  0  0  0  0  0  0  0  0
  -17.2980   69.6382   71.1674 C   0  0  0  0  0  0  0  0  0  0  0  0
  -16.4973   70.2557   72.1084 C   0  0  0  0  0  0  0  0  0  0  0  0
  -16.0194   69.5100   73.2039 C   0  0  0  0  0  0  0  0  0  0  0  0
  -15.2991   69.8903   74.1311 O   0  0  0  0  0  0  0  0  0  0  0  0
  -16.2872   71.5873   71.7833 N   0  0  0  0  0  0  0  0  0  0  0  0
  -16.9597   71.7535   70.6706 N   0  0  0  0  0  0  0  0  0  0  0  0
  -17.5994   70.6063   70.2387 C   0  0  0  0  0  0  0  0  0  0  0  0
  -16.1809   67.5880   73.8903 H   0  0  0  0  0  0  0  0  0  0  0  0
  -15.7555   72.2541   72.2751 H   0  0  0  0  0  0  0  0  0  0  0  0
  -18.1646   70.8677   68.8912 C   0  0  0  0  0  0  0  0  0  0  0  0
  -18.4137   69.5892   68.0992 C   0  0  0  0  0  0  0  0  0  0  0  0
  -17.6964   69.6567   66.8823 O   0  0  0  0  0  0  0  0  0  0  0  0
  -19.9542   69.5069   67.9552 C   0  0  0  0  0  0  0  0  0  0  0  0
  -20.4298   69.8108   66.6266 O   0  0  0  0  0  0  0  0  0  0  0  0
  -20.4747   70.5489   68.9392 C   0  0  0  0  0  0  0  0  0  0  0  0
  -19.4129   71.5264   69.0428 O   0  0  0  0  0  0  0  0  0  0  0  0
  -17.9601   70.4530   66.3952 H   0  0  0  0  0  0  0  0  0  0  0  0
  -20.1558   70.7087   66.3826 H   0  0  0  0  0  0  0  0  0  0  0  0
  -20.8178   69.9983   70.3214 C   0  0  0  0  0  0  0  0  0  0  0  0
  -20.7995   68.5604   70.3897 O   0  0  0  0  0  0  0  0  0  0  0  0
  -21.4698   68.1996   69.7885 H   0  0  0  0  0  0  0  0  0  0  0  0
  1  2  1  0  0  0
  1  6  1  0  0  0
  2  3  2  0  0  0
  3  4  1  0  0  0
  4  5  2  0  0  0
  4 10  1  0  0  0
  5  6  1  0  0  0
  5  8  1  0  0  0
  6  7  2  0  0  0
  8  9  1  0  0  0
  9 10  2  0  0  0
 10 13  1  0  0  0
 13 14  1  0  0  0
 13 19  1  0  0  0
 14 15  1  0  0  0
 14 16  1  0  0  0
 16 17  1  0  0  0
 16 18  1  0  0  0
 18 19  1  0  0  0
 18 22  1  0  0  0
 22 23  1  0  0  0
  1 11  1  0  0  0
  8 12  1  0  0  0
 15 20  1  0  0  0
 17 21  1  0  0  0
 23 24  1  0  0  0
M  END
> <minimizedAffinity>
-8.01274

$$$$
1A69_FMB_A_240


 24 26  0  0  0  0  0  0  0  0999 V2000
  -18.7565   70.3705   66.4131 N   0  0  0  0  0  0  0  0  0  0  0  0
  -17.5676   70.0979   67.0483 C   0  0  0  0  0  0  0  0  0  0  0  0
  -17.4634   69.8017   68.3412 N   0  0  0  0  0  0  0  0  0  0  0  0
  -18.6672   69.7891   68.9498 C   0  0  0  0  0  0  0  0  0  0  0  0
  -19.9087   70.0473   68.4020 C   0  0  0  0  0  0  0  0  0  0  0  0
  -20.0063   70.3641   67.0328 C   0  0  0  0  0  0  0  0  0  0  0  0
  -21.0208   70.6195   66.3782 O   0  0  0  0  0  0  0  0  0  0  0  0
  -20.9057   69.9358   69.3593 N   0  0  0  0  0  0  0  0  0  0  0  0
  -20.2604   69.6230   70.4565 N   0  0  0  0  0  0  0  0  0  0  0  0
  -18.8933   69.5171   70.2786 C   0  0  0  0  0  0  0  0  0  0  0  0
  -18.7232   70.5855   65.4529 H   0  0  0  0  0  0  0  0  0  0  0  0
  -21.8749   70.0624   69.2419 H   0  0  0  0  0  0  0  0  0  0  0  0
  -18.3009   68.9832   71.5306 C   0  0  0  0  0  0  0  0  0  0  0  0
  -17.0062   68.2157   71.2886 C   0  0  0  0  0  0  0  0  0  0  0  0
  -17.1491   66.9038   71.7967 O   0  0  0  0  0  0  0  0  0  0  0  0
  -15.9066   69.0714   71.9663 C   0  0  0  0  0  0  0  0  0  0  0  0
  -15.4076   68.5058   73.1972 O   0  0  0  0  0  0  0  0  0  0  0  0
  -16.5956   70.4011   72.2529 C   0  0  0  0  0  0  0  0  0  0  0  0
  -17.9979   70.0720   72.3895 O   0  0  0  0  0  0  0  0  0  0  0  0
  -17.3867   66.9450   72.7363 H   0  0  0  0  0  0  0  0  0  0  0  0
  -16.1384   68.4071   73.8273 H   0  0  0  0  0  0  0  0  0  0  0  0
  -16.4078   71.4581   71.1670 C   0  0  0  0  0  0  0  0  0  0  0  0
  -15.6078   71.0087   70.0577 O   0  0  0  0  0  0  0  0  0  0  0  0
  -14.7158   70.7903   70.3699 H   0  0  0  0  0  0  0  0  0  0  0  0
  1  2  1  0  0  0
  1  6  1  0  0  0
  2  3  2  0  0  0
  3  4  1  0  0  0
  4  5  2  0  0  0
  4 10  1  0  0  0
  5  6  1  0  0  0
  5  8  1  0  0  0
  6  7  2  0  0  0
  8  9  1  0  0  0
  9 10  2  0  0  0
 10 13  1  0  0  0
 13 14  1  0  0  0
 13 19  1  0  0  0
 14 15  1  0  0  0
 14 16  1  0  0  0
 16 17  1  0  0  0
 16 18  1  0  0  0
 18 19  1  0  0  0
 18 22  1  0  0  0
 22 23  1  0  0  0
  1 11  1  0  0  0
  8 12  1  0  0  0
 15 20  1  0  0  0
 17 21  1  0  0  0
 23 24  1  0  0  0
M  END
> <minimizedAffinity>
-7.67677

$$$$
1A69_FMB_A_240


 24 26  0  0  0  0  0  0  0  0999 V2000
  -20.1111   69.8906   66.6662 N   0  0  0  0  0  0  0  0  0  0  0  0
  -18.7548   69.7055   66.5341 C   0  0  0  0  0  0  0  0  0  0  0  0
  -17.8741   69.9228   67.5074 N   0  0  0  0  0  0  0  0  0  0  0  0
  -18.4750   70.3347   68.6427 C   0  0  0  0  0  0  0  0  0  0  0  0
  -19.8200   70.5488   68.8730 C   0  0  0  0  0  0  0  0  0  0  0  0
  -20.7430   70.3195   67.8336 C   0  0  0  0  0  0  0  0  0  0  0  0
  -21.9695   70.4544   67.8575 O   0  0  0  0  0  0  0  0  0  0  0  0
  -20.0384   70.9743   70.1746 N   0  0  0  0  0  0  0  0  0  0  0  0
  -18.8390   71.0166   70.7015 N   0  0  0  0  0  0  0  0  0  0  0  0
  -17.8397   70.6392   69.8236 C   0  0  0  0  0  0  0  0  0  0  0  0
  -20.6763   69.7075   65.8811 H   0  0  0  0  0  0  0  0  0  0  0  0
  -20.8967   71.1940   70.6039 H   0  0  0  0  0  0  0  0  0  0  0  0
  -16.5654   70.5490   70.5797 C   0  0  0  0  0  0  0  0  0  0  0  0
  -16.6999   71.0314   72.0195 C   0  0  0  0  0  0  0  0  0  0  0  0
  -15.7745   72.0776   72.2407 O   0  0  0  0  0  0  0  0  0  0  0  0
  -16.4836   69.7634   72.8833 C   0  0  0  0  0  0  0  0  0  0  0  0
  -15.2071   69.7309   73.5566 O   0  0  0  0  0  0  0  0  0  0  0  0
  -16.5677   68.6151   71.8837 C   0  0  0  0  0  0  0  0  0  0  0  0
  -16.1576   69.1899   70.6208 O   0  0  0  0  0  0  0  0  0  0  0  0
  -14.8791   71.7662   72.0351 H   0  0  0  0  0  0  0  0  0  0  0  0
  -14.4941   69.7687   72.9000 H   0  0  0  0  0  0  0  0  0  0  0  0
  -17.9555   67.9921   71.7509 C   0  0  0  0  0  0  0  0  0  0  0  0
  -17.9995   66.6002   72.1154 O   0  0  0  0  0  0  0  0  0  0  0  0
  -17.4248   66.0921   71.5218 H   0  0  0  0  0  0  0  0  0  0  0  0
  1  2  1  0  0  0
  1  6  1  0  0  0
  2  3  2  0  0  0
  3  4  1  0  0  0
  4  5  2  0  0  0
  4 10  1  0  0  0
  5  6  1  0  0  0
  5  8  1  0  0  0
  6  7  2  0  0  0
  8  9  1  0  0  0
  9 10  2  0  0  0
 10 13  1  0  0  0
 13 14  1  0  0  0
 13 19  1  0  0  0
 14 15  1  0  0  0
 14 16  1  0  0  0
 16 17  1  0  0  0
 16 18  1  0  0  0
 18 19  1  0  0  0
 18 22  1  0  0  0
 22 23  1  0  0  0
  1 11  1  0  0  0
  8 12  1  0  0  0
 15 20  1  0  0  0
 17 21  1  0  0  0
 23 24  1  0  0  0
M  END
> <minimizedAffinity>
-7.60685

$$$$
1A69_FMB_A_240


 24 26  0  0  0  0  0  0  0  0999 V2000
  -15.8090   70.0955   73.2761 N   0  0  0  0  0  0  0  0  0  0  0  0
  -16.1566   71.3014   72.7137 C   0  0  0  0  0  0  0  0  0  0  0  0
  -16.6938   71.4329   71.5036 N   0  0  0  0  0  0  0  0  0  0  0  0
  -16.8672   70.2384   70.9011 C   0  0  0  0  0  0  0  0  0  0  0  0
  -16.5526   68.9817   71.3802 C   0  0  0  0  0  0  0  0  0  0  0  0
  -15.9802   68.8551   72.6612 C   0  0  0  0  0  0  0  0  0  0  0  0
  -15.6394   67.8238   73.2472 O   0  0  0  0  0  0  0  0  0  0  0  0
  -16.8831   68.0020   70.4562 N   0  0  0  0  0  0  0  0  0  0  0  0
  -17.3791   68.6721   69.4449 N   0  0  0  0  0  0  0  0  0  0  0  0
  -17.3994   70.0395   69.6489 C   0  0  0  0  0  0  0  0  0  0  0  0
  -15.4111   70.1086   74.1765 H   0  0  0  0  0  0  0  0  0  0  0  0
  -16.7710   67.0275   70.5405 H   0  0  0  0  0  0  0  0  0  0  0  0
  -18.1441   70.6665   68.5283 C   0  0  0  0  0  0  0  0  0  0  0  0
  -18.7849   69.6406   67.6005 C   0  0  0  0  0  0  0  0  0  0  0  0
  -18.3095   69.8518   66.2854 O   0  0  0  0  0  0  0  0  0  0  0  0
  -20.3104   69.8331   67.7912 C   0  0  0  0  0  0  0  0  0  0  0  0
  -20.9571   70.4831   66.6761 O   0  0  0  0  0  0  0  0  0  0  0  0
  -20.4208   70.7108   69.0332 C   0  0  0  0  0  0  0  0  0  0  0  0
  -19.1867   71.4652   69.0670 O   0  0  0  0  0  0  0  0  0  0  0  0
  -18.4972   70.7646   66.0165 H   0  0  0  0  0  0  0  0  0  0  0  0
  -20.5617   71.3580   66.5382 H   0  0  0  0  0  0  0  0  0  0  0  0
  -20.6007   69.9398   70.3389 C   0  0  0  0  0  0  0  0  0  0  0  0
  -20.9078   68.5464   70.1476 O   0  0  0  0  0  0  0  0  0  0  0  0
  -21.7503   68.4630   69.6742 H   0  0  0  0  0  0  0  0  0  0  0  0
  1  2  1  0  0  0
  1  6  1  0  0  0
  2  3  2  0  0  0
  3  4  1  0  0  0
  4  5  2  0  0  0
  4 10  1  0  0  0
  5  6  1  0  0  0
  5  8  1  0  0  0
  6  7  2  0  0  0
  8  9  1  0  0  0
  9 10  2  0  0  0
 10 13  1  0  0  0
 13 14  1  0  0  0
 13 19  1  0  0  0
 14 15  1  0  0  0
 14 16  1  0  0  0
 16 17  1  0  0  0
 16 18  1  0  0  0
 18 19  1  0  0  0
 18 22  1  0  0  0
 22 23  1  0  0  0
  1 11  1  0  0  0
  8 12  1  0  0  0
 15 20  1  0  0  0
 17 21  1  0  0  0
 23 24  1  0  0  0
M  END
> <minimizedAffinity>
-7.43652

$$$$
1A69_FMB_A_240


 24 26  0  0  0  0  0  0  0  0999 V2000
  -20.0011   72.5554   64.1792 N   0  0  0  0  0  0  0  0  0  0  0  0
  -20.4639   71.3100   64.5341 C   0  0  0  0  0  0  0  0  0  0  0  0
  -19.8957   70.5381   65.4569 N   0  0  0  0  0  0  0  0  0  0  0  0
  -18.8180   71.1314   66.0104 C   0  0  0  0  0  0  0  0  0  0  0  0
  -18.2785   72.3703   65.7240 C   0  0  0  0  0  0  0  0  0  0  0  0
  -18.8862   73.1771   64.7419 C   0  0  0  0  0  0  0  0  0  0  0  0
  -18.5478   74.3006   64.3596 O   0  0  0  0  0  0  0  0  0  0  0  0
  -17.1637   72.6192   66.5101 N   0  0  0  0  0  0  0  0  0  0  0  0
  -17.0442   71.5400   67.2444 N   0  0  0  0  0  0  0  0  0  0  0  0
  -18.0192   70.5928   66.9915 C   0  0  0  0  0  0  0  0  0  0  0  0
  -20.4914   73.0429   63.4784 H   0  0  0  0  0  0  0  0  0  0  0  0
  -16.5933   73.4216   66.5155 H   0  0  0  0  0  0  0  0  0  0  0  0
  -17.8909   69.5118   68.0007 C   0  0  0  0  0  0  0  0  0  0  0  0
  -17.2995   70.0027   69.3172 C   0  0  0  0  0  0  0  0  0  0  0  0
  -16.1364   69.2518   69.6056 O   0  0  0  0  0  0  0  0  0  0  0  0
  -18.4502   69.8606   70.3451 C   0  0  0  0  0  0  0  0  0  0  0  0
  -18.2720   68.7648   71.2678 O   0  0  0  0  0  0  0  0  0  0  0  0
  -19.6860   69.6147   69.4864 C   0  0  0  0  0  0  0  0  0  0  0  0
  -19.1835   68.9953   68.2792 O   0  0  0  0  0  0  0  0  0  0  0  0
  -16.3580   68.3076   69.6268 H   0  0  0  0  0  0  0  0  0  0  0  0
  -18.2103   67.9326   70.7733 H   0  0  0  0  0  0  0  0  0  0  0  0
  -20.4767   70.8743   69.1401 C   0  0  0  0  0  0  0  0  0  0  0  0
  -21.5527   70.6423   68.2123 O   0  0  0  0  0  0  0  0  0  0  0  0
  -21.1912   70.3189   67.3722 H   0  0  0  0  0  0  0  0  0  0  0  0
  1  2  1  0  0  0
  1  6  1  0  0  0
  2  3  2  0  0  0
  3  4  1  0  0  0
  4  5  2  0  0  0
  4 10  1  0  0  0
  5  6  1  0  0  0
  5  8  1  0  0  0
  6  7  2  0  0  0
  8  9  1  0  0  0
  9 10  2  0  0  0
 10 13  1  0  0  0
 13 14  1  0  0  0
 13 19  1  0  0  0
 14 15  1  0  0  0
 14 16  1  0  0  0
 16 17  1  0  0  0
 16 18  1  0  0  0
 18 19  1  0  0  0
 18 22  1  0  0  0
 22 23  1  0  0  0
  1 11  1  0  0  0
  8 12  1  0  0  0
 15 20  1  0  0  0
 17 21  1  0  0  0
 23 24  1  0  0  0
M  END
> <minimizedAffinity>
-7.40568

$$$$
1A69_FMB_A_240


 24 26  0  0  0  0  0  0  0  0999 V2000
  -16.1547   68.4418   72.9160 N   0  0  0  0  0  0  0  0  0  0  0  0
  -16.8584   67.4847   72.2232 C   0  0  0  0  0  0  0  0  0  0  0  0
  -17.8307   67.7553   71.3563 N   0  0  0  0  0  0  0  0  0  0  0  0
  -18.0334   69.0831   71.2308 C   0  0  0  0  0  0  0  0  0  0  0  0
  -17.3831   70.1156   71.8781 C   0  0  0  0  0  0  0  0  0  0  0  0
  -16.3580   69.8168   72.7971 C   0  0  0  0  0  0  0  0  0  0  0  0
  -15.6737   70.6012   73.4600 O   0  0  0  0  0  0  0  0  0  0  0  0
  -17.8839   71.3451   71.4778 N   0  0  0  0  0  0  0  0  0  0  0  0
  -18.8201   71.0413   70.6122 N   0  0  0  0  0  0  0  0  0  0  0  0
  -18.9643   69.6805   70.4140 C   0  0  0  0  0  0  0  0  0  0  0  0
  -15.4580   68.1348   73.5402 H   0  0  0  0  0  0  0  0  0  0  0  0
  -17.6014   72.2401   71.7752 H   0  0  0  0  0  0  0  0  0  0  0  0
  -19.9117   69.4715   69.2904 C   0  0  0  0  0  0  0  0  0  0  0  0
  -20.4128   70.7808   68.6917 C   0  0  0  0  0  0  0  0  0  0  0  0
  -21.8249   70.8068   68.7632 O   0  0  0  0  0  0  0  0  0  0  0  0
  -19.8223   70.8125   67.2595 C   0  0  0  0  0  0  0  0  0  0  0  0
  -20.7972   70.5634   66.2244 O   0  0  0  0  0  0  0  0  0  0  0  0
  -18.7801   69.6994   67.2636 C   0  0  0  0  0  0  0  0  0  0  0  0
  -19.2438   68.7587   68.2604 O   0  0  0  0  0  0  0  0  0  0  0  0
  -22.1860   70.0288   68.3102 H   0  0  0  0  0  0  0  0  0  0  0  0
  -21.1987   69.6911   66.3615 H   0  0  0  0  0  0  0  0  0  0  0  0
  -17.3630   70.1608   67.5962 C   0  0  0  0  0  0  0  0  0  0  0  0
  -17.2656   71.5704   67.8715 O   0  0  0  0  0  0  0  0  0  0  0  0
  -17.5281   72.0725   67.0841 H   0  0  0  0  0  0  0  0  0  0  0  0
  1  2  1  0  0  0
  1  6  1  0  0  0
  2  3  2  0  0  0
  3  4  1  0  0  0
  4  5  2  0  0  0
  4 10  1  0  0  0
  5  6  1  0  0  0
  5  8  1  0  0  0
  6  7  2  0  0  0
  8  9  1  0  0  0
  9 10  2  0  0  0
 10 13  1  0  0  0
 13 14  1  0  0  0
 13 19  1  0  0  0
 14 15  1  0  0  0
 14 16  1  0  0  0
 16 17  1  0  0  0
 16 18  1  0  0  0
 18 19  1  0  0  0
 18 22  1  0  0  0
 22 23  1  0  0  0
  1 11  1  0  0  0
  8 12  1  0  0  0
 15 20  1  0  0  0
 17 21  1  0  0  0
 23 24  1  0  0  0
M  END
> <minimizedAffinity>
-6.82020

$$$$
