3NYX_TZ1_A_1


 26 29  0  0  0  0  0  0  0  0999 V2000
    7.1648    7.2400   19.9952 N   0  0  0  0  0  0  0  0  0  0  0  0
    7.2768    7.3326   22.5856 S   0  0  0  0  0  0  0  0  0  0  0  0
    6.6247    8.4979   20.3613 N   0  0  0  0  0  0  0  0  0  0  0  0
    6.6395    8.6781   21.7099 C   0  0  0  0  0  0  0  0  0  0  0  0
    7.5385    6.5260   21.0854 C   0  0  0  0  0  0  0  0  0  0  0  0
    6.4331    4.0147   21.7478 O   0  0  0  0  0  0  0  0  0  0  0  0
    8.0900    5.2966   20.9274 N   0  0  0  0  0  0  0  0  0  0  0  0
    7.5385    4.1345   21.2564 C   0  0  0  0  0  0  0  0  0  0  0  0
    8.9896    5.2627   20.5288 H   0  0  0  0  0  0  0  0  0  0  0  0
    8.2396    1.6634   22.0506 S   0  0  0  0  0  0  0  0  0  0  0  0
    8.3263    2.9396   20.9999 C   0  0  0  0  0  0  0  0  0  0  0  0
    9.1073    2.7627   20.0031 C   0  0  0  0  0  0  0  0  0  0  0  0
    9.6077    1.5740   20.0372 C   0  0  0  0  0  0  0  0  0  0  0  0
    9.3301    0.8187   21.1207 C   0  0  0  0  0  0  0  0  0  0  0  0
    6.0402   10.1351   22.4629 S   0  0  0  0  0  0  0  0  0  0  0  0
    6.9267   15.1492   22.4520 C   0  0  0  0  0  0  0  0  0  0  0  0
    8.4952   13.7115   21.4414 N   0  0  0  0  0  0  0  0  0  0  0  0
    5.1875   16.9339   23.5335 Cl  0  0  0  0  0  0  0  0  0  0  0  0
    7.3365   13.8690   22.1117 C   0  0  0  0  0  0  0  0  0  0  0  0
    6.5439   12.7630   22.4397 C   0  0  0  0  0  0  0  0  0  0  0  0
    5.3350   12.9185   23.1198 C   0  0  0  0  0  0  0  0  0  0  0  0
    4.9159   14.1978   23.4655 C   0  0  0  0  0  0  0  0  0  0  0  0
    5.7143   15.2938   23.1129 C   0  0  0  0  0  0  0  0  0  0  0  0
    8.9380   12.4960   21.0856 C   0  0  0  0  0  0  0  0  0  0  0  0
    8.1873   11.3601   21.3870 C   0  0  0  0  0  0  0  0  0  0  0  0
    6.9785   11.4909   22.0744 C   0  0  0  0  0  0  0  0  0  0  0  0
 19 16  2  0  0  0
 16 23  1  0  0  0
 24 17  2  0  0  0
 17 19  1  0  0  0
  8  6  2  0  0  0
  4 15  1  0  0  0
 26 15  1  0  0  0
 23 18  1  0  0  0
 19 20  1  0  0  0
  1  3  1  0  0  0
  1  5  2  0  0  0
  5  2  1  0  0  0
  4  2  1  0  0  0
 26 20  1  0  0  0
 20 21  2  0  0  0
  3  4  2  0  0  0
 14 10  1  0  0  0
 11 10  1  0  0  0
 21 22  1  0  0  0
  7  5  1  0  0  0
  7  8  1  0  0  0
 23 22  2  0  0  0
 24 25  1  0  0  0
 25 26  2  0  0  0
 11  8  1  0  0  0
 12 11  2  0  0  0
 13 12  1  0  0  0
 13 14  2  0  0  0
  7  9  1  0  0  0
M  END
> <minimizedAffinity>
-10.43686

$$$$
3NYX_TZ1_A_1


 26 29  0  0  0  0  0  0  0  0999 V2000
    6.2171   15.0603   22.5052 N   0  0  0  0  0  0  0  0  0  0  0  0
    4.5178   13.1853   23.0778 S   0  0  0  0  0  0  0  0  0  0  0  0
    6.9798   13.8732   22.6351 N   0  0  0  0  0  0  0  0  0  0  0  0
    6.1947   12.8003   22.9246 C   0  0  0  0  0  0  0  0  0  0  0  0
    4.8996   14.8283   22.7252 C   0  0  0  0  0  0  0  0  0  0  0  0
    3.9032   16.4746   24.7902 O   0  0  0  0  0  0  0  0  0  0  0  0
    4.0120   15.8500   22.6315 N   0  0  0  0  0  0  0  0  0  0  0  0
    3.5627   16.6010   23.6301 C   0  0  0  0  0  0  0  0  0  0  0  0
    3.6662   16.0553   21.7328 H   0  0  0  0  0  0  0  0  0  0  0  0
    1.1268   17.2146   22.6719 S   0  0  0  0  0  0  0  0  0  0  0  0
    2.6032   17.6388   23.2888 C   0  0  0  0  0  0  0  0  0  0  0  0
    2.7867   18.8967   23.4264 C   0  0  0  0  0  0  0  0  0  0  0  0
    1.7202   19.5400   23.0897 C   0  0  0  0  0  0  0  0  0  0  0  0
    0.7051   18.8205   22.5668 C   0  0  0  0  0  0  0  0  0  0  0  0
    6.8499   11.1963   23.1413 S   0  0  0  0  0  0  0  0  0  0  0  0
    6.8632    6.6624   20.8238 C   0  0  0  0  0  0  0  0  0  0  0  0
    6.0094    8.5303   19.6704 N   0  0  0  0  0  0  0  0  0  0  0  0
    7.8601    4.4294   22.0070 Cl  0  0  0  0  0  0  0  0  0  0  0  0
    6.5568    8.0142   20.7887 C   0  0  0  0  0  0  0  0  0  0  0  0
    6.8362    8.8307   21.8908 C   0  0  0  0  0  0  0  0  0  0  0  0
    7.4173    8.3075   23.0469 C   0  0  0  0  0  0  0  0  0  0  0  0
    7.7278    6.9534   23.0917 C   0  0  0  0  0  0  0  0  0  0  0  0
    7.4570    6.1559   21.9721 C   0  0  0  0  0  0  0  0  0  0  0  0
    5.6951    9.8316   19.5814 C   0  0  0  0  0  0  0  0  0  0  0  0
    5.9526   10.6899   20.6500 C   0  0  0  0  0  0  0  0  0  0  0  0
    6.5260   10.1869   21.8200 C   0  0  0  0  0  0  0  0  0  0  0  0
 19 16  2  0  0  0
 16 23  1  0  0  0
 24 17  2  0  0  0
 17 19  1  0  0  0
  8  6  2  0  0  0
  4 15  1  0  0  0
 26 15  1  0  0  0
 23 18  1  0  0  0
 19 20  1  0  0  0
  1  3  1  0  0  0
  1  5  2  0  0  0
  5  2  1  0  0  0
  4  2  1  0  0  0
 26 20  1  0  0  0
 20 21  2  0  0  0
  3  4  2  0  0  0
 14 10  1  0  0  0
 11 10  1  0  0  0
 21 22  1  0  0  0
  7  5  1  0  0  0
  7  8  1  0  0  0
 23 22  2  0  0  0
 24 25  1  0  0  0
 25 26  2  0  0  0
 11  8  1  0  0  0
 12 11  2  0  0  0
 13 12  1  0  0  0
 13 14  2  0  0  0
  7  9  1  0  0  0
M  END
> <minimizedAffinity>
-7.55785

$$$$
