3AO4_833_A_1


 18 20  0  0  0  0  0  0  0  0999 V2000
   -0.4538   11.1364   -6.1906 C   0  0  0  0  0  0  0  0  0  0  0  0
   -0.9188   10.0048   -5.4698 C   0  0  0  0  0  0  0  0  0  0  0  0
   -1.9137   10.1395   -4.4480 C   0  0  0  0  0  0  0  0  0  0  0  0
   -2.4848   11.3692   -4.0986 C   0  0  0  0  0  0  0  0  0  0  0  0
   -2.0491   12.4828   -4.7886 C   0  0  0  0  0  0  0  0  0  0  0  0
   -1.0354   12.3626   -5.8590 C   0  0  0  0  0  0  0  0  0  0  0  0
   -0.8161   13.6330   -6.3423 O   0  0  0  0  0  0  0  0  0  0  0  0
   -1.7519   14.5428   -5.7020 C   0  0  0  0  0  0  0  0  0  0  0  0
   -2.3970   13.8089   -4.6530 O   0  0  0  0  0  0  0  0  0  0  0  0
   -0.3798    8.6405   -5.7558 C   0  0  0  0  0  0  0  0  0  0  0  0
   -0.2303    8.0791   -7.0378 C   0  0  0  0  0  0  0  0  0  0  0  0
    0.3080    6.8081   -6.8358 C   0  0  0  0  0  0  0  0  0  0  0  0
    0.4995    6.5786   -5.5385 N   0  0  0  0  0  0  0  0  0  0  0  0
    0.0597    7.7211   -4.8271 N   0  0  0  0  0  0  0  0  0  0  0  0
    0.6201    5.9024   -7.8244 N   0  0  0  0  0  0  0  0  0  0  0  0
    1.0191    5.4233   -4.7441 C   0  0  0  0  0  0  0  0  0  0  0  0
    0.4559    6.1281   -8.7685 H   0  0  0  0  0  0  0  0  0  0  0  0
    1.0075    5.0289   -7.5873 H   0  0  0  0  0  0  0  0  0  0  0  0
  1  2  2  0  0  0
  1  6  1  0  0  0
  2  3  1  0  0  0
  2 10  1  0  0  0
  3  4  2  0  0  0
  4  5  1  0  0  0
  5  6  2  0  0  0
  5  9  1  0  0  0
  6  7  1  0  0  0
  7  8  1  0  0  0
  8  9  1  0  0  0
 10 11  1  0  0  0
 10 14  2  0  0  0
 11 12  2  0  0  0
 12 13  1  0  0  0
 12 15  1  0  0  0
 13 14  1  0  0  0
 13 16  1  0  0  0
 15 17  1  0  0  0
 15 18  1  0  0  0
M  END
> <minimizedAffinity>
-7.86761

$$$$
3AO4_833_A_1


 18 20  0  0  0  0  0  0  0  0999 V2000
    0.3808    9.1805   -7.8878 C   0  0  0  0  0  0  0  0  0  0  0  0
    0.4943   10.5847   -7.7090 C   0  0  0  0  0  0  0  0  0  0  0  0
    1.4951   11.3378   -8.4043 C   0  0  0  0  0  0  0  0  0  0  0  0
    2.4089   10.7542   -9.2900 C   0  0  0  0  0  0  0  0  0  0  0  0
    2.3151    9.3901   -9.4809 C   0  0  0  0  0  0  0  0  0  0  0  0
    1.2779    8.5970   -8.7859 C   0  0  0  0  0  0  0  0  0  0  0  0
    1.4487    7.2887   -9.1794 O   0  0  0  0  0  0  0  0  0  0  0  0
    2.4803    7.2411  -10.2024 C   0  0  0  0  0  0  0  0  0  0  0  0
    3.0784    8.5429  -10.2541 O   0  0  0  0  0  0  0  0  0  0  0  0
   -0.4265   11.3159   -6.7866 C   0  0  0  0  0  0  0  0  0  0  0  0
   -1.0325   10.7667   -5.6410 C   0  0  0  0  0  0  0  0  0  0  0  0
   -1.7955   11.7937   -5.0851 C   0  0  0  0  0  0  0  0  0  0  0  0
   -1.6793   12.9085   -5.8036 N   0  0  0  0  0  0  0  0  0  0  0  0
   -0.8252   12.6310   -6.8983 N   0  0  0  0  0  0  0  0  0  0  0  0
   -2.5606   11.6981   -3.9447 N   0  0  0  0  0  0  0  0  0  0  0  0
   -2.2577   14.2838   -5.7052 C   0  0  0  0  0  0  0  0  0  0  0  0
   -2.6083   10.8459   -3.4540 H   0  0  0  0  0  0  0  0  0  0  0  0
   -3.0599   12.4819   -3.6198 H   0  0  0  0  0  0  0  0  0  0  0  0
  1  2  2  0  0  0
  1  6  1  0  0  0
  2  3  1  0  0  0
  2 10  1  0  0  0
  3  4  2  0  0  0
  4  5  1  0  0  0
  5  6  2  0  0  0
  5  9  1  0  0  0
  6  7  1  0  0  0
  7  8  1  0  0  0
  8  9  1  0  0  0
 10 11  1  0  0  0
 10 14  2  0  0  0
 11 12  2  0  0  0
 12 13  1  0  0  0
 12 15  1  0  0  0
 13 14  1  0  0  0
 13 16  1  0  0  0
 15 17  1  0  0  0
 15 18  1  0  0  0
M  END
> <minimizedAffinity>
-7.24727

$$$$
3AO4_833_A_1


 18 20  0  0  0  0  0  0  0  0999 V2000
   -1.0719   10.7147   -5.9826 C   0  0  0  0  0  0  0  0  0  0  0  0
   -0.0481   10.4716   -6.9361 C   0  0  0  0  0  0  0  0  0  0  0  0
    0.7273   11.5484   -7.4758 C   0  0  0  0  0  0  0  0  0  0  0  0
    0.5346   12.8852   -7.1068 C   0  0  0  0  0  0  0  0  0  0  0  0
   -0.4542   13.1444   -6.1787 C   0  0  0  0  0  0  0  0  0  0  0  0
   -1.2543   12.0449   -5.5966 C   0  0  0  0  0  0  0  0  0  0  0  0
   -2.1447   12.6232   -4.7201 O   0  0  0  0  0  0  0  0  0  0  0  0
   -1.8517   14.0441   -4.6285 C   0  0  0  0  0  0  0  0  0  0  0  0
   -0.8902   14.3395   -5.6500 O   0  0  0  0  0  0  0  0  0  0  0  0
    0.2466    9.0839   -7.4060 C   0  0  0  0  0  0  0  0  0  0  0  0
   -0.3484    7.9124   -6.9013 C   0  0  0  0  0  0  0  0  0  0  0  0
    0.2106    6.8595   -7.6257 C   0  0  0  0  0  0  0  0  0  0  0  0
    1.0790    7.3159   -8.5257 N   0  0  0  0  0  0  0  0  0  0  0  0
    1.1316    8.7254   -8.4005 N   0  0  0  0  0  0  0  0  0  0  0  0
   -0.0872    5.5255   -7.4619 N   0  0  0  0  0  0  0  0  0  0  0  0
    1.9668    6.6754   -9.5441 C   0  0  0  0  0  0  0  0  0  0  0  0
   -0.7389    5.2469   -6.7786 H   0  0  0  0  0  0  0  0  0  0  0  0
    0.3515    4.8501   -8.0281 H   0  0  0  0  0  0  0  0  0  0  0  0
  1  2  2  0  0  0
  1  6  1  0  0  0
  2  3  1  0  0  0
  2 10  1  0  0  0
  3  4  2  0  0  0
  4  5  1  0  0  0
  5  6  2  0  0  0
  5  9  1  0  0  0
  6  7  1  0  0  0
  7  8  1  0  0  0
  8  9  1  0  0  0
 10 11  1  0  0  0
 10 14  2  0  0  0
 11 12  2  0  0  0
 12 13  1  0  0  0
 12 15  1  0  0  0
 13 14  1  0  0  0
 13 16  1  0  0  0
 15 17  1  0  0  0
 15 18  1  0  0  0
M  END
> <minimizedAffinity>
-7.18607

$$$$
3AO4_833_A_1


 18 20  0  0  0  0  0  0  0  0999 V2000
    0.5218    9.6745   -8.0894 C   0  0  0  0  0  0  0  0  0  0  0  0
    0.5942   11.0112   -7.6156 C   0  0  0  0  0  0  0  0  0  0  0  0
    1.5798   11.9199   -8.1205 C   0  0  0  0  0  0  0  0  0  0  0  0
    2.5179   11.5609   -9.0959 C   0  0  0  0  0  0  0  0  0  0  0  0
    2.4642   10.2664   -9.5728 C   0  0  0  0  0  0  0  0  0  0  0  0
    1.4432    9.3178   -9.0771 C   0  0  0  0  0  0  0  0  0  0  0  0
    1.6543    8.1275   -9.7361 O   0  0  0  0  0  0  0  0  0  0  0  0
    2.6963    8.3242  -10.7304 C   0  0  0  0  0  0  0  0  0  0  0  0
    3.2581    9.6222  -10.4963 O   0  0  0  0  0  0  0  0  0  0  0  0
   -0.3554   11.5065   -6.5733 C   0  0  0  0  0  0  0  0  0  0  0  0
   -0.7225   12.8519   -6.3831 C   0  0  0  0  0  0  0  0  0  0  0  0
   -1.6234   12.8533   -5.3181 C   0  0  0  0  0  0  0  0  0  0  0  0
   -1.8269   11.6156   -4.8719 N   0  0  0  0  0  0  0  0  0  0  0  0
   -1.0244   10.7400   -5.6428 N   0  0  0  0  0  0  0  0  0  0  0  0
   -2.2413   13.9648   -4.7911 N   0  0  0  0  0  0  0  0  0  0  0  0
   -2.6510   11.0188   -3.7762 C   0  0  0  0  0  0  0  0  0  0  0  0
   -2.0512   14.8564   -5.1629 H   0  0  0  0  0  0  0  0  0  0  0  0
   -2.8732   13.8682   -4.0424 H   0  0  0  0  0  0  0  0  0  0  0  0
  1  2  2  0  0  0
  1  6  1  0  0  0
  2  3  1  0  0  0
  2 10  1  0  0  0
  3  4  2  0  0  0
  4  5  1  0  0  0
  5  6  2  0  0  0
  5  9  1  0  0  0
  6  7  1  0  0  0
  7  8  1  0  0  0
  8  9  1  0  0  0
 10 11  1  0  0  0
 10 14  2  0  0  0
 11 12  2  0  0  0
 12 13  1  0  0  0
 12 15  1  0  0  0
 13 14  1  0  0  0
 13 16  1  0  0  0
 15 17  1  0  0  0
 15 18  1  0  0  0
M  END
> <minimizedAffinity>
-7.10981

$$$$
3AO4_833_A_1


 18 20  0  0  0  0  0  0  0  0999 V2000
    0.6230    9.7942   -8.1015 C   0  0  0  0  0  0  0  0  0  0  0  0
   -0.1427    9.4321   -6.9617 C   0  0  0  0  0  0  0  0  0  0  0  0
   -0.2465    8.0647   -6.5475 C   0  0  0  0  0  0  0  0  0  0  0  0
    0.3875    7.0144   -7.2223 C   0  0  0  0  0  0  0  0  0  0  0  0
    1.1395    7.3440   -8.3321 C   0  0  0  0  0  0  0  0  0  0  0  0
    1.2736    8.7517   -8.7661 C   0  0  0  0  0  0  0  0  0  0  0  0
    2.0723    8.7469   -9.8875 O   0  0  0  0  0  0  0  0  0  0  0  0
    2.5573    7.3943  -10.1079 C   0  0  0  0  0  0  0  0  0  0  0  0
    1.8440    6.5416   -9.2027 O   0  0  0  0  0  0  0  0  0  0  0  0
   -0.8649   10.4689   -6.1637 C   0  0  0  0  0  0  0  0  0  0  0  0
   -1.4841   10.2495   -4.9189 C   0  0  0  0  0  0  0  0  0  0  0  0
   -2.0229   11.4792   -4.5403 C   0  0  0  0  0  0  0  0  0  0  0  0
   -1.7614   12.4098   -5.4557 N   0  0  0  0  0  0  0  0  0  0  0  0
   -1.0373   11.7936   -6.5049 N   0  0  0  0  0  0  0  0  0  0  0  0
   -2.7208   11.7265   -3.3797 N   0  0  0  0  0  0  0  0  0  0  0  0
   -2.0871   13.8624   -5.5963 C   0  0  0  0  0  0  0  0  0  0  0  0
   -2.8841   10.9974   -2.7387 H   0  0  0  0  0  0  0  0  0  0  0  0
   -3.0567   12.6325   -3.1908 H   0  0  0  0  0  0  0  0  0  0  0  0
  1  2  2  0  0  0
  1  6  1  0  0  0
  2  3  1  0  0  0
  2 10  1  0  0  0
  3  4  2  0  0  0
  4  5  1  0  0  0
  5  6  2  0  0  0
  5  9  1  0  0  0
  6  7  1  0  0  0
  7  8  1  0  0  0
  8  9  1  0  0  0
 10 11  1  0  0  0
 10 14  2  0  0  0
 11 12  2  0  0  0
 12 13  1  0  0  0
 12 15  1  0  0  0
 13 14  1  0  0  0
 13 16  1  0  0  0
 15 17  1  0  0  0
 15 18  1  0  0  0
M  END
> <minimizedAffinity>
-7.03244

$$$$
3AO4_833_A_1


 18 20  0  0  0  0  0  0  0  0999 V2000
   -0.1556   11.7584   -7.2360 C   0  0  0  0  0  0  0  0  0  0  0  0
   -0.1846   10.3643   -6.9678 C   0  0  0  0  0  0  0  0  0  0  0  0
   -0.8843    9.8470   -5.8298 C   0  0  0  0  0  0  0  0  0  0  0  0
   -1.5740   10.6625   -4.9246 C   0  0  0  0  0  0  0  0  0  0  0  0
   -1.5612   12.0215   -5.1675 C   0  0  0  0  0  0  0  0  0  0  0  0
   -0.8593   12.5741   -6.3464 C   0  0  0  0  0  0  0  0  0  0  0  0
   -1.0277   13.9399   -6.3043 O   0  0  0  0  0  0  0  0  0  0  0  0
   -1.9233   14.2650   -5.2063 C   0  0  0  0  0  0  0  0  0  0  0  0
   -2.1148   13.0608   -4.4524 O   0  0  0  0  0  0  0  0  0  0  0  0
    0.5178    9.3973   -7.8650 C   0  0  0  0  0  0  0  0  0  0  0  0
    0.4516    7.9954   -7.7580 C   0  0  0  0  0  0  0  0  0  0  0  0
    1.2453    7.4973   -8.7914 C   0  0  0  0  0  0  0  0  0  0  0  0
    1.7651    8.4922   -9.5073 N   0  0  0  0  0  0  0  0  0  0  0  0
    1.3299    9.7115   -8.9339 N   0  0  0  0  0  0  0  0  0  0  0  0
    1.4659    6.1660   -9.0637 N   0  0  0  0  0  0  0  0  0  0  0  0
    2.6768    8.5672  -10.6900 C   0  0  0  0  0  0  0  0  0  0  0  0
    1.0541    5.4732   -8.4983 H   0  0  0  0  0  0  0  0  0  0  0  0
    2.0354    5.9068   -9.8237 H   0  0  0  0  0  0  0  0  0  0  0  0
  1  2  2  0  0  0
  1  6  1  0  0  0
  2  3  1  0  0  0
  2 10  1  0  0  0
  3  4  2  0  0  0
  4  5  1  0  0  0
  5  6  2  0  0  0
  5  9  1  0  0  0
  6  7  1  0  0  0
  7  8  1  0  0  0
  8  9  1  0  0  0
 10 11  1  0  0  0
 10 14  2  0  0  0
 11 12  2  0  0  0
 12 13  1  0  0  0
 12 15  1  0  0  0
 13 14  1  0  0  0
 13 16  1  0  0  0
 15 17  1  0  0  0
 15 18  1  0  0  0
M  END
> <minimizedAffinity>
-7.02268

$$$$
3AO4_833_A_1


 18 20  0  0  0  0  0  0  0  0999 V2000
    0.8714   10.9332   -8.3632 C   0  0  0  0  0  0  0  0  0  0  0  0
    0.0526   10.3149   -7.3815 C   0  0  0  0  0  0  0  0  0  0  0  0
   -0.0596    8.8887   -7.3071 C   0  0  0  0  0  0  0  0  0  0  0  0
    0.6170    8.0253   -8.1771 C   0  0  0  0  0  0  0  0  0  0  0  0
    1.4211    8.6049   -9.1381 C   0  0  0  0  0  0  0  0  0  0  0  0
    1.5640   10.0748   -9.2207 C   0  0  0  0  0  0  0  0  0  0  0  0
    2.4183   10.3321  -10.2693 O   0  0  0  0  0  0  0  0  0  0  0  0
    2.9260    9.0682  -10.7772 C   0  0  0  0  0  0  0  0  0  0  0  0
    2.1757    8.0283  -10.1361 O   0  0  0  0  0  0  0  0  0  0  0  0
   -0.7183   11.1365   -6.3996 C   0  0  0  0  0  0  0  0  0  0  0  0
   -1.3698   10.6360   -5.2568 C   0  0  0  0  0  0  0  0  0  0  0  0
   -1.9492   11.7418   -4.6345 C   0  0  0  0  0  0  0  0  0  0  0  0
   -1.6822   12.8567   -5.3114 N   0  0  0  0  0  0  0  0  0  0  0  0
   -0.9119   12.5008   -6.4450 N   0  0  0  0  0  0  0  0  0  0  0  0
   -2.6879   11.7136   -3.4732 N   0  0  0  0  0  0  0  0  0  0  0  0
   -2.0382   14.2985   -5.1384 C   0  0  0  0  0  0  0  0  0  0  0  0
   -2.8531   10.8577   -3.0156 H   0  0  0  0  0  0  0  0  0  0  0  0
   -3.0509   12.5493   -3.1003 H   0  0  0  0  0  0  0  0  0  0  0  0
  1  2  2  0  0  0
  1  6  1  0  0  0
  2  3  1  0  0  0
  2 10  1  0  0  0
  3  4  2  0  0  0
  4  5  1  0  0  0
  5  6  2  0  0  0
  5  9  1  0  0  0
  6  7  1  0  0  0
  7  8  1  0  0  0
  8  9  1  0  0  0
 10 11  1  0  0  0
 10 14  2  0  0  0
 11 12  2  0  0  0
 12 13  1  0  0  0
 12 15  1  0  0  0
 13 14  1  0  0  0
 13 16  1  0  0  0
 15 17  1  0  0  0
 15 18  1  0  0  0
M  END
> <minimizedAffinity>
-6.78326

$$$$
3AO4_833_A_1


 18 20  0  0  0  0  0  0  0  0999 V2000
   -0.0076   11.6580   -7.6868 C   0  0  0  0  0  0  0  0  0  0  0  0
    0.2659   10.2715   -7.5487 C   0  0  0  0  0  0  0  0  0  0  0  0
   -0.2498    9.5253   -6.4399 C   0  0  0  0  0  0  0  0  0  0  0  0
   -1.0430   10.0989   -5.4390 C   0  0  0  0  0  0  0  0  0  0  0  0
   -1.3237   11.4458   -5.5546 C   0  0  0  0  0  0  0  0  0  0  0  0
   -0.8153   12.2302   -6.7009 C   0  0  0  0  0  0  0  0  0  0  0  0
   -1.2592   13.5217   -6.5259 O   0  0  0  0  0  0  0  0  0  0  0  0
   -2.1420   13.5583   -5.3716 C   0  0  0  0  0  0  0  0  0  0  0  0
   -2.0403   12.2820   -4.7268 O   0  0  0  0  0  0  0  0  0  0  0  0
    1.1031    9.5522   -8.5563 C   0  0  0  0  0  0  0  0  0  0  0  0
    1.7705   10.1574   -9.6377 C   0  0  0  0  0  0  0  0  0  0  0  0
    2.4272    9.1238  -10.3057 C   0  0  0  0  0  0  0  0  0  0  0  0
    2.2111    7.9587   -9.6988 N   0  0  0  0  0  0  0  0  0  0  0  0
    1.3626    8.1986   -8.5908 N   0  0  0  0  0  0  0  0  0  0  0  0
    3.2082    9.2639  -11.4307 N   0  0  0  0  0  0  0  0  0  0  0  0
    2.6316    6.5476   -9.9588 C   0  0  0  0  0  0  0  0  0  0  0  0
    3.3320   10.1523  -11.8364 H   0  0  0  0  0  0  0  0  0  0  0  0
    3.6428    8.4757  -11.8295 H   0  0  0  0  0  0  0  0  0  0  0  0
  1  2  2  0  0  0
  1  6  1  0  0  0
  2  3  1  0  0  0
  2 10  1  0  0  0
  3  4  2  0  0  0
  4  5  1  0  0  0
  5  6  2  0  0  0
  5  9  1  0  0  0
  6  7  1  0  0  0
  7  8  1  0  0  0
  8  9  1  0  0  0
 10 11  1  0  0  0
 10 14  2  0  0  0
 11 12  2  0  0  0
 12 13  1  0  0  0
 12 15  1  0  0  0
 13 14  1  0  0  0
 13 16  1  0  0  0
 15 17  1  0  0  0
 15 18  1  0  0  0
M  END
> <minimizedAffinity>
-6.68794

$$$$
3AO4_833_A_1


 18 20  0  0  0  0  0  0  0  0999 V2000
    0.8056   11.0038   -8.1343 C   0  0  0  0  0  0  0  0  0  0  0  0
   -0.0059   10.2819   -7.2196 C   0  0  0  0  0  0  0  0  0  0  0  0
   -0.0948    8.8534   -7.2814 C   0  0  0  0  0  0  0  0  0  0  0  0
    0.5986    8.0876   -8.2263 C   0  0  0  0  0  0  0  0  0  0  0  0
    1.3960    8.7688   -9.1242 C   0  0  0  0  0  0  0  0  0  0  0  0
    1.5149   10.2420   -9.0661 C   0  0  0  0  0  0  0  0  0  0  0  0
    2.3681   10.6116  -10.0816 O   0  0  0  0  0  0  0  0  0  0  0  0
    2.8981    9.4100  -10.7049 C   0  0  0  0  0  0  0  0  0  0  0  0
    2.1631    8.3019  -10.1689 O   0  0  0  0  0  0  0  0  0  0  0  0
   -0.7933   10.9939   -6.1677 C   0  0  0  0  0  0  0  0  0  0  0  0
   -0.9929   12.3859   -6.1060 C   0  0  0  0  0  0  0  0  0  0  0  0
   -1.7834   12.6070   -4.9782 C   0  0  0  0  0  0  0  0  0  0  0  0
   -2.0766   11.4566   -4.3756 N   0  0  0  0  0  0  0  0  0  0  0  0
   -1.4503   10.4153   -5.1025 N   0  0  0  0  0  0  0  0  0  0  0  0
   -2.2246   13.8335   -4.5353 N   0  0  0  0  0  0  0  0  0  0  0  0
   -2.8530   11.0814   -3.1541 C   0  0  0  0  0  0  0  0  0  0  0  0
   -1.9752   14.6517   -5.0227 H   0  0  0  0  0  0  0  0  0  0  0  0
   -2.7895   13.8925   -3.7312 H   0  0  0  0  0  0  0  0  0  0  0  0
  1  2  2  0  0  0
  1  6  1  0  0  0
  2  3  1  0  0  0
  2 10  1  0  0  0
  3  4  2  0  0  0
  4  5  1  0  0  0
  5  6  2  0  0  0
  5  9  1  0  0  0
  6  7  1  0  0  0
  7  8  1  0  0  0
  8  9  1  0  0  0
 10 11  1  0  0  0
 10 14  2  0  0  0
 11 12  2  0  0  0
 12 13  1  0  0  0
 12 15  1  0  0  0
 13 14  1  0  0  0
 13 16  1  0  0  0
 15 17  1  0  0  0
 15 18  1  0  0  0
M  END
> <minimizedAffinity>
-6.62589

$$$$
3AO4_833_A_1


 18 20  0  0  0  0  0  0  0  0999 V2000
   -0.5251    9.4713   -6.2797 C   0  0  0  0  0  0  0  0  0  0  0  0
    0.0571   10.0555   -7.4356 C   0  0  0  0  0  0  0  0  0  0  0  0
   -0.1162   11.4478   -7.7247 C   0  0  0  0  0  0  0  0  0  0  0  0
   -0.8541   12.3098   -6.9045 C   0  0  0  0  0  0  0  0  0  0  0  0
   -1.4271   11.7634   -5.7735 C   0  0  0  0  0  0  0  0  0  0  0  0
   -1.2456   10.3320   -5.4479 C   0  0  0  0  0  0  0  0  0  0  0  0
   -1.9329   10.1011   -4.2775 O   0  0  0  0  0  0  0  0  0  0  0  0
   -2.4406   11.3683   -3.7778 C   0  0  0  0  0  0  0  0  0  0  0  0
   -2.2195   12.3421   -4.8064 O   0  0  0  0  0  0  0  0  0  0  0  0
    0.8653    9.2319   -8.3852 C   0  0  0  0  0  0  0  0  0  0  0  0
    1.0100    7.8331   -8.3264 C   0  0  0  0  0  0  0  0  0  0  0  0
    1.8349    7.4907   -9.3979 C   0  0  0  0  0  0  0  0  0  0  0  0
    2.1792    8.5734  -10.0918 N   0  0  0  0  0  0  0  0  0  0  0  0
    1.5876    9.6963   -9.4639 N   0  0  0  0  0  0  0  0  0  0  0  0
    2.2405    6.2160   -9.7231 N   0  0  0  0  0  0  0  0  0  0  0  0
    3.0315    8.8197  -11.2954 C   0  0  0  0  0  0  0  0  0  0  0  0
    1.9537    5.4525   -9.1718 H   0  0  0  0  0  0  0  0  0  0  0  0
    2.8174    6.0680  -10.5070 H   0  0  0  0  0  0  0  0  0  0  0  0
  1  2  2  0  0  0
  1  6  1  0  0  0
  2  3  1  0  0  0
  2 10  1  0  0  0
  3  4  2  0  0  0
  4  5  1  0  0  0
  5  6  2  0  0  0
  5  9  1  0  0  0
  6  7  1  0  0  0
  7  8  1  0  0  0
  8  9  1  0  0  0
 10 11  1  0  0  0
 10 14  2  0  0  0
 11 12  2  0  0  0
 12 13  1  0  0  0
 12 15  1  0  0  0
 13 14  1  0  0  0
 13 16  1  0  0  0
 15 17  1  0  0  0
 15 18  1  0  0  0
M  END
> <minimizedAffinity>
-6.48404

$$$$
