2YDW_WSH_A_1183


 33 37  0  0  0  0  0  0  0  0999 V2000
   20.8613   10.1225   -7.0579 C   0  0  0  0  0  0  0  0  0  0  0  0
   19.5186   10.3578   -6.8777 C   0  0  0  0  0  0  0  0  0  0  0  0
   21.2835    9.1193   -7.8996 C   0  0  0  0  0  0  0  0  0  0  0  0
   18.5970    9.5798   -7.5408 C   0  0  0  0  0  0  0  0  0  0  0  0
   20.3679    8.3314   -8.5704 C   0  0  0  0  0  0  0  0  0  0  0  0
   19.0142    8.5671   -8.3822 C   0  0  0  0  0  0  0  0  0  0  0  0
   18.0271    7.3966  -10.3720 C   0  0  0  0  0  0  0  0  0  0  0  0
   16.7678    7.3759   -8.5865 C   0  0  0  0  0  0  0  0  0  0  0  0
   20.8722    7.2672   -9.4623 C   0  0  0  0  0  0  0  0  0  0  0  0
   19.2767    7.7163  -11.1642 C   0  0  0  0  0  0  0  0  0  0  0  0
   16.2777    7.5759   -7.2113 C   0  0  0  0  0  0  0  0  0  0  0  0
   16.9087    6.7861  -10.6753 N   0  0  0  0  0  0  0  0  0  0  0  0
   16.1155    6.7733   -9.5487 N   0  0  0  0  0  0  0  0  0  0  0  0
   20.4086    6.9662  -10.6149 N   0  0  0  0  0  0  0  0  0  0  0  0
   17.9915    7.8011   -9.0446 N   0  0  0  0  0  0  0  0  0  0  0  0
   24.2607    5.0230   -8.1764 C   0  0  0  0  0  0  0  0  0  0  0  0
   23.0748    4.9284   -7.4879 C   0  0  0  0  0  0  0  0  0  0  0  0
   24.3433    5.8434   -9.2772 C   0  0  0  0  0  0  0  0  0  0  0  0
   21.9787    5.6566   -7.9072 C   0  0  0  0  0  0  0  0  0  0  0  0
   23.2498    6.5665   -9.6928 C   0  0  0  0  0  0  0  0  0  0  0  0
   22.0579    6.4809   -9.0090 C   0  0  0  0  0  0  0  0  0  0  0  0
   19.6588    8.0399  -13.5367 C   0  0  0  0  0  0  0  0  0  0  0  0
   19.1167    7.3163  -12.5366 N   0  0  0  0  0  0  0  0  0  0  0  0
   20.2953    9.0765  -13.3782 O   0  0  0  0  0  0  0  0  0  0  0  0
   18.6041    6.5030  -12.7486 H   0  0  0  0  0  0  0  0  0  0  0  0
   19.3956    7.4775  -14.7459 O   0  0  0  0  0  0  0  0  0  0  0  0
   20.5536    6.9290  -15.3837 C   0  0  0  0  0  0  0  0  0  0  0  0
   22.3303    3.8426  -13.0113 C   0  0  0  0  0  0  0  0  0  0  0  0
   21.1615    3.6144  -13.7025 C   0  0  0  0  0  0  0  0  0  0  0  0
   22.9307    5.0771  -13.0887 C   0  0  0  0  0  0  0  0  0  0  0  0
   20.5969    4.6160  -14.4638 C   0  0  0  0  0  0  0  0  0  0  0  0
   22.3657    6.0750  -13.8501 C   0  0  0  0  0  0  0  0  0  0  0  0
   21.1923    5.8577  -14.5455 C   0  0  0  0  0  0  0  0  0  0  0  0
 16 17  1  0  0  0
 16 18  2  0  0  0
 28 29  1  0  0  0
 28 30  2  0  0  0
 17 19  2  0  0  0
 18 20  1  0  0  0
  1  2  1  0  0  0
  1  3  2  0  0  0
 29 31  2  0  0  0
 30 32  1  0  0  0
  2  4  2  0  0  0
 19 21  1  0  0  0
 20 21  2  0  0  0
  3  5  1  0  0  0
 31 33  1  0  0  0
 32 33  2  0  0  0
  4  6  1  0  0  0
 21  9  1  0  0  0
  5  6  2  0  0  0
  5  9  1  0  0  0
 33 27  1  0  0  0
  6 15  1  0  0  0
  7 10  1  0  0  0
  7 12  2  0  0  0
  7 15  1  0  0  0
  8 11  1  0  0  0
  8 13  2  0  0  0
  8 15  1  0  0  0
  9 14  2  0  0  0
 22 23  1  0  0  0
 22 24  2  0  0  0
 22 26  1  0  0  0
 10 14  1  0  0  0
 10 23  1  0  0  0
 27 26  1  0  0  0
 12 13  1  0  0  0
 23 25  1  0  0  0
M  END
> <minimizedAffinity>
-0.00188

$$$$
2YDW_WSH_A_1183


 33 37  0  0  0  0  0  0  0  0999 V2000
   17.3483   18.6684  -17.5402 C   0  0  0  0  0  0  0  0  0  0  0  0
   18.4121   19.5332  -17.6454 C   0  0  0  0  0  0  0  0  0  0  0  0
   17.5509   17.3086  -17.5957 C   0  0  0  0  0  0  0  0  0  0  0  0
   19.6827   19.0310  -17.8122 C   0  0  0  0  0  0  0  0  0  0  0  0
   18.8216   16.7925  -17.7632 C   0  0  0  0  0  0  0  0  0  0  0  0
   19.8920   17.6673  -17.8750 C   0  0  0  0  0  0  0  0  0  0  0  0
   21.8272   16.1466  -17.3790 C   0  0  0  0  0  0  0  0  0  0  0  0
   22.2699   17.7513  -18.7943 C   0  0  0  0  0  0  0  0  0  0  0  0
   18.9860   15.3254  -17.8169 C   0  0  0  0  0  0  0  0  0  0  0  0
   20.9377   15.3341  -16.4626 C   0  0  0  0  0  0  0  0  0  0  0  0
   22.1295   18.9177  -19.6838 C   0  0  0  0  0  0  0  0  0  0  0  0
   23.0925   16.0575  -17.7056 N   0  0  0  0  0  0  0  0  0  0  0  0
   23.3706   17.0697  -18.5982 N   0  0  0  0  0  0  0  0  0  0  0  0
   19.9145   14.6492  -17.2560 N   0  0  0  0  0  0  0  0  0  0  0  0
   21.2490   17.2187  -18.0446 N   0  0  0  0  0  0  0  0  0  0  0  0
   16.0592   13.0641  -19.9365 C   0  0  0  0  0  0  0  0  0  0  0  0
   16.8791   13.9325  -20.6169 C   0  0  0  0  0  0  0  0  0  0  0  0
   16.1911   12.9325  -18.5737 C   0  0  0  0  0  0  0  0  0  0  0  0
   17.8265   14.6635  -19.9274 C   0  0  0  0  0  0  0  0  0  0  0  0
   17.1361   13.6611  -17.8901 C   0  0  0  0  0  0  0  0  0  0  0  0
   17.9608   14.5354  -18.5617 C   0  0  0  0  0  0  0  0  0  0  0  0
   21.4032   13.9582  -14.5210 C   0  0  0  0  0  0  0  0  0  0  0  0
   21.7057   14.3259  -15.7823 N   0  0  0  0  0  0  0  0  0  0  0  0
   20.4952   14.4441  -13.8545 O   0  0  0  0  0  0  0  0  0  0  0  0
   22.4628   13.8984  -16.2442 H   0  0  0  0  0  0  0  0  0  0  0  0
   22.2458   12.9874  -14.0789 O   0  0  0  0  0  0  0  0  0  0  0  0
   21.6039   11.7243  -13.8762 C   0  0  0  0  0  0  0  0  0  0  0  0
   19.9794   10.1920  -17.5264 C   0  0  0  0  0  0  0  0  0  0  0  0
   21.3348   10.1512  -17.2873 C   0  0  0  0  0  0  0  0  0  0  0  0
   19.1421   10.7303  -16.5779 C   0  0  0  0  0  0  0  0  0  0  0  0
   21.8481   10.6482  -16.1078 C   0  0  0  0  0  0  0  0  0  0  0  0
   19.6569   11.2249  -15.4009 C   0  0  0  0  0  0  0  0  0  0  0  0
   21.0150   11.1912  -15.1518 C   0  0  0  0  0  0  0  0  0  0  0  0
 16 17  1  0  0  0
 16 18  2  0  0  0
 28 29  1  0  0  0
 28 30  2  0  0  0
 17 19  2  0  0  0
 18 20  1  0  0  0
  1  2  1  0  0  0
  1  3  2  0  0  0
 29 31  2  0  0  0
 30 32  1  0  0  0
  2  4  2  0  0  0
 19 21  1  0  0  0
 20 21  2  0  0  0
  3  5  1  0  0  0
 31 33  1  0  0  0
 32 33  2  0  0  0
  4  6  1  0  0  0
 21  9  1  0  0  0
  5  6  2  0  0  0
  5  9  1  0  0  0
 33 27  1  0  0  0
  6 15  1  0  0  0
  7 10  1  0  0  0
  7 12  2  0  0  0
  7 15  1  0  0  0
  8 11  1  0  0  0
  8 13  2  0  0  0
  8 15  1  0  0  0
  9 14  2  0  0  0
 22 23  1  0  0  0
 22 24  2  0  0  0
 22 26  1  0  0  0
 10 14  1  0  0  0
 10 23  1  0  0  0
 27 26  1  0  0  0
 12 13  1  0  0  0
 23 25  1  0  0  0
M  END
> <minimizedAffinity>
-0.00013

$$$$
2YDW_WSH_A_1183


 33 37  0  0  0  0  0  0  0  0999 V2000
   19.5841   12.7724  -15.7101 C   0  0  0  0  0  0  0  0  0  0  0  0
   19.8666   13.4584  -16.8678 C   0  0  0  0  0  0  0  0  0  0  0  0
   20.4458   12.8334  -14.6392 C   0  0  0  0  0  0  0  0  0  0  0  0
   21.0206   14.2037  -16.9522 C   0  0  0  0  0  0  0  0  0  0  0  0
   21.6075   13.5778  -14.7119 C   0  0  0  0  0  0  0  0  0  0  0  0
   21.8928   14.2639  -15.8830 C   0  0  0  0  0  0  0  0  0  0  0  0
   23.6038   15.9178  -15.0827 C   0  0  0  0  0  0  0  0  0  0  0  0
   23.8775   15.2509  -17.1454 C   0  0  0  0  0  0  0  0  0  0  0  0
   22.4995   13.6106  -13.5349 C   0  0  0  0  0  0  0  0  0  0  0  0
   22.9312   15.9388  -13.7268 C   0  0  0  0  0  0  0  0  0  0  0  0
   23.7052   14.5463  -18.4279 C   0  0  0  0  0  0  0  0  0  0  0  0
   24.6343   16.5563  -15.5788 N   0  0  0  0  0  0  0  0  0  0  0  0
   24.8062   16.1348  -16.8793 N   0  0  0  0  0  0  0  0  0  0  0  0
   23.1048   14.6384  -13.0753 N   0  0  0  0  0  0  0  0  0  0  0  0
   23.0750   15.0687  -16.0450 N   0  0  0  0  0  0  0  0  0  0  0  0
   23.0650    9.9905  -11.3561 C   0  0  0  0  0  0  0  0  0  0  0  0
   23.4964   10.0812  -12.6580 C   0  0  0  0  0  0  0  0  0  0  0  0
   22.4530   11.0720  -10.7666 C   0  0  0  0  0  0  0  0  0  0  0  0
   23.3120   11.2555  -13.3612 C   0  0  0  0  0  0  0  0  0  0  0  0
   22.2716   12.2403  -11.4691 C   0  0  0  0  0  0  0  0  0  0  0  0
   22.6978   12.3409  -12.7743 C   0  0  0  0  0  0  0  0  0  0  0  0
   22.8039   17.6169  -11.9812 C   0  0  0  0  0  0  0  0  0  0  0  0
   23.5377   16.9318  -12.8812 N   0  0  0  0  0  0  0  0  0  0  0  0
   21.5957   17.4787  -11.8203 O   0  0  0  0  0  0  0  0  0  0  0  0
   24.5019   17.1137  -12.9607 H   0  0  0  0  0  0  0  0  0  0  0  0
   23.5764   18.4918  -11.2844 O   0  0  0  0  0  0  0  0  0  0  0  0
   23.7183   18.1509   -9.9016 C   0  0  0  0  0  0  0  0  0  0  0  0
   25.6766   14.3773   -9.4154 C   0  0  0  0  0  0  0  0  0  0  0  0
   26.3870   15.4960   -9.7889 C   0  0  0  0  0  0  0  0  0  0  0  0
   24.3231   14.4790   -9.1953 C   0  0  0  0  0  0  0  0  0  0  0  0
   25.7463   16.7073   -9.9433 C   0  0  0  0  0  0  0  0  0  0  0  0
   23.6860   15.6894   -9.3492 C   0  0  0  0  0  0  0  0  0  0  0  0
   24.3885   16.8174   -9.7259 C   0  0  0  0  0  0  0  0  0  0  0  0
 16 17  1  0  0  0
 16 18  2  0  0  0
 28 29  1  0  0  0
 28 30  2  0  0  0
 17 19  2  0  0  0
 18 20  1  0  0  0
  1  2  1  0  0  0
  1  3  2  0  0  0
 29 31  2  0  0  0
 30 32  1  0  0  0
  2  4  2  0  0  0
 19 21  1  0  0  0
 20 21  2  0  0  0
  3  5  1  0  0  0
 31 33  1  0  0  0
 32 33  2  0  0  0
  4  6  1  0  0  0
 21  9  1  0  0  0
  5  6  2  0  0  0
  5  9  1  0  0  0
 33 27  1  0  0  0
  6 15  1  0  0  0
  7 10  1  0  0  0
  7 12  2  0  0  0
  7 15  1  0  0  0
  8 11  1  0  0  0
  8 13  2  0  0  0
  8 15  1  0  0  0
  9 14  2  0  0  0
 22 23  1  0  0  0
 22 24  2  0  0  0
 22 26  1  0  0  0
 10 14  1  0  0  0
 10 23  1  0  0  0
 27 26  1  0  0  0
 12 13  1  0  0  0
 23 25  1  0  0  0
M  END
> <minimizedAffinity>
0.00000

$$$$
2YDW_WSH_A_1183


 33 37  0  0  0  0  0  0  0  0999 V2000
   22.6842   10.8418  -18.0149 C   0  0  0  0  0  0  0  0  0  0  0  0
   23.2553   11.7707  -18.8526 C   0  0  0  0  0  0  0  0  0  0  0  0
   23.3333   10.4507  -16.8665 C   0  0  0  0  0  0  0  0  0  0  0  0
   24.4844   12.3045  -18.5387 C   0  0  0  0  0  0  0  0  0  0  0  0
   24.5677   10.9791  -16.5409 C   0  0  0  0  0  0  0  0  0  0  0  0
   25.1440   11.9114  -17.3907 C   0  0  0  0  0  0  0  0  0  0  0  0
   26.8593   12.9583  -15.8856 C   0  0  0  0  0  0  0  0  0  0  0  0
   27.4306   12.8684  -17.9927 C   0  0  0  0  0  0  0  0  0  0  0  0
   25.2234   10.5260  -15.2971 C   0  0  0  0  0  0  0  0  0  0  0  0
   25.9540   12.7060  -14.6990 C   0  0  0  0  0  0  0  0  0  0  0  0
   27.4176   12.5964  -19.4408 C   0  0  0  0  0  0  0  0  0  0  0  0
   28.0318   13.5290  -16.0094 N   0  0  0  0  0  0  0  0  0  0  0  0
   28.3912   13.4715  -17.3384 N   0  0  0  0  0  0  0  0  0  0  0  0
   25.8495   11.2643  -14.4622 N   0  0  0  0  0  0  0  0  0  0  0  0
   26.4221   12.5187  -17.1275 N   0  0  0  0  0  0  0  0  0  0  0  0
   24.9448    6.3950  -14.2830 C   0  0  0  0  0  0  0  0  0  0  0  0
   25.6290    6.7788  -15.4116 C   0  0  0  0  0  0  0  0  0  0  0  0
   24.3546    7.3503  -13.4888 C   0  0  0  0  0  0  0  0  0  0  0  0
   25.7177    8.1180  -15.7374 C   0  0  0  0  0  0  0  0  0  0  0  0
   24.4455    8.6832  -13.8153 C   0  0  0  0  0  0  0  0  0  0  0  0
   25.1264    9.0782  -14.9448 C   0  0  0  0  0  0  0  0  0  0  0  0
   25.7032   13.8056  -12.5525 C   0  0  0  0  0  0  0  0  0  0  0  0
   26.5056   13.3015  -13.5115 N   0  0  0  0  0  0  0  0  0  0  0  0
   24.4779   13.8224  -12.6099 O   0  0  0  0  0  0  0  0  0  0  0  0
   27.4826   13.3416  -13.3974 H   0  0  0  0  0  0  0  0  0  0  0  0
   26.4306   14.3060  -11.5190 O   0  0  0  0  0  0  0  0  0  0  0  0
   26.2661   13.5750  -10.2995 C   0  0  0  0  0  0  0  0  0  0  0  0
   27.5012    9.5018  -10.7412 C   0  0  0  0  0  0  0  0  0  0  0  0
   28.4303   10.5158  -10.6740 C   0  0  0  0  0  0  0  0  0  0  0  0
   26.1626    9.8061  -10.6632 C   0  0  0  0  0  0  0  0  0  0  0  0
   28.0218   11.8252  -10.5321 C   0  0  0  0  0  0  0  0  0  0  0  0
   25.7573   11.1138  -10.5206 C   0  0  0  0  0  0  0  0  0  0  0  0
   26.6807   12.1389  -10.4546 C   0  0  0  0  0  0  0  0  0  0  0  0
 16 17  1  0  0  0
 16 18  2  0  0  0
 28 29  1  0  0  0
 28 30  2  0  0  0
 17 19  2  0  0  0
 18 20  1  0  0  0
  1  2  1  0  0  0
  1  3  2  0  0  0
 29 31  2  0  0  0
 30 32  1  0  0  0
  2  4  2  0  0  0
 19 21  1  0  0  0
 20 21  2  0  0  0
  3  5  1  0  0  0
 31 33  1  0  0  0
 32 33  2  0  0  0
  4  6  1  0  0  0
 21  9  1  0  0  0
  5  6  2  0  0  0
  5  9  1  0  0  0
 33 27  1  0  0  0
  6 15  1  0  0  0
  7 10  1  0  0  0
  7 12  2  0  0  0
  7 15  1  0  0  0
  8 11  1  0  0  0
  8 13  2  0  0  0
  8 15  1  0  0  0
  9 14  2  0  0  0
 22 23  1  0  0  0
 22 24  2  0  0  0
 22 26  1  0  0  0
 10 14  1  0  0  0
 10 23  1  0  0  0
 27 26  1  0  0  0
 12 13  1  0  0  0
 23 25  1  0  0  0
M  END
> <minimizedAffinity>
0.00032

$$$$
2YDW_WSH_A_1183


 33 37  0  0  0  0  0  0  0  0999 V2000
   21.3588   11.2641  -18.7407 C   0  0  0  0  0  0  0  0  0  0  0  0
   21.8713   11.8999  -19.8470 C   0  0  0  0  0  0  0  0  0  0  0  0
   22.1002   11.1761  -17.5850 C   0  0  0  0  0  0  0  0  0  0  0  0
   23.1342   12.4443  -19.7942 C   0  0  0  0  0  0  0  0  0  0  0  0
   23.3693   11.7184  -17.5199 C   0  0  0  0  0  0  0  0  0  0  0  0
   23.8860   12.3538  -18.6392 C   0  0  0  0  0  0  0  0  0  0  0  0
   25.7505   13.6975  -17.6283 C   0  0  0  0  0  0  0  0  0  0  0  0
   26.1284   13.0051  -19.6660 C   0  0  0  0  0  0  0  0  0  0  0  0
   24.1247   11.5969  -16.2562 C   0  0  0  0  0  0  0  0  0  0  0  0
   24.9503   13.8225  -16.3495 C   0  0  0  0  0  0  0  0  0  0  0  0
   25.9800   12.3454  -20.9751 C   0  0  0  0  0  0  0  0  0  0  0  0
   26.9185   14.1592  -18.0002 N   0  0  0  0  0  0  0  0  0  0  0  0
   27.1560   13.7218  -19.2850 N   0  0  0  0  0  0  0  0  0  0  0  0
   24.8381   12.5080  -15.7130 N   0  0  0  0  0  0  0  0  0  0  0  0
   25.1947   12.9526  -18.6593 N   0  0  0  0  0  0  0  0  0  0  0  0
   23.8540    7.9219  -14.1130 C   0  0  0  0  0  0  0  0  0  0  0  0
   24.4418    7.9490  -15.3552 C   0  0  0  0  0  0  0  0  0  0  0  0
   23.3570    9.0844  -13.5714 C   0  0  0  0  0  0  0  0  0  0  0  0
   24.5282    9.1413  -16.0469 C   0  0  0  0  0  0  0  0  0  0  0  0
   23.4454   10.2703  -14.2622 C   0  0  0  0  0  0  0  0  0  0  0  0
   24.0301   10.3081  -15.5081 C   0  0  0  0  0  0  0  0  0  0  0  0
   24.9155   15.4811  -14.5811 C   0  0  0  0  0  0  0  0  0  0  0  0
   25.6182   14.6971  -15.4232 N   0  0  0  0  0  0  0  0  0  0  0  0
   23.6907   15.5360  -14.5420 O   0  0  0  0  0  0  0  0  0  0  0  0
   26.6022   14.7235  -15.4039 H   0  0  0  0  0  0  0  0  0  0  0  0
   25.7428   16.2141  -13.7898 O   0  0  0  0  0  0  0  0  0  0  0  0
   25.6736   15.8555  -12.4059 C   0  0  0  0  0  0  0  0  0  0  0  0
   26.7807   11.7676  -11.7941 C   0  0  0  0  0  0  0  0  0  0  0  0
   27.7326   12.7184  -12.0869 C   0  0  0  0  0  0  0  0  0  0  0  0
   25.4610   12.1408  -11.6964 C   0  0  0  0  0  0  0  0  0  0  0  0
   27.3652   14.0330  -12.2827 C   0  0  0  0  0  0  0  0  0  0  0  0
   25.0969   13.4539  -11.8913 C   0  0  0  0  0  0  0  0  0  0  0  0
   26.0432   14.4153  -12.1879 C   0  0  0  0  0  0  0  0  0  0  0  0
 16 17  1  0  0  0
 16 18  2  0  0  0
 28 29  1  0  0  0
 28 30  2  0  0  0
 17 19  2  0  0  0
 18 20  1  0  0  0
  1  2  1  0  0  0
  1  3  2  0  0  0
 29 31  2  0  0  0
 30 32  1  0  0  0
  2  4  2  0  0  0
 19 21  1  0  0  0
 20 21  2  0  0  0
  3  5  1  0  0  0
 31 33  1  0  0  0
 32 33  2  0  0  0
  4  6  1  0  0  0
 21  9  1  0  0  0
  5  6  2  0  0  0
  5  9  1  0  0  0
 33 27  1  0  0  0
  6 15  1  0  0  0
  7 10  1  0  0  0
  7 12  2  0  0  0
  7 15  1  0  0  0
  8 11  1  0  0  0
  8 13  2  0  0  0
  8 15  1  0  0  0
  9 14  2  0  0  0
 22 23  1  0  0  0
 22 24  2  0  0  0
 22 26  1  0  0  0
 10 14  1  0  0  0
 10 23  1  0  0  0
 27 26  1  0  0  0
 12 13  1  0  0  0
 23 25  1  0  0  0
M  END
> <minimizedAffinity>
0.00032

$$$$
2YDW_WSH_A_1183


 33 37  0  0  0  0  0  0  0  0999 V2000
   31.4734   16.5265  -12.2374 C   0  0  0  0  0  0  0  0  0  0  0  0
   30.6501   17.5827  -11.9256 C   0  0  0  0  0  0  0  0  0  0  0  0
   30.9873   15.4540  -12.9492 C   0  0  0  0  0  0  0  0  0  0  0  0
   29.3333   17.5594  -12.3252 C   0  0  0  0  0  0  0  0  0  0  0  0
   29.6673   15.4189  -13.3555 C   0  0  0  0  0  0  0  0  0  0  0  0
   28.8376   16.4830  -13.0344 C   0  0  0  0  0  0  0  0  0  0  0  0
   26.9519   16.1469  -14.6576 C   0  0  0  0  0  0  0  0  0  0  0  0
   26.3614   17.0228  -12.7448 C   0  0  0  0  0  0  0  0  0  0  0  0
   29.1942   14.2447  -14.1168 C   0  0  0  0  0  0  0  0  0  0  0  0
   27.9274   15.5471  -15.6474 C   0  0  0  0  0  0  0  0  0  0  0  0
   26.4024   17.5510  -11.3699 C   0  0  0  0  0  0  0  0  0  0  0  0
   25.6665   16.3938  -14.7076 N   0  0  0  0  0  0  0  0  0  0  0  0
   25.2952   16.9458  -13.5010 N   0  0  0  0  0  0  0  0  0  0  0  0
   28.4196   14.2668  -15.1336 N   0  0  0  0  0  0  0  0  0  0  0  0
   27.4525   16.5342  -13.4222 N   0  0  0  0  0  0  0  0  0  0  0  0
   30.5949   10.3978  -12.9291 C   0  0  0  0  0  0  0  0  0  0  0  0
   29.7830   11.1210  -12.0883 C   0  0  0  0  0  0  0  0  0  0  0  0
   30.9490   10.9236  -14.1497 C   0  0  0  0  0  0  0  0  0  0  0  0
   29.3306   12.3670  -12.4761 C   0  0  0  0  0  0  0  0  0  0  0  0
   30.4961   12.1642  -14.5334 C   0  0  0  0  0  0  0  0  0  0  0  0
   29.6844   12.8979  -13.6978 C   0  0  0  0  0  0  0  0  0  0  0  0
   27.9323   15.4320  -18.0694 C   0  0  0  0  0  0  0  0  0  0  0  0
   27.2734   15.2880  -16.9021 N   0  0  0  0  0  0  0  0  0  0  0  0
   29.0974   15.8030  -18.1684 O   0  0  0  0  0  0  0  0  0  0  0  0
   26.3315   15.0015  -16.9085 H   0  0  0  0  0  0  0  0  0  0  0  0
   27.1316   15.1256  -19.1244 O   0  0  0  0  0  0  0  0  0  0  0  0
   27.5325   13.9400  -19.8188 C   0  0  0  0  0  0  0  0  0  0  0  0
   27.3670   10.5047  -17.2728 C   0  0  0  0  0  0  0  0  0  0  0  0
   26.2145   11.0582  -17.7839 C   0  0  0  0  0  0  0  0  0  0  0  0
   28.5827   11.0643  -17.5884 C   0  0  0  0  0  0  0  0  0  0  0  0
   26.2788   12.1657  -18.6031 C   0  0  0  0  0  0  0  0  0  0  0  0
   28.6443   12.1691  -18.4072 C   0  0  0  0  0  0  0  0  0  0  0  0
   27.4943   12.7339  -18.9232 C   0  0  0  0  0  0  0  0  0  0  0  0
 16 17  1  0  0  0
 16 18  2  0  0  0
 28 29  1  0  0  0
 28 30  2  0  0  0
 17 19  2  0  0  0
 18 20  1  0  0  0
  1  2  1  0  0  0
  1  3  2  0  0  0
 29 31  2  0  0  0
 30 32  1  0  0  0
  2  4  2  0  0  0
 19 21  1  0  0  0
 20 21  2  0  0  0
  3  5  1  0  0  0
 31 33  1  0  0  0
 32 33  2  0  0  0
  4  6  1  0  0  0
 21  9  1  0  0  0
  5  6  2  0  0  0
  5  9  1  0  0  0
 33 27  1  0  0  0
  6 15  1  0  0  0
  7 10  1  0  0  0
  7 12  2  0  0  0
  7 15  1  0  0  0
  8 11  1  0  0  0
  8 13  2  0  0  0
  8 15  1  0  0  0
  9 14  2  0  0  0
 22 23  1  0  0  0
 22 24  2  0  0  0
 22 26  1  0  0  0
 10 14  1  0  0  0
 10 23  1  0  0  0
 27 26  1  0  0  0
 12 13  1  0  0  0
 23 25  1  0  0  0
M  END
> <minimizedAffinity>
0.00047

$$$$
2YDW_WSH_A_1183


 33 37  0  0  0  0  0  0  0  0999 V2000
   23.1656   13.9789  -11.5331 C   0  0  0  0  0  0  0  0  0  0  0  0
   22.4863   13.9585  -12.7284 C   0  0  0  0  0  0  0  0  0  0  0  0
   22.5500   13.5557  -10.3775 C   0  0  0  0  0  0  0  0  0  0  0  0
   21.1832   13.5169  -12.7626 C   0  0  0  0  0  0  0  0  0  0  0  0
   21.2422   13.1106  -10.3991 C   0  0  0  0  0  0  0  0  0  0  0  0
   20.5576   13.0968  -11.6052 C   0  0  0  0  0  0  0  0  0  0  0  0
   18.6645   11.5331  -11.0812 C   0  0  0  0  0  0  0  0  0  0  0  0
   18.1719   13.1132  -12.5078 C   0  0  0  0  0  0  0  0  0  0  0  0
   20.6267   12.6674   -9.1314 C   0  0  0  0  0  0  0  0  0  0  0  0
   19.5638   10.7865  -10.1194 C   0  0  0  0  0  0  0  0  0  0  0  0
   18.2655   14.2983  -13.3783 C   0  0  0  0  0  0  0  0  0  0  0  0
   17.4241   11.3576  -11.4638 N   0  0  0  0  0  0  0  0  0  0  0  0
   17.1144   12.3545  -12.3631 N   0  0  0  0  0  0  0  0  0  0  0  0
   19.8748   11.6456   -8.9745 N   0  0  0  0  0  0  0  0  0  0  0  0
   19.1967   12.6433  -11.7222 N   0  0  0  0  0  0  0  0  0  0  0  0
   21.4877   14.9019   -5.6047 C   0  0  0  0  0  0  0  0  0  0  0  0
   20.7935   15.4891   -6.6355 C   0  0  0  0  0  0  0  0  0  0  0  0
   21.8993   13.5947   -5.7211 C   0  0  0  0  0  0  0  0  0  0  0  0
   20.5159   14.7625   -7.7767 C   0  0  0  0  0  0  0  0  0  0  0  0
   21.6205   12.8734   -6.8583 C   0  0  0  0  0  0  0  0  0  0  0  0
   20.9279   13.4528   -7.8976 C   0  0  0  0  0  0  0  0  0  0  0  0
   19.5871    8.4924   -9.3346 C   0  0  0  0  0  0  0  0  0  0  0  0
   18.8970    9.6162   -9.6148 N   0  0  0  0  0  0  0  0  0  0  0  0
   20.7958    8.3606   -9.4973 O   0  0  0  0  0  0  0  0  0  0  0  0
   17.9231    9.6361   -9.4720 H   0  0  0  0  0  0  0  0  0  0  0  0
   18.7652    7.5187   -8.8611 O   0  0  0  0  0  0  0  0  0  0  0  0
   19.0016    7.1911   -7.4880 C   0  0  0  0  0  0  0  0  0  0  0  0
   18.2782   10.5469   -4.9334 C   0  0  0  0  0  0  0  0  0  0  0  0
   17.2311    9.8505   -5.4942 C   0  0  0  0  0  0  0  0  0  0  0  0
   19.5691   10.1547   -5.1984 C   0  0  0  0  0  0  0  0  0  0  0  0
   17.4751    8.7708   -6.3165 C   0  0  0  0  0  0  0  0  0  0  0  0
   19.8101    9.0759   -6.0188 C   0  0  0  0  0  0  0  0  0  0  0  0
   18.7673    8.3719   -6.5886 C   0  0  0  0  0  0  0  0  0  0  0  0
 16 17  1  0  0  0
 16 18  2  0  0  0
 28 29  1  0  0  0
 28 30  2  0  0  0
 17 19  2  0  0  0
 18 20  1  0  0  0
  1  2  1  0  0  0
  1  3  2  0  0  0
 29 31  2  0  0  0
 30 32  1  0  0  0
  2  4  2  0  0  0
 19 21  1  0  0  0
 20 21  2  0  0  0
  3  5  1  0  0  0
 31 33  1  0  0  0
 32 33  2  0  0  0
  4  6  1  0  0  0
 21  9  1  0  0  0
  5  6  2  0  0  0
  5  9  1  0  0  0
 33 27  1  0  0  0
  6 15  1  0  0  0
  7 10  1  0  0  0
  7 12  2  0  0  0
  7 15  1  0  0  0
  8 11  1  0  0  0
  8 13  2  0  0  0
  8 15  1  0  0  0
  9 14  2  0  0  0
 22 23  1  0  0  0
 22 24  2  0  0  0
 22 26  1  0  0  0
 10 14  1  0  0  0
 10 23  1  0  0  0
 27 26  1  0  0  0
 12 13  1  0  0  0
 23 25  1  0  0  0
M  END
> <minimizedAffinity>
0.00098

$$$$
2YDW_WSH_A_1183


 33 37  0  0  0  0  0  0  0  0999 V2000
   28.2260    6.4104  -13.3361 C   0  0  0  0  0  0  0  0  0  0  0  0
   29.3676    6.8388  -12.7005 C   0  0  0  0  0  0  0  0  0  0  0  0
   27.0431    7.0944  -13.1745 C   0  0  0  0  0  0  0  0  0  0  0  0
   29.3199    7.9545  -11.8959 C   0  0  0  0  0  0  0  0  0  0  0  0
   26.9826    8.2154  -12.3691 C   0  0  0  0  0  0  0  0  0  0  0  0
   28.1343    8.6418  -11.7245 C   0  0  0  0  0  0  0  0  0  0  0  0
   27.5250   11.0051  -11.1354 C   0  0  0  0  0  0  0  0  0  0  0  0
   28.8559   10.0249   -9.7064 C   0  0  0  0  0  0  0  0  0  0  0  0
   25.6887    8.9141  -12.2281 C   0  0  0  0  0  0  0  0  0  0  0  0
   26.6589   11.0776  -12.3748 C   0  0  0  0  0  0  0  0  0  0  0  0
   29.6898    9.0182   -9.0264 C   0  0  0  0  0  0  0  0  0  0  0  0
   27.8202   11.8729  -10.1997 N   0  0  0  0  0  0  0  0  0  0  0  0
   28.6592   11.2537   -9.2990 N   0  0  0  0  0  0  0  0  0  0  0  0
   25.5115   10.1801  -12.2220 N   0  0  0  0  0  0  0  0  0  0  0  0
   28.1653    9.8019  -10.8731 N   0  0  0  0  0  0  0  0  0  0  0  0
   22.1612    6.5408  -11.9176 C   0  0  0  0  0  0  0  0  0  0  0  0
   23.0992    6.5088  -10.9134 C   0  0  0  0  0  0  0  0  0  0  0  0
   22.3701    7.3409  -13.0167 C   0  0  0  0  0  0  0  0  0  0  0  0
   24.2409    7.2790  -11.0169 C   0  0  0  0  0  0  0  0  0  0  0  0
   23.5075    8.1074  -13.1164 C   0  0  0  0  0  0  0  0  0  0  0  0
   24.4545    8.0809  -12.1174 C   0  0  0  0  0  0  0  0  0  0  0  0
   25.9850   12.9321  -13.7840 C   0  0  0  0  0  0  0  0  0  0  0  0
   26.1466   12.4100  -12.5516 N   0  0  0  0  0  0  0  0  0  0  0  0
   26.2682   12.3517  -14.8270 O   0  0  0  0  0  0  0  0  0  0  0  0
   25.9107   12.9482  -11.7617 H   0  0  0  0  0  0  0  0  0  0  0  0
   25.4799   14.1924  -13.7192 O   0  0  0  0  0  0  0  0  0  0  0  0
   24.1458   14.2987  -14.2267 C   0  0  0  0  0  0  0  0  0  0  0  0
   21.4168   11.8991  -11.9672 C   0  0  0  0  0  0  0  0  0  0  0  0
   21.8870   13.0920  -11.4655 C   0  0  0  0  0  0  0  0  0  0  0  0
   21.8300   11.4791  -13.2095 C   0  0  0  0  0  0  0  0  0  0  0  0
   22.7666   13.8576  -12.2015 C   0  0  0  0  0  0  0  0  0  0  0  0
   22.7074   12.2456  -13.9428 C   0  0  0  0  0  0  0  0  0  0  0  0
   23.1872   13.4426  -13.4481 C   0  0  0  0  0  0  0  0  0  0  0  0
 16 17  1  0  0  0
 16 18  2  0  0  0
 28 29  1  0  0  0
 28 30  2  0  0  0
 17 19  2  0  0  0
 18 20  1  0  0  0
  1  2  1  0  0  0
  1  3  2  0  0  0
 29 31  2  0  0  0
 30 32  1  0  0  0
  2  4  2  0  0  0
 19 21  1  0  0  0
 20 21  2  0  0  0
  3  5  1  0  0  0
 31 33  1  0  0  0
 32 33  2  0  0  0
  4  6  1  0  0  0
 21  9  1  0  0  0
  5  6  2  0  0  0
  5  9  1  0  0  0
 33 27  1  0  0  0
  6 15  1  0  0  0
  7 10  1  0  0  0
  7 12  2  0  0  0
  7 15  1  0  0  0
  8 11  1  0  0  0
  8 13  2  0  0  0
  8 15  1  0  0  0
  9 14  2  0  0  0
 22 23  1  0  0  0
 22 24  2  0  0  0
 22 26  1  0  0  0
 10 14  1  0  0  0
 10 23  1  0  0  0
 27 26  1  0  0  0
 12 13  1  0  0  0
 23 25  1  0  0  0
M  END
> <minimizedAffinity>
0.00119

$$$$
2YDW_WSH_A_1183


 33 37  0  0  0  0  0  0  0  0999 V2000
   30.1091   10.3185  -16.8927 C   0  0  0  0  0  0  0  0  0  0  0  0
   29.8156    9.4569  -15.8621 C   0  0  0  0  0  0  0  0  0  0  0  0
   29.2015   11.2800  -17.2736 C   0  0  0  0  0  0  0  0  0  0  0  0
   28.6048    9.5577  -15.2155 C   0  0  0  0  0  0  0  0  0  0  0  0
   27.9827   11.3907  -16.6325 C   0  0  0  0  0  0  0  0  0  0  0  0
   27.6869   10.5165  -15.5972 C   0  0  0  0  0  0  0  0  0  0  0  0
   25.8046   11.7224  -14.4542 C   0  0  0  0  0  0  0  0  0  0  0  0
   25.6770    9.5429  -14.3645 C   0  0  0  0  0  0  0  0  0  0  0  0
   27.0429   12.4393  -17.0793 C   0  0  0  0  0  0  0  0  0  0  0  0
   26.4157   13.0436  -14.8692 C   0  0  0  0  0  0  0  0  0  0  0  0
   25.9642    8.1104  -14.5558 C   0  0  0  0  0  0  0  0  0  0  0  0
   24.7433   11.4099  -13.7530 N   0  0  0  0  0  0  0  0  0  0  0  0
   24.6637   10.0354  -13.6973 N   0  0  0  0  0  0  0  0  0  0  0  0
   26.3307   13.1856  -16.3245 N   0  0  0  0  0  0  0  0  0  0  0  0
   26.4460   10.5636  -14.8695 N   0  0  0  0  0  0  0  0  0  0  0  0
   26.7093   13.1696  -21.2659 C   0  0  0  0  0  0  0  0  0  0  0  0
   26.3034   11.9636  -20.7462 C   0  0  0  0  0  0  0  0  0  0  0  0
   27.2210   14.1326  -20.4276 C   0  0  0  0  0  0  0  0  0  0  0  0
   26.4125   11.7301  -19.3894 C   0  0  0  0  0  0  0  0  0  0  0  0
   27.3275   13.8974  -19.0768 C   0  0  0  0  0  0  0  0  0  0  0  0
   26.9260   12.6921  -18.5464 C   0  0  0  0  0  0  0  0  0  0  0  0
   26.3232   15.2655  -13.9026 C   0  0  0  0  0  0  0  0  0  0  0  0
   25.6892   14.1383  -14.2836 N   0  0  0  0  0  0  0  0  0  0  0  0
   27.5327   15.4477  -13.9959 O   0  0  0  0  0  0  0  0  0  0  0  0
   24.7155   14.0634  -14.1593 H   0  0  0  0  0  0  0  0  0  0  0  0
   25.4479   16.1692  -13.3879 O   0  0  0  0  0  0  0  0  0  0  0  0
   25.2906   17.3370  -14.2003 C   0  0  0  0  0  0  0  0  0  0  0  0
   23.6931   16.3615  -18.0483 C   0  0  0  0  0  0  0  0  0  0  0  0
   22.8864   16.3687  -16.9325 C   0  0  0  0  0  0  0  0  0  0  0  0
   25.0260   16.6738  -17.9202 C   0  0  0  0  0  0  0  0  0  0  0  0
   23.4113   16.6841  -15.6969 C   0  0  0  0  0  0  0  0  0  0  0  0
   25.5473   16.9892  -16.6859 C   0  0  0  0  0  0  0  0  0  0  0  0
   24.7477   16.9971  -15.5597 C   0  0  0  0  0  0  0  0  0  0  0  0
 16 17  1  0  0  0
 16 18  2  0  0  0
 28 29  1  0  0  0
 28 30  2  0  0  0
 17 19  2  0  0  0
 18 20  1  0  0  0
  1  2  1  0  0  0
  1  3  2  0  0  0
 29 31  2  0  0  0
 30 32  1  0  0  0
  2  4  2  0  0  0
 19 21  1  0  0  0
 20 21  2  0  0  0
  3  5  1  0  0  0
 31 33  1  0  0  0
 32 33  2  0  0  0
  4  6  1  0  0  0
 21  9  1  0  0  0
  5  6  2  0  0  0
  5  9  1  0  0  0
 33 27  1  0  0  0
  6 15  1  0  0  0
  7 10  1  0  0  0
  7 12  2  0  0  0
  7 15  1  0  0  0
  8 11  1  0  0  0
  8 13  2  0  0  0
  8 15  1  0  0  0
  9 14  2  0  0  0
 22 23  1  0  0  0
 22 24  2  0  0  0
 22 26  1  0  0  0
 10 14  1  0  0  0
 10 23  1  0  0  0
 27 26  1  0  0  0
 12 13  1  0  0  0
 23 25  1  0  0  0
M  END
> <minimizedAffinity>
0.00198

$$$$
2YDW_WSH_A_1183


 33 37  0  0  0  0  0  0  0  0999 V2000
   23.3709   16.4946  -12.8907 C   0  0  0  0  0  0  0  0  0  0  0  0
   24.6980   16.6516  -13.2144 C   0  0  0  0  0  0  0  0  0  0  0  0
   22.5274   15.8074  -13.7330 C   0  0  0  0  0  0  0  0  0  0  0  0
   25.1784   16.1214  -14.3902 C   0  0  0  0  0  0  0  0  0  0  0  0
   22.9978   15.2710  -14.9162 C   0  0  0  0  0  0  0  0  0  0  0  0
   24.3355   15.4360  -15.2430 C   0  0  0  0  0  0  0  0  0  0  0  0
   24.6428   13.6532  -16.9840 C   0  0  0  0  0  0  0  0  0  0  0  0
   25.8730   15.4348  -17.2785 C   0  0  0  0  0  0  0  0  0  0  0  0
   22.0518   14.5425  -15.7861 C   0  0  0  0  0  0  0  0  0  0  0  0
   23.5976   12.8093  -16.2862 C   0  0  0  0  0  0  0  0  0  0  0  0
   26.4739   16.7698  -17.1112 C   0  0  0  0  0  0  0  0  0  0  0  0
   25.3904   13.4558  -18.0412 N   0  0  0  0  0  0  0  0  0  0  0  0
   26.1655   14.5799  -18.2262 N   0  0  0  0  0  0  0  0  0  0  0  0
   22.2876   13.4525  -16.4109 N   0  0  0  0  0  0  0  0  0  0  0  0
   24.9127   14.9058  -16.4502 N   0  0  0  0  0  0  0  0  0  0  0  0
   18.1115   16.1133  -16.2083 C   0  0  0  0  0  0  0  0  0  0  0  0
   19.1895   16.8364  -16.6603 C   0  0  0  0  0  0  0  0  0  0  0  0
   18.3148   14.8858  -15.6221 C   0  0  0  0  0  0  0  0  0  0  0  0
   20.4648   16.3247  -16.5223 C   0  0  0  0  0  0  0  0  0  0  0  0
   19.5859   14.3785  -15.4870 C   0  0  0  0  0  0  0  0  0  0  0  0
   20.6727   15.0956  -15.9342 C   0  0  0  0  0  0  0  0  0  0  0  0
   23.2650   10.4105  -16.1668 C   0  0  0  0  0  0  0  0  0  0  0  0
   23.5049   11.5136  -16.9039 N   0  0  0  0  0  0  0  0  0  0  0  0
   23.1300   10.4054  -14.9476 O   0  0  0  0  0  0  0  0  0  0  0  0
   23.6183   11.4311  -17.8783 H   0  0  0  0  0  0  0  0  0  0  0  0
   23.2062    9.3015  -16.9507 O   0  0  0  0  0  0  0  0  0  0  0  0
   21.8972    8.7280  -17.0298 C   0  0  0  0  0  0  0  0  0  0  0  0
   19.0993   11.4539  -18.7769 C   0  0  0  0  0  0  0  0  0  0  0  0
   20.0274   10.8014  -19.5571 C   0  0  0  0  0  0  0  0  0  0  0  0
   19.0738   11.2224  -17.4218 C   0  0  0  0  0  0  0  0  0  0  0  0
   20.9249    9.9253  -18.9841 C   0  0  0  0  0  0  0  0  0  0  0  0
   19.9701   10.3466  -16.8523 C   0  0  0  0  0  0  0  0  0  0  0  0
   20.9068    9.6887  -17.6252 C   0  0  0  0  0  0  0  0  0  0  0  0
 16 17  1  0  0  0
 16 18  2  0  0  0
 28 29  1  0  0  0
 28 30  2  0  0  0
 17 19  2  0  0  0
 18 20  1  0  0  0
  1  2  1  0  0  0
  1  3  2  0  0  0
 29 31  2  0  0  0
 30 32  1  0  0  0
  2  4  2  0  0  0
 19 21  1  0  0  0
 20 21  2  0  0  0
  3  5  1  0  0  0
 31 33  1  0  0  0
 32 33  2  0  0  0
  4  6  1  0  0  0
 21  9  1  0  0  0
  5  6  2  0  0  0
  5  9  1  0  0  0
 33 27  1  0  0  0
  6 15  1  0  0  0
  7 10  1  0  0  0
  7 12  2  0  0  0
  7 15  1  0  0  0
  8 11  1  0  0  0
  8 13  2  0  0  0
  8 15  1  0  0  0
  9 14  2  0  0  0
 22 23  1  0  0  0
 22 24  2  0  0  0
 22 26  1  0  0  0
 10 14  1  0  0  0
 10 23  1  0  0  0
 27 26  1  0  0  0
 12 13  1  0  0  0
 23 25  1  0  0  0
M  END
> <minimizedAffinity>
0.00256

$$$$
