3ZLR_X0B_A_1198


 45 50  0  0  0  0  0  0  0  0999 V2000
  -15.7312  -16.6187  -47.3886 C   0  0  0  0  0  0  0  0  0  0  0  0
  -16.9372  -17.0075  -46.9308 N   0  0  0  0  0  0  0  0  0  0  0  0
  -15.5063  -15.2475  -47.2607 C   0  0  0  0  0  0  0  0  0  0  0  0
  -16.8703  -14.4292  -46.5424 S   0  0  0  0  0  0  0  0  0  0  0  0
  -17.6781  -15.9843  -46.4576 C   0  0  0  0  0  0  0  0  0  0  0  0
  -18.9590  -16.0556  -45.9177 C   0  0  0  0  0  0  0  0  0  0  0  0
  -19.2884  -17.2188  -45.2100 C   0  0  0  0  0  0  0  0  0  0  0  0
  -20.5581  -17.3560  -44.6516 C   0  0  0  0  0  0  0  0  0  0  0  0
  -21.4932  -16.3433  -44.8018 C   0  0  0  0  0  0  0  0  0  0  0  0
  -22.8767  -16.4737  -44.2032 C   0  0  0  0  0  0  0  0  0  0  0  0
  -23.8869  -15.9090  -45.2055 C   0  0  0  0  0  0  0  0  0  0  0  0
  -23.6735  -14.4127  -45.4403 C   0  0  0  0  0  0  0  0  0  0  0  0
  -19.8950  -15.0336  -46.0567 C   0  0  0  0  0  0  0  0  0  0  0  0
  -21.1656  -15.1879  -45.4994 C   0  0  0  0  0  0  0  0  0  0  0  0
  -22.2019  -14.1061  -45.6329 C   0  0  0  0  0  0  0  0  0  0  0  0
  -21.8744  -12.9101  -45.9047 N   0  0  0  0  0  0  0  0  0  0  0  0
  -22.7903  -11.9488  -46.0112 N   0  0  0  0  0  0  0  0  0  0  0  0
  -23.7154  -12.1515  -46.2799 H   0  0  0  0  0  0  0  0  0  0  0  0
  -22.3994  -10.6806  -45.7353 C   0  0  0  0  0  0  0  0  0  0  0  0
  -20.7218  -10.3363  -45.4409 S   0  0  0  0  0  0  0  0  0  0  0  0
  -21.2660   -8.7390  -45.2524 C   0  0  0  0  0  0  0  0  0  0  0  0
  -20.3678   -7.7170  -44.9623 C   0  0  0  0  0  0  0  0  0  0  0  0
  -20.8455   -6.4184  -44.8096 C   0  0  0  0  0  0  0  0  0  0  0  0
  -23.2805   -9.6517  -45.6904 N   0  0  0  0  0  0  0  0  0  0  0  0
  -22.6259   -8.4825  -45.4080 C   0  0  0  0  0  0  0  0  0  0  0  0
  -23.0999   -7.1797  -45.2601 C   0  0  0  0  0  0  0  0  0  0  0  0
  -22.2074   -6.1490  -44.9632 C   0  0  0  0  0  0  0  0  0  0  0  0
  -14.5867  -17.5231  -49.1830 O   0  0  0  0  0  0  0  0  0  0  0  0
  -14.7276  -17.5597  -47.9407 C   0  0  0  0  0  0  0  0  0  0  0  0
  -14.0775  -18.3375  -47.2053 O   0  0  0  0  0  0  0  0  0  0  0  0
  -15.0947  -16.9246  -49.6947 H   0  0  0  0  0  0  0  0  0  0  0  0
  -14.3383  -14.3589  -47.6364 C   0  0  0  0  0  0  0  0  0  0  0  0
  -14.6706  -13.7009  -48.9865 C   0  0  0  0  0  0  0  0  0  0  0  0
  -13.4599  -13.0594  -49.6647 C   0  0  0  0  0  0  0  0  0  0  0  0
  -12.5333  -12.6084  -48.6615 O   0  0  0  0  0  0  0  0  0  0  0  0
  -11.5851  -11.6607  -48.9504 C   0  0  0  0  0  0  0  0  0  0  0  0
  -11.5164  -10.5034  -48.1784 C   0  0  0  0  0  0  0  0  0  0  0  0
  -10.5520   -9.5418  -48.4604 C   0  0  0  0  0  0  0  0  0  0  0  0
   -9.6578   -9.7309  -49.5128 C   0  0  0  0  0  0  0  0  0  0  0  0
   -9.7266  -10.8877  -50.2826 C   0  0  0  0  0  0  0  0  0  0  0  0
  -10.6867  -11.8619  -49.9967 C   0  0  0  0  0  0  0  0  0  0  0  0
   -8.6046   -8.6821  -49.8183 C   0  0  0  0  0  0  0  0  0  0  0  0
   -7.4580   -9.3102  -50.4541 N   0  0  0  0  0  0  0  0  0  0  0  0
   -7.0632  -10.0112  -49.8271 H   0  0  0  0  0  0  0  0  0  0  0  0
   -6.7530   -8.6022  -50.6595 H   0  0  0  0  0  0  0  0  0  0  0  0
 28 29  1  0  0  0
 29 30  2  0  0  0
 29  1  1  0  0  0
  1  2  1  0  0  0
  1  3  2  0  0  0
  2  5  2  0  0  0
  3 32  1  0  0  0
  3  4  1  0  0  0
 32 33  1  0  0  0
 33 34  1  0  0  0
 34 35  1  0  0  0
 35 36  1  0  0  0
 36 37  1  0  0  0
 36 41  2  0  0  0
 37 38  2  0  0  0
 38 39  1  0  0  0
 39 42  1  0  0  0
 39 40  2  0  0  0
 42 43  1  0  0  0
 40 41  1  0  0  0
  4  5  1  0  0  0
  5  6  1  0  0  0
  6  7  1  0  0  0
  6 13  2  0  0  0
  7  8  2  0  0  0
  8  9  1  0  0  0
  9 10  1  0  0  0
  9 14  2  0  0  0
 10 11  1  0  0  0
 11 12  1  0  0  0
 12 15  1  0  0  0
 13 14  1  0  0  0
 14 15  1  0  0  0
 15 16  2  0  0  0
 16 17  1  0  0  0
 17 19  1  0  0  0
 19 20  1  0  0  0
 19 24  2  0  0  0
 20 21  1  0  0  0
 21 22  1  0  0  0
 21 25  2  0  0  0
 22 23  2  0  0  0
 23 27  1  0  0  0
 24 25  1  0  0  0
 25 26  1  0  0  0
 26 27  2  0  0  0
 28 31  1  0  0  0
 43 44  1  0  0  0
 43 45  1  0  0  0
 17 18  1  0  0  0
M  END
> <minimizedAffinity>
-12.93730

$$$$
3ZLR_X0B_A_1198


 45 50  0  0  0  0  0  0  0  0999 V2000
  -15.8906  -15.6162  -47.0564 C   0  0  0  0  0  0  0  0  0  0  0  0
  -17.0316  -15.3178  -46.4050 N   0  0  0  0  0  0  0  0  0  0  0  0
  -15.9113  -16.8732  -47.6619 C   0  0  0  0  0  0  0  0  0  0  0  0
  -17.4235  -17.7010  -47.3899 S   0  0  0  0  0  0  0  0  0  0  0  0
  -17.9484  -16.3055  -46.4651 C   0  0  0  0  0  0  0  0  0  0  0  0
  -19.2200  -16.3053  -45.8989 C   0  0  0  0  0  0  0  0  0  0  0  0
  -19.5929  -17.4416  -45.1695 C   0  0  0  0  0  0  0  0  0  0  0  0
  -20.8562  -17.5075  -44.5841 C   0  0  0  0  0  0  0  0  0  0  0  0
  -21.7419  -16.4506  -44.7290 C   0  0  0  0  0  0  0  0  0  0  0  0
  -23.1177  -16.5035  -44.1013 C   0  0  0  0  0  0  0  0  0  0  0  0
  -24.1185  -15.9007  -45.0906 C   0  0  0  0  0  0  0  0  0  0  0  0
  -23.8349  -14.4200  -45.3495 C   0  0  0  0  0  0  0  0  0  0  0  0
  -20.1059  -15.2390  -46.0328 C   0  0  0  0  0  0  0  0  0  0  0  0
  -21.3710  -15.3220  -45.4483 C   0  0  0  0  0  0  0  0  0  0  0  0
  -22.3540  -14.1908  -45.5754 C   0  0  0  0  0  0  0  0  0  0  0  0
  -21.9723  -13.0163  -45.8695 N   0  0  0  0  0  0  0  0  0  0  0  0
  -22.8406  -12.0112  -45.9704 N   0  0  0  0  0  0  0  0  0  0  0  0
  -23.7778  -12.1691  -46.2271 H   0  0  0  0  0  0  0  0  0  0  0  0
  -22.3840  -10.7627  -45.7061 C   0  0  0  0  0  0  0  0  0  0  0  0
  -20.6832  -10.4944  -45.4716 S   0  0  0  0  0  0  0  0  0  0  0  0
  -21.1487   -8.8752  -45.2603 C   0  0  0  0  0  0  0  0  0  0  0  0
  -20.1960   -7.8951  -45.0006 C   0  0  0  0  0  0  0  0  0  0  0  0
  -20.6096   -6.5772  -44.8281 C   0  0  0  0  0  0  0  0  0  0  0  0
  -23.2162   -9.6958  -45.6275 N   0  0  0  0  0  0  0  0  0  0  0  0
  -22.5005   -8.5579  -45.3664 C   0  0  0  0  0  0  0  0  0  0  0  0
  -22.9104   -7.2358  -45.1990 C   0  0  0  0  0  0  0  0  0  0  0  0
  -21.9627   -6.2469  -44.9322 C   0  0  0  0  0  0  0  0  0  0  0  0
  -15.0261  -13.4714  -47.0696 O   0  0  0  0  0  0  0  0  0  0  0  0
  -14.7400  -14.6863  -47.1513 C   0  0  0  0  0  0  0  0  0  0  0  0
  -13.5685  -15.0998  -47.3095 O   0  0  0  0  0  0  0  0  0  0  0  0
  -15.9171  -13.2068  -46.9512 H   0  0  0  0  0  0  0  0  0  0  0  0
  -14.8865  -17.6396  -48.4727 C   0  0  0  0  0  0  0  0  0  0  0  0
  -14.8614  -17.0302  -49.8849 C   0  0  0  0  0  0  0  0  0  0  0  0
  -13.4493  -16.8318  -50.4364 C   0  0  0  0  0  0  0  0  0  0  0  0
  -13.4234  -15.6634  -51.2746 O   0  0  0  0  0  0  0  0  0  0  0  0
  -12.7826  -14.5195  -50.8725 C   0  0  0  0  0  0  0  0  0  0  0  0
  -13.4960  -13.5412  -50.1840 C   0  0  0  0  0  0  0  0  0  0  0  0
  -12.8507  -12.3823  -49.7658 C   0  0  0  0  0  0  0  0  0  0  0  0
  -11.4960  -12.1959  -50.0356 C   0  0  0  0  0  0  0  0  0  0  0  0
  -10.7841  -13.1742  -50.7224 C   0  0  0  0  0  0  0  0  0  0  0  0
  -11.4251  -14.3453  -51.1353 C   0  0  0  0  0  0  0  0  0  0  0  0
  -10.7925  -10.9321  -49.5771 C   0  0  0  0  0  0  0  0  0  0  0  0
  -11.7013  -10.1288  -48.7756 N   0  0  0  0  0  0  0  0  0  0  0  0
  -12.5159   -9.8767  -49.3352 H   0  0  0  0  0  0  0  0  0  0  0  0
  -11.2246   -9.2812  -48.4678 H   0  0  0  0  0  0  0  0  0  0  0  0
 28 29  1  0  0  0
 29 30  2  0  0  0
 29  1  1  0  0  0
  1  2  1  0  0  0
  1  3  2  0  0  0
  2  5  2  0  0  0
  3 32  1  0  0  0
  3  4  1  0  0  0
 32 33  1  0  0  0
 33 34  1  0  0  0
 34 35  1  0  0  0
 35 36  1  0  0  0
 36 37  1  0  0  0
 36 41  2  0  0  0
 37 38  2  0  0  0
 38 39  1  0  0  0
 39 42  1  0  0  0
 39 40  2  0  0  0
 42 43  1  0  0  0
 40 41  1  0  0  0
  4  5  1  0  0  0
  5  6  1  0  0  0
  6  7  1  0  0  0
  6 13  2  0  0  0
  7  8  2  0  0  0
  8  9  1  0  0  0
  9 10  1  0  0  0
  9 14  2  0  0  0
 10 11  1  0  0  0
 11 12  1  0  0  0
 12 15  1  0  0  0
 13 14  1  0  0  0
 14 15  1  0  0  0
 15 16  2  0  0  0
 16 17  1  0  0  0
 17 19  1  0  0  0
 19 20  1  0  0  0
 19 24  2  0  0  0
 20 21  1  0  0  0
 21 22  1  0  0  0
 21 25  2  0  0  0
 22 23  2  0  0  0
 23 27  1  0  0  0
 24 25  1  0  0  0
 25 26  1  0  0  0
 26 27  2  0  0  0
 28 31  1  0  0  0
 43 44  1  0  0  0
 43 45  1  0  0  0
 17 18  1  0  0  0
M  END
> <minimizedAffinity>
-11.18988

$$$$
3ZLR_X0B_A_1198


 45 50  0  0  0  0  0  0  0  0999 V2000
  -15.8067  -15.3715  -47.1375 C   0  0  0  0  0  0  0  0  0  0  0  0
  -16.9837  -15.0797  -46.5504 N   0  0  0  0  0  0  0  0  0  0  0  0
  -15.6995  -16.7064  -47.5297 C   0  0  0  0  0  0  0  0  0  0  0  0
  -17.1352  -17.6171  -47.1352 S   0  0  0  0  0  0  0  0  0  0  0  0
  -17.8049  -16.1456  -46.4538 C   0  0  0  0  0  0  0  0  0  0  0  0
  -19.0828  -16.1727  -45.9028 C   0  0  0  0  0  0  0  0  0  0  0  0
  -19.4382  -17.3148  -45.1737 C   0  0  0  0  0  0  0  0  0  0  0  0
  -20.7066  -17.4077  -44.6032 C   0  0  0  0  0  0  0  0  0  0  0  0
  -21.6146  -16.3721  -44.7626 C   0  0  0  0  0  0  0  0  0  0  0  0
  -22.9962  -16.4545  -44.1511 C   0  0  0  0  0  0  0  0  0  0  0  0
  -23.9987  -15.8783  -45.1546 C   0  0  0  0  0  0  0  0  0  0  0  0
  -23.7461  -14.3924  -45.4156 C   0  0  0  0  0  0  0  0  0  0  0  0
  -19.9914  -15.1276  -46.0512 C   0  0  0  0  0  0  0  0  0  0  0  0
  -21.2611  -15.2377  -45.4816 C   0  0  0  0  0  0  0  0  0  0  0  0
  -22.2683  -14.1299  -45.6246 C   0  0  0  0  0  0  0  0  0  0  0  0
  -21.9103  -12.9480  -45.9186 N   0  0  0  0  0  0  0  0  0  0  0  0
  -22.8002  -11.9635  -46.0336 N   0  0  0  0  0  0  0  0  0  0  0  0
  -23.7274  -12.1424  -46.3119 H   0  0  0  0  0  0  0  0  0  0  0  0
  -22.3798  -10.7059  -45.7528 C   0  0  0  0  0  0  0  0  0  0  0  0
  -20.6937  -10.4006  -45.4643 S   0  0  0  0  0  0  0  0  0  0  0  0
  -21.2013   -8.7927  -45.2649 C   0  0  0  0  0  0  0  0  0  0  0  0
  -20.2793   -7.7925  -44.9735 C   0  0  0  0  0  0  0  0  0  0  0  0
  -20.7272   -6.4844  -44.8117 C   0  0  0  0  0  0  0  0  0  0  0  0
  -23.2376   -9.6578  -45.6985 N   0  0  0  0  0  0  0  0  0  0  0  0
  -22.5558   -8.5051  -45.4129 C   0  0  0  0  0  0  0  0  0  0  0  0
  -23.0000   -7.1928  -45.2560 C   0  0  0  0  0  0  0  0  0  0  0  0
  -22.0833   -6.1839  -44.9577 C   0  0  0  0  0  0  0  0  0  0  0  0
  -15.0160  -13.2024  -47.0055 O   0  0  0  0  0  0  0  0  0  0  0  0
  -14.7442  -14.3657  -47.3761 C   0  0  0  0  0  0  0  0  0  0  0  0
  -13.6570  -14.6700  -47.9184 O   0  0  0  0  0  0  0  0  0  0  0  0
  -15.8426  -13.0198  -46.6038 H   0  0  0  0  0  0  0  0  0  0  0  0
  -14.5921  -17.4946  -48.1984 C   0  0  0  0  0  0  0  0  0  0  0  0
  -14.8877  -17.5225  -49.7077 C   0  0  0  0  0  0  0  0  0  0  0  0
  -13.7315  -17.0048  -50.5634 C   0  0  0  0  0  0  0  0  0  0  0  0
  -12.6560  -17.9594  -50.5418 O   0  0  0  0  0  0  0  0  0  0  0  0
  -11.5893  -17.8029  -49.6942 C   0  0  0  0  0  0  0  0  0  0  0  0
  -11.1726  -18.8778  -48.9126 C   0  0  0  0  0  0  0  0  0  0  0  0
  -10.0863  -18.7288  -48.0568 C   0  0  0  0  0  0  0  0  0  0  0  0
   -9.4168  -17.5090  -47.9770 C   0  0  0  0  0  0  0  0  0  0  0  0
   -9.8332  -16.4363  -48.7589 C   0  0  0  0  0  0  0  0  0  0  0  0
  -10.9172  -16.5838  -49.6283 C   0  0  0  0  0  0  0  0  0  0  0  0
   -8.2305  -17.3481  -47.0446 C   0  0  0  0  0  0  0  0  0  0  0  0
   -8.6439  -16.6412  -45.8434 N   0  0  0  0  0  0  0  0  0  0  0  0
   -9.0004  -15.7197  -46.0969 H   0  0  0  0  0  0  0  0  0  0  0  0
   -7.8446  -16.5363  -45.2185 H   0  0  0  0  0  0  0  0  0  0  0  0
 28 29  1  0  0  0
 29 30  2  0  0  0
 29  1  1  0  0  0
  1  2  1  0  0  0
  1  3  2  0  0  0
  2  5  2  0  0  0
  3 32  1  0  0  0
  3  4  1  0  0  0
 32 33  1  0  0  0
 33 34  1  0  0  0
 34 35  1  0  0  0
 35 36  1  0  0  0
 36 37  1  0  0  0
 36 41  2  0  0  0
 37 38  2  0  0  0
 38 39  1  0  0  0
 39 42  1  0  0  0
 39 40  2  0  0  0
 42 43  1  0  0  0
 40 41  1  0  0  0
  4  5  1  0  0  0
  5  6  1  0  0  0
  6  7  1  0  0  0
  6 13  2  0  0  0
  7  8  2  0  0  0
  8  9  1  0  0  0
  9 10  1  0  0  0
  9 14  2  0  0  0
 10 11  1  0  0  0
 11 12  1  0  0  0
 12 15  1  0  0  0
 13 14  1  0  0  0
 14 15  1  0  0  0
 15 16  2  0  0  0
 16 17  1  0  0  0
 17 19  1  0  0  0
 19 20  1  0  0  0
 19 24  2  0  0  0
 20 21  1  0  0  0
 21 22  1  0  0  0
 21 25  2  0  0  0
 22 23  2  0  0  0
 23 27  1  0  0  0
 24 25  1  0  0  0
 25 26  1  0  0  0
 26 27  2  0  0  0
 28 31  1  0  0  0
 43 44  1  0  0  0
 43 45  1  0  0  0
 17 18  1  0  0  0
M  END
> <minimizedAffinity>
-10.45573

$$$$
3ZLR_X0B_A_1198


 45 50  0  0  0  0  0  0  0  0999 V2000
  -15.9932  -16.2834  -47.3066 C   0  0  0  0  0  0  0  0  0  0  0  0
  -14.8400  -16.0150  -47.9495 N   0  0  0  0  0  0  0  0  0  0  0  0
  -16.6548  -15.1405  -46.8558 C   0  0  0  0  0  0  0  0  0  0  0  0
  -15.7818  -13.6834  -47.2568 S   0  0  0  0  0  0  0  0  0  0  0  0
  -14.5625  -14.6962  -48.0089 C   0  0  0  0  0  0  0  0  0  0  0  0
  -13.4546  -14.0980  -48.6023 C   0  0  0  0  0  0  0  0  0  0  0  0
  -13.6011  -12.7740  -49.0358 C   0  0  0  0  0  0  0  0  0  0  0  0
  -12.5316  -12.1206  -49.6457 C   0  0  0  0  0  0  0  0  0  0  0  0
  -11.3274  -12.7838  -49.8260 C   0  0  0  0  0  0  0  0  0  0  0  0
  -10.1550  -12.0914  -50.4862 C   0  0  0  0  0  0  0  0  0  0  0  0
   -9.4632  -13.0977  -51.4096 C   0  0  0  0  0  0  0  0  0  0  0  0
   -8.8684  -14.2683  -50.6249 C   0  0  0  0  0  0  0  0  0  0  0  0
  -12.2404  -14.7587  -48.7724 C   0  0  0  0  0  0  0  0  0  0  0  0
  -11.1803  -14.0949  -49.3924 C   0  0  0  0  0  0  0  0  0  0  0  0
   -9.8562  -14.7788  -49.5952 C   0  0  0  0  0  0  0  0  0  0  0  0
   -9.5281  -15.7955  -48.9096 N   0  0  0  0  0  0  0  0  0  0  0  0
   -8.3507  -16.3947  -49.0799 N   0  0  0  0  0  0  0  0  0  0  0  0
   -7.9277  -16.4480  -49.9673 H   0  0  0  0  0  0  0  0  0  0  0  0
   -7.7573  -16.9283  -47.9843 C   0  0  0  0  0  0  0  0  0  0  0  0
   -8.6920  -17.8792  -46.8700 S   0  0  0  0  0  0  0  0  0  0  0  0
   -7.2191  -18.0295  -46.0388 C   0  0  0  0  0  0  0  0  0  0  0  0
   -7.1448  -18.7682  -44.8622 C   0  0  0  0  0  0  0  0  0  0  0  0
   -5.9237  -18.8692  -44.2016 C   0  0  0  0  0  0  0  0  0  0  0  0
   -6.4380  -16.7548  -47.7263 N   0  0  0  0  0  0  0  0  0  0  0  0
   -6.0936  -17.4066  -46.5724 C   0  0  0  0  0  0  0  0  0  0  0  0
   -4.8709  -17.5150  -45.9112 C   0  0  0  0  0  0  0  0  0  0  0  0
   -4.7881  -18.2488  -44.7272 C   0  0  0  0  0  0  0  0  0  0  0  0
  -15.8951  -18.5558  -47.7245 O   0  0  0  0  0  0  0  0  0  0  0  0
  -16.5252  -17.6554  -47.1271 C   0  0  0  0  0  0  0  0  0  0  0  0
  -17.5400  -17.8839  -46.4296 O   0  0  0  0  0  0  0  0  0  0  0  0
  -15.1404  -18.3391  -48.2359 H   0  0  0  0  0  0  0  0  0  0  0  0
  -17.9444  -14.9360  -46.0878 C   0  0  0  0  0  0  0  0  0  0  0  0
  -18.5227  -13.5731  -46.5052 C   0  0  0  0  0  0  0  0  0  0  0  0
  -19.8333  -13.2265  -45.7985 C   0  0  0  0  0  0  0  0  0  0  0  0
  -20.5762  -12.2921  -46.6006 O   0  0  0  0  0  0  0  0  0  0  0  0
  -20.8569  -11.0316  -46.1389 C   0  0  0  0  0  0  0  0  0  0  0  0
  -20.2535  -10.5816  -44.9670 C   0  0  0  0  0  0  0  0  0  0  0  0
  -20.5270   -9.3013  -44.4974 C   0  0  0  0  0  0  0  0  0  0  0  0
  -21.4035   -8.4702  -45.1928 C   0  0  0  0  0  0  0  0  0  0  0  0
  -22.0049   -8.9202  -46.3638 C   0  0  0  0  0  0  0  0  0  0  0  0
  -21.7251  -10.2017  -46.8458 C   0  0  0  0  0  0  0  0  0  0  0  0
  -21.6996   -7.0728  -44.6807 C   0  0  0  0  0  0  0  0  0  0  0  0
  -20.5534   -6.2108  -44.9187 N   0  0  0  0  0  0  0  0  0  0  0  0
  -19.7401   -6.5836  -44.4289 H   0  0  0  0  0  0  0  0  0  0  0  0
  -20.7566   -5.2722  -44.5748 H   0  0  0  0  0  0  0  0  0  0  0  0
 28 29  1  0  0  0
 29 30  2  0  0  0
 29  1  1  0  0  0
  1  2  1  0  0  0
  1  3  2  0  0  0
  2  5  2  0  0  0
  3 32  1  0  0  0
  3  4  1  0  0  0
 32 33  1  0  0  0
 33 34  1  0  0  0
 34 35  1  0  0  0
 35 36  1  0  0  0
 36 37  1  0  0  0
 36 41  2  0  0  0
 37 38  2  0  0  0
 38 39  1  0  0  0
 39 42  1  0  0  0
 39 40  2  0  0  0
 42 43  1  0  0  0
 40 41  1  0  0  0
  4  5  1  0  0  0
  5  6  1  0  0  0
  6  7  1  0  0  0
  6 13  2  0  0  0
  7  8  2  0  0  0
  8  9  1  0  0  0
  9 10  1  0  0  0
  9 14  2  0  0  0
 10 11  1  0  0  0
 11 12  1  0  0  0
 12 15  1  0  0  0
 13 14  1  0  0  0
 14 15  1  0  0  0
 15 16  2  0  0  0
 16 17  1  0  0  0
 17 19  1  0  0  0
 19 20  1  0  0  0
 19 24  2  0  0  0
 20 21  1  0  0  0
 21 22  1  0  0  0
 21 25  2  0  0  0
 22 23  2  0  0  0
 23 27  1  0  0  0
 24 25  1  0  0  0
 25 26  1  0  0  0
 26 27  2  0  0  0
 28 31  1  0  0  0
 43 44  1  0  0  0
 43 45  1  0  0  0
 17 18  1  0  0  0
M  END
> <minimizedAffinity>
-10.37859

$$$$
3ZLR_X0B_A_1198


 45 50  0  0  0  0  0  0  0  0999 V2000
  -14.0635  -16.6017  -48.2712 C   0  0  0  0  0  0  0  0  0  0  0  0
  -13.0364  -15.8595  -48.7290 N   0  0  0  0  0  0  0  0  0  0  0  0
  -15.1044  -15.8389  -47.7405 C   0  0  0  0  0  0  0  0  0  0  0  0
  -14.7641  -14.1290  -47.8215 S   0  0  0  0  0  0  0  0  0  0  0  0
  -13.2271  -14.5343  -48.5642 C   0  0  0  0  0  0  0  0  0  0  0  0
  -12.3591  -13.5100  -48.9311 C   0  0  0  0  0  0  0  0  0  0  0  0
  -12.8035  -12.1964  -48.7327 C   0  0  0  0  0  0  0  0  0  0  0  0
  -11.9850  -11.1253  -49.0871 C   0  0  0  0  0  0  0  0  0  0  0  0
  -10.7355  -11.3623  -49.6391 C   0  0  0  0  0  0  0  0  0  0  0  0
   -9.8326  -10.2127  -50.0304 C   0  0  0  0  0  0  0  0  0  0  0  0
   -9.1511  -10.5689  -51.3543 C   0  0  0  0  0  0  0  0  0  0  0  0
   -8.2367  -11.7865  -51.2092 C   0  0  0  0  0  0  0  0  0  0  0  0
  -11.0984  -13.7466  -49.4738 C   0  0  0  0  0  0  0  0  0  0  0  0
  -10.2926  -12.6644  -49.8319 C   0  0  0  0  0  0  0  0  0  0  0  0
   -8.9271  -12.8831  -50.4233 C   0  0  0  0  0  0  0  0  0  0  0  0
   -8.3150  -13.9856  -50.2776 N   0  0  0  0  0  0  0  0  0  0  0  0
   -7.1006  -14.1763  -50.7906 N   0  0  0  0  0  0  0  0  0  0  0  0
   -6.8473  -13.7923  -51.6611 H   0  0  0  0  0  0  0  0  0  0  0  0
   -6.2271  -14.9193  -50.0681 C   0  0  0  0  0  0  0  0  0  0  0  0
   -4.6240  -15.2043  -50.6751 S   0  0  0  0  0  0  0  0  0  0  0  0
   -4.4230  -16.0723  -49.2296 C   0  0  0  0  0  0  0  0  0  0  0  0
   -3.2104  -16.6896  -48.9399 C   0  0  0  0  0  0  0  0  0  0  0  0
   -3.0782  -17.3974  -47.7485 C   0  0  0  0  0  0  0  0  0  0  0  0
   -6.5584  -15.4481  -48.8649 N   0  0  0  0  0  0  0  0  0  0  0  0
   -5.4958  -16.1368  -48.3440 C   0  0  0  0  0  0  0  0  0  0  0  0
   -5.3577  -16.8416  -47.1489 C   0  0  0  0  0  0  0  0  0  0  0  0
   -4.1471  -17.4691  -46.8525 C   0  0  0  0  0  0  0  0  0  0  0  0
  -13.9543  -18.6828  -47.2686 O   0  0  0  0  0  0  0  0  0  0  0  0
  -14.1002  -18.0813  -48.3556 C   0  0  0  0  0  0  0  0  0  0  0  0
  -14.2597  -18.6764  -49.4459 O   0  0  0  0  0  0  0  0  0  0  0  0
  -13.8378  -18.1966  -46.4761 H   0  0  0  0  0  0  0  0  0  0  0  0
  -16.4298  -16.2093  -47.1073 C   0  0  0  0  0  0  0  0  0  0  0  0
  -17.1026  -14.9066  -46.6419 C   0  0  0  0  0  0  0  0  0  0  0  0
  -18.1557  -15.1209  -45.5546 C   0  0  0  0  0  0  0  0  0  0  0  0
  -19.4673  -15.0664  -46.1421 O   0  0  0  0  0  0  0  0  0  0  0  0
  -20.2320  -13.9310  -46.0591 C   0  0  0  0  0  0  0  0  0  0  0  0
  -21.5979  -14.0423  -45.8102 C   0  0  0  0  0  0  0  0  0  0  0  0
  -22.3781  -12.8948  -45.7164 C   0  0  0  0  0  0  0  0  0  0  0  0
  -21.7992  -11.6366  -45.8732 C   0  0  0  0  0  0  0  0  0  0  0  0
  -20.4346  -11.5265  -46.1207 C   0  0  0  0  0  0  0  0  0  0  0  0
  -19.6442  -12.6759  -46.2051 C   0  0  0  0  0  0  0  0  0  0  0  0
  -22.6510  -10.3852  -45.7686 C   0  0  0  0  0  0  0  0  0  0  0  0
  -22.9368   -9.8745  -47.0994 N   0  0  0  0  0  0  0  0  0  0  0  0
  -22.0616   -9.6478  -47.5717 H   0  0  0  0  0  0  0  0  0  0  0  0
  -23.5107   -9.0346  -47.0253 H   0  0  0  0  0  0  0  0  0  0  0  0
 28 29  1  0  0  0
 29 30  2  0  0  0
 29  1  1  0  0  0
  1  2  1  0  0  0
  1  3  2  0  0  0
  2  5  2  0  0  0
  3 32  1  0  0  0
  3  4  1  0  0  0
 32 33  1  0  0  0
 33 34  1  0  0  0
 34 35  1  0  0  0
 35 36  1  0  0  0
 36 37  1  0  0  0
 36 41  2  0  0  0
 37 38  2  0  0  0
 38 39  1  0  0  0
 39 42  1  0  0  0
 39 40  2  0  0  0
 42 43  1  0  0  0
 40 41  1  0  0  0
  4  5  1  0  0  0
  5  6  1  0  0  0
  6  7  1  0  0  0
  6 13  2  0  0  0
  7  8  2  0  0  0
  8  9  1  0  0  0
  9 10  1  0  0  0
  9 14  2  0  0  0
 10 11  1  0  0  0
 11 12  1  0  0  0
 12 15  1  0  0  0
 13 14  1  0  0  0
 14 15  1  0  0  0
 15 16  2  0  0  0
 16 17  1  0  0  0
 17 19  1  0  0  0
 19 20  1  0  0  0
 19 24  2  0  0  0
 20 21  1  0  0  0
 21 22  1  0  0  0
 21 25  2  0  0  0
 22 23  2  0  0  0
 23 27  1  0  0  0
 24 25  1  0  0  0
 25 26  1  0  0  0
 26 27  2  0  0  0
 28 31  1  0  0  0
 43 44  1  0  0  0
 43 45  1  0  0  0
 17 18  1  0  0  0
M  END
> <minimizedAffinity>
-10.23519

$$$$
