2QRK_AMP_A_500


 29 31  0  0  0  0  0  0  0  0999 V2000
   32.4133    3.1392    9.4126 C   0  0  0  0  0  0  0  0  0  0  0  0
   32.6785    1.9138   10.0778 O   0  0  0  0  0  0  0  0  0  0  0  0
   33.7420    3.8164    9.0941 C   0  0  0  0  0  0  0  0  0  0  0  0
   34.0015    4.8786   10.0293 O   0  0  0  0  0  0  0  0  0  0  0  0
   34.7306    2.6767    9.2951 C   0  0  0  0  0  0  0  0  0  0  0  0
   36.0585    3.0968    9.6441 O   0  0  0  0  0  0  0  0  0  0  0  0
   34.0512    1.9117   10.4201 C   0  0  0  0  0  0  0  0  0  0  0  0
   33.9763    4.5270   10.9330 H   0  0  0  0  0  0  0  0  0  0  0  0
   36.0269    3.6284   10.4548 H   0  0  0  0  0  0  0  0  0  0  0  0
   34.5412    0.5215   10.5201 N   0  0  0  0  0  0  0  0  0  0  0  0
   34.8941   -0.2926    9.4903 C   0  0  0  0  0  0  0  0  0  0  0  0
   35.3101   -1.4951    9.9707 N   0  0  0  0  0  0  0  0  0  0  0  0
   35.2158   -1.4347   11.3255 C   0  0  0  0  0  0  0  0  0  0  0  0
   35.5038   -2.3487   12.4486 C   0  0  0  0  0  0  0  0  0  0  0  0
   35.9928   -3.5947   12.1731 N   0  0  0  0  0  0  0  0  0  0  0  0
   35.2819   -1.8942   13.7152 N   0  0  0  0  0  0  0  0  0  0  0  0
   34.8128   -0.6453   13.9827 C   0  0  0  0  0  0  0  0  0  0  0  0
   34.5288    0.2447   12.9958 N   0  0  0  0  0  0  0  0  0  0  0  0
   34.7148   -0.0962   11.6880 C   0  0  0  0  0  0  0  0  0  0  0  0
   36.1344   -3.8726   11.2393 H   0  0  0  0  0  0  0  0  0  0  0  0
   36.2034   -4.2145   12.9085 H   0  0  0  0  0  0  0  0  0  0  0  0
   31.6109    2.7504    8.1892 C   0  0  0  0  0  0  0  0  0  0  0  0
   30.6049    3.7310    8.0809 O   0  0  0  0  0  0  0  0  0  0  0  0
   29.1335    3.4922    8.6551 P   0  0  0  0  0  0  0  0  0  0  0  0
   28.2955    4.3048    7.6840 O   0  0  0  0  0  0  0  0  0  0  0  0
   28.8785    2.0054    8.4714 O   0  0  0  0  0  0  0  0  0  0  0  0
   29.1016    3.9570   10.1151 O   0  0  0  0  0  0  0  0  0  0  0  0
   27.9933    1.7859    8.8019 H   0  0  0  0  0  0  0  0  0  0  0  0
   28.2133    3.8186   10.4792 H   0  0  0  0  0  0  0  0  0  0  0  0
 24 25  2  0  0  0
 24 26  1  0  0  0
 24 27  1  0  0  0
 24 23  1  0  0  0
 23 22  1  0  0  0
 22  1  1  0  0  0
  1  2  1  0  0  0
  1  3  1  0  0  0
  2  7  1  0  0  0
  3  4  1  0  0  0
  3  5  1  0  0  0
  5  6  1  0  0  0
  5  7  1  0  0  0
  7 10  1  0  0  0
 10 11  1  0  0  0
 10 19  1  0  0  0
 11 12  2  0  0  0
 12 13  1  0  0  0
 13 14  1  0  0  0
 13 19  2  0  0  0
 14 15  1  0  0  0
 14 16  2  0  0  0
 16 17  1  0  0  0
 17 18  2  0  0  0
 18 19  1  0  0  0
 26 28  1  0  0  0
 27 29  1  0  0  0
  4  8  1  0  0  0
  6  9  1  0  0  0
 15 20  1  0  0  0
 15 21  1  0  0  0
M  END
> <minimizedAffinity>
-8.14410

$$$$
2QRK_AMP_A_500


 29 31  0  0  0  0  0  0  0  0999 V2000
   31.2049    2.9327    6.5485 C   0  0  0  0  0  0  0  0  0  0  0  0
   30.3009    1.9000    6.1868 O   0  0  0  0  0  0  0  0  0  0  0  0
   30.4119    4.0754    7.1735 C   0  0  0  0  0  0  0  0  0  0  0  0
   30.2429    5.1461    6.2274 O   0  0  0  0  0  0  0  0  0  0  0  0
   29.0760    3.4069    7.4653 C   0  0  0  0  0  0  0  0  0  0  0  0
   27.9572    4.3061    7.5020 O   0  0  0  0  0  0  0  0  0  0  0  0
   28.9936    2.4276    6.3049 C   0  0  0  0  0  0  0  0  0  0  0  0
   29.8214    4.8039    5.4236 H   0  0  0  0  0  0  0  0  0  0  0  0
   27.8922    4.7761    6.6559 H   0  0  0  0  0  0  0  0  0  0  0  0
   28.0338    1.3356    6.5681 N   0  0  0  0  0  0  0  0  0  0  0  0
   27.9819    0.5474    7.6743 C   0  0  0  0  0  0  0  0  0  0  0  0
   26.9548   -0.3376    7.5660 N   0  0  0  0  0  0  0  0  0  0  0  0
   26.3523   -0.1010    6.3706 C   0  0  0  0  0  0  0  0  0  0  0  0
   25.2027   -0.6637    5.6347 C   0  0  0  0  0  0  0  0  0  0  0  0
   24.4924   -1.6825    6.2048 N   0  0  0  0  0  0  0  0  0  0  0  0
   24.8944   -0.1231    4.4211 N   0  0  0  0  0  0  0  0  0  0  0  0
   25.5947    0.9042    3.8682 C   0  0  0  0  0  0  0  0  0  0  0  0
   26.6618    1.4677    4.4929 N   0  0  0  0  0  0  0  0  0  0  0  0
   27.0624    1.0126    5.7151 C   0  0  0  0  0  0  0  0  0  0  0  0
   24.7584   -2.0362    7.0842 H   0  0  0  0  0  0  0  0  0  0  0  0
   23.7146   -2.0628    5.7361 H   0  0  0  0  0  0  0  0  0  0  0  0
   32.1869    2.2745    7.4942 C   0  0  0  0  0  0  0  0  0  0  0  0
   32.4084    3.2215    8.5138 O   0  0  0  0  0  0  0  0  0  0  0  0
   32.2630    2.8424   10.0587 P   0  0  0  0  0  0  0  0  0  0  0  0
   33.3419    1.7851   10.2124 O   0  0  0  0  0  0  0  0  0  0  0  0
   32.6405    4.1086   10.8094 O   0  0  0  0  0  0  0  0  0  0  0  0
   30.8263    2.3712   10.3090 O   0  0  0  0  0  0  0  0  0  0  0  0
   32.5742    3.9504   11.7641 H   0  0  0  0  0  0  0  0  0  0  0  0
   30.7212    2.1367   11.2443 H   0  0  0  0  0  0  0  0  0  0  0  0
 24 25  2  0  0  0
 24 26  1  0  0  0
 24 27  1  0  0  0
 24 23  1  0  0  0
 23 22  1  0  0  0
 22  1  1  0  0  0
  1  2  1  0  0  0
  1  3  1  0  0  0
  2  7  1  0  0  0
  3  4  1  0  0  0
  3  5  1  0  0  0
  5  6  1  0  0  0
  5  7  1  0  0  0
  7 10  1  0  0  0
 10 11  1  0  0  0
 10 19  1  0  0  0
 11 12  2  0  0  0
 12 13  1  0  0  0
 13 14  1  0  0  0
 13 19  2  0  0  0
 14 15  1  0  0  0
 14 16  2  0  0  0
 16 17  1  0  0  0
 17 18  2  0  0  0
 18 19  1  0  0  0
 26 28  1  0  0  0
 27 29  1  0  0  0
  4  8  1  0  0  0
  6  9  1  0  0  0
 15 20  1  0  0  0
 15 21  1  0  0  0
M  END
> <minimizedAffinity>
-6.19646

$$$$
2QRK_AMP_A_500


 29 31  0  0  0  0  0  0  0  0999 V2000
   27.9952    4.2955    6.2562 C   0  0  0  0  0  0  0  0  0  0  0  0
   28.7650    4.3103    7.4485 O   0  0  0  0  0  0  0  0  0  0  0  0
   28.8445    3.7029    5.1370 C   0  0  0  0  0  0  0  0  0  0  0  0
   29.3512    4.7455    4.2847 O   0  0  0  0  0  0  0  0  0  0  0  0
   29.9795    3.0531    5.9155 C   0  0  0  0  0  0  0  0  0  0  0  0
   31.2078    2.9284    5.1824 O   0  0  0  0  0  0  0  0  0  0  0  0
   30.1004    4.0135    7.0883 C   0  0  0  0  0  0  0  0  0  0  0  0
   29.8443    5.3882    4.8183 H   0  0  0  0  0  0  0  0  0  0  0  0
   31.4965    3.8050    4.8839 H   0  0  0  0  0  0  0  0  0  0  0  0
   30.8054    3.4031    8.2344 N   0  0  0  0  0  0  0  0  0  0  0  0
   30.2362    2.8241    9.3246 C   0  0  0  0  0  0  0  0  0  0  0  0
   31.2028    2.3605   10.1617 N   0  0  0  0  0  0  0  0  0  0  0  0
   32.3992    2.6546    9.5871 C   0  0  0  0  0  0  0  0  0  0  0  0
   33.8192    2.4392    9.9288 C   0  0  0  0  0  0  0  0  0  0  0  0
   34.1241    1.7905   11.0924 N   0  0  0  0  0  0  0  0  0  0  0  0
   34.7625    2.8865    9.0512 N   0  0  0  0  0  0  0  0  0  0  0  0
   34.4510    3.5148    7.8852 C   0  0  0  0  0  0  0  0  0  0  0  0
   33.1648    3.7434    7.5109 N   0  0  0  0  0  0  0  0  0  0  0  0
   32.1343    3.3371    8.3072 C   0  0  0  0  0  0  0  0  0  0  0  0
   33.4033    1.4882   11.6909 H   0  0  0  0  0  0  0  0  0  0  0  0
   35.0647    1.6256   11.3321 H   0  0  0  0  0  0  0  0  0  0  0  0
   26.7677    3.4777    6.5974 C   0  0  0  0  0  0  0  0  0  0  0  0
   27.2041    2.5387    7.5532 O   0  0  0  0  0  0  0  0  0  0  0  0
   26.8744    0.9820    7.4130 P   0  0  0  0  0  0  0  0  0  0  0  0
   25.4696    0.9187    7.9859 O   0  0  0  0  0  0  0  0  0  0  0  0
   26.8569    0.7191    5.9164 O   0  0  0  0  0  0  0  0  0  0  0  0
   27.9423    0.1899    8.1752 O   0  0  0  0  0  0  0  0  0  0  0  0
   26.6606   -0.2170    5.7548 H   0  0  0  0  0  0  0  0  0  0  0  0
   27.7562   -0.7591    8.0998 H   0  0  0  0  0  0  0  0  0  0  0  0
 24 25  2  0  0  0
 24 26  1  0  0  0
 24 27  1  0  0  0
 24 23  1  0  0  0
 23 22  1  0  0  0
 22  1  1  0  0  0
  1  2  1  0  0  0
  1  3  1  0  0  0
  2  7  1  0  0  0
  3  4  1  0  0  0
  3  5  1  0  0  0
  5  6  1  0  0  0
  5  7  1  0  0  0
  7 10  1  0  0  0
 10 11  1  0  0  0
 10 19  1  0  0  0
 11 12  2  0  0  0
 12 13  1  0  0  0
 13 14  1  0  0  0
 13 19  2  0  0  0
 14 15  1  0  0  0
 14 16  2  0  0  0
 16 17  1  0  0  0
 17 18  2  0  0  0
 18 19  1  0  0  0
 26 28  1  0  0  0
 27 29  1  0  0  0
  4  8  1  0  0  0
  6  9  1  0  0  0
 15 20  1  0  0  0
 15 21  1  0  0  0
M  END
> <minimizedAffinity>
-6.16523

$$$$
2QRK_AMP_A_500


 29 31  0  0  0  0  0  0  0  0999 V2000
   30.6651    3.6184    7.5925 C   0  0  0  0  0  0  0  0  0  0  0  0
   30.0769    3.5678    6.3017 O   0  0  0  0  0  0  0  0  0  0  0  0
   29.8072    2.7979    8.5496 C   0  0  0  0  0  0  0  0  0  0  0  0
   28.9918    3.6625    9.3606 O   0  0  0  0  0  0  0  0  0  0  0  0
   28.9411    1.9981    7.5869 C   0  0  0  0  0  0  0  0  0  0  0  0
   27.6746    1.5899    8.1262 O   0  0  0  0  0  0  0  0  0  0  0  0
   28.7913    2.9964    6.4497 C   0  0  0  0  0  0  0  0  0  0  0  0
   28.4574    4.2342    8.7874 H   0  0  0  0  0  0  0  0  0  0  0  0
   27.1789    2.3720    8.4149 H   0  0  0  0  0  0  0  0  0  0  0  0
   28.3846    2.3430    5.1884 N   0  0  0  0  0  0  0  0  0  0  0  0
   29.1998    1.9651    4.1685 C   0  0  0  0  0  0  0  0  0  0  0  0
   28.4683    1.3825    3.1810 N   0  0  0  0  0  0  0  0  0  0  0  0
   27.1713    1.3958    3.5881 C   0  0  0  0  0  0  0  0  0  0  0  0
   25.8833    0.9321    3.0352 C   0  0  0  0  0  0  0  0  0  0  0  0
   25.8747    0.3207    1.8130 N   0  0  0  0  0  0  0  0  0  0  0  0
   24.7602    1.1232    3.7851 N   0  0  0  0  0  0  0  0  0  0  0  0
   24.7791    1.7158    5.0098 C   0  0  0  0  0  0  0  0  0  0  0  0
   25.9302    2.1640    5.5760 N   0  0  0  0  0  0  0  0  0  0  0  0
   27.1187    2.0242    4.9209 C   0  0  0  0  0  0  0  0  0  0  0  0
   26.7152    0.2081    1.3130 H   0  0  0  0  0  0  0  0  0  0  0  0
   25.0279   -0.0073    1.4326 H   0  0  0  0  0  0  0  0  0  0  0  0
   32.0658    3.0766    7.4016 C   0  0  0  0  0  0  0  0  0  0  0  0
   32.8854    3.8753    8.2237 O   0  0  0  0  0  0  0  0  0  0  0  0
   33.4044    3.3623    9.6447 P   0  0  0  0  0  0  0  0  0  0  0  0
   33.3554    1.8563    9.4577 O   0  0  0  0  0  0  0  0  0  0  0  0
   34.8422    3.8464    9.7339 O   0  0  0  0  0  0  0  0  0  0  0  0
   32.4842    3.9304   10.7307 O   0  0  0  0  0  0  0  0  0  0  0  0
   35.2251    3.5679   10.5805 H   0  0  0  0  0  0  0  0  0  0  0  0
   32.7863    3.6277   11.6013 H   0  0  0  0  0  0  0  0  0  0  0  0
 24 25  2  0  0  0
 24 26  1  0  0  0
 24 27  1  0  0  0
 24 23  1  0  0  0
 23 22  1  0  0  0
 22  1  1  0  0  0
  1  2  1  0  0  0
  1  3  1  0  0  0
  2  7  1  0  0  0
  3  4  1  0  0  0
  3  5  1  0  0  0
  5  6  1  0  0  0
  5  7  1  0  0  0
  7 10  1  0  0  0
 10 11  1  0  0  0
 10 19  1  0  0  0
 11 12  2  0  0  0
 12 13  1  0  0  0
 13 14  1  0  0  0
 13 19  2  0  0  0
 14 15  1  0  0  0
 14 16  2  0  0  0
 16 17  1  0  0  0
 17 18  2  0  0  0
 18 19  1  0  0  0
 26 28  1  0  0  0
 27 29  1  0  0  0
  4  8  1  0  0  0
  6  9  1  0  0  0
 15 20  1  0  0  0
 15 21  1  0  0  0
M  END
> <minimizedAffinity>
-5.89179

$$$$
2QRK_AMP_A_500


 29 31  0  0  0  0  0  0  0  0999 V2000
   32.1399    2.9543    9.8372 C   0  0  0  0  0  0  0  0  0  0  0  0
   32.5831    1.7176   10.3743 O   0  0  0  0  0  0  0  0  0  0  0  0
   33.3551    3.7344    9.3472 C   0  0  0  0  0  0  0  0  0  0  0  0
   33.7055    4.7632   10.2901 O   0  0  0  0  0  0  0  0  0  0  0  0
   34.4277    2.6550    9.3140 C   0  0  0  0  0  0  0  0  0  0  0  0
   35.7687    3.1451    9.4657 O   0  0  0  0  0  0  0  0  0  0  0  0
   33.9914    1.7905   10.4864 C   0  0  0  0  0  0  0  0  0  0  0  0
   33.8522    4.3657   11.1626 H   0  0  0  0  0  0  0  0  0  0  0  0
   35.8424    3.6320   10.3014 H   0  0  0  0  0  0  0  0  0  0  0  0
   34.5709    0.4330   10.4202 N   0  0  0  0  0  0  0  0  0  0  0  0
   34.7061   -0.4448   11.4492 C   0  0  0  0  0  0  0  0  0  0  0  0
   35.2694   -1.5996   11.0033 N   0  0  0  0  0  0  0  0  0  0  0  0
   35.4924   -1.4433    9.6714 C   0  0  0  0  0  0  0  0  0  0  0  0
   36.0498   -2.2752    8.5865 C   0  0  0  0  0  0  0  0  0  0  0  0
   36.4804   -3.5382    8.8818 N   0  0  0  0  0  0  0  0  0  0  0  0
   36.0916   -1.7438    7.3312 N   0  0  0  0  0  0  0  0  0  0  0  0
   35.6434   -0.4923    7.0411 C   0  0  0  0  0  0  0  0  0  0  0  0
   35.1185    0.3239    7.9924 N   0  0  0  0  0  0  0  0  0  0  0  0
   35.0216   -0.1005    9.2853 C   0  0  0  0  0  0  0  0  0  0  0  0
   36.4276   -3.8727    9.8062 H   0  0  0  0  0  0  0  0  0  0  0  0
   36.8434   -4.1134    8.1700 H   0  0  0  0  0  0  0  0  0  0  0  0
   31.1681    2.5746    8.7404 C   0  0  0  0  0  0  0  0  0  0  0  0
   31.0004    3.7453    7.9744 O   0  0  0  0  0  0  0  0  0  0  0  0
   29.7288    3.9573    7.0311 P   0  0  0  0  0  0  0  0  0  0  0  0
   28.6402    4.2391    8.0515 O   0  0  0  0  0  0  0  0  0  0  0  0
   30.0445    5.2053    6.2236 O   0  0  0  0  0  0  0  0  0  0  0  0
   29.5384    2.6948    6.1834 O   0  0  0  0  0  0  0  0  0  0  0  0
   29.3078    5.3964    5.6223 H   0  0  0  0  0  0  0  0  0  0  0  0
   28.7687    2.8075    5.6039 H   0  0  0  0  0  0  0  0  0  0  0  0
 24 25  2  0  0  0
 24 26  1  0  0  0
 24 27  1  0  0  0
 24 23  1  0  0  0
 23 22  1  0  0  0
 22  1  1  0  0  0
  1  2  1  0  0  0
  1  3  1  0  0  0
  2  7  1  0  0  0
  3  4  1  0  0  0
  3  5  1  0  0  0
  5  6  1  0  0  0
  5  7  1  0  0  0
  7 10  1  0  0  0
 10 11  1  0  0  0
 10 19  1  0  0  0
 11 12  2  0  0  0
 12 13  1  0  0  0
 13 14  1  0  0  0
 13 19  2  0  0  0
 14 15  1  0  0  0
 14 16  2  0  0  0
 16 17  1  0  0  0
 17 18  2  0  0  0
 18 19  1  0  0  0
 26 28  1  0  0  0
 27 29  1  0  0  0
  4  8  1  0  0  0
  6  9  1  0  0  0
 15 20  1  0  0  0
 15 21  1  0  0  0
M  END
> <minimizedAffinity>
-5.70110

$$$$
2QRK_AMP_A_500


 29 31  0  0  0  0  0  0  0  0999 V2000
   26.4458    3.1385    5.8167 C   0  0  0  0  0  0  0  0  0  0  0  0
   27.3436    3.3999    6.8844 O   0  0  0  0  0  0  0  0  0  0  0  0
   27.2359    3.1134    4.5128 C   0  0  0  0  0  0  0  0  0  0  0  0
   27.0547    4.3452    3.7916 O   0  0  0  0  0  0  0  0  0  0  0  0
   28.6676    2.9968    5.0161 C   0  0  0  0  0  0  0  0  0  0  0  0
   29.6573    3.5246    4.1198 O   0  0  0  0  0  0  0  0  0  0  0  0
   28.5753    3.7916    6.3093 C   0  0  0  0  0  0  0  0  0  0  0  0
   27.3056    5.0915    4.3582 H   0  0  0  0  0  0  0  0  0  0  0  0
   29.4654    4.4582    3.9397 H   0  0  0  0  0  0  0  0  0  0  0  0
   29.6836    3.4763    7.2341 N   0  0  0  0  0  0  0  0  0  0  0  0
   29.6472    2.6119    8.2825 C   0  0  0  0  0  0  0  0  0  0  0  0
   30.8615    2.5722    8.8937 N   0  0  0  0  0  0  0  0  0  0  0  0
   31.6738    3.4273    8.2175 C   0  0  0  0  0  0  0  0  0  0  0  0
   33.0826    3.8560    8.3235 C   0  0  0  0  0  0  0  0  0  0  0  0
   33.8592    3.3228    9.3135 N   0  0  0  0  0  0  0  0  0  0  0  0
   33.5466    4.7567    7.4106 N   0  0  0  0  0  0  0  0  0  0  0  0
   32.7725    5.2691    6.4157 C   0  0  0  0  0  0  0  0  0  0  0  0
   31.4693    4.9159    6.2619 N   0  0  0  0  0  0  0  0  0  0  0  0
   30.8950    4.0185    7.1140 C   0  0  0  0  0  0  0  0  0  0  0  0
   33.4733    2.6755    9.9471 H   0  0  0  0  0  0  0  0  0  0  0  0
   34.8045    3.5859    9.3931 H   0  0  0  0  0  0  0  0  0  0  0  0
   25.7975    1.8169    6.1701 C   0  0  0  0  0  0  0  0  0  0  0  0
   26.4426    1.3931    7.3490 O   0  0  0  0  0  0  0  0  0  0  0  0
   26.2173   -0.0693    7.9509 P   0  0  0  0  0  0  0  0  0  0  0  0
   25.2823   -0.6782    6.9211 O   0  0  0  0  0  0  0  0  0  0  0  0
   27.5842   -0.7308    7.8935 O   0  0  0  0  0  0  0  0  0  0  0  0
   25.6493    0.0719    9.3673 O   0  0  0  0  0  0  0  0  0  0  0  0
   27.5224   -1.6319    8.2471 H   0  0  0  0  0  0  0  0  0  0  0  0
   25.5064   -0.8089    9.7477 H   0  0  0  0  0  0  0  0  0  0  0  0
 24 25  2  0  0  0
 24 26  1  0  0  0
 24 27  1  0  0  0
 24 23  1  0  0  0
 23 22  1  0  0  0
 22  1  1  0  0  0
  1  2  1  0  0  0
  1  3  1  0  0  0
  2  7  1  0  0  0
  3  4  1  0  0  0
  3  5  1  0  0  0
  5  6  1  0  0  0
  5  7  1  0  0  0
  7 10  1  0  0  0
 10 11  1  0  0  0
 10 19  1  0  0  0
 11 12  2  0  0  0
 12 13  1  0  0  0
 13 14  1  0  0  0
 13 19  2  0  0  0
 14 15  1  0  0  0
 14 16  2  0  0  0
 16 17  1  0  0  0
 17 18  2  0  0  0
 18 19  1  0  0  0
 26 28  1  0  0  0
 27 29  1  0  0  0
  4  8  1  0  0  0
  6  9  1  0  0  0
 15 20  1  0  0  0
 15 21  1  0  0  0
M  END
> <minimizedAffinity>
-5.66403

$$$$
2QRK_AMP_A_500


 29 31  0  0  0  0  0  0  0  0999 V2000
   28.1552    2.7563    6.3374 C   0  0  0  0  0  0  0  0  0  0  0  0
   29.1632    3.6701    6.7414 O   0  0  0  0  0  0  0  0  0  0  0  0
   28.7628    1.7700    5.3458 C   0  0  0  0  0  0  0  0  0  0  0  0
   28.3852    2.1130    4.0005 O   0  0  0  0  0  0  0  0  0  0  0  0
   30.2537    1.9948    5.5540 C   0  0  0  0  0  0  0  0  0  0  0  0
   31.0673    1.6773    4.4144 O   0  0  0  0  0  0  0  0  0  0  0  0
   30.2700    3.4798    5.8811 C   0  0  0  0  0  0  0  0  0  0  0  0
   28.6470    3.0283    3.8145 H   0  0  0  0  0  0  0  0  0  0  0  0
   30.7763    2.2030    3.6528 H   0  0  0  0  0  0  0  0  0  0  0  0
   31.5145    3.8825    6.5682 N   0  0  0  0  0  0  0  0  0  0  0  0
   32.5145    4.6482    6.0569 C   0  0  0  0  0  0  0  0  0  0  0  0
   33.4907    4.8192    6.9884 N   0  0  0  0  0  0  0  0  0  0  0  0
   33.0966    4.1484    8.1033 C   0  0  0  0  0  0  0  0  0  0  0  0
   33.6474    3.9254    9.4547 C   0  0  0  0  0  0  0  0  0  0  0  0
   34.8503    4.4890    9.7755 N   0  0  0  0  0  0  0  0  0  0  0  0
   32.9145    3.1765   10.3277 N   0  0  0  0  0  0  0  0  0  0  0  0
   31.7084    2.6342   10.0075 C   0  0  0  0  0  0  0  0  0  0  0  0
   31.1451    2.8020    8.7823 N   0  0  0  0  0  0  0  0  0  0  0  0
   31.7843    3.5360    7.8263 C   0  0  0  0  0  0  0  0  0  0  0  0
   35.3386    5.0211    9.1064 H   0  0  0  0  0  0  0  0  0  0  0  0
   35.2286    4.3629   10.6756 H   0  0  0  0  0  0  0  0  0  0  0  0
   27.6719    2.1191    7.6228 C   0  0  0  0  0  0  0  0  0  0  0  0
   26.5727    1.3210    7.2483 O   0  0  0  0  0  0  0  0  0  0  0  0
   26.3554   -0.1441    7.8469 P   0  0  0  0  0  0  0  0  0  0  0  0
   27.7765   -0.6785    7.8589 O   0  0  0  0  0  0  0  0  0  0  0  0
   25.8544    0.0825    9.2635 O   0  0  0  0  0  0  0  0  0  0  0  0
   25.3678   -0.8940    6.9462 O   0  0  0  0  0  0  0  0  0  0  0  0
   25.6994   -0.7735    9.6925 H   0  0  0  0  0  0  0  0  0  0  0  0
   25.2248   -1.7871    7.2965 H   0  0  0  0  0  0  0  0  0  0  0  0
 24 25  2  0  0  0
 24 26  1  0  0  0
 24 27  1  0  0  0
 24 23  1  0  0  0
 23 22  1  0  0  0
 22  1  1  0  0  0
  1  2  1  0  0  0
  1  3  1  0  0  0
  2  7  1  0  0  0
  3  4  1  0  0  0
  3  5  1  0  0  0
  5  6  1  0  0  0
  5  7  1  0  0  0
  7 10  1  0  0  0
 10 11  1  0  0  0
 10 19  1  0  0  0
 11 12  2  0  0  0
 12 13  1  0  0  0
 13 14  1  0  0  0
 13 19  2  0  0  0
 14 15  1  0  0  0
 14 16  2  0  0  0
 16 17  1  0  0  0
 17 18  2  0  0  0
 18 19  1  0  0  0
 26 28  1  0  0  0
 27 29  1  0  0  0
  4  8  1  0  0  0
  6  9  1  0  0  0
 15 20  1  0  0  0
 15 21  1  0  0  0
M  END
> <minimizedAffinity>
-5.60331

$$$$
2QRK_AMP_A_500


 29 31  0  0  0  0  0  0  0  0999 V2000
   29.4697    2.2279    6.4624 C   0  0  0  0  0  0  0  0  0  0  0  0
   30.7283    2.0698    7.0992 O   0  0  0  0  0  0  0  0  0  0  0  0
   28.5352    2.9707    7.4113 C   0  0  0  0  0  0  0  0  0  0  0  0
   27.6191    2.0531    8.0350 O   0  0  0  0  0  0  0  0  0  0  0  0
   29.5103    3.5296    8.4376 C   0  0  0  0  0  0  0  0  0  0  0  0
   28.9392    3.7636    9.7339 O   0  0  0  0  0  0  0  0  0  0  0  0
   30.5583    2.4279    8.4572 C   0  0  0  0  0  0  0  0  0  0  0  0
   28.1183    1.3536    8.4848 H   0  0  0  0  0  0  0  0  0  0  0  0
   28.5659    2.9366   10.0769 H   0  0  0  0  0  0  0  0  0  0  0  0
   31.8432    2.8948    9.0175 N   0  0  0  0  0  0  0  0  0  0  0  0
   32.4015    2.5161   10.1976 C   0  0  0  0  0  0  0  0  0  0  0  0
   33.5947    3.1458   10.3698 N   0  0  0  0  0  0  0  0  0  0  0  0
   33.7881    3.9339    9.2791 C   0  0  0  0  0  0  0  0  0  0  0  0
   34.8430    4.8551    8.8122 C   0  0  0  0  0  0  0  0  0  0  0  0
   35.9495    5.0371    9.5933 N   0  0  0  0  0  0  0  0  0  0  0  0
   34.6670    5.4701    7.6077 N   0  0  0  0  0  0  0  0  0  0  0  0
   33.5712    5.2694    6.8265 C   0  0  0  0  0  0  0  0  0  0  0  0
   32.5651    4.4344    7.1968 N   0  0  0  0  0  0  0  0  0  0  0  0
   32.6318    3.7601    8.3809 C   0  0  0  0  0  0  0  0  0  0  0  0
   36.0261    4.5680   10.4555 H   0  0  0  0  0  0  0  0  0  0  0  0
   36.6702    5.6373    9.2938 H   0  0  0  0  0  0  0  0  0  0  0  0
   29.7739    2.9788    5.1836 C   0  0  0  0  0  0  0  0  0  0  0  0
   28.5700    3.6256    4.8404 O   0  0  0  0  0  0  0  0  0  0  0  0
   28.1574    3.8804    3.3183 P   0  0  0  0  0  0  0  0  0  0  0  0
   26.6887    4.2386    3.4601 O   0  0  0  0  0  0  0  0  0  0  0  0
   28.9677    5.0930    2.8912 O   0  0  0  0  0  0  0  0  0  0  0  0
   28.4602    2.6108    2.5151 O   0  0  0  0  0  0  0  0  0  0  0  0
   28.7658    5.3076    1.9670 H   0  0  0  0  0  0  0  0  0  0  0  0
   28.2149    2.7492    1.5869 H   0  0  0  0  0  0  0  0  0  0  0  0
 24 25  2  0  0  0
 24 26  1  0  0  0
 24 27  1  0  0  0
 24 23  1  0  0  0
 23 22  1  0  0  0
 22  1  1  0  0  0
  1  2  1  0  0  0
  1  3  1  0  0  0
  2  7  1  0  0  0
  3  4  1  0  0  0
  3  5  1  0  0  0
  5  6  1  0  0  0
  5  7  1  0  0  0
  7 10  1  0  0  0
 10 11  1  0  0  0
 10 19  1  0  0  0
 11 12  2  0  0  0
 12 13  1  0  0  0
 13 14  1  0  0  0
 13 19  2  0  0  0
 14 15  1  0  0  0
 14 16  2  0  0  0
 16 17  1  0  0  0
 17 18  2  0  0  0
 18 19  1  0  0  0
 26 28  1  0  0  0
 27 29  1  0  0  0
  4  8  1  0  0  0
  6  9  1  0  0  0
 15 20  1  0  0  0
 15 21  1  0  0  0
M  END
> <minimizedAffinity>
-5.54580

$$$$
2QRK_AMP_A_500


 29 31  0  0  0  0  0  0  0  0999 V2000
   30.3078    3.1663    6.7566 C   0  0  0  0  0  0  0  0  0  0  0  0
   30.0048    2.1470    5.8166 O   0  0  0  0  0  0  0  0  0  0  0  0
   29.2444    3.1509    7.8494 C   0  0  0  0  0  0  0  0  0  0  0  0
   28.3002    4.2176    7.6469 O   0  0  0  0  0  0  0  0  0  0  0  0
   28.5796    1.8010    7.6208 C   0  0  0  0  0  0  0  0  0  0  0  0
   27.2168    1.7267    8.0667 O   0  0  0  0  0  0  0  0  0  0  0  0
   28.7016    1.6811    6.1098 C   0  0  0  0  0  0  0  0  0  0  0  0
   27.9153    4.1445    6.7595 H   0  0  0  0  0  0  0  0  0  0  0  0
   26.6932    2.4112    7.6215 H   0  0  0  0  0  0  0  0  0  0  0  0
   28.5529    0.2847    5.6506 N   0  0  0  0  0  0  0  0  0  0  0  0
   29.5541   -0.5985    5.3952 C   0  0  0  0  0  0  0  0  0  0  0  0
   29.0318   -1.7924    5.0058 N   0  0  0  0  0  0  0  0  0  0  0  0
   27.6792   -1.6556    5.0163 C   0  0  0  0  0  0  0  0  0  0  0  0
   26.5246   -2.5283    4.7249 C   0  0  0  0  0  0  0  0  0  0  0  0
   26.7568   -3.8188    4.3397 N   0  0  0  0  0  0  0  0  0  0  0  0
   25.2743   -2.0040    4.8724 N   0  0  0  0  0  0  0  0  0  0  0  0
   25.0505   -0.7236    5.2747 C   0  0  0  0  0  0  0  0  0  0  0  0
   26.0681    0.1308    5.5594 N   0  0  0  0  0  0  0  0  0  0  0  0
   27.3637   -0.2827    5.4516 C   0  0  0  0  0  0  0  0  0  0  0  0
   27.6806   -4.1467    4.2486 H   0  0  0  0  0  0  0  0  0  0  0  0
   26.0002   -4.4205    4.1533 H   0  0  0  0  0  0  0  0  0  0  0  0
   31.7015    2.8383    7.2483 C   0  0  0  0  0  0  0  0  0  0  0  0
   31.8532    3.5705    8.4426 O   0  0  0  0  0  0  0  0  0  0  0  0
   32.4361    2.9007    9.7705 P   0  0  0  0  0  0  0  0  0  0  0  0
   33.5811    2.0737    9.2133 O   0  0  0  0  0  0  0  0  0  0  0  0
   32.9641    4.0627   10.5953 O   0  0  0  0  0  0  0  0  0  0  0  0
   31.3113    2.1115   10.4492 O   0  0  0  0  0  0  0  0  0  0  0  0
   33.3372    3.7269   11.4254 H   0  0  0  0  0  0  0  0  0  0  0  0
   31.6495    1.6978   11.2588 H   0  0  0  0  0  0  0  0  0  0  0  0
 24 25  2  0  0  0
 24 26  1  0  0  0
 24 27  1  0  0  0
 24 23  1  0  0  0
 23 22  1  0  0  0
 22  1  1  0  0  0
  1  2  1  0  0  0
  1  3  1  0  0  0
  2  7  1  0  0  0
  3  4  1  0  0  0
  3  5  1  0  0  0
  5  6  1  0  0  0
  5  7  1  0  0  0
  7 10  1  0  0  0
 10 11  1  0  0  0
 10 19  1  0  0  0
 11 12  2  0  0  0
 12 13  1  0  0  0
 13 14  1  0  0  0
 13 19  2  0  0  0
 14 15  1  0  0  0
 14 16  2  0  0  0
 16 17  1  0  0  0
 17 18  2  0  0  0
 18 19  1  0  0  0
 26 28  1  0  0  0
 27 29  1  0  0  0
  4  8  1  0  0  0
  6  9  1  0  0  0
 15 20  1  0  0  0
 15 21  1  0  0  0
M  END
> <minimizedAffinity>
-5.52209

$$$$
2QRK_AMP_A_500


 29 31  0  0  0  0  0  0  0  0999 V2000
   28.9905    3.2209    4.0498 C   0  0  0  0  0  0  0  0  0  0  0  0
   30.2490    2.9888    4.6639 O   0  0  0  0  0  0  0  0  0  0  0  0
   28.0687    3.8846    5.0672 C   0  0  0  0  0  0  0  0  0  0  0  0
   27.1428    2.9249    5.6075 O   0  0  0  0  0  0  0  0  0  0  0  0
   29.0542    4.3340    6.1365 C   0  0  0  0  0  0  0  0  0  0  0  0
   28.4901    4.4544    7.4514 O   0  0  0  0  0  0  0  0  0  0  0  0
   30.0878    3.2221    6.0498 C   0  0  0  0  0  0  0  0  0  0  0  0
   27.6343    2.1805    5.9887 H   0  0  0  0  0  0  0  0  0  0  0  0
   28.1073    3.6040    7.7181 H   0  0  0  0  0  0  0  0  0  0  0  0
   31.3804    3.6190    6.6453 N   0  0  0  0  0  0  0  0  0  0  0  0
   32.4014    4.2615    6.0188 C   0  0  0  0  0  0  0  0  0  0  0  0
   33.4229    4.4717    6.8919 N   0  0  0  0  0  0  0  0  0  0  0  0
   33.0364    3.9512    8.0868 C   0  0  0  0  0  0  0  0  0  0  0  0
   33.6279    3.8422    9.4351 C   0  0  0  0  0  0  0  0  0  0  0  0
   34.8734    4.3617    9.6505 N   0  0  0  0  0  0  0  0  0  0  0  0
   32.8890    3.2390   10.4100 N   0  0  0  0  0  0  0  0  0  0  0  0
   31.6416    2.7409   10.1929 C   0  0  0  0  0  0  0  0  0  0  0  0
   31.0396    2.8096    8.9766 N   0  0  0  0  0  0  0  0  0  0  0  0
   31.6807    3.3948    7.9241 C   0  0  0  0  0  0  0  0  0  0  0  0
   35.3640    4.7870    8.9104 H   0  0  0  0  0  0  0  0  0  0  0  0
   35.2800    4.3106   10.5456 H   0  0  0  0  0  0  0  0  0  0  0  0
   29.3004    4.0829    2.8446 C   0  0  0  0  0  0  0  0  0  0  0  0
   29.3993    5.3961    3.3458 O   0  0  0  0  0  0  0  0  0  0  0  0
   30.6655    6.3200    3.0376 P   0  0  0  0  0  0  0  0  0  0  0  0
   30.0809    7.3120    2.0479 O   0  0  0  0  0  0  0  0  0  0  0  0
   30.9829    7.0018    4.3581 O   0  0  0  0  0  0  0  0  0  0  0  0
   31.7951    5.4320    2.5044 O   0  0  0  0  0  0  0  0  0  0  0  0
   31.7497    7.5849    4.2448 H   0  0  0  0  0  0  0  0  0  0  0  0
   32.5728    5.9788    2.3120 H   0  0  0  0  0  0  0  0  0  0  0  0
 24 25  2  0  0  0
 24 26  1  0  0  0
 24 27  1  0  0  0
 24 23  1  0  0  0
 23 22  1  0  0  0
 22  1  1  0  0  0
  1  2  1  0  0  0
  1  3  1  0  0  0
  2  7  1  0  0  0
  3  4  1  0  0  0
  3  5  1  0  0  0
  5  6  1  0  0  0
  5  7  1  0  0  0
  7 10  1  0  0  0
 10 11  1  0  0  0
 10 19  1  0  0  0
 11 12  2  0  0  0
 12 13  1  0  0  0
 13 14  1  0  0  0
 13 19  2  0  0  0
 14 15  1  0  0  0
 14 16  2  0  0  0
 16 17  1  0  0  0
 17 18  2  0  0  0
 18 19  1  0  0  0
 26 28  1  0  0  0
 27 29  1  0  0  0
  4  8  1  0  0  0
  6  9  1  0  0  0
 15 20  1  0  0  0
 15 21  1  0  0  0
M  END
> <minimizedAffinity>
-5.36524

$$$$
