4QF8_SPD_A_201


 15 14  0  0  0  0  0  0  0  0999 V2000
   20.6688    1.7424   -4.5703 N   0  0  0  0  0  0  0  0  0  0  0  0
   21.5948    1.3215   -4.6467 H   0  0  0  0  0  0  0  0  0  0  0  0
   20.8470    3.1413   -4.8283 C   0  0  0  0  0  0  0  0  0  0  0  0
   20.9910    3.9263   -3.5377 C   0  0  0  0  0  0  0  0  0  0  0  0
   21.2494    5.3835   -3.7945 C   0  0  0  0  0  0  0  0  0  0  0  0
   19.8126    7.3987   -3.9851 N   0  0  0  0  0  0  0  0  0  0  0  0
   20.0270    6.0219   -4.4509 C   0  0  0  0  0  0  0  0  0  0  0  0
   18.9900    7.7889   -4.4449 H   0  0  0  0  0  0  0  0  0  0  0  0
   20.6297    7.9655   -4.2118 H   0  0  0  0  0  0  0  0  0  0  0  0
   20.0968    1.2348   -3.3298 C   0  0  0  0  0  0  0  0  0  0  0  0
   18.6246    1.0232   -3.6717 C   0  0  0  0  0  0  0  0  0  0  0  0
   18.3024   -0.4033   -4.1040 C   0  0  0  0  0  0  0  0  0  0  0  0
   18.4034   -0.4768   -5.5561 N   0  0  0  0  0  0  0  0  0  0  0  0
   17.7457    0.1799   -5.9764 H   0  0  0  0  0  0  0  0  0  0  0  0
   18.1827   -1.4236   -5.8648 H   0  0  0  0  0  0  0  0  0  0  0  0
  6  7  1  0  0  0
  7  5  1  0  0  0
  5  4  1  0  0  0
  4  3  1  0  0  0
  3  1  1  0  0  0
  1 10  1  0  0  0
 10 11  1  0  0  0
 11 12  1  0  0  0
 12 13  1  0  0  0
  6  8  1  0  0  0
  6  9  1  0  0  0
  1  2  1  0  0  0
 13 14  1  0  0  0
 13 15  1  0  0  0
M  END
> <minimizedAffinity>
-4.72412

$$$$
4QF8_SPD_A_201


 15 14  0  0  0  0  0  0  0  0999 V2000
   20.6745    1.8486   -4.6996 N   0  0  0  0  0  0  0  0  0  0  0  0
   21.5207    2.3545   -4.4382 H   0  0  0  0  0  0  0  0  0  0  0  0
   19.8968    2.7586   -5.4885 C   0  0  0  0  0  0  0  0  0  0  0  0
   20.7650    3.8476   -6.0908 C   0  0  0  0  0  0  0  0  0  0  0  0
   20.8697    5.0436   -5.1882 C   0  0  0  0  0  0  0  0  0  0  0  0
   22.7801    4.2568   -3.8123 N   0  0  0  0  0  0  0  0  0  0  0  0
   22.3251    5.2635   -4.7808 C   0  0  0  0  0  0  0  0  0  0  0  0
   23.7533    4.4374   -3.5661 H   0  0  0  0  0  0  0  0  0  0  0  0
   22.7006    3.3275   -4.2251 H   0  0  0  0  0  0  0  0  0  0  0  0
   20.1742    1.2399   -3.4736 C   0  0  0  0  0  0  0  0  0  0  0  0
   18.6779    1.0868   -3.7317 C   0  0  0  0  0  0  0  0  0  0  0  0
   18.2617   -0.3456   -4.0490 C   0  0  0  0  0  0  0  0  0  0  0  0
   18.4317   -0.5669   -5.4794 N   0  0  0  0  0  0  0  0  0  0  0  0
   17.8534    0.0950   -5.9969 H   0  0  0  0  0  0  0  0  0  0  0  0
   18.1498   -1.5191   -5.7120 H   0  0  0  0  0  0  0  0  0  0  0  0
  6  7  1  0  0  0
  7  5  1  0  0  0
  5  4  1  0  0  0
  4  3  1  0  0  0
  3  1  1  0  0  0
  1 10  1  0  0  0
 10 11  1  0  0  0
 11 12  1  0  0  0
 12 13  1  0  0  0
  6  8  1  0  0  0
  6  9  1  0  0  0
  1  2  1  0  0  0
 13 14  1  0  0  0
 13 15  1  0  0  0
M  END
> <minimizedAffinity>
-4.71375

$$$$
4QF8_SPD_A_201


 15 14  0  0  0  0  0  0  0  0999 V2000
   20.7947    1.7222   -4.2896 N   0  0  0  0  0  0  0  0  0  0  0  0
   20.1534    1.1114   -4.7956 H   0  0  0  0  0  0  0  0  0  0  0  0
   20.2429    1.8744   -2.9753 C   0  0  0  0  0  0  0  0  0  0  0  0
   18.8870    1.2022   -2.8650 C   0  0  0  0  0  0  0  0  0  0  0  0
   18.7900   -0.0108   -3.7455 C   0  0  0  0  0  0  0  0  0  0  0  0
   18.1237   -0.6677   -6.0447 N   0  0  0  0  0  0  0  0  0  0  0  0
   17.9050    0.2909   -4.9531 C   0  0  0  0  0  0  0  0  0  0  0  0
   17.5165   -0.4331   -6.8300 H   0  0  0  0  0  0  0  0  0  0  0  0
   17.9086   -1.6098   -5.7181 H   0  0  0  0  0  0  0  0  0  0  0  0
   21.0554    2.8522   -5.1723 C   0  0  0  0  0  0  0  0  0  0  0  0
   20.5034    4.0474   -4.4004 C   0  0  0  0  0  0  0  0  0  0  0  0
   21.5778    5.0439   -3.9781 C   0  0  0  0  0  0  0  0  0  0  0  0
   22.8496    4.3377   -3.8894 N   0  0  0  0  0  0  0  0  0  0  0  0
   22.7734    3.5849   -3.2053 H   0  0  0  0  0  0  0  0  0  0  0  0
   23.5801    4.9879   -3.5995 H   0  0  0  0  0  0  0  0  0  0  0  0
  6  7  1  0  0  0
  7  5  1  0  0  0
  5  4  1  0  0  0
  4  3  1  0  0  0
  3  1  1  0  0  0
  1 10  1  0  0  0
 10 11  1  0  0  0
 11 12  1  0  0  0
 12 13  1  0  0  0
  6  8  1  0  0  0
  6  9  1  0  0  0
  1  2  1  0  0  0
 13 14  1  0  0  0
 13 15  1  0  0  0
M  END
> <minimizedAffinity>
-4.65047

$$$$
4QF8_SPD_A_201


 15 14  0  0  0  0  0  0  0  0999 V2000
   19.9405    4.0088   -5.2727 N   0  0  0  0  0  0  0  0  0  0  0  0
   19.3988    4.3588   -4.4825 H   0  0  0  0  0  0  0  0  0  0  0  0
   19.0312    3.2324   -6.0636 C   0  0  0  0  0  0  0  0  0  0  0  0
   17.6861    3.0889   -5.3762 C   0  0  0  0  0  0  0  0  0  0  0  0
   17.3110    1.6484   -5.1750 C   0  0  0  0  0  0  0  0  0  0  0  0
   18.3340   -0.5445   -5.7286 N   0  0  0  0  0  0  0  0  0  0  0  0
   17.9733    0.7828   -6.2449 C   0  0  0  0  0  0  0  0  0  0  0  0
   18.7721   -1.0903   -6.4706 H   0  0  0  0  0  0  0  0  0  0  0  0
   17.4936   -1.0234   -5.4051 H   0  0  0  0  0  0  0  0  0  0  0  0
   21.1656    3.4571   -4.7083 C   0  0  0  0  0  0  0  0  0  0  0  0
   20.8818    3.4079   -3.2096 C   0  0  0  0  0  0  0  0  0  0  0  0
   20.2906    2.0798   -2.7486 C   0  0  0  0  0  0  0  0  0  0  0  0
   20.5832    1.0716   -3.7595 N   0  0  0  0  0  0  0  0  0  0  0  0
   20.1735    1.3539   -4.6499 H   0  0  0  0  0  0  0  0  0  0  0  0
   20.1874    0.1766   -3.4716 H   0  0  0  0  0  0  0  0  0  0  0  0
  6  7  1  0  0  0
  7  5  1  0  0  0
  5  4  1  0  0  0
  4  3  1  0  0  0
  3  1  1  0  0  0
  1 10  1  0  0  0
 10 11  1  0  0  0
 11 12  1  0  0  0
 12 13  1  0  0  0
  6  8  1  0  0  0
  6  9  1  0  0  0
  1  2  1  0  0  0
 13 14  1  0  0  0
 13 15  1  0  0  0
M  END
> <minimizedAffinity>
-4.52632

$$$$
4QF8_SPD_A_201


 15 14  0  0  0  0  0  0  0  0999 V2000
   21.0852    2.7854   -3.2538 N   0  0  0  0  0  0  0  0  0  0  0  0
   21.8848    2.3485   -3.7121 H   0  0  0  0  0  0  0  0  0  0  0  0
   20.3973    1.7314   -2.5675 C   0  0  0  0  0  0  0  0  0  0  0  0
   18.9876    1.5541   -3.1003 C   0  0  0  0  0  0  0  0  0  0  0  0
   18.8125    0.2323   -3.7919 C   0  0  0  0  0  0  0  0  0  0  0  0
   18.1803   -0.7350   -5.9889 N   0  0  0  0  0  0  0  0  0  0  0  0
   18.0437    0.4248   -5.0974 C   0  0  0  0  0  0  0  0  0  0  0  0
   17.6544   -0.5683   -6.8468 H   0  0  0  0  0  0  0  0  0  0  0  0
   17.8165   -1.5664   -5.5232 H   0  0  0  0  0  0  0  0  0  0  0  0
   20.4464    3.6177   -4.2653 C   0  0  0  0  0  0  0  0  0  0  0  0
   20.7414    5.0409   -3.7999 C   0  0  0  0  0  0  0  0  0  0  0  0
   20.0066    6.1062   -4.6066 C   0  0  0  0  0  0  0  0  0  0  0  0
   19.9247    7.3175   -3.8001 N   0  0  0  0  0  0  0  0  0  0  0  0
   19.4230    7.1167   -2.9350 H   0  0  0  0  0  0  0  0  0  0  0  0
   19.4280    8.0400   -4.3213 H   0  0  0  0  0  0  0  0  0  0  0  0
  6  7  1  0  0  0
  7  5  1  0  0  0
  5  4  1  0  0  0
  4  3  1  0  0  0
  3  1  1  0  0  0
  1 10  1  0  0  0
 10 11  1  0  0  0
 11 12  1  0  0  0
 12 13  1  0  0  0
  6  8  1  0  0  0
  6  9  1  0  0  0
  1  2  1  0  0  0
 13 14  1  0  0  0
 13 15  1  0  0  0
M  END
> <minimizedAffinity>
-4.48934

$$$$
4QF8_SPD_A_201


 15 14  0  0  0  0  0  0  0  0999 V2000
   20.8323    2.1814   -4.8894 N   0  0  0  0  0  0  0  0  0  0  0  0
   21.7250    2.6381   -4.7025 H   0  0  0  0  0  0  0  0  0  0  0  0
   20.3364    2.7624   -6.1025 C   0  0  0  0  0  0  0  0  0  0  0  0
   18.8195    2.8005   -6.1162 C   0  0  0  0  0  0  0  0  0  0  0  0
   18.2418    1.7684   -7.0420 C   0  0  0  0  0  0  0  0  0  0  0  0
   18.2836   -0.4259   -5.8824 N   0  0  0  0  0  0  0  0  0  0  0  0
   17.4548    0.7326   -6.2419 C   0  0  0  0  0  0  0  0  0  0  0  0
   17.7238   -1.0926   -5.3508 H   0  0  0  0  0  0  0  0  0  0  0  0
   19.0729   -0.1164   -5.3153 H   0  0  0  0  0  0  0  0  0  0  0  0
   20.0907    2.2183   -3.6354 C   0  0  0  0  0  0  0  0  0  0  0  0
   20.9476    3.1045   -2.7357 C   0  0  0  0  0  0  0  0  0  0  0  0
   21.3734    4.4096   -3.3998 C   0  0  0  0  0  0  0  0  0  0  0  0
   22.7811    4.3026   -3.7618 N   0  0  0  0  0  0  0  0  0  0  0  0
   23.3358    4.1323   -2.9229 H   0  0  0  0  0  0  0  0  0  0  0  0
   23.0863    5.1713   -4.2006 H   0  0  0  0  0  0  0  0  0  0  0  0
  6  7  1  0  0  0
  7  5  1  0  0  0
  5  4  1  0  0  0
  4  3  1  0  0  0
  3  1  1  0  0  0
  1 10  1  0  0  0
 10 11  1  0  0  0
 11 12  1  0  0  0
 12 13  1  0  0  0
  6  8  1  0  0  0
  6  9  1  0  0  0
  1  2  1  0  0  0
 13 14  1  0  0  0
 13 15  1  0  0  0
M  END
> <minimizedAffinity>
-4.42117

$$$$
4QF8_SPD_A_201


 15 14  0  0  0  0  0  0  0  0999 V2000
   18.2260    1.0959   -3.4202 N   0  0  0  0  0  0  0  0  0  0  0  0
   18.3819    1.8861   -4.0459 H   0  0  0  0  0  0  0  0  0  0  0  0
   19.1081    1.2917   -2.3072 C   0  0  0  0  0  0  0  0  0  0  0  0
   20.5112    1.6381   -2.7696 C   0  0  0  0  0  0  0  0  0  0  0  0
   20.8259    3.0921   -2.5628 C   0  0  0  0  0  0  0  0  0  0  0  0
   22.6358    4.3390   -3.7167 N   0  0  0  0  0  0  0  0  0  0  0  0
   21.3168    3.7104   -3.8702 C   0  0  0  0  0  0  0  0  0  0  0  0
   22.9277    4.7389   -4.6085 H   0  0  0  0  0  0  0  0  0  0  0  0
   23.3143    3.6375   -3.4203 H   0  0  0  0  0  0  0  0  0  0  0  0
   18.2650   -0.0955   -4.2587 C   0  0  0  0  0  0  0  0  0  0  0  0
   18.0183    0.4448   -5.6644 C   0  0  0  0  0  0  0  0  0  0  0  0
   16.8743    1.4508   -5.7343 C   0  0  0  0  0  0  0  0  0  0  0  0
   15.6366    0.7633   -5.3884 N   0  0  0  0  0  0  0  0  0  0  0  0
   15.4783   -0.0022   -6.0438 H   0  0  0  0  0  0  0  0  0  0  0  0
   14.8577    1.4199   -5.4380 H   0  0  0  0  0  0  0  0  0  0  0  0
  6  7  1  0  0  0
  7  5  1  0  0  0
  5  4  1  0  0  0
  4  3  1  0  0  0
  3  1  1  0  0  0
  1 10  1  0  0  0
 10 11  1  0  0  0
 11 12  1  0  0  0
 12 13  1  0  0  0
  6  8  1  0  0  0
  6  9  1  0  0  0
  1  2  1  0  0  0
 13 14  1  0  0  0
 13 15  1  0  0  0
M  END
> <minimizedAffinity>
-4.41116

$$$$
4QF8_SPD_A_201


 15 14  0  0  0  0  0  0  0  0999 V2000
   19.2777    3.6318   -5.2746 N   0  0  0  0  0  0  0  0  0  0  0  0
   19.5816    4.1898   -6.0724 H   0  0  0  0  0  0  0  0  0  0  0  0
   20.4382    2.9218   -4.8226 C   0  0  0  0  0  0  0  0  0  0  0  0
   20.8252    3.3362   -3.4151 C   0  0  0  0  0  0  0  0  0  0  0  0
   20.4051    2.3162   -2.3956 C   0  0  0  0  0  0  0  0  0  0  0  0
   18.4922    0.7830   -2.7851 N   0  0  0  0  0  0  0  0  0  0  0  0
   19.9019    1.0557   -3.0960 C   0  0  0  0  0  0  0  0  0  0  0  0
   18.1947   -0.0637   -3.2700 H   0  0  0  0  0  0  0  0  0  0  0  0
   17.9184    1.5691   -3.0906 H   0  0  0  0  0  0  0  0  0  0  0  0
   18.0550    2.9598   -5.6956 C   0  0  0  0  0  0  0  0  0  0  0  0
   18.5585    1.7791   -6.5210 C   0  0  0  0  0  0  0  0  0  0  0  0
   17.6084    0.5862   -6.5138 C   0  0  0  0  0  0  0  0  0  0  0  0
   18.2587   -0.5144   -5.8141 N   0  0  0  0  0  0  0  0  0  0  0  0
   19.1278   -0.7543   -6.2910 H   0  0  0  0  0  0  0  0  0  0  0  0
   17.6400   -1.3254   -5.8065 H   0  0  0  0  0  0  0  0  0  0  0  0
  6  7  1  0  0  0
  7  5  1  0  0  0
  5  4  1  0  0  0
  4  3  1  0  0  0
  3  1  1  0  0  0
  1 10  1  0  0  0
 10 11  1  0  0  0
 11 12  1  0  0  0
 12 13  1  0  0  0
  6  8  1  0  0  0
  6  9  1  0  0  0
  1  2  1  0  0  0
 13 14  1  0  0  0
 13 15  1  0  0  0
M  END
> <minimizedAffinity>
-4.34753

$$$$
4QF8_SPD_A_201


 15 14  0  0  0  0  0  0  0  0999 V2000
   19.2501    2.4166   -6.7092 N   0  0  0  0  0  0  0  0  0  0  0  0
   18.8698    1.9866   -5.8660 H   0  0  0  0  0  0  0  0  0  0  0  0
   19.7567    3.6962   -6.3075 C   0  0  0  0  0  0  0  0  0  0  0  0
   19.3576    4.0244   -4.8807 C   0  0  0  0  0  0  0  0  0  0  0  0
   20.4330    3.6548   -3.8994 C   0  0  0  0  0  0  0  0  0  0  0  0
   20.6356    1.1821   -3.9782 N   0  0  0  0  0  0  0  0  0  0  0  0
   20.0935    2.3245   -3.2303 C   0  0  0  0  0  0  0  0  0  0  0  0
   20.3884    0.3151   -3.5010 H   0  0  0  0  0  0  0  0  0  0  0  0
   21.6509    1.2624   -4.0329 H   0  0  0  0  0  0  0  0  0  0  0  0
   18.2292    2.2589   -7.7372 C   0  0  0  0  0  0  0  0  0  0  0  0
   17.5210    0.9648   -7.3463 C   0  0  0  0  0  0  0  0  0  0  0  0
   17.5850    0.6671   -5.8521 C   0  0  0  0  0  0  0  0  0  0  0  0
   18.4211   -0.5101   -5.6540 N   0  0  0  0  0  0  0  0  0  0  0  0
   18.0198   -1.3009   -6.1578 H   0  0  0  0  0  0  0  0  0  0  0  0
   18.4689   -0.7297   -4.6590 H   0  0  0  0  0  0  0  0  0  0  0  0
  6  7  1  0  0  0
  7  5  1  0  0  0
  5  4  1  0  0  0
  4  3  1  0  0  0
  3  1  1  0  0  0
  1 10  1  0  0  0
 10 11  1  0  0  0
 11 12  1  0  0  0
 12 13  1  0  0  0
  6  8  1  0  0  0
  6  9  1  0  0  0
  1  2  1  0  0  0
 13 14  1  0  0  0
 13 15  1  0  0  0
M  END
> <minimizedAffinity>
-4.26153

$$$$
4QF8_SPD_A_201


 15 14  0  0  0  0  0  0  0  0999 V2000
   17.7962    2.1936   -4.5791 N   0  0  0  0  0  0  0  0  0  0  0  0
   17.4258    1.3624   -5.0399 H   0  0  0  0  0  0  0  0  0  0  0  0
   17.0999    3.3079   -5.1525 C   0  0  0  0  0  0  0  0  0  0  0  0
   16.3421    2.9009   -6.4026 C   0  0  0  0  0  0  0  0  0  0  0  0
   15.7695    1.5173   -6.2847 C   0  0  0  0  0  0  0  0  0  0  0  0
   17.4896   -0.1189   -7.0101 N   0  0  0  0  0  0  0  0  0  0  0  0
   16.2968    0.6368   -7.4157 C   0  0  0  0  0  0  0  0  0  0  0  0
   17.8101   -0.6927   -7.7901 H   0  0  0  0  0  0  0  0  0  0  0  0
   17.2587   -0.7194   -6.2186 H   0  0  0  0  0  0  0  0  0  0  0  0
   19.2472    2.0635   -4.6195 C   0  0  0  0  0  0  0  0  0  0  0  0
   19.5290    0.8822   -3.6953 C   0  0  0  0  0  0  0  0  0  0  0  0
   18.2834    0.0731   -3.3499 C   0  0  0  0  0  0  0  0  0  0  0  0
   18.1503   -1.0030   -4.3238 N   0  0  0  0  0  0  0  0  0  0  0  0
   18.0689   -0.6062   -5.2599 H   0  0  0  0  0  0  0  0  0  0  0  0
   17.3162   -1.5510   -4.1131 H   0  0  0  0  0  0  0  0  0  0  0  0
  6  7  1  0  0  0
  7  5  1  0  0  0
  5  4  1  0  0  0
  4  3  1  0  0  0
  3  1  1  0  0  0
  1 10  1  0  0  0
 10 11  1  0  0  0
 11 12  1  0  0  0
 12 13  1  0  0  0
  6  8  1  0  0  0
  6  9  1  0  0  0
  1  2  1  0  0  0
 13 14  1  0  0  0
 13 15  1  0  0  0
M  END
> <minimizedAffinity>
-4.25650

$$$$
