6GVZ_CHO_A_600


 36 39  0  0  0  0  0  0  0  0999 V2000
   -9.4780  -53.5807   16.4937 C   0  0  0  0  0  0  0  0  0  0  0  0
   -9.8188  -54.9240   15.8396 C   0  0  0  0  0  0  0  0  0  0  0  0
   -8.7770  -55.2988   14.7998 C   0  0  0  0  0  0  0  0  0  0  0  0
   -9.1052  -56.5560   14.2212 O   0  0  0  0  0  0  0  0  0  0  0  0
   -8.7127  -54.1867   13.7758 C   0  0  0  0  0  0  0  0  0  0  0  0
   -8.4012  -52.8122   14.3772 C   0  0  0  0  0  0  0  0  0  0  0  0
   -8.2831  -51.7333   13.2926 C   0  0  0  0  0  0  0  0  0  0  0  0
   -9.6118  -51.2608   12.7080 C   0  0  0  0  0  0  0  0  0  0  0  0
  -10.1169  -52.2582   11.8146 O   0  0  0  0  0  0  0  0  0  0  0  0
  -10.6363  -50.9167   13.8009 C   0  0  0  0  0  0  0  0  0  0  0  0
  -10.7585  -52.0311   14.8568 C   0  0  0  0  0  0  0  0  0  0  0  0
   -9.3813  -52.3995   15.5079 C   0  0  0  0  0  0  0  0  0  0  0  0
  -11.8774  -51.7177   15.8645 C   0  0  0  0  0  0  0  0  0  0  0  0
  -13.1944  -51.2199   15.2681 C   0  0  0  0  0  0  0  0  0  0  0  0
  -13.0280  -50.0612   14.2715 C   0  0  0  0  0  0  0  0  0  0  0  0
  -12.0193  -50.5604   13.2441 C   0  0  0  0  0  0  0  0  0  0  0  0
  -12.1371  -49.5250   12.1052 C   0  0  0  0  0  0  0  0  0  0  0  0
  -13.6244  -49.1178   12.0970 C   0  0  0  0  0  0  0  0  0  0  0  0
  -14.2545  -49.7081   13.3695 C   0  0  0  0  0  0  0  0  0  0  0  0
  -12.5360  -48.8038   15.0224 C   0  0  0  0  0  0  0  0  0  0  0  0
   -8.7957  -51.2204   16.3068 C   0  0  0  0  0  0  0  0  0  0  0  0
   -9.9806  -56.5026   13.8068 H   0  0  0  0  0  0  0  0  0  0  0  0
  -10.2746  -53.0807   12.3040 H   0  0  0  0  0  0  0  0  0  0  0  0
  -15.3749  -48.8149   13.9517 C   0  0  0  0  0  0  0  0  0  0  0  0
  -15.9548  -49.3724   15.2515 C   0  0  0  0  0  0  0  0  0  0  0  0
  -16.4990  -48.5242   12.9411 C   0  0  0  0  0  0  0  0  0  0  0  0
  -17.3367  -49.7319   12.5580 C   0  0  0  0  0  0  0  0  0  0  0  0
  -18.8182  -49.5935   12.8446 C   0  0  0  0  0  0  0  0  0  0  0  0
  -19.5855  -48.9865   12.0995 O   0  0  0  0  0  0  0  0  0  0  0  0
  -19.2404  -50.1562   13.9668 N   0  0  0  0  0  0  0  0  0  0  0  0
  -18.5901  -50.6211   14.5414 H   0  0  0  0  0  0  0  0  0  0  0  0
  -20.6286  -50.1087   14.3743 C   0  0  0  0  0  0  0  0  0  0  0  0
  -21.2260  -51.4529   14.7171 C   0  0  0  0  0  0  0  0  0  0  0  0
  -21.6966  -52.1356   13.7840 O   0  0  0  0  0  0  0  0  0  0  0  0
  -21.2254  -51.8430   15.9043 O   0  0  0  0  0  0  0  0  0  0  0  0
  -20.8620  -51.2998   16.5757 H   0  0  0  0  0  0  0  0  0  0  0  0
  1  2  1  0  0  0
  1 12  1  0  0  0
  2  3  1  0  0  0
  3  4  1  0  0  0
  3  5  1  0  0  0
  5  6  1  0  0  0
  6  7  1  0  0  0
  6 12  1  0  0  0
  7  8  1  0  0  0
  8  9  1  0  0  0
  8 10  1  0  0  0
 10 11  1  0  0  0
 10 16  1  0  0  0
 11 12  1  0  0  0
 11 13  1  0  0  0
 12 21  1  0  0  0
 13 14  1  0  0  0
 14 15  1  0  0  0
 15 16  1  0  0  0
 15 19  1  0  0  0
 15 20  1  0  0  0
 16 17  1  0  0  0
 17 18  1  0  0  0
 18 19  1  0  0  0
 19 24  1  0  0  0
 24 25  1  0  0  0
 24 26  1  0  0  0
 26 27  1  0  0  0
 27 28  1  0  0  0
 28 29  2  0  0  0
 28 30  1  0  0  0
 30 32  1  0  0  0
 32 33  1  0  0  0
 33 34  2  0  0  0
 33 35  1  0  0  0
  4 22  1  0  0  0
  9 23  1  0  0  0
 30 31  1  0  0  0
 35 36  1  0  0  0
M  END
> <minimizedAffinity>
-9.37720

$$$$
6GVZ_CHO_A_600


 36 39  0  0  0  0  0  0  0  0999 V2000
   -9.3836  -53.6508   16.5014 C   0  0  0  0  0  0  0  0  0  0  0  0
   -9.7539  -54.9889   15.8525 C   0  0  0  0  0  0  0  0  0  0  0  0
   -8.7434  -55.3698   14.7846 C   0  0  0  0  0  0  0  0  0  0  0  0
   -9.0983  -56.6221   14.2110 O   0  0  0  0  0  0  0  0  0  0  0  0
   -8.6956  -54.2551   13.7626 C   0  0  0  0  0  0  0  0  0  0  0  0
   -8.3557  -52.8855   14.3596 C   0  0  0  0  0  0  0  0  0  0  0  0
   -8.2562  -51.8042   13.2756 C   0  0  0  0  0  0  0  0  0  0  0  0
   -9.5953  -51.3176   12.7275 C   0  0  0  0  0  0  0  0  0  0  0  0
  -10.1330  -52.3074   11.8448 O   0  0  0  0  0  0  0  0  0  0  0  0
  -10.5875  -50.9676   13.8480 C   0  0  0  0  0  0  0  0  0  0  0  0
  -10.6922  -52.0843   14.9035 C   0  0  0  0  0  0  0  0  0  0  0  0
   -9.3019  -52.4674   15.5170 C   0  0  0  0  0  0  0  0  0  0  0  0
  -11.7813  -51.7639   15.9412 C   0  0  0  0  0  0  0  0  0  0  0  0
  -13.1088  -51.2520   15.3811 C   0  0  0  0  0  0  0  0  0  0  0  0
  -12.9580  -50.0917   14.3840 C   0  0  0  0  0  0  0  0  0  0  0  0
  -11.9813  -50.5968   13.3289 C   0  0  0  0  0  0  0  0  0  0  0  0
  -12.1194  -49.5567   12.1966 C   0  0  0  0  0  0  0  0  0  0  0  0
  -13.6026  -49.1359   12.2287 C   0  0  0  0  0  0  0  0  0  0  0  0
  -14.2044  -49.7245   13.5156 C   0  0  0  0  0  0  0  0  0  0  0  0
  -12.4347  -48.8413   15.1254 C   0  0  0  0  0  0  0  0  0  0  0  0
   -8.6846  -51.2963   16.3038 C   0  0  0  0  0  0  0  0  0  0  0  0
   -9.9838  -56.5593   13.8200 H   0  0  0  0  0  0  0  0  0  0  0  0
  -10.2854  -53.1300   12.3357 H   0  0  0  0  0  0  0  0  0  0  0  0
  -15.3008  -48.8229   14.1298 C   0  0  0  0  0  0  0  0  0  0  0  0
  -15.7190  -49.2764   15.5283 C   0  0  0  0  0  0  0  0  0  0  0  0
  -16.5340  -48.6713   13.2211 C   0  0  0  0  0  0  0  0  0  0  0  0
  -17.8306  -49.1907   13.8181 C   0  0  0  0  0  0  0  0  0  0  0  0
  -18.2049  -50.5972   13.3963 C   0  0  0  0  0  0  0  0  0  0  0  0
  -19.2387  -51.1496   13.7682 O   0  0  0  0  0  0  0  0  0  0  0  0
  -17.3347  -51.2104   12.6083 N   0  0  0  0  0  0  0  0  0  0  0  0
  -16.5129  -50.7365   12.3451 H   0  0  0  0  0  0  0  0  0  0  0  0
  -17.5549  -52.5560   12.1223 C   0  0  0  0  0  0  0  0  0  0  0  0
  -16.7473  -53.6171   12.8318 C   0  0  0  0  0  0  0  0  0  0  0  0
  -16.0087  -53.2553   13.7709 O   0  0  0  0  0  0  0  0  0  0  0  0
  -16.8450  -54.8096   12.4717 O   0  0  0  0  0  0  0  0  0  0  0  0
  -17.4113  -55.0397   11.7615 H   0  0  0  0  0  0  0  0  0  0  0  0
  1  2  1  0  0  0
  1 12  1  0  0  0
  2  3  1  0  0  0
  3  4  1  0  0  0
  3  5  1  0  0  0
  5  6  1  0  0  0
  6  7  1  0  0  0
  6 12  1  0  0  0
  7  8  1  0  0  0
  8  9  1  0  0  0
  8 10  1  0  0  0
 10 11  1  0  0  0
 10 16  1  0  0  0
 11 12  1  0  0  0
 11 13  1  0  0  0
 12 21  1  0  0  0
 13 14  1  0  0  0
 14 15  1  0  0  0
 15 16  1  0  0  0
 15 19  1  0  0  0
 15 20  1  0  0  0
 16 17  1  0  0  0
 17 18  1  0  0  0
 18 19  1  0  0  0
 19 24  1  0  0  0
 24 25  1  0  0  0
 24 26  1  0  0  0
 26 27  1  0  0  0
 27 28  1  0  0  0
 28 29  2  0  0  0
 28 30  1  0  0  0
 30 32  1  0  0  0
 32 33  1  0  0  0
 33 34  2  0  0  0
 33 35  1  0  0  0
  4 22  1  0  0  0
  9 23  1  0  0  0
 30 31  1  0  0  0
 35 36  1  0  0  0
M  END
> <minimizedAffinity>
-8.66500

$$$$
6GVZ_CHO_A_600


 36 39  0  0  0  0  0  0  0  0999 V2000
   -9.5285  -53.6541   16.3922 C   0  0  0  0  0  0  0  0  0  0  0  0
   -9.8088  -54.9869   15.6897 C   0  0  0  0  0  0  0  0  0  0  0  0
   -8.7079  -55.3165   14.6966 C   0  0  0  0  0  0  0  0  0  0  0  0
   -8.9812  -56.5649   14.0720 O   0  0  0  0  0  0  0  0  0  0  0  0
   -8.6130  -54.1784   13.7040 C   0  0  0  0  0  0  0  0  0  0  0  0
   -8.3599  -52.8137   14.3531 C   0  0  0  0  0  0  0  0  0  0  0  0
   -8.2077  -51.7063   13.3021 C   0  0  0  0  0  0  0  0  0  0  0  0
   -9.5137  -51.2440   12.6609 C   0  0  0  0  0  0  0  0  0  0  0  0
   -9.9526  -52.2282   11.7191 O   0  0  0  0  0  0  0  0  0  0  0  0
  -10.5995  -50.9461   13.7072 C   0  0  0  0  0  0  0  0  0  0  0  0
  -10.7537  -52.0883   14.7286 C   0  0  0  0  0  0  0  0  0  0  0  0
   -9.4047  -52.4473   15.4412 C   0  0  0  0  0  0  0  0  0  0  0  0
  -11.9287  -51.8207   15.6842 C   0  0  0  0  0  0  0  0  0  0  0  0
  -13.2229  -51.3326   15.0324 C   0  0  0  0  0  0  0  0  0  0  0  0
  -13.0286  -50.1468   14.0736 C   0  0  0  0  0  0  0  0  0  0  0  0
  -11.9588  -50.6017   13.0882 C   0  0  0  0  0  0  0  0  0  0  0  0
  -12.0384  -49.5408   11.9697 C   0  0  0  0  0  0  0  0  0  0  0  0
  -13.5311  -49.1610   11.8942 C   0  0  0  0  0  0  0  0  0  0  0  0
  -14.2139  -49.7942   13.1180 C   0  0  0  0  0  0  0  0  0  0  0  0
  -12.6005  -48.8995   14.8786 C   0  0  0  0  0  0  0  0  0  0  0  0
   -8.8842  -51.2777   16.2971 C   0  0  0  0  0  0  0  0  0  0  0  0
   -9.8351  -56.5174   13.6143 H   0  0  0  0  0  0  0  0  0  0  0  0
  -10.1189  -53.0653   12.1801 H   0  0  0  0  0  0  0  0  0  0  0  0
  -15.3801  -48.9365   13.6625 C   0  0  0  0  0  0  0  0  0  0  0  0
  -16.1410  -49.6293   14.7928 C   0  0  0  0  0  0  0  0  0  0  0  0
  -16.3523  -48.4746   12.5622 C   0  0  0  0  0  0  0  0  0  0  0  0
  -17.0094  -49.6001   11.7819 C   0  0  0  0  0  0  0  0  0  0  0  0
  -18.4992  -49.4332   11.5604 C   0  0  0  0  0  0  0  0  0  0  0  0
  -19.2211  -48.8111   12.3376 O   0  0  0  0  0  0  0  0  0  0  0  0
  -18.9871  -50.0183   10.4770 N   0  0  0  0  0  0  0  0  0  0  0  0
  -18.3762  -50.5180    9.8885 H   0  0  0  0  0  0  0  0  0  0  0  0
  -20.3909  -49.9457   10.1317 C   0  0  0  0  0  0  0  0  0  0  0  0
  -21.2614  -50.9593   10.8362 C   0  0  0  0  0  0  0  0  0  0  0  0
  -21.4572  -52.0534   10.2678 O   0  0  0  0  0  0  0  0  0  0  0  0
  -21.7469  -50.6837   11.9541 O   0  0  0  0  0  0  0  0  0  0  0  0
  -21.5756  -49.8504   12.3468 H   0  0  0  0  0  0  0  0  0  0  0  0
  1  2  1  0  0  0
  1 12  1  0  0  0
  2  3  1  0  0  0
  3  4  1  0  0  0
  3  5  1  0  0  0
  5  6  1  0  0  0
  6  7  1  0  0  0
  6 12  1  0  0  0
  7  8  1  0  0  0
  8  9  1  0  0  0
  8 10  1  0  0  0
 10 11  1  0  0  0
 10 16  1  0  0  0
 11 12  1  0  0  0
 11 13  1  0  0  0
 12 21  1  0  0  0
 13 14  1  0  0  0
 14 15  1  0  0  0
 15 16  1  0  0  0
 15 19  1  0  0  0
 15 20  1  0  0  0
 16 17  1  0  0  0
 17 18  1  0  0  0
 18 19  1  0  0  0
 19 24  1  0  0  0
 24 25  1  0  0  0
 24 26  1  0  0  0
 26 27  1  0  0  0
 27 28  1  0  0  0
 28 29  2  0  0  0
 28 30  1  0  0  0
 30 32  1  0  0  0
 32 33  1  0  0  0
 33 34  2  0  0  0
 33 35  1  0  0  0
  4 22  1  0  0  0
  9 23  1  0  0  0
 30 31  1  0  0  0
 35 36  1  0  0  0
M  END
> <minimizedAffinity>
-8.62628

$$$$
6GVZ_CHO_A_600


 36 39  0  0  0  0  0  0  0  0999 V2000
  -18.6865  -52.3288   12.2162 C   0  0  0  0  0  0  0  0  0  0  0  0
  -19.5862  -52.0408   13.4230 C   0  0  0  0  0  0  0  0  0  0  0  0
  -20.3454  -50.7392   13.2329 C   0  0  0  0  0  0  0  0  0  0  0  0
  -21.1859  -50.5038   14.3560 O   0  0  0  0  0  0  0  0  0  0  0  0
  -19.3360  -49.6322   13.0202 C   0  0  0  0  0  0  0  0  0  0  0  0
  -18.3896  -49.8792   11.8408 C   0  0  0  0  0  0  0  0  0  0  0  0
  -17.4304  -48.7006   11.6281 C   0  0  0  0  0  0  0  0  0  0  0  0
  -16.2820  -48.6169   12.6304 C   0  0  0  0  0  0  0  0  0  0  0  0
  -16.7795  -48.1281   13.8801 O   0  0  0  0  0  0  0  0  0  0  0  0
  -15.5629  -49.9645   12.8020 C   0  0  0  0  0  0  0  0  0  0  0  0
  -16.5473  -51.1232   13.0473 C   0  0  0  0  0  0  0  0  0  0  0  0
  -17.6390  -51.2351   11.9283 C   0  0  0  0  0  0  0  0  0  0  0  0
  -15.7971  -52.4335   13.3403 C   0  0  0  0  0  0  0  0  0  0  0  0
  -14.6321  -52.3311   14.3254 C   0  0  0  0  0  0  0  0  0  0  0  0
  -13.6389  -51.2037   14.0003 C   0  0  0  0  0  0  0  0  0  0  0  0
  -14.4877  -49.9425   13.8942 C   0  0  0  0  0  0  0  0  0  0  0  0
  -13.4376  -48.8111   13.9051 C   0  0  0  0  0  0  0  0  0  0  0  0
  -12.3179  -49.3235   14.8334 C   0  0  0  0  0  0  0  0  0  0  0  0
  -12.6143  -50.8066   15.1116 C   0  0  0  0  0  0  0  0  0  0  0  0
  -12.9001  -51.5330   12.6839 C   0  0  0  0  0  0  0  0  0  0  0  0
  -17.0200  -51.5826   10.5618 C   0  0  0  0  0  0  0  0  0  0  0  0
  -20.6453  -50.4562   15.1600 H   0  0  0  0  0  0  0  0  0  0  0  0
  -17.4429  -48.7446   14.2274 H   0  0  0  0  0  0  0  0  0  0  0  0
  -11.3300  -51.6522   15.2775 C   0  0  0  0  0  0  0  0  0  0  0  0
  -11.3354  -52.4831   16.5605 C   0  0  0  0  0  0  0  0  0  0  0  0
  -10.0418  -50.8150   15.1830 C   0  0  0  0  0  0  0  0  0  0  0  0
   -8.7994  -51.6017   14.8026 C   0  0  0  0  0  0  0  0  0  0  0  0
   -8.6895  -51.9413   13.3298 C   0  0  0  0  0  0  0  0  0  0  0  0
   -7.9140  -52.7936   12.9004 O   0  0  0  0  0  0  0  0  0  0  0  0
   -9.4743  -51.2460   12.5207 N   0  0  0  0  0  0  0  0  0  0  0  0
  -10.0708  -50.5635   12.9048 H   0  0  0  0  0  0  0  0  0  0  0  0
   -9.4821  -51.4588   11.0889 C   0  0  0  0  0  0  0  0  0  0  0  0
  -10.0593  -50.3144   10.2898 C   0  0  0  0  0  0  0  0  0  0  0  0
  -10.6651  -49.4175   10.9119 O   0  0  0  0  0  0  0  0  0  0  0  0
   -9.9102  -50.2918    9.0494 O   0  0  0  0  0  0  0  0  0  0  0  0
   -9.4486  -50.9852    8.6203 H   0  0  0  0  0  0  0  0  0  0  0  0
  1  2  1  0  0  0
  1 12  1  0  0  0
  2  3  1  0  0  0
  3  4  1  0  0  0
  3  5  1  0  0  0
  5  6  1  0  0  0
  6  7  1  0  0  0
  6 12  1  0  0  0
  7  8  1  0  0  0
  8  9  1  0  0  0
  8 10  1  0  0  0
 10 11  1  0  0  0
 10 16  1  0  0  0
 11 12  1  0  0  0
 11 13  1  0  0  0
 12 21  1  0  0  0
 13 14  1  0  0  0
 14 15  1  0  0  0
 15 16  1  0  0  0
 15 19  1  0  0  0
 15 20  1  0  0  0
 16 17  1  0  0  0
 17 18  1  0  0  0
 18 19  1  0  0  0
 19 24  1  0  0  0
 24 25  1  0  0  0
 24 26  1  0  0  0
 26 27  1  0  0  0
 27 28  1  0  0  0
 28 29  2  0  0  0
 28 30  1  0  0  0
 30 32  1  0  0  0
 32 33  1  0  0  0
 33 34  2  0  0  0
 33 35  1  0  0  0
  4 22  1  0  0  0
  9 23  1  0  0  0
 30 31  1  0  0  0
 35 36  1  0  0  0
M  END
> <minimizedAffinity>
-7.95545

$$$$
6GVZ_CHO_A_600


 36 39  0  0  0  0  0  0  0  0999 V2000
   -9.1211  -51.2587   15.0761 C   0  0  0  0  0  0  0  0  0  0  0  0
   -9.4205  -52.1616   16.2777 C   0  0  0  0  0  0  0  0  0  0  0  0
   -8.9961  -53.5927   15.9974 C   0  0  0  0  0  0  0  0  0  0  0  0
   -9.2670  -54.4060   17.1326 O   0  0  0  0  0  0  0  0  0  0  0  0
   -9.7229  -54.0651   14.7573 C   0  0  0  0  0  0  0  0  0  0  0  0
   -9.4819  -53.1828   13.5279 C   0  0  0  0  0  0  0  0  0  0  0  0
  -10.1870  -53.7398   12.2842 C   0  0  0  0  0  0  0  0  0  0  0  0
  -11.6963  -53.5135   12.2450 C   0  0  0  0  0  0  0  0  0  0  0  0
  -12.3345  -54.4221   13.1480 O   0  0  0  0  0  0  0  0  0  0  0  0
  -12.0722  -52.0563   12.5574 C   0  0  0  0  0  0  0  0  0  0  0  0
  -11.3766  -51.5346   13.8285 C   0  0  0  0  0  0  0  0  0  0  0  0
   -9.8179  -51.6867   13.7694 C   0  0  0  0  0  0  0  0  0  0  0  0
  -11.8668  -50.1215   14.1867 C   0  0  0  0  0  0  0  0  0  0  0  0
  -13.3783  -49.9005   14.1178 C   0  0  0  0  0  0  0  0  0  0  0  0
  -14.0176  -50.3743   12.8024 C   0  0  0  0  0  0  0  0  0  0  0  0
  -13.5851  -51.8275   12.6494 C   0  0  0  0  0  0  0  0  0  0  0  0
  -14.5033  -52.3500   11.5237 C   0  0  0  0  0  0  0  0  0  0  0  0
  -15.8363  -51.6014   11.7252 C   0  0  0  0  0  0  0  0  0  0  0  0
  -15.5750  -50.4989   12.7648 C   0  0  0  0  0  0  0  0  0  0  0  0
  -13.5235  -49.4837   11.6406 C   0  0  0  0  0  0  0  0  0  0  0  0
   -9.2035  -50.8229   12.6523 C   0  0  0  0  0  0  0  0  0  0  0  0
  -10.2156  -54.3763   17.3326 H   0  0  0  0  0  0  0  0  0  0  0  0
  -12.0241  -54.2519   14.0511 H   0  0  0  0  0  0  0  0  0  0  0  0
  -16.4183  -49.2271   12.5126 C   0  0  0  0  0  0  0  0  0  0  0  0
  -16.4327  -48.2838   13.7152 C   0  0  0  0  0  0  0  0  0  0  0  0
  -17.8544  -49.5384   12.0545 C   0  0  0  0  0  0  0  0  0  0  0  0
  -18.9177  -49.3445   13.1218 C   0  0  0  0  0  0  0  0  0  0  0  0
  -19.5184  -50.6276   13.6596 C   0  0  0  0  0  0  0  0  0  0  0  0
  -19.0745  -51.7390   13.3765 O   0  0  0  0  0  0  0  0  0  0  0  0
  -20.5726  -50.4812   14.4477 N   0  0  0  0  0  0  0  0  0  0  0  0
  -20.9037  -49.5737   14.6380 H   0  0  0  0  0  0  0  0  0  0  0  0
  -21.2530  -51.6142   15.0380 C   0  0  0  0  0  0  0  0  0  0  0  0
  -22.4158  -52.1368   14.2279 C   0  0  0  0  0  0  0  0  0  0  0  0
  -22.4899  -53.3693   14.0442 O   0  0  0  0  0  0  0  0  0  0  0  0
  -23.2630  -51.3358   13.7782 O   0  0  0  0  0  0  0  0  0  0  0  0
  -23.1708  -50.4173   13.9386 H   0  0  0  0  0  0  0  0  0  0  0  0
  1  2  1  0  0  0
  1 12  1  0  0  0
  2  3  1  0  0  0
  3  4  1  0  0  0
  3  5  1  0  0  0
  5  6  1  0  0  0
  6  7  1  0  0  0
  6 12  1  0  0  0
  7  8  1  0  0  0
  8  9  1  0  0  0
  8 10  1  0  0  0
 10 11  1  0  0  0
 10 16  1  0  0  0
 11 12  1  0  0  0
 11 13  1  0  0  0
 12 21  1  0  0  0
 13 14  1  0  0  0
 14 15  1  0  0  0
 15 16  1  0  0  0
 15 19  1  0  0  0
 15 20  1  0  0  0
 16 17  1  0  0  0
 17 18  1  0  0  0
 18 19  1  0  0  0
 19 24  1  0  0  0
 24 25  1  0  0  0
 24 26  1  0  0  0
 26 27  1  0  0  0
 27 28  1  0  0  0
 28 29  2  0  0  0
 28 30  1  0  0  0
 30 32  1  0  0  0
 32 33  1  0  0  0
 33 34  2  0  0  0
 33 35  1  0  0  0
  4 22  1  0  0  0
  9 23  1  0  0  0
 30 31  1  0  0  0
 35 36  1  0  0  0
M  END
> <minimizedAffinity>
-7.63212

$$$$
6GVZ_CHO_A_600


 36 39  0  0  0  0  0  0  0  0999 V2000
  -18.5075  -52.2242   12.2123 C   0  0  0  0  0  0  0  0  0  0  0  0
  -19.4190  -51.9371   13.4103 C   0  0  0  0  0  0  0  0  0  0  0  0
  -20.1755  -50.6348   13.2141 C   0  0  0  0  0  0  0  0  0  0  0  0
  -21.0270  -50.4002   14.3291 O   0  0  0  0  0  0  0  0  0  0  0  0
  -19.1636  -49.5281   13.0127 C   0  0  0  0  0  0  0  0  0  0  0  0
  -18.2055  -49.7743   11.8425 C   0  0  0  0  0  0  0  0  0  0  0  0
  -17.2437  -48.5961   11.6406 C   0  0  0  0  0  0  0  0  0  0  0  0
  -16.1052  -48.5141   12.6544 C   0  0  0  0  0  0  0  0  0  0  0  0
  -16.6149  -48.0263   13.8996 O   0  0  0  0  0  0  0  0  0  0  0  0
  -15.3886  -49.8622   12.8317 C   0  0  0  0  0  0  0  0  0  0  0  0
  -16.3760  -51.0207   13.0659 C   0  0  0  0  0  0  0  0  0  0  0  0
  -17.4566  -51.1308   11.9360 C   0  0  0  0  0  0  0  0  0  0  0  0
  -15.6294  -52.3316   13.3649 C   0  0  0  0  0  0  0  0  0  0  0  0
  -14.4743  -52.2310   14.3617 C   0  0  0  0  0  0  0  0  0  0  0  0
  -13.4772  -51.1037   14.0477 C   0  0  0  0  0  0  0  0  0  0  0  0
  -14.3243  -49.8420   13.9345 C   0  0  0  0  0  0  0  0  0  0  0  0
  -13.2737  -48.7111   13.9571 C   0  0  0  0  0  0  0  0  0  0  0  0
  -12.1636  -49.2252   14.8959 C   0  0  0  0  0  0  0  0  0  0  0  0
  -12.4636  -50.7084   15.1696 C   0  0  0  0  0  0  0  0  0  0  0  0
  -12.7256  -51.4320   12.7384 C   0  0  0  0  0  0  0  0  0  0  0  0
  -16.8242  -51.4771   10.5753 C   0  0  0  0  0  0  0  0  0  0  0  0
  -20.4945  -50.3537   15.1385 H   0  0  0  0  0  0  0  0  0  0  0  0
  -17.2821  -48.6429   14.2396 H   0  0  0  0  0  0  0  0  0  0  0  0
  -11.1814  -51.5549   15.3473 C   0  0  0  0  0  0  0  0  0  0  0  0
  -11.2822  -52.5357   16.5153 C   0  0  0  0  0  0  0  0  0  0  0  0
   -9.9077  -50.6994   15.4702 C   0  0  0  0  0  0  0  0  0  0  0  0
   -8.6095  -51.4587   15.2575 C   0  0  0  0  0  0  0  0  0  0  0  0
   -8.5834  -52.3377   14.0233 C   0  0  0  0  0  0  0  0  0  0  0  0
   -8.6896  -51.8870   12.8841 O   0  0  0  0  0  0  0  0  0  0  0  0
   -8.4554  -53.6368   14.2469 N   0  0  0  0  0  0  0  0  0  0  0  0
   -8.3868  -53.9566   15.1755 H   0  0  0  0  0  0  0  0  0  0  0  0
   -8.4132  -54.6009   13.1680 C   0  0  0  0  0  0  0  0  0  0  0  0
   -7.1073  -54.6338   12.4096 C   0  0  0  0  0  0  0  0  0  0  0  0
   -6.1460  -55.2349   12.9320 O   0  0  0  0  0  0  0  0  0  0  0  0
   -7.0279  -54.0754   11.2946 O   0  0  0  0  0  0  0  0  0  0  0  0
   -7.7735  -53.6344   10.9373 H   0  0  0  0  0  0  0  0  0  0  0  0
  1  2  1  0  0  0
  1 12  1  0  0  0
  2  3  1  0  0  0
  3  4  1  0  0  0
  3  5  1  0  0  0
  5  6  1  0  0  0
  6  7  1  0  0  0
  6 12  1  0  0  0
  7  8  1  0  0  0
  8  9  1  0  0  0
  8 10  1  0  0  0
 10 11  1  0  0  0
 10 16  1  0  0  0
 11 12  1  0  0  0
 11 13  1  0  0  0
 12 21  1  0  0  0
 13 14  1  0  0  0
 14 15  1  0  0  0
 15 16  1  0  0  0
 15 19  1  0  0  0
 15 20  1  0  0  0
 16 17  1  0  0  0
 17 18  1  0  0  0
 18 19  1  0  0  0
 19 24  1  0  0  0
 24 25  1  0  0  0
 24 26  1  0  0  0
 26 27  1  0  0  0
 27 28  1  0  0  0
 28 29  2  0  0  0
 28 30  1  0  0  0
 30 32  1  0  0  0
 32 33  1  0  0  0
 33 34  2  0  0  0
 33 35  1  0  0  0
  4 22  1  0  0  0
  9 23  1  0  0  0
 30 31  1  0  0  0
 35 36  1  0  0  0
M  END
> <minimizedAffinity>
-7.46878

$$$$
6GVZ_CHO_A_600


 36 39  0  0  0  0  0  0  0  0999 V2000
   -9.7052  -55.4512   13.7116 C   0  0  0  0  0  0  0  0  0  0  0  0
   -8.9328  -55.5558   12.3921 C   0  0  0  0  0  0  0  0  0  0  0  0
   -7.5539  -54.9324   12.5220 C   0  0  0  0  0  0  0  0  0  0  0  0
   -6.8511  -55.0584   11.2918 O   0  0  0  0  0  0  0  0  0  0  0  0
   -7.7272  -53.4908   12.9474 C   0  0  0  0  0  0  0  0  0  0  0  0
   -8.5173  -53.3230   14.2495 C   0  0  0  0  0  0  0  0  0  0  0  0
   -8.6089  -51.8504   14.6705 C   0  0  0  0  0  0  0  0  0  0  0  0
   -9.6034  -51.0132   13.8701 C   0  0  0  0  0  0  0  0  0  0  0  0
   -9.0498  -50.7240   12.5824 O   0  0  0  0  0  0  0  0  0  0  0  0
  -10.9737  -51.6990   13.7498 C   0  0  0  0  0  0  0  0  0  0  0  0
  -10.8536  -53.1651   13.2937 C   0  0  0  0  0  0  0  0  0  0  0  0
   -9.9093  -54.0091   14.2167 C   0  0  0  0  0  0  0  0  0  0  0  0
  -12.2409  -53.7869   13.0605 C   0  0  0  0  0  0  0  0  0  0  0  0
  -13.2365  -52.9275   12.2807 C   0  0  0  0  0  0  0  0  0  0  0  0
  -13.3732  -51.4927   12.8154 C   0  0  0  0  0  0  0  0  0  0  0  0
  -11.9529  -50.9414   12.8461 C   0  0  0  0  0  0  0  0  0  0  0  0
  -12.1688  -49.4277   13.0589 C   0  0  0  0  0  0  0  0  0  0  0  0
  -13.4707  -49.1060   12.2976 C   0  0  0  0  0  0  0  0  0  0  0  0
  -14.1000  -50.4525   11.9031 C   0  0  0  0  0  0  0  0  0  0  0  0
  -14.0262  -51.5258   14.2152 C   0  0  0  0  0  0  0  0  0  0  0  0
  -10.4696  -54.1301   15.6460 C   0  0  0  0  0  0  0  0  0  0  0  0
   -7.3492  -54.6141   10.5879 H   0  0  0  0  0  0  0  0  0  0  0  0
   -8.8945  -51.5532   12.1036 H   0  0  0  0  0  0  0  0  0  0  0  0
  -15.6462  -50.4130   11.9036 C   0  0  0  0  0  0  0  0  0  0  0  0
  -16.2509  -51.0711   10.6636 C   0  0  0  0  0  0  0  0  0  0  0  0
  -16.2118  -48.9937   12.0906 C   0  0  0  0  0  0  0  0  0  0  0  0
  -17.1314  -48.8292   13.2883 C   0  0  0  0  0  0  0  0  0  0  0  0
  -18.4306  -49.6044   13.2021 C   0  0  0  0  0  0  0  0  0  0  0  0
  -18.6311  -50.6382   13.8370 O   0  0  0  0  0  0  0  0  0  0  0  0
  -19.3419  -49.1069   12.3798 N   0  0  0  0  0  0  0  0  0  0  0  0
  -19.1354  -48.2840   11.8803 H   0  0  0  0  0  0  0  0  0  0  0  0
  -20.6323  -49.7357   12.1931 C   0  0  0  0  0  0  0  0  0  0  0  0
  -21.7261  -49.1950   13.0834 C   0  0  0  0  0  0  0  0  0  0  0  0
  -21.7104  -47.9754   13.3492 O   0  0  0  0  0  0  0  0  0  0  0  0
  -22.6074  -49.9681   13.5158 O   0  0  0  0  0  0  0  0  0  0  0  0
  -22.5831  -50.8778   13.2927 H   0  0  0  0  0  0  0  0  0  0  0  0
  1  2  1  0  0  0
  1 12  1  0  0  0
  2  3  1  0  0  0
  3  4  1  0  0  0
  3  5  1  0  0  0
  5  6  1  0  0  0
  6  7  1  0  0  0
  6 12  1  0  0  0
  7  8  1  0  0  0
  8  9  1  0  0  0
  8 10  1  0  0  0
 10 11  1  0  0  0
 10 16  1  0  0  0
 11 12  1  0  0  0
 11 13  1  0  0  0
 12 21  1  0  0  0
 13 14  1  0  0  0
 14 15  1  0  0  0
 15 16  1  0  0  0
 15 19  1  0  0  0
 15 20  1  0  0  0
 16 17  1  0  0  0
 17 18  1  0  0  0
 18 19  1  0  0  0
 19 24  1  0  0  0
 24 25  1  0  0  0
 24 26  1  0  0  0
 26 27  1  0  0  0
 27 28  1  0  0  0
 28 29  2  0  0  0
 28 30  1  0  0  0
 30 32  1  0  0  0
 32 33  1  0  0  0
 33 34  2  0  0  0
 33 35  1  0  0  0
  4 22  1  0  0  0
  9 23  1  0  0  0
 30 31  1  0  0  0
 35 36  1  0  0  0
M  END
> <minimizedAffinity>
-7.43002

$$$$
6GVZ_CHO_A_600


 36 39  0  0  0  0  0  0  0  0999 V2000
  -19.8376  -53.3712   10.0613 C   0  0  0  0  0  0  0  0  0  0  0  0
  -20.9907  -53.5785   11.0492 C   0  0  0  0  0  0  0  0  0  0  0  0
  -22.1218  -52.6034   10.7722 C   0  0  0  0  0  0  0  0  0  0  0  0
  -23.1859  -52.8278   11.6890 O   0  0  0  0  0  0  0  0  0  0  0  0
  -21.5651  -51.1993   10.8603 C   0  0  0  0  0  0  0  0  0  0  0  0
  -20.3894  -50.9416    9.9121 C   0  0  0  0  0  0  0  0  0  0  0  0
  -19.9045  -49.4881    9.9932 C   0  0  0  0  0  0  0  0  0  0  0  0
  -19.0771  -49.1542   11.2320 C   0  0  0  0  0  0  0  0  0  0  0  0
  -19.9449  -49.0428   12.3645 O   0  0  0  0  0  0  0  0  0  0  0  0
  -17.9624  -50.1832   11.4791 C   0  0  0  0  0  0  0  0  0  0  0  0
  -18.4836  -51.6314   11.4252 C   0  0  0  0  0  0  0  0  0  0  0  0
  -19.2270  -51.9559   10.0841 C   0  0  0  0  0  0  0  0  0  0  0  0
  -17.3770  -52.6316   11.7997 C   0  0  0  0  0  0  0  0  0  0  0  0
  -16.5381  -52.2724   13.0266 C   0  0  0  0  0  0  0  0  0  0  0  0
  -15.9823  -50.8392   13.0030 C   0  0  0  0  0  0  0  0  0  0  0  0
  -17.1962  -49.9441   12.7850 C   0  0  0  0  0  0  0  0  0  0  0  0
  -16.6534  -48.5340   13.1012 C   0  0  0  0  0  0  0  0  0  0  0  0
  -15.6208  -48.7537   14.2252 C   0  0  0  0  0  0  0  0  0  0  0  0
  -15.4027  -50.2717   14.3388 C   0  0  0  0  0  0  0  0  0  0  0  0
  -14.9401  -50.7105   11.8697 C   0  0  0  0  0  0  0  0  0  0  0  0
  -18.2779  -51.8782    8.8739 C   0  0  0  0  0  0  0  0  0  0  0  0
  -22.8622  -52.7087   12.5956 H   0  0  0  0  0  0  0  0  0  0  0  0
  -20.3905  -49.8911   12.5151 H   0  0  0  0  0  0  0  0  0  0  0  0
  -13.9545  -50.6395   14.7385 C   0  0  0  0  0  0  0  0  0  0  0  0
  -13.8801  -51.3463   16.0917 C   0  0  0  0  0  0  0  0  0  0  0  0
  -12.9969  -49.4348   14.7062 C   0  0  0  0  0  0  0  0  0  0  0  0
  -11.8907  -49.5303   13.6698 C   0  0  0  0  0  0  0  0  0  0  0  0
  -10.7196  -50.4046   14.0703 C   0  0  0  0  0  0  0  0  0  0  0  0
  -10.1187  -51.1185   13.2693 O   0  0  0  0  0  0  0  0  0  0  0  0
  -10.3882  -50.3679   15.3520 N   0  0  0  0  0  0  0  0  0  0  0  0
  -10.9043  -49.7927   15.9619 H   0  0  0  0  0  0  0  0  0  0  0  0
   -9.2905  -51.1475   15.8837 C   0  0  0  0  0  0  0  0  0  0  0  0
   -9.7054  -52.4371   16.5516 C   0  0  0  0  0  0  0  0  0  0  0  0
   -8.8578  -53.3502   16.6310 O   0  0  0  0  0  0  0  0  0  0  0  0
  -10.8635  -52.5506   17.0069 O   0  0  0  0  0  0  0  0  0  0  0  0
  -11.4700  -51.8409   16.9268 H   0  0  0  0  0  0  0  0  0  0  0  0
  1  2  1  0  0  0
  1 12  1  0  0  0
  2  3  1  0  0  0
  3  4  1  0  0  0
  3  5  1  0  0  0
  5  6  1  0  0  0
  6  7  1  0  0  0
  6 12  1  0  0  0
  7  8  1  0  0  0
  8  9  1  0  0  0
  8 10  1  0  0  0
 10 11  1  0  0  0
 10 16  1  0  0  0
 11 12  1  0  0  0
 11 13  1  0  0  0
 12 21  1  0  0  0
 13 14  1  0  0  0
 14 15  1  0  0  0
 15 16  1  0  0  0
 15 19  1  0  0  0
 15 20  1  0  0  0
 16 17  1  0  0  0
 17 18  1  0  0  0
 18 19  1  0  0  0
 19 24  1  0  0  0
 24 25  1  0  0  0
 24 26  1  0  0  0
 26 27  1  0  0  0
 27 28  1  0  0  0
 28 29  2  0  0  0
 28 30  1  0  0  0
 30 32  1  0  0  0
 32 33  1  0  0  0
 33 34  2  0  0  0
 33 35  1  0  0  0
  4 22  1  0  0  0
  9 23  1  0  0  0
 30 31  1  0  0  0
 35 36  1  0  0  0
M  END
> <minimizedAffinity>
-7.26871

$$$$
6GVZ_CHO_A_600


 36 39  0  0  0  0  0  0  0  0999 V2000
  -10.7425  -54.4711   14.8559 C   0  0  0  0  0  0  0  0  0  0  0  0
   -9.8672  -54.7397   13.6270 C   0  0  0  0  0  0  0  0  0  0  0  0
   -8.5708  -53.9522   13.7042 C   0  0  0  0  0  0  0  0  0  0  0  0
   -7.7690  -54.2321   12.5632 O   0  0  0  0  0  0  0  0  0  0  0  0
   -8.9179  -52.4844   13.8247 C   0  0  0  0  0  0  0  0  0  0  0  0
   -9.8159  -52.1596   15.0230 C   0  0  0  0  0  0  0  0  0  0  0  0
  -10.0848  -50.6534   15.1373 C   0  0  0  0  0  0  0  0  0  0  0  0
  -11.0951  -50.1024   14.1342 C   0  0  0  0  0  0  0  0  0  0  0  0
  -10.4784  -50.0054   12.8464 O   0  0  0  0  0  0  0  0  0  0  0  0
  -12.3775  -50.9479   14.0792 C   0  0  0  0  0  0  0  0  0  0  0  0
  -12.0784  -52.4514   13.9307 C   0  0  0  0  0  0  0  0  0  0  0  0
  -11.1263  -52.9912   15.0525 C   0  0  0  0  0  0  0  0  0  0  0  0
  -13.3755  -53.2582   13.7516 C   0  0  0  0  0  0  0  0  0  0  0  0
  -14.3907  -52.6817   12.7641 C   0  0  0  0  0  0  0  0  0  0  0  0
  -14.7092  -51.1955   12.9948 C   0  0  0  0  0  0  0  0  0  0  0  0
  -13.3570  -50.4926   12.9916 C   0  0  0  0  0  0  0  0  0  0  0  0
  -13.7378  -49.0003   12.8873 C   0  0  0  0  0  0  0  0  0  0  0  0
  -15.0048  -48.9788   12.0084 C   0  0  0  0  0  0  0  0  0  0  0  0
  -15.4656  -50.4380   11.8562 C   0  0  0  0  0  0  0  0  0  0  0  0
  -15.4584  -51.0324   14.3361 C   0  0  0  0  0  0  0  0  0  0  0  0
  -11.7770  -52.8977   16.4451 C   0  0  0  0  0  0  0  0  0  0  0  0
   -8.2548  -53.9899   11.7593 H   0  0  0  0  0  0  0  0  0  0  0  0
  -10.2060  -50.8882   12.5510 H   0  0  0  0  0  0  0  0  0  0  0  0
  -17.0037  -50.5730   11.7657 C   0  0  0  0  0  0  0  0  0  0  0  0
  -17.4503  -51.4120   10.5687 C   0  0  0  0  0  0  0  0  0  0  0  0
  -17.7284  -49.2150   11.7725 C   0  0  0  0  0  0  0  0  0  0  0  0
  -19.2176  -49.2883   11.4824 C   0  0  0  0  0  0  0  0  0  0  0  0
  -20.0853  -49.5851   12.6888 C   0  0  0  0  0  0  0  0  0  0  0  0
  -20.0696  -48.8930   13.7052 O   0  0  0  0  0  0  0  0  0  0  0  0
  -20.8579  -50.6563   12.5902 N   0  0  0  0  0  0  0  0  0  0  0  0
  -20.8298  -51.1903   11.7636 H   0  0  0  0  0  0  0  0  0  0  0  0
  -21.7424  -51.0660   13.6603 C   0  0  0  0  0  0  0  0  0  0  0  0
  -21.1181  -52.0097   14.6607 C   0  0  0  0  0  0  0  0  0  0  0  0
  -20.4877  -52.9924   14.2189 O   0  0  0  0  0  0  0  0  0  0  0  0
  -21.2400  -51.7809   15.8831 O   0  0  0  0  0  0  0  0  0  0  0  0
  -21.7218  -51.0317   16.1738 H   0  0  0  0  0  0  0  0  0  0  0  0
  1  2  1  0  0  0
  1 12  1  0  0  0
  2  3  1  0  0  0
  3  4  1  0  0  0
  3  5  1  0  0  0
  5  6  1  0  0  0
  6  7  1  0  0  0
  6 12  1  0  0  0
  7  8  1  0  0  0
  8  9  1  0  0  0
  8 10  1  0  0  0
 10 11  1  0  0  0
 10 16  1  0  0  0
 11 12  1  0  0  0
 11 13  1  0  0  0
 12 21  1  0  0  0
 13 14  1  0  0  0
 14 15  1  0  0  0
 15 16  1  0  0  0
 15 19  1  0  0  0
 15 20  1  0  0  0
 16 17  1  0  0  0
 17 18  1  0  0  0
 18 19  1  0  0  0
 19 24  1  0  0  0
 24 25  1  0  0  0
 24 26  1  0  0  0
 26 27  1  0  0  0
 27 28  1  0  0  0
 28 29  2  0  0  0
 28 30  1  0  0  0
 30 32  1  0  0  0
 32 33  1  0  0  0
 33 34  2  0  0  0
 33 35  1  0  0  0
  4 22  1  0  0  0
  9 23  1  0  0  0
 30 31  1  0  0  0
 35 36  1  0  0  0
M  END
> <minimizedAffinity>
-7.25786

$$$$
6GVZ_CHO_A_600


 36 39  0  0  0  0  0  0  0  0999 V2000
  -12.1450  -52.9949    9.4004 C   0  0  0  0  0  0  0  0  0  0  0  0
  -11.8555  -52.0801    8.2055 C   0  0  0  0  0  0  0  0  0  0  0  0
  -10.6478  -51.2005    8.4782 C   0  0  0  0  0  0  0  0  0  0  0  0
  -10.3888  -50.3751    7.3490 O   0  0  0  0  0  0  0  0  0  0  0  0
  -10.9219  -50.4000    9.7325 C   0  0  0  0  0  0  0  0  0  0  0  0
  -11.2449  -51.2634   10.9565 C   0  0  0  0  0  0  0  0  0  0  0  0
  -11.4507  -50.4086   12.2140 C   0  0  0  0  0  0  0  0  0  0  0  0
  -12.7886  -49.6767   12.2825 C   0  0  0  0  0  0  0  0  0  0  0  0
  -12.7610  -48.5562   11.3926 O   0  0  0  0  0  0  0  0  0  0  0  0
  -13.9741  -50.6060   11.9767 C   0  0  0  0  0  0  0  0  0  0  0  0
  -13.7550  -51.4266   10.6919 C   0  0  0  0  0  0  0  0  0  0  0  0
  -12.4210  -52.2487   10.7208 C   0  0  0  0  0  0  0  0  0  0  0  0
  -15.0054  -52.2511   10.3426 C   0  0  0  0  0  0  0  0  0  0  0  0
  -16.3415  -51.5140   10.4408 C   0  0  0  0  0  0  0  0  0  0  0  0
  -16.5440  -50.7663   11.7687 C   0  0  0  0  0  0  0  0  0  0  0  0
  -15.3184  -49.8723   11.9141 C   0  0  0  0  0  0  0  0  0  0  0  0
  -15.7164  -48.9148   13.0577 C   0  0  0  0  0  0  0  0  0  0  0  0
  -17.2336  -48.7025   12.8818 C   0  0  0  0  0  0  0  0  0  0  0  0
  -17.7082  -49.7258   11.8367 C   0  0  0  0  0  0  0  0  0  0  0  0
  -16.6716  -51.7885   12.9202 C   0  0  0  0  0  0  0  0  0  0  0  0
  -12.4373  -53.3218   11.8251 C   0  0  0  0  0  0  0  0  0  0  0  0
  -11.1652  -49.8227    7.1674 H   0  0  0  0  0  0  0  0  0  0  0  0
  -12.6305  -48.8683   10.4836 H   0  0  0  0  0  0  0  0  0  0  0  0
  -19.1449  -50.2318   12.1046 C   0  0  0  0  0  0  0  0  0  0  0  0
  -19.8884  -50.5964   10.8198 C   0  0  0  0  0  0  0  0  0  0  0  0
  -19.9794  -49.2537   12.9511 C   0  0  0  0  0  0  0  0  0  0  0  0
  -20.3963  -49.7867   14.3109 C   0  0  0  0  0  0  0  0  0  0  0  0
  -21.3921  -50.9280   14.2672 C   0  0  0  0  0  0  0  0  0  0  0  0
  -22.3208  -50.9692   13.4621 O   0  0  0  0  0  0  0  0  0  0  0  0
  -21.2120  -51.8813   15.1687 N   0  0  0  0  0  0  0  0  0  0  0  0
  -20.4636  -51.8025   15.8034 H   0  0  0  0  0  0  0  0  0  0  0  0
  -22.0817  -53.0356   15.2495 C   0  0  0  0  0  0  0  0  0  0  0  0
  -21.9449  -53.8336   16.5247 C   0  0  0  0  0  0  0  0  0  0  0  0
  -20.8048  -54.2293   16.8439 O   0  0  0  0  0  0  0  0  0  0  0  0
  -22.9579  -54.0650   17.2187 O   0  0  0  0  0  0  0  0  0  0  0  0
  -23.7963  -53.7498   16.9435 H   0  0  0  0  0  0  0  0  0  0  0  0
  1  2  1  0  0  0
  1 12  1  0  0  0
  2  3  1  0  0  0
  3  4  1  0  0  0
  3  5  1  0  0  0
  5  6  1  0  0  0
  6  7  1  0  0  0
  6 12  1  0  0  0
  7  8  1  0  0  0
  8  9  1  0  0  0
  8 10  1  0  0  0
 10 11  1  0  0  0
 10 16  1  0  0  0
 11 12  1  0  0  0
 11 13  1  0  0  0
 12 21  1  0  0  0
 13 14  1  0  0  0
 14 15  1  0  0  0
 15 16  1  0  0  0
 15 19  1  0  0  0
 15 20  1  0  0  0
 16 17  1  0  0  0
 17 18  1  0  0  0
 18 19  1  0  0  0
 19 24  1  0  0  0
 24 25  1  0  0  0
 24 26  1  0  0  0
 26 27  1  0  0  0
 27 28  1  0  0  0
 28 29  2  0  0  0
 28 30  1  0  0  0
 30 32  1  0  0  0
 32 33  1  0  0  0
 33 34  2  0  0  0
 33 35  1  0  0  0
  4 22  1  0  0  0
  9 23  1  0  0  0
 30 31  1  0  0  0
 35 36  1  0  0  0
M  END
> <minimizedAffinity>
-7.12702

$$$$
