1H2K_OGA_A_1351


 13 12  0  0  0  0  0  0  0  0999 V2000
   21.2910   25.3778   28.4705 C   0  0  0  0  0  0  0  0  0  0  0  0
   21.6104   25.9179   29.5467 O   0  0  0  0  0  0  0  0  0  0  0  0
   20.0049   25.2584   28.1289 N   0  0  0  0  0  0  0  0  0  0  0  0
   19.7780   24.9493   27.2222 H   0  0  0  0  0  0  0  0  0  0  0  0
   22.2041   24.8908   27.5875 C   0  0  0  0  0  0  0  0  0  0  0  0
   22.0008   23.8217   27.0050 O   0  0  0  0  0  0  0  0  0  0  0  0
   23.2505   25.4897   27.3469 O   0  0  0  0  0  0  0  0  0  0  0  0
   23.4332   26.3037   27.7735 H   0  0  0  0  0  0  0  0  0  0  0  0
   18.9238   25.5737   29.0629 C   0  0  0  0  0  0  0  0  0  0  0  0
   17.5567   25.1846   28.5525 C   0  0  0  0  0  0  0  0  0  0  0  0
   17.4734   24.1797   27.8654 O   0  0  0  0  0  0  0  0  0  0  0  0
   16.5596   25.8454   28.8363 O   0  0  0  0  0  0  0  0  0  0  0  0
   18.2440   23.6882   27.6589 H   0  0  0  0  0  0  0  0  0  0  0  0
  5  1  1  0  0  0
  5  6  2  0  0  0
  5  7  1  0  0  0
  1  2  2  0  0  0
  1  3  1  0  0  0
  9 10  1  0  0  0
  9  3  1  0  0  0
 10 11  1  0  0  0
 10 12  2  0  0  0
  7  8  1  0  0  0
 11 13  1  0  0  0
  3  4  1  0  0  0
M  END
> <minimizedAffinity>
-5.99278

$$$$
1H2K_OGA_A_1351


 13 12  0  0  0  0  0  0  0  0999 V2000
   20.7127   25.5744   30.4846 C   0  0  0  0  0  0  0  0  0  0  0  0
   21.7037   26.3222   30.5878 O   0  0  0  0  0  0  0  0  0  0  0  0
   20.2987   25.1619   29.2832 N   0  0  0  0  0  0  0  0  0  0  0  0
   19.5989   24.4714   29.2301 H   0  0  0  0  0  0  0  0  0  0  0  0
   20.0053   25.1312   31.5587 C   0  0  0  0  0  0  0  0  0  0  0  0
   20.5469   24.4268   32.4155 O   0  0  0  0  0  0  0  0  0  0  0  0
   18.8172   25.4105   31.7073 O   0  0  0  0  0  0  0  0  0  0  0  0
   18.3784   25.9434   31.0737 H   0  0  0  0  0  0  0  0  0  0  0  0
   20.8547   25.7060   28.0443 C   0  0  0  0  0  0  0  0  0  0  0  0
   22.0259   24.9142   27.5129 C   0  0  0  0  0  0  0  0  0  0  0  0
   23.1232   25.4478   27.5265 O   0  0  0  0  0  0  0  0  0  0  0  0
   21.8826   23.7650   27.1004 O   0  0  0  0  0  0  0  0  0  0  0  0
   23.2140   26.3245   27.8444 H   0  0  0  0  0  0  0  0  0  0  0  0
  5  1  1  0  0  0
  5  6  2  0  0  0
  5  7  1  0  0  0
  1  2  2  0  0  0
  1  3  1  0  0  0
  9 10  1  0  0  0
  9  3  1  0  0  0
 10 11  1  0  0  0
 10 12  2  0  0  0
  7  8  1  0  0  0
 11 13  1  0  0  0
  3  4  1  0  0  0
M  END
> <minimizedAffinity>
-5.78170

$$$$
1H2K_OGA_A_1351


 13 12  0  0  0  0  0  0  0  0999 V2000
   18.8938   25.4349   28.9104 C   0  0  0  0  0  0  0  0  0  0  0  0
   19.1140   25.8334   30.0699 O   0  0  0  0  0  0  0  0  0  0  0  0
   19.9062   25.2154   28.0667 N   0  0  0  0  0  0  0  0  0  0  0  0
   19.7228   24.7791   27.2034 H   0  0  0  0  0  0  0  0  0  0  0  0
   17.6417   25.1948   28.4359 C   0  0  0  0  0  0  0  0  0  0  0  0
   16.6725   25.8072   28.8935 O   0  0  0  0  0  0  0  0  0  0  0  0
   17.4362   24.3674   27.5500 O   0  0  0  0  0  0  0  0  0  0  0  0
   18.1518   23.8867   27.1827 H   0  0  0  0  0  0  0  0  0  0  0  0
   21.2794   25.6045   28.3881 C   0  0  0  0  0  0  0  0  0  0  0  0
   22.3137   24.9317   27.5170 C   0  0  0  0  0  0  0  0  0  0  0  0
   23.3972   25.4801   27.3980 O   0  0  0  0  0  0  0  0  0  0  0  0
   22.0796   23.8590   26.9640 O   0  0  0  0  0  0  0  0  0  0  0  0
   23.5582   26.2976   27.8266 H   0  0  0  0  0  0  0  0  0  0  0  0
  5  1  1  0  0  0
  5  6  2  0  0  0
  5  7  1  0  0  0
  1  2  2  0  0  0
  1  3  1  0  0  0
  9 10  1  0  0  0
  9  3  1  0  0  0
 10 11  1  0  0  0
 10 12  2  0  0  0
  7  8  1  0  0  0
 11 13  1  0  0  0
  3  4  1  0  0  0
M  END
> <minimizedAffinity>
-5.76617

$$$$
1H2K_OGA_A_1351


 13 12  0  0  0  0  0  0  0  0999 V2000
   21.8881   25.0341   29.5867 C   0  0  0  0  0  0  0  0  0  0  0  0
   22.6597   25.8541   30.1197 O   0  0  0  0  0  0  0  0  0  0  0  0
   20.9192   24.4540   30.3006 N   0  0  0  0  0  0  0  0  0  0  0  0
   20.2422   23.9116   29.8352 H   0  0  0  0  0  0  0  0  0  0  0  0
   21.9704   24.6859   28.2742 C   0  0  0  0  0  0  0  0  0  0  0  0
   21.4018   23.6713   27.8607 O   0  0  0  0  0  0  0  0  0  0  0  0
   22.6092   25.3592   27.4679 O   0  0  0  0  0  0  0  0  0  0  0  0
   23.0517   26.1348   27.7518 H   0  0  0  0  0  0  0  0  0  0  0  0
   20.8350   24.6010   31.7537 C   0  0  0  0  0  0  0  0  0  0  0  0
   19.8277   25.6361   32.1952 C   0  0  0  0  0  0  0  0  0  0  0  0
   18.6600   25.4566   31.8898 O   0  0  0  0  0  0  0  0  0  0  0  0
   20.1688   26.6146   32.8567 O   0  0  0  0  0  0  0  0  0  0  0  0
   18.4180   24.7051   31.3851 H   0  0  0  0  0  0  0  0  0  0  0  0
  5  1  1  0  0  0
  5  6  2  0  0  0
  5  7  1  0  0  0
  1  2  2  0  0  0
  1  3  1  0  0  0
  9 10  1  0  0  0
  9  3  1  0  0  0
 10 11  1  0  0  0
 10 12  2  0  0  0
  7  8  1  0  0  0
 11 13  1  0  0  0
  3  4  1  0  0  0
M  END
> <minimizedAffinity>
-5.74009

$$$$
1H2K_OGA_A_1351


 13 12  0  0  0  0  0  0  0  0999 V2000
   20.2475   25.8034   30.9640 C   0  0  0  0  0  0  0  0  0  0  0  0
   21.2048   26.2005   30.2728 O   0  0  0  0  0  0  0  0  0  0  0  0
   19.0794   25.4998   30.3910 N   0  0  0  0  0  0  0  0  0  0  0  0
   18.3802   25.0663   30.9319 H   0  0  0  0  0  0  0  0  0  0  0  0
   20.3234   25.6482   32.3134 C   0  0  0  0  0  0  0  0  0  0  0  0
   20.5664   24.5409   32.8018 O   0  0  0  0  0  0  0  0  0  0  0  0
   20.1504   26.5927   33.0812 O   0  0  0  0  0  0  0  0  0  0  0  0
   19.9643   27.4455   32.7404 H   0  0  0  0  0  0  0  0  0  0  0  0
   18.8088   25.7927   28.9835 C   0  0  0  0  0  0  0  0  0  0  0  0
   17.4781   25.2625   28.5047 C   0  0  0  0  0  0  0  0  0  0  0  0
   17.4792   24.2224   27.8667 O   0  0  0  0  0  0  0  0  0  0  0  0
   16.4287   25.8471   28.7663 O   0  0  0  0  0  0  0  0  0  0  0  0
   18.2885   23.7903   27.6765 H   0  0  0  0  0  0  0  0  0  0  0  0
  5  1  1  0  0  0
  5  6  2  0  0  0
  5  7  1  0  0  0
  1  2  2  0  0  0
  1  3  1  0  0  0
  9 10  1  0  0  0
  9  3  1  0  0  0
 10 11  1  0  0  0
 10 12  2  0  0  0
  7  8  1  0  0  0
 11 13  1  0  0  0
  3  4  1  0  0  0
M  END
> <minimizedAffinity>
-5.45932

$$$$
1H2K_OGA_A_1351


 13 12  0  0  0  0  0  0  0  0999 V2000
   18.9787   25.1157   28.9743 C   0  0  0  0  0  0  0  0  0  0  0  0
   19.9868   24.5458   28.5154 O   0  0  0  0  0  0  0  0  0  0  0  0
   19.0599   25.8329   30.0986 N   0  0  0  0  0  0  0  0  0  0  0  0
   18.2887   26.3796   30.3734 H   0  0  0  0  0  0  0  0  0  0  0  0
   17.7584   25.0559   28.3761 C   0  0  0  0  0  0  0  0  0  0  0  0
   17.5541   24.2631   27.4522 O   0  0  0  0  0  0  0  0  0  0  0  0
   16.8318   25.7830   28.7286 O   0  0  0  0  0  0  0  0  0  0  0  0
   16.9561   26.3950   29.4271 H   0  0  0  0  0  0  0  0  0  0  0  0
   20.2614   25.8296   30.9333 C   0  0  0  0  0  0  0  0  0  0  0  0
   19.9829   25.5218   32.3855 C   0  0  0  0  0  0  0  0  0  0  0  0
   18.9947   26.0272   32.8922 O   0  0  0  0  0  0  0  0  0  0  0  0
   20.7146   24.7721   33.0288 O   0  0  0  0  0  0  0  0  0  0  0  0
   18.4482   26.5964   32.3869 H   0  0  0  0  0  0  0  0  0  0  0  0
  5  1  1  0  0  0
  5  6  2  0  0  0
  5  7  1  0  0  0
  1  2  2  0  0  0
  1  3  1  0  0  0
  9 10  1  0  0  0
  9  3  1  0  0  0
 10 11  1  0  0  0
 10 12  2  0  0  0
  7  8  1  0  0  0
 11 13  1  0  0  0
  3  4  1  0  0  0
M  END
> <minimizedAffinity>
-5.35840

$$$$
1H2K_OGA_A_1351


 13 12  0  0  0  0  0  0  0  0999 V2000
   18.8392   25.8140   29.1115 C   0  0  0  0  0  0  0  0  0  0  0  0
   19.4674   26.7823   28.6429 O   0  0  0  0  0  0  0  0  0  0  0  0
   19.2496   25.2217   30.2365 N   0  0  0  0  0  0  0  0  0  0  0  0
   18.6712   24.5468   30.6596 H   0  0  0  0  0  0  0  0  0  0  0  0
   17.7173   25.3091   28.5308 C   0  0  0  0  0  0  0  0  0  0  0  0
   16.6103   25.7907   28.7883 O   0  0  0  0  0  0  0  0  0  0  0  0
   17.7680   24.3659   27.7439 O   0  0  0  0  0  0  0  0  0  0  0  0
   18.5938   23.9791   27.5287 H   0  0  0  0  0  0  0  0  0  0  0  0
   20.5335   25.5467   30.8580 C   0  0  0  0  0  0  0  0  0  0  0  0
   20.4793   25.5785   32.3670 C   0  0  0  0  0  0  0  0  0  0  0  0
   20.7758   24.5577   32.9661 O   0  0  0  0  0  0  0  0  0  0  0  0
   20.1675   26.6028   32.9712 O   0  0  0  0  0  0  0  0  0  0  0  0
   21.0109   23.7861   32.4892 H   0  0  0  0  0  0  0  0  0  0  0  0
  5  1  1  0  0  0
  5  6  2  0  0  0
  5  7  1  0  0  0
  1  2  2  0  0  0
  1  3  1  0  0  0
  9 10  1  0  0  0
  9  3  1  0  0  0
 10 11  1  0  0  0
 10 12  2  0  0  0
  7  8  1  0  0  0
 11 13  1  0  0  0
  3  4  1  0  0  0
M  END
> <minimizedAffinity>
-5.27935

$$$$
1H2K_OGA_A_1351


 13 12  0  0  0  0  0  0  0  0999 V2000
   20.8112   25.6040   31.1566 C   0  0  0  0  0  0  0  0  0  0  0  0
   21.7018   26.4380   30.9056 O   0  0  0  0  0  0  0  0  0  0  0  0
   20.8051   24.4160   30.5454 N   0  0  0  0  0  0  0  0  0  0  0  0
   20.1738   23.7249   30.8504 H   0  0  0  0  0  0  0  0  0  0  0  0
   19.8130   25.8344   32.0517 C   0  0  0  0  0  0  0  0  0  0  0  0
   20.0360   26.4709   33.0855 O   0  0  0  0  0  0  0  0  0  0  0  0
   18.6714   25.4179   31.8647 O   0  0  0  0  0  0  0  0  0  0  0  0
   18.4713   24.9315   31.0893 H   0  0  0  0  0  0  0  0  0  0  0  0
   21.7090   24.1121   29.4360 C   0  0  0  0  0  0  0  0  0  0  0  0
   21.0538   24.2233   28.0797 C   0  0  0  0  0  0  0  0  0  0  0  0
   21.7379   23.9812   27.0987 O   0  0  0  0  0  0  0  0  0  0  0  0
   19.8677   24.5268   27.9688 O   0  0  0  0  0  0  0  0  0  0  0  0
   22.6404   23.7515   27.2019 H   0  0  0  0  0  0  0  0  0  0  0  0
  5  1  1  0  0  0
  5  6  2  0  0  0
  5  7  1  0  0  0
  1  2  2  0  0  0
  1  3  1  0  0  0
  9 10  1  0  0  0
  9  3  1  0  0  0
 10 11  1  0  0  0
 10 12  2  0  0  0
  7  8  1  0  0  0
 11 13  1  0  0  0
  3  4  1  0  0  0
M  END
> <minimizedAffinity>
-5.16734

$$$$
1H2K_OGA_A_1351


 13 12  0  0  0  0  0  0  0  0999 V2000
   18.8291   25.9061   29.1245 C   0  0  0  0  0  0  0  0  0  0  0  0
   19.4722   26.8015   28.5444 O   0  0  0  0  0  0  0  0  0  0  0  0
   19.2055   25.4772   30.3325 N   0  0  0  0  0  0  0  0  0  0  0  0
   18.6139   24.8660   30.8283 H   0  0  0  0  0  0  0  0  0  0  0  0
   17.7243   25.3221   28.5870 C   0  0  0  0  0  0  0  0  0  0  0  0
   17.8361   24.3583   27.8239 O   0  0  0  0  0  0  0  0  0  0  0  0
   16.5926   25.7324   28.8371 O   0  0  0  0  0  0  0  0  0  0  0  0
   16.4755   26.4624   29.4128 H   0  0  0  0  0  0  0  0  0  0  0  0
   20.4708   25.8892   30.9403 C   0  0  0  0  0  0  0  0  0  0  0  0
   21.6797   25.2402   30.3089 C   0  0  0  0  0  0  0  0  0  0  0  0
   22.6988   25.9056   30.2214 O   0  0  0  0  0  0  0  0  0  0  0  0
   21.6446   24.0759   29.9158 O   0  0  0  0  0  0  0  0  0  0  0  0
   22.7075   26.7916   30.5261 H   0  0  0  0  0  0  0  0  0  0  0  0
  5  1  1  0  0  0
  5  6  2  0  0  0
  5  7  1  0  0  0
  1  2  2  0  0  0
  1  3  1  0  0  0
  9 10  1  0  0  0
  9  3  1  0  0  0
 10 11  1  0  0  0
 10 12  2  0  0  0
  7  8  1  0  0  0
 11 13  1  0  0  0
  3  4  1  0  0  0
M  END
> <minimizedAffinity>
-5.10642

$$$$
1H2K_OGA_A_1351


 13 12  0  0  0  0  0  0  0  0999 V2000
   21.2491   24.6543   29.6154 C   0  0  0  0  0  0  0  0  0  0  0  0
   21.4355   23.6117   28.9596 O   0  0  0  0  0  0  0  0  0  0  0  0
   20.2083   25.4470   29.3446 N   0  0  0  0  0  0  0  0  0  0  0  0
   20.0042   26.1927   29.9541 H   0  0  0  0  0  0  0  0  0  0  0  0
   22.0655   25.0456   30.6308 C   0  0  0  0  0  0  0  0  0  0  0  0
   22.9139   25.9232   30.4470 O   0  0  0  0  0  0  0  0  0  0  0  0
   21.9892   24.5414   31.7495 O   0  0  0  0  0  0  0  0  0  0  0  0
   21.3552   23.8728   31.9199 H   0  0  0  0  0  0  0  0  0  0  0  0
   19.3630   25.2393   28.1688 C   0  0  0  0  0  0  0  0  0  0  0  0
   17.9108   24.9997   28.5078 C   0  0  0  0  0  0  0  0  0  0  0  0
   17.2189   24.4408   27.6725 O   0  0  0  0  0  0  0  0  0  0  0  0
   17.4471   25.3372   29.5952 O   0  0  0  0  0  0  0  0  0  0  0  0
   17.5891   24.1906   26.8489 H   0  0  0  0  0  0  0  0  0  0  0  0
  5  1  1  0  0  0
  5  6  2  0  0  0
  5  7  1  0  0  0
  1  2  2  0  0  0
  1  3  1  0  0  0
  9 10  1  0  0  0
  9  3  1  0  0  0
 10 11  1  0  0  0
 10 12  2  0  0  0
  7  8  1  0  0  0
 11 13  1  0  0  0
  3  4  1  0  0  0
M  END
> <minimizedAffinity>
-5.08865

$$$$
