3UU1_14B_A_404


 15 15  0  0  0  0  0  0  0  0999 V2000
    7.9897   -2.9342   29.6715 C   0  0  0  0  0  0  0  0  0  0  0  0
    6.1391   -7.3058   27.9920 C   0  0  0  0  0  0  0  0  0  0  0  0
    7.4380   -6.7293   25.5214 N   0  0  0  0  0  0  0  0  0  0  0  0
    7.1021   -5.1091   28.7400 C   0  0  0  0  0  0  0  0  0  0  0  0
    8.4535   -3.7038   27.3057 C   0  0  0  0  0  0  0  0  0  0  0  0
    7.8528   -3.9483   28.5392 C   0  0  0  0  0  0  0  0  0  0  0  0
    6.9632   -6.0438   27.7265 C   0  0  0  0  0  0  0  0  0  0  0  0
    7.5759   -5.8194   26.4894 C   0  0  0  0  0  0  0  0  0  0  0  0
    8.3169   -4.6477   26.2772 C   0  0  0  0  0  0  0  0  0  0  0  0
    6.9147   -7.5470   25.6854 H   0  0  0  0  0  0  0  0  0  0  0  0
    7.8595   -6.5823   24.6440 H   0  0  0  0  0  0  0  0  0  0  0  0
   10.2606   -4.0459   25.0273 O   0  0  0  0  0  0  0  0  0  0  0  0
    8.3920   -4.4488   23.8585 O   0  0  0  0  0  0  0  0  0  0  0  0
    9.0320   -4.3436   24.9401 C   0  0  0  0  0  0  0  0  0  0  0  0
   10.6695   -3.9859   25.8682 H   0  0  0  0  0  0  0  0  0  0  0  0
  1  6  1  0  0  0
  7  2  1  0  0  0
  8  3  1  0  0  0
 14 12  1  0  0  0
 13 14  2  0  0  0
  6  4  2  0  0  0
  4  7  1  0  0  0
  5  6  1  0  0  0
  5  9  2  0  0  0
 14  9  1  0  0  0
  8  7  2  0  0  0
  9  8  1  0  0  0
  3 10  1  0  0  0
  3 11  1  0  0  0
 12 15  1  0  0  0
M  END
> <minimizedAffinity>
-6.59838

$$$$
3UU1_14B_A_404


 15 15  0  0  0  0  0  0  0  0999 V2000
    6.0638   -7.9787   26.4883 C   0  0  0  0  0  0  0  0  0  0  0  0
    7.1498   -4.2294   29.6693 C   0  0  0  0  0  0  0  0  0  0  0  0
    8.6968   -3.0954   27.5612 N   0  0  0  0  0  0  0  0  0  0  0  0
    6.6666   -6.0568   28.0143 C   0  0  0  0  0  0  0  0  0  0  0  0
    7.5655   -6.0736   25.7671 C   0  0  0  0  0  0  0  0  0  0  0  0
    6.7814   -6.6593   26.7593 C   0  0  0  0  0  0  0  0  0  0  0  0
    7.3095   -4.8592   28.2836 C   0  0  0  0  0  0  0  0  0  0  0  0
    8.0850   -4.2515   27.2910 C   0  0  0  0  0  0  0  0  0  0  0  0
    8.2170   -4.8606   26.0346 C   0  0  0  0  0  0  0  0  0  0  0  0
    8.5946   -2.6799   28.4479 H   0  0  0  0  0  0  0  0  0  0  0  0
    9.2499   -2.6587   26.8737 H   0  0  0  0  0  0  0  0  0  0  0  0
   10.2677   -4.0207   25.1451 O   0  0  0  0  0  0  0  0  0  0  0  0
    8.4966   -4.0226   23.7729 O   0  0  0  0  0  0  0  0  0  0  0  0
    9.0460   -4.2364   24.8878 C   0  0  0  0  0  0  0  0  0  0  0  0
   10.6062   -4.2044   25.9993 H   0  0  0  0  0  0  0  0  0  0  0  0
  1  6  1  0  0  0
  7  2  1  0  0  0
  8  3  1  0  0  0
 14 12  1  0  0  0
 13 14  2  0  0  0
  6  4  2  0  0  0
  4  7  1  0  0  0
  5  6  1  0  0  0
  5  9  2  0  0  0
 14  9  1  0  0  0
  8  7  2  0  0  0
  9  8  1  0  0  0
  3 10  1  0  0  0
  3 11  1  0  0  0
 12 15  1  0  0  0
M  END
> <minimizedAffinity>
-6.44391

$$$$
3UU1_14B_A_404


 15 15  0  0  0  0  0  0  0  0999 V2000
    7.9775   -3.0027   29.4274 C   0  0  0  0  0  0  0  0  0  0  0  0
    9.3823   -4.4704   24.8199 C   0  0  0  0  0  0  0  0  0  0  0  0
    7.6156   -6.6818   25.1537 N   0  0  0  0  0  0  0  0  0  0  0  0
    8.6244   -3.8195   27.1251 C   0  0  0  0  0  0  0  0  0  0  0  0
    7.0298   -5.1149   28.4049 C   0  0  0  0  0  0  0  0  0  0  0  0
    7.8658   -4.0064   28.2831 C   0  0  0  0  0  0  0  0  0  0  0  0
    8.5400   -4.7179   26.0735 C   0  0  0  0  0  0  0  0  0  0  0  0
    7.6913   -5.8249   26.1754 C   0  0  0  0  0  0  0  0  0  0  0  0
    6.9400   -6.0262   27.3424 C   0  0  0  0  0  0  0  0  0  0  0  0
    8.1492   -6.5272   24.3410 H   0  0  0  0  0  0  0  0  0  0  0  0
    7.0262   -7.4681   25.2134 H   0  0  0  0  0  0  0  0  0  0  0  0
    4.7412   -6.9256   27.5852 O   0  0  0  0  0  0  0  0  0  0  0  0
    6.4333   -8.3932   27.5320 O   0  0  0  0  0  0  0  0  0  0  0  0
    5.9717   -7.2197   27.5158 C   0  0  0  0  0  0  0  0  0  0  0  0
    4.4723   -6.0282   27.5673 H   0  0  0  0  0  0  0  0  0  0  0  0
  1  6  1  0  0  0
  7  2  1  0  0  0
  8  3  1  0  0  0
 14 12  1  0  0  0
 13 14  2  0  0  0
  6  4  2  0  0  0
  4  7  1  0  0  0
  5  6  1  0  0  0
  5  9  2  0  0  0
 14  9  1  0  0  0
  8  7  2  0  0  0
  9  8  1  0  0  0
  3 10  1  0  0  0
  3 11  1  0  0  0
 12 15  1  0  0  0
M  END
> <minimizedAffinity>
-6.43045

$$$$
3UU1_14B_A_404


 15 15  0  0  0  0  0  0  0  0999 V2000
    9.2215   -4.8010   24.4613 C   0  0  0  0  0  0  0  0  0  0  0  0
    8.3178   -2.9209   29.0444 C   0  0  0  0  0  0  0  0  0  0  0  0
    6.5646   -5.1334   29.4374 N   0  0  0  0  0  0  0  0  0  0  0  0
    8.7033   -3.9316   26.7768 C   0  0  0  0  0  0  0  0  0  0  0  0
    7.6136   -5.9611   26.0340 C   0  0  0  0  0  0  0  0  0  0  0  0
    8.4958   -4.9080   25.7996 C   0  0  0  0  0  0  0  0  0  0  0  0
    8.0550   -4.0075   27.9991 C   0  0  0  0  0  0  0  0  0  0  0  0
    7.1807   -5.0689   28.2541 C   0  0  0  0  0  0  0  0  0  0  0  0
    6.9562   -6.0430   27.2703 C   0  0  0  0  0  0  0  0  0  0  0  0
    6.7324   -4.4421   30.1180 H   0  0  0  0  0  0  0  0  0  0  0  0
    5.9427   -5.8721   29.6289 H   0  0  0  0  0  0  0  0  0  0  0  0
    4.7850   -6.9735   27.6200 O   0  0  0  0  0  0  0  0  0  0  0  0
    6.4934   -8.4168   27.4850 O   0  0  0  0  0  0  0  0  0  0  0  0
    6.0148   -7.2500   27.4910 C   0  0  0  0  0  0  0  0  0  0  0  0
    4.5026   -6.0801   27.6150 H   0  0  0  0  0  0  0  0  0  0  0  0
  1  6  1  0  0  0
  7  2  1  0  0  0
  8  3  1  0  0  0
 14 12  1  0  0  0
 13 14  2  0  0  0
  6  4  2  0  0  0
  4  7  1  0  0  0
  5  6  1  0  0  0
  5  9  2  0  0  0
 14  9  1  0  0  0
  8  7  2  0  0  0
  9  8  1  0  0  0
  3 10  1  0  0  0
  3 11  1  0  0  0
 12 15  1  0  0  0
M  END
> <minimizedAffinity>
-5.85306

$$$$
3UU1_14B_A_404


 15 15  0  0  0  0  0  0  0  0999 V2000
    7.1552   -5.3377   29.1814 C   0  0  0  0  0  0  0  0  0  0  0  0
    5.7770   -8.0665   25.1801 C   0  0  0  0  0  0  0  0  0  0  0  0
    7.5317   -6.4236   23.6487 N   0  0  0  0  0  0  0  0  0  0  0  0
    6.5212   -6.6492   27.1165 C   0  0  0  0  0  0  0  0  0  0  0  0
    8.1011   -4.8296   26.8896 C   0  0  0  0  0  0  0  0  0  0  0  0
    7.2708   -5.6168   27.6854 C   0  0  0  0  0  0  0  0  0  0  0  0
    6.6093   -6.9207   25.7605 C   0  0  0  0  0  0  0  0  0  0  0  0
    7.4524   -6.1499   24.9536 C   0  0  0  0  0  0  0  0  0  0  0  0
    8.1946   -5.1016   25.5168 C   0  0  0  0  0  0  0  0  0  0  0  0
    7.0046   -7.1628   23.2679 H   0  0  0  0  0  0  0  0  0  0  0  0
    8.1173   -5.8862   23.0678 H   0  0  0  0  0  0  0  0  0  0  0  0
   10.2989   -4.0193   25.1960 O   0  0  0  0  0  0  0  0  0  0  0  0
    8.7875   -3.7965   23.5571 O   0  0  0  0  0  0  0  0  0  0  0  0
    9.1564   -4.2202   24.6862 C   0  0  0  0  0  0  0  0  0  0  0  0
   10.5018   -4.3664   26.0424 H   0  0  0  0  0  0  0  0  0  0  0  0
  1  6  1  0  0  0
  7  2  1  0  0  0
  8  3  1  0  0  0
 14 12  1  0  0  0
 13 14  2  0  0  0
  6  4  2  0  0  0
  4  7  1  0  0  0
  5  6  1  0  0  0
  5  9  2  0  0  0
 14  9  1  0  0  0
  8  7  2  0  0  0
  9  8  1  0  0  0
  3 10  1  0  0  0
  3 11  1  0  0  0
 12 15  1  0  0  0
M  END
> <minimizedAffinity>
-5.77671

$$$$
3UU1_14B_A_404


 15 15  0  0  0  0  0  0  0  0999 V2000
    9.4884   -4.1073   24.5658 C   0  0  0  0  0  0  0  0  0  0  0  0
    7.1869   -4.6823   29.0075 C   0  0  0  0  0  0  0  0  0  0  0  0
    6.0969   -7.0966   27.9559 N   0  0  0  0  0  0  0  0  0  0  0  0
    8.2909   -4.4788   26.7598 C   0  0  0  0  0  0  0  0  0  0  0  0
    7.9978   -6.1073   24.9934 C   0  0  0  0  0  0  0  0  0  0  0  0
    8.5709   -4.9286   25.4674 C   0  0  0  0  0  0  0  0  0  0  0  0
    7.4603   -5.2073   27.5962 C   0  0  0  0  0  0  0  0  0  0  0  0
    6.8929   -6.4012   27.1393 C   0  0  0  0  0  0  0  0  0  0  0  0
    7.1576   -6.8489   25.8368 C   0  0  0  0  0  0  0  0  0  0  0  0
    5.9205   -6.7696   28.8675 H   0  0  0  0  0  0  0  0  0  0  0  0
    5.6867   -7.9362   27.6461 H   0  0  0  0  0  0  0  0  0  0  0  0
    7.3419   -8.8244   24.5080 O   0  0  0  0  0  0  0  0  0  0  0  0
    5.4227   -8.5346   25.6271 O   0  0  0  0  0  0  0  0  0  0  0  0
    6.5757   -8.1663   25.2731 C   0  0  0  0  0  0  0  0  0  0  0  0
    8.1877   -8.4863   24.2882 H   0  0  0  0  0  0  0  0  0  0  0  0
  1  6  1  0  0  0
  7  2  1  0  0  0
  8  3  1  0  0  0
 14 12  1  0  0  0
 13 14  2  0  0  0
  6  4  2  0  0  0
  4  7  1  0  0  0
  5  6  1  0  0  0
  5  9  2  0  0  0
 14  9  1  0  0  0
  8  7  2  0  0  0
  9  8  1  0  0  0
  3 10  1  0  0  0
  3 11  1  0  0  0
 12 15  1  0  0  0
M  END
> <minimizedAffinity>
-5.57606

$$$$
3UU1_14B_A_404


 15 15  0  0  0  0  0  0  0  0999 V2000
    6.5785   -8.2607   24.4221 C   0  0  0  0  0  0  0  0  0  0  0  0
    9.3560   -4.0608   24.3744 C   0  0  0  0  0  0  0  0  0  0  0  0
    8.7051   -3.7833   27.1352 N   0  0  0  0  0  0  0  0  0  0  0  0
    7.9485   -6.1385   24.4937 C   0  0  0  0  0  0  0  0  0  0  0  0
    6.8404   -6.8673   26.5184 C   0  0  0  0  0  0  0  0  0  0  0  0
    7.1447   -7.0580   25.1718 C   0  0  0  0  0  0  0  0  0  0  0  0
    8.4733   -5.0387   25.1534 C   0  0  0  0  0  0  0  0  0  0  0  0
    8.1905   -4.8451   26.5093 C   0  0  0  0  0  0  0  0  0  0  0  0
    7.3705   -5.7563   27.1907 C   0  0  0  0  0  0  0  0  0  0  0  0
    9.2791   -3.1524   26.6435 H   0  0  0  0  0  0  0  0  0  0  0  0
    8.5105   -3.6316   28.0883 H   0  0  0  0  0  0  0  0  0  0  0  0
    6.4482   -4.5351   29.0239 O   0  0  0  0  0  0  0  0  0  0  0  0
    7.2955   -6.5582   29.4813 O   0  0  0  0  0  0  0  0  0  0  0  0
    7.0298   -5.6109   28.6923 C   0  0  0  0  0  0  0  0  0  0  0  0
    6.2839   -3.8739   28.3807 H   0  0  0  0  0  0  0  0  0  0  0  0
  1  6  1  0  0  0
  7  2  1  0  0  0
  8  3  1  0  0  0
 14 12  1  0  0  0
 13 14  2  0  0  0
  6  4  2  0  0  0
  4  7  1  0  0  0
  5  6  1  0  0  0
  5  9  2  0  0  0
 14  9  1  0  0  0
  8  7  2  0  0  0
  9  8  1  0  0  0
  3 10  1  0  0  0
  3 11  1  0  0  0
 12 15  1  0  0  0
M  END
> <minimizedAffinity>
-5.53719

$$$$
3UU1_14B_A_404


 15 15  0  0  0  0  0  0  0  0999 V2000
    8.7056   -4.0715   26.9096 C   0  0  0  0  0  0  0  0  0  0  0  0
    8.4627   -8.2178   24.0627 C   0  0  0  0  0  0  0  0  0  0  0  0
    9.0688   -6.5403   21.8397 N   0  0  0  0  0  0  0  0  0  0  0  0
    8.6012   -6.0959   25.4007 C   0  0  0  0  0  0  0  0  0  0  0  0
    9.0846   -3.9408   24.4108 C   0  0  0  0  0  0  0  0  0  0  0  0
    8.8088   -4.7208   25.5323 C   0  0  0  0  0  0  0  0  0  0  0  0
    8.6891   -6.7074   24.1604 C   0  0  0  0  0  0  0  0  0  0  0  0
    8.9830   -5.9390   23.0293 C   0  0  0  0  0  0  0  0  0  0  0  0
    9.1760   -4.5555   23.1534 C   0  0  0  0  0  0  0  0  0  0  0  0
    8.9308   -7.5124   21.7684 H   0  0  0  0  0  0  0  0  0  0  0  0
    9.2701   -6.0113   21.0342 H   0  0  0  0  0  0  0  0  0  0  0  0
   10.6643   -3.8224   21.4358 O   0  0  0  0  0  0  0  0  0  0  0  0
    8.6516   -2.8412   21.5158 O   0  0  0  0  0  0  0  0  0  0  0  0
    9.5182   -3.6494   21.9477 C   0  0  0  0  0  0  0  0  0  0  0  0
   11.2569   -4.4426   21.8128 H   0  0  0  0  0  0  0  0  0  0  0  0
  1  6  1  0  0  0
  7  2  1  0  0  0
  8  3  1  0  0  0
 14 12  1  0  0  0
 13 14  2  0  0  0
  6  4  2  0  0  0
  4  7  1  0  0  0
  5  6  1  0  0  0
  5  9  2  0  0  0
 14  9  1  0  0  0
  8  7  2  0  0  0
  9  8  1  0  0  0
  3 10  1  0  0  0
  3 11  1  0  0  0
 12 15  1  0  0  0
M  END
> <minimizedAffinity>
-5.38918

$$$$
3UU1_14B_A_404


 15 15  0  0  0  0  0  0  0  0999 V2000
    6.6430   -7.2422   23.1216 C   0  0  0  0  0  0  0  0  0  0  0  0
    5.4627   -8.0645   27.9473 C   0  0  0  0  0  0  0  0  0  0  0  0
    7.2270   -5.9186   28.5840 N   0  0  0  0  0  0  0  0  0  0  0  0
    6.1143   -7.5828   25.5691 C   0  0  0  0  0  0  0  0  0  0  0  0
    7.6782   -5.8400   24.9565 C   0  0  0  0  0  0  0  0  0  0  0  0
    6.8127   -6.8697   24.5918 C   0  0  0  0  0  0  0  0  0  0  0  0
    6.2529   -7.2629   26.9102 C   0  0  0  0  0  0  0  0  0  0  0  0
    7.1045   -6.2200   27.2886 C   0  0  0  0  0  0  0  0  0  0  0  0
    7.8207   -5.5117   26.3127 C   0  0  0  0  0  0  0  0  0  0  0  0
    6.7177   -6.4248   29.2575 H   0  0  0  0  0  0  0  0  0  0  0  0
    7.8266   -5.1901   28.8653 H   0  0  0  0  0  0  0  0  0  0  0  0
    9.8160   -4.2497   25.9544 O   0  0  0  0  0  0  0  0  0  0  0  0
    8.4382   -3.5260   27.5662 O   0  0  0  0  0  0  0  0  0  0  0  0
    8.7671   -4.3387   26.6596 C   0  0  0  0  0  0  0  0  0  0  0  0
    9.9947   -4.8932   25.2972 H   0  0  0  0  0  0  0  0  0  0  0  0
  1  6  1  0  0  0
  7  2  1  0  0  0
  8  3  1  0  0  0
 14 12  1  0  0  0
 13 14  2  0  0  0
  6  4  2  0  0  0
  4  7  1  0  0  0
  5  6  1  0  0  0
  5  9  2  0  0  0
 14  9  1  0  0  0
  8  7  2  0  0  0
  9  8  1  0  0  0
  3 10  1  0  0  0
  3 11  1  0  0  0
 12 15  1  0  0  0
M  END
> <minimizedAffinity>
-5.20000

$$$$
3UU1_14B_A_404


 15 15  0  0  0  0  0  0  0  0999 V2000
    7.2495   -8.6140   22.8702 C   0  0  0  0  0  0  0  0  0  0  0  0
    6.2886   -7.0646   27.5640 C   0  0  0  0  0  0  0  0  0  0  0  0
    7.8899   -4.7820   26.9734 N   0  0  0  0  0  0  0  0  0  0  0  0
    6.8256   -7.7574   25.2095 C   0  0  0  0  0  0  0  0  0  0  0  0
    8.2220   -6.4427   23.7330 C   0  0  0  0  0  0  0  0  0  0  0  0
    7.4329   -7.5677   23.9659 C   0  0  0  0  0  0  0  0  0  0  0  0
    6.9785   -6.8214   26.2197 C   0  0  0  0  0  0  0  0  0  0  0  0
    7.7530   -5.6790   25.9933 C   0  0  0  0  0  0  0  0  0  0  0  0
    8.3785   -5.4917   24.7521 C   0  0  0  0  0  0  0  0  0  0  0  0
    7.4446   -4.9273   27.8394 H   0  0  0  0  0  0  0  0  0  0  0  0
    8.4361   -3.9756   26.8299 H   0  0  0  0  0  0  0  0  0  0  0  0
   10.2080   -4.0277   25.2124 O   0  0  0  0  0  0  0  0  0  0  0  0
    8.9645   -3.5554   23.4094 O   0  0  0  0  0  0  0  0  0  0  0  0
    9.2358   -4.2456   24.4295 C   0  0  0  0  0  0  0  0  0  0  0  0
   10.3474   -4.5849   25.9526 H   0  0  0  0  0  0  0  0  0  0  0  0
  1  6  1  0  0  0
  7  2  1  0  0  0
  8  3  1  0  0  0
 14 12  1  0  0  0
 13 14  2  0  0  0
  6  4  2  0  0  0
  4  7  1  0  0  0
  5  6  1  0  0  0
  5  9  2  0  0  0
 14  9  1  0  0  0
  8  7  2  0  0  0
  9  8  1  0  0  0
  3 10  1  0  0  0
  3 11  1  0  0  0
 12 15  1  0  0  0
M  END
> <minimizedAffinity>
-5.11610

$$$$
