1K1J_FD2_A_999


 41 44  0  0  0  0  0  0  0  0999 V2000
   -3.9526    4.0656   22.2724 C   0  0  0  0  0  0  0  0  0  0  0  0
   -2.5949    4.4304   22.8463 C   0  0  0  0  0  0  0  0  0  0  0  0
   -2.5127    5.5847   23.2577 O   0  0  0  0  0  0  0  0  0  0  0  0
   -1.5412    3.5888   22.9291 N   0  0  0  0  0  0  0  0  0  0  0  0
   -1.6746    2.2449   22.3894 C   0  0  0  0  0  0  0  0  0  0  0  0
   -1.1444    1.2349   23.4340 C   0  0  0  0  0  0  0  0  0  0  0  0
    0.2847    3.0912   24.4663 C   0  0  0  0  0  0  0  0  0  0  0  0
   -0.2616    4.0859   23.4038 C   0  0  0  0  0  0  0  0  0  0  0  0
    0.2840    1.6282   23.9166 C   0  0  0  0  0  0  0  0  0  0  0  0
    0.7488    0.7456   24.9135 C   0  0  0  0  0  0  0  0  0  0  0  0
    0.3051   -0.3730   25.1543 O   0  0  0  0  0  0  0  0  0  0  0  0
    1.7862    1.2900   25.5754 O   0  0  0  0  0  0  0  0  0  0  0  0
    2.0969    0.6543   26.8354 C   0  0  0  0  0  0  0  0  0  0  0  0
   -4.9920    4.7951   23.0022 N   0  0  0  0  0  0  0  0  0  0  0  0
   -5.6338    5.1678   22.3026 H   0  0  0  0  0  0  0  0  0  0  0  0
   -5.9628    3.9876   24.1865 S   0  0  0  0  0  0  0  0  0  0  0  0
   -7.3383    4.3509   23.9659 O   0  0  0  0  0  0  0  0  0  0  0  0
   -5.5742    2.6228   24.2788 O   0  0  0  0  0  0  0  0  0  0  0  0
   -5.4325    4.8251   25.5966 C   0  0  0  0  0  0  0  0  0  0  0  0
   -6.3987    5.5143   26.3432 C   0  0  0  0  0  0  0  0  0  0  0  0
   -6.0336    6.2233   27.4983 C   0  0  0  0  0  0  0  0  0  0  0  0
   -3.6933    5.5423   27.1638 C   0  0  0  0  0  0  0  0  0  0  0  0
   -4.6710    6.2404   27.9193 C   0  0  0  0  0  0  0  0  0  0  0  0
   -4.0921    4.8239   25.9887 C   0  0  0  0  0  0  0  0  0  0  0  0
   -4.2669    6.9450   29.0927 C   0  0  0  0  0  0  0  0  0  0  0  0
   -2.9029    6.9559   29.5125 C   0  0  0  0  0  0  0  0  0  0  0  0
   -1.9371    6.2506   28.7434 C   0  0  0  0  0  0  0  0  0  0  0  0
   -2.3302    5.5506   27.5882 C   0  0  0  0  0  0  0  0  0  0  0  0
   -4.0719    4.3287   20.7384 C   0  0  0  0  0  0  0  0  0  0  0  0
   -3.2051    5.4977   20.2444 C   0  0  0  0  0  0  0  0  0  0  0  0
   -3.7253    6.8079   20.2104 C   0  0  0  0  0  0  0  0  0  0  0  0
   -1.8789    5.2731   19.8237 C   0  0  0  0  0  0  0  0  0  0  0  0
   -1.0819    6.3354   19.3754 C   0  0  0  0  0  0  0  0  0  0  0  0
   -1.6036    7.6417   19.3384 C   0  0  0  0  0  0  0  0  0  0  0  0
   -2.9306    7.8885   19.7593 C   0  0  0  0  0  0  0  0  0  0  0  0
   -3.4910    9.2972   19.7090 C   0  0  0  0  0  0  0  0  0  0  0  0
   -2.6813   10.2877   19.4333 N   0  0  0  0  0  0  0  0  0  0  0  0
   -4.7753    9.5085   19.9330 N   0  0  0  0  0  0  0  0  0  0  0  0
   -1.7266   10.1119   19.2690 H   0  0  0  0  0  0  0  0  0  0  0  0
   -3.0267   11.2086   19.3902 H   0  0  0  0  0  0  0  0  0  0  0  0
   -5.3701    8.7515   20.1390 H   0  0  0  0  0  0  0  0  0  0  0  0
 30 31  2  0  0  0
 30 32  1  0  0  0
 30 29  1  0  0  0
 31 35  1  0  0  0
 32 33  2  0  0  0
 33 34  1  0  0  0
 34 35  2  0  0  0
 35 36  1  0  0  0
 36 37  1  0  0  0
 36 38  2  0  0  0
 29  1  1  0  0  0
  1  2  1  0  0  0
  1 14  1  0  0  0
  2  3  2  0  0  0
  2  4  1  0  0  0
  4  5  1  0  0  0
  4  8  1  0  0  0
  5  6  1  0  0  0
  6  9  1  0  0  0
  7  8  1  0  0  0
  7  9  1  0  0  0
  9 10  1  0  0  0
 10 11  2  0  0  0
 10 12  1  0  0  0
 12 13  1  0  0  0
 14 16  1  0  0  0
 16 17  2  0  0  0
 16 18  2  0  0  0
 16 19  1  0  0  0
 19 20  2  0  0  0
 19 24  1  0  0  0
 20 21  1  0  0  0
 21 23  2  0  0  0
 22 23  1  0  0  0
 22 24  2  0  0  0
 22 28  1  0  0  0
 23 25  1  0  0  0
 25 26  2  0  0  0
 26 27  1  0  0  0
 27 28  2  0  0  0
 37 39  1  0  0  0
 37 40  1  0  0  0
 38 41  1  0  0  0
 14 15  1  0  0  0
M  END
> <minimizedAffinity>
-9.38216

$$$$
1K1J_FD2_A_999


 41 44  0  0  0  0  0  0  0  0999 V2000
   -3.0497    3.7687   21.8973 C   0  0  0  0  0  0  0  0  0  0  0  0
   -4.0876    3.6639   23.0007 C   0  0  0  0  0  0  0  0  0  0  0  0
   -5.0574    2.9652   22.7189 O   0  0  0  0  0  0  0  0  0  0  0  0
   -3.9912    4.2604   24.2093 N   0  0  0  0  0  0  0  0  0  0  0  0
   -2.8441    5.1124   24.4800 C   0  0  0  0  0  0  0  0  0  0  0  0
   -2.2559    4.7308   25.8587 C   0  0  0  0  0  0  0  0  0  0  0  0
   -4.5314    3.7736   26.5364 C   0  0  0  0  0  0  0  0  0  0  0  0
   -5.0990    4.1696   25.1444 C   0  0  0  0  0  0  0  0  0  0  0  0
   -3.3626    4.7228   26.9555 C   0  0  0  0  0  0  0  0  0  0  0  0
   -2.8445    4.3168   28.2027 C   0  0  0  0  0  0  0  0  0  0  0  0
   -3.3769    3.5401   28.9897 O   0  0  0  0  0  0  0  0  0  0  0  0
   -1.6458    4.8878   28.4210 O   0  0  0  0  0  0  0  0  0  0  0  0
   -1.6950    6.1259   29.1647 C   0  0  0  0  0  0  0  0  0  0  0  0
   -2.4698    2.4451   21.6590 N   0  0  0  0  0  0  0  0  0  0  0  0
   -2.7299    2.1785   20.7094 H   0  0  0  0  0  0  0  0  0  0  0  0
   -0.7615    2.1991   21.7934 S   0  0  0  0  0  0  0  0  0  0  0  0
   -0.4414    0.9257   21.2030 O   0  0  0  0  0  0  0  0  0  0  0  0
   -0.0724    3.3794   21.4007 O   0  0  0  0  0  0  0  0  0  0  0  0
   -0.6423    2.0147   23.5030 C   0  0  0  0  0  0  0  0  0  0  0  0
    0.4746    2.5748   24.1393 C   0  0  0  0  0  0  0  0  0  0  0  0
    0.6373    2.4548   25.5283 C   0  0  0  0  0  0  0  0  0  0  0  0
   -1.4724    1.1956   25.6559 C   0  0  0  0  0  0  0  0  0  0  0  0
   -0.3418    1.7619   26.3001 C   0  0  0  0  0  0  0  0  0  0  0  0
   -1.6166    1.3338   24.2360 C   0  0  0  0  0  0  0  0  0  0  0  0
   -0.2109    1.6279   27.7148 C   0  0  0  0  0  0  0  0  0  0  0  0
   -1.1952    0.9373   28.4836 C   0  0  0  0  0  0  0  0  0  0  0  0
   -2.3217    0.3766   27.8214 C   0  0  0  0  0  0  0  0  0  0  0  0
   -2.4583    0.5093   26.4275 C   0  0  0  0  0  0  0  0  0  0  0  0
   -3.6099    4.3695   20.5699 C   0  0  0  0  0  0  0  0  0  0  0  0
   -2.8669    5.6311   20.1026 C   0  0  0  0  0  0  0  0  0  0  0  0
   -3.5110    6.8854   20.1163 C   0  0  0  0  0  0  0  0  0  0  0  0
   -1.5318    5.5483   19.6591 C   0  0  0  0  0  0  0  0  0  0  0  0
   -0.8473    6.6956   19.2349 C   0  0  0  0  0  0  0  0  0  0  0  0
   -1.4925    7.9460   19.2456 C   0  0  0  0  0  0  0  0  0  0  0  0
   -2.8306    8.0508   19.6900 C   0  0  0  0  0  0  0  0  0  0  0  0
   -3.5244    9.3998   19.6911 C   0  0  0  0  0  0  0  0  0  0  0  0
   -2.8159   10.4726   19.4467 N   0  0  0  0  0  0  0  0  0  0  0  0
   -4.8214    9.4783   19.9275 N   0  0  0  0  0  0  0  0  0  0  0  0
   -1.8500   10.3955   19.2725 H   0  0  0  0  0  0  0  0  0  0  0  0
   -3.2487   11.3568   19.4371 H   0  0  0  0  0  0  0  0  0  0  0  0
   -5.3390    8.6609   20.1095 H   0  0  0  0  0  0  0  0  0  0  0  0
 30 31  2  0  0  0
 30 32  1  0  0  0
 30 29  1  0  0  0
 31 35  1  0  0  0
 32 33  2  0  0  0
 33 34  1  0  0  0
 34 35  2  0  0  0
 35 36  1  0  0  0
 36 37  1  0  0  0
 36 38  2  0  0  0
 29  1  1  0  0  0
  1  2  1  0  0  0
  1 14  1  0  0  0
  2  3  2  0  0  0
  2  4  1  0  0  0
  4  5  1  0  0  0
  4  8  1  0  0  0
  5  6  1  0  0  0
  6  9  1  0  0  0
  7  8  1  0  0  0
  7  9  1  0  0  0
  9 10  1  0  0  0
 10 11  2  0  0  0
 10 12  1  0  0  0
 12 13  1  0  0  0
 14 16  1  0  0  0
 16 17  2  0  0  0
 16 18  2  0  0  0
 16 19  1  0  0  0
 19 20  2  0  0  0
 19 24  1  0  0  0
 20 21  1  0  0  0
 21 23  2  0  0  0
 22 23  1  0  0  0
 22 24  2  0  0  0
 22 28  1  0  0  0
 23 25  1  0  0  0
 25 26  2  0  0  0
 26 27  1  0  0  0
 27 28  2  0  0  0
 37 39  1  0  0  0
 37 40  1  0  0  0
 38 41  1  0  0  0
 14 15  1  0  0  0
M  END
> <minimizedAffinity>
-9.37073

$$$$
1K1J_FD2_A_999


 41 44  0  0  0  0  0  0  0  0999 V2000
   -3.1838    4.2143   23.0642 C   0  0  0  0  0  0  0  0  0  0  0  0
   -4.1963    4.0662   24.1861 C   0  0  0  0  0  0  0  0  0  0  0  0
   -5.1738    3.3805   23.8987 O   0  0  0  0  0  0  0  0  0  0  0  0
   -4.0711    4.6133   25.4151 N   0  0  0  0  0  0  0  0  0  0  0  0
   -2.9164    5.4525   25.6936 C   0  0  0  0  0  0  0  0  0  0  0  0
   -2.2975    5.0150   27.0418 C   0  0  0  0  0  0  0  0  0  0  0  0
   -4.5588    4.0336   27.7326 C   0  0  0  0  0  0  0  0  0  0  0  0
   -5.1574    4.4861   26.3711 C   0  0  0  0  0  0  0  0  0  0  0  0
   -3.3788    4.9639   28.1626 C   0  0  0  0  0  0  0  0  0  0  0  0
   -2.8331    4.5074   29.3802 C   0  0  0  0  0  0  0  0  0  0  0  0
   -2.4030    5.2103   30.2896 O   0  0  0  0  0  0  0  0  0  0  0  0
   -2.8627    3.1631   29.4327 O   0  0  0  0  0  0  0  0  0  0  0  0
   -1.7013    2.5587   30.0445 C   0  0  0  0  0  0  0  0  0  0  0  0
   -2.3290    3.0256   23.0315 N   0  0  0  0  0  0  0  0  0  0  0  0
   -2.5246    2.5487   22.1513 H   0  0  0  0  0  0  0  0  0  0  0  0
   -0.6081    3.1797   23.1408 S   0  0  0  0  0  0  0  0  0  0  0  0
   -0.0207    2.4721   22.0331 O   0  0  0  0  0  0  0  0  0  0  0  0
   -0.2617    4.5326   23.4088 O   0  0  0  0  0  0  0  0  0  0  0  0
   -0.3350    2.2332   24.5551 C   0  0  0  0  0  0  0  0  0  0  0  0
   -1.4541    1.8663   25.3159 C   0  0  0  0  0  0  0  0  0  0  0  0
   -1.3020    1.1022   26.4835 C   0  0  0  0  0  0  0  0  0  0  0  0
    1.1321    1.0625   26.1275 C   0  0  0  0  0  0  0  0  0  0  0  0
   -0.0005    0.6916   26.8981 C   0  0  0  0  0  0  0  0  0  0  0  0
    0.9498    1.8417   24.9377 C   0  0  0  0  0  0  0  0  0  0  0  0
    0.1891   -0.0920   28.0756 C   0  0  0  0  0  0  0  0  0  0  0  0
    1.4929   -0.5041   28.4844 C   0  0  0  0  0  0  0  0  0  0  0  0
    2.6161   -0.1236   27.6999 C   0  0  0  0  0  0  0  0  0  0  0  0
    2.4349    0.6451   26.5356 C   0  0  0  0  0  0  0  0  0  0  0  0
   -3.8339    4.4614   21.6666 C   0  0  0  0  0  0  0  0  0  0  0  0
   -3.0837    5.4953   20.8121 C   0  0  0  0  0  0  0  0  0  0  0  0
   -3.5777    6.8098   20.6845 C   0  0  0  0  0  0  0  0  0  0  0  0
   -1.8909    5.1414   20.1500 C   0  0  0  0  0  0  0  0  0  0  0  0
   -1.2000    6.0805   19.3719 C   0  0  0  0  0  0  0  0  0  0  0  0
   -1.6962    7.3909   19.2424 C   0  0  0  0  0  0  0  0  0  0  0  0
   -2.8893    7.7667   19.9013 C   0  0  0  0  0  0  0  0  0  0  0  0
   -3.4247    9.1781   19.7511 C   0  0  0  0  0  0  0  0  0  0  0  0
   -4.7202    9.3593   19.7124 N   0  0  0  0  0  0  0  0  0  0  0  0
   -2.5905   10.1987   19.6697 N   0  0  0  0  0  0  0  0  0  0  0  0
   -5.3274    8.5869   19.7744 H   0  0  0  0  0  0  0  0  0  0  0  0
   -5.0876   10.2682   19.6212 H   0  0  0  0  0  0  0  0  0  0  0  0
   -1.6188   10.0439   19.7005 H   0  0  0  0  0  0  0  0  0  0  0  0
 30 31  2  0  0  0
 30 32  1  0  0  0
 30 29  1  0  0  0
 31 35  1  0  0  0
 32 33  2  0  0  0
 33 34  1  0  0  0
 34 35  2  0  0  0
 35 36  1  0  0  0
 36 37  1  0  0  0
 36 38  2  0  0  0
 29  1  1  0  0  0
  1  2  1  0  0  0
  1 14  1  0  0  0
  2  3  2  0  0  0
  2  4  1  0  0  0
  4  5  1  0  0  0
  4  8  1  0  0  0
  5  6  1  0  0  0
  6  9  1  0  0  0
  7  8  1  0  0  0
  7  9  1  0  0  0
  9 10  1  0  0  0
 10 11  2  0  0  0
 10 12  1  0  0  0
 12 13  1  0  0  0
 14 16  1  0  0  0
 16 17  2  0  0  0
 16 18  2  0  0  0
 16 19  1  0  0  0
 19 20  2  0  0  0
 19 24  1  0  0  0
 20 21  1  0  0  0
 21 23  2  0  0  0
 22 23  1  0  0  0
 22 24  2  0  0  0
 22 28  1  0  0  0
 23 25  1  0  0  0
 25 26  2  0  0  0
 26 27  1  0  0  0
 27 28  2  0  0  0
 37 39  1  0  0  0
 37 40  1  0  0  0
 38 41  1  0  0  0
 14 15  1  0  0  0
M  END
> <minimizedAffinity>
-8.81836

$$$$
1K1J_FD2_A_999


 41 44  0  0  0  0  0  0  0  0999 V2000
   -3.0047    3.7874   21.8846 C   0  0  0  0  0  0  0  0  0  0  0  0
   -4.0179    3.7250   23.0140 C   0  0  0  0  0  0  0  0  0  0  0  0
   -5.1140    3.2781   22.6868 O   0  0  0  0  0  0  0  0  0  0  0  0
   -3.7774    4.1063   24.2877 N   0  0  0  0  0  0  0  0  0  0  0  0
   -2.4773    4.6691   24.6164 C   0  0  0  0  0  0  0  0  0  0  0  0
   -1.9470    3.9810   25.8961 C   0  0  0  0  0  0  0  0  0  0  0  0
   -4.3525    3.3961   26.5481 C   0  0  0  0  0  0  0  0  0  0  0  0
   -4.8600    4.0961   25.2562 C   0  0  0  0  0  0  0  0  0  0  0  0
   -3.0084    4.0269   27.0360 C   0  0  0  0  0  0  0  0  0  0  0  0
   -2.5545    3.3483   28.1859 C   0  0  0  0  0  0  0  0  0  0  0  0
   -3.0618    2.3478   28.6836 O   0  0  0  0  0  0  0  0  0  0  0  0
   -1.4484    3.9394   28.6734 O   0  0  0  0  0  0  0  0  0  0  0  0
   -0.4180    3.0239   29.1075 C   0  0  0  0  0  0  0  0  0  0  0  0
   -2.4716    2.4443   21.6459 N   0  0  0  0  0  0  0  0  0  0  0  0
   -2.4061    2.3311   20.6343 H   0  0  0  0  0  0  0  0  0  0  0  0
   -0.9358    1.9819   22.2976 S   0  0  0  0  0  0  0  0  0  0  0  0
   -0.0762    3.1368   22.2894 O   0  0  0  0  0  0  0  0  0  0  0  0
   -1.1252    1.2217   23.4843 O   0  0  0  0  0  0  0  0  0  0  0  0
   -0.4022    0.9381   21.0341 C   0  0  0  0  0  0  0  0  0  0  0  0
   -1.1002    0.9816   19.8188 C   0  0  0  0  0  0  0  0  0  0  0  0
   -0.7229    0.1525   18.7509 C   0  0  0  0  0  0  0  0  0  0  0  0
    1.0878   -0.7818   20.1299 C   0  0  0  0  0  0  0  0  0  0  0  0
    0.3811   -0.7383   18.9000 C   0  0  0  0  0  0  0  0  0  0  0  0
    0.6838    0.0768   21.2049 C   0  0  0  0  0  0  0  0  0  0  0  0
    0.7957   -1.5894   17.8322 C   0  0  0  0  0  0  0  0  0  0  0  0
    1.9034   -2.4762   17.9845 C   0  0  0  0  0  0  0  0  0  0  0  0
    2.6001   -2.5060   19.2237 C   0  0  0  0  0  0  0  0  0  0  0  0
    2.1986   -1.6661   20.2785 C   0  0  0  0  0  0  0  0  0  0  0  0
   -3.5787    4.3924   20.5651 C   0  0  0  0  0  0  0  0  0  0  0  0
   -2.8380    5.6532   20.0921 C   0  0  0  0  0  0  0  0  0  0  0  0
   -3.4700    6.9128   20.1394 C   0  0  0  0  0  0  0  0  0  0  0  0
   -1.5168    5.5643   19.6095 C   0  0  0  0  0  0  0  0  0  0  0  0
   -0.8344    6.7108   19.1798 C   0  0  0  0  0  0  0  0  0  0  0  0
   -1.4677    7.9665   19.2240 C   0  0  0  0  0  0  0  0  0  0  0  0
   -2.7916    8.0775   19.7078 C   0  0  0  0  0  0  0  0  0  0  0  0
   -3.4729    9.4323   19.7450 C   0  0  0  0  0  0  0  0  0  0  0  0
   -2.7455   10.5077   19.5804 N   0  0  0  0  0  0  0  0  0  0  0  0
   -4.7777    9.5136   19.9327 N   0  0  0  0  0  0  0  0  0  0  0  0
   -1.7741   10.4284   19.4417 H   0  0  0  0  0  0  0  0  0  0  0  0
   -3.1698   11.3960   19.5954 H   0  0  0  0  0  0  0  0  0  0  0  0
   -5.3094    8.6941   20.0548 H   0  0  0  0  0  0  0  0  0  0  0  0
 30 31  2  0  0  0
 30 32  1  0  0  0
 30 29  1  0  0  0
 31 35  1  0  0  0
 32 33  2  0  0  0
 33 34  1  0  0  0
 34 35  2  0  0  0
 35 36  1  0  0  0
 36 37  1  0  0  0
 36 38  2  0  0  0
 29  1  1  0  0  0
  1  2  1  0  0  0
  1 14  1  0  0  0
  2  3  2  0  0  0
  2  4  1  0  0  0
  4  5  1  0  0  0
  4  8  1  0  0  0
  5  6  1  0  0  0
  6  9  1  0  0  0
  7  8  1  0  0  0
  7  9  1  0  0  0
  9 10  1  0  0  0
 10 11  2  0  0  0
 10 12  1  0  0  0
 12 13  1  0  0  0
 14 16  1  0  0  0
 16 17  2  0  0  0
 16 18  2  0  0  0
 16 19  1  0  0  0
 19 20  2  0  0  0
 19 24  1  0  0  0
 20 21  1  0  0  0
 21 23  2  0  0  0
 22 23  1  0  0  0
 22 24  2  0  0  0
 22 28  1  0  0  0
 23 25  1  0  0  0
 25 26  2  0  0  0
 26 27  1  0  0  0
 27 28  2  0  0  0
 37 39  1  0  0  0
 37 40  1  0  0  0
 38 41  1  0  0  0
 14 15  1  0  0  0
M  END
> <minimizedAffinity>
-8.76613

$$$$
1K1J_FD2_A_999


 41 44  0  0  0  0  0  0  0  0999 V2000
   -1.9560    1.8696   22.0570 C   0  0  0  0  0  0  0  0  0  0  0  0
   -3.1072    2.8372   21.8465 C   0  0  0  0  0  0  0  0  0  0  0  0
   -4.0679    2.6503   22.5884 O   0  0  0  0  0  0  0  0  0  0  0  0
   -3.1157    3.8405   20.9415 N   0  0  0  0  0  0  0  0  0  0  0  0
   -1.9720    3.9947   20.0565 C   0  0  0  0  0  0  0  0  0  0  0  0
   -1.5466    5.4818   20.0487 C   0  0  0  0  0  0  0  0  0  0  0  0
   -3.9153    6.1370   20.7655 C   0  0  0  0  0  0  0  0  0  0  0  0
   -4.3182    4.6356   20.7632 C   0  0  0  0  0  0  0  0  0  0  0  0
   -2.7618    6.4090   19.7465 C   0  0  0  0  0  0  0  0  0  0  0  0
   -2.3932    7.7693   19.7977 C   0  0  0  0  0  0  0  0  0  0  0  0
   -1.2542    8.2150   19.6980 O   0  0  0  0  0  0  0  0  0  0  0  0
   -3.4819    8.5447   19.9529 O   0  0  0  0  0  0  0  0  0  0  0  0
   -3.2450    9.9586   19.7710 C   0  0  0  0  0  0  0  0  0  0  0  0
   -1.8281    1.5826   23.4874 N   0  0  0  0  0  0  0  0  0  0  0  0
   -1.8524    0.5676   23.5855 H   0  0  0  0  0  0  0  0  0  0  0  0
   -0.4459    2.1339   24.3722 S   0  0  0  0  0  0  0  0  0  0  0  0
    0.0610    1.0327   25.1488 O   0  0  0  0  0  0  0  0  0  0  0  0
    0.4105    2.8769   23.5140 O   0  0  0  0  0  0  0  0  0  0  0  0
   -1.2292    3.2126   25.4648 C   0  0  0  0  0  0  0  0  0  0  0  0
   -1.9617    4.2740   24.9146 C   0  0  0  0  0  0  0  0  0  0  0  0
   -2.6179    5.1936   25.7477 C   0  0  0  0  0  0  0  0  0  0  0  0
   -1.8023    3.9715   27.7211 C   0  0  0  0  0  0  0  0  0  0  0  0
   -2.5433    5.0462   27.1644 C   0  0  0  0  0  0  0  0  0  0  0  0
   -1.1427    3.0444   26.8485 C   0  0  0  0  0  0  0  0  0  0  0  0
   -3.2045    5.9588   28.0400 C   0  0  0  0  0  0  0  0  0  0  0  0
   -3.1306    5.8051   29.4569 C   0  0  0  0  0  0  0  0  0  0  0  0
   -2.3839    4.7222   29.9969 C   0  0  0  0  0  0  0  0  0  0  0  0
   -1.7336    3.8168   29.1386 C   0  0  0  0  0  0  0  0  0  0  0  0
   -2.0978    0.5457   21.2422 C   0  0  0  0  0  0  0  0  0  0  0  0
   -1.0056    0.3573   20.1776 C   0  0  0  0  0  0  0  0  0  0  0  0
   -1.3194   -0.2087   18.9248 C   0  0  0  0  0  0  0  0  0  0  0  0
    0.3214    0.7525   20.4408 C   0  0  0  0  0  0  0  0  0  0  0  0
    1.3217    0.5867   19.4729 C   0  0  0  0  0  0  0  0  0  0  0  0
    1.0077    0.0182   18.2246 C   0  0  0  0  0  0  0  0  0  0  0  0
   -0.3181   -0.3817   17.9397 C   0  0  0  0  0  0  0  0  0  0  0  0
   -0.6494   -1.0023   16.5957 C   0  0  0  0  0  0  0  0  0  0  0  0
   -1.9036   -1.2293   16.2989 N   0  0  0  0  0  0  0  0  0  0  0  0
    0.3169   -1.2970   15.7451 N   0  0  0  0  0  0  0  0  0  0  0  0
   -2.6111   -1.0034   16.9452 H   0  0  0  0  0  0  0  0  0  0  0  0
   -2.1396   -1.6261   15.4294 H   0  0  0  0  0  0  0  0  0  0  0  0
    1.2550   -1.1193   15.9849 H   0  0  0  0  0  0  0  0  0  0  0  0
 30 31  2  0  0  0
 30 32  1  0  0  0
 30 29  1  0  0  0
 31 35  1  0  0  0
 32 33  2  0  0  0
 33 34  1  0  0  0
 34 35  2  0  0  0
 35 36  1  0  0  0
 36 37  1  0  0  0
 36 38  2  0  0  0
 29  1  1  0  0  0
  1  2  1  0  0  0
  1 14  1  0  0  0
  2  3  2  0  0  0
  2  4  1  0  0  0
  4  5  1  0  0  0
  4  8  1  0  0  0
  5  6  1  0  0  0
  6  9  1  0  0  0
  7  8  1  0  0  0
  7  9  1  0  0  0
  9 10  1  0  0  0
 10 11  2  0  0  0
 10 12  1  0  0  0
 12 13  1  0  0  0
 14 16  1  0  0  0
 16 17  2  0  0  0
 16 18  2  0  0  0
 16 19  1  0  0  0
 19 20  2  0  0  0
 19 24  1  0  0  0
 20 21  1  0  0  0
 21 23  2  0  0  0
 22 23  1  0  0  0
 22 24  2  0  0  0
 22 28  1  0  0  0
 23 25  1  0  0  0
 25 26  2  0  0  0
 26 27  1  0  0  0
 27 28  2  0  0  0
 37 39  1  0  0  0
 37 40  1  0  0  0
 38 41  1  0  0  0
 14 15  1  0  0  0
M  END
> <minimizedAffinity>
-8.66784

$$$$
1K1J_FD2_A_999


 41 44  0  0  0  0  0  0  0  0999 V2000
   -0.9466    3.1205   22.2095 C   0  0  0  0  0  0  0  0  0  0  0  0
   -2.2359    3.8041   21.7897 C   0  0  0  0  0  0  0  0  0  0  0  0
   -3.2303    3.4325   22.4071 O   0  0  0  0  0  0  0  0  0  0  0  0
   -2.3293    4.7533   20.8326 N   0  0  0  0  0  0  0  0  0  0  0  0
   -1.1305    5.1290   20.0999 C   0  0  0  0  0  0  0  0  0  0  0  0
   -1.0363    6.6723   20.0589 C   0  0  0  0  0  0  0  0  0  0  0  0
   -3.5679    6.8110   20.4134 C   0  0  0  0  0  0  0  0  0  0  0  0
   -3.6358    5.2584   20.4483 C   0  0  0  0  0  0  0  0  0  0  0  0
   -2.3657    7.2997   19.5423 C   0  0  0  0  0  0  0  0  0  0  0  0
   -2.3078    8.7086   19.5598 C   0  0  0  0  0  0  0  0  0  0  0  0
   -3.2538    9.4701   19.7364 O   0  0  0  0  0  0  0  0  0  0  0  0
   -1.0428    9.1284   19.3744 O   0  0  0  0  0  0  0  0  0  0  0  0
   -0.7989   10.4974   19.7677 C   0  0  0  0  0  0  0  0  0  0  0  0
   -0.0906    2.9503   21.0333 N   0  0  0  0  0  0  0  0  0  0  0  0
    0.8557    2.7942   21.3804 H   0  0  0  0  0  0  0  0  0  0  0  0
   -0.4134    1.6925   19.8884 S   0  0  0  0  0  0  0  0  0  0  0  0
   -1.7784    1.2674   20.0584 O   0  0  0  0  0  0  0  0  0  0  0  0
    0.0801    2.0677   18.6087 O   0  0  0  0  0  0  0  0  0  0  0  0
    0.5928    0.4565   20.5446 C   0  0  0  0  0  0  0  0  0  0  0  0
    0.2903   -0.0108   21.8315 C   0  0  0  0  0  0  0  0  0  0  0  0
    1.0737   -1.0109   22.4283 C   0  0  0  0  0  0  0  0  0  0  0  0
    2.4891   -1.0873   20.4174 C   0  0  0  0  0  0  0  0  0  0  0  0
    2.1834   -1.5600   21.7202 C   0  0  0  0  0  0  0  0  0  0  0  0
    1.6721   -0.0663   19.8290 C   0  0  0  0  0  0  0  0  0  0  0  0
    2.9960   -2.5829   22.2945 C   0  0  0  0  0  0  0  0  0  0  0  0
    4.1029   -3.1323   21.5806 C   0  0  0  0  0  0  0  0  0  0  0  0
    4.3941   -2.6468   20.2762 C   0  0  0  0  0  0  0  0  0  0  0  0
    3.5939   -1.6416   19.7031 C   0  0  0  0  0  0  0  0  0  0  0  0
   -0.1808    3.8753   23.3410 C   0  0  0  0  0  0  0  0  0  0  0  0
   -0.0993    3.0903   24.6597 C   0  0  0  0  0  0  0  0  0  0  0  0
    1.0174    2.2755   24.9380 C   0  0  0  0  0  0  0  0  0  0  0  0
   -1.1387    3.1797   25.6073 C   0  0  0  0  0  0  0  0  0  0  0  0
   -1.0690    2.4691   26.8135 C   0  0  0  0  0  0  0  0  0  0  0  0
    0.0443    1.6535   27.0882 C   0  0  0  0  0  0  0  0  0  0  0  0
    1.0990    1.5529   26.1521 C   0  0  0  0  0  0  0  0  0  0  0  0
    2.2927    0.6652   26.4492 C   0  0  0  0  0  0  0  0  0  0  0  0
    2.8858    0.7753   27.6105 N   0  0  0  0  0  0  0  0  0  0  0  0
    2.7127   -0.2049   25.5487 N   0  0  0  0  0  0  0  0  0  0  0  0
    2.5593    1.4293   28.2700 H   0  0  0  0  0  0  0  0  0  0  0  0
    3.6586    0.2041   27.8247 H   0  0  0  0  0  0  0  0  0  0  0  0
    2.2545   -0.2742   24.6801 H   0  0  0  0  0  0  0  0  0  0  0  0
 30 31  2  0  0  0
 30 32  1  0  0  0
 30 29  1  0  0  0
 31 35  1  0  0  0
 32 33  2  0  0  0
 33 34  1  0  0  0
 34 35  2  0  0  0
 35 36  1  0  0  0
 36 37  1  0  0  0
 36 38  2  0  0  0
 29  1  1  0  0  0
  1  2  1  0  0  0
  1 14  1  0  0  0
  2  3  2  0  0  0
  2  4  1  0  0  0
  4  5  1  0  0  0
  4  8  1  0  0  0
  5  6  1  0  0  0
  6  9  1  0  0  0
  7  8  1  0  0  0
  7  9  1  0  0  0
  9 10  1  0  0  0
 10 11  2  0  0  0
 10 12  1  0  0  0
 12 13  1  0  0  0
 14 16  1  0  0  0
 16 17  2  0  0  0
 16 18  2  0  0  0
 16 19  1  0  0  0
 19 20  2  0  0  0
 19 24  1  0  0  0
 20 21  1  0  0  0
 21 23  2  0  0  0
 22 23  1  0  0  0
 22 24  2  0  0  0
 22 28  1  0  0  0
 23 25  1  0  0  0
 25 26  2  0  0  0
 26 27  1  0  0  0
 27 28  2  0  0  0
 37 39  1  0  0  0
 37 40  1  0  0  0
 38 41  1  0  0  0
 14 15  1  0  0  0
M  END
> <minimizedAffinity>
-8.53504

$$$$
1K1J_FD2_A_999


 41 44  0  0  0  0  0  0  0  0999 V2000
   -0.9195    3.4049   22.3685 C   0  0  0  0  0  0  0  0  0  0  0  0
   -1.9730    4.3775   21.8687 C   0  0  0  0  0  0  0  0  0  0  0  0
   -1.5208    5.3530   21.2752 O   0  0  0  0  0  0  0  0  0  0  0  0
   -3.3055    4.2206   22.0289 N   0  0  0  0  0  0  0  0  0  0  0  0
   -3.7901    3.0708   22.7759 C   0  0  0  0  0  0  0  0  0  0  0  0
   -4.9300    2.4010   21.9732 C   0  0  0  0  0  0  0  0  0  0  0  0
   -5.3574    4.6226   20.7750 C   0  0  0  0  0  0  0  0  0  0  0  0
   -4.2088    5.2727   21.5965 C   0  0  0  0  0  0  0  0  0  0  0  0
   -6.0132    3.4439   21.5646 C   0  0  0  0  0  0  0  0  0  0  0  0
   -7.0247    2.8513   20.7807 C   0  0  0  0  0  0  0  0  0  0  0  0
   -7.3199    1.6603   20.7595 O   0  0  0  0  0  0  0  0  0  0  0  0
   -7.6610    3.7860   20.0513 O   0  0  0  0  0  0  0  0  0  0  0  0
   -8.5415    3.2593   19.0337 C   0  0  0  0  0  0  0  0  0  0  0  0
   -0.0411    3.0379   21.2556 N   0  0  0  0  0  0  0  0  0  0  0  0
    0.9153    3.1026   21.6041 H   0  0  0  0  0  0  0  0  0  0  0  0
   -0.1889    1.4894   20.4957 S   0  0  0  0  0  0  0  0  0  0  0  0
   -1.4543    1.4421   19.8106 O   0  0  0  0  0  0  0  0  0  0  0  0
    1.0197    1.1674   19.8192 O   0  0  0  0  0  0  0  0  0  0  0  0
   -0.3318    0.5036   21.9023 C   0  0  0  0  0  0  0  0  0  0  0  0
    0.8019   -0.2145   22.3087 C   0  0  0  0  0  0  0  0  0  0  0  0
    0.7523   -1.0422   23.4413 C   0  0  0  0  0  0  0  0  0  0  0  0
   -1.6054   -0.4242   23.7765 C   0  0  0  0  0  0  0  0  0  0  0  0
   -0.4582   -1.1515   24.1877 C   0  0  0  0  0  0  0  0  0  0  0  0
   -1.5283    0.4161   22.6172 C   0  0  0  0  0  0  0  0  0  0  0  0
   -0.5410   -1.9780   25.3481 C   0  0  0  0  0  0  0  0  0  0  0  0
   -1.7532   -2.0811   26.0943 C   0  0  0  0  0  0  0  0  0  0  0  0
   -2.8925   -1.3448   25.6678 C   0  0  0  0  0  0  0  0  0  0  0  0
   -2.8156   -0.5249   24.5272 C   0  0  0  0  0  0  0  0  0  0  0  0
   -0.0849    3.9527   23.5686 C   0  0  0  0  0  0  0  0  0  0  0  0
   -0.0694    3.0160   24.7869 C   0  0  0  0  0  0  0  0  0  0  0  0
    1.0997    2.3041   25.1256 C   0  0  0  0  0  0  0  0  0  0  0  0
   -1.2231    2.8618   25.5816 C   0  0  0  0  0  0  0  0  0  0  0  0
   -1.2146    2.0118   26.6962 C   0  0  0  0  0  0  0  0  0  0  0  0
   -0.0484    1.2991   27.0307 C   0  0  0  0  0  0  0  0  0  0  0  0
    1.1205    1.4425   26.2482 C   0  0  0  0  0  0  0  0  0  0  0  0
    2.3724    0.6650   26.6078 C   0  0  0  0  0  0  0  0  0  0  0  0
    2.8621    0.7836   27.8156 N   0  0  0  0  0  0  0  0  0  0  0  0
    2.9452   -0.1202   25.7137 N   0  0  0  0  0  0  0  0  0  0  0  0
    2.4220    1.3736   28.4695 H   0  0  0  0  0  0  0  0  0  0  0  0
    3.6705    0.2828   28.0704 H   0  0  0  0  0  0  0  0  0  0  0  0
    2.5632   -0.1974   24.8097 H   0  0  0  0  0  0  0  0  0  0  0  0
 30 31  2  0  0  0
 30 32  1  0  0  0
 30 29  1  0  0  0
 31 35  1  0  0  0
 32 33  2  0  0  0
 33 34  1  0  0  0
 34 35  2  0  0  0
 35 36  1  0  0  0
 36 37  1  0  0  0
 36 38  2  0  0  0
 29  1  1  0  0  0
  1  2  1  0  0  0
  1 14  1  0  0  0
  2  3  2  0  0  0
  2  4  1  0  0  0
  4  5  1  0  0  0
  4  8  1  0  0  0
  5  6  1  0  0  0
  6  9  1  0  0  0
  7  8  1  0  0  0
  7  9  1  0  0  0
  9 10  1  0  0  0
 10 11  2  0  0  0
 10 12  1  0  0  0
 12 13  1  0  0  0
 14 16  1  0  0  0
 16 17  2  0  0  0
 16 18  2  0  0  0
 16 19  1  0  0  0
 19 20  2  0  0  0
 19 24  1  0  0  0
 20 21  1  0  0  0
 21 23  2  0  0  0
 22 23  1  0  0  0
 22 24  2  0  0  0
 22 28  1  0  0  0
 23 25  1  0  0  0
 25 26  2  0  0  0
 26 27  1  0  0  0
 27 28  2  0  0  0
 37 39  1  0  0  0
 37 40  1  0  0  0
 38 41  1  0  0  0
 14 15  1  0  0  0
M  END
> <minimizedAffinity>
-8.36219

$$$$
1K1J_FD2_A_999


 41 44  0  0  0  0  0  0  0  0999 V2000
   -2.6568    1.8872   24.7535 C   0  0  0  0  0  0  0  0  0  0  0  0
   -2.8452    0.8387   23.6713 C   0  0  0  0  0  0  0  0  0  0  0  0
   -3.9259    0.2569   23.7126 O   0  0  0  0  0  0  0  0  0  0  0  0
   -1.9356    0.5436   22.7167 N   0  0  0  0  0  0  0  0  0  0  0  0
   -0.6534    1.2297   22.7355 C   0  0  0  0  0  0  0  0  0  0  0  0
   -0.3415    1.7393   21.3088 C   0  0  0  0  0  0  0  0  0  0  0  0
   -1.8945   -0.0583   20.3545 C   0  0  0  0  0  0  0  0  0  0  0  0
   -2.1894   -0.5528   21.7984 C   0  0  0  0  0  0  0  0  0  0  0  0
   -0.4759    0.5914   20.2637 C   0  0  0  0  0  0  0  0  0  0  0  0
   -0.2520    1.0630   18.9536 C   0  0  0  0  0  0  0  0  0  0  0  0
    0.3155    2.1070   18.6470 O   0  0  0  0  0  0  0  0  0  0  0  0
   -0.7339    0.1885   18.0516 O   0  0  0  0  0  0  0  0  0  0  0  0
    0.2756   -0.5746   17.3537 C   0  0  0  0  0  0  0  0  0  0  0  0
   -3.2836    3.1383   24.3213 N   0  0  0  0  0  0  0  0  0  0  0  0
   -4.0924    3.2843   24.9255 H   0  0  0  0  0  0  0  0  0  0  0  0
   -2.3847    4.6178   24.3291 S   0  0  0  0  0  0  0  0  0  0  0  0
   -0.9846    4.2944   24.4187 O   0  0  0  0  0  0  0  0  0  0  0  0
   -2.8701    5.4819   23.3094 O   0  0  0  0  0  0  0  0  0  0  0  0
   -2.8683    5.2273   25.8671 C   0  0  0  0  0  0  0  0  0  0  0  0
   -4.2423    5.2757   26.1424 C   0  0  0  0  0  0  0  0  0  0  0  0
   -4.7050    5.7679   27.3729 C   0  0  0  0  0  0  0  0  0  0  0  0
   -2.3812    6.1689   28.0742 C   0  0  0  0  0  0  0  0  0  0  0  0
   -3.7718    6.2185   28.3529 C   0  0  0  0  0  0  0  0  0  0  0  0
   -1.9339    5.6598   26.8105 C   0  0  0  0  0  0  0  0  0  0  0  0
   -4.2078    6.7178   29.6167 C   0  0  0  0  0  0  0  0  0  0  0  0
   -3.2703    7.1638   30.5959 C   0  0  0  0  0  0  0  0  0  0  0  0
   -1.8808    7.1064   30.2995 C   0  0  0  0  0  0  0  0  0  0  0  0
   -1.4448    6.6111   29.0570 C   0  0  0  0  0  0  0  0  0  0  0  0
   -3.2077    1.4503   26.1471 C   0  0  0  0  0  0  0  0  0  0  0  0
   -2.4003    2.0063   27.3308 C   0  0  0  0  0  0  0  0  0  0  0  0
   -3.0527    2.4069   28.5149 C   0  0  0  0  0  0  0  0  0  0  0  0
   -0.9979    2.1178   27.2467 C   0  0  0  0  0  0  0  0  0  0  0  0
   -0.2552    2.6207   28.3238 C   0  0  0  0  0  0  0  0  0  0  0  0
   -0.9080    3.0237   29.5034 C   0  0  0  0  0  0  0  0  0  0  0  0
   -2.3138    2.9167   29.6090 C   0  0  0  0  0  0  0  0  0  0  0  0
   -3.0135    3.3610   30.8795 C   0  0  0  0  0  0  0  0  0  0  0  0
   -4.3190    3.4521   30.8806 N   0  0  0  0  0  0  0  0  0  0  0  0
   -2.3095    3.6406   31.9613 N   0  0  0  0  0  0  0  0  0  0  0  0
   -4.8280    3.2397   30.0651 H   0  0  0  0  0  0  0  0  0  0  0  0
   -4.7922    3.7330   31.6970 H   0  0  0  0  0  0  0  0  0  0  0  0
   -1.3279    3.5667   31.9426 H   0  0  0  0  0  0  0  0  0  0  0  0
 30 31  2  0  0  0
 30 32  1  0  0  0
 30 29  1  0  0  0
 31 35  1  0  0  0
 32 33  2  0  0  0
 33 34  1  0  0  0
 34 35  2  0  0  0
 35 36  1  0  0  0
 36 37  1  0  0  0
 36 38  2  0  0  0
 29  1  1  0  0  0
  1  2  1  0  0  0
  1 14  1  0  0  0
  2  3  2  0  0  0
  2  4  1  0  0  0
  4  5  1  0  0  0
  4  8  1  0  0  0
  5  6  1  0  0  0
  6  9  1  0  0  0
  7  8  1  0  0  0
  7  9  1  0  0  0
  9 10  1  0  0  0
 10 11  2  0  0  0
 10 12  1  0  0  0
 12 13  1  0  0  0
 14 16  1  0  0  0
 16 17  2  0  0  0
 16 18  2  0  0  0
 16 19  1  0  0  0
 19 20  2  0  0  0
 19 24  1  0  0  0
 20 21  1  0  0  0
 21 23  2  0  0  0
 22 23  1  0  0  0
 22 24  2  0  0  0
 22 28  1  0  0  0
 23 25  1  0  0  0
 25 26  2  0  0  0
 26 27  1  0  0  0
 27 28  2  0  0  0
 37 39  1  0  0  0
 37 40  1  0  0  0
 38 41  1  0  0  0
 14 15  1  0  0  0
M  END
> <minimizedAffinity>
-8.35622

$$$$
1K1J_FD2_A_999


 41 44  0  0  0  0  0  0  0  0999 V2000
   -0.9091    2.9037   22.1392 C   0  0  0  0  0  0  0  0  0  0  0  0
   -1.9115    3.9782   21.7564 C   0  0  0  0  0  0  0  0  0  0  0  0
   -1.4145    4.9689   21.2275 O   0  0  0  0  0  0  0  0  0  0  0  0
   -3.2458    3.8925   21.9506 N   0  0  0  0  0  0  0  0  0  0  0  0
   -3.7819    2.7178   22.6197 C   0  0  0  0  0  0  0  0  0  0  0  0
   -4.9868    2.1892   21.8066 C   0  0  0  0  0  0  0  0  0  0  0  0
   -5.3040    4.5242   20.8063 C   0  0  0  0  0  0  0  0  0  0  0  0
   -4.0911    5.0312   21.6361 C   0  0  0  0  0  0  0  0  0  0  0  0
   -6.0113    3.3280   21.5215 C   0  0  0  0  0  0  0  0  0  0  0  0
   -7.0825    2.8664   20.7289 C   0  0  0  0  0  0  0  0  0  0  0  0
   -7.4344    1.6982   20.5964 O   0  0  0  0  0  0  0  0  0  0  0  0
   -7.7048    3.9002   20.1334 O   0  0  0  0  0  0  0  0  0  0  0  0
   -8.7171    3.5220   19.1739 C   0  0  0  0  0  0  0  0  0  0  0  0
    0.0449    2.7271   21.0421 N   0  0  0  0  0  0  0  0  0  0  0  0
    0.9421    2.4965   21.4690 H   0  0  0  0  0  0  0  0  0  0  0  0
   -0.2405    1.5404   19.8144 S   0  0  0  0  0  0  0  0  0  0  0  0
   -1.5912    1.0622   19.9546 O   0  0  0  0  0  0  0  0  0  0  0  0
    0.2388    2.0168   18.5632 O   0  0  0  0  0  0  0  0  0  0  0  0
    0.8050    0.2947   20.3854 C   0  0  0  0  0  0  0  0  0  0  0  0
    0.5205   -0.2668   21.6383 C   0  0  0  0  0  0  0  0  0  0  0  0
    1.3358   -1.2801   22.1662 C   0  0  0  0  0  0  0  0  0  0  0  0
    2.7474   -1.1779   20.1538 C   0  0  0  0  0  0  0  0  0  0  0  0
    2.4600   -1.7460   21.4221 C   0  0  0  0  0  0  0  0  0  0  0  0
    1.8979   -0.1454   19.6357 C   0  0  0  0  0  0  0  0  0  0  0  0
    3.3051   -2.7796   21.9259 C   0  0  0  0  0  0  0  0  0  0  0  0
    4.4264   -3.2456   21.1761 C   0  0  0  0  0  0  0  0  0  0  0  0
    4.6990   -2.6651   19.9069 C   0  0  0  0  0  0  0  0  0  0  0  0
    3.8668   -1.6488   19.4031 C   0  0  0  0  0  0  0  0  0  0  0  0
   -0.1594    3.1986   23.4762 C   0  0  0  0  0  0  0  0  0  0  0  0
   -0.0309    1.9725   24.3940 C   0  0  0  0  0  0  0  0  0  0  0  0
    1.2013    1.6654   25.0070 C   0  0  0  0  0  0  0  0  0  0  0  0
   -1.1450    1.1441   24.6362 C   0  0  0  0  0  0  0  0  0  0  0  0
   -1.0354    0.0264   25.4749 C   0  0  0  0  0  0  0  0  0  0  0  0
    0.1958   -0.2811   26.0829 C   0  0  0  0  0  0  0  0  0  0  0  0
    1.3246    0.5394   25.8554 C   0  0  0  0  0  0  0  0  0  0  0  0
    2.6518    0.1984   26.5060 C   0  0  0  0  0  0  0  0  0  0  0  0
    3.4577   -0.6321   25.8950 N   0  0  0  0  0  0  0  0  0  0  0  0
    2.9816    0.7411   27.6640 N   0  0  0  0  0  0  0  0  0  0  0  0
    3.1957   -1.0274   25.0323 H   0  0  0  0  0  0  0  0  0  0  0  0
    4.3261   -0.8616   26.2981 H   0  0  0  0  0  0  0  0  0  0  0  0
    2.3629    1.3639   28.1097 H   0  0  0  0  0  0  0  0  0  0  0  0
 30 31  2  0  0  0
 30 32  1  0  0  0
 30 29  1  0  0  0
 31 35  1  0  0  0
 32 33  2  0  0  0
 33 34  1  0  0  0
 34 35  2  0  0  0
 35 36  1  0  0  0
 36 37  1  0  0  0
 36 38  2  0  0  0
 29  1  1  0  0  0
  1  2  1  0  0  0
  1 14  1  0  0  0
  2  3  2  0  0  0
  2  4  1  0  0  0
  4  5  1  0  0  0
  4  8  1  0  0  0
  5  6  1  0  0  0
  6  9  1  0  0  0
  7  8  1  0  0  0
  7  9  1  0  0  0
  9 10  1  0  0  0
 10 11  2  0  0  0
 10 12  1  0  0  0
 12 13  1  0  0  0
 14 16  1  0  0  0
 16 17  2  0  0  0
 16 18  2  0  0  0
 16 19  1  0  0  0
 19 20  2  0  0  0
 19 24  1  0  0  0
 20 21  1  0  0  0
 21 23  2  0  0  0
 22 23  1  0  0  0
 22 24  2  0  0  0
 22 28  1  0  0  0
 23 25  1  0  0  0
 25 26  2  0  0  0
 26 27  1  0  0  0
 27 28  2  0  0  0
 37 39  1  0  0  0
 37 40  1  0  0  0
 38 41  1  0  0  0
 14 15  1  0  0  0
M  END
> <minimizedAffinity>
-8.31135

$$$$
1K1J_FD2_A_999


 41 44  0  0  0  0  0  0  0  0999 V2000
   -4.0288    3.9123   25.0908 C   0  0  0  0  0  0  0  0  0  0  0  0
   -4.6327    4.1182   23.7128 C   0  0  0  0  0  0  0  0  0  0  0  0
   -5.8518    4.2666   23.7113 O   0  0  0  0  0  0  0  0  0  0  0  0
   -3.9291    4.1541   22.5599 N   0  0  0  0  0  0  0  0  0  0  0  0
   -2.4929    3.9306   22.6091 C   0  0  0  0  0  0  0  0  0  0  0  0
   -1.7904    5.0275   21.7750 C   0  0  0  0  0  0  0  0  0  0  0  0
   -3.9503    5.3619   20.4421 C   0  0  0  0  0  0  0  0  0  0  0  0
   -4.6325    4.2541   21.2930 C   0  0  0  0  0  0  0  0  0  0  0  0
   -2.4081    5.1259   20.3480 C   0  0  0  0  0  0  0  0  0  0  0  0
   -1.8129    6.1649   19.6029 C   0  0  0  0  0  0  0  0  0  0  0  0
   -0.6679    6.1752   19.1615 O   0  0  0  0  0  0  0  0  0  0  0  0
   -2.6905    7.1667   19.4110 O   0  0  0  0  0  0  0  0  0  0  0  0
   -2.1047    8.4877   19.4063 C   0  0  0  0  0  0  0  0  0  0  0  0
   -3.4053    2.5883   25.1466 N   0  0  0  0  0  0  0  0  0  0  0  0
   -2.4577    2.7258   25.4981 H   0  0  0  0  0  0  0  0  0  0  0  0
   -4.1101    1.3265   26.0997 S   0  0  0  0  0  0  0  0  0  0  0  0
   -5.4977    1.2074   25.7349 O   0  0  0  0  0  0  0  0  0  0  0  0
   -3.2559    0.1897   26.1015 O   0  0  0  0  0  0  0  0  0  0  0  0
   -4.0512    2.0831   27.6472 C   0  0  0  0  0  0  0  0  0  0  0  0
   -2.8021    2.1736   28.2776 C   0  0  0  0  0  0  0  0  0  0  0  0
   -2.6843    2.7711   29.5423 C   0  0  0  0  0  0  0  0  0  0  0  0
   -5.1064    3.2027   29.5520 C   0  0  0  0  0  0  0  0  0  0  0  0
   -3.8423    3.2940   30.1905 C   0  0  0  0  0  0  0  0  0  0  0  0
   -5.1998    2.5897   28.2592 C   0  0  0  0  0  0  0  0  0  0  0  0
   -3.7568    3.9142   31.4729 C   0  0  0  0  0  0  0  0  0  0  0  0
   -4.9174    4.4398   32.1159 C   0  0  0  0  0  0  0  0  0  0  0  0
   -6.1757    4.3399   31.4612 C   0  0  0  0  0  0  0  0  0  0  0  0
   -6.2654    3.7335   30.1949 C   0  0  0  0  0  0  0  0  0  0  0  0
   -3.0042    5.0188   25.4939 C   0  0  0  0  0  0  0  0  0  0  0  0
   -3.3211    5.6916   26.8388 C   0  0  0  0  0  0  0  0  0  0  0  0
   -2.2874    5.9836   27.7524 C   0  0  0  0  0  0  0  0  0  0  0  0
   -4.6486    6.0279   27.1719 C   0  0  0  0  0  0  0  0  0  0  0  0
   -4.9440    6.6448   28.3954 C   0  0  0  0  0  0  0  0  0  0  0  0
   -3.9118    6.9321   29.3076 C   0  0  0  0  0  0  0  0  0  0  0  0
   -2.5731    6.6057   28.9910 C   0  0  0  0  0  0  0  0  0  0  0  0
   -1.4653    6.9094   29.9817 C   0  0  0  0  0  0  0  0  0  0  0  0
   -0.3668    7.4714   29.5455 N   0  0  0  0  0  0  0  0  0  0  0  0
   -1.6196    6.6153   31.2600 N   0  0  0  0  0  0  0  0  0  0  0  0
   -0.2688    7.6837   28.5892 H   0  0  0  0  0  0  0  0  0  0  0  0
    0.3615    7.6818   30.1736 H   0  0  0  0  0  0  0  0  0  0  0  0
   -2.4527    6.1926   31.5707 H   0  0  0  0  0  0  0  0  0  0  0  0
 30 31  2  0  0  0
 30 32  1  0  0  0
 30 29  1  0  0  0
 31 35  1  0  0  0
 32 33  2  0  0  0
 33 34  1  0  0  0
 34 35  2  0  0  0
 35 36  1  0  0  0
 36 37  1  0  0  0
 36 38  2  0  0  0
 29  1  1  0  0  0
  1  2  1  0  0  0
  1 14  1  0  0  0
  2  3  2  0  0  0
  2  4  1  0  0  0
  4  5  1  0  0  0
  4  8  1  0  0  0
  5  6  1  0  0  0
  6  9  1  0  0  0
  7  8  1  0  0  0
  7  9  1  0  0  0
  9 10  1  0  0  0
 10 11  2  0  0  0
 10 12  1  0  0  0
 12 13  1  0  0  0
 14 16  1  0  0  0
 16 17  2  0  0  0
 16 18  2  0  0  0
 16 19  1  0  0  0
 19 20  2  0  0  0
 19 24  1  0  0  0
 20 21  1  0  0  0
 21 23  2  0  0  0
 22 23  1  0  0  0
 22 24  2  0  0  0
 22 28  1  0  0  0
 23 25  1  0  0  0
 25 26  2  0  0  0
 26 27  1  0  0  0
 27 28  2  0  0  0
 37 39  1  0  0  0
 37 40  1  0  0  0
 38 41  1  0  0  0
 14 15  1  0  0  0
M  END
> <minimizedAffinity>
-8.23107

$$$$
