5L7G_6QE_A_1102


 32 35  0  0  0  0  0  0  0  0999 V2000
   -7.6059   19.2351  -12.9176 C   0  0  0  0  0  0  0  0  0  0  0  0
   -7.6905   17.8020  -13.2244 C   0  0  0  0  0  0  0  0  0  0  0  0
   -7.9861   15.6914  -12.8929 O   0  0  0  0  0  0  0  0  0  0  0  0
   -7.4904   17.1813  -14.4821 C   0  0  0  0  0  0  0  0  0  0  0  0
   -7.9878   16.9310  -12.2555 N   0  0  0  0  0  0  0  0  0  0  0  0
   -7.6931   15.8437  -14.2143 C   0  0  0  0  0  0  0  0  0  0  0  0
   -7.5529   19.4752  -17.3931 C   0  0  0  0  0  0  0  0  0  0  0  0
   -6.3948   19.1264  -18.0648 C   0  0  0  0  0  0  0  0  0  0  0  0
   -5.5862   18.1205  -17.5641 C   0  0  0  0  0  0  0  0  0  0  0  0
   -5.9270   17.4743  -16.3899 C   0  0  0  0  0  0  0  0  0  0  0  0
   -7.1064   17.8103  -15.7334 C   0  0  0  0  0  0  0  0  0  0  0  0
   -7.9142   18.8133  -16.2390 C   0  0  0  0  0  0  0  0  0  0  0  0
   -6.0504   19.8201  -19.3382 C   0  0  0  0  0  0  0  0  0  0  0  0
   -7.2471   19.9885  -20.2077 N   0  0  0  0  0  0  0  0  0  0  0  0
   -7.9917   20.3534  -19.6136 H   0  0  0  0  0  0  0  0  0  0  0  0
   -7.9045   18.6425  -21.0524 S   0  0  0  0  0  0  0  0  0  0  0  0
   -6.8183   17.6928  -21.1815 O   0  0  0  0  0  0  0  0  0  0  0  0
   -8.6725   19.1106  -22.1877 O   0  0  0  0  0  0  0  0  0  0  0  0
  -10.2725   18.4519  -19.6303 C   0  0  0  0  0  0  0  0  0  0  0  0
   -9.0828   17.6876  -20.0632 C   0  0  0  0  0  0  0  0  0  0  0  0
   -9.4300   16.3496  -20.5846 C   0  0  0  0  0  0  0  0  0  0  0  0
   -8.4443   16.4750  -19.4603 C   0  0  0  0  0  0  0  0  0  0  0  0
   -7.6874   14.5736  -14.9564 C   0  0  0  0  0  0  0  0  0  0  0  0
   -8.1890   14.7791  -16.2751 O   0  0  0  0  0  0  0  0  0  0  0  0
   -9.5264   14.4131  -16.4394 C   0  0  0  0  0  0  0  0  0  0  0  0
   -9.8168   13.0752  -16.2567 C   0  0  0  0  0  0  0  0  0  0  0  0
  -11.1120   12.6038  -16.3076 C   0  0  0  0  0  0  0  0  0  0  0  0
  -12.1420   13.4865  -16.5524 C   0  0  0  0  0  0  0  0  0  0  0  0
  -11.8596   14.8255  -16.7359 C   0  0  0  0  0  0  0  0  0  0  0  0
  -10.5685   15.3072  -16.6640 C   0  0  0  0  0  0  0  0  0  0  0  0
  -12.8579   15.6873  -16.9660 F   0  0  0  0  0  0  0  0  0  0  0  0
  -10.3971   16.6360  -16.8413 F   0  0  0  0  0  0  0  0  0  0  0  0
 18 16  2  0  0  0
 17 16  2  0  0  0
 16 20  1  0  0  0
 16 14  1  0  0  0
 19 20  1  0  0  0
 20 22  1  0  0  0
 20 21  1  0  0  0
 14 13  1  0  0  0
 22 21  1  0  0  0
 13  8  1  0  0  0
  8  9  2  0  0  0
  8  7  1  0  0  0
  9 10  1  0  0  0
  7 12  2  0  0  0
 27 28  2  0  0  0
 27 26  1  0  0  0
 28 29  1  0  0  0
 26 25  2  0  0  0
 29 31  1  0  0  0
 29 30  2  0  0  0
 10 11  2  0  0  0
 25 30  1  0  0  0
 25 24  1  0  0  0
 30 32  1  0  0  0
 24 23  1  0  0  0
 12 11  1  0  0  0
 11  4  1  0  0  0
 23  6  1  0  0  0
  4  6  2  0  0  0
  4  2  1  0  0  0
  6  3  1  0  0  0
  2  1  1  0  0  0
  2  5  2  0  0  0
  3  5  1  0  0  0
 14 15  1  0  0  0
M  END
> <minimizedAffinity>
-10.18181

$$$$
5L7G_6QE_A_1102


 32 35  0  0  0  0  0  0  0  0999 V2000
   -7.5945   19.2059  -12.5832 C   0  0  0  0  0  0  0  0  0  0  0  0
   -7.6773   17.7757  -12.9037 C   0  0  0  0  0  0  0  0  0  0  0  0
   -7.9109   15.6559  -12.5819 O   0  0  0  0  0  0  0  0  0  0  0  0
   -7.5620   17.1756  -14.1818 C   0  0  0  0  0  0  0  0  0  0  0  0
   -7.8858   16.8867  -11.9280 N   0  0  0  0  0  0  0  0  0  0  0  0
   -7.7210   15.8311  -13.9191 C   0  0  0  0  0  0  0  0  0  0  0  0
   -5.9009   17.9841  -17.3953 C   0  0  0  0  0  0  0  0  0  0  0  0
   -6.7355   18.9550  -17.9195 C   0  0  0  0  0  0  0  0  0  0  0  0
   -7.8527   19.3582  -17.2081 C   0  0  0  0  0  0  0  0  0  0  0  0
   -8.1416   18.7841  -15.9836 C   0  0  0  0  0  0  0  0  0  0  0  0
   -7.2842   17.8281  -15.4491 C   0  0  0  0  0  0  0  0  0  0  0  0
   -6.1664   17.4306  -16.1609 C   0  0  0  0  0  0  0  0  0  0  0  0
   -6.4010   19.5766  -19.2321 C   0  0  0  0  0  0  0  0  0  0  0  0
   -6.5879   18.6154  -20.3535 N   0  0  0  0  0  0  0  0  0  0  0  0
   -6.2561   19.0821  -21.1976 H   0  0  0  0  0  0  0  0  0  0  0  0
   -8.1502   17.9939  -20.7147 S   0  0  0  0  0  0  0  0  0  0  0  0
   -8.5531   17.2426  -19.5436 O   0  0  0  0  0  0  0  0  0  0  0  0
   -8.1495   17.4245  -22.0465 O   0  0  0  0  0  0  0  0  0  0  0  0
  -10.2773   19.3309  -19.5510 C   0  0  0  0  0  0  0  0  0  0  0  0
   -9.4314   19.2726  -20.7626 C   0  0  0  0  0  0  0  0  0  0  0  0
   -8.9934   20.6105  -21.2107 C   0  0  0  0  0  0  0  0  0  0  0  0
   -9.7235   19.7109  -22.1641 C   0  0  0  0  0  0  0  0  0  0  0  0
   -7.7494   14.5713  -14.6781 C   0  0  0  0  0  0  0  0  0  0  0  0
   -8.1253   14.8265  -16.0295 O   0  0  0  0  0  0  0  0  0  0  0  0
   -9.4920   14.6840  -16.2773 C   0  0  0  0  0  0  0  0  0  0  0  0
  -10.1810   15.8453  -16.5677 C   0  0  0  0  0  0  0  0  0  0  0  0
  -11.5161   15.8257  -16.9136 C   0  0  0  0  0  0  0  0  0  0  0  0
  -12.1818   14.6198  -16.9654 C   0  0  0  0  0  0  0  0  0  0  0  0
  -11.4998   13.4546  -16.6766 C   0  0  0  0  0  0  0  0  0  0  0  0
  -10.1587   13.4651  -16.3518 C   0  0  0  0  0  0  0  0  0  0  0  0
  -12.1407   12.2807  -16.7336 F   0  0  0  0  0  0  0  0  0  0  0  0
   -9.5771   12.2709  -16.1020 F   0  0  0  0  0  0  0  0  0  0  0  0
 18 16  2  0  0  0
 17 16  2  0  0  0
 16 20  1  0  0  0
 16 14  1  0  0  0
 19 20  1  0  0  0
 20 22  1  0  0  0
 20 21  1  0  0  0
 14 13  1  0  0  0
 22 21  1  0  0  0
 13  8  1  0  0  0
  8  9  2  0  0  0
  8  7  1  0  0  0
  9 10  1  0  0  0
  7 12  2  0  0  0
 27 28  2  0  0  0
 27 26  1  0  0  0
 28 29  1  0  0  0
 26 25  2  0  0  0
 29 31  1  0  0  0
 29 30  2  0  0  0
 10 11  2  0  0  0
 25 30  1  0  0  0
 25 24  1  0  0  0
 30 32  1  0  0  0
 24 23  1  0  0  0
 12 11  1  0  0  0
 11  4  1  0  0  0
 23  6  1  0  0  0
  4  6  2  0  0  0
  4  2  1  0  0  0
  6  3  1  0  0  0
  2  1  1  0  0  0
  2  5  2  0  0  0
  3  5  1  0  0  0
 14 15  1  0  0  0
M  END
> <minimizedAffinity>
-9.06264

$$$$
5L7G_6QE_A_1102


 32 35  0  0  0  0  0  0  0  0999 V2000
  -11.5707   13.5330  -16.9971 C   0  0  0  0  0  0  0  0  0  0  0  0
  -10.2199   13.7158  -16.4520 C   0  0  0  0  0  0  0  0  0  0  0  0
   -8.4674   13.3276  -15.2563 O   0  0  0  0  0  0  0  0  0  0  0  0
   -9.2913   14.7325  -16.7855 C   0  0  0  0  0  0  0  0  0  0  0  0
   -9.7508   12.8618  -15.5375 N   0  0  0  0  0  0  0  0  0  0  0  0
   -8.1971   14.4360  -16.0002 C   0  0  0  0  0  0  0  0  0  0  0  0
   -9.3135   16.7070  -19.9224 C   0  0  0  0  0  0  0  0  0  0  0  0
   -9.8995   17.8929  -19.5171 C   0  0  0  0  0  0  0  0  0  0  0  0
  -10.2848   18.0533  -18.1971 C   0  0  0  0  0  0  0  0  0  0  0  0
  -10.0968   17.0277  -17.2886 C   0  0  0  0  0  0  0  0  0  0  0  0
   -9.4823   15.8480  -17.6955 C   0  0  0  0  0  0  0  0  0  0  0  0
   -9.0948   15.6929  -19.0145 C   0  0  0  0  0  0  0  0  0  0  0  0
  -10.0793   18.9951  -20.5042 C   0  0  0  0  0  0  0  0  0  0  0  0
   -8.9491   19.9627  -20.4520 N   0  0  0  0  0  0  0  0  0  0  0  0
   -9.2351   20.7766  -20.9963 H   0  0  0  0  0  0  0  0  0  0  0  0
   -7.3906   19.5109  -21.0215 S   0  0  0  0  0  0  0  0  0  0  0  0
   -6.9938   20.5536  -21.9453 O   0  0  0  0  0  0  0  0  0  0  0  0
   -7.3939   18.1078  -21.3812 O   0  0  0  0  0  0  0  0  0  0  0  0
   -5.0276   20.6182  -20.0962 C   0  0  0  0  0  0  0  0  0  0  0  0
   -6.1009   19.6583  -19.7591 C   0  0  0  0  0  0  0  0  0  0  0  0
   -6.5726   19.8045  -18.3667 C   0  0  0  0  0  0  0  0  0  0  0  0
   -6.0807   18.4709  -18.8474 C   0  0  0  0  0  0  0  0  0  0  0  0
   -6.8492   14.9766  -15.7655 C   0  0  0  0  0  0  0  0  0  0  0  0
   -6.8870   16.4017  -15.7851 O   0  0  0  0  0  0  0  0  0  0  0  0
   -7.3695   16.9749  -14.6069 C   0  0  0  0  0  0  0  0  0  0  0  0
   -7.1695   16.2463  -13.4507 C   0  0  0  0  0  0  0  0  0  0  0  0
   -7.5239   16.7429  -12.2136 C   0  0  0  0  0  0  0  0  0  0  0  0
   -8.0971   17.9936  -12.1278 C   0  0  0  0  0  0  0  0  0  0  0  0
   -8.3000   18.7280  -13.2792 C   0  0  0  0  0  0  0  0  0  0  0  0
   -7.9272   18.2464  -14.5175 C   0  0  0  0  0  0  0  0  0  0  0  0
   -8.8489   19.9464  -13.1994 F   0  0  0  0  0  0  0  0  0  0  0  0
   -8.1526   19.0476  -15.5823 F   0  0  0  0  0  0  0  0  0  0  0  0
 18 16  2  0  0  0
 17 16  2  0  0  0
 16 20  1  0  0  0
 16 14  1  0  0  0
 19 20  1  0  0  0
 20 22  1  0  0  0
 20 21  1  0  0  0
 14 13  1  0  0  0
 22 21  1  0  0  0
 13  8  1  0  0  0
  8  9  2  0  0  0
  8  7  1  0  0  0
  9 10  1  0  0  0
  7 12  2  0  0  0
 27 28  2  0  0  0
 27 26  1  0  0  0
 28 29  1  0  0  0
 26 25  2  0  0  0
 29 31  1  0  0  0
 29 30  2  0  0  0
 10 11  2  0  0  0
 25 30  1  0  0  0
 25 24  1  0  0  0
 30 32  1  0  0  0
 24 23  1  0  0  0
 12 11  1  0  0  0
 11  4  1  0  0  0
 23  6  1  0  0  0
  4  6  2  0  0  0
  4  2  1  0  0  0
  6  3  1  0  0  0
  2  1  1  0  0  0
  2  5  2  0  0  0
  3  5  1  0  0  0
 14 15  1  0  0  0
M  END
> <minimizedAffinity>
-8.33325

$$$$
5L7G_6QE_A_1102


 32 35  0  0  0  0  0  0  0  0999 V2000
  -12.8036   15.3575  -17.0843 C   0  0  0  0  0  0  0  0  0  0  0  0
  -11.7089   14.5141  -16.5890 C   0  0  0  0  0  0  0  0  0  0  0  0
  -10.7297   12.8004  -15.7193 O   0  0  0  0  0  0  0  0  0  0  0  0
  -10.3257   14.8206  -16.5836 C   0  0  0  0  0  0  0  0  0  0  0  0
  -11.9773   13.3098  -16.0758 N   0  0  0  0  0  0  0  0  0  0  0  0
   -9.7519   13.6982  -16.0242 C   0  0  0  0  0  0  0  0  0  0  0  0
   -8.3185   17.1767  -18.6230 C   0  0  0  0  0  0  0  0  0  0  0  0
   -8.5061   18.3739  -17.9555 C   0  0  0  0  0  0  0  0  0  0  0  0
   -9.2927   18.4102  -16.8168 C   0  0  0  0  0  0  0  0  0  0  0  0
   -9.8997   17.2569  -16.3543 C   0  0  0  0  0  0  0  0  0  0  0  0
   -9.6856   16.0510  -17.0137 C   0  0  0  0  0  0  0  0  0  0  0  0
   -8.8955   16.0179  -18.1490 C   0  0  0  0  0  0  0  0  0  0  0  0
   -7.8309   19.6046  -18.4564 C   0  0  0  0  0  0  0  0  0  0  0  0
   -7.0546   19.3333  -19.6975 N   0  0  0  0  0  0  0  0  0  0  0  0
   -6.3208   20.0403  -19.7443 H   0  0  0  0  0  0  0  0  0  0  0  0
   -7.8365   19.3311  -21.2291 S   0  0  0  0  0  0  0  0  0  0  0  0
   -7.8557   17.9473  -21.6569 O   0  0  0  0  0  0  0  0  0  0  0  0
   -7.2973   20.3956  -22.0502 O   0  0  0  0  0  0  0  0  0  0  0  0
  -10.4277   18.5514  -20.6427 C   0  0  0  0  0  0  0  0  0  0  0  0
   -9.6091   19.6851  -21.1241 C   0  0  0  0  0  0  0  0  0  0  0  0
   -9.9765   20.9617  -20.4776 C   0  0  0  0  0  0  0  0  0  0  0  0
   -9.9907   20.8569  -21.9743 C   0  0  0  0  0  0  0  0  0  0  0  0
   -8.4018   13.2207  -15.6875 C   0  0  0  0  0  0  0  0  0  0  0  0
   -8.0175   13.7139  -14.4062 O   0  0  0  0  0  0  0  0  0  0  0  0
   -7.4938   15.0080  -14.4275 C   0  0  0  0  0  0  0  0  0  0  0  0
   -6.6938   15.3217  -15.5089 C   0  0  0  0  0  0  0  0  0  0  0  0
   -6.1871   16.5921  -15.6880 C   0  0  0  0  0  0  0  0  0  0  0  0
   -6.4800   17.5716  -14.7635 C   0  0  0  0  0  0  0  0  0  0  0  0
   -7.2791   17.2657  -13.6800 C   0  0  0  0  0  0  0  0  0  0  0  0
   -7.8076   16.0028  -13.5068 C   0  0  0  0  0  0  0  0  0  0  0  0
   -7.5726   18.2163  -12.7842 F   0  0  0  0  0  0  0  0  0  0  0  0
   -8.5915   15.8074  -12.4233 F   0  0  0  0  0  0  0  0  0  0  0  0
 18 16  2  0  0  0
 17 16  2  0  0  0
 16 20  1  0  0  0
 16 14  1  0  0  0
 19 20  1  0  0  0
 20 22  1  0  0  0
 20 21  1  0  0  0
 14 13  1  0  0  0
 22 21  1  0  0  0
 13  8  1  0  0  0
  8  9  2  0  0  0
  8  7  1  0  0  0
  9 10  1  0  0  0
  7 12  2  0  0  0
 27 28  2  0  0  0
 27 26  1  0  0  0
 28 29  1  0  0  0
 26 25  2  0  0  0
 29 31  1  0  0  0
 29 30  2  0  0  0
 10 11  2  0  0  0
 25 30  1  0  0  0
 25 24  1  0  0  0
 30 32  1  0  0  0
 24 23  1  0  0  0
 12 11  1  0  0  0
 11  4  1  0  0  0
 23  6  1  0  0  0
  4  6  2  0  0  0
  4  2  1  0  0  0
  6  3  1  0  0  0
  2  1  1  0  0  0
  2  5  2  0  0  0
  3  5  1  0  0  0
 14 15  1  0  0  0
M  END
> <minimizedAffinity>
-8.02402

$$$$
