1O3L_678_A_246


 29 31  0  0  0  0  0  0  0  0999 V2000
   44.0608   -2.9742   26.2290 C   0  0  0  0  0  0  0  0  0  0  0  0
   44.4838   -1.6245   26.3671 C   0  0  0  0  0  0  0  0  0  0  0  0
   44.3461   -0.9031   27.5509 C   0  0  0  0  0  0  0  0  0  0  0  0
   43.7864   -1.5557   28.6047 C   0  0  0  0  0  0  0  0  0  0  0  0
   43.3548   -2.8278   28.5582 C   0  0  0  0  0  0  0  0  0  0  0  0
   43.4769   -3.5688   27.3833 C   0  0  0  0  0  0  0  0  0  0  0  0
   43.5367   -1.0966   29.8177 N   0  0  0  0  0  0  0  0  0  0  0  0
   42.8559   -3.1077   29.7697 C   0  0  0  0  0  0  0  0  0  0  0  0
   42.9583   -2.0096   30.6024 C   0  0  0  0  0  0  0  0  0  0  0  0
   43.7532   -0.1822   30.1112 H   0  0  0  0  0  0  0  0  0  0  0  0
   42.7227   -1.8439   32.0037 C   0  0  0  0  0  0  0  0  0  0  0  0
   42.0913   -2.8582   32.7873 C   0  0  0  0  0  0  0  0  0  0  0  0
   41.8349   -2.7380   34.1749 C   0  0  0  0  0  0  0  0  0  0  0  0
   42.2288   -1.5652   34.8043 C   0  0  0  0  0  0  0  0  0  0  0  0
   42.8340   -0.5915   34.0478 C   0  0  0  0  0  0  0  0  0  0  0  0
   43.0822   -0.7055   32.6917 C   0  0  0  0  0  0  0  0  0  0  0  0
   43.6715    0.3464   32.0344 O   0  0  0  0  0  0  0  0  0  0  0  0
   43.3865    1.0512   34.8898 Br  0  0  0  0  0  0  0  0  0  0  0  0
   41.1186   -3.9258   34.8989 C   0  0  0  0  0  0  0  0  0  0  0  0
   41.9420   -5.2084   35.0634 C   0  0  0  0  0  0  0  0  0  0  0  0
   42.6676   -5.2647   36.0317 O   0  0  0  0  0  0  0  0  0  0  0  0
   41.8255   -6.0847   34.2273 O   0  0  0  0  0  0  0  0  0  0  0  0
   44.2260   -3.6830   25.0009 C   0  0  0  0  0  0  0  0  0  0  0  0
   43.9800   -4.9756   24.9142 N   0  0  0  0  0  0  0  0  0  0  0  0
   44.6276   -3.0678   23.9083 N   0  0  0  0  0  0  0  0  0  0  0  0
   43.6777   -5.4735   25.7079 H   0  0  0  0  0  0  0  0  0  0  0  0
   44.0986   -5.4427   24.0557 H   0  0  0  0  0  0  0  0  0  0  0  0
   44.8221   -2.1030   23.9298 H   0  0  0  0  0  0  0  0  0  0  0  0
   44.7334   -3.5727   23.0698 H   0  0  0  0  0  0  0  0  0  0  0  0
  1  2  2  0  0  0
  1  6  1  0  0  0
  1 23  1  0  0  0
  2  3  1  0  0  0
  3  4  2  0  0  0
  4  5  1  0  0  0
  4  7  1  0  0  0
  5  6  2  0  0  0
  5  8  1  0  0  0
 23 24  1  0  0  0
 23 25  2  0  0  0
  7  9  1  0  0  0
  8  9  2  0  0  0
  9 11  1  0  0  0
 11 12  2  0  0  0
 11 16  1  0  0  0
 12 13  1  0  0  0
 13 19  1  0  0  0
 13 14  2  0  0  0
 19 20  1  0  0  0
 20 21  2  0  0  0
 20 22  1  0  0  0
 14 15  1  0  0  0
 15 16  2  0  0  0
 15 18  1  0  0  0
 16 17  1  0  0  0
 24 26  1  0  0  0
 24 27  1  0  0  0
 25 28  1  0  0  0
 25 29  1  0  0  0
  7 10  1  0  0  0
M  CHG 1  17  -1
M  CHG 1  22  -1
M  CHG 1  25   1
M  END
> <minimizedAffinity>
-8.74392

$$$$
1O3L_678_A_246


 29 31  0  0  0  0  0  0  0  0999 V2000
   43.9862   -2.9520   26.0920 C   0  0  0  0  0  0  0  0  0  0  0  0
   44.3943   -1.5943   26.1907 C   0  0  0  0  0  0  0  0  0  0  0  0
   44.1748   -0.8160   27.3251 C   0  0  0  0  0  0  0  0  0  0  0  0
   43.5476   -1.4193   28.3702 C   0  0  0  0  0  0  0  0  0  0  0  0
   43.1245   -2.6951   28.3584 C   0  0  0  0  0  0  0  0  0  0  0  0
   43.3279   -3.4926   27.2328 C   0  0  0  0  0  0  0  0  0  0  0  0
   43.2153   -0.9024   29.5394 N   0  0  0  0  0  0  0  0  0  0  0  0
   42.5461   -2.9179   29.5462 C   0  0  0  0  0  0  0  0  0  0  0  0
   42.5884   -1.7793   30.3280 C   0  0  0  0  0  0  0  0  0  0  0  0
   43.4084    0.0269   29.8007 H   0  0  0  0  0  0  0  0  0  0  0  0
   42.2585   -1.5459   31.7003 C   0  0  0  0  0  0  0  0  0  0  0  0
   43.1356   -0.8354   32.5764 C   0  0  0  0  0  0  0  0  0  0  0  0
   42.8535   -0.5830   33.9411 C   0  0  0  0  0  0  0  0  0  0  0  0
   41.6492   -1.0515   34.4480 C   0  0  0  0  0  0  0  0  0  0  0  0
   40.8091   -1.7355   33.6037 C   0  0  0  0  0  0  0  0  0  0  0  0
   41.0843   -1.9861   32.2713 C   0  0  0  0  0  0  0  0  0  0  0  0
   40.1782   -2.7042   31.5303 O   0  0  0  0  0  0  0  0  0  0  0  0
   39.1329   -2.4051   34.2779 Br  0  0  0  0  0  0  0  0  0  0  0  0
   43.9185    0.1941   34.7837 C   0  0  0  0  0  0  0  0  0  0  0  0
   44.8211    1.1572   34.0041 C   0  0  0  0  0  0  0  0  0  0  0  0
   44.3007    2.1690   33.5883 O   0  0  0  0  0  0  0  0  0  0  0  0
   45.9902    0.8588   33.8466 O   0  0  0  0  0  0  0  0  0  0  0  0
   44.2361   -3.7196   24.9147 C   0  0  0  0  0  0  0  0  0  0  0  0
   44.0779   -5.0287   24.9006 N   0  0  0  0  0  0  0  0  0  0  0  0
   44.6310   -3.1448   23.7980 N   0  0  0  0  0  0  0  0  0  0  0  0
   43.7838   -5.4978   25.7146 H   0  0  0  0  0  0  0  0  0  0  0  0
   44.2538   -5.5369   24.0759 H   0  0  0  0  0  0  0  0  0  0  0  0
   44.7612   -2.1695   23.7657 H   0  0  0  0  0  0  0  0  0  0  0  0
   44.7960   -3.6903   22.9952 H   0  0  0  0  0  0  0  0  0  0  0  0
  1  2  2  0  0  0
  1  6  1  0  0  0
  1 23  1  0  0  0
  2  3  1  0  0  0
  3  4  2  0  0  0
  4  5  1  0  0  0
  4  7  1  0  0  0
  5  6  2  0  0  0
  5  8  1  0  0  0
 23 24  1  0  0  0
 23 25  2  0  0  0
  7  9  1  0  0  0
  8  9  2  0  0  0
  9 11  1  0  0  0
 11 12  2  0  0  0
 11 16  1  0  0  0
 12 13  1  0  0  0
 13 19  1  0  0  0
 13 14  2  0  0  0
 19 20  1  0  0  0
 20 21  2  0  0  0
 20 22  1  0  0  0
 14 15  1  0  0  0
 15 16  2  0  0  0
 15 18  1  0  0  0
 16 17  1  0  0  0
 24 26  1  0  0  0
 24 27  1  0  0  0
 25 28  1  0  0  0
 25 29  1  0  0  0
  7 10  1  0  0  0
M  CHG 1  17  -1
M  CHG 1  22  -1
M  CHG 1  25   1
M  END
> <minimizedAffinity>
-8.58636

$$$$
1O3L_678_A_246


 29 31  0  0  0  0  0  0  0  0999 V2000
   44.0541   -2.9007   26.2103 C   0  0  0  0  0  0  0  0  0  0  0  0
   44.3402   -1.5092   26.2501 C   0  0  0  0  0  0  0  0  0  0  0  0
   44.1516   -0.7276   27.3878 C   0  0  0  0  0  0  0  0  0  0  0  0
   43.6806   -1.3610   28.4953 C   0  0  0  0  0  0  0  0  0  0  0  0
   43.3798   -2.6702   28.5421 C   0  0  0  0  0  0  0  0  0  0  0  0
   43.5549   -3.4723   27.4150 C   0  0  0  0  0  0  0  0  0  0  0  0
   43.4078   -0.8492   29.6820 N   0  0  0  0  0  0  0  0  0  0  0  0
   42.9342   -2.9170   29.7813 C   0  0  0  0  0  0  0  0  0  0  0  0
   42.9397   -1.7609   30.5383 C   0  0  0  0  0  0  0  0  0  0  0  0
   43.5356    0.1000   29.9101 H   0  0  0  0  0  0  0  0  0  0  0  0
   42.7143   -1.5262   31.9314 C   0  0  0  0  0  0  0  0  0  0  0  0
   41.7001   -2.2217   32.6588 C   0  0  0  0  0  0  0  0  0  0  0  0
   41.4385   -2.0208   34.0361 C   0  0  0  0  0  0  0  0  0  0  0  0
   42.2222   -1.0966   34.7132 C   0  0  0  0  0  0  0  0  0  0  0  0
   43.1952   -0.4285   34.0107 C   0  0  0  0  0  0  0  0  0  0  0  0
   43.4499   -0.6207   32.6646 C   0  0  0  0  0  0  0  0  0  0  0  0
   44.4335    0.1248   32.0625 O   0  0  0  0  0  0  0  0  0  0  0  0
   44.2956    0.8659   34.9195 Br  0  0  0  0  0  0  0  0  0  0  0  0
   40.2820   -2.8429   34.6956 C   0  0  0  0  0  0  0  0  0  0  0  0
   39.2109   -2.0279   35.4293 C   0  0  0  0  0  0  0  0  0  0  0  0
   38.4193   -1.4274   34.7365 O   0  0  0  0  0  0  0  0  0  0  0  0
   39.2137   -2.0270   36.6461 O   0  0  0  0  0  0  0  0  0  0  0  0
   44.2679   -3.6699   25.0269 C   0  0  0  0  0  0  0  0  0  0  0  0
   44.5871   -3.0976   23.8827 N   0  0  0  0  0  0  0  0  0  0  0  0
   44.1570   -4.9818   25.0382 N   0  0  0  0  0  0  0  0  0  0  0  0
   44.6802   -2.1188   23.8310 H   0  0  0  0  0  0  0  0  0  0  0  0
   44.7323   -3.6489   23.0801 H   0  0  0  0  0  0  0  0  0  0  0  0
   43.9203   -5.4487   25.8720 H   0  0  0  0  0  0  0  0  0  0  0  0
   44.3107   -5.4959   24.2127 H   0  0  0  0  0  0  0  0  0  0  0  0
  1  2  2  0  0  0
  1  6  1  0  0  0
  1 23  1  0  0  0
  2  3  1  0  0  0
  3  4  2  0  0  0
  4  5  1  0  0  0
  4  7  1  0  0  0
  5  6  2  0  0  0
  5  8  1  0  0  0
 23 24  1  0  0  0
 23 25  2  0  0  0
  7  9  1  0  0  0
  8  9  2  0  0  0
  9 11  1  0  0  0
 11 12  2  0  0  0
 11 16  1  0  0  0
 12 13  1  0  0  0
 13 19  1  0  0  0
 13 14  2  0  0  0
 19 20  1  0  0  0
 20 21  2  0  0  0
 20 22  1  0  0  0
 14 15  1  0  0  0
 15 16  2  0  0  0
 15 18  1  0  0  0
 16 17  1  0  0  0
 24 26  1  0  0  0
 24 27  1  0  0  0
 25 28  1  0  0  0
 25 29  1  0  0  0
  7 10  1  0  0  0
M  CHG 1  17  -1
M  CHG 1  22  -1
M  CHG 1  25   1
M  END
> <minimizedAffinity>
-8.31095

$$$$
1O3L_678_A_246


 29 31  0  0  0  0  0  0  0  0999 V2000
   43.9407   -2.9053   26.3406 C   0  0  0  0  0  0  0  0  0  0  0  0
   44.5873   -1.6810   26.6611 C   0  0  0  0  0  0  0  0  0  0  0  0
   44.2598   -0.9198   27.7810 C   0  0  0  0  0  0  0  0  0  0  0  0
   43.2788   -1.4066   28.5873 C   0  0  0  0  0  0  0  0  0  0  0  0
   42.6135   -2.5513   28.3552 C   0  0  0  0  0  0  0  0  0  0  0  0
   42.9195   -3.3279   27.2382 C   0  0  0  0  0  0  0  0  0  0  0  0
   42.7810   -0.8756   29.6894 N   0  0  0  0  0  0  0  0  0  0  0  0
   41.7230   -2.6849   29.3472 C   0  0  0  0  0  0  0  0  0  0  0  0
   41.8069   -1.6182   30.2218 C   0  0  0  0  0  0  0  0  0  0  0  0
   43.0936   -0.0258   30.0760 H   0  0  0  0  0  0  0  0  0  0  0  0
   41.2010   -1.3718   31.4941 C   0  0  0  0  0  0  0  0  0  0  0  0
   40.1482   -0.4195   31.6560 C   0  0  0  0  0  0  0  0  0  0  0  0
   39.5207   -0.1399   32.8945 C   0  0  0  0  0  0  0  0  0  0  0  0
   39.9560   -0.8410   34.0107 C   0  0  0  0  0  0  0  0  0  0  0  0
   40.9693   -1.7545   33.8519 C   0  0  0  0  0  0  0  0  0  0  0  0
   41.5859   -2.0265   32.6437 C   0  0  0  0  0  0  0  0  0  0  0  0
   42.6074   -2.9437   32.6119 O   0  0  0  0  0  0  0  0  0  0  0  0
   41.6013   -2.7393   35.3826 Br  0  0  0  0  0  0  0  0  0  0  0  0
   38.3918    0.9431   32.9223 C   0  0  0  0  0  0  0  0  0  0  0  0
   38.0900    1.5652   34.2905 C   0  0  0  0  0  0  0  0  0  0  0  0
   37.0063    1.3157   34.7708 O   0  0  0  0  0  0  0  0  0  0  0  0
   38.9391    2.2644   34.8109 O   0  0  0  0  0  0  0  0  0  0  0  0
   44.3099   -3.6613   25.1874 C   0  0  0  0  0  0  0  0  0  0  0  0
   44.3105   -4.9798   25.2005 N   0  0  0  0  0  0  0  0  0  0  0  0
   44.6601   -3.0661   24.0664 N   0  0  0  0  0  0  0  0  0  0  0  0
   44.0551   -5.4641   26.0187 H   0  0  0  0  0  0  0  0  0  0  0  0
   44.5665   -5.4800   24.3920 H   0  0  0  0  0  0  0  0  0  0  0  0
   44.6730   -2.0831   24.0142 H   0  0  0  0  0  0  0  0  0  0  0  0
   44.9092   -3.6041   23.2804 H   0  0  0  0  0  0  0  0  0  0  0  0
  1  2  2  0  0  0
  1  6  1  0  0  0
  1 23  1  0  0  0
  2  3  1  0  0  0
  3  4  2  0  0  0
  4  5  1  0  0  0
  4  7  1  0  0  0
  5  6  2  0  0  0
  5  8  1  0  0  0
 23 24  1  0  0  0
 23 25  2  0  0  0
  7  9  1  0  0  0
  8  9  2  0  0  0
  9 11  1  0  0  0
 11 12  2  0  0  0
 11 16  1  0  0  0
 12 13  1  0  0  0
 13 19  1  0  0  0
 13 14  2  0  0  0
 19 20  1  0  0  0
 20 21  2  0  0  0
 20 22  1  0  0  0
 14 15  1  0  0  0
 15 16  2  0  0  0
 15 18  1  0  0  0
 16 17  1  0  0  0
 24 26  1  0  0  0
 24 27  1  0  0  0
 25 28  1  0  0  0
 25 29  1  0  0  0
  7 10  1  0  0  0
M  CHG 1  17  -1
M  CHG 1  22  -1
M  CHG 1  25   1
M  END
> <minimizedAffinity>
-7.75043

$$$$
1O3L_678_A_246


 29 31  0  0  0  0  0  0  0  0999 V2000
   43.6911   -2.9493   26.7325 C   0  0  0  0  0  0  0  0  0  0  0  0
   43.1731   -4.0829   27.4154 C   0  0  0  0  0  0  0  0  0  0  0  0
   42.8353   -4.0662   28.7668 C   0  0  0  0  0  0  0  0  0  0  0  0
   43.0129   -2.8915   29.4285 C   0  0  0  0  0  0  0  0  0  0  0  0
   43.5016   -1.7752   28.8611 C   0  0  0  0  0  0  0  0  0  0  0  0
   43.8518   -1.7684   27.5114 C   0  0  0  0  0  0  0  0  0  0  0  0
   42.7833   -2.6213   30.7008 N   0  0  0  0  0  0  0  0  0  0  0  0
   43.5452   -0.8438   29.8232 C   0  0  0  0  0  0  0  0  0  0  0  0
   43.0896   -1.3613   31.0208 C   0  0  0  0  0  0  0  0  0  0  0  0
   42.4256   -3.2765   31.3427 H   0  0  0  0  0  0  0  0  0  0  0  0
   42.7951   -0.7487   32.2796 C   0  0  0  0  0  0  0  0  0  0  0  0
   43.7594    0.0416   32.9775 C   0  0  0  0  0  0  0  0  0  0  0  0
   43.5149    0.6643   34.2257 C   0  0  0  0  0  0  0  0  0  0  0  0
   42.2599    0.4972   34.7949 C   0  0  0  0  0  0  0  0  0  0  0  0
   41.3357   -0.2644   34.1222 C   0  0  0  0  0  0  0  0  0  0  0  0
   41.5738   -0.8764   32.9046 C   0  0  0  0  0  0  0  0  0  0  0  0
   40.5798   -1.6361   32.3383 O   0  0  0  0  0  0  0  0  0  0  0  0
   39.5866   -0.5216   34.8883 Br  0  0  0  0  0  0  0  0  0  0  0  0
   44.6742    1.4859   34.8807 C   0  0  0  0  0  0  0  0  0  0  0  0
   44.2540    2.5321   35.9194 C   0  0  0  0  0  0  0  0  0  0  0  0
   44.4693    2.2589   37.0797 O   0  0  0  0  0  0  0  0  0  0  0  0
   43.7352    3.5616   35.5301 O   0  0  0  0  0  0  0  0  0  0  0  0
   44.0185   -3.0033   25.3441 C   0  0  0  0  0  0  0  0  0  0  0  0
   44.2500   -4.1503   24.7361 N   0  0  0  0  0  0  0  0  0  0  0  0
   44.0974   -1.9067   24.6198 N   0  0  0  0  0  0  0  0  0  0  0  0
   44.2013   -4.9939   25.2413 H   0  0  0  0  0  0  0  0  0  0  0  0
   44.4716   -4.1631   23.7769 H   0  0  0  0  0  0  0  0  0  0  0  0
   43.9318   -1.0295   25.0350 H   0  0  0  0  0  0  0  0  0  0  0  0
   44.3220   -1.9638   23.6630 H   0  0  0  0  0  0  0  0  0  0  0  0
  1  2  2  0  0  0
  1  6  1  0  0  0
  1 23  1  0  0  0
  2  3  1  0  0  0
  3  4  2  0  0  0
  4  5  1  0  0  0
  4  7  1  0  0  0
  5  6  2  0  0  0
  5  8  1  0  0  0
 23 24  1  0  0  0
 23 25  2  0  0  0
  7  9  1  0  0  0
  8  9  2  0  0  0
  9 11  1  0  0  0
 11 12  2  0  0  0
 11 16  1  0  0  0
 12 13  1  0  0  0
 13 19  1  0  0  0
 13 14  2  0  0  0
 19 20  1  0  0  0
 20 21  2  0  0  0
 20 22  1  0  0  0
 14 15  1  0  0  0
 15 16  2  0  0  0
 15 18  1  0  0  0
 16 17  1  0  0  0
 24 26  1  0  0  0
 24 27  1  0  0  0
 25 28  1  0  0  0
 25 29  1  0  0  0
  7 10  1  0  0  0
M  CHG 1  17  -1
M  CHG 1  22  -1
M  CHG 1  25   1
M  END
> <minimizedAffinity>
-7.64415

$$$$
1O3L_678_A_246


 29 31  0  0  0  0  0  0  0  0999 V2000
   43.4453    2.0577   35.3920 C   0  0  0  0  0  0  0  0  0  0  0  0
   42.2164    1.4301   35.7321 C   0  0  0  0  0  0  0  0  0  0  0  0
   41.6682    0.3840   34.9932 C   0  0  0  0  0  0  0  0  0  0  0  0
   42.3739   -0.0365   33.9094 C   0  0  0  0  0  0  0  0  0  0  0  0
   43.5395    0.5044   33.5149 C   0  0  0  0  0  0  0  0  0  0  0  0
   44.1057    1.5558   34.2348 C   0  0  0  0  0  0  0  0  0  0  0  0
   42.0683   -0.9904   33.0485 N   0  0  0  0  0  0  0  0  0  0  0  0
   43.9150   -0.1569   32.4118 C   0  0  0  0  0  0  0  0  0  0  0  0
   42.9848   -1.1256   32.0864 C   0  0  0  0  0  0  0  0  0  0  0  0
   41.2545   -1.5411   33.1093 H   0  0  0  0  0  0  0  0  0  0  0  0
   42.9958   -2.1782   31.1177 C   0  0  0  0  0  0  0  0  0  0  0  0
   43.2130   -1.9226   29.7288 C   0  0  0  0  0  0  0  0  0  0  0  0
   43.2296   -2.9305   28.7341 C   0  0  0  0  0  0  0  0  0  0  0  0
   43.0283   -4.2421   29.1416 C   0  0  0  0  0  0  0  0  0  0  0  0
   42.8181   -4.4843   30.4772 C   0  0  0  0  0  0  0  0  0  0  0  0
   42.7980   -3.5008   31.4499 C   0  0  0  0  0  0  0  0  0  0  0  0
   42.5525   -3.8606   32.7522 O   0  0  0  0  0  0  0  0  0  0  0  0
   42.5285   -6.2930   31.0747 Br  0  0  0  0  0  0  0  0  0  0  0  0
   43.4622   -2.4980   27.2485 C   0  0  0  0  0  0  0  0  0  0  0  0
   44.5316   -1.4237   27.0201 C   0  0  0  0  0  0  0  0  0  0  0  0
   45.2701   -1.5883   26.0742 O   0  0  0  0  0  0  0  0  0  0  0  0
   44.5812   -0.4808   27.7877 O   0  0  0  0  0  0  0  0  0  0  0  0
   43.9789    3.1224   36.1790 C   0  0  0  0  0  0  0  0  0  0  0  0
   45.2528    3.1558   36.5179 N   0  0  0  0  0  0  0  0  0  0  0  0
   43.2158    4.1128   36.5918 N   0  0  0  0  0  0  0  0  0  0  0  0
   45.8579    2.4347   36.2296 H   0  0  0  0  0  0  0  0  0  0  0  0
   45.5988    3.9018   37.0591 H   0  0  0  0  0  0  0  0  0  0  0  0
   42.2589    4.1262   36.3608 H   0  0  0  0  0  0  0  0  0  0  0  0
   43.6021    4.8398   37.1316 H   0  0  0  0  0  0  0  0  0  0  0  0
  1  2  2  0  0  0
  1  6  1  0  0  0
  1 23  1  0  0  0
  2  3  1  0  0  0
  3  4  2  0  0  0
  4  5  1  0  0  0
  4  7  1  0  0  0
  5  6  2  0  0  0
  5  8  1  0  0  0
 23 24  1  0  0  0
 23 25  2  0  0  0
  7  9  1  0  0  0
  8  9  2  0  0  0
  9 11  1  0  0  0
 11 12  2  0  0  0
 11 16  1  0  0  0
 12 13  1  0  0  0
 13 19  1  0  0  0
 13 14  2  0  0  0
 19 20  1  0  0  0
 20 21  2  0  0  0
 20 22  1  0  0  0
 14 15  1  0  0  0
 15 16  2  0  0  0
 15 18  1  0  0  0
 16 17  1  0  0  0
 24 26  1  0  0  0
 24 27  1  0  0  0
 25 28  1  0  0  0
 25 29  1  0  0  0
  7 10  1  0  0  0
M  CHG 1  17  -1
M  CHG 1  22  -1
M  CHG 1  25   1
M  END
> <minimizedAffinity>
-7.11010

$$$$
1O3L_678_A_246


 29 31  0  0  0  0  0  0  0  0999 V2000
   44.7047    1.0753   35.9637 C   0  0  0  0  0  0  0  0  0  0  0  0
   43.6390    0.3241   36.5291 C   0  0  0  0  0  0  0  0  0  0  0  0
   42.7649   -0.4468   35.7657 C   0  0  0  0  0  0  0  0  0  0  0  0
   42.9778   -0.4658   34.4227 C   0  0  0  0  0  0  0  0  0  0  0  0
   43.9571    0.2186   33.8067 C   0  0  0  0  0  0  0  0  0  0  0  0
   44.8412    1.0013   34.5484 C   0  0  0  0  0  0  0  0  0  0  0  0
   42.2910   -1.1006   33.4900 N   0  0  0  0  0  0  0  0  0  0  0  0
   43.8362   -0.0347   32.4967 C   0  0  0  0  0  0  0  0  0  0  0  0
   42.7693   -0.8812   32.2624 C   0  0  0  0  0  0  0  0  0  0  0  0
   41.5123   -1.6725   33.6789 H   0  0  0  0  0  0  0  0  0  0  0  0
   42.3264   -1.5621   31.0848 C   0  0  0  0  0  0  0  0  0  0  0  0
   43.2236   -1.8946   30.0237 C   0  0  0  0  0  0  0  0  0  0  0  0
   42.8311   -2.5645   28.8393 C   0  0  0  0  0  0  0  0  0  0  0  0
   41.4955   -2.9210   28.7124 C   0  0  0  0  0  0  0  0  0  0  0  0
   40.6354   -2.5984   29.7335 C   0  0  0  0  0  0  0  0  0  0  0  0
   41.0161   -1.9409   30.8896 C   0  0  0  0  0  0  0  0  0  0  0  0
   40.0608   -1.6485   31.8318 O   0  0  0  0  0  0  0  0  0  0  0  0
   38.7738   -3.0728   29.5854 Br  0  0  0  0  0  0  0  0  0  0  0  0
   43.9226   -2.8467   27.7543 C   0  0  0  0  0  0  0  0  0  0  0  0
   44.3790   -1.6381   26.9289 C   0  0  0  0  0  0  0  0  0  0  0  0
   44.2206   -0.5481   27.4330 O   0  0  0  0  0  0  0  0  0  0  0  0
   44.8661   -1.8347   25.8314 O   0  0  0  0  0  0  0  0  0  0  0  0
   45.5847    1.8477   36.7802 C   0  0  0  0  0  0  0  0  0  0  0  0
   46.7661    1.3885   37.1439 N   0  0  0  0  0  0  0  0  0  0  0  0
   45.2474    3.0503   37.1967 N   0  0  0  0  0  0  0  0  0  0  0  0
   47.0571    0.4938   36.8540 H   0  0  0  0  0  0  0  0  0  0  0  0
   47.3572    1.9404   37.7054 H   0  0  0  0  0  0  0  0  0  0  0  0
   44.3741    3.4305   36.9477 H   0  0  0  0  0  0  0  0  0  0  0  0
   45.8685    3.5693   37.7571 H   0  0  0  0  0  0  0  0  0  0  0  0
  1  2  2  0  0  0
  1  6  1  0  0  0
  1 23  1  0  0  0
  2  3  1  0  0  0
  3  4  2  0  0  0
  4  5  1  0  0  0
  4  7  1  0  0  0
  5  6  2  0  0  0
  5  8  1  0  0  0
 23 24  1  0  0  0
 23 25  2  0  0  0
  7  9  1  0  0  0
  8  9  2  0  0  0
  9 11  1  0  0  0
 11 12  2  0  0  0
 11 16  1  0  0  0
 12 13  1  0  0  0
 13 19  1  0  0  0
 13 14  2  0  0  0
 19 20  1  0  0  0
 20 21  2  0  0  0
 20 22  1  0  0  0
 14 15  1  0  0  0
 15 16  2  0  0  0
 15 18  1  0  0  0
 16 17  1  0  0  0
 24 26  1  0  0  0
 24 27  1  0  0  0
 25 28  1  0  0  0
 25 29  1  0  0  0
  7 10  1  0  0  0
M  CHG 1  17  -1
M  CHG 1  22  -1
M  CHG 1  25   1
M  END
> <minimizedAffinity>
-6.99926

$$$$
1O3L_678_A_246


 29 31  0  0  0  0  0  0  0  0999 V2000
   42.9322    1.4504   35.0905 C   0  0  0  0  0  0  0  0  0  0  0  0
   44.1331    1.8283   34.4312 C   0  0  0  0  0  0  0  0  0  0  0  0
   44.6016    1.1924   33.2836 C   0  0  0  0  0  0  0  0  0  0  0  0
   43.8440    0.1745   32.7943 C   0  0  0  0  0  0  0  0  0  0  0  0
   42.6999   -0.2497   33.3581 C   0  0  0  0  0  0  0  0  0  0  0  0
   42.2132    0.3672   34.5101 C   0  0  0  0  0  0  0  0  0  0  0  0
   44.0722   -0.5872   31.7397 N   0  0  0  0  0  0  0  0  0  0  0  0
   42.2580   -1.2684   32.6085 C   0  0  0  0  0  0  0  0  0  0  0  0
   43.1235   -1.5096   31.5586 C   0  0  0  0  0  0  0  0  0  0  0  0
   44.8554   -0.4861   31.1518 H   0  0  0  0  0  0  0  0  0  0  0  0
   43.0272   -2.3613   30.4132 C   0  0  0  0  0  0  0  0  0  0  0  0
   42.4051   -3.6459   30.4789 C   0  0  0  0  0  0  0  0  0  0  0  0
   42.2891   -4.5239   29.3737 C   0  0  0  0  0  0  0  0  0  0  0  0
   42.8074   -4.1014   28.1573 C   0  0  0  0  0  0  0  0  0  0  0  0
   43.4061   -2.8667   28.0979 C   0  0  0  0  0  0  0  0  0  0  0  0
   43.5236   -2.0091   29.1770 C   0  0  0  0  0  0  0  0  0  0  0  0
   44.1665   -0.8081   29.0031 O   0  0  0  0  0  0  0  0  0  0  0  0
   44.1417   -2.2534   26.4260 Br  0  0  0  0  0  0  0  0  0  0  0  0
   41.5972   -5.9088   29.6005 C   0  0  0  0  0  0  0  0  0  0  0  0
   42.2173   -6.8017   30.6814 C   0  0  0  0  0  0  0  0  0  0  0  0
   43.3064   -7.2715   30.4355 O   0  0  0  0  0  0  0  0  0  0  0  0
   41.5933   -6.9882   31.7092 O   0  0  0  0  0  0  0  0  0  0  0  0
   42.4806    2.1318   36.2607 C   0  0  0  0  0  0  0  0  0  0  0  0
   41.8407    1.4965   37.2228 N   0  0  0  0  0  0  0  0  0  0  0  0
   42.6912    3.4214   36.4218 N   0  0  0  0  0  0  0  0  0  0  0  0
   41.6626    0.5316   37.1419 H   0  0  0  0  0  0  0  0  0  0  0  0
   41.5409    1.9870   38.0221 H   0  0  0  0  0  0  0  0  0  0  0  0
   43.1653    3.9333   35.7272 H   0  0  0  0  0  0  0  0  0  0  0  0
   42.3747    3.8739   37.2369 H   0  0  0  0  0  0  0  0  0  0  0  0
  1  2  2  0  0  0
  1  6  1  0  0  0
  1 23  1  0  0  0
  2  3  1  0  0  0
  3  4  2  0  0  0
  4  5  1  0  0  0
  4  7  1  0  0  0
  5  6  2  0  0  0
  5  8  1  0  0  0
 23 24  1  0  0  0
 23 25  2  0  0  0
  7  9  1  0  0  0
  8  9  2  0  0  0
  9 11  1  0  0  0
 11 12  2  0  0  0
 11 16  1  0  0  0
 12 13  1  0  0  0
 13 19  1  0  0  0
 13 14  2  0  0  0
 19 20  1  0  0  0
 20 21  2  0  0  0
 20 22  1  0  0  0
 14 15  1  0  0  0
 15 16  2  0  0  0
 15 18  1  0  0  0
 16 17  1  0  0  0
 24 26  1  0  0  0
 24 27  1  0  0  0
 25 28  1  0  0  0
 25 29  1  0  0  0
  7 10  1  0  0  0
M  CHG 1  17  -1
M  CHG 1  22  -1
M  CHG 1  25   1
M  END
> <minimizedAffinity>
-6.90173

$$$$
1O3L_678_A_246


 29 31  0  0  0  0  0  0  0  0999 V2000
   42.9993    1.9903   35.7248 C   0  0  0  0  0  0  0  0  0  0  0  0
   44.2182    2.3507   35.0893 C   0  0  0  0  0  0  0  0  0  0  0  0
   44.7037    1.7029   33.9554 C   0  0  0  0  0  0  0  0  0  0  0  0
   43.9450    0.6910   33.4557 C   0  0  0  0  0  0  0  0  0  0  0  0
   42.7844    0.2831   33.9972 C   0  0  0  0  0  0  0  0  0  0  0  0
   42.2804    0.9121   35.1351 C   0  0  0  0  0  0  0  0  0  0  0  0
   44.1868   -0.0793   32.4103 N   0  0  0  0  0  0  0  0  0  0  0  0
   42.3467   -0.7348   33.2439 C   0  0  0  0  0  0  0  0  0  0  0  0
   43.2315   -0.9919   32.2140 C   0  0  0  0  0  0  0  0  0  0  0  0
   44.9834    0.0095   31.8387 H   0  0  0  0  0  0  0  0  0  0  0  0
   43.1498   -1.8489   31.0715 C   0  0  0  0  0  0  0  0  0  0  0  0
   43.3661   -1.3611   29.7460 C   0  0  0  0  0  0  0  0  0  0  0  0
   43.2929   -2.1700   28.5858 C   0  0  0  0  0  0  0  0  0  0  0  0
   42.9993   -3.5160   28.7556 C   0  0  0  0  0  0  0  0  0  0  0  0
   42.7904   -3.9814   30.0309 C   0  0  0  0  0  0  0  0  0  0  0  0
   42.8579   -3.1923   31.1651 C   0  0  0  0  0  0  0  0  0  0  0  0
   42.6044   -3.7644   32.3875 O   0  0  0  0  0  0  0  0  0  0  0  0
   42.3741   -5.8433   30.3003 Br  0  0  0  0  0  0  0  0  0  0  0  0
   43.5363   -1.4923   27.1967 C   0  0  0  0  0  0  0  0  0  0  0  0
   44.1249   -2.3914   26.1034 C   0  0  0  0  0  0  0  0  0  0  0  0
   43.4995   -3.3926   25.8320 O   0  0  0  0  0  0  0  0  0  0  0  0
   45.1701   -2.0578   25.5771 O   0  0  0  0  0  0  0  0  0  0  0  0
   42.5307    2.6834   36.8814 C   0  0  0  0  0  0  0  0  0  0  0  0
   43.3503    3.0309   37.8542 N   0  0  0  0  0  0  0  0  0  0  0  0
   41.2608    3.0039   37.0154 N   0  0  0  0  0  0  0  0  0  0  0  0
   44.3079    2.8104   37.7935 H   0  0  0  0  0  0  0  0  0  0  0  0
   43.0047    3.5108   38.6413 H   0  0  0  0  0  0  0  0  0  0  0  0
   40.6154    2.7630   36.3120 H   0  0  0  0  0  0  0  0  0  0  0  0
   40.9565    3.4843   37.8191 H   0  0  0  0  0  0  0  0  0  0  0  0
  1  2  2  0  0  0
  1  6  1  0  0  0
  1 23  1  0  0  0
  2  3  1  0  0  0
  3  4  2  0  0  0
  4  5  1  0  0  0
  4  7  1  0  0  0
  5  6  2  0  0  0
  5  8  1  0  0  0
 23 24  1  0  0  0
 23 25  2  0  0  0
  7  9  1  0  0  0
  8  9  2  0  0  0
  9 11  1  0  0  0
 11 12  2  0  0  0
 11 16  1  0  0  0
 12 13  1  0  0  0
 13 19  1  0  0  0
 13 14  2  0  0  0
 19 20  1  0  0  0
 20 21  2  0  0  0
 20 22  1  0  0  0
 14 15  1  0  0  0
 15 16  2  0  0  0
 15 18  1  0  0  0
 16 17  1  0  0  0
 24 26  1  0  0  0
 24 27  1  0  0  0
 25 28  1  0  0  0
 25 29  1  0  0  0
  7 10  1  0  0  0
M  CHG 1  17  -1
M  CHG 1  22  -1
M  CHG 1  25   1
M  END
> <minimizedAffinity>
-6.70433

$$$$
1O3L_678_A_246


 29 31  0  0  0  0  0  0  0  0999 V2000
   42.7539   -3.3745   29.4076 C   0  0  0  0  0  0  0  0  0  0  0  0
   43.2783   -2.1598   28.8889 C   0  0  0  0  0  0  0  0  0  0  0  0
   43.5179   -1.0376   29.6790 C   0  0  0  0  0  0  0  0  0  0  0  0
   43.2350   -1.1497   31.0045 C   0  0  0  0  0  0  0  0  0  0  0  0
   42.7325   -2.2581   31.5752 C   0  0  0  0  0  0  0  0  0  0  0  0
   42.4791   -3.3922   30.8045 C   0  0  0  0  0  0  0  0  0  0  0  0
   43.3598   -0.2380   31.9520 N   0  0  0  0  0  0  0  0  0  0  0  0
   42.5739   -1.9810   32.8764 C   0  0  0  0  0  0  0  0  0  0  0  0
   42.9687   -0.6849   33.1483 C   0  0  0  0  0  0  0  0  0  0  0  0
   43.7034    0.6710   31.7939 H   0  0  0  0  0  0  0  0  0  0  0  0
   43.1418    0.0266   34.3773 C   0  0  0  0  0  0  0  0  0  0  0  0
   44.4325    0.2293   34.9558 C   0  0  0  0  0  0  0  0  0  0  0  0
   44.6525    0.9236   36.1704 C   0  0  0  0  0  0  0  0  0  0  0  0
   43.5444    1.4397   36.8281 C   0  0  0  0  0  0  0  0  0  0  0  0
   42.3050    1.2417   36.2701 C   0  0  0  0  0  0  0  0  0  0  0  0
   42.0876    0.5608   35.0857 C   0  0  0  0  0  0  0  0  0  0  0  0
   40.7990    0.4032   34.6379 O   0  0  0  0  0  0  0  0  0  0  0  0
   40.7458    1.9393   37.1615 Br  0  0  0  0  0  0  0  0  0  0  0  0
   46.1222    1.0520   36.6916 C   0  0  0  0  0  0  0  0  0  0  0  0
   46.9978   -0.1983   36.5503 C   0  0  0  0  0  0  0  0  0  0  0  0
   48.0051   -0.0811   35.8878 O   0  0  0  0  0  0  0  0  0  0  0  0
   46.6402   -1.2232   37.1003 O   0  0  0  0  0  0  0  0  0  0  0  0
   42.5291   -4.5061   28.5669 C   0  0  0  0  0  0  0  0  0  0  0  0
   41.9893   -5.6144   29.0349 N   0  0  0  0  0  0  0  0  0  0  0  0
   42.8507   -4.4807   27.2904 N   0  0  0  0  0  0  0  0  0  0  0  0
   41.7343   -5.6751   29.9839 H   0  0  0  0  0  0  0  0  0  0  0  0
   41.8415   -6.3812   28.4354 H   0  0  0  0  0  0  0  0  0  0  0  0
   43.2560   -3.6725   26.9009 H   0  0  0  0  0  0  0  0  0  0  0  0
   42.6857   -5.2699   26.7254 H   0  0  0  0  0  0  0  0  0  0  0  0
  1  2  2  0  0  0
  1  6  1  0  0  0
  1 23  1  0  0  0
  2  3  1  0  0  0
  3  4  2  0  0  0
  4  5  1  0  0  0
  4  7  1  0  0  0
  5  6  2  0  0  0
  5  8  1  0  0  0
 23 24  1  0  0  0
 23 25  2  0  0  0
  7  9  1  0  0  0
  8  9  2  0  0  0
  9 11  1  0  0  0
 11 12  2  0  0  0
 11 16  1  0  0  0
 12 13  1  0  0  0
 13 19  1  0  0  0
 13 14  2  0  0  0
 19 20  1  0  0  0
 20 21  2  0  0  0
 20 22  1  0  0  0
 14 15  1  0  0  0
 15 16  2  0  0  0
 15 18  1  0  0  0
 16 17  1  0  0  0
 24 26  1  0  0  0
 24 27  1  0  0  0
 25 28  1  0  0  0
 25 29  1  0  0  0
  7 10  1  0  0  0
M  CHG 1  17  -1
M  CHG 1  22  -1
M  CHG 1  25   1
M  END
> <minimizedAffinity>
-6.61508

$$$$
