2A5B_8HG_A_255


 26 28  0  0  0  0  0  0  0  0999 V2000
    1.6934   29.1479    0.9331 O   0  0  0  0  0  0  0  0  0  0  0  0
    1.4166   28.4205   -0.0507 C   0  0  0  0  0  0  0  0  0  0  0  0
    0.7083   27.3109    0.1738 N   0  0  0  0  0  0  0  0  0  0  0  0
    0.3818   26.5120   -0.8429 C   0  0  0  0  0  0  0  0  0  0  0  0
   -0.3174   25.4149   -0.6608 N   0  0  0  0  0  0  0  0  0  0  0  0
    0.7261   26.7451   -2.1075 N   0  0  0  0  0  0  0  0  0  0  0  0
    1.4464   27.8494   -2.3965 C   0  0  0  0  0  0  0  0  0  0  0  0
    1.8182   28.7343   -1.3636 C   0  0  0  0  0  0  0  0  0  0  0  0
    2.5273   29.7445   -1.9358 N   0  0  0  0  0  0  0  0  0  0  0  0
    2.5546   29.4315   -3.2407 C   0  0  0  0  0  0  0  0  0  0  0  0
    3.1588   30.1573   -4.1122 O   0  0  0  0  0  0  0  0  0  0  0  0
    1.9092   28.2963   -3.5632 N   0  0  0  0  0  0  0  0  0  0  0  0
    0.4274   27.0828    1.0894 H   0  0  0  0  0  0  0  0  0  0  0  0
   -0.6145   25.1650    0.2439 H   0  0  0  0  0  0  0  0  0  0  0  0
   -0.5443   24.8426   -1.4291 H   0  0  0  0  0  0  0  0  0  0  0  0
    2.9290   30.5270   -1.4935 H   0  0  0  0  0  0  0  0  0  0  0  0
    1.7486   27.6644   -4.9126 C   0  0  0  0  0  0  0  0  0  0  0  0
    2.2606   28.3403   -6.0863 O   0  0  0  0  0  0  0  0  0  0  0  0
    0.2608   27.4848   -5.1950 C   0  0  0  0  0  0  0  0  0  0  0  0
    0.1591   27.4881   -6.7066 C   0  0  0  0  0  0  0  0  0  0  0  0
   -0.4118   26.2212   -7.0421 O   0  0  0  0  0  0  0  0  0  0  0  0
    1.6118   27.6439   -7.1630 C   0  0  0  0  0  0  0  0  0  0  0  0
    0.1163   25.5125   -6.6423 H   0  0  0  0  0  0  0  0  0  0  0  0
    1.7595   28.2773   -8.5313 C   0  0  0  0  0  0  0  0  0  0  0  0
    0.4764   28.2782   -9.1812 O   0  0  0  0  0  0  0  0  0  0  0  0
    0.1576   27.3663   -9.2686 H   0  0  0  0  0  0  0  0  0  0  0  0
  1  2  2  0  0  0
  2  3  1  0  0  0
  2  8  1  0  0  0
  3  4  1  0  0  0
  4  5  1  0  0  0
  4  6  2  0  0  0
  6  7  1  0  0  0
  7  8  2  0  0  0
  7 12  1  0  0  0
  8  9  1  0  0  0
  9 10  1  0  0  0
 10 11  2  0  0  0
 10 12  1  0  0  0
 12 17  1  0  0  0
 17 18  1  0  0  0
 17 19  1  0  0  0
 18 22  1  0  0  0
 19 20  1  0  0  0
 20 21  1  0  0  0
 20 22  1  0  0  0
 22 24  1  0  0  0
 24 25  1  0  0  0
  3 13  1  0  0  0
  5 14  1  0  0  0
  5 15  1  0  0  0
  9 16  1  0  0  0
 21 23  1  0  0  0
 25 26  1  0  0  0
M  END
> <minimizedAffinity>
-8.32983

$$$$
2A5B_8HG_A_255


 26 28  0  0  0  0  0  0  0  0999 V2000
   -0.4342   25.9245   -1.6529 O   0  0  0  0  0  0  0  0  0  0  0  0
    0.3304   26.9135   -1.7567 C   0  0  0  0  0  0  0  0  0  0  0  0
    0.6959   27.5396   -0.6353 N   0  0  0  0  0  0  0  0  0  0  0  0
    1.5156   28.5898   -0.6956 C   0  0  0  0  0  0  0  0  0  0  0  0
    1.9000   29.2277    0.3865 N   0  0  0  0  0  0  0  0  0  0  0  0
    2.0091   29.0793   -1.8310 N   0  0  0  0  0  0  0  0  0  0  0  0
    1.6722   28.4910   -2.9981 C   0  0  0  0  0  0  0  0  0  0  0  0
    0.8117   27.3740   -2.9976 C   0  0  0  0  0  0  0  0  0  0  0  0
    0.6470   26.9931   -4.2932 N   0  0  0  0  0  0  0  0  0  0  0  0
    1.3851   27.8697   -4.9920 C   0  0  0  0  0  0  0  0  0  0  0  0
    1.4658   27.8368   -6.2741 O   0  0  0  0  0  0  0  0  0  0  0  0
    2.0253   28.7892   -4.2477 N   0  0  0  0  0  0  0  0  0  0  0  0
    0.3604   27.2260    0.2355 H   0  0  0  0  0  0  0  0  0  0  0  0
    1.5826   28.9329    1.2705 H   0  0  0  0  0  0  0  0  0  0  0  0
    2.5054   30.0005    0.3134 H   0  0  0  0  0  0  0  0  0  0  0  0
    0.1090   26.2448   -4.6395 H   0  0  0  0  0  0  0  0  0  0  0  0
    2.9209   29.9009   -4.7037 C   0  0  0  0  0  0  0  0  0  0  0  0
    2.4259   30.8776   -5.6511 O   0  0  0  0  0  0  0  0  0  0  0  0
    4.1442   29.2960   -5.3844 C   0  0  0  0  0  0  0  0  0  0  0  0
    4.6153   30.3712   -6.3421 C   0  0  0  0  0  0  0  0  0  0  0  0
    5.9509   30.6733   -5.9317 O   0  0  0  0  0  0  0  0  0  0  0  0
    3.6293   31.5179   -6.1063 C   0  0  0  0  0  0  0  0  0  0  0  0
    5.9563   30.8975   -4.9880 H   0  0  0  0  0  0  0  0  0  0  0  0
    3.4661   32.4404   -7.2969 C   0  0  0  0  0  0  0  0  0  0  0  0
    4.7490   33.0013   -7.6261 O   0  0  0  0  0  0  0  0  0  0  0  0
    5.0904   33.4964   -6.8651 H   0  0  0  0  0  0  0  0  0  0  0  0
  1  2  2  0  0  0
  2  3  1  0  0  0
  2  8  1  0  0  0
  3  4  1  0  0  0
  4  5  1  0  0  0
  4  6  2  0  0  0
  6  7  1  0  0  0
  7  8  2  0  0  0
  7 12  1  0  0  0
  8  9  1  0  0  0
  9 10  1  0  0  0
 10 11  2  0  0  0
 10 12  1  0  0  0
 12 17  1  0  0  0
 17 18  1  0  0  0
 17 19  1  0  0  0
 18 22  1  0  0  0
 19 20  1  0  0  0
 20 21  1  0  0  0
 20 22  1  0  0  0
 22 24  1  0  0  0
 24 25  1  0  0  0
  3 13  1  0  0  0
  5 14  1  0  0  0
  5 15  1  0  0  0
  9 16  1  0  0  0
 21 23  1  0  0  0
 25 26  1  0  0  0
M  END
> <minimizedAffinity>
-8.15998

$$$$
2A5B_8HG_A_255


 26 28  0  0  0  0  0  0  0  0999 V2000
    2.2801   29.2668    1.1468 O   0  0  0  0  0  0  0  0  0  0  0  0
    2.0049   29.0428   -0.0563 C   0  0  0  0  0  0  0  0  0  0  0  0
    2.5400   29.8467   -0.9785 N   0  0  0  0  0  0  0  0  0  0  0  0
    2.2838   29.6410   -2.2711 C   0  0  0  0  0  0  0  0  0  0  0  0
    2.7958   30.4084   -3.2062 N   0  0  0  0  0  0  0  0  0  0  0  0
    1.5033   28.6625   -2.7243 N   0  0  0  0  0  0  0  0  0  0  0  0
    0.9304   27.8196   -1.8394 C   0  0  0  0  0  0  0  0  0  0  0  0
    1.1673   27.9846   -0.4592 C   0  0  0  0  0  0  0  0  0  0  0  0
    0.4736   27.0090    0.1871 N   0  0  0  0  0  0  0  0  0  0  0  0
   -0.1329   26.3272   -0.7972 C   0  0  0  0  0  0  0  0  0  0  0  0
   -0.9027   25.3238   -0.5692 O   0  0  0  0  0  0  0  0  0  0  0  0
    0.1200   26.7808   -2.0380 N   0  0  0  0  0  0  0  0  0  0  0  0
    3.1233   30.5910   -0.7044 H   0  0  0  0  0  0  0  0  0  0  0  0
    3.3854   31.1574   -2.9602 H   0  0  0  0  0  0  0  0  0  0  0  0
    2.5898   30.2345   -4.1531 H   0  0  0  0  0  0  0  0  0  0  0  0
    0.4271   26.8412    1.1561 H   0  0  0  0  0  0  0  0  0  0  0  0
   -0.3909   26.2573   -3.3459 C   0  0  0  0  0  0  0  0  0  0  0  0
    0.3162   26.5722   -4.5696 O   0  0  0  0  0  0  0  0  0  0  0  0
   -1.8002   26.7947   -3.5713 C   0  0  0  0  0  0  0  0  0  0  0  0
   -1.9684   26.7972   -5.0769 C   0  0  0  0  0  0  0  0  0  0  0  0
   -3.0862   25.9417   -5.3261 O   0  0  0  0  0  0  0  0  0  0  0  0
   -0.6404   26.2319   -5.5866 C   0  0  0  0  0  0  0  0  0  0  0  0
   -2.9343   25.0806   -4.9060 H   0  0  0  0  0  0  0  0  0  0  0  0
   -0.2843   26.6755   -6.9907 C   0  0  0  0  0  0  0  0  0  0  0  0
   -1.4990   26.9439   -7.7127 O   0  0  0  0  0  0  0  0  0  0  0  0
   -2.0407   26.1399   -7.7444 H   0  0  0  0  0  0  0  0  0  0  0  0
  1  2  2  0  0  0
  2  3  1  0  0  0
  2  8  1  0  0  0
  3  4  1  0  0  0
  4  5  1  0  0  0
  4  6  2  0  0  0
  6  7  1  0  0  0
  7  8  2  0  0  0
  7 12  1  0  0  0
  8  9  1  0  0  0
  9 10  1  0  0  0
 10 11  2  0  0  0
 10 12  1  0  0  0
 12 17  1  0  0  0
 17 18  1  0  0  0
 17 19  1  0  0  0
 18 22  1  0  0  0
 19 20  1  0  0  0
 20 21  1  0  0  0
 20 22  1  0  0  0
 22 24  1  0  0  0
 24 25  1  0  0  0
  3 13  1  0  0  0
  5 14  1  0  0  0
  5 15  1  0  0  0
  9 16  1  0  0  0
 21 23  1  0  0  0
 25 26  1  0  0  0
M  END
> <minimizedAffinity>
-7.99874

$$$$
2A5B_8HG_A_255


 26 28  0  0  0  0  0  0  0  0999 V2000
   -0.4310   26.1578   -1.2876 O   0  0  0  0  0  0  0  0  0  0  0  0
   -0.0095   26.6788   -2.3480 C   0  0  0  0  0  0  0  0  0  0  0  0
   -0.4454   26.1763   -3.5058 N   0  0  0  0  0  0  0  0  0  0  0  0
   -0.0324   26.7044   -4.6587 C   0  0  0  0  0  0  0  0  0  0  0  0
   -0.4430   26.2393   -5.8166 N   0  0  0  0  0  0  0  0  0  0  0  0
    0.8151   27.7275   -4.7426 N   0  0  0  0  0  0  0  0  0  0  0  0
    1.2936   28.2756   -3.6057 C   0  0  0  0  0  0  0  0  0  0  0  0
    0.8901   27.7624   -2.3560 C   0  0  0  0  0  0  0  0  0  0  0  0
    1.5196   28.4955   -1.3983 N   0  0  0  0  0  0  0  0  0  0  0  0
    2.2524   29.3826   -2.0895 C   0  0  0  0  0  0  0  0  0  0  0  0
    3.0081   30.2495   -1.5161 O   0  0  0  0  0  0  0  0  0  0  0  0
    2.1414   29.2876   -3.4266 N   0  0  0  0  0  0  0  0  0  0  0  0
   -1.0712   25.4163   -3.5084 H   0  0  0  0  0  0  0  0  0  0  0  0
   -1.0719   25.4825   -5.8480 H   0  0  0  0  0  0  0  0  0  0  0  0
   -0.1219   26.6475   -6.6529 H   0  0  0  0  0  0  0  0  0  0  0  0
    1.4529   28.3976   -0.4210 H   0  0  0  0  0  0  0  0  0  0  0  0
    2.8151   30.1130   -4.4805 C   0  0  0  0  0  0  0  0  0  0  0  0
    2.1132   30.4182   -5.7096 O   0  0  0  0  0  0  0  0  0  0  0  0
    4.0799   29.3912   -4.9333 C   0  0  0  0  0  0  0  0  0  0  0  0
    4.3127   29.8851   -6.3465 C   0  0  0  0  0  0  0  0  0  0  0  0
    5.6020   30.5016   -6.3155 O   0  0  0  0  0  0  0  0  0  0  0  0
    3.1673   30.8748   -6.5732 C   0  0  0  0  0  0  0  0  0  0  0  0
    5.6248   31.1685   -5.6115 H   0  0  0  0  0  0  0  0  0  0  0  0
    2.7871   31.0490   -8.0293 C   0  0  0  0  0  0  0  0  0  0  0  0
    3.8920   30.6290   -8.8488 O   0  0  0  0  0  0  0  0  0  0  0  0
    4.6717   31.1674   -8.6411 H   0  0  0  0  0  0  0  0  0  0  0  0
  1  2  2  0  0  0
  2  3  1  0  0  0
  2  8  1  0  0  0
  3  4  1  0  0  0
  4  5  1  0  0  0
  4  6  2  0  0  0
  6  7  1  0  0  0
  7  8  2  0  0  0
  7 12  1  0  0  0
  8  9  1  0  0  0
  9 10  1  0  0  0
 10 11  2  0  0  0
 10 12  1  0  0  0
 12 17  1  0  0  0
 17 18  1  0  0  0
 17 19  1  0  0  0
 18 22  1  0  0  0
 19 20  1  0  0  0
 20 21  1  0  0  0
 20 22  1  0  0  0
 22 24  1  0  0  0
 24 25  1  0  0  0
  3 13  1  0  0  0
  5 14  1  0  0  0
  5 15  1  0  0  0
  9 16  1  0  0  0
 21 23  1  0  0  0
 25 26  1  0  0  0
M  END
> <minimizedAffinity>
-7.95258

$$$$
2A5B_8HG_A_255


 26 28  0  0  0  0  0  0  0  0999 V2000
    0.5210   26.7516   -0.2802 O   0  0  0  0  0  0  0  0  0  0  0  0
    1.0703   27.7196   -0.8588 C   0  0  0  0  0  0  0  0  0  0  0  0
    1.4673   28.7507   -0.1088 N   0  0  0  0  0  0  0  0  0  0  0  0
    2.0651   29.7978   -0.6788 C   0  0  0  0  0  0  0  0  0  0  0  0
    2.4727   30.8277    0.0273 N   0  0  0  0  0  0  0  0  0  0  0  0
    2.2986   29.8957   -1.9857 N   0  0  0  0  0  0  0  0  0  0  0  0
    1.9163   28.8863   -2.7960 C   0  0  0  0  0  0  0  0  0  0  0  0
    1.2828   27.7508   -2.2507 C   0  0  0  0  0  0  0  0  0  0  0  0
    1.0124   26.9069   -3.2829 N   0  0  0  0  0  0  0  0  0  0  0  0
    1.4739   27.5511   -4.3662 C   0  0  0  0  0  0  0  0  0  0  0  0
    1.3807   27.0632   -5.5514 O   0  0  0  0  0  0  0  0  0  0  0  0
    2.0324   28.7490   -4.1162 N   0  0  0  0  0  0  0  0  0  0  0  0
    1.3187   28.7379    0.8643 H   0  0  0  0  0  0  0  0  0  0  0  0
    2.3401   30.8393    1.0028 H   0  0  0  0  0  0  0  0  0  0  0  0
    2.9109   31.5881   -0.4189 H   0  0  0  0  0  0  0  0  0  0  0  0
    0.5773   26.0246   -3.2442 H   0  0  0  0  0  0  0  0  0  0  0  0
    2.6380   29.7177   -5.0860 C   0  0  0  0  0  0  0  0  0  0  0  0
    2.1333   29.7853   -6.4415 O   0  0  0  0  0  0  0  0  0  0  0  0
    4.1184   29.3886   -5.2467 C   0  0  0  0  0  0  0  0  0  0  0  0
    4.4740   29.9062   -6.6254 C   0  0  0  0  0  0  0  0  0  0  0  0
    5.5043   30.8720   -6.4039 O   0  0  0  0  0  0  0  0  0  0  0  0
    3.1631   30.5153   -7.1285 C   0  0  0  0  0  0  0  0  0  0  0  0
    5.1992   31.5278   -5.7576 H   0  0  0  0  0  0  0  0  0  0  0  0
    3.0421   30.5476   -8.6383 C   0  0  0  0  0  0  0  0  0  0  0  0
    3.1305   31.9136   -9.0799 O   0  0  0  0  0  0  0  0  0  0  0  0
    2.4155   32.4306   -8.6770 H   0  0  0  0  0  0  0  0  0  0  0  0
  1  2  2  0  0  0
  2  3  1  0  0  0
  2  8  1  0  0  0
  3  4  1  0  0  0
  4  5  1  0  0  0
  4  6  2  0  0  0
  6  7  1  0  0  0
  7  8  2  0  0  0
  7 12  1  0  0  0
  8  9  1  0  0  0
  9 10  1  0  0  0
 10 11  2  0  0  0
 10 12  1  0  0  0
 12 17  1  0  0  0
 17 18  1  0  0  0
 17 19  1  0  0  0
 18 22  1  0  0  0
 19 20  1  0  0  0
 20 21  1  0  0  0
 20 22  1  0  0  0
 22 24  1  0  0  0
 24 25  1  0  0  0
  3 13  1  0  0  0
  5 14  1  0  0  0
  5 15  1  0  0  0
  9 16  1  0  0  0
 21 23  1  0  0  0
 25 26  1  0  0  0
M  END
> <minimizedAffinity>
-7.60634

$$$$
2A5B_8HG_A_255


 26 28  0  0  0  0  0  0  0  0999 V2000
    1.0812   26.3262   -2.1220 O   0  0  0  0  0  0  0  0  0  0  0  0
    1.5365   27.4066   -2.5680 C   0  0  0  0  0  0  0  0  0  0  0  0
    1.8454   28.3632   -1.6890 N   0  0  0  0  0  0  0  0  0  0  0  0
    2.3420   29.5250   -2.1159 C   0  0  0  0  0  0  0  0  0  0  0  0
    2.6613   30.4871   -1.2805 N   0  0  0  0  0  0  0  0  0  0  0  0
    2.5550   29.8124   -3.3981 N   0  0  0  0  0  0  0  0  0  0  0  0
    2.2582   28.8864   -4.3341 C   0  0  0  0  0  0  0  0  0  0  0  0
    1.7338   27.6372   -3.9432 C   0  0  0  0  0  0  0  0  0  0  0  0
    1.5318   26.9135   -5.0774 N   0  0  0  0  0  0  0  0  0  0  0  0
    1.9246   27.7319   -6.0661 C   0  0  0  0  0  0  0  0  0  0  0  0
    1.8658   27.3954   -7.3050 O   0  0  0  0  0  0  0  0  0  0  0  0
    2.3752   28.9325   -5.6605 N   0  0  0  0  0  0  0  0  0  0  0  0
    1.7066   28.2109   -0.7263 H   0  0  0  0  0  0  0  0  0  0  0  0
    2.5363   30.3600   -0.3122 H   0  0  0  0  0  0  0  0  0  0  0  0
    3.0256   31.3353   -1.6226 H   0  0  0  0  0  0  0  0  0  0  0  0
    1.1781   25.9981   -5.1552 H   0  0  0  0  0  0  0  0  0  0  0  0
    2.8832   30.0696   -6.4941 C   0  0  0  0  0  0  0  0  0  0  0  0
    3.5984   31.1585   -5.8620 O   0  0  0  0  0  0  0  0  0  0  0  0
    1.6985   30.7402   -7.1815 C   0  0  0  0  0  0  0  0  0  0  0  0
    2.1574   32.1634   -7.4244 C   0  0  0  0  0  0  0  0  0  0  0  0
    2.0892   32.3377   -8.8415 O   0  0  0  0  0  0  0  0  0  0  0  0
    3.5859   32.1780   -6.8748 C   0  0  0  0  0  0  0  0  0  0  0  0
    2.5965   31.6357   -9.2784 H   0  0  0  0  0  0  0  0  0  0  0  0
    4.0563   33.5467   -6.4272 C   0  0  0  0  0  0  0  0  0  0  0  0
    3.1662   34.5401   -6.9653 O   0  0  0  0  0  0  0  0  0  0  0  0
    3.1695   34.4866   -7.9338 H   0  0  0  0  0  0  0  0  0  0  0  0
  1  2  2  0  0  0
  2  3  1  0  0  0
  2  8  1  0  0  0
  3  4  1  0  0  0
  4  5  1  0  0  0
  4  6  2  0  0  0
  6  7  1  0  0  0
  7  8  2  0  0  0
  7 12  1  0  0  0
  8  9  1  0  0  0
  9 10  1  0  0  0
 10 11  2  0  0  0
 10 12  1  0  0  0
 12 17  1  0  0  0
 17 18  1  0  0  0
 17 19  1  0  0  0
 18 22  1  0  0  0
 19 20  1  0  0  0
 20 21  1  0  0  0
 20 22  1  0  0  0
 22 24  1  0  0  0
 24 25  1  0  0  0
  3 13  1  0  0  0
  5 14  1  0  0  0
  5 15  1  0  0  0
  9 16  1  0  0  0
 21 23  1  0  0  0
 25 26  1  0  0  0
M  END
> <minimizedAffinity>
-7.49657

$$$$
2A5B_8HG_A_255


 26 28  0  0  0  0  0  0  0  0999 V2000
   -1.3472   25.5304   -4.8772 O   0  0  0  0  0  0  0  0  0  0  0  0
   -0.6414   26.4151   -5.4181 C   0  0  0  0  0  0  0  0  0  0  0  0
   -0.7864   26.6123   -6.7308 N   0  0  0  0  0  0  0  0  0  0  0  0
   -0.0645   27.5489   -7.3474 C   0  0  0  0  0  0  0  0  0  0  0  0
   -0.1834   27.7740   -8.6361 N   0  0  0  0  0  0  0  0  0  0  0  0
    0.8237   28.3248   -6.7299 N   0  0  0  0  0  0  0  0  0  0  0  0
    1.0174   28.1695   -5.4033 C   0  0  0  0  0  0  0  0  0  0  0  0
    0.2803   27.1977   -4.6959 C   0  0  0  0  0  0  0  0  0  0  0  0
    0.6750   27.2618   -3.3955 N   0  0  0  0  0  0  0  0  0  0  0  0
    1.6031   28.2313   -3.3791 C   0  0  0  0  0  0  0  0  0  0  0  0
    2.2252   28.5732   -2.3080 O   0  0  0  0  0  0  0  0  0  0  0  0
    1.8373   28.8096   -4.5707 N   0  0  0  0  0  0  0  0  0  0  0  0
   -1.4258   26.0665   -7.2432 H   0  0  0  0  0  0  0  0  0  0  0  0
   -0.8181   27.2453   -9.1717 H   0  0  0  0  0  0  0  0  0  0  0  0
    0.3622   28.4715   -9.0664 H   0  0  0  0  0  0  0  0  0  0  0  0
    0.3532   26.7203   -2.6389 H   0  0  0  0  0  0  0  0  0  0  0  0
    2.7993   29.9101   -4.9016 C   0  0  0  0  0  0  0  0  0  0  0  0
    2.3873   30.9810   -5.7848 O   0  0  0  0  0  0  0  0  0  0  0  0
    4.0214   29.3035   -5.5828 C   0  0  0  0  0  0  0  0  0  0  0  0
    4.5786   30.4274   -6.4322 C   0  0  0  0  0  0  0  0  0  0  0  0
    5.9083   30.6324   -5.9492 O   0  0  0  0  0  0  0  0  0  0  0  0
    3.6355   31.5974   -6.1415 C   0  0  0  0  0  0  0  0  0  0  0  0
    5.8849   30.7808   -4.9909 H   0  0  0  0  0  0  0  0  0  0  0  0
    3.5625   32.6178   -7.2589 C   0  0  0  0  0  0  0  0  0  0  0  0
    4.8995   33.0149   -7.6103 O   0  0  0  0  0  0  0  0  0  0  0  0
    5.3366   33.4004   -6.8349 H   0  0  0  0  0  0  0  0  0  0  0  0
  1  2  2  0  0  0
  2  3  1  0  0  0
  2  8  1  0  0  0
  3  4  1  0  0  0
  4  5  1  0  0  0
  4  6  2  0  0  0
  6  7  1  0  0  0
  7  8  2  0  0  0
  7 12  1  0  0  0
  8  9  1  0  0  0
  9 10  1  0  0  0
 10 11  2  0  0  0
 10 12  1  0  0  0
 12 17  1  0  0  0
 17 18  1  0  0  0
 17 19  1  0  0  0
 18 22  1  0  0  0
 19 20  1  0  0  0
 20 21  1  0  0  0
 20 22  1  0  0  0
 22 24  1  0  0  0
 24 25  1  0  0  0
  3 13  1  0  0  0
  5 14  1  0  0  0
  5 15  1  0  0  0
  9 16  1  0  0  0
 21 23  1  0  0  0
 25 26  1  0  0  0
M  END
> <minimizedAffinity>
-7.46241

$$$$
2A5B_8HG_A_255


 26 28  0  0  0  0  0  0  0  0999 V2000
   -0.2308   27.2217   -0.6296 O   0  0  0  0  0  0  0  0  0  0  0  0
    0.5454   27.9297   -1.3151 C   0  0  0  0  0  0  0  0  0  0  0  0
    1.1825   28.9301   -0.7016 N   0  0  0  0  0  0  0  0  0  0  0  0
    2.0252   29.7032   -1.3876 C   0  0  0  0  0  0  0  0  0  0  0  0
    2.6727   30.6935   -0.8169 N   0  0  0  0  0  0  0  0  0  0  0  0
    2.2829   29.5483   -2.6844 N   0  0  0  0  0  0  0  0  0  0  0  0
    1.6657   28.5563   -3.3601 C   0  0  0  0  0  0  0  0  0  0  0  0
    0.7665   27.7036   -2.6875 C   0  0  0  0  0  0  0  0  0  0  0  0
    0.3001   26.8101   -3.6013 N   0  0  0  0  0  0  0  0  0  0  0  0
    0.9133   27.1555   -4.7442 C   0  0  0  0  0  0  0  0  0  0  0  0
    0.7080   26.5372   -5.8518 O   0  0  0  0  0  0  0  0  0  0  0  0
    1.7510   28.2028   -4.6419 N   0  0  0  0  0  0  0  0  0  0  0  0
    1.0301   29.0969    0.2567 H   0  0  0  0  0  0  0  0  0  0  0  0
    2.5419   30.8800    0.1409 H   0  0  0  0  0  0  0  0  0  0  0  0
    3.2887   31.2492   -1.3469 H   0  0  0  0  0  0  0  0  0  0  0  0
   -0.3412   26.0771   -3.4571 H   0  0  0  0  0  0  0  0  0  0  0  0
    2.5840   28.8404   -5.7122 C   0  0  0  0  0  0  0  0  0  0  0  0
    3.8845   29.3838   -5.3803 O   0  0  0  0  0  0  0  0  0  0  0  0
    1.8143   30.0221   -6.2926 C   0  0  0  0  0  0  0  0  0  0  0  0
    2.8881   30.9497   -6.8234 C   0  0  0  0  0  0  0  0  0  0  0  0
    2.6118   31.0751   -8.2203 O   0  0  0  0  0  0  0  0  0  0  0  0
    4.1889   30.2012   -6.5224 C   0  0  0  0  0  0  0  0  0  0  0  0
    2.5613   30.1929   -8.6203 H   0  0  0  0  0  0  0  0  0  0  0  0
    5.3956   31.1050   -6.3737 C   0  0  0  0  0  0  0  0  0  0  0  0
    5.3835   32.0711   -7.4392 O   0  0  0  0  0  0  0  0  0  0  0  0
    5.4143   31.6115   -8.2928 H   0  0  0  0  0  0  0  0  0  0  0  0
  1  2  2  0  0  0
  2  3  1  0  0  0
  2  8  1  0  0  0
  3  4  1  0  0  0
  4  5  1  0  0  0
  4  6  2  0  0  0
  6  7  1  0  0  0
  7  8  2  0  0  0
  7 12  1  0  0  0
  8  9  1  0  0  0
  9 10  1  0  0  0
 10 11  2  0  0  0
 10 12  1  0  0  0
 12 17  1  0  0  0
 17 18  1  0  0  0
 17 19  1  0  0  0
 18 22  1  0  0  0
 19 20  1  0  0  0
 20 21  1  0  0  0
 20 22  1  0  0  0
 22 24  1  0  0  0
 24 25  1  0  0  0
  3 13  1  0  0  0
  5 14  1  0  0  0
  5 15  1  0  0  0
  9 16  1  0  0  0
 21 23  1  0  0  0
 25 26  1  0  0  0
M  END
> <minimizedAffinity>
-7.45553

$$$$
2A5B_8HG_A_255


 26 28  0  0  0  0  0  0  0  0999 V2000
    2.6987   28.6663   -0.0190 O   0  0  0  0  0  0  0  0  0  0  0  0
    1.8859   27.9921   -0.6960 C   0  0  0  0  0  0  0  0  0  0  0  0
    1.1445   27.0838   -0.0569 N   0  0  0  0  0  0  0  0  0  0  0  0
    0.2597   26.3506   -0.7336 C   0  0  0  0  0  0  0  0  0  0  0  0
   -0.4898   25.4510   -0.1380 N   0  0  0  0  0  0  0  0  0  0  0  0
    0.0581   26.4581   -2.0451 N   0  0  0  0  0  0  0  0  0  0  0  0
    0.7810   27.3564   -2.7466 C   0  0  0  0  0  0  0  0  0  0  0  0
    1.7294   28.1633   -2.0851 C   0  0  0  0  0  0  0  0  0  0  0  0
    2.3011   28.9639   -3.0249 N   0  0  0  0  0  0  0  0  0  0  0  0
    1.6968   28.6123   -4.1706 C   0  0  0  0  0  0  0  0  0  0  0  0
    1.9907   29.1512   -5.2996 O   0  0  0  0  0  0  0  0  0  0  0  0
    0.7678   27.6475   -4.0467 N   0  0  0  0  0  0  0  0  0  0  0  0
    1.2510   26.9556    0.9134 H   0  0  0  0  0  0  0  0  0  0  0  0
   -0.4064   25.3050    0.8320 H   0  0  0  0  0  0  0  0  0  0  0  0
   -1.1348   24.9229   -0.6617 H   0  0  0  0  0  0  0  0  0  0  0  0
    2.9991   29.6458   -2.8943 H   0  0  0  0  0  0  0  0  0  0  0  0
   -0.0831   27.0279   -5.1134 C   0  0  0  0  0  0  0  0  0  0  0  0
   -0.0757   27.5846   -6.4500 O   0  0  0  0  0  0  0  0  0  0  0  0
   -1.5431   27.1006   -4.6786 C   0  0  0  0  0  0  0  0  0  0  0  0
   -2.3255   27.0936   -5.9759 C   0  0  0  0  0  0  0  0  0  0  0  0
   -3.1623   25.9373   -5.8974 O   0  0  0  0  0  0  0  0  0  0  0  0
   -1.2389   26.9900   -7.0490 C   0  0  0  0  0  0  0  0  0  0  0  0
   -2.6178   25.1561   -5.7127 H   0  0  0  0  0  0  0  0  0  0  0  0
   -1.6461   27.5636   -8.3907 C   0  0  0  0  0  0  0  0  0  0  0  0
   -2.8175   26.8693   -8.8538 O   0  0  0  0  0  0  0  0  0  0  0  0
   -2.6194   25.9238   -8.9417 H   0  0  0  0  0  0  0  0  0  0  0  0
  1  2  2  0  0  0
  2  3  1  0  0  0
  2  8  1  0  0  0
  3  4  1  0  0  0
  4  5  1  0  0  0
  4  6  2  0  0  0
  6  7  1  0  0  0
  7  8  2  0  0  0
  7 12  1  0  0  0
  8  9  1  0  0  0
  9 10  1  0  0  0
 10 11  2  0  0  0
 10 12  1  0  0  0
 12 17  1  0  0  0
 17 18  1  0  0  0
 17 19  1  0  0  0
 18 22  1  0  0  0
 19 20  1  0  0  0
 20 21  1  0  0  0
 20 22  1  0  0  0
 22 24  1  0  0  0
 24 25  1  0  0  0
  3 13  1  0  0  0
  5 14  1  0  0  0
  5 15  1  0  0  0
  9 16  1  0  0  0
 21 23  1  0  0  0
 25 26  1  0  0  0
M  END
> <minimizedAffinity>
-7.40805

$$$$
2A5B_8HG_A_255


 26 28  0  0  0  0  0  0  0  0999 V2000
   -0.2992   26.3027   -0.4994 O   0  0  0  0  0  0  0  0  0  0  0  0
   -0.0434   26.5475   -1.7028 C   0  0  0  0  0  0  0  0  0  0  0  0
   -0.6894   25.8410   -2.6338 N   0  0  0  0  0  0  0  0  0  0  0  0
   -0.4574   26.0733   -3.9264 C   0  0  0  0  0  0  0  0  0  0  0  0
   -1.0771   25.4013   -4.8699 N   0  0  0  0  0  0  0  0  0  0  0  0
    0.4039   26.9855   -4.3716 N   0  0  0  0  0  0  0  0  0  0  0  0
    1.0902   27.7283   -3.4778 C   0  0  0  0  0  0  0  0  0  0  0  0
    0.8845   27.5309   -2.0969 C   0  0  0  0  0  0  0  0  0  0  0  0
    1.6965   28.4034   -1.4409 N   0  0  0  0  0  0  0  0  0  0  0  0
    2.3363   29.0604   -2.4210 C   0  0  0  0  0  0  0  0  0  0  0  0
    3.2125   29.9702   -2.1845 O   0  0  0  0  0  0  0  0  0  0  0  0
    1.9960   28.6868   -3.6675 N   0  0  0  0  0  0  0  0  0  0  0  0
   -1.3366   25.1491   -2.3662 H   0  0  0  0  0  0  0  0  0  0  0  0
   -1.7320   24.7064   -4.6302 H   0  0  0  0  0  0  0  0  0  0  0  0
   -0.8865   25.5926   -5.8166 H   0  0  0  0  0  0  0  0  0  0  0  0
    1.7929   28.5251   -0.4687 H   0  0  0  0  0  0  0  0  0  0  0  0
    2.5135   29.2096   -4.9732 C   0  0  0  0  0  0  0  0  0  0  0  0
    3.9414   29.2733   -5.2047 O   0  0  0  0  0  0  0  0  0  0  0  0
    2.0345   30.6467   -5.1493 C   0  0  0  0  0  0  0  0  0  0  0  0
    3.0662   31.2810   -6.0596 C   0  0  0  0  0  0  0  0  0  0  0  0
    2.3321   31.7109   -7.2084 O   0  0  0  0  0  0  0  0  0  0  0  0
    4.0400   30.1363   -6.3496 C   0  0  0  0  0  0  0  0  0  0  0  0
    1.8320   30.9630   -7.5710 H   0  0  0  0  0  0  0  0  0  0  0  0
    5.4402   30.5968   -6.6996 C   0  0  0  0  0  0  0  0  0  0  0  0
    5.3658   31.9218   -7.2544 O   0  0  0  0  0  0  0  0  0  0  0  0
    4.8106   31.9087   -8.0496 H   0  0  0  0  0  0  0  0  0  0  0  0
  1  2  2  0  0  0
  2  3  1  0  0  0
  2  8  1  0  0  0
  3  4  1  0  0  0
  4  5  1  0  0  0
  4  6  2  0  0  0
  6  7  1  0  0  0
  7  8  2  0  0  0
  7 12  1  0  0  0
  8  9  1  0  0  0
  9 10  1  0  0  0
 10 11  2  0  0  0
 10 12  1  0  0  0
 12 17  1  0  0  0
 17 18  1  0  0  0
 17 19  1  0  0  0
 18 22  1  0  0  0
 19 20  1  0  0  0
 20 21  1  0  0  0
 20 22  1  0  0  0
 22 24  1  0  0  0
 24 25  1  0  0  0
  3 13  1  0  0  0
  5 14  1  0  0  0
  5 15  1  0  0  0
  9 16  1  0  0  0
 21 23  1  0  0  0
 25 26  1  0  0  0
M  END
> <minimizedAffinity>
-7.14441

$$$$
