5CAU_4ZR_A_1102


 36 39  0  0  0  0  0  0  0  0999 V2000
  -52.6714    1.2212  -19.6641 C   0  0  0  0  0  0  0  0  0  0  0  0
  -53.6681    2.1623  -19.8991 C   0  0  0  0  0  0  0  0  0  0  0  0
  -53.7982    1.5187  -22.1403 C   0  0  0  0  0  0  0  0  0  0  0  0
  -52.7813    0.5717  -21.9952 C   0  0  0  0  0  0  0  0  0  0  0  0
  -52.2053    0.4033  -20.7286 C   0  0  0  0  0  0  0  0  0  0  0  0
  -51.1046   -0.0433  -18.8536 C   0  0  0  0  0  0  0  0  0  0  0  0
  -51.9672    0.8819  -18.5661 N   0  0  0  0  0  0  0  0  0  0  0  0
  -54.1823    2.2735  -21.1094 N   0  0  0  0  0  0  0  0  0  0  0  0
  -51.2392   -0.4152  -20.1746 N   0  0  0  0  0  0  0  0  0  0  0  0
  -49.9116    0.2720  -16.6306 C   0  0  0  0  0  0  0  0  0  0  0  0
  -50.1389   -0.6320  -17.8454 C   0  0  0  0  0  0  0  0  0  0  0  0
  -50.7019   -1.8524  -17.3963 O   0  0  0  0  0  0  0  0  0  0  0  0
  -51.5578   -1.6778  -16.9745 H   0  0  0  0  0  0  0  0  0  0  0  0
  -50.4388   -1.4404  -20.8728 C   0  0  0  0  0  0  0  0  0  0  0  0
  -51.2232   -2.6054  -21.5007 C   0  0  0  0  0  0  0  0  0  0  0  0
  -49.3480   -0.8207  -21.7384 C   0  0  0  0  0  0  0  0  0  0  0  0
  -48.2123   -1.6123  -21.7524 F   0  0  0  0  0  0  0  0  0  0  0  0
  -49.8177   -0.6982  -23.0450 F   0  0  0  0  0  0  0  0  0  0  0  0
  -49.0140    0.4330  -21.2438 F   0  0  0  0  0  0  0  0  0  0  0  0
  -54.4328    1.7892  -23.3506 N   0  0  0  0  0  0  0  0  0  0  0  0
  -54.7826    2.7041  -23.4496 H   0  0  0  0  0  0  0  0  0  0  0  0
  -54.6404    0.9538  -24.4318 C   0  0  0  0  0  0  0  0  0  0  0  0
  -55.8494    1.0385  -25.1415 C   0  0  0  0  0  0  0  0  0  0  0  0
  -55.9959    0.2002  -26.2383 C   0  0  0  0  0  0  0  0  0  0  0  0
  -55.0246   -0.6497  -26.5704 N   0  0  0  0  0  0  0  0  0  0  0  0
  -53.8866   -0.7228  -25.8717 C   0  0  0  0  0  0  0  0  0  0  0  0
  -53.7027    0.1002  -24.8381 N   0  0  0  0  0  0  0  0  0  0  0  0
  -52.8319   -1.5589  -26.2622 N   0  0  0  0  0  0  0  0  0  0  0  0
  -53.0296   -2.5884  -27.3100 C   0  0  0  0  0  0  0  0  0  0  0  0
  -51.7534   -2.7449  -28.1584 C   0  0  0  0  0  0  0  0  0  0  0  0
  -50.5220   -2.9503  -27.2504 C   0  0  0  0  0  0  0  0  0  0  0  0
  -50.3829   -1.8033  -26.2204 C   0  0  0  0  0  0  0  0  0  0  0  0
  -51.6599   -1.7094  -25.3660 C   0  0  0  0  0  0  0  0  0  0  0  0
  -50.2075   -0.6094  -26.9306 F   0  0  0  0  0  0  0  0  0  0  0  0
  -49.3592   -2.9805  -28.0803 O   0  0  0  0  0  0  0  0  0  0  0  0
  -48.2565   -3.6966  -27.5139 C   0  0  0  0  0  0  0  0  0  0  0  0
 30 29  1  0  0  0
 30 31  1  0  0  0
 35 36  1  0  0  0
 35 31  1  0  0  0
 29 28  1  0  0  0
 31 32  1  0  0  0
 25 24  2  0  0  0
 25 26  1  0  0  0
 34 32  1  0  0  0
 28 26  1  0  0  0
 28 33  1  0  0  0
 24 23  1  0  0  0
 32 33  1  0  0  0
 26 27  2  0  0  0
 23 22  2  0  0  0
 27 22  1  0  0  0
 22 20  1  0  0  0
 20  3  1  0  0  0
 17 16  1  0  0  0
 19 16  1  0  0  0
  3  4  2  0  0  0
  3  8  1  0  0  0
  4  5  1  0  0  0
 16 18  1  0  0  0
 16 14  1  0  0  0
 15 14  1  0  0  0
 14  9  1  0  0  0
  8  2  2  0  0  0
  5  9  1  0  0  0
  5  1  2  0  0  0
  9  6  1  0  0  0
  2  1  1  0  0  0
  1  7  1  0  0  0
  6  7  2  0  0  0
  6 11  1  0  0  0
 11 12  1  0  0  0
 11 10  1  0  0  0
 20 21  1  0  0  0
 12 13  1  0  0  0
M  END
> <minimizedAffinity>
-8.96819

$$$$
5CAU_4ZR_A_1102


 36 39  0  0  0  0  0  0  0  0999 V2000
  -51.0646   -2.3416  -18.0340 C   0  0  0  0  0  0  0  0  0  0  0  0
  -51.1629   -2.7226  -19.3680 C   0  0  0  0  0  0  0  0  0  0  0  0
  -50.9244   -0.5041  -20.0573 C   0  0  0  0  0  0  0  0  0  0  0  0
  -50.8479   -0.0356  -18.7434 C   0  0  0  0  0  0  0  0  0  0  0  0
  -50.9072   -0.9694  -17.6999 C   0  0  0  0  0  0  0  0  0  0  0  0
  -51.0067   -2.2186  -15.8679 C   0  0  0  0  0  0  0  0  0  0  0  0
  -51.1029   -3.0297  -16.8757 N   0  0  0  0  0  0  0  0  0  0  0  0
  -51.0924   -1.8030  -20.3118 N   0  0  0  0  0  0  0  0  0  0  0  0
  -50.8344   -0.9274  -16.3203 N   0  0  0  0  0  0  0  0  0  0  0  0
  -52.3969   -3.2397  -13.9999 C   0  0  0  0  0  0  0  0  0  0  0  0
  -51.0396   -2.6701  -14.4220 C   0  0  0  0  0  0  0  0  0  0  0  0
  -50.0640   -3.6886  -14.2838 O   0  0  0  0  0  0  0  0  0  0  0  0
  -50.2854   -4.4299  -14.8690 H   0  0  0  0  0  0  0  0  0  0  0  0
  -50.6832    0.2743  -15.4765 C   0  0  0  0  0  0  0  0  0  0  0  0
  -49.4611    1.1619  -15.7686 C   0  0  0  0  0  0  0  0  0  0  0  0
  -52.0082    1.0001  -15.2747 C   0  0  0  0  0  0  0  0  0  0  0  0
  -52.5877    1.3274  -16.4886 F   0  0  0  0  0  0  0  0  0  0  0  0
  -52.8823    0.1676  -14.5776 F   0  0  0  0  0  0  0  0  0  0  0  0
  -51.7975    2.1658  -14.5502 F   0  0  0  0  0  0  0  0  0  0  0  0
  -50.8958    0.3269  -21.1751 N   0  0  0  0  0  0  0  0  0  0  0  0
  -50.1834    1.0064  -21.1789 H   0  0  0  0  0  0  0  0  0  0  0  0
  -51.7268    0.3316  -22.2793 C   0  0  0  0  0  0  0  0  0  0  0  0
  -52.9354    1.0449  -22.2249 C   0  0  0  0  0  0  0  0  0  0  0  0
  -53.7192    1.0444  -23.3706 C   0  0  0  0  0  0  0  0  0  0  0  0
  -53.3274    0.3744  -24.4540 N   0  0  0  0  0  0  0  0  0  0  0  0
  -52.1783   -0.3096  -24.4788 C   0  0  0  0  0  0  0  0  0  0  0  0
  -51.3863   -0.2919  -23.4055 N   0  0  0  0  0  0  0  0  0  0  0  0
  -51.7250   -0.9511  -25.6393 N   0  0  0  0  0  0  0  0  0  0  0  0
  -50.4590   -0.5359  -26.2889 C   0  0  0  0  0  0  0  0  0  0  0  0
  -49.7370   -1.7567  -26.8900 C   0  0  0  0  0  0  0  0  0  0  0  0
  -50.7013   -2.5728  -27.7772 C   0  0  0  0  0  0  0  0  0  0  0  0
  -51.9701   -2.9909  -26.9952 C   0  0  0  0  0  0  0  0  0  0  0  0
  -52.6839   -1.7411  -26.4492 C   0  0  0  0  0  0  0  0  0  0  0  0
  -51.5668   -3.8020  -25.9274 F   0  0  0  0  0  0  0  0  0  0  0  0
  -50.0134   -3.7449  -28.2183 O   0  0  0  0  0  0  0  0  0  0  0  0
  -48.6384   -3.7978  -27.8233 C   0  0  0  0  0  0  0  0  0  0  0  0
 30 29  1  0  0  0
 30 31  1  0  0  0
 35 36  1  0  0  0
 35 31  1  0  0  0
 29 28  1  0  0  0
 31 32  1  0  0  0
 25 24  2  0  0  0
 25 26  1  0  0  0
 34 32  1  0  0  0
 28 26  1  0  0  0
 28 33  1  0  0  0
 24 23  1  0  0  0
 32 33  1  0  0  0
 26 27  2  0  0  0
 23 22  2  0  0  0
 27 22  1  0  0  0
 22 20  1  0  0  0
 20  3  1  0  0  0
 17 16  1  0  0  0
 19 16  1  0  0  0
  3  4  2  0  0  0
  3  8  1  0  0  0
  4  5  1  0  0  0
 16 18  1  0  0  0
 16 14  1  0  0  0
 15 14  1  0  0  0
 14  9  1  0  0  0
  8  2  2  0  0  0
  5  9  1  0  0  0
  5  1  2  0  0  0
  9  6  1  0  0  0
  2  1  1  0  0  0
  1  7  1  0  0  0
  6  7  2  0  0  0
  6 11  1  0  0  0
 11 12  1  0  0  0
 11 10  1  0  0  0
 20 21  1  0  0  0
 12 13  1  0  0  0
M  END
> <minimizedAffinity>
-7.78235

$$$$
5CAU_4ZR_A_1102


 36 39  0  0  0  0  0  0  0  0999 V2000
  -53.4636    0.8480  -22.9606 C   0  0  0  0  0  0  0  0  0  0  0  0
  -54.4185    1.6965  -22.4105 C   0  0  0  0  0  0  0  0  0  0  0  0
  -53.3061    1.6769  -20.3572 C   0  0  0  0  0  0  0  0  0  0  0  0
  -52.3235    0.8002  -20.8238 C   0  0  0  0  0  0  0  0  0  0  0  0
  -52.3884    0.3785  -22.1589 C   0  0  0  0  0  0  0  0  0  0  0  0
  -52.2695   -0.4671  -24.2077 C   0  0  0  0  0  0  0  0  0  0  0  0
  -53.3129    0.3033  -24.1842 N   0  0  0  0  0  0  0  0  0  0  0  0
  -54.3050    2.0695  -21.1498 N   0  0  0  0  0  0  0  0  0  0  0  0
  -51.6265   -0.4224  -22.9886 N   0  0  0  0  0  0  0  0  0  0  0  0
  -52.9561   -1.4512  -26.4493 C   0  0  0  0  0  0  0  0  0  0  0  0
  -51.8320   -1.2494  -25.4292 C   0  0  0  0  0  0  0  0  0  0  0  0
  -50.7948   -0.5072  -26.0468 O   0  0  0  0  0  0  0  0  0  0  0  0
  -51.1332    0.3623  -26.3122 H   0  0  0  0  0  0  0  0  0  0  0  0
  -50.4003   -1.1605  -22.6273 C   0  0  0  0  0  0  0  0  0  0  0  0
  -49.3347   -0.3704  -21.8482 C   0  0  0  0  0  0  0  0  0  0  0  0
  -50.7087   -2.5614  -22.1120 C   0  0  0  0  0  0  0  0  0  0  0  0
  -49.6145   -3.1058  -21.4616 F   0  0  0  0  0  0  0  0  0  0  0  0
  -51.7695   -2.4920  -21.2104 F   0  0  0  0  0  0  0  0  0  0  0  0
  -51.0536   -3.3855  -23.1749 F   0  0  0  0  0  0  0  0  0  0  0  0
  -53.3585    2.1499  -19.0479 N   0  0  0  0  0  0  0  0  0  0  0  0
  -53.9109    2.9530  -18.9100 H   0  0  0  0  0  0  0  0  0  0  0  0
  -52.7439    1.6502  -17.9153 C   0  0  0  0  0  0  0  0  0  0  0  0
  -52.9882    2.2633  -16.6756 C   0  0  0  0  0  0  0  0  0  0  0  0
  -52.3722    1.7042  -15.5643 C   0  0  0  0  0  0  0  0  0  0  0  0
  -51.5757    0.6441  -15.6982 N   0  0  0  0  0  0  0  0  0  0  0  0
  -51.3466    0.0846  -16.8911 C   0  0  0  0  0  0  0  0  0  0  0  0
  -51.9584    0.5764  -17.9697 N   0  0  0  0  0  0  0  0  0  0  0  0
  -50.5726   -1.0757  -17.0269 N   0  0  0  0  0  0  0  0  0  0  0  0
  -50.2622   -1.6266  -18.3675 C   0  0  0  0  0  0  0  0  0  0  0  0
  -48.8495   -2.2407  -18.3831 C   0  0  0  0  0  0  0  0  0  0  0  0
  -48.6736   -3.2229  -17.2052 C   0  0  0  0  0  0  0  0  0  0  0  0
  -48.9818   -2.5403  -15.8505 C   0  0  0  0  0  0  0  0  0  0  0  0
  -50.4152   -1.9793  -15.8614 C   0  0  0  0  0  0  0  0  0  0  0  0
  -48.0708   -1.4902  -15.6834 F   0  0  0  0  0  0  0  0  0  0  0  0
  -47.3188   -3.6771  -17.2052 O   0  0  0  0  0  0  0  0  0  0  0  0
  -46.5082   -3.0949  -18.2316 C   0  0  0  0  0  0  0  0  0  0  0  0
 30 29  1  0  0  0
 30 31  1  0  0  0
 35 36  1  0  0  0
 35 31  1  0  0  0
 29 28  1  0  0  0
 31 32  1  0  0  0
 25 24  2  0  0  0
 25 26  1  0  0  0
 34 32  1  0  0  0
 28 26  1  0  0  0
 28 33  1  0  0  0
 24 23  1  0  0  0
 32 33  1  0  0  0
 26 27  2  0  0  0
 23 22  2  0  0  0
 27 22  1  0  0  0
 22 20  1  0  0  0
 20  3  1  0  0  0
 17 16  1  0  0  0
 19 16  1  0  0  0
  3  4  2  0  0  0
  3  8  1  0  0  0
  4  5  1  0  0  0
 16 18  1  0  0  0
 16 14  1  0  0  0
 15 14  1  0  0  0
 14  9  1  0  0  0
  8  2  2  0  0  0
  5  9  1  0  0  0
  5  1  2  0  0  0
  9  6  1  0  0  0
  2  1  1  0  0  0
  1  7  1  0  0  0
  6  7  2  0  0  0
  6 11  1  0  0  0
 11 12  1  0  0  0
 11 10  1  0  0  0
 20 21  1  0  0  0
 12 13  1  0  0  0
M  END
> <minimizedAffinity>
-7.53838

$$$$
5CAU_4ZR_A_1102


 36 39  0  0  0  0  0  0  0  0999 V2000
  -48.3331   -2.4454  -19.1681 C   0  0  0  0  0  0  0  0  0  0  0  0
  -47.2076   -3.1901  -19.5039 C   0  0  0  0  0  0  0  0  0  0  0  0
  -47.6371   -2.8816  -21.7786 C   0  0  0  0  0  0  0  0  0  0  0  0
  -48.7997   -2.1489  -21.5266 C   0  0  0  0  0  0  0  0  0  0  0  0
  -49.1590   -1.9100  -20.1930 C   0  0  0  0  0  0  0  0  0  0  0  0
  -49.9732   -1.4155  -18.1883 C   0  0  0  0  0  0  0  0  0  0  0  0
  -48.8846   -2.0926  -17.9900 N   0  0  0  0  0  0  0  0  0  0  0  0
  -46.9102   -3.3777  -20.7759 N   0  0  0  0  0  0  0  0  0  0  0  0
  -50.1694   -1.2291  -19.5404 N   0  0  0  0  0  0  0  0  0  0  0  0
  -50.8244   -1.7713  -15.8190 C   0  0  0  0  0  0  0  0  0  0  0  0
  -50.8482   -0.8879  -17.0695 C   0  0  0  0  0  0  0  0  0  0  0  0
  -50.3498    0.3926  -16.7226 O   0  0  0  0  0  0  0  0  0  0  0  0
  -49.4327    0.3108  -16.4174 H   0  0  0  0  0  0  0  0  0  0  0  0
  -51.2958   -0.5051  -20.1616 C   0  0  0  0  0  0  0  0  0  0  0  0
  -50.9255    0.5681  -21.1999 C   0  0  0  0  0  0  0  0  0  0  0  0
  -52.4364   -1.4422  -20.5412 C   0  0  0  0  0  0  0  0  0  0  0  0
  -53.6650   -0.8821  -20.2355 F   0  0  0  0  0  0  0  0  0  0  0  0
  -52.3900   -1.6843  -21.9131 F   0  0  0  0  0  0  0  0  0  0  0  0
  -52.3065   -2.6405  -19.8518 F   0  0  0  0  0  0  0  0  0  0  0  0
  -47.1882   -3.1990  -23.0587 N   0  0  0  0  0  0  0  0  0  0  0  0
  -46.2195   -3.1004  -23.2038 H   0  0  0  0  0  0  0  0  0  0  0  0
  -47.9116   -3.6330  -24.1534 C   0  0  0  0  0  0  0  0  0  0  0  0
  -47.5837   -4.8622  -24.7484 C   0  0  0  0  0  0  0  0  0  0  0  0
  -48.3605   -5.2678  -25.8251 C   0  0  0  0  0  0  0  0  0  0  0  0
  -49.3554   -4.4980  -26.2653 N   0  0  0  0  0  0  0  0  0  0  0  0
  -49.6412   -3.3242  -25.6915 C   0  0  0  0  0  0  0  0  0  0  0  0
  -48.9371   -2.9296  -24.6294 N   0  0  0  0  0  0  0  0  0  0  0  0
  -50.7338   -2.5481  -26.1009 N   0  0  0  0  0  0  0  0  0  0  0  0
  -51.2612   -2.6515  -27.4822 C   0  0  0  0  0  0  0  0  0  0  0  0
  -52.7921   -2.4801  -27.4881 C   0  0  0  0  0  0  0  0  0  0  0  0
  -53.1967   -1.2053  -26.7172 C   0  0  0  0  0  0  0  0  0  0  0  0
  -52.6311   -1.2139  -25.2763 C   0  0  0  0  0  0  0  0  0  0  0  0
  -51.0977   -1.3429  -25.3168 C   0  0  0  0  0  0  0  0  0  0  0  0
  -53.1750   -2.3186  -24.6097 F   0  0  0  0  0  0  0  0  0  0  0  0
  -54.6236   -1.1547  -26.6618 O   0  0  0  0  0  0  0  0  0  0  0  0
  -55.1409   -0.0029  -25.9871 C   0  0  0  0  0  0  0  0  0  0  0  0
 30 29  1  0  0  0
 30 31  1  0  0  0
 35 36  1  0  0  0
 35 31  1  0  0  0
 29 28  1  0  0  0
 31 32  1  0  0  0
 25 24  2  0  0  0
 25 26  1  0  0  0
 34 32  1  0  0  0
 28 26  1  0  0  0
 28 33  1  0  0  0
 24 23  1  0  0  0
 32 33  1  0  0  0
 26 27  2  0  0  0
 23 22  2  0  0  0
 27 22  1  0  0  0
 22 20  1  0  0  0
 20  3  1  0  0  0
 17 16  1  0  0  0
 19 16  1  0  0  0
  3  4  2  0  0  0
  3  8  1  0  0  0
  4  5  1  0  0  0
 16 18  1  0  0  0
 16 14  1  0  0  0
 15 14  1  0  0  0
 14  9  1  0  0  0
  8  2  2  0  0  0
  5  9  1  0  0  0
  5  1  2  0  0  0
  9  6  1  0  0  0
  2  1  1  0  0  0
  1  7  1  0  0  0
  6  7  2  0  0  0
  6 11  1  0  0  0
 11 12  1  0  0  0
 11 10  1  0  0  0
 20 21  1  0  0  0
 12 13  1  0  0  0
M  END
> <minimizedAffinity>
-7.53436

$$$$
5CAU_4ZR_A_1102


 36 39  0  0  0  0  0  0  0  0999 V2000
  -51.5655   -3.8265  -24.6290 C   0  0  0  0  0  0  0  0  0  0  0  0
  -52.6453   -3.0252  -24.9845 C   0  0  0  0  0  0  0  0  0  0  0  0
  -51.7827   -1.2473  -23.7400 C   0  0  0  0  0  0  0  0  0  0  0  0
  -50.6829   -1.9950  -23.3120 C   0  0  0  0  0  0  0  0  0  0  0  0
  -50.5561   -3.3134  -23.7705 C   0  0  0  0  0  0  0  0  0  0  0  0
  -50.1288   -5.4225  -24.3143 C   0  0  0  0  0  0  0  0  0  0  0  0
  -51.2282   -5.0981  -24.9217 N   0  0  0  0  0  0  0  0  0  0  0  0
  -52.7112   -1.7876  -24.5312 N   0  0  0  0  0  0  0  0  0  0  0  0
  -49.6386   -4.3362  -23.6207 N   0  0  0  0  0  0  0  0  0  0  0  0
  -49.6583   -7.6302  -23.1442 C   0  0  0  0  0  0  0  0  0  0  0  0
  -49.4882   -6.7919  -24.4142 C   0  0  0  0  0  0  0  0  0  0  0  0
  -50.1223   -7.4687  -25.4857 O   0  0  0  0  0  0  0  0  0  0  0  0
  -51.0695   -7.5575  -25.2967 H   0  0  0  0  0  0  0  0  0  0  0  0
  -48.4059   -4.3099  -22.8090 C   0  0  0  0  0  0  0  0  0  0  0  0
  -47.3357   -3.2877  -23.2293 C   0  0  0  0  0  0  0  0  0  0  0  0
  -48.7037   -4.3960  -21.3166 C   0  0  0  0  0  0  0  0  0  0  0  0
  -49.9744   -4.8962  -21.0895 F   0  0  0  0  0  0  0  0  0  0  0  0
  -47.7790   -5.2488  -20.7159 F   0  0  0  0  0  0  0  0  0  0  0  0
  -48.6111   -3.1330  -20.7474 F   0  0  0  0  0  0  0  0  0  0  0  0
  -52.0267    0.0641  -23.3383 N   0  0  0  0  0  0  0  0  0  0  0  0
  -51.9686    0.7423  -24.0497 H   0  0  0  0  0  0  0  0  0  0  0  0
  -52.3390    0.5471  -22.0816 C   0  0  0  0  0  0  0  0  0  0  0  0
  -53.4213    1.4302  -21.9359 C   0  0  0  0  0  0  0  0  0  0  0  0
  -53.7134    1.8615  -20.6492 C   0  0  0  0  0  0  0  0  0  0  0  0
  -52.9732    1.4543  -19.6184 N   0  0  0  0  0  0  0  0  0  0  0  0
  -51.9382    0.6232  -19.7824 C   0  0  0  0  0  0  0  0  0  0  0  0
  -51.6609    0.1610  -21.0027 N   0  0  0  0  0  0  0  0  0  0  0  0
  -51.2054    0.1316  -18.6939 N   0  0  0  0  0  0  0  0  0  0  0  0
  -51.3467    0.7390  -17.3492 C   0  0  0  0  0  0  0  0  0  0  0  0
  -51.2271   -0.3397  -16.2561 C   0  0  0  0  0  0  0  0  0  0  0  0
  -49.9556   -1.1883  -16.4703 C   0  0  0  0  0  0  0  0  0  0  0  0
  -49.9240   -1.8095  -17.8878 C   0  0  0  0  0  0  0  0  0  0  0  0
  -50.0018   -0.6968  -18.9486 C   0  0  0  0  0  0  0  0  0  0  0  0
  -51.0365   -2.6507  -18.0112 F   0  0  0  0  0  0  0  0  0  0  0  0
  -49.9523   -2.2354  -15.4980 O   0  0  0  0  0  0  0  0  0  0  0  0
  -51.1194   -2.2660  -14.6695 C   0  0  0  0  0  0  0  0  0  0  0  0
 30 29  1  0  0  0
 30 31  1  0  0  0
 35 36  1  0  0  0
 35 31  1  0  0  0
 29 28  1  0  0  0
 31 32  1  0  0  0
 25 24  2  0  0  0
 25 26  1  0  0  0
 34 32  1  0  0  0
 28 26  1  0  0  0
 28 33  1  0  0  0
 24 23  1  0  0  0
 32 33  1  0  0  0
 26 27  2  0  0  0
 23 22  2  0  0  0
 27 22  1  0  0  0
 22 20  1  0  0  0
 20  3  1  0  0  0
 17 16  1  0  0  0
 19 16  1  0  0  0
  3  4  2  0  0  0
  3  8  1  0  0  0
  4  5  1  0  0  0
 16 18  1  0  0  0
 16 14  1  0  0  0
 15 14  1  0  0  0
 14  9  1  0  0  0
  8  2  2  0  0  0
  5  9  1  0  0  0
  5  1  2  0  0  0
  9  6  1  0  0  0
  2  1  1  0  0  0
  1  7  1  0  0  0
  6  7  2  0  0  0
  6 11  1  0  0  0
 11 12  1  0  0  0
 11 10  1  0  0  0
 20 21  1  0  0  0
 12 13  1  0  0  0
M  END
> <minimizedAffinity>
-7.49463

$$$$
5CAU_4ZR_A_1102


 36 39  0  0  0  0  0  0  0  0999 V2000
  -48.8991   -4.1438  -25.9714 C   0  0  0  0  0  0  0  0  0  0  0  0
  -47.6250   -4.6045  -25.6568 C   0  0  0  0  0  0  0  0  0  0  0  0
  -48.1765   -4.6911  -23.3892 C   0  0  0  0  0  0  0  0  0  0  0  0
  -49.4655   -4.2028  -23.6169 C   0  0  0  0  0  0  0  0  0  0  0  0
  -49.8496   -3.9300  -24.9370 C   0  0  0  0  0  0  0  0  0  0  0  0
  -50.7026   -3.3881  -26.9132 C   0  0  0  0  0  0  0  0  0  0  0  0
  -49.4943   -3.8063  -27.1326 N   0  0  0  0  0  0  0  0  0  0  0  0
  -47.3184   -4.8537  -24.3978 N   0  0  0  0  0  0  0  0  0  0  0  0
  -50.9962   -3.4878  -25.5696 N   0  0  0  0  0  0  0  0  0  0  0  0
  -51.6572   -1.3865  -28.1568 C   0  0  0  0  0  0  0  0  0  0  0  0
  -51.6360   -2.9102  -28.0067 C   0  0  0  0  0  0  0  0  0  0  0  0
  -51.1732   -3.4735  -29.2219 O   0  0  0  0  0  0  0  0  0  0  0  0
  -50.2701   -3.1660  -29.3975 H   0  0  0  0  0  0  0  0  0  0  0  0
  -52.2728   -3.1124  -24.9307 C   0  0  0  0  0  0  0  0  0  0  0  0
  -53.0098   -4.2305  -24.1734 C   0  0  0  0  0  0  0  0  0  0  0  0
  -52.1813   -1.7669  -24.2204 C   0  0  0  0  0  0  0  0  0  0  0  0
  -53.1659   -0.9007  -24.6640 F   0  0  0  0  0  0  0  0  0  0  0  0
  -52.3488   -1.9624  -22.8505 F   0  0  0  0  0  0  0  0  0  0  0  0
  -50.9395   -1.1943  -24.4611 F   0  0  0  0  0  0  0  0  0  0  0  0
  -47.6744   -4.9805  -22.1223 N   0  0  0  0  0  0  0  0  0  0  0  0
  -47.2190   -5.8490  -22.0360 H   0  0  0  0  0  0  0  0  0  0  0  0
  -47.7257   -4.2197  -20.9697 C   0  0  0  0  0  0  0  0  0  0  0  0
  -46.8630   -4.5286  -19.9053 C   0  0  0  0  0  0  0  0  0  0  0  0
  -46.9316   -3.7151  -18.7826 C   0  0  0  0  0  0  0  0  0  0  0  0
  -47.7985   -2.7039  -18.7359 N   0  0  0  0  0  0  0  0  0  0  0  0
  -48.6204   -2.4363  -19.7565 C   0  0  0  0  0  0  0  0  0  0  0  0
  -48.5467   -3.1768  -20.8637 N   0  0  0  0  0  0  0  0  0  0  0  0
  -49.4786   -1.3285  -19.7436 N   0  0  0  0  0  0  0  0  0  0  0  0
  -49.4112   -0.3057  -20.8142 C   0  0  0  0  0  0  0  0  0  0  0  0
  -50.8173    0.2408  -21.1257 C   0  0  0  0  0  0  0  0  0  0  0  0
  -51.5250    0.6848  -19.8276 C   0  0  0  0  0  0  0  0  0  0  0  0
  -51.5783   -0.4649  -18.7925 C   0  0  0  0  0  0  0  0  0  0  0  0
  -50.1524   -0.9518  -18.4773 C   0  0  0  0  0  0  0  0  0  0  0  0
  -52.3159   -1.5135  -19.3553 F   0  0  0  0  0  0  0  0  0  0  0  0
  -52.8572    1.0790  -20.1613 O   0  0  0  0  0  0  0  0  0  0  0  0
  -53.0642    1.3114  -21.5587 C   0  0  0  0  0  0  0  0  0  0  0  0
 30 29  1  0  0  0
 30 31  1  0  0  0
 35 36  1  0  0  0
 35 31  1  0  0  0
 29 28  1  0  0  0
 31 32  1  0  0  0
 25 24  2  0  0  0
 25 26  1  0  0  0
 34 32  1  0  0  0
 28 26  1  0  0  0
 28 33  1  0  0  0
 24 23  1  0  0  0
 32 33  1  0  0  0
 26 27  2  0  0  0
 23 22  2  0  0  0
 27 22  1  0  0  0
 22 20  1  0  0  0
 20  3  1  0  0  0
 17 16  1  0  0  0
 19 16  1  0  0  0
  3  4  2  0  0  0
  3  8  1  0  0  0
  4  5  1  0  0  0
 16 18  1  0  0  0
 16 14  1  0  0  0
 15 14  1  0  0  0
 14  9  1  0  0  0
  8  2  2  0  0  0
  5  9  1  0  0  0
  5  1  2  0  0  0
  9  6  1  0  0  0
  2  1  1  0  0  0
  1  7  1  0  0  0
  6  7  2  0  0  0
  6 11  1  0  0  0
 11 12  1  0  0  0
 11 10  1  0  0  0
 20 21  1  0  0  0
 12 13  1  0  0  0
M  END
> <minimizedAffinity>
-7.48738

$$$$
5CAU_4ZR_A_1102


 36 39  0  0  0  0  0  0  0  0999 V2000
  -51.0260   -3.6199  -21.5178 C   0  0  0  0  0  0  0  0  0  0  0  0
  -50.3658   -4.6708  -20.8900 C   0  0  0  0  0  0  0  0  0  0  0  0
  -50.5925   -3.6222  -18.8156 C   0  0  0  0  0  0  0  0  0  0  0  0
  -51.2361   -2.5143  -19.3727 C   0  0  0  0  0  0  0  0  0  0  0  0
  -51.4732   -2.5082  -20.7541 C   0  0  0  0  0  0  0  0  0  0  0  0
  -51.9430   -2.2249  -22.9048 C   0  0  0  0  0  0  0  0  0  0  0  0
  -51.3583   -3.3782  -22.8015 N   0  0  0  0  0  0  0  0  0  0  0  0
  -50.1762   -4.6298  -19.5847 N   0  0  0  0  0  0  0  0  0  0  0  0
  -52.0854   -1.6581  -21.6558 N   0  0  0  0  0  0  0  0  0  0  0  0
  -51.4511   -0.6198  -24.8143 C   0  0  0  0  0  0  0  0  0  0  0  0
  -52.4227   -1.6426  -24.2187 C   0  0  0  0  0  0  0  0  0  0  0  0
  -52.5498   -2.7219  -25.1282 O   0  0  0  0  0  0  0  0  0  0  0  0
  -51.6863   -3.1470  -25.2482 H   0  0  0  0  0  0  0  0  0  0  0  0
  -52.7052   -0.3510  -21.3621 C   0  0  0  0  0  0  0  0  0  0  0  0
  -53.8474   -0.3554  -20.3314 C   0  0  0  0  0  0  0  0  0  0  0  0
  -51.6646    0.7519  -21.2074 C   0  0  0  0  0  0  0  0  0  0  0  0
  -50.4233    0.3330  -21.6550 F   0  0  0  0  0  0  0  0  0  0  0  0
  -52.0565    1.8571  -21.9609 F   0  0  0  0  0  0  0  0  0  0  0  0
  -51.5603    1.1126  -19.8706 F   0  0  0  0  0  0  0  0  0  0  0  0
  -50.2853   -3.7351  -17.4615 N   0  0  0  0  0  0  0  0  0  0  0  0
  -50.5503   -4.5829  -17.0369 H   0  0  0  0  0  0  0  0  0  0  0  0
  -49.6609   -2.8244  -16.6305 C   0  0  0  0  0  0  0  0  0  0  0  0
  -48.2981   -2.9892  -16.3335 C   0  0  0  0  0  0  0  0  0  0  0  0
  -47.7103   -2.0302  -15.5200 C   0  0  0  0  0  0  0  0  0  0  0  0
  -48.4337   -1.0184  -15.0414 N   0  0  0  0  0  0  0  0  0  0  0  0
  -49.7339   -0.8886  -15.3265 C   0  0  0  0  0  0  0  0  0  0  0  0
  -50.3141   -1.7732  -16.1392 N   0  0  0  0  0  0  0  0  0  0  0  0
  -50.4799    0.2143  -14.8896 N   0  0  0  0  0  0  0  0  0  0  0  0
  -49.8515    1.2767  -14.0691 C   0  0  0  0  0  0  0  0  0  0  0  0
  -50.4476    2.6526  -14.4219 C   0  0  0  0  0  0  0  0  0  0  0  0
  -51.9897    2.6024  -14.3742 C   0  0  0  0  0  0  0  0  0  0  0  0
  -52.5467    1.4889  -15.2939 C   0  0  0  0  0  0  0  0  0  0  0  0
  -51.9604    0.1269  -14.8806 C   0  0  0  0  0  0  0  0  0  0  0  0
  -52.1597    1.7846  -16.6066 F   0  0  0  0  0  0  0  0  0  0  0  0
  -52.4884    3.8676  -14.8129 O   0  0  0  0  0  0  0  0  0  0  0  0
  -51.6514    4.9764  -14.4670 C   0  0  0  0  0  0  0  0  0  0  0  0
 30 29  1  0  0  0
 30 31  1  0  0  0
 35 36  1  0  0  0
 35 31  1  0  0  0
 29 28  1  0  0  0
 31 32  1  0  0  0
 25 24  2  0  0  0
 25 26  1  0  0  0
 34 32  1  0  0  0
 28 26  1  0  0  0
 28 33  1  0  0  0
 24 23  1  0  0  0
 32 33  1  0  0  0
 26 27  2  0  0  0
 23 22  2  0  0  0
 27 22  1  0  0  0
 22 20  1  0  0  0
 20  3  1  0  0  0
 17 16  1  0  0  0
 19 16  1  0  0  0
  3  4  2  0  0  0
  3  8  1  0  0  0
  4  5  1  0  0  0
 16 18  1  0  0  0
 16 14  1  0  0  0
 15 14  1  0  0  0
 14  9  1  0  0  0
  8  2  2  0  0  0
  5  9  1  0  0  0
  5  1  2  0  0  0
  9  6  1  0  0  0
  2  1  1  0  0  0
  1  7  1  0  0  0
  6  7  2  0  0  0
  6 11  1  0  0  0
 11 12  1  0  0  0
 11 10  1  0  0  0
 20 21  1  0  0  0
 12 13  1  0  0  0
M  END
> <minimizedAffinity>
-7.39026

$$$$
5CAU_4ZR_A_1102


 36 39  0  0  0  0  0  0  0  0999 V2000
  -52.8802    0.9444  -20.5691 C   0  0  0  0  0  0  0  0  0  0  0  0
  -53.5808    1.6219  -21.5613 C   0  0  0  0  0  0  0  0  0  0  0  0
  -52.7930    0.1372  -23.1826 C   0  0  0  0  0  0  0  0  0  0  0  0
  -52.0360   -0.5794  -22.2523 C   0  0  0  0  0  0  0  0  0  0  0  0
  -52.0825   -0.1813  -20.9092 C   0  0  0  0  0  0  0  0  0  0  0  0
  -51.9482    0.2500  -18.7361 C   0  0  0  0  0  0  0  0  0  0  0  0
  -52.7557    1.1313  -19.2401 N   0  0  0  0  0  0  0  0  0  0  0  0
  -53.5087    1.1995  -22.8093 N   0  0  0  0  0  0  0  0  0  0  0  0
  -51.5350   -0.6236  -19.7197 N   0  0  0  0  0  0  0  0  0  0  0  0
  -50.0901    0.4727  -17.0150 C   0  0  0  0  0  0  0  0  0  0  0  0
  -51.5748    0.1970  -17.2686 C   0  0  0  0  0  0  0  0  0  0  0  0
  -52.3344    1.1968  -16.6116 O   0  0  0  0  0  0  0  0  0  0  0  0
  -52.1125    2.0661  -16.9803 H   0  0  0  0  0  0  0  0  0  0  0  0
  -50.6159   -1.7641  -19.5364 C   0  0  0  0  0  0  0  0  0  0  0  0
  -51.2250   -3.1652  -19.7174 C   0  0  0  0  0  0  0  0  0  0  0  0
  -49.2689   -1.5249  -20.2085 C   0  0  0  0  0  0  0  0  0  0  0  0
  -48.2311   -2.0143  -19.4340 F   0  0  0  0  0  0  0  0  0  0  0  0
  -49.2503   -2.1809  -21.4382 F   0  0  0  0  0  0  0  0  0  0  0  0
  -49.0787   -0.1634  -20.4037 F   0  0  0  0  0  0  0  0  0  0  0  0
  -52.8133   -0.1506  -24.5455 N   0  0  0  0  0  0  0  0  0  0  0  0
  -53.1017    0.5877  -25.1295 H   0  0  0  0  0  0  0  0  0  0  0  0
  -52.4855   -1.3267  -25.1930 C   0  0  0  0  0  0  0  0  0  0  0  0
  -53.2180   -1.7117  -26.3279 C   0  0  0  0  0  0  0  0  0  0  0  0
  -52.8290   -2.8845  -26.9605 C   0  0  0  0  0  0  0  0  0  0  0  0
  -51.8140   -3.6031  -26.4813 N   0  0  0  0  0  0  0  0  0  0  0  0
  -51.1390   -3.2242  -25.3907 C   0  0  0  0  0  0  0  0  0  0  0  0
  -51.4653   -2.0800  -24.7874 N   0  0  0  0  0  0  0  0  0  0  0  0
  -50.0230   -3.9345  -24.9283 N   0  0  0  0  0  0  0  0  0  0  0  0
  -48.6495   -3.4500  -25.2033 C   0  0  0  0  0  0  0  0  0  0  0  0
  -47.7205   -3.7622  -24.0149 C   0  0  0  0  0  0  0  0  0  0  0  0
  -47.8321   -5.2496  -23.6172 C   0  0  0  0  0  0  0  0  0  0  0  0
  -49.2976   -5.6436  -23.3121 C   0  0  0  0  0  0  0  0  0  0  0  0
  -50.1828   -5.3564  -24.5382 C   0  0  0  0  0  0  0  0  0  0  0  0
  -49.7328   -4.8685  -22.2303 F   0  0  0  0  0  0  0  0  0  0  0  0
  -47.0365   -5.4571  -22.4486 O   0  0  0  0  0  0  0  0  0  0  0  0
  -46.9289   -6.8284  -22.0518 C   0  0  0  0  0  0  0  0  0  0  0  0
 30 29  1  0  0  0
 30 31  1  0  0  0
 35 36  1  0  0  0
 35 31  1  0  0  0
 29 28  1  0  0  0
 31 32  1  0  0  0
 25 24  2  0  0  0
 25 26  1  0  0  0
 34 32  1  0  0  0
 28 26  1  0  0  0
 28 33  1  0  0  0
 24 23  1  0  0  0
 32 33  1  0  0  0
 26 27  2  0  0  0
 23 22  2  0  0  0
 27 22  1  0  0  0
 22 20  1  0  0  0
 20  3  1  0  0  0
 17 16  1  0  0  0
 19 16  1  0  0  0
  3  4  2  0  0  0
  3  8  1  0  0  0
  4  5  1  0  0  0
 16 18  1  0  0  0
 16 14  1  0  0  0
 15 14  1  0  0  0
 14  9  1  0  0  0
  8  2  2  0  0  0
  5  9  1  0  0  0
  5  1  2  0  0  0
  9  6  1  0  0  0
  2  1  1  0  0  0
  1  7  1  0  0  0
  6  7  2  0  0  0
  6 11  1  0  0  0
 11 12  1  0  0  0
 11 10  1  0  0  0
 20 21  1  0  0  0
 12 13  1  0  0  0
M  END
> <minimizedAffinity>
-7.31822

$$$$
5CAU_4ZR_A_1102


 36 39  0  0  0  0  0  0  0  0999 V2000
  -49.3846   -6.3606  -22.6634 C   0  0  0  0  0  0  0  0  0  0  0  0
  -50.2621   -6.8276  -23.6362 C   0  0  0  0  0  0  0  0  0  0  0  0
  -50.1494   -4.7885  -24.7689 C   0  0  0  0  0  0  0  0  0  0  0  0
  -49.2890   -4.2334  -23.8184 C   0  0  0  0  0  0  0  0  0  0  0  0
  -48.8821   -5.0337  -22.7421 C   0  0  0  0  0  0  0  0  0  0  0  0
  -48.1107   -6.0608  -20.9320 C   0  0  0  0  0  0  0  0  0  0  0  0
  -48.8629   -6.9167  -21.5520 N   0  0  0  0  0  0  0  0  0  0  0  0
  -50.6060   -6.0347  -24.6334 N   0  0  0  0  0  0  0  0  0  0  0  0
  -48.0463   -4.8861  -21.6512 N   0  0  0  0  0  0  0  0  0  0  0  0
  -47.9896   -5.6294  -18.4292 C   0  0  0  0  0  0  0  0  0  0  0  0
  -47.3916   -6.3629  -19.6330 C   0  0  0  0  0  0  0  0  0  0  0  0
  -47.5072   -7.7576  -19.4102 O   0  0  0  0  0  0  0  0  0  0  0  0
  -48.4443   -7.9964  -19.3351 H   0  0  0  0  0  0  0  0  0  0  0  0
  -47.2874   -3.6779  -21.2726 C   0  0  0  0  0  0  0  0  0  0  0  0
  -46.1998   -3.2200  -22.2597 C   0  0  0  0  0  0  0  0  0  0  0  0
  -48.1938   -2.5856  -20.7171 C   0  0  0  0  0  0  0  0  0  0  0  0
  -49.4630   -3.0742  -20.4586 F   0  0  0  0  0  0  0  0  0  0  0  0
  -47.6528   -2.1072  -19.5248 F   0  0  0  0  0  0  0  0  0  0  0  0
  -48.2916   -1.5476  -21.6340 F   0  0  0  0  0  0  0  0  0  0  0  0
  -50.6369   -4.0878  -25.8699 N   0  0  0  0  0  0  0  0  0  0  0  0
  -50.3163   -4.4009  -26.7464 H   0  0  0  0  0  0  0  0  0  0  0  0
  -51.5075   -3.0149  -25.9046 C   0  0  0  0  0  0  0  0  0  0  0  0
  -52.3711   -2.8680  -27.0024 C   0  0  0  0  0  0  0  0  0  0  0  0
  -53.2477   -1.7920  -26.9744 C   0  0  0  0  0  0  0  0  0  0  0  0
  -53.2374   -0.9417  -25.9482 N   0  0  0  0  0  0  0  0  0  0  0  0
  -52.3965   -1.0936  -24.9193 C   0  0  0  0  0  0  0  0  0  0  0  0
  -51.5720   -2.1422  -24.9011 N   0  0  0  0  0  0  0  0  0  0  0  0
  -52.4345   -0.2478  -23.8026 N   0  0  0  0  0  0  0  0  0  0  0  0
  -53.3309    0.9323  -23.7764 C   0  0  0  0  0  0  0  0  0  0  0  0
  -53.8711    1.1663  -22.3529 C   0  0  0  0  0  0  0  0  0  0  0  0
  -52.7134    1.1898  -21.3320 C   0  0  0  0  0  0  0  0  0  0  0  0
  -51.8639   -0.1016  -21.4125 C   0  0  0  0  0  0  0  0  0  0  0  0
  -51.3085   -0.2747  -22.8377 C   0  0  0  0  0  0  0  0  0  0  0  0
  -52.6980   -1.1826  -21.1021 F   0  0  0  0  0  0  0  0  0  0  0  0
  -53.2778    1.3004  -20.0240 O   0  0  0  0  0  0  0  0  0  0  0  0
  -52.3191    1.2064  -18.9649 C   0  0  0  0  0  0  0  0  0  0  0  0
 30 29  1  0  0  0
 30 31  1  0  0  0
 35 36  1  0  0  0
 35 31  1  0  0  0
 29 28  1  0  0  0
 31 32  1  0  0  0
 25 24  2  0  0  0
 25 26  1  0  0  0
 34 32  1  0  0  0
 28 26  1  0  0  0
 28 33  1  0  0  0
 24 23  1  0  0  0
 32 33  1  0  0  0
 26 27  2  0  0  0
 23 22  2  0  0  0
 27 22  1  0  0  0
 22 20  1  0  0  0
 20  3  1  0  0  0
 17 16  1  0  0  0
 19 16  1  0  0  0
  3  4  2  0  0  0
  3  8  1  0  0  0
  4  5  1  0  0  0
 16 18  1  0  0  0
 16 14  1  0  0  0
 15 14  1  0  0  0
 14  9  1  0  0  0
  8  2  2  0  0  0
  5  9  1  0  0  0
  5  1  2  0  0  0
  9  6  1  0  0  0
  2  1  1  0  0  0
  1  7  1  0  0  0
  6  7  2  0  0  0
  6 11  1  0  0  0
 11 12  1  0  0  0
 11 10  1  0  0  0
 20 21  1  0  0  0
 12 13  1  0  0  0
M  END
> <minimizedAffinity>
-7.24465

$$$$
5CAU_4ZR_A_1102


 36 39  0  0  0  0  0  0  0  0999 V2000
  -52.2821    0.5926  -22.5184 C   0  0  0  0  0  0  0  0  0  0  0  0
  -51.7757    0.8039  -21.2404 C   0  0  0  0  0  0  0  0  0  0  0  0
  -49.9332   -0.5534  -21.7065 C   0  0  0  0  0  0  0  0  0  0  0  0
  -50.3886   -0.8407  -22.9957 C   0  0  0  0  0  0  0  0  0  0  0  0
  -51.5846   -0.2498  -23.4256 C   0  0  0  0  0  0  0  0  0  0  0  0
  -53.4525    0.5201  -24.3448 C   0  0  0  0  0  0  0  0  0  0  0  0
  -53.3896    1.0267  -23.1522 N   0  0  0  0  0  0  0  0  0  0  0  0
  -50.6404    0.2297  -20.8899 N   0  0  0  0  0  0  0  0  0  0  0  0
  -52.3314   -0.2450  -24.5886 N   0  0  0  0  0  0  0  0  0  0  0  0
  -55.4807   -0.4307  -25.5475 C   0  0  0  0  0  0  0  0  0  0  0  0
  -54.5871    0.7902  -25.3119 C   0  0  0  0  0  0  0  0  0  0  0  0
  -55.3776    1.8210  -24.7454 O   0  0  0  0  0  0  0  0  0  0  0  0
  -55.7311    1.5254  -23.8919 H   0  0  0  0  0  0  0  0  0  0  0  0
  -52.0376   -0.9805  -25.8342 C   0  0  0  0  0  0  0  0  0  0  0  0
  -50.7019   -0.6488  -26.5218 C   0  0  0  0  0  0  0  0  0  0  0  0
  -52.3847   -2.4602  -25.7184 C   0  0  0  0  0  0  0  0  0  0  0  0
  -51.2437   -3.2301  -25.5703 F   0  0  0  0  0  0  0  0  0  0  0  0
  -53.1956   -2.6519  -24.6010 F   0  0  0  0  0  0  0  0  0  0  0  0
  -53.0588   -2.8734  -26.8598 F   0  0  0  0  0  0  0  0  0  0  0  0
  -48.7710   -1.0940  -21.1611 N   0  0  0  0  0  0  0  0  0  0  0  0
  -48.0975   -0.4391  -20.8665 H   0  0  0  0  0  0  0  0  0  0  0  0
  -48.4304   -2.4205  -20.9753 C   0  0  0  0  0  0  0  0  0  0  0  0
  -48.2115   -2.8961  -19.6721 C   0  0  0  0  0  0  0  0  0  0  0  0
  -47.9030   -4.2428  -19.5367 C   0  0  0  0  0  0  0  0  0  0  0  0
  -47.8079   -5.0232  -20.6129 N   0  0  0  0  0  0  0  0  0  0  0  0
  -48.0073   -4.5454  -21.8461 C   0  0  0  0  0  0  0  0  0  0  0  0
  -48.3455   -3.2644  -22.0017 N   0  0  0  0  0  0  0  0  0  0  0  0
  -47.9846   -5.3773  -22.9736 N   0  0  0  0  0  0  0  0  0  0  0  0
  -48.8654   -6.5666  -23.0553 C   0  0  0  0  0  0  0  0  0  0  0  0
  -49.3373   -6.7883  -24.5048 C   0  0  0  0  0  0  0  0  0  0  0  0
  -48.1339   -6.7864  -25.4717 C   0  0  0  0  0  0  0  0  0  0  0  0
  -47.3037   -5.4869  -25.3366 C   0  0  0  0  0  0  0  0  0  0  0  0
  -46.8160   -5.3261  -23.8854 C   0  0  0  0  0  0  0  0  0  0  0  0
  -48.1349   -4.4112  -25.6716 F   0  0  0  0  0  0  0  0  0  0  0  0
  -48.6366   -6.8864  -26.8055 O   0  0  0  0  0  0  0  0  0  0  0  0
  -47.6183   -6.9429  -27.8102 C   0  0  0  0  0  0  0  0  0  0  0  0
 30 29  1  0  0  0
 30 31  1  0  0  0
 35 36  1  0  0  0
 35 31  1  0  0  0
 29 28  1  0  0  0
 31 32  1  0  0  0
 25 24  2  0  0  0
 25 26  1  0  0  0
 34 32  1  0  0  0
 28 26  1  0  0  0
 28 33  1  0  0  0
 24 23  1  0  0  0
 32 33  1  0  0  0
 26 27  2  0  0  0
 23 22  2  0  0  0
 27 22  1  0  0  0
 22 20  1  0  0  0
 20  3  1  0  0  0
 17 16  1  0  0  0
 19 16  1  0  0  0
  3  4  2  0  0  0
  3  8  1  0  0  0
  4  5  1  0  0  0
 16 18  1  0  0  0
 16 14  1  0  0  0
 15 14  1  0  0  0
 14  9  1  0  0  0
  8  2  2  0  0  0
  5  9  1  0  0  0
  5  1  2  0  0  0
  9  6  1  0  0  0
  2  1  1  0  0  0
  1  7  1  0  0  0
  6  7  2  0  0  0
  6 11  1  0  0  0
 11 12  1  0  0  0
 11 10  1  0  0  0
 20 21  1  0  0  0
 12 13  1  0  0  0
M  END
> <minimizedAffinity>
-7.10550

$$$$
