1RR6_IMH_A_300


 25 27  0  0  0  0  0  0  0  0999 V2000
    3.0283   19.8944   23.1733 C   0  0  0  0  0  0  0  0  0  0  0  0
    3.6541   20.0274   24.4670 N   0  0  0  0  0  0  0  0  0  0  0  0
    3.1087   18.4550   22.7683 C   0  0  0  0  0  0  0  0  0  0  0  0
    4.1046   18.4061   21.7306 O   0  0  0  0  0  0  0  0  0  0  0  0
    3.5148   17.7324   24.0245 C   0  0  0  0  0  0  0  0  0  0  0  0
    4.5658   16.7870   23.7606 O   0  0  0  0  0  0  0  0  0  0  0  0
    3.9644   18.7656   25.0967 C   0  0  0  0  0  0  0  0  0  0  0  0
    3.0225   20.5451   25.0780 H   0  0  0  0  0  0  0  0  0  0  0  0
    4.9285   18.8026   22.0542 H   0  0  0  0  0  0  0  0  0  0  0  0
    5.3452   17.2557   23.4234 H   0  0  0  0  0  0  0  0  0  0  0  0
    3.1124   18.7039   26.3847 C   0  0  0  0  0  0  0  0  0  0  0  0
    2.9596   19.7554   27.2778 C   0  0  0  0  0  0  0  0  0  0  0  0
    2.1841   19.5042   28.3026 N   0  0  0  0  0  0  0  0  0  0  0  0
    1.7577   18.1936   28.1225 C   0  0  0  0  0  0  0  0  0  0  0  0
    0.8767   17.3816   28.9457 C   0  0  0  0  0  0  0  0  0  0  0  0
    0.3148   17.7175   29.9848 O   0  0  0  0  0  0  0  0  0  0  0  0
    0.6730   16.0808   28.4417 N   0  0  0  0  0  0  0  0  0  0  0  0
    1.2562   15.5918   27.2654 C   0  0  0  0  0  0  0  0  0  0  0  0
    2.0902   16.3587   26.4814 N   0  0  0  0  0  0  0  0  0  0  0  0
    2.3123   17.6575   26.9583 C   0  0  0  0  0  0  0  0  0  0  0  0
    1.9529   20.1125   29.0413 H   0  0  0  0  0  0  0  0  0  0  0  0
    0.4429   18.5796   30.3290 H   0  0  0  0  0  0  0  0  0  0  0  0
    1.5537   21.5723   23.9051 O   0  0  0  0  0  0  0  0  0  0  0  0
    1.6199   20.3616   23.1689 C   0  0  0  0  0  0  0  0  0  0  0  0
    0.6392   21.8954   23.9145 H   0  0  0  0  0  0  0  0  0  0  0  0
 23 24  1  0  0  0
 24  1  1  0  0  0
  1  2  1  0  0  0
  1  3  1  0  0  0
  2  7  1  0  0  0
  3  4  1  0  0  0
  3  5  1  0  0  0
  5  6  1  0  0  0
  5  7  1  0  0  0
  7 11  1  0  0  0
 11 12  2  0  0  0
 11 20  1  0  0  0
 12 13  1  0  0  0
 13 14  1  0  0  0
 14 15  1  0  0  0
 14 20  2  0  0  0
 15 16  1  0  0  0
 15 17  2  0  0  0
 17 18  1  0  0  0
 18 19  2  0  0  0
 19 20  1  0  0  0
 23 25  1  0  0  0
  2  8  1  0  0  0
  4  9  1  0  0  0
  6 10  1  0  0  0
 13 21  1  0  0  0
 16 22  1  0  0  0
M  END
> <minimizedAffinity>
-9.31496

$$$$
1RR6_IMH_A_300


 25 27  0  0  0  0  0  0  0  0999 V2000
    2.2277   17.0781   27.4450 C   0  0  0  0  0  0  0  0  0  0  0  0
    3.4707   17.5173   26.8578 N   0  0  0  0  0  0  0  0  0  0  0  0
    1.4487   18.2949   27.8385 C   0  0  0  0  0  0  0  0  0  0  0  0
    1.5245   18.3482   29.2746 O   0  0  0  0  0  0  0  0  0  0  0  0
    2.1590   19.4335   27.1573 C   0  0  0  0  0  0  0  0  0  0  0  0
    2.3475   20.5385   28.0581 O   0  0  0  0  0  0  0  0  0  0  0  0
    3.5261   18.9378   26.6053 C   0  0  0  0  0  0  0  0  0  0  0  0
    3.5985   17.0280   25.9720 H   0  0  0  0  0  0  0  0  0  0  0  0
    2.4544   18.3321   29.5501 H   0  0  0  0  0  0  0  0  0  0  0  0
    2.8936   20.2550   28.8079 H   0  0  0  0  0  0  0  0  0  0  0  0
    3.6498   19.1004   25.0733 C   0  0  0  0  0  0  0  0  0  0  0  0
    3.0825   20.1362   24.3440 C   0  0  0  0  0  0  0  0  0  0  0  0
    3.3155   20.0999   23.0559 N   0  0  0  0  0  0  0  0  0  0  0  0
    4.1002   18.9693   22.8607 C   0  0  0  0  0  0  0  0  0  0  0  0
    4.6632   18.4294   21.6341 C   0  0  0  0  0  0  0  0  0  0  0  0
    4.5570   18.8942   20.5023 O   0  0  0  0  0  0  0  0  0  0  0  0
    5.4111   17.2501   21.8273 N   0  0  0  0  0  0  0  0  0  0  0  0
    5.6040   16.6349   23.0712 C   0  0  0  0  0  0  0  0  0  0  0  0
    5.0738   17.1444   24.2364 N   0  0  0  0  0  0  0  0  0  0  0  0
    4.3237   18.3170   24.0752 C   0  0  0  0  0  0  0  0  0  0  0  0
    3.0023   20.7361   22.3730 H   0  0  0  0  0  0  0  0  0  0  0  0
    4.0623   19.6775   20.3620 H   0  0  0  0  0  0  0  0  0  0  0  0
    0.5629   15.4238   27.3145 O   0  0  0  0  0  0  0  0  0  0  0  0
    1.4340   16.2217   26.5293 C   0  0  0  0  0  0  0  0  0  0  0  0
    0.0337   14.8551   26.7336 H   0  0  0  0  0  0  0  0  0  0  0  0
 23 24  1  0  0  0
 24  1  1  0  0  0
  1  2  1  0  0  0
  1  3  1  0  0  0
  2  7  1  0  0  0
  3  4  1  0  0  0
  3  5  1  0  0  0
  5  6  1  0  0  0
  5  7  1  0  0  0
  7 11  1  0  0  0
 11 12  2  0  0  0
 11 20  1  0  0  0
 12 13  1  0  0  0
 13 14  1  0  0  0
 14 15  1  0  0  0
 14 20  2  0  0  0
 15 16  1  0  0  0
 15 17  2  0  0  0
 17 18  1  0  0  0
 18 19  2  0  0  0
 19 20  1  0  0  0
 23 25  1  0  0  0
  2  8  1  0  0  0
  4  9  1  0  0  0
  6 10  1  0  0  0
 13 21  1  0  0  0
 16 22  1  0  0  0
M  END
> <minimizedAffinity>
-8.85470

$$$$
1RR6_IMH_A_300


 25 27  0  0  0  0  0  0  0  0999 V2000
    5.6599   17.4044   23.1803 C   0  0  0  0  0  0  0  0  0  0  0  0
    4.3445   17.0591   23.6636 N   0  0  0  0  0  0  0  0  0  0  0  0
    5.5721   18.7481   22.5253 C   0  0  0  0  0  0  0  0  0  0  0  0
    5.6724   18.4909   21.1129 O   0  0  0  0  0  0  0  0  0  0  0  0
    4.2296   19.2841   22.9440 C   0  0  0  0  0  0  0  0  0  0  0  0
    3.5252   19.8473   21.8238 O   0  0  0  0  0  0  0  0  0  0  0  0
    3.3960   18.1458   23.5986 C   0  0  0  0  0  0  0  0  0  0  0  0
    4.4269   16.7619   24.6359 H   0  0  0  0  0  0  0  0  0  0  0  0
    4.9954   17.8468   20.8527 H   0  0  0  0  0  0  0  0  0  0  0  0
    3.3745   19.1588   21.1574 H   0  0  0  0  0  0  0  0  0  0  0  0
    2.9953   18.4581   25.0583 C   0  0  0  0  0  0  0  0  0  0  0  0
    3.2124   19.6746   25.6904 C   0  0  0  0  0  0  0  0  0  0  0  0
    2.7864   19.7407   26.9269 N   0  0  0  0  0  0  0  0  0  0  0  0
    2.2291   18.4940   27.1860 C   0  0  0  0  0  0  0  0  0  0  0  0
    1.5979   17.9914   28.3952 C   0  0  0  0  0  0  0  0  0  0  0  0
    1.4217   18.6000   29.4473 O   0  0  0  0  0  0  0  0  0  0  0  0
    1.1490   16.6595   28.2861 N   0  0  0  0  0  0  0  0  0  0  0  0
    1.2904   15.8726   27.1356 C   0  0  0  0  0  0  0  0  0  0  0  0
    1.8863   16.3457   25.9869 N   0  0  0  0  0  0  0  0  0  0  0  0
    2.3438   17.6679   26.0659 C   0  0  0  0  0  0  0  0  0  0  0  0
    2.8476   20.5081   27.5406 H   0  0  0  0  0  0  0  0  0  0  0  0
    1.7159   19.4857   29.5312 H   0  0  0  0  0  0  0  0  0  0  0  0
    6.9624   16.0676   24.6092 O   0  0  0  0  0  0  0  0  0  0  0  0
    6.6806   17.4125   24.2573 C   0  0  0  0  0  0  0  0  0  0  0  0
    7.6291   16.0505   25.3135 H   0  0  0  0  0  0  0  0  0  0  0  0
 23 24  1  0  0  0
 24  1  1  0  0  0
  1  2  1  0  0  0
  1  3  1  0  0  0
  2  7  1  0  0  0
  3  4  1  0  0  0
  3  5  1  0  0  0
  5  6  1  0  0  0
  5  7  1  0  0  0
  7 11  1  0  0  0
 11 12  2  0  0  0
 11 20  1  0  0  0
 12 13  1  0  0  0
 13 14  1  0  0  0
 14 15  1  0  0  0
 14 20  2  0  0  0
 15 16  1  0  0  0
 15 17  2  0  0  0
 17 18  1  0  0  0
 18 19  2  0  0  0
 19 20  1  0  0  0
 23 25  1  0  0  0
  2  8  1  0  0  0
  4  9  1  0  0  0
  6 10  1  0  0  0
 13 21  1  0  0  0
 16 22  1  0  0  0
M  END
> <minimizedAffinity>
-8.55243

$$$$
1RR6_IMH_A_300


 25 27  0  0  0  0  0  0  0  0999 V2000
    1.9539   16.8980   27.8057 C   0  0  0  0  0  0  0  0  0  0  0  0
    3.2742   17.1376   27.2743 N   0  0  0  0  0  0  0  0  0  0  0  0
    1.2509   18.2164   27.9051 C   0  0  0  0  0  0  0  0  0  0  0  0
    1.2115   18.5222   29.3108 O   0  0  0  0  0  0  0  0  0  0  0  0
    2.1094   19.1619   27.1090 C   0  0  0  0  0  0  0  0  0  0  0  0
    2.3154   20.3957   27.8187 O   0  0  0  0  0  0  0  0  0  0  0  0
    3.4707   18.4822   26.7861 C   0  0  0  0  0  0  0  0  0  0  0  0
    3.4332   16.4891   26.5033 H   0  0  0  0  0  0  0  0  0  0  0  0
    2.1106   18.4922   29.6736 H   0  0  0  0  0  0  0  0  0  0  0  0
    2.7714   20.2150   28.6556 H   0  0  0  0  0  0  0  0  0  0  0  0
    3.7345   18.3571   25.2684 C   0  0  0  0  0  0  0  0  0  0  0  0
    4.0504   17.1711   24.6202 C   0  0  0  0  0  0  0  0  0  0  0  0
    4.2237   17.2756   23.3264 N   0  0  0  0  0  0  0  0  0  0  0  0
    4.0139   18.6193   23.0394 C   0  0  0  0  0  0  0  0  0  0  0  0
    4.0690   19.3170   21.7652 C   0  0  0  0  0  0  0  0  0  0  0  0
    4.3079   18.8302   20.6633 O   0  0  0  0  0  0  0  0  0  0  0  0
    3.7999   20.6972   21.8652 N   0  0  0  0  0  0  0  0  0  0  0  0
    3.5095   21.3580   23.0660 C   0  0  0  0  0  0  0  0  0  0  0  0
    3.4544   20.7001   24.2754 N   0  0  0  0  0  0  0  0  0  0  0  0
    3.7189   19.3257   24.2074 C   0  0  0  0  0  0  0  0  0  0  0  0
    4.4532   16.5573   22.6935 H   0  0  0  0  0  0  0  0  0  0  0  0
    4.4882   17.9141   20.5849 H   0  0  0  0  0  0  0  0  0  0  0  0
    1.5381   14.6292   27.3527 O   0  0  0  0  0  0  0  0  0  0  0  0
    1.1693   15.9471   26.9797 C   0  0  0  0  0  0  0  0  0  0  0  0
    1.0353   13.9907   26.8232 H   0  0  0  0  0  0  0  0  0  0  0  0
 23 24  1  0  0  0
 24  1  1  0  0  0
  1  2  1  0  0  0
  1  3  1  0  0  0
  2  7  1  0  0  0
  3  4  1  0  0  0
  3  5  1  0  0  0
  5  6  1  0  0  0
  5  7  1  0  0  0
  7 11  1  0  0  0
 11 12  2  0  0  0
 11 20  1  0  0  0
 12 13  1  0  0  0
 13 14  1  0  0  0
 14 15  1  0  0  0
 14 20  2  0  0  0
 15 16  1  0  0  0
 15 17  2  0  0  0
 17 18  1  0  0  0
 18 19  2  0  0  0
 19 20  1  0  0  0
 23 25  1  0  0  0
  2  8  1  0  0  0
  4  9  1  0  0  0
  6 10  1  0  0  0
 13 21  1  0  0  0
 16 22  1  0  0  0
M  END
> <minimizedAffinity>
-8.41985

$$$$
1RR6_IMH_A_300


 25 27  0  0  0  0  0  0  0  0999 V2000
    1.7049   19.6836   24.5101 C   0  0  0  0  0  0  0  0  0  0  0  0
    2.1244   18.8085   23.4419 N   0  0  0  0  0  0  0  0  0  0  0  0
    2.6581   19.5073   25.6514 C   0  0  0  0  0  0  0  0  0  0  0  0
    1.9273   18.7699   26.6480 O   0  0  0  0  0  0  0  0  0  0  0  0
    3.8120   18.7406   25.0634 C   0  0  0  0  0  0  0  0  0  0  0  0
    4.2080   17.6600   25.9257 O   0  0  0  0  0  0  0  0  0  0  0  0
    3.4172   18.2030   23.6582 C   0  0  0  0  0  0  0  0  0  0  0  0
    2.1635   19.3505   22.5787 H   0  0  0  0  0  0  0  0  0  0  0  0
    1.5792   17.9538   26.2558 H   0  0  0  0  0  0  0  0  0  0  0  0
    3.4668   17.0436   26.0330 H   0  0  0  0  0  0  0  0  0  0  0  0
    4.3360   18.7313   22.5333 C   0  0  0  0  0  0  0  0  0  0  0  0
    3.8839   19.3032   21.3521 C   0  0  0  0  0  0  0  0  0  0  0  0
    4.8250   19.6996   20.5323 N   0  0  0  0  0  0  0  0  0  0  0  0
    6.0189   19.3926   21.1745 C   0  0  0  0  0  0  0  0  0  0  0  0
    7.3895   19.6079   20.7408 C   0  0  0  0  0  0  0  0  0  0  0  0
    7.7622   20.1309   19.6939 O   0  0  0  0  0  0  0  0  0  0  0  0
    8.3522   19.1580   21.6671 N   0  0  0  0  0  0  0  0  0  0  0  0
    8.0435   18.5534   22.8927 C   0  0  0  0  0  0  0  0  0  0  0  0
    6.7458   18.3492   23.3084 N   0  0  0  0  0  0  0  0  0  0  0  0
    5.7660   18.7859   22.4067 C   0  0  0  0  0  0  0  0  0  0  0  0
    4.7114   20.1236   19.6511 H   0  0  0  0  0  0  0  0  0  0  0  0
    7.1312   20.4337   19.0709 H   0  0  0  0  0  0  0  0  0  0  0  0
    0.2992   21.4149   23.7671 O   0  0  0  0  0  0  0  0  0  0  0  0
    1.6448   21.1065   24.0931 C   0  0  0  0  0  0  0  0  0  0  0  0
    0.2379   22.3428   23.4913 H   0  0  0  0  0  0  0  0  0  0  0  0
 23 24  1  0  0  0
 24  1  1  0  0  0
  1  2  1  0  0  0
  1  3  1  0  0  0
  2  7  1  0  0  0
  3  4  1  0  0  0
  3  5  1  0  0  0
  5  6  1  0  0  0
  5  7  1  0  0  0
  7 11  1  0  0  0
 11 12  2  0  0  0
 11 20  1  0  0  0
 12 13  1  0  0  0
 13 14  1  0  0  0
 14 15  1  0  0  0
 14 20  2  0  0  0
 15 16  1  0  0  0
 15 17  2  0  0  0
 17 18  1  0  0  0
 18 19  2  0  0  0
 19 20  1  0  0  0
 23 25  1  0  0  0
  2  8  1  0  0  0
  4  9  1  0  0  0
  6 10  1  0  0  0
 13 21  1  0  0  0
 16 22  1  0  0  0
M  END
> <minimizedAffinity>
-8.21679

$$$$
1RR6_IMH_A_300


 25 27  0  0  0  0  0  0  0  0999 V2000
    6.1129   17.1113   22.4033 C   0  0  0  0  0  0  0  0  0  0  0  0
    5.0113   17.6109   21.6159 N   0  0  0  0  0  0  0  0  0  0  0  0
    7.2529   18.0719   22.2624 C   0  0  0  0  0  0  0  0  0  0  0  0
    8.2111   17.4052   21.4206 O   0  0  0  0  0  0  0  0  0  0  0  0
    6.6416   19.2914   21.6268 C   0  0  0  0  0  0  0  0  0  0  0  0
    7.4598   19.7781   20.5489 O   0  0  0  0  0  0  0  0  0  0  0  0
    5.2116   18.9514   21.1181 C   0  0  0  0  0  0  0  0  0  0  0  0
    4.1726   17.6053   22.1963 H   0  0  0  0  0  0  0  0  0  0  0  0
    7.7815   17.1323   20.5949 H   0  0  0  0  0  0  0  0  0  0  0  0
    7.5346   19.0939   19.8654 H   0  0  0  0  0  0  0  0  0  0  0  0
    4.1176   19.8243   21.7739 C   0  0  0  0  0  0  0  0  0  0  0  0
    3.9920   21.1948   21.5937 C   0  0  0  0  0  0  0  0  0  0  0  0
    2.9887   21.7478   22.2280 N   0  0  0  0  0  0  0  0  0  0  0  0
    2.3618   20.7029   22.8968 C   0  0  0  0  0  0  0  0  0  0  0  0
    1.1897   20.7202   23.7564 C   0  0  0  0  0  0  0  0  0  0  0  0
    0.5026   21.6938   24.0535 O   0  0  0  0  0  0  0  0  0  0  0  0
    0.8449   19.4520   24.2666 N   0  0  0  0  0  0  0  0  0  0  0  0
    1.5509   18.2738   23.9907 C   0  0  0  0  0  0  0  0  0  0  0  0
    2.6612   18.2527   23.1750 N   0  0  0  0  0  0  0  0  0  0  0  0
    3.0288   19.5003   22.6535 C   0  0  0  0  0  0  0  0  0  0  0  0
    2.7335   22.6987   22.2306 H   0  0  0  0  0  0  0  0  0  0  0  0
    0.7223   22.5415   23.7202 H   0  0  0  0  0  0  0  0  0  0  0  0
    6.8358   16.2678   24.4748 O   0  0  0  0  0  0  0  0  0  0  0  0
    5.7569   16.9272   23.8321 C   0  0  0  0  0  0  0  0  0  0  0  0
    6.6229   16.1374   25.4121 H   0  0  0  0  0  0  0  0  0  0  0  0
 23 24  1  0  0  0
 24  1  1  0  0  0
  1  2  1  0  0  0
  1  3  1  0  0  0
  2  7  1  0  0  0
  3  4  1  0  0  0
  3  5  1  0  0  0
  5  6  1  0  0  0
  5  7  1  0  0  0
  7 11  1  0  0  0
 11 12  2  0  0  0
 11 20  1  0  0  0
 12 13  1  0  0  0
 13 14  1  0  0  0
 14 15  1  0  0  0
 14 20  2  0  0  0
 15 16  1  0  0  0
 15 17  2  0  0  0
 17 18  1  0  0  0
 18 19  2  0  0  0
 19 20  1  0  0  0
 23 25  1  0  0  0
  2  8  1  0  0  0
  4  9  1  0  0  0
  6 10  1  0  0  0
 13 21  1  0  0  0
 16 22  1  0  0  0
M  END
> <minimizedAffinity>
-8.09461

$$$$
1RR6_IMH_A_300


 25 27  0  0  0  0  0  0  0  0999 V2000
    2.3600   19.1428   23.3845 C   0  0  0  0  0  0  0  0  0  0  0  0
    3.1063   18.4238   22.3800 N   0  0  0  0  0  0  0  0  0  0  0  0
    2.9585   18.8238   24.7196 C   0  0  0  0  0  0  0  0  0  0  0  0
    2.0118   17.9515   25.3631 O   0  0  0  0  0  0  0  0  0  0  0  0
    4.2671   18.1548   24.3955 C   0  0  0  0  0  0  0  0  0  0  0  0
    4.4544   16.9719   25.1916 O   0  0  0  0  0  0  0  0  0  0  0  0
    4.3126   17.8076   22.8801 C   0  0  0  0  0  0  0  0  0  0  0  0
    3.3621   19.0775   21.6400 H   0  0  0  0  0  0  0  0  0  0  0  0
    1.8287   17.1924   24.7877 H   0  0  0  0  0  0  0  0  0  0  0  0
    3.7437   16.3393   25.0029 H   0  0  0  0  0  0  0  0  0  0  0  0
    5.4857   18.4918   22.1422 C   0  0  0  0  0  0  0  0  0  0  0  0
    6.8257   18.3058   22.4527 C   0  0  0  0  0  0  0  0  0  0  0  0
    7.6668   18.9679   21.6984 N   0  0  0  0  0  0  0  0  0  0  0  0
    6.8730   19.6640   20.7942 C   0  0  0  0  0  0  0  0  0  0  0  0
    7.2590   20.5606   19.7171 C   0  0  0  0  0  0  0  0  0  0  0  0
    8.3996   20.8725   19.3850 O   0  0  0  0  0  0  0  0  0  0  0  0
    6.1645   21.0907   19.0041 N   0  0  0  0  0  0  0  0  0  0  0  0
    4.8239   20.8009   19.2898 C   0  0  0  0  0  0  0  0  0  0  0  0
    4.4538   19.9502   20.3085 N   0  0  0  0  0  0  0  0  0  0  0  0
    5.5217   19.4081   21.0362 C   0  0  0  0  0  0  0  0  0  0  0  0
    8.6494   18.9719   21.7588 H   0  0  0  0  0  0  0  0  0  0  0  0
    9.1346   20.5262   19.8517 H   0  0  0  0  0  0  0  0  0  0  0  0
    1.0575   21.0980   23.4611 O   0  0  0  0  0  0  0  0  0  0  0  0
    2.3521   20.6082   23.1509 C   0  0  0  0  0  0  0  0  0  0  0  0
    1.0309   22.0565   23.3148 H   0  0  0  0  0  0  0  0  0  0  0  0
 23 24  1  0  0  0
 24  1  1  0  0  0
  1  2  1  0  0  0
  1  3  1  0  0  0
  2  7  1  0  0  0
  3  4  1  0  0  0
  3  5  1  0  0  0
  5  6  1  0  0  0
  5  7  1  0  0  0
  7 11  1  0  0  0
 11 12  2  0  0  0
 11 20  1  0  0  0
 12 13  1  0  0  0
 13 14  1  0  0  0
 14 15  1  0  0  0
 14 20  2  0  0  0
 15 16  1  0  0  0
 15 17  2  0  0  0
 17 18  1  0  0  0
 18 19  2  0  0  0
 19 20  1  0  0  0
 23 25  1  0  0  0
  2  8  1  0  0  0
  4  9  1  0  0  0
  6 10  1  0  0  0
 13 21  1  0  0  0
 16 22  1  0  0  0
M  END
> <minimizedAffinity>
-7.98756

$$$$
1RR6_IMH_A_300


 25 27  0  0  0  0  0  0  0  0999 V2000
    2.0254   19.2162   24.6840 C   0  0  0  0  0  0  0  0  0  0  0  0
    2.6334   18.2743   23.7751 N   0  0  0  0  0  0  0  0  0  0  0  0
    2.6236   19.0003   26.0396 C   0  0  0  0  0  0  0  0  0  0  0  0
    1.5933   18.3592   26.8132 O   0  0  0  0  0  0  0  0  0  0  0  0
    3.8195   18.1221   25.7880 C   0  0  0  0  0  0  0  0  0  0  0  0
    3.8767   17.0420   26.7358 O   0  0  0  0  0  0  0  0  0  0  0  0
    3.7645   17.5722   24.3341 C   0  0  0  0  0  0  0  0  0  0  0  0
    2.9470   18.7821   22.9479 H   0  0  0  0  0  0  0  0  0  0  0  0
    1.2907   17.5620   26.3510 H   0  0  0  0  0  0  0  0  0  0  0  0
    3.0821   16.4926   26.6483 H   0  0  0  0  0  0  0  0  0  0  0  0
    4.9908   17.9852   23.4890 C   0  0  0  0  0  0  0  0  0  0  0  0
    6.2915   17.5665   23.7333 C   0  0  0  0  0  0  0  0  0  0  0  0
    7.1870   18.0195   22.8922 N   0  0  0  0  0  0  0  0  0  0  0  0
    6.4758   18.8057   21.9932 C   0  0  0  0  0  0  0  0  0  0  0  0
    6.9465   19.5580   20.8419 C   0  0  0  0  0  0  0  0  0  0  0  0
    8.0998   19.6325   20.4262 O   0  0  0  0  0  0  0  0  0  0  0  0
    5.9227   20.2477   20.1611 N   0  0  0  0  0  0  0  0  0  0  0  0
    4.5742   20.2301   20.5405 C   0  0  0  0  0  0  0  0  0  0  0  0
    4.1236   19.5169   21.6299 N   0  0  0  0  0  0  0  0  0  0  0  0
    5.1200   18.8212   22.3277 C   0  0  0  0  0  0  0  0  0  0  0  0
    8.1553   17.8416   22.8958 H   0  0  0  0  0  0  0  0  0  0  0  0
    8.7883   19.1783   20.8707 H   0  0  0  0  0  0  0  0  0  0  0  0
    1.6248   20.7677   22.9641 O   0  0  0  0  0  0  0  0  0  0  0  0
    2.2034   20.6245   24.2513 C   0  0  0  0  0  0  0  0  0  0  0  0
    1.7307   21.6834   22.6621 H   0  0  0  0  0  0  0  0  0  0  0  0
 23 24  1  0  0  0
 24  1  1  0  0  0
  1  2  1  0  0  0
  1  3  1  0  0  0
  2  7  1  0  0  0
  3  4  1  0  0  0
  3  5  1  0  0  0
  5  6  1  0  0  0
  5  7  1  0  0  0
  7 11  1  0  0  0
 11 12  2  0  0  0
 11 20  1  0  0  0
 12 13  1  0  0  0
 13 14  1  0  0  0
 14 15  1  0  0  0
 14 20  2  0  0  0
 15 16  1  0  0  0
 15 17  2  0  0  0
 17 18  1  0  0  0
 18 19  2  0  0  0
 19 20  1  0  0  0
 23 25  1  0  0  0
  2  8  1  0  0  0
  4  9  1  0  0  0
  6 10  1  0  0  0
 13 21  1  0  0  0
 16 22  1  0  0  0
M  END
> <minimizedAffinity>
-7.79528

$$$$
1RR6_IMH_A_300


 25 27  0  0  0  0  0  0  0  0999 V2000
    5.8886   18.6211   22.1412 C   0  0  0  0  0  0  0  0  0  0  0  0
    4.5349   18.1999   22.4113 N   0  0  0  0  0  0  0  0  0  0  0  0
    5.8287   19.9433   21.4409 C   0  0  0  0  0  0  0  0  0  0  0  0
    6.1782   19.6660   20.0726 O   0  0  0  0  0  0  0  0  0  0  0  0
    4.4049   20.3983   21.6163 C   0  0  0  0  0  0  0  0  0  0  0  0
    3.8636   20.8924   20.3790 O   0  0  0  0  0  0  0  0  0  0  0  0
    3.5455   19.2207   22.1584 C   0  0  0  0  0  0  0  0  0  0  0  0
    4.4724   17.9276   23.3923 H   0  0  0  0  0  0  0  0  0  0  0  0
    5.5947   18.9741   19.7237 H   0  0  0  0  0  0  0  0  0  0  0  0
    3.8683   20.1827   19.7177 H   0  0  0  0  0  0  0  0  0  0  0  0
    2.8891   19.5342   23.5220 C   0  0  0  0  0  0  0  0  0  0  0  0
    2.0213   20.5928   23.7523 C   0  0  0  0  0  0  0  0  0  0  0  0
    1.5629   20.6778   24.9760 N   0  0  0  0  0  0  0  0  0  0  0  0
    2.1392   19.6103   25.6545 C   0  0  0  0  0  0  0  0  0  0  0  0
    1.9909   19.2020   27.0417 C   0  0  0  0  0  0  0  0  0  0  0  0
    1.2945   19.7357   27.9011 O   0  0  0  0  0  0  0  0  0  0  0  0
    2.7423   18.0572   27.3768 N   0  0  0  0  0  0  0  0  0  0  0  0
    3.5647   17.3644   26.4787 C   0  0  0  0  0  0  0  0  0  0  0  0
    3.7066   17.7469   25.1626 N   0  0  0  0  0  0  0  0  0  0  0  0
    2.9715   18.8837   24.8003 C   0  0  0  0  0  0  0  0  0  0  0  0
    0.9436   21.3524   25.3375 H   0  0  0  0  0  0  0  0  0  0  0  0
    0.7909   20.4970   27.6898 H   0  0  0  0  0  0  0  0  0  0  0  0
    7.9322   19.3610   23.0365 O   0  0  0  0  0  0  0  0  0  0  0  0
    6.7135   18.7170   23.3711 C   0  0  0  0  0  0  0  0  0  0  0  0
    8.4874   19.4338   23.8286 H   0  0  0  0  0  0  0  0  0  0  0  0
 23 24  1  0  0  0
 24  1  1  0  0  0
  1  2  1  0  0  0
  1  3  1  0  0  0
  2  7  1  0  0  0
  3  4  1  0  0  0
  3  5  1  0  0  0
  5  6  1  0  0  0
  5  7  1  0  0  0
  7 11  1  0  0  0
 11 12  2  0  0  0
 11 20  1  0  0  0
 12 13  1  0  0  0
 13 14  1  0  0  0
 14 15  1  0  0  0
 14 20  2  0  0  0
 15 16  1  0  0  0
 15 17  2  0  0  0
 17 18  1  0  0  0
 18 19  2  0  0  0
 19 20  1  0  0  0
 23 25  1  0  0  0
  2  8  1  0  0  0
  4  9  1  0  0  0
  6 10  1  0  0  0
 13 21  1  0  0  0
 16 22  1  0  0  0
M  END
> <minimizedAffinity>
-7.77794

$$$$
1RR6_IMH_A_300


 25 27  0  0  0  0  0  0  0  0999 V2000
    2.1078   19.1336   26.9212 C   0  0  0  0  0  0  0  0  0  0  0  0
    1.9668   18.8914   25.5055 N   0  0  0  0  0  0  0  0  0  0  0  0
    2.4545   17.8338   27.5788 C   0  0  0  0  0  0  0  0  0  0  0  0
    1.2633   17.4312   28.2790 O   0  0  0  0  0  0  0  0  0  0  0  0
    2.8185   16.9205   26.4393 C   0  0  0  0  0  0  0  0  0  0  0  0
    2.1927   15.6342   26.5871 O   0  0  0  0  0  0  0  0  0  0  0  0
    2.4049   17.5791   25.0923 C   0  0  0  0  0  0  0  0  0  0  0  0
    2.5184   19.5874   25.0036 H   0  0  0  0  0  0  0  0  0  0  0  0
    0.5168   17.4080   27.6601 H   0  0  0  0  0  0  0  0  0  0  0  0
    1.2286   15.7415   26.5843 H   0  0  0  0  0  0  0  0  0  0  0  0
    3.6018   17.8024   24.1404 C   0  0  0  0  0  0  0  0  0  0  0  0
    4.7362   17.0034   24.1024 C   0  0  0  0  0  0  0  0  0  0  0  0
    5.6318   17.3540   23.2138 N   0  0  0  0  0  0  0  0  0  0  0  0
    5.0969   18.4694   22.5798 C   0  0  0  0  0  0  0  0  0  0  0  0
    5.6461   19.2802   21.5056 C   0  0  0  0  0  0  0  0  0  0  0  0
    6.7182   19.1186   20.9286 O   0  0  0  0  0  0  0  0  0  0  0  0
    4.8090   20.3464   21.1183 N   0  0  0  0  0  0  0  0  0  0  0  0
    3.5649   20.6223   21.7005 C   0  0  0  0  0  0  0  0  0  0  0  0
    3.0399   19.8552   22.7175 N   0  0  0  0  0  0  0  0  0  0  0  0
    3.8511   18.7875   23.1247 C   0  0  0  0  0  0  0  0  0  0  0  0
    6.4974   16.9210   23.0336 H   0  0  0  0  0  0  0  0  0  0  0  0
    7.2826   18.4134   21.1776 H   0  0  0  0  0  0  0  0  0  0  0  0
    3.3967   20.1252   28.6186 O   0  0  0  0  0  0  0  0  0  0  0  0
    3.1315   20.1639   27.2257 C   0  0  0  0  0  0  0  0  0  0  0  0
    4.0650   20.7927   28.8392 H   0  0  0  0  0  0  0  0  0  0  0  0
 23 24  1  0  0  0
 24  1  1  0  0  0
  1  2  1  0  0  0
  1  3  1  0  0  0
  2  7  1  0  0  0
  3  4  1  0  0  0
  3  5  1  0  0  0
  5  6  1  0  0  0
  5  7  1  0  0  0
  7 11  1  0  0  0
 11 12  2  0  0  0
 11 20  1  0  0  0
 12 13  1  0  0  0
 13 14  1  0  0  0
 14 15  1  0  0  0
 14 20  2  0  0  0
 15 16  1  0  0  0
 15 17  2  0  0  0
 17 18  1  0  0  0
 18 19  2  0  0  0
 19 20  1  0  0  0
 23 25  1  0  0  0
  2  8  1  0  0  0
  4  9  1  0  0  0
  6 10  1  0  0  0
 13 21  1  0  0  0
 16 22  1  0  0  0
M  END
> <minimizedAffinity>
-7.72870

$$$$
