4A95_9MT_A_1000


 22 23  0  0  0  0  0  0  0  0999 V2000
   22.4519   47.6939   62.3169 C   0  0  0  0  0  0  0  0  0  0  0  0
   23.6254   48.1142   62.9365 C   0  0  0  0  0  0  0  0  0  0  0  0
   24.8696   47.6163   62.4829 C   0  0  0  0  0  0  0  0  0  0  0  0
   26.0041   48.1004   63.1167 C   0  0  0  0  0  0  0  0  0  0  0  0
   25.8850   48.9847   64.1920 C   0  0  0  0  0  0  0  0  0  0  0  0
   24.6815   49.5218   64.6240 C   0  0  0  0  0  0  0  0  0  0  0  0
   23.5390   49.0184   63.9864 C   0  0  0  0  0  0  0  0  0  0  0  0
   22.3544   49.4954   64.4397 N   0  0  0  0  0  0  0  0  0  0  0  0
   21.1900   49.1475   63.8613 C   0  0  0  0  0  0  0  0  0  0  0  0
   19.9391   49.7899   64.4675 C   0  0  0  0  0  0  0  0  0  0  0  0
   21.2394   48.2080   62.7935 C   0  0  0  0  0  0  0  0  0  0  0  0
   27.2495   47.6221   62.7176 O   0  0  0  0  0  0  0  0  0  0  0  0
   27.3228   46.8247   61.4965 C   0  0  0  0  0  0  0  0  0  0  0  0
   22.4579   46.4255   61.1205 S   0  0  0  0  0  0  0  0  0  0  0  0
   22.9325   47.2103   59.5997 C   0  0  0  0  0  0  0  0  0  0  0  0
   22.4360   48.6585   59.5119 C   0  0  0  0  0  0  0  0  0  0  0  0
   23.4772   49.7862   57.3578 N   0  0  0  0  0  0  0  0  0  0  0  0
   23.0442   49.2872   58.3328 C   0  0  0  0  0  0  0  0  0  0  0  0
   20.0343   47.6924   62.0168 C   0  0  0  0  0  0  0  0  0  0  0  0
   19.0868   48.6127   61.3319 C   0  0  0  0  0  0  0  0  0  0  0  0
   17.6343   48.3236   61.6802 C   0  0  0  0  0  0  0  0  0  0  0  0
   16.7793   49.5693   61.5504 C   0  0  0  0  0  0  0  0  0  0  0  0
 17 18  3  0  0  0
 18 16  1  0  0  0
 16 15  1  0  0  0
 15 14  1  0  0  0
 14  1  1  0  0  0
  1  2  1  0  0  0
  1 11  2  0  0  0
  2  3  1  0  0  0
  2  7  2  0  0  0
  3  4  2  0  0  0
  4 12  1  0  0  0
  4  5  1  0  0  0
 12 13  1  0  0  0
  5  6  2  0  0  0
  6  7  1  0  0  0
  7  8  1  0  0  0
  8  9  2  0  0  0
  9 10  1  0  0  0
  9 11  1  0  0  0
 11 19  1  0  0  0
 19 20  1  0  0  0
 20 21  1  0  0  0
 21 22  1  0  0  0
M  END
> <minimizedAffinity>
-8.76373

$$$$
4A95_9MT_A_1000


 22 23  0  0  0  0  0  0  0  0999 V2000
   22.6821   47.5957   62.1130 C   0  0  0  0  0  0  0  0  0  0  0  0
   21.5115   48.0544   62.7106 C   0  0  0  0  0  0  0  0  0  0  0  0
   20.2600   47.6112   62.2220 C   0  0  0  0  0  0  0  0  0  0  0  0
   19.1323   48.0756   62.8822 C   0  0  0  0  0  0  0  0  0  0  0  0
   19.2588   48.9886   63.9323 C   0  0  0  0  0  0  0  0  0  0  0  0
   20.4740   49.4011   64.4582 C   0  0  0  0  0  0  0  0  0  0  0  0
   21.6085   48.9369   63.7779 C   0  0  0  0  0  0  0  0  0  0  0  0
   22.7992   49.3795   64.2499 N   0  0  0  0  0  0  0  0  0  0  0  0
   23.9638   48.9481   63.7312 C   0  0  0  0  0  0  0  0  0  0  0  0
   25.2247   49.5170   64.3882 C   0  0  0  0  0  0  0  0  0  0  0  0
   23.9021   48.0566   62.6237 C   0  0  0  0  0  0  0  0  0  0  0  0
   17.8780   47.6825   62.4225 O   0  0  0  0  0  0  0  0  0  0  0  0
   17.1812   48.5592   61.4853 C   0  0  0  0  0  0  0  0  0  0  0  0
   22.6458   46.6370   60.6570 S   0  0  0  0  0  0  0  0  0  0  0  0
   22.2686   47.7766   59.3482 C   0  0  0  0  0  0  0  0  0  0  0  0
   23.5278   48.4219   58.7568 C   0  0  0  0  0  0  0  0  0  0  0  0
   22.7434   50.4782   57.2897 N   0  0  0  0  0  0  0  0  0  0  0  0
   23.1213   49.5801   57.9514 C   0  0  0  0  0  0  0  0  0  0  0  0
   25.1054   47.4620   61.9028 C   0  0  0  0  0  0  0  0  0  0  0  0
   26.0772   46.5727   62.5949 C   0  0  0  0  0  0  0  0  0  0  0  0
   26.0609   45.1518   62.0514 C   0  0  0  0  0  0  0  0  0  0  0  0
   26.1262   45.1418   60.5364 C   0  0  0  0  0  0  0  0  0  0  0  0
 17 18  3  0  0  0
 18 16  1  0  0  0
 16 15  1  0  0  0
 15 14  1  0  0  0
 14  1  1  0  0  0
  1  2  1  0  0  0
  1 11  2  0  0  0
  2  3  1  0  0  0
  2  7  2  0  0  0
  3  4  2  0  0  0
  4 12  1  0  0  0
  4  5  1  0  0  0
 12 13  1  0  0  0
  5  6  2  0  0  0
  6  7  1  0  0  0
  7  8  1  0  0  0
  8  9  2  0  0  0
  9 10  1  0  0  0
  9 11  1  0  0  0
 11 19  1  0  0  0
 19 20  1  0  0  0
 20 21  1  0  0  0
 21 22  1  0  0  0
M  END
> <minimizedAffinity>
-8.03151

$$$$
4A95_9MT_A_1000


 22 23  0  0  0  0  0  0  0  0999 V2000
   24.1135   47.5279   61.9220 C   0  0  0  0  0  0  0  0  0  0  0  0
   25.3658   46.9636   61.6958 C   0  0  0  0  0  0  0  0  0  0  0  0
   25.5180   45.9898   60.6808 C   0  0  0  0  0  0  0  0  0  0  0  0
   26.7968   45.4921   60.4802 C   0  0  0  0  0  0  0  0  0  0  0  0
   27.8485   45.9044   61.3028 C   0  0  0  0  0  0  0  0  0  0  0  0
   27.7337   46.8899   62.2718 C   0  0  0  0  0  0  0  0  0  0  0  0
   26.4360   47.3790   62.4765 C   0  0  0  0  0  0  0  0  0  0  0  0
   26.3038   48.3021   63.4598 N   0  0  0  0  0  0  0  0  0  0  0  0
   25.1246   48.9029   63.7045 C   0  0  0  0  0  0  0  0  0  0  0  0
   25.1397   49.9435   64.8280 C   0  0  0  0  0  0  0  0  0  0  0  0
   24.0015   48.4883   62.9352 C   0  0  0  0  0  0  0  0  0  0  0  0
   26.9901   44.5161   59.5061 O   0  0  0  0  0  0  0  0  0  0  0  0
   28.3061   44.4171   58.8808 C   0  0  0  0  0  0  0  0  0  0  0  0
   22.6870   46.9310   61.1164 S   0  0  0  0  0  0  0  0  0  0  0  0
   22.6936   47.6940   59.5127 C   0  0  0  0  0  0  0  0  0  0  0  0
   22.4615   49.2081   59.5871 C   0  0  0  0  0  0  0  0  0  0  0  0
   23.0641   50.2862   57.2483 N   0  0  0  0  0  0  0  0  0  0  0  0
   22.8292   49.7982   58.2942 C   0  0  0  0  0  0  0  0  0  0  0  0
   22.5898   49.0466   63.0649 C   0  0  0  0  0  0  0  0  0  0  0  0
   21.7304   48.7480   64.2423 C   0  0  0  0  0  0  0  0  0  0  0  0
   20.3932   49.4718   64.1902 C   0  0  0  0  0  0  0  0  0  0  0  0
   19.6398   49.1439   62.9157 C   0  0  0  0  0  0  0  0  0  0  0  0
 17 18  3  0  0  0
 18 16  1  0  0  0
 16 15  1  0  0  0
 15 14  1  0  0  0
 14  1  1  0  0  0
  1  2  1  0  0  0
  1 11  2  0  0  0
  2  3  1  0  0  0
  2  7  2  0  0  0
  3  4  2  0  0  0
  4 12  1  0  0  0
  4  5  1  0  0  0
 12 13  1  0  0  0
  5  6  2  0  0  0
  6  7  1  0  0  0
  7  8  1  0  0  0
  8  9  2  0  0  0
  9 10  1  0  0  0
  9 11  1  0  0  0
 11 19  1  0  0  0
 19 20  1  0  0  0
 20 21  1  0  0  0
 21 22  1  0  0  0
M  END
> <minimizedAffinity>
-7.92204

$$$$
4A95_9MT_A_1000


 22 23  0  0  0  0  0  0  0  0999 V2000
   24.3636   47.6319   61.7810 C   0  0  0  0  0  0  0  0  0  0  0  0
   25.6046   47.0466   61.5461 C   0  0  0  0  0  0  0  0  0  0  0  0
   25.7578   46.1493   60.4630 C   0  0  0  0  0  0  0  0  0  0  0  0
   27.0265   45.6275   60.2596 C   0  0  0  0  0  0  0  0  0  0  0  0
   28.0649   45.9411   61.1403 C   0  0  0  0  0  0  0  0  0  0  0  0
   27.9509   46.8525   62.1795 C   0  0  0  0  0  0  0  0  0  0  0  0
   26.6629   47.3660   62.3858 C   0  0  0  0  0  0  0  0  0  0  0  0
   26.5292   48.2145   63.4340 N   0  0  0  0  0  0  0  0  0  0  0  0
   25.3618   48.8324   63.6922 C   0  0  0  0  0  0  0  0  0  0  0  0
   25.3745   49.7826   64.8931 C   0  0  0  0  0  0  0  0  0  0  0  0
   24.2502   48.5147   62.8623 C   0  0  0  0  0  0  0  0  0  0  0  0
   27.2194   44.7235   59.2182 O   0  0  0  0  0  0  0  0  0  0  0  0
   28.5875   44.4520   58.7853 C   0  0  0  0  0  0  0  0  0  0  0  0
   22.9445   47.1450   60.8924 S   0  0  0  0  0  0  0  0  0  0  0  0
   22.5829   45.4958   61.4431 C   0  0  0  0  0  0  0  0  0  0  0  0
   21.8137   45.4802   62.7696 C   0  0  0  0  0  0  0  0  0  0  0  0
   19.5617   46.8197   62.4086 N   0  0  0  0  0  0  0  0  0  0  0  0
   20.5460   46.1958   62.5797 C   0  0  0  0  0  0  0  0  0  0  0  0
   22.8527   49.1067   62.9962 C   0  0  0  0  0  0  0  0  0  0  0  0
   22.0361   48.9262   64.2269 C   0  0  0  0  0  0  0  0  0  0  0  0
   20.6845   49.6194   64.1399 C   0  0  0  0  0  0  0  0  0  0  0  0
   19.6828   48.9922   65.0901 C   0  0  0  0  0  0  0  0  0  0  0  0
 17 18  3  0  0  0
 18 16  1  0  0  0
 16 15  1  0  0  0
 15 14  1  0  0  0
 14  1  1  0  0  0
  1  2  1  0  0  0
  1 11  2  0  0  0
  2  3  1  0  0  0
  2  7  2  0  0  0
  3  4  2  0  0  0
  4 12  1  0  0  0
  4  5  1  0  0  0
 12 13  1  0  0  0
  5  6  2  0  0  0
  6  7  1  0  0  0
  7  8  1  0  0  0
  8  9  2  0  0  0
  9 10  1  0  0  0
  9 11  1  0  0  0
 11 19  1  0  0  0
 19 20  1  0  0  0
 20 21  1  0  0  0
 21 22  1  0  0  0
M  END
> <minimizedAffinity>
-7.72365

$$$$
4A95_9MT_A_1000


 22 23  0  0  0  0  0  0  0  0999 V2000
   23.0341   47.3102   61.4927 C   0  0  0  0  0  0  0  0  0  0  0  0
   24.1035   46.4857   61.1547 C   0  0  0  0  0  0  0  0  0  0  0  0
   24.8893   45.9084   62.1799 C   0  0  0  0  0  0  0  0  0  0  0  0
   25.9175   45.0681   61.7800 C   0  0  0  0  0  0  0  0  0  0  0  0
   26.1796   44.8758   60.4210 C   0  0  0  0  0  0  0  0  0  0  0  0
   25.3962   45.3927   59.4000 C   0  0  0  0  0  0  0  0  0  0  0  0
   24.3667   46.2504   59.8120 C   0  0  0  0  0  0  0  0  0  0  0  0
   23.6306   46.8051   58.8186 N   0  0  0  0  0  0  0  0  0  0  0  0
   22.5676   47.5863   59.0851 C   0  0  0  0  0  0  0  0  0  0  0  0
   21.8197   48.1166   57.8584 C   0  0  0  0  0  0  0  0  0  0  0  0
   22.2793   47.8637   60.4508 C   0  0  0  0  0  0  0  0  0  0  0  0
   26.7304   44.4944   62.7541 O   0  0  0  0  0  0  0  0  0  0  0  0
   28.1535   44.3436   62.4634 C   0  0  0  0  0  0  0  0  0  0  0  0
   22.7506   47.8040   63.1407 S   0  0  0  0  0  0  0  0  0  0  0  0
   23.5352   49.3890   63.3025 C   0  0  0  0  0  0  0  0  0  0  0  0
   24.4765   49.4523   64.5115 C   0  0  0  0  0  0  0  0  0  0  0  0
   26.8157   48.4930   63.7346 N   0  0  0  0  0  0  0  0  0  0  0  0
   25.7812   48.9102   64.1129 C   0  0  0  0  0  0  0  0  0  0  0  0
   21.1249   48.7230   60.9510 C   0  0  0  0  0  0  0  0  0  0  0  0
   19.7264   48.2164   60.9910 C   0  0  0  0  0  0  0  0  0  0  0  0
   18.7529   49.2293   61.5751 C   0  0  0  0  0  0  0  0  0  0  0  0
   17.3287   48.7103   61.5336 C   0  0  0  0  0  0  0  0  0  0  0  0
 17 18  3  0  0  0
 18 16  1  0  0  0
 16 15  1  0  0  0
 15 14  1  0  0  0
 14  1  1  0  0  0
  1  2  1  0  0  0
  1 11  2  0  0  0
  2  3  1  0  0  0
  2  7  2  0  0  0
  3  4  2  0  0  0
  4 12  1  0  0  0
  4  5  1  0  0  0
 12 13  1  0  0  0
  5  6  2  0  0  0
  6  7  1  0  0  0
  7  8  1  0  0  0
  8  9  2  0  0  0
  9 10  1  0  0  0
  9 11  1  0  0  0
 11 19  1  0  0  0
 19 20  1  0  0  0
 20 21  1  0  0  0
 21 22  1  0  0  0
M  END
> <minimizedAffinity>
-7.48078

$$$$
4A95_9MT_A_1000


 22 23  0  0  0  0  0  0  0  0999 V2000
   24.6773   46.6481   61.8600 C   0  0  0  0  0  0  0  0  0  0  0  0
   24.5221   47.6795   62.7819 C   0  0  0  0  0  0  0  0  0  0  0  0
   23.2207   48.1016   63.1425 C   0  0  0  0  0  0  0  0  0  0  0  0
   23.1319   49.1083   64.0922 C   0  0  0  0  0  0  0  0  0  0  0  0
   24.2915   49.7012   64.5984 C   0  0  0  0  0  0  0  0  0  0  0  0
   25.5758   49.2741   64.2957 C   0  0  0  0  0  0  0  0  0  0  0  0
   25.6572   48.2647   63.3262 C   0  0  0  0  0  0  0  0  0  0  0  0
   26.9102   47.8794   62.9824 N   0  0  0  0  0  0  0  0  0  0  0  0
   27.1216   46.8689   62.1190 C   0  0  0  0  0  0  0  0  0  0  0  0
   28.5912   46.5318   61.8515 C   0  0  0  0  0  0  0  0  0  0  0  0
   25.9806   46.2577   61.5276 C   0  0  0  0  0  0  0  0  0  0  0  0
   21.8715   49.5704   64.4621 O   0  0  0  0  0  0  0  0  0  0  0  0
   20.7049   49.0034   63.7910 C   0  0  0  0  0  0  0  0  0  0  0  0
   23.3152   45.9885   60.9940 S   0  0  0  0  0  0  0  0  0  0  0  0
   22.8241   47.2534   59.8481 C   0  0  0  0  0  0  0  0  0  0  0  0
   23.7189   47.2909   58.6033 C   0  0  0  0  0  0  0  0  0  0  0  0
   23.4729   49.6851   57.5063 N   0  0  0  0  0  0  0  0  0  0  0  0
   23.6165   48.6245   57.9980 C   0  0  0  0  0  0  0  0  0  0  0  0
   26.0149   45.1053   60.5315 C   0  0  0  0  0  0  0  0  0  0  0  0
   26.7093   45.2187   59.2204 C   0  0  0  0  0  0  0  0  0  0  0  0
   27.9585   44.3537   59.1424 C   0  0  0  0  0  0  0  0  0  0  0  0
   28.9313   44.8848   58.1075 C   0  0  0  0  0  0  0  0  0  0  0  0
 17 18  3  0  0  0
 18 16  1  0  0  0
 16 15  1  0  0  0
 15 14  1  0  0  0
 14  1  1  0  0  0
  1  2  1  0  0  0
  1 11  2  0  0  0
  2  3  1  0  0  0
  2  7  2  0  0  0
  3  4  2  0  0  0
  4 12  1  0  0  0
  4  5  1  0  0  0
 12 13  1  0  0  0
  5  6  2  0  0  0
  6  7  1  0  0  0
  7  8  1  0  0  0
  8  9  2  0  0  0
  9 10  1  0  0  0
  9 11  1  0  0  0
 11 19  1  0  0  0
 19 20  1  0  0  0
 20 21  1  0  0  0
 21 22  1  0  0  0
M  END
> <minimizedAffinity>
-7.39335

$$$$
4A95_9MT_A_1000


 22 23  0  0  0  0  0  0  0  0999 V2000
   22.6412   48.1972   62.0568 C   0  0  0  0  0  0  0  0  0  0  0  0
   23.7927   48.4298   62.8035 C   0  0  0  0  0  0  0  0  0  0  0  0
   25.0431   47.9862   62.3122 C   0  0  0  0  0  0  0  0  0  0  0  0
   26.1569   48.2797   63.0845 C   0  0  0  0  0  0  0  0  0  0  0  0
   26.0086   48.9245   64.3152 C   0  0  0  0  0  0  0  0  0  0  0  0
   24.8012   49.4092   64.7955 C   0  0  0  0  0  0  0  0  0  0  0  0
   23.6790   49.0979   64.0151 C   0  0  0  0  0  0  0  0  0  0  0  0
   22.4874   49.5188   64.5045 N   0  0  0  0  0  0  0  0  0  0  0  0
   21.3451   49.3479   63.8137 C   0  0  0  0  0  0  0  0  0  0  0  0
   20.0844   49.9012   64.4842 C   0  0  0  0  0  0  0  0  0  0  0  0
   21.4218   48.6506   62.5754 C   0  0  0  0  0  0  0  0  0  0  0  0
   27.4062   47.8439   62.6505 O   0  0  0  0  0  0  0  0  0  0  0  0
   27.6082   46.4103   62.4592 C   0  0  0  0  0  0  0  0  0  0  0  0
   22.6711   47.2071   60.6218 S   0  0  0  0  0  0  0  0  0  0  0  0
   23.1266   45.5825   61.1759 C   0  0  0  0  0  0  0  0  0  0  0  0
   22.8452   45.3762   62.6692 C   0  0  0  0  0  0  0  0  0  0  0  0
   20.2767   44.7902   62.9037 N   0  0  0  0  0  0  0  0  0  0  0  0
   21.4252   45.0413   62.8321 C   0  0  0  0  0  0  0  0  0  0  0  0
   20.2441   48.3589   61.6539 C   0  0  0  0  0  0  0  0  0  0  0  0
   19.3730   49.4420   61.1229 C   0  0  0  0  0  0  0  0  0  0  0  0
   17.9756   49.4178   61.7241 C   0  0  0  0  0  0  0  0  0  0  0  0
   17.2239   48.1650   61.3177 C   0  0  0  0  0  0  0  0  0  0  0  0
 17 18  3  0  0  0
 18 16  1  0  0  0
 16 15  1  0  0  0
 15 14  1  0  0  0
 14  1  1  0  0  0
  1  2  1  0  0  0
  1 11  2  0  0  0
  2  3  1  0  0  0
  2  7  2  0  0  0
  3  4  2  0  0  0
  4 12  1  0  0  0
  4  5  1  0  0  0
 12 13  1  0  0  0
  5  6  2  0  0  0
  6  7  1  0  0  0
  7  8  1  0  0  0
  8  9  2  0  0  0
  9 10  1  0  0  0
  9 11  1  0  0  0
 11 19  1  0  0  0
 19 20  1  0  0  0
 20 21  1  0  0  0
 21 22  1  0  0  0
M  END
> <minimizedAffinity>
-7.08798

$$$$
4A95_9MT_A_1000


 22 23  0  0  0  0  0  0  0  0999 V2000
   23.7891   47.6025   60.1558 C   0  0  0  0  0  0  0  0  0  0  0  0
   24.8681   47.2547   59.3480 C   0  0  0  0  0  0  0  0  0  0  0  0
   25.6999   46.1738   59.7240 C   0  0  0  0  0  0  0  0  0  0  0  0
   26.7361   45.8537   58.8598 C   0  0  0  0  0  0  0  0  0  0  0  0
   26.9605   46.6241   57.7158 C   0  0  0  0  0  0  0  0  0  0  0  0
   26.1327   47.6573   57.3028 C   0  0  0  0  0  0  0  0  0  0  0  0
   25.0951   47.9823   58.1877 C   0  0  0  0  0  0  0  0  0  0  0  0
   24.3145   49.0273   57.8200 N   0  0  0  0  0  0  0  0  0  0  0  0
   23.2408   49.3906   58.5456 C   0  0  0  0  0  0  0  0  0  0  0  0
   22.4417   50.5719   57.9877 C   0  0  0  0  0  0  0  0  0  0  0  0
   22.9883   48.6781   59.7514 C   0  0  0  0  0  0  0  0  0  0  0  0
   27.5934   44.8104   59.1998 O   0  0  0  0  0  0  0  0  0  0  0  0
   28.2373   44.8463   60.5100 C   0  0  0  0  0  0  0  0  0  0  0  0
   23.5447   46.8640   61.7163 S   0  0  0  0  0  0  0  0  0  0  0  0
   24.6713   47.6895   62.8133 C   0  0  0  0  0  0  0  0  0  0  0  0
   24.0057   48.8452   63.5702 C   0  0  0  0  0  0  0  0  0  0  0  0
   25.8186   49.9786   65.1272 N   0  0  0  0  0  0  0  0  0  0  0  0
   25.0198   49.4961   64.4087 C   0  0  0  0  0  0  0  0  0  0  0  0
   21.8286   48.9406   60.7040 C   0  0  0  0  0  0  0  0  0  0  0  0
   20.4799   48.3521   60.4831 C   0  0  0  0  0  0  0  0  0  0  0  0
   19.6179   48.3761   61.7366 C   0  0  0  0  0  0  0  0  0  0  0  0
   18.4040   49.2660   61.5521 C   0  0  0  0  0  0  0  0  0  0  0  0
 17 18  3  0  0  0
 18 16  1  0  0  0
 16 15  1  0  0  0
 15 14  1  0  0  0
 14  1  1  0  0  0
  1  2  1  0  0  0
  1 11  2  0  0  0
  2  3  1  0  0  0
  2  7  2  0  0  0
  3  4  2  0  0  0
  4 12  1  0  0  0
  4  5  1  0  0  0
 12 13  1  0  0  0
  5  6  2  0  0  0
  6  7  1  0  0  0
  7  8  1  0  0  0
  8  9  2  0  0  0
  9 10  1  0  0  0
  9 11  1  0  0  0
 11 19  1  0  0  0
 19 20  1  0  0  0
 20 21  1  0  0  0
 21 22  1  0  0  0
M  END
> <minimizedAffinity>
-7.07795

$$$$
4A95_9MT_A_1000


 22 23  0  0  0  0  0  0  0  0999 V2000
   22.8963   47.4444   61.5882 C   0  0  0  0  0  0  0  0  0  0  0  0
   24.1054   46.8053   61.3283 C   0  0  0  0  0  0  0  0  0  0  0  0
   24.6403   45.9109   62.2852 C   0  0  0  0  0  0  0  0  0  0  0  0
   25.8288   45.2785   61.9523 C   0  0  0  0  0  0  0  0  0  0  0  0
   26.4748   45.5833   60.7514 C   0  0  0  0  0  0  0  0  0  0  0  0
   25.9479   46.4199   59.7788 C   0  0  0  0  0  0  0  0  0  0  0  0
   24.7528   47.0643   60.1278 C   0  0  0  0  0  0  0  0  0  0  0  0
   24.2591   47.9269   59.2066 N   0  0  0  0  0  0  0  0  0  0  0  0
   23.0809   48.5510   59.3900 C   0  0  0  0  0  0  0  0  0  0  0  0
   22.6429   49.4732   58.2486 C   0  0  0  0  0  0  0  0  0  0  0  0
   22.3983   48.3229   60.6177 C   0  0  0  0  0  0  0  0  0  0  0  0
   26.4033   44.4058   62.8728 O   0  0  0  0  0  0  0  0  0  0  0  0
   27.8453   44.4839   63.0899 C   0  0  0  0  0  0  0  0  0  0  0  0
   22.1157   47.3188   63.1423 S   0  0  0  0  0  0  0  0  0  0  0  0
   22.4650   48.8488   63.9735 C   0  0  0  0  0  0  0  0  0  0  0  0
   21.1967   49.6669   64.2451 C   0  0  0  0  0  0  0  0  0  0  0  0
   19.2799   47.9681   64.9052 N   0  0  0  0  0  0  0  0  0  0  0  0
   20.1245   48.7444   64.6382 C   0  0  0  0  0  0  0  0  0  0  0  0
   21.0596   48.9361   61.0090 C   0  0  0  0  0  0  0  0  0  0  0  0
   19.7835   48.1794   60.8939 C   0  0  0  0  0  0  0  0  0  0  0  0
   18.5840   48.9754   61.3862 C   0  0  0  0  0  0  0  0  0  0  0  0
   17.4272   48.0622   61.7431 C   0  0  0  0  0  0  0  0  0  0  0  0
 17 18  3  0  0  0
 18 16  1  0  0  0
 16 15  1  0  0  0
 15 14  1  0  0  0
 14  1  1  0  0  0
  1  2  1  0  0  0
  1 11  2  0  0  0
  2  3  1  0  0  0
  2  7  2  0  0  0
  3  4  2  0  0  0
  4 12  1  0  0  0
  4  5  1  0  0  0
 12 13  1  0  0  0
  5  6  2  0  0  0
  6  7  1  0  0  0
  7  8  1  0  0  0
  8  9  2  0  0  0
  9 10  1  0  0  0
  9 11  1  0  0  0
 11 19  1  0  0  0
 19 20  1  0  0  0
 20 21  1  0  0  0
 21 22  1  0  0  0
M  END
> <minimizedAffinity>
-6.96615

$$$$
4A95_9MT_A_1000


 22 23  0  0  0  0  0  0  0  0999 V2000
   23.1586   47.4619   61.5372 C   0  0  0  0  0  0  0  0  0  0  0  0
   21.9864   47.9446   62.1124 C   0  0  0  0  0  0  0  0  0  0  0  0
   21.8914   48.0450   63.5204 C   0  0  0  0  0  0  0  0  0  0  0  0
   20.7121   48.5667   64.0307 C   0  0  0  0  0  0  0  0  0  0  0  0
   19.6631   48.9041   63.1715 C   0  0  0  0  0  0  0  0  0  0  0  0
   19.7493   48.8582   61.7881 C   0  0  0  0  0  0  0  0  0  0  0  0
   20.9396   48.3186   61.2807 C   0  0  0  0  0  0  0  0  0  0  0  0
   21.0111   48.2175   59.9312 N   0  0  0  0  0  0  0  0  0  0  0  0
   22.1286   47.7858   59.3180 C   0  0  0  0  0  0  0  0  0  0  0  0
   22.0660   47.7529   57.7882 C   0  0  0  0  0  0  0  0  0  0  0  0
   23.2155   47.3766   60.1404 C   0  0  0  0  0  0  0  0  0  0  0  0
   20.5658   48.6643   65.4120 O   0  0  0  0  0  0  0  0  0  0  0  0
   19.3280   49.2355   65.9356 C   0  0  0  0  0  0  0  0  0  0  0  0
   24.4446   46.7994   62.5105 S   0  0  0  0  0  0  0  0  0  0  0  0
   25.8049   47.9269   62.3302 C   0  0  0  0  0  0  0  0  0  0  0  0
   26.5735   48.1269   63.6421 C   0  0  0  0  0  0  0  0  0  0  0  0
   25.3571   49.9856   65.0778 N   0  0  0  0  0  0  0  0  0  0  0  0
   25.8710   49.1375   64.4423 C   0  0  0  0  0  0  0  0  0  0  0  0
   24.5570   46.8599   59.6355 C   0  0  0  0  0  0  0  0  0  0  0  0
   24.7277   45.4679   59.1383 C   0  0  0  0  0  0  0  0  0  0  0  0
   26.0461   44.8472   59.5756 C   0  0  0  0  0  0  0  0  0  0  0  0
   27.2261   45.6795   59.1125 C   0  0  0  0  0  0  0  0  0  0  0  0
 17 18  3  0  0  0
 18 16  1  0  0  0
 16 15  1  0  0  0
 15 14  1  0  0  0
 14  1  1  0  0  0
  1  2  1  0  0  0
  1 11  2  0  0  0
  2  3  1  0  0  0
  2  7  2  0  0  0
  3  4  2  0  0  0
  4 12  1  0  0  0
  4  5  1  0  0  0
 12 13  1  0  0  0
  5  6  2  0  0  0
  6  7  1  0  0  0
  7  8  1  0  0  0
  8  9  2  0  0  0
  9 10  1  0  0  0
  9 11  1  0  0  0
 11 19  1  0  0  0
 19 20  1  0  0  0
 20 21  1  0  0  0
 21 22  1  0  0  0
M  END
> <minimizedAffinity>
-6.90564

$$$$
