1HN4_MJI_A_397


 33 32  0  0  0  0  0  0  0  0999 V2000
   19.6555   15.5514    9.2371 O   0  0  0  0  0  0  0  0  0  0  0  0
   20.6401   15.4051   10.2273 C   0  0  0  0  0  0  0  0  0  0  0  0
   22.0096   15.5882    9.6240 C   0  0  0  0  0  0  0  0  0  0  0  0
   22.1146   16.9591    8.9927 C   0  0  0  0  0  0  0  0  0  0  0  0
   21.7507   17.9459    9.9254 O   0  0  0  0  0  0  0  0  0  0  0  0
   22.5167   19.1195    9.7773 C   0  0  0  0  0  0  0  0  0  0  0  0
   22.9408   19.6624   11.1207 C   0  0  0  0  0  0  0  0  0  0  0  0
   24.1174   19.1456   11.5823 F   0  0  0  0  0  0  0  0  0  0  0  0
   22.0263   19.4964   12.1033 F   0  0  0  0  0  0  0  0  0  0  0  0
   23.1158   20.9623   10.9973 F   0  0  0  0  0  0  0  0  0  0  0  0
   22.2712   14.5780    8.6172 O   0  0  0  0  0  0  0  0  0  0  0  0
   22.3347   13.0154    8.9996 P   0  0  0  0  0  0  0  0  0  0  0  0
   22.9746   12.8860   10.3592 O   0  0  0  0  0  0  0  0  0  0  0  0
   20.9947   12.3817    8.7512 O   0  0  0  0  0  0  0  0  0  0  0  0
   20.3540   12.7161    9.3981 H   0  0  0  0  0  0  0  0  0  0  0  0
   24.2334   13.2995    7.1791 C   0  0  0  0  0  0  0  0  0  0  0  0
   23.3517   12.4306    7.9078 O   0  0  0  0  0  0  0  0  0  0  0  0
   18.3839   15.6340    9.8071 C   0  0  0  0  0  0  0  0  0  0  0  0
   18.4520   15.1266   11.2341 C   0  0  0  0  0  0  0  0  0  0  0  0
   17.3393   15.7653   12.0550 C   0  0  0  0  0  0  0  0  0  0  0  0
   15.9875   15.4679   11.4135 C   0  0  0  0  0  0  0  0  0  0  0  0
   14.9263   15.3910   12.4965 C   0  0  0  0  0  0  0  0  0  0  0  0
   14.3737   16.7827   12.7635 C   0  0  0  0  0  0  0  0  0  0  0  0
   14.5382   17.1164   14.2341 C   0  0  0  0  0  0  0  0  0  0  0  0
   15.7553   18.0090   14.4261 C   0  0  0  0  0  0  0  0  0  0  0  0
   16.5721   17.4957   15.6027 C   0  0  0  0  0  0  0  0  0  0  0  0
   15.7256   17.5490   16.8657 C   0  0  0  0  0  0  0  0  0  0  0  0
   16.4395   18.3912   17.9175 C   0  0  0  0  0  0  0  0  0  0  0  0
   17.3713   17.5099   18.7402 C   0  0  0  0  0  0  0  0  0  0  0  0
   18.2039   18.3855   19.6672 C   0  0  0  0  0  0  0  0  0  0  0  0
   19.2096   17.5288   20.4245 C   0  0  0  0  0  0  0  0  0  0  0  0
   18.6786   17.2477   21.8269 C   0  0  0  0  0  0  0  0  0  0  0  0
   19.7041   16.4304   22.6094 C   0  0  0  0  0  0  0  0  0  0  0  0
  2  1  1  0  0  0
  2  3  1  0  0  0
  1 18  1  0  0  0
  3 11  1  0  0  0
  3  4  1  0  0  0
 11 12  1  0  0  0
  4  5  1  0  0  0
  5  6  1  0  0  0
  6  7  1  0  0  0
  7  8  1  0  0  0
  7  9  1  0  0  0
  7 10  1  0  0  0
 12 13  2  0  0  0
 12 14  1  0  0  0
 12 17  1  0  0  0
 16 17  1  0  0  0
 18 19  1  0  0  0
 19 20  1  0  0  0
 20 21  1  0  0  0
 21 22  1  0  0  0
 22 23  1  0  0  0
 23 24  1  0  0  0
 24 25  1  0  0  0
 25 26  1  0  0  0
 26 27  1  0  0  0
 27 28  1  0  0  0
 28 29  1  0  0  0
 29 30  1  0  0  0
 30 31  1  0  0  0
 31 32  1  0  0  0
 32 33  1  0  0  0
 14 15  1  0  0  0
M  END
> <minimizedAffinity>
-8.23042

$$$$
1HN4_MJI_A_397


 33 32  0  0  0  0  0  0  0  0999 V2000
   17.4043   15.6761   11.0945 O   0  0  0  0  0  0  0  0  0  0  0  0
   18.3862   14.7927   11.5708 C   0  0  0  0  0  0  0  0  0  0  0  0
   19.7210   15.1230   10.9528 C   0  0  0  0  0  0  0  0  0  0  0  0
   19.8091   16.6089   10.6822 C   0  0  0  0  0  0  0  0  0  0  0  0
   21.1512   17.0250   10.7220 O   0  0  0  0  0  0  0  0  0  0  0  0
   21.2754   18.4203   10.5683 C   0  0  0  0  0  0  0  0  0  0  0  0
   22.5944   18.7792    9.9272 C   0  0  0  0  0  0  0  0  0  0  0  0
   22.5493   18.8460    8.5641 F   0  0  0  0  0  0  0  0  0  0  0  0
   23.6138   17.9495   10.2465 F   0  0  0  0  0  0  0  0  0  0  0  0
   22.9443   19.9740   10.3579 F   0  0  0  0  0  0  0  0  0  0  0  0
   19.9095   14.3998    9.7103 O   0  0  0  0  0  0  0  0  0  0  0  0
   21.2231   13.5041    9.4569 P   0  0  0  0  0  0  0  0  0  0  0  0
   21.9780   13.3916   10.7578 O   0  0  0  0  0  0  0  0  0  0  0  0
   20.8442   12.2543    8.7130 O   0  0  0  0  0  0  0  0  0  0  0  0
   20.3228   11.6781    9.2935 H   0  0  0  0  0  0  0  0  0  0  0  0
   23.4102   14.8383    8.7961 C   0  0  0  0  0  0  0  0  0  0  0  0
   22.0796   14.4170    8.4563 O   0  0  0  0  0  0  0  0  0  0  0  0
   16.2282   14.9924   10.7815 C   0  0  0  0  0  0  0  0  0  0  0  0
   15.0465   15.7815   11.3097 C   0  0  0  0  0  0  0  0  0  0  0  0
   14.6511   15.2492   12.6809 C   0  0  0  0  0  0  0  0  0  0  0  0
   14.4607   16.4107   13.6513 C   0  0  0  0  0  0  0  0  0  0  0  0
   15.7690   17.1692   13.7860 C   0  0  0  0  0  0  0  0  0  0  0  0
   15.6354   18.2191   14.8783 C   0  0  0  0  0  0  0  0  0  0  0  0
   15.2665   17.5424   16.1849 C   0  0  0  0  0  0  0  0  0  0  0  0
   16.3684   17.7671   17.2097 C   0  0  0  0  0  0  0  0  0  0  0  0
   16.6595   16.4575   17.9273 C   0  0  0  0  0  0  0  0  0  0  0  0
   17.1730   16.7536   19.3285 C   0  0  0  0  0  0  0  0  0  0  0  0
   17.7893   18.1482   19.3567 C   0  0  0  0  0  0  0  0  0  0  0  0
   18.5844   18.3361   20.6429 C   0  0  0  0  0  0  0  0  0  0  0  0
   19.6454   17.2481   20.7420 C   0  0  0  0  0  0  0  0  0  0  0  0
   19.6623   16.6673   22.1496 C   0  0  0  0  0  0  0  0  0  0  0  0
   19.9846   15.1778   22.0774 C   0  0  0  0  0  0  0  0  0  0  0  0
   20.2266   14.7752   20.6245 C   0  0  0  0  0  0  0  0  0  0  0  0
  2  1  1  0  0  0
  2  3  1  0  0  0
  1 18  1  0  0  0
  3 11  1  0  0  0
  3  4  1  0  0  0
 11 12  1  0  0  0
  4  5  1  0  0  0
  5  6  1  0  0  0
  6  7  1  0  0  0
  7  8  1  0  0  0
  7  9  1  0  0  0
  7 10  1  0  0  0
 12 13  2  0  0  0
 12 14  1  0  0  0
 12 17  1  0  0  0
 16 17  1  0  0  0
 18 19  1  0  0  0
 19 20  1  0  0  0
 20 21  1  0  0  0
 21 22  1  0  0  0
 22 23  1  0  0  0
 23 24  1  0  0  0
 24 25  1  0  0  0
 25 26  1  0  0  0
 26 27  1  0  0  0
 27 28  1  0  0  0
 28 29  1  0  0  0
 29 30  1  0  0  0
 30 31  1  0  0  0
 31 32  1  0  0  0
 32 33  1  0  0  0
 14 15  1  0  0  0
M  END
> <minimizedAffinity>
-8.03210

$$$$
1HN4_MJI_A_397


 33 32  0  0  0  0  0  0  0  0999 V2000
   19.4722   12.5747   19.1556 O   0  0  0  0  0  0  0  0  0  0  0  0
   19.3889   12.1077   20.4771 C   0  0  0  0  0  0  0  0  0  0  0  0
   20.0230   13.1018   21.4165 C   0  0  0  0  0  0  0  0  0  0  0  0
   20.2003   14.4310   20.7160 C   0  0  0  0  0  0  0  0  0  0  0  0
   19.0491   15.2198   20.8856 O   0  0  0  0  0  0  0  0  0  0  0  0
   19.3280   16.5948   20.7531 C   0  0  0  0  0  0  0  0  0  0  0  0
   18.0799   17.4217   20.9475 C   0  0  0  0  0  0  0  0  0  0  0  0
   16.9191   16.7168   20.8056 F   0  0  0  0  0  0  0  0  0  0  0  0
   17.9897   18.4960   20.1306 F   0  0  0  0  0  0  0  0  0  0  0  0
   18.0927   17.8950   22.1769 F   0  0  0  0  0  0  0  0  0  0  0  0
   21.3143   12.6288   21.8762 O   0  0  0  0  0  0  0  0  0  0  0  0
   21.9060   13.0746   23.3055 P   0  0  0  0  0  0  0  0  0  0  0  0
   22.7954   14.2747   23.0967 O   0  0  0  0  0  0  0  0  0  0  0  0
   20.7911   13.1482   24.3108 O   0  0  0  0  0  0  0  0  0  0  0  0
   20.2114   13.8958   24.0966 H   0  0  0  0  0  0  0  0  0  0  0  0
   22.4347   10.4835   23.3875 C   0  0  0  0  0  0  0  0  0  0  0  0
   22.8302   11.8276   23.7045 O   0  0  0  0  0  0  0  0  0  0  0  0
   18.3268   12.2348   18.4336 C   0  0  0  0  0  0  0  0  0  0  0  0
   18.1073   13.2684   17.3466 C   0  0  0  0  0  0  0  0  0  0  0  0
   17.3694   14.4680   17.9265 C   0  0  0  0  0  0  0  0  0  0  0  0
   17.1285   15.5047   16.8336 C   0  0  0  0  0  0  0  0  0  0  0  0
   16.9340   16.8684   17.4722 C   0  0  0  0  0  0  0  0  0  0  0  0
   15.9703   17.6893   16.6292 C   0  0  0  0  0  0  0  0  0  0  0  0
   16.5180   17.8189   15.2205 C   0  0  0  0  0  0  0  0  0  0  0  0
   15.3695   17.8535   14.2232 C   0  0  0  0  0  0  0  0  0  0  0  0
   14.3486   16.7894   14.5979 C   0  0  0  0  0  0  0  0  0  0  0  0
   14.1737   15.8261   13.4334 C   0  0  0  0  0  0  0  0  0  0  0  0
   13.7352   16.6028   12.1965 C   0  0  0  0  0  0  0  0  0  0  0  0
   14.5732   16.1794   10.9964 C   0  0  0  0  0  0  0  0  0  0  0  0
   15.4674   15.0125   11.3936 C   0  0  0  0  0  0  0  0  0  0  0  0
   16.7944   15.1004   10.6518 C   0  0  0  0  0  0  0  0  0  0  0  0
   17.8659   15.6378   11.5956 C   0  0  0  0  0  0  0  0  0  0  0  0
   19.2072   14.9821   11.2753 C   0  0  0  0  0  0  0  0  0  0  0  0
  2  1  1  0  0  0
  2  3  1  0  0  0
  1 18  1  0  0  0
  3 11  1  0  0  0
  3  4  1  0  0  0
 11 12  1  0  0  0
  4  5  1  0  0  0
  5  6  1  0  0  0
  6  7  1  0  0  0
  7  8  1  0  0  0
  7  9  1  0  0  0
  7 10  1  0  0  0
 12 13  2  0  0  0
 12 14  1  0  0  0
 12 17  1  0  0  0
 16 17  1  0  0  0
 18 19  1  0  0  0
 19 20  1  0  0  0
 20 21  1  0  0  0
 21 22  1  0  0  0
 22 23  1  0  0  0
 23 24  1  0  0  0
 24 25  1  0  0  0
 25 26  1  0  0  0
 26 27  1  0  0  0
 27 28  1  0  0  0
 28 29  1  0  0  0
 29 30  1  0  0  0
 30 31  1  0  0  0
 31 32  1  0  0  0
 32 33  1  0  0  0
 14 15  1  0  0  0
M  END
> <minimizedAffinity>
-8.02421

$$$$
1HN4_MJI_A_397


 33 32  0  0  0  0  0  0  0  0999 V2000
   19.8791   11.3898   19.7674 O   0  0  0  0  0  0  0  0  0  0  0  0
   20.2415   10.1753   20.3715 C   0  0  0  0  0  0  0  0  0  0  0  0
   19.0693    9.6062   21.1295 C   0  0  0  0  0  0  0  0  0  0  0  0
   19.5297    9.0839   22.4728 C   0  0  0  0  0  0  0  0  0  0  0  0
   20.8214    9.5610   22.7556 O   0  0  0  0  0  0  0  0  0  0  0  0
   20.8301   10.4358   23.8604 C   0  0  0  0  0  0  0  0  0  0  0  0
   22.1199   11.2182   23.9215 C   0  0  0  0  0  0  0  0  0  0  0  0
   22.3062   12.0649   22.8666 F   0  0  0  0  0  0  0  0  0  0  0  0
   23.2321   10.4539   24.0132 F   0  0  0  0  0  0  0  0  0  0  0  0
   22.0939   11.9612   25.0091 F   0  0  0  0  0  0  0  0  0  0  0  0
   18.4463    8.5280   20.3865 O   0  0  0  0  0  0  0  0  0  0  0  0
   17.3373    8.8242   19.2577 P   0  0  0  0  0  0  0  0  0  0  0  0
   16.1958    7.8573   19.4498 O   0  0  0  0  0  0  0  0  0  0  0  0
   17.0541   10.2993   19.2053 O   0  0  0  0  0  0  0  0  0  0  0  0
   16.5888   10.5682   20.0128 H   0  0  0  0  0  0  0  0  0  0  0  0
   17.8418    9.1355   16.6792 C   0  0  0  0  0  0  0  0  0  0  0  0
   18.1038    8.4345   17.9054 O   0  0  0  0  0  0  0  0  0  0  0  0
   19.6551   12.3772   20.7285 C   0  0  0  0  0  0  0  0  0  0  0  0
   19.4836   13.7118   20.0301 C   0  0  0  0  0  0  0  0  0  0  0  0
   20.3460   14.7613   20.7192 C   0  0  0  0  0  0  0  0  0  0  0  0
   20.1950   14.6421   22.2325 C   0  0  0  0  0  0  0  0  0  0  0  0
   20.1300   16.0323   22.8394 C   0  0  0  0  0  0  0  0  0  0  0  0
   19.6449   17.0206   21.7900 C   0  0  0  0  0  0  0  0  0  0  0  0
   18.1712   17.3057   22.0098 C   0  0  0  0  0  0  0  0  0  0  0  0
   17.4274   17.2195   20.6853 C   0  0  0  0  0  0  0  0  0  0  0  0
   17.9806   18.2676   19.7312 C   0  0  0  0  0  0  0  0  0  0  0  0
   16.9700   18.5243   18.6232 C   0  0  0  0  0  0  0  0  0  0  0  0
   16.6919   17.2215   17.8810 C   0  0  0  0  0  0  0  0  0  0  0  0
   16.2268   17.5241   16.4620 C   0  0  0  0  0  0  0  0  0  0  0  0
   14.7206   17.3184   16.3715 C   0  0  0  0  0  0  0  0  0  0  0  0
   14.3798   16.5288   15.1148 C   0  0  0  0  0  0  0  0  0  0  0  0
   14.6990   17.3741   13.8854 C   0  0  0  0  0  0  0  0  0  0  0  0
   14.0395   16.7577   12.6538 C   0  0  0  0  0  0  0  0  0  0  0  0
  2  1  1  0  0  0
  2  3  1  0  0  0
  1 18  1  0  0  0
  3 11  1  0  0  0
  3  4  1  0  0  0
 11 12  1  0  0  0
  4  5  1  0  0  0
  5  6  1  0  0  0
  6  7  1  0  0  0
  7  8  1  0  0  0
  7  9  1  0  0  0
  7 10  1  0  0  0
 12 13  2  0  0  0
 12 14  1  0  0  0
 12 17  1  0  0  0
 16 17  1  0  0  0
 18 19  1  0  0  0
 19 20  1  0  0  0
 20 21  1  0  0  0
 21 22  1  0  0  0
 22 23  1  0  0  0
 23 24  1  0  0  0
 24 25  1  0  0  0
 25 26  1  0  0  0
 26 27  1  0  0  0
 27 28  1  0  0  0
 28 29  1  0  0  0
 29 30  1  0  0  0
 30 31  1  0  0  0
 31 32  1  0  0  0
 32 33  1  0  0  0
 14 15  1  0  0  0
M  END
> <minimizedAffinity>
-7.83314

$$$$
1HN4_MJI_A_397


 33 32  0  0  0  0  0  0  0  0999 V2000
   20.7600   15.2420   22.6776 O   0  0  0  0  0  0  0  0  0  0  0  0
   20.2752   14.5086   21.5829 C   0  0  0  0  0  0  0  0  0  0  0  0
   20.5118   13.0361   21.8031 C   0  0  0  0  0  0  0  0  0  0  0  0
   19.6466   12.2292   20.8600 C   0  0  0  0  0  0  0  0  0  0  0  0
   20.1827   10.9394   20.7023 O   0  0  0  0  0  0  0  0  0  0  0  0
   19.1785    9.9731   20.4927 C   0  0  0  0  0  0  0  0  0  0  0  0
   19.3241    8.8223   21.4591 C   0  0  0  0  0  0  0  0  0  0  0  0
   19.0680    9.1530   22.7589 F   0  0  0  0  0  0  0  0  0  0  0  0
   20.5378    8.2257   21.4371 F   0  0  0  0  0  0  0  0  0  0  0  0
   18.4523    7.8943   21.1210 F   0  0  0  0  0  0  0  0  0  0  0  0
   20.2059   12.6611   23.1700 O   0  0  0  0  0  0  0  0  0  0  0  0
   21.3626   12.1862   24.1840 P   0  0  0  0  0  0  0  0  0  0  0  0
   22.6896   12.6563   23.6427 O   0  0  0  0  0  0  0  0  0  0  0  0
   20.9733   12.5389   25.5922 O   0  0  0  0  0  0  0  0  0  0  0  0
   20.9986   13.5022   25.7030 H   0  0  0  0  0  0  0  0  0  0  0  0
   22.4420    9.8438   23.5939 C   0  0  0  0  0  0  0  0  0  0  0  0
   21.3046   10.5898   24.0558 O   0  0  0  0  0  0  0  0  0  0  0  0
   20.0634   16.4433   22.8205 C   0  0  0  0  0  0  0  0  0  0  0  0
   19.5115   16.8541   21.4696 C   0  0  0  0  0  0  0  0  0  0  0  0
   18.2117   17.6239   21.6636 C   0  0  0  0  0  0  0  0  0  0  0  0
   17.3034   17.4181   20.4554 C   0  0  0  0  0  0  0  0  0  0  0  0
   17.7239   18.3661   19.3466 C   0  0  0  0  0  0  0  0  0  0  0  0
   16.7815   18.2105   18.1630 C   0  0  0  0  0  0  0  0  0  0  0  0
   16.6587   16.7412   17.8066 C   0  0  0  0  0  0  0  0  0  0  0  0
   16.6641   16.5764   16.2941 C   0  0  0  0  0  0  0  0  0  0  0  0
   16.2302   17.8830   15.6465 C   0  0  0  0  0  0  0  0  0  0  0  0
   14.7920   17.7549   15.1669 C   0  0  0  0  0  0  0  0  0  0  0  0
   14.7615   17.8005   13.6430 C   0  0  0  0  0  0  0  0  0  0  0  0
   14.0998   16.5393   13.1013 C   0  0  0  0  0  0  0  0  0  0  0  0
   14.4078   16.4079   11.6157 C   0  0  0  0  0  0  0  0  0  0  0  0
   15.3526   15.2364   11.3839 C   0  0  0  0  0  0  0  0  0  0  0  0
   16.4478   15.2531   12.4460 C   0  0  0  0  0  0  0  0  0  0  0  0
   17.7759   15.6527   11.8070 C   0  0  0  0  0  0  0  0  0  0  0  0
  2  1  1  0  0  0
  2  3  1  0  0  0
  1 18  1  0  0  0
  3 11  1  0  0  0
  3  4  1  0  0  0
 11 12  1  0  0  0
  4  5  1  0  0  0
  5  6  1  0  0  0
  6  7  1  0  0  0
  7  8  1  0  0  0
  7  9  1  0  0  0
  7 10  1  0  0  0
 12 13  2  0  0  0
 12 14  1  0  0  0
 12 17  1  0  0  0
 16 17  1  0  0  0
 18 19  1  0  0  0
 19 20  1  0  0  0
 20 21  1  0  0  0
 21 22  1  0  0  0
 22 23  1  0  0  0
 23 24  1  0  0  0
 24 25  1  0  0  0
 25 26  1  0  0  0
 26 27  1  0  0  0
 27 28  1  0  0  0
 28 29  1  0  0  0
 29 30  1  0  0  0
 30 31  1  0  0  0
 31 32  1  0  0  0
 32 33  1  0  0  0
 14 15  1  0  0  0
M  END
> <minimizedAffinity>
-7.75611

$$$$
1HN4_MJI_A_397


 33 32  0  0  0  0  0  0  0  0999 V2000
   20.1663   15.5672   22.2209 O   0  0  0  0  0  0  0  0  0  0  0  0
   19.7237   14.5695   21.3377 C   0  0  0  0  0  0  0  0  0  0  0  0
   20.3451   13.2452   21.7022 C   0  0  0  0  0  0  0  0  0  0  0  0
   19.7324   12.1422   20.8673 C   0  0  0  0  0  0  0  0  0  0  0  0
   19.0487   12.6946   19.7702 O   0  0  0  0  0  0  0  0  0  0  0  0
   19.1136   11.8619   18.6350 C   0  0  0  0  0  0  0  0  0  0  0  0
   17.7421   11.3599   18.2526 C   0  0  0  0  0  0  0  0  0  0  0  0
   17.1372   10.6070   19.2179 F   0  0  0  0  0  0  0  0  0  0  0  0
   17.7119   10.6340   17.1117 F   0  0  0  0  0  0  0  0  0  0  0  0
   16.9697   12.4063   18.0429 F   0  0  0  0  0  0  0  0  0  0  0  0
   20.1439   12.9480   23.1070 O   0  0  0  0  0  0  0  0  0  0  0  0
   21.3820   12.5792   24.0678 P   0  0  0  0  0  0  0  0  0  0  0  0
   22.6025   13.3125   23.5704 O   0  0  0  0  0  0  0  0  0  0  0  0
   20.9659   12.7281   25.5044 O   0  0  0  0  0  0  0  0  0  0  0  0
   20.8334   13.6674   25.7069 H   0  0  0  0  0  0  0  0  0  0  0  0
   22.7871   10.3412   24.1985 C   0  0  0  0  0  0  0  0  0  0  0  0
   21.5867   11.0147   23.7874 O   0  0  0  0  0  0  0  0  0  0  0  0
   19.5340   16.7833   21.9564 C   0  0  0  0  0  0  0  0  0  0  0  0
   19.6451   17.0819   20.4742 C   0  0  0  0  0  0  0  0  0  0  0  0
   18.7361   18.2520   20.1213 C   0  0  0  0  0  0  0  0  0  0  0  0
   17.4289   17.7317   19.5316 C   0  0  0  0  0  0  0  0  0  0  0  0
   16.8052   18.8129   18.6671 C   0  0  0  0  0  0  0  0  0  0  0  0
   16.1111   18.1708   17.4758 C   0  0  0  0  0  0  0  0  0  0  0  0
   16.6028   16.7447   17.3149 C   0  0  0  0  0  0  0  0  0  0  0  0
   16.6356   16.3753   15.8393 C   0  0  0  0  0  0  0  0  0  0  0  0
   16.4061   17.6265   15.0046 C   0  0  0  0  0  0  0  0  0  0  0  0
   15.2450   17.3902   14.0503 C   0  0  0  0  0  0  0  0  0  0  0  0
   15.6772   16.4157   12.9600 C   0  0  0  0  0  0  0  0  0  0  0  0
   14.5228   16.1743   11.9951 C   0  0  0  0  0  0  0  0  0  0  0  0
   15.0709   15.6414   10.6780 C   0  0  0  0  0  0  0  0  0  0  0  0
   16.4066   14.9494   10.9145 C   0  0  0  0  0  0  0  0  0  0  0  0
   17.2008   14.9262    9.6121 C   0  0  0  0  0  0  0  0  0  0  0  0
   16.3863   15.5876    8.5027 C   0  0  0  0  0  0  0  0  0  0  0  0
  2  1  1  0  0  0
  2  3  1  0  0  0
  1 18  1  0  0  0
  3 11  1  0  0  0
  3  4  1  0  0  0
 11 12  1  0  0  0
  4  5  1  0  0  0
  5  6  1  0  0  0
  6  7  1  0  0  0
  7  8  1  0  0  0
  7  9  1  0  0  0
  7 10  1  0  0  0
 12 13  2  0  0  0
 12 14  1  0  0  0
 12 17  1  0  0  0
 16 17  1  0  0  0
 18 19  1  0  0  0
 19 20  1  0  0  0
 20 21  1  0  0  0
 21 22  1  0  0  0
 22 23  1  0  0  0
 23 24  1  0  0  0
 24 25  1  0  0  0
 25 26  1  0  0  0
 26 27  1  0  0  0
 27 28  1  0  0  0
 28 29  1  0  0  0
 29 30  1  0  0  0
 30 31  1  0  0  0
 31 32  1  0  0  0
 32 33  1  0  0  0
 14 15  1  0  0  0
M  END
> <minimizedAffinity>
-7.71675

$$$$
1HN4_MJI_A_397


 33 32  0  0  0  0  0  0  0  0999 V2000
   18.8160   13.8961   18.0749 O   0  0  0  0  0  0  0  0  0  0  0  0
   17.4226   14.0370   17.9753 C   0  0  0  0  0  0  0  0  0  0  0  0
   17.0583   15.4957   17.8636 C   0  0  0  0  0  0  0  0  0  0  0  0
   16.4034   15.9620   19.1452 C   0  0  0  0  0  0  0  0  0  0  0  0
   17.0310   17.1323   19.6063 O   0  0  0  0  0  0  0  0  0  0  0  0
   17.7022   16.9242   20.8280 C   0  0  0  0  0  0  0  0  0  0  0  0
   19.0869   17.5248   20.7943 C   0  0  0  0  0  0  0  0  0  0  0  0
   19.8651   17.1866   21.8641 F   0  0  0  0  0  0  0  0  0  0  0  0
   19.1075   18.8742   20.7043 F   0  0  0  0  0  0  0  0  0  0  0  0
   19.6992   17.0753   19.7179 F   0  0  0  0  0  0  0  0  0  0  0  0
   16.1507   15.7193   16.7551 O   0  0  0  0  0  0  0  0  0  0  0  0
   15.6194   17.1961   16.3963 P   0  0  0  0  0  0  0  0  0  0  0  0
   14.1713   17.2914   16.8070 O   0  0  0  0  0  0  0  0  0  0  0  0
   16.5984   18.2193   16.9001 O   0  0  0  0  0  0  0  0  0  0  0  0
   16.5800   18.2343   17.8698 H   0  0  0  0  0  0  0  0  0  0  0  0
   15.0236   18.2342   14.0368 C   0  0  0  0  0  0  0  0  0  0  0  0
   15.6898   17.2123   14.7953 O   0  0  0  0  0  0  0  0  0  0  0  0
   19.1556   13.0164   19.1043 C   0  0  0  0  0  0  0  0  0  0  0  0
   19.5750   13.8210   20.3189 C   0  0  0  0  0  0  0  0  0  0  0  0
   20.0545   12.8770   21.4138 C   0  0  0  0  0  0  0  0  0  0  0  0
   21.2627   13.4798   22.1236 C   0  0  0  0  0  0  0  0  0  0  0  0
   20.9271   13.6919   23.5891 C   0  0  0  0  0  0  0  0  0  0  0  0
   20.6519   12.3476   24.2451 C   0  0  0  0  0  0  0  0  0  0  0  0
   21.8561   11.9334   25.0694 C   0  0  0  0  0  0  0  0  0  0  0  0
   22.4305   10.6343   24.5243 C   0  0  0  0  0  0  0  0  0  0  0  0
   21.4643   10.0481   23.5055 C   0  0  0  0  0  0  0  0  0  0  0  0
   21.0605    8.6475   23.9412 C   0  0  0  0  0  0  0  0  0  0  0  0
   19.5762    8.4390   23.6605 C   0  0  0  0  0  0  0  0  0  0  0  0
   19.3906    7.8621   22.2624 C   0  0  0  0  0  0  0  0  0  0  0  0
   18.6923    8.8903   21.3824 C   0  0  0  0  0  0  0  0  0  0  0  0
   19.6211    9.3256   20.2570 C   0  0  0  0  0  0  0  0  0  0  0  0
   18.8983    9.1807   18.9212 C   0  0  0  0  0  0  0  0  0  0  0  0
   17.4701    9.7052   19.0512 C   0  0  0  0  0  0  0  0  0  0  0  0
  2  1  1  0  0  0
  2  3  1  0  0  0
  1 18  1  0  0  0
  3 11  1  0  0  0
  3  4  1  0  0  0
 11 12  1  0  0  0
  4  5  1  0  0  0
  5  6  1  0  0  0
  6  7  1  0  0  0
  7  8  1  0  0  0
  7  9  1  0  0  0
  7 10  1  0  0  0
 12 13  2  0  0  0
 12 14  1  0  0  0
 12 17  1  0  0  0
 16 17  1  0  0  0
 18 19  1  0  0  0
 19 20  1  0  0  0
 20 21  1  0  0  0
 21 22  1  0  0  0
 22 23  1  0  0  0
 23 24  1  0  0  0
 24 25  1  0  0  0
 25 26  1  0  0  0
 26 27  1  0  0  0
 27 28  1  0  0  0
 28 29  1  0  0  0
 29 30  1  0  0  0
 30 31  1  0  0  0
 31 32  1  0  0  0
 32 33  1  0  0  0
 14 15  1  0  0  0
M  END
> <minimizedAffinity>
-7.71057

$$$$
1HN4_MJI_A_397


 33 32  0  0  0  0  0  0  0  0999 V2000
   19.0059   11.3317   20.1780 O   0  0  0  0  0  0  0  0  0  0  0  0
   19.8179   10.1999   20.3548 C   0  0  0  0  0  0  0  0  0  0  0  0
   19.1214    9.1987   21.2410 C   0  0  0  0  0  0  0  0  0  0  0  0
   20.1444    8.3257   21.9341 C   0  0  0  0  0  0  0  0  0  0  0  0
   20.2503    8.6926   23.2869 O   0  0  0  0  0  0  0  0  0  0  0  0
   21.5558    8.5051   23.7834 C   0  0  0  0  0  0  0  0  0  0  0  0
   22.1251    9.7995   24.3123 C   0  0  0  0  0  0  0  0  0  0  0  0
   21.1807   10.7349   24.6247 F   0  0  0  0  0  0  0  0  0  0  0  0
   23.0123   10.3979   23.4850 F   0  0  0  0  0  0  0  0  0  0  0  0
   22.7811    9.5318   25.4229 F   0  0  0  0  0  0  0  0  0  0  0  0
   18.2235    8.3611   20.4698 O   0  0  0  0  0  0  0  0  0  0  0  0
   16.6797    8.1837   20.8907 P   0  0  0  0  0  0  0  0  0  0  0  0
   16.0384    7.2054   19.9386 O   0  0  0  0  0  0  0  0  0  0  0  0
   16.5863    7.9419   22.3712 O   0  0  0  0  0  0  0  0  0  0  0  0
   16.9483    7.0663   22.5792 H   0  0  0  0  0  0  0  0  0  0  0  0
   15.7947   10.0710   19.2613 C   0  0  0  0  0  0  0  0  0  0  0  0
   16.0707    9.6379   20.6028 O   0  0  0  0  0  0  0  0  0  0  0  0
   18.9455   11.6962   18.8318 C   0  0  0  0  0  0  0  0  0  0  0  0
   18.7667   13.1988   18.7380 C   0  0  0  0  0  0  0  0  0  0  0  0
   17.4948   13.5124   17.9609 C   0  0  0  0  0  0  0  0  0  0  0  0
   17.8203   14.4261   16.7835 C   0  0  0  0  0  0  0  0  0  0  0  0
   16.6168   15.3013   16.4823 C   0  0  0  0  0  0  0  0  0  0  0  0
   17.0136   16.7650   16.5981 C   0  0  0  0  0  0  0  0  0  0  0  0
   16.0482   17.4766   17.5270 C   0  0  0  0  0  0  0  0  0  0  0  0
   16.8174   18.4039   18.4562 C   0  0  0  0  0  0  0  0  0  0  0  0
   17.8946   17.6083   19.1785 C   0  0  0  0  0  0  0  0  0  0  0  0
   17.3984   17.2324   20.5667 C   0  0  0  0  0  0  0  0  0  0  0  0
   18.3160   16.1690   21.1606 C   0  0  0  0  0  0  0  0  0  0  0  0
   19.1999   16.7904   22.2350 C   0  0  0  0  0  0  0  0  0  0  0  0
   20.1678   15.7387   22.7606 C   0  0  0  0  0  0  0  0  0  0  0  0
   20.3073   14.6103   21.7476 C   0  0  0  0  0  0  0  0  0  0  0  0
   20.8313   13.3621   22.4512 C   0  0  0  0  0  0  0  0  0  0  0  0
   22.1367   13.6897   23.1726 C   0  0  0  0  0  0  0  0  0  0  0  0
  2  1  1  0  0  0
  2  3  1  0  0  0
  1 18  1  0  0  0
  3 11  1  0  0  0
  3  4  1  0  0  0
 11 12  1  0  0  0
  4  5  1  0  0  0
  5  6  1  0  0  0
  6  7  1  0  0  0
  7  8  1  0  0  0
  7  9  1  0  0  0
  7 10  1  0  0  0
 12 13  2  0  0  0
 12 14  1  0  0  0
 12 17  1  0  0  0
 16 17  1  0  0  0
 18 19  1  0  0  0
 19 20  1  0  0  0
 20 21  1  0  0  0
 21 22  1  0  0  0
 22 23  1  0  0  0
 23 24  1  0  0  0
 24 25  1  0  0  0
 25 26  1  0  0  0
 26 27  1  0  0  0
 27 28  1  0  0  0
 28 29  1  0  0  0
 29 30  1  0  0  0
 30 31  1  0  0  0
 31 32  1  0  0  0
 32 33  1  0  0  0
 14 15  1  0  0  0
M  END
> <minimizedAffinity>
-7.64505

$$$$
1HN4_MJI_A_397


 33 32  0  0  0  0  0  0  0  0999 V2000
   19.7026   12.8623   21.1518 O   0  0  0  0  0  0  0  0  0  0  0  0
   20.5630   12.1212   21.9775 C   0  0  0  0  0  0  0  0  0  0  0  0
   20.6867   10.7107   21.4597 C   0  0  0  0  0  0  0  0  0  0  0  0
   19.9782   10.5872   20.1287 C   0  0  0  0  0  0  0  0  0  0  0  0
   19.3321    9.3417   20.0431 O   0  0  0  0  0  0  0  0  0  0  0  0
   17.9801    9.4738   19.6678 C   0  0  0  0  0  0  0  0  0  0  0  0
   17.1084    8.5091   20.4351 C   0  0  0  0  0  0  0  0  0  0  0  0
   16.5096    7.5612   19.6556 F   0  0  0  0  0  0  0  0  0  0  0  0
   16.1297    9.0972   21.1601 F   0  0  0  0  0  0  0  0  0  0  0  0
   17.8711    7.8694   21.2980 F   0  0  0  0  0  0  0  0  0  0  0  0
   20.1128    9.7634   22.3955 O   0  0  0  0  0  0  0  0  0  0  0  0
   20.9765    8.5341   22.9741 P   0  0  0  0  0  0  0  0  0  0  0  0
   20.2201    7.9256   24.1285 O   0  0  0  0  0  0  0  0  0  0  0  0
   21.4238    7.6555   21.8398 O   0  0  0  0  0  0  0  0  0  0  0  0
   20.6563    7.1964   21.4642 H   0  0  0  0  0  0  0  0  0  0  0  0
   22.1894   10.1338   24.6974 C   0  0  0  0  0  0  0  0  0  0  0  0
   22.2779    9.2660   23.5561 O   0  0  0  0  0  0  0  0  0  0  0  0
   20.0377   14.2174   21.1715 C   0  0  0  0  0  0  0  0  0  0  0  0
   20.3127   14.6340   22.6030 C   0  0  0  0  0  0  0  0  0  0  0  0
   20.0570   16.1277   22.7563 C   0  0  0  0  0  0  0  0  0  0  0  0
   19.6423   16.7217   21.4138 C   0  0  0  0  0  0  0  0  0  0  0  0
   18.3016   17.4174   21.5677 C   0  0  0  0  0  0  0  0  0  0  0  0
   17.2300   16.6172   20.8433 C   0  0  0  0  0  0  0  0  0  0  0  0
   17.4670   16.6971   19.3471 C   0  0  0  0  0  0  0  0  0  0  0  0
   17.1334   18.0948   18.8472 C   0  0  0  0  0  0  0  0  0  0  0  0
   16.4463   17.9919   17.4936 C   0  0  0  0  0  0  0  0  0  0  0  0
   15.9166   16.5785   17.3031 C   0  0  0  0  0  0  0  0  0  0  0  0
   14.9098   16.5661   16.1579 C   0  0  0  0  0  0  0  0  0  0  0  0
   14.8633   17.9377   15.4958 C   0  0  0  0  0  0  0  0  0  0  0  0
   15.0183   17.7748   13.9896 C   0  0  0  0  0  0  0  0  0  0  0  0
   16.2847   16.9876   13.6810 C   0  0  0  0  0  0  0  0  0  0  0  0
   15.9620   15.8854   12.6765 C   0  0  0  0  0  0  0  0  0  0  0  0
   14.6490   16.2071   11.9663 C   0  0  0  0  0  0  0  0  0  0  0  0
  2  1  1  0  0  0
  2  3  1  0  0  0
  1 18  1  0  0  0
  3 11  1  0  0  0
  3  4  1  0  0  0
 11 12  1  0  0  0
  4  5  1  0  0  0
  5  6  1  0  0  0
  6  7  1  0  0  0
  7  8  1  0  0  0
  7  9  1  0  0  0
  7 10  1  0  0  0
 12 13  2  0  0  0
 12 14  1  0  0  0
 12 17  1  0  0  0
 16 17  1  0  0  0
 18 19  1  0  0  0
 19 20  1  0  0  0
 20 21  1  0  0  0
 21 22  1  0  0  0
 22 23  1  0  0  0
 23 24  1  0  0  0
 24 25  1  0  0  0
 25 26  1  0  0  0
 26 27  1  0  0  0
 27 28  1  0  0  0
 28 29  1  0  0  0
 29 30  1  0  0  0
 30 31  1  0  0  0
 31 32  1  0  0  0
 32 33  1  0  0  0
 14 15  1  0  0  0
M  END
> <minimizedAffinity>
-7.57538

$$$$
1HN4_MJI_A_397


 33 32  0  0  0  0  0  0  0  0999 V2000
   19.2879   12.9170   20.4143 O   0  0  0  0  0  0  0  0  0  0  0  0
   20.0529   12.0071   21.1613 C   0  0  0  0  0  0  0  0  0  0  0  0
   19.7332   10.5956   20.7391 C   0  0  0  0  0  0  0  0  0  0  0  0
   20.8416    9.6638   21.1774 C   0  0  0  0  0  0  0  0  0  0  0  0
   21.7966   10.3733   21.9262 O   0  0  0  0  0  0  0  0  0  0  0  0
   22.4074    9.5634   22.9044 C   0  0  0  0  0  0  0  0  0  0  0  0
   22.2217   10.1475   24.2841 C   0  0  0  0  0  0  0  0  0  0  0  0
   22.5081    9.2789   25.2981 F   0  0  0  0  0  0  0  0  0  0  0  0
   20.9822   10.6340   24.5217 F   0  0  0  0  0  0  0  0  0  0  0  0
   23.0467   11.1670   24.4087 F   0  0  0  0  0  0  0  0  0  0  0  0
   19.5777   10.5083   19.3001 O   0  0  0  0  0  0  0  0  0  0  0  0
   18.2795    9.8210   18.6411 P   0  0  0  0  0  0  0  0  0  0  0  0
   17.5133   10.8799   17.8885 O   0  0  0  0  0  0  0  0  0  0  0  0
   18.6836    8.5586   17.9324 O   0  0  0  0  0  0  0  0  0  0  0  0
   19.2073    8.7821   17.1471 H   0  0  0  0  0  0  0  0  0  0  0  0
   16.9067    8.0616   20.0623 C   0  0  0  0  0  0  0  0  0  0  0  0
   17.4202    9.3961   19.9254 O   0  0  0  0  0  0  0  0  0  0  0  0
   19.6696   14.2316   20.6880 C   0  0  0  0  0  0  0  0  0  0  0  0
   20.0653   14.3338   22.1479 C   0  0  0  0  0  0  0  0  0  0  0  0
   20.1156   15.7992   22.5601 C   0  0  0  0  0  0  0  0  0  0  0  0
   19.0246   16.5787   21.8328 C   0  0  0  0  0  0  0  0  0  0  0  0
   19.6533   17.7444   21.0905 C   0  0  0  0  0  0  0  0  0  0  0  0
   18.8104   18.0811   19.8700 C   0  0  0  0  0  0  0  0  0  0  0  0
   17.3672   17.6944   20.1323 C   0  0  0  0  0  0  0  0  0  0  0  0
   16.6824   17.3419   18.8202 C   0  0  0  0  0  0  0  0  0  0  0  0
   17.2793   16.0533   18.2743 C   0  0  0  0  0  0  0  0  0  0  0  0
   17.1495   16.0399   16.7585 C   0  0  0  0  0  0  0  0  0  0  0  0
   16.3463   17.2559   16.3093 C   0  0  0  0  0  0  0  0  0  0  0  0
   16.3256   17.3282   14.7874 C   0  0  0  0  0  0  0  0  0  0  0  0
   16.0216   15.9472   14.2221 C   0  0  0  0  0  0  0  0  0  0  0  0
   14.5181   15.7764   14.0514 C   0  0  0  0  0  0  0  0  0  0  0  0
   14.0006   16.8177   13.0638 C   0  0  0  0  0  0  0  0  0  0  0  0
   14.3802   16.4096   11.6421 C   0  0  0  0  0  0  0  0  0  0  0  0
  2  1  1  0  0  0
  2  3  1  0  0  0
  1 18  1  0  0  0
  3 11  1  0  0  0
  3  4  1  0  0  0
 11 12  1  0  0  0
  4  5  1  0  0  0
  5  6  1  0  0  0
  6  7  1  0  0  0
  7  8  1  0  0  0
  7  9  1  0  0  0
  7 10  1  0  0  0
 12 13  2  0  0  0
 12 14  1  0  0  0
 12 17  1  0  0  0
 16 17  1  0  0  0
 18 19  1  0  0  0
 19 20  1  0  0  0
 20 21  1  0  0  0
 21 22  1  0  0  0
 22 23  1  0  0  0
 23 24  1  0  0  0
 24 25  1  0  0  0
 25 26  1  0  0  0
 26 27  1  0  0  0
 27 28  1  0  0  0
 28 29  1  0  0  0
 29 30  1  0  0  0
 30 31  1  0  0  0
 31 32  1  0  0  0
 32 33  1  0  0  0
 14 15  1  0  0  0
M  END
> <minimizedAffinity>
-7.56034

$$$$
