4UOF_DAT_A_1152


 32 34  0  0  0  0  0  0  0  0999 V2000
   10.7181  -55.4365    6.8296 C   0  0  0  0  0  0  0  0  0  0  0  0
   11.5740  -55.6576    5.8696 O   0  0  0  0  0  0  0  0  0  0  0  0
   11.2345  -54.1481    7.4793 C   0  0  0  0  0  0  0  0  0  0  0  0
   10.7535  -54.0286    8.7534 O   0  0  0  0  0  0  0  0  0  0  0  0
   12.7576  -54.3132    7.3944 C   0  0  0  0  0  0  0  0  0  0  0  0
   12.9726  -55.1009    6.3492 C   0  0  0  0  0  0  0  0  0  0  0  0
   10.9983  -54.8147    9.2664 H   0  0  0  0  0  0  0  0  0  0  0  0
   13.5993  -54.3923    5.2534 N   0  0  0  0  0  0  0  0  0  0  0  0
   14.9286  -54.2296    5.5582 C   0  0  0  0  0  0  0  0  0  0  0  0
   15.5329  -53.5813    4.5370 N   0  0  0  0  0  0  0  0  0  0  0  0
   14.5819  -53.3164    3.5973 C   0  0  0  0  0  0  0  0  0  0  0  0
   14.6554  -52.6903    2.3895 C   0  0  0  0  0  0  0  0  0  0  0  0
   15.7571  -52.0883    1.7222 N   0  0  0  0  0  0  0  0  0  0  0  0
   13.5488  -52.5686    1.6344 N   0  0  0  0  0  0  0  0  0  0  0  0
   12.3586  -53.0693    2.0852 C   0  0  0  0  0  0  0  0  0  0  0  0
   12.2963  -53.6943    3.2864 N   0  0  0  0  0  0  0  0  0  0  0  0
   13.3896  -53.8182    4.0435 C   0  0  0  0  0  0  0  0  0  0  0  0
   16.6477  -52.0904    2.1418 H   0  0  0  0  0  0  0  0  0  0  0  0
   15.6293  -51.6694    0.8404 H   0  0  0  0  0  0  0  0  0  0  0  0
    9.3046  -55.1674    6.2348 C   0  0  0  0  0  0  0  0  0  0  0  0
    8.3690  -55.9040    7.0042 O   0  0  0  0  0  0  0  0  0  0  0  0
    7.1906  -55.1656    7.7361 P   0  0  0  0  0  0  0  0  0  0  0  0
    7.6673  -53.8428    8.3452 O   0  0  0  0  0  0  0  0  0  0  0  0
    6.6294  -55.9997    8.8124 O   0  0  0  0  0  0  0  0  0  0  0  0
    5.9056  -55.5223    9.2473 H   0  0  0  0  0  0  0  0  0  0  0  0
    6.0935  -54.8471    6.6904 O   0  0  0  0  0  0  0  0  0  0  0  0
    4.7197  -55.6458    6.5795 P   0  0  0  0  0  0  0  0  0  0  0  0
    4.0613  -55.2538    5.2538 O   0  0  0  0  0  0  0  0  0  0  0  0
    3.7763  -55.2448    7.7515 O   0  0  0  0  0  0  0  0  0  0  0  0
    5.0448  -57.1162    6.6327 O   0  0  0  0  0  0  0  0  0  0  0  0
    2.9424  -55.7347    7.6775 H   0  0  0  0  0  0  0  0  0  0  0  0
    4.2253  -57.6311    6.5672 H   0  0  0  0  0  0  0  0  0  0  0  0
 27 28  2  0  0  0
 27 29  1  0  0  0
 27 30  1  0  0  0
 27 26  1  0  0  0
 22 23  2  0  0  0
 22 24  1  0  0  0
 22 26  1  0  0  0
 22 21  1  0  0  0
 21 20  1  0  0  0
 20  1  1  0  0  0
  1  2  1  0  0  0
  1  3  1  0  0  0
  2  6  1  0  0  0
  3  4  1  0  0  0
  3  5  1  0  0  0
  5  6  1  0  0  0
  6  8  1  0  0  0
  8  9  1  0  0  0
  8 17  1  0  0  0
  9 10  2  0  0  0
 10 11  1  0  0  0
 11 12  1  0  0  0
 11 17  2  0  0  0
 12 13  1  0  0  0
 12 14  2  0  0  0
 14 15  1  0  0  0
 15 16  2  0  0  0
 16 17  1  0  0  0
 29 31  1  0  0  0
 30 32  1  0  0  0
 24 25  1  0  0  0
  4  7  1  0  0  0
 13 18  1  0  0  0
 13 19  1  0  0  0
M  END
> <minimizedAffinity>
-9.04676

$$$$
4UOF_DAT_A_1152


 32 34  0  0  0  0  0  0  0  0999 V2000
    9.3348  -55.9677    6.7343 C   0  0  0  0  0  0  0  0  0  0  0  0
   10.4698  -56.1625    6.1203 O   0  0  0  0  0  0  0  0  0  0  0  0
    9.3472  -54.4660    7.0403 C   0  0  0  0  0  0  0  0  0  0  0  0
    8.4856  -54.1789    8.0622 O   0  0  0  0  0  0  0  0  0  0  0  0
   10.8224  -54.1993    7.3672 C   0  0  0  0  0  0  0  0  0  0  0  0
   11.5062  -55.1245    6.7073 C   0  0  0  0  0  0  0  0  0  0  0  0
    8.7197  -54.7079    8.8408 H   0  0  0  0  0  0  0  0  0  0  0  0
   12.2760  -54.5596    5.6192 N   0  0  0  0  0  0  0  0  0  0  0  0
   13.5884  -54.4916    6.0184 C   0  0  0  0  0  0  0  0  0  0  0  0
   14.3248  -53.9788    5.0069 N   0  0  0  0  0  0  0  0  0  0  0  0
   13.4751  -53.7041    3.9772 C   0  0  0  0  0  0  0  0  0  0  0  0
   13.6962  -53.1810    2.7388 C   0  0  0  0  0  0  0  0  0  0  0  0
   14.8958  -52.7310    2.1225 N   0  0  0  0  0  0  0  0  0  0  0  0
   12.6650  -53.0207    1.8901 N   0  0  0  0  0  0  0  0  0  0  0  0
   11.4030  -53.3790    2.2768 C   0  0  0  0  0  0  0  0  0  0  0  0
   11.1935  -53.9024    3.5095 N   0  0  0  0  0  0  0  0  0  0  0  0
   12.2113  -54.0635    4.3593 C   0  0  0  0  0  0  0  0  0  0  0  0
   15.7487  -52.7792    2.6119 H   0  0  0  0  0  0  0  0  0  0  0  0
   14.8736  -52.3712    1.2064 H   0  0  0  0  0  0  0  0  0  0  0  0
    8.1477  -56.2749    5.7748 C   0  0  0  0  0  0  0  0  0  0  0  0
    6.9703  -56.3497    6.5608 O   0  0  0  0  0  0  0  0  0  0  0  0
    5.5643  -56.4743    5.8699 P   0  0  0  0  0  0  0  0  0  0  0  0
    5.0996  -57.9340    5.8328 O   0  0  0  0  0  0  0  0  0  0  0  0
    5.6046  -55.9619    4.4898 O   0  0  0  0  0  0  0  0  0  0  0  0
    4.7267  -56.0499    4.0865 H   0  0  0  0  0  0  0  0  0  0  0  0
    4.5407  -55.6636    6.7029 O   0  0  0  0  0  0  0  0  0  0  0  0
    4.9505  -54.5521    7.7679 P   0  0  0  0  0  0  0  0  0  0  0  0
    5.6900  -53.4411    7.0171 O   0  0  0  0  0  0  0  0  0  0  0  0
    5.9052  -55.1650    8.8343 O   0  0  0  0  0  0  0  0  0  0  0  0
    3.6829  -54.0499    8.4093 O   0  0  0  0  0  0  0  0  0  0  0  0
    6.1503  -54.4828    9.4790 H   0  0  0  0  0  0  0  0  0  0  0  0
    3.9001  -53.3691    9.0652 H   0  0  0  0  0  0  0  0  0  0  0  0
 27 28  2  0  0  0
 27 29  1  0  0  0
 27 30  1  0  0  0
 27 26  1  0  0  0
 22 23  2  0  0  0
 22 24  1  0  0  0
 22 26  1  0  0  0
 22 21  1  0  0  0
 21 20  1  0  0  0
 20  1  1  0  0  0
  1  2  1  0  0  0
  1  3  1  0  0  0
  2  6  1  0  0  0
  3  4  1  0  0  0
  3  5  1  0  0  0
  5  6  1  0  0  0
  6  8  1  0  0  0
  8  9  1  0  0  0
  8 17  1  0  0  0
  9 10  2  0  0  0
 10 11  1  0  0  0
 11 12  1  0  0  0
 11 17  2  0  0  0
 12 13  1  0  0  0
 12 14  2  0  0  0
 14 15  1  0  0  0
 15 16  2  0  0  0
 16 17  1  0  0  0
 29 31  1  0  0  0
 30 32  1  0  0  0
 24 25  1  0  0  0
  4  7  1  0  0  0
 13 18  1  0  0  0
 13 19  1  0  0  0
M  END
> <minimizedAffinity>
-8.73485

$$$$
4UOF_DAT_A_1152


 32 34  0  0  0  0  0  0  0  0999 V2000
   10.4061  -55.6749    7.4639 C   0  0  0  0  0  0  0  0  0  0  0  0
   10.7517  -55.9383    6.2333 O   0  0  0  0  0  0  0  0  0  0  0  0
   10.8364  -54.2160    7.6515 C   0  0  0  0  0  0  0  0  0  0  0  0
   10.9801  -53.9266    8.9798 O   0  0  0  0  0  0  0  0  0  0  0  0
   12.1405  -54.1416    6.8464 C   0  0  0  0  0  0  0  0  0  0  0  0
   12.0346  -55.0749    5.9101 C   0  0  0  0  0  0  0  0  0  0  0  0
   11.6134  -54.5438    9.3785 H   0  0  0  0  0  0  0  0  0  0  0  0
   11.8986  -54.5048    4.5863 N   0  0  0  0  0  0  0  0  0  0  0  0
   10.6076  -54.7119    4.1657 C   0  0  0  0  0  0  0  0  0  0  0  0
   10.4592  -54.1721    2.9350 N   0  0  0  0  0  0  0  0  0  0  0  0
   11.6609  -53.6426    2.5700 C   0  0  0  0  0  0  0  0  0  0  0  0
   12.0549  -52.9904    1.4406 C   0  0  0  0  0  0  0  0  0  0  0  0
   11.3353  -52.6655    0.2582 N   0  0  0  0  0  0  0  0  0  0  0  0
   13.3210  -52.5487    1.3343 N   0  0  0  0  0  0  0  0  0  0  0  0
   14.2041  -52.7609    2.3569 C   0  0  0  0  0  0  0  0  0  0  0  0
   13.8017  -53.4072    3.4784 N   0  0  0  0  0  0  0  0  0  0  0  0
   12.5469  -53.8506    3.5918 C   0  0  0  0  0  0  0  0  0  0  0  0
   10.3880  -52.9196    0.1729 H   0  0  0  0  0  0  0  0  0  0  0  0
   11.7843  -52.1864   -0.4754 H   0  0  0  0  0  0  0  0  0  0  0  0
    8.8593  -55.7658    7.6165 C   0  0  0  0  0  0  0  0  0  0  0  0
    8.3565  -54.4416    7.6764 O   0  0  0  0  0  0  0  0  0  0  0  0
    6.8805  -54.1349    7.2325 P   0  0  0  0  0  0  0  0  0  0  0  0
    6.6765  -52.6325    7.0097 O   0  0  0  0  0  0  0  0  0  0  0  0
    5.9159  -54.5915    8.2473 O   0  0  0  0  0  0  0  0  0  0  0  0
    5.0146  -54.3910    7.9500 H   0  0  0  0  0  0  0  0  0  0  0  0
    6.6165  -54.8614    5.8904 O   0  0  0  0  0  0  0  0  0  0  0  0
    5.2222  -54.8177    5.1213 P   0  0  0  0  0  0  0  0  0  0  0  0
    5.4433  -55.4102    3.7267 O   0  0  0  0  0  0  0  0  0  0  0  0
    4.7423  -53.3437    4.9751 O   0  0  0  0  0  0  0  0  0  0  0  0
    4.2358  -55.6249    5.9251 O   0  0  0  0  0  0  0  0  0  0  0  0
    3.8934  -53.3251    4.5062 H   0  0  0  0  0  0  0  0  0  0  0  0
    3.3736  -55.6174    5.4808 H   0  0  0  0  0  0  0  0  0  0  0  0
 27 28  2  0  0  0
 27 29  1  0  0  0
 27 30  1  0  0  0
 27 26  1  0  0  0
 22 23  2  0  0  0
 22 24  1  0  0  0
 22 26  1  0  0  0
 22 21  1  0  0  0
 21 20  1  0  0  0
 20  1  1  0  0  0
  1  2  1  0  0  0
  1  3  1  0  0  0
  2  6  1  0  0  0
  3  4  1  0  0  0
  3  5  1  0  0  0
  5  6  1  0  0  0
  6  8  1  0  0  0
  8  9  1  0  0  0
  8 17  1  0  0  0
  9 10  2  0  0  0
 10 11  1  0  0  0
 11 12  1  0  0  0
 11 17  2  0  0  0
 12 13  1  0  0  0
 12 14  2  0  0  0
 14 15  1  0  0  0
 15 16  2  0  0  0
 16 17  1  0  0  0
 29 31  1  0  0  0
 30 32  1  0  0  0
 24 25  1  0  0  0
  4  7  1  0  0  0
 13 18  1  0  0  0
 13 19  1  0  0  0
M  END
> <minimizedAffinity>
-8.55267

$$$$
4UOF_DAT_A_1152


 32 34  0  0  0  0  0  0  0  0999 V2000
   10.7717  -55.7734    7.0937 C   0  0  0  0  0  0  0  0  0  0  0  0
   11.2706  -55.9395    5.8992 O   0  0  0  0  0  0  0  0  0  0  0  0
   10.7189  -54.2498    7.2503 C   0  0  0  0  0  0  0  0  0  0  0  0
   10.6692  -53.9062    8.5726 O   0  0  0  0  0  0  0  0  0  0  0  0
   11.9926  -53.7909    6.5282 C   0  0  0  0  0  0  0  0  0  0  0  0
   12.2469  -54.7281    5.6249 C   0  0  0  0  0  0  0  0  0  0  0  0
   11.4302  -54.2904    9.0353 H   0  0  0  0  0  0  0  0  0  0  0  0
   12.0399  -54.2520    4.2735 N   0  0  0  0  0  0  0  0  0  0  0  0
   13.2136  -53.6869    3.8382 C   0  0  0  0  0  0  0  0  0  0  0  0
   13.0418  -53.2493    2.5704 N   0  0  0  0  0  0  0  0  0  0  0  0
   11.7546  -53.5192    2.2126 C   0  0  0  0  0  0  0  0  0  0  0  0
   11.0708  -53.2874    1.0573 C   0  0  0  0  0  0  0  0  0  0  0  0
   11.4799  -52.6651   -0.1539 N   0  0  0  0  0  0  0  0  0  0  0  0
    9.7857  -53.6716    0.9558 N   0  0  0  0  0  0  0  0  0  0  0  0
    9.1738  -54.2872    2.0127 C   0  0  0  0  0  0  0  0  0  0  0  0
    9.8635  -54.5172    3.1567 N   0  0  0  0  0  0  0  0  0  0  0  0
   11.1394  -54.1376    3.2668 C   0  0  0  0  0  0  0  0  0  0  0  0
   12.3988  -52.3241   -0.2462 H   0  0  0  0  0  0  0  0  0  0  0  0
   10.8442  -52.5753   -0.9003 H   0  0  0  0  0  0  0  0  0  0  0  0
    9.3205  -56.3347    7.1503 C   0  0  0  0  0  0  0  0  0  0  0  0
    8.4446  -55.2991    6.7377 O   0  0  0  0  0  0  0  0  0  0  0  0
    7.1842  -54.9370    7.6037 P   0  0  0  0  0  0  0  0  0  0  0  0
    7.4791  -53.7542    8.5322 O   0  0  0  0  0  0  0  0  0  0  0  0
    6.7597  -56.0820    8.4267 O   0  0  0  0  0  0  0  0  0  0  0  0
    5.9820  -55.8331    8.9504 H   0  0  0  0  0  0  0  0  0  0  0  0
    6.0395  -54.5240    6.6456 O   0  0  0  0  0  0  0  0  0  0  0  0
    4.8528  -55.4959    6.2159 P   0  0  0  0  0  0  0  0  0  0  0  0
    5.4635  -56.8666    5.9114 O   0  0  0  0  0  0  0  0  0  0  0  0
    4.1607  -54.9530    4.9312 O   0  0  0  0  0  0  0  0  0  0  0  0
    3.8788  -55.5569    7.3641 O   0  0  0  0  0  0  0  0  0  0  0  0
    3.4397  -55.5495    4.6757 H   0  0  0  0  0  0  0  0  0  0  0  0
    3.1418  -56.1434    7.1320 H   0  0  0  0  0  0  0  0  0  0  0  0
 27 28  2  0  0  0
 27 29  1  0  0  0
 27 30  1  0  0  0
 27 26  1  0  0  0
 22 23  2  0  0  0
 22 24  1  0  0  0
 22 26  1  0  0  0
 22 21  1  0  0  0
 21 20  1  0  0  0
 20  1  1  0  0  0
  1  2  1  0  0  0
  1  3  1  0  0  0
  2  6  1  0  0  0
  3  4  1  0  0  0
  3  5  1  0  0  0
  5  6  1  0  0  0
  6  8  1  0  0  0
  8  9  1  0  0  0
  8 17  1  0  0  0
  9 10  2  0  0  0
 10 11  1  0  0  0
 11 12  1  0  0  0
 11 17  2  0  0  0
 12 13  1  0  0  0
 12 14  2  0  0  0
 14 15  1  0  0  0
 15 16  2  0  0  0
 16 17  1  0  0  0
 29 31  1  0  0  0
 30 32  1  0  0  0
 24 25  1  0  0  0
  4  7  1  0  0  0
 13 18  1  0  0  0
 13 19  1  0  0  0
M  END
> <minimizedAffinity>
-8.50680

$$$$
4UOF_DAT_A_1152


 32 34  0  0  0  0  0  0  0  0999 V2000
    8.7386  -55.2037    5.3668 C   0  0  0  0  0  0  0  0  0  0  0  0
    9.2455  -54.8191    6.5063 O   0  0  0  0  0  0  0  0  0  0  0  0
    9.9708  -55.4127    4.4798 C   0  0  0  0  0  0  0  0  0  0  0  0
    9.6236  -55.3602    3.1586 O   0  0  0  0  0  0  0  0  0  0  0  0
   10.9072  -54.2835    4.9298 C   0  0  0  0  0  0  0  0  0  0  0  0
   10.5712  -54.0217    6.1858 C   0  0  0  0  0  0  0  0  0  0  0  0
    9.1843  -54.5155    2.9730 H   0  0  0  0  0  0  0  0  0  0  0  0
   11.6013  -54.4241    7.1200 N   0  0  0  0  0  0  0  0  0  0  0  0
   11.0767  -54.3521    8.3872 C   0  0  0  0  0  0  0  0  0  0  0  0
   12.0227  -54.7391    9.2724 N   0  0  0  0  0  0  0  0  0  0  0  0
   13.1503  -55.0355    8.5665 C   0  0  0  0  0  0  0  0  0  0  0  0
   14.3789  -55.4675    8.9666 C   0  0  0  0  0  0  0  0  0  0  0  0
   14.8911  -55.7330   10.2661 N   0  0  0  0  0  0  0  0  0  0  0  0
   15.3333  -55.7030    8.0484 N   0  0  0  0  0  0  0  0  0  0  0  0
   15.0660  -55.5032    6.7221 C   0  0  0  0  0  0  0  0  0  0  0  0
   13.8394  -55.0772    6.3333 N   0  0  0  0  0  0  0  0  0  0  0  0
   12.8862  -54.8393    7.2383 C   0  0  0  0  0  0  0  0  0  0  0  0
   14.3168  -55.6097   11.0562 H   0  0  0  0  0  0  0  0  0  0  0  0
   15.8200  -56.0400   10.3759 H   0  0  0  0  0  0  0  0  0  0  0  0
    8.0072  -56.5673    5.5396 C   0  0  0  0  0  0  0  0  0  0  0  0
    6.6734  -56.3977    5.0900 O   0  0  0  0  0  0  0  0  0  0  0  0
    5.5516  -55.9456    6.0934 P   0  0  0  0  0  0  0  0  0  0  0  0
    6.1063  -55.8243    7.5167 O   0  0  0  0  0  0  0  0  0  0  0  0
    4.4350  -56.9057    6.1079 O   0  0  0  0  0  0  0  0  0  0  0  0
    3.7577  -56.6044    6.7335 H   0  0  0  0  0  0  0  0  0  0  0  0
    5.0412  -54.5508    5.6545 O   0  0  0  0  0  0  0  0  0  0  0  0
    5.1243  -53.2507    6.5712 P   0  0  0  0  0  0  0  0  0  0  0  0
    4.5772  -52.0743    5.7579 O   0  0  0  0  0  0  0  0  0  0  0  0
    6.6071  -52.9602    6.9474 O   0  0  0  0  0  0  0  0  0  0  0  0
    4.3001  -53.5127    7.8051 O   0  0  0  0  0  0  0  0  0  0  0  0
    6.6498  -52.1678    7.5052 H   0  0  0  0  0  0  0  0  0  0  0  0
    4.3310  -52.7362    8.3855 H   0  0  0  0  0  0  0  0  0  0  0  0
 27 28  2  0  0  0
 27 29  1  0  0  0
 27 30  1  0  0  0
 27 26  1  0  0  0
 22 23  2  0  0  0
 22 24  1  0  0  0
 22 26  1  0  0  0
 22 21  1  0  0  0
 21 20  1  0  0  0
 20  1  1  0  0  0
  1  2  1  0  0  0
  1  3  1  0  0  0
  2  6  1  0  0  0
  3  4  1  0  0  0
  3  5  1  0  0  0
  5  6  1  0  0  0
  6  8  1  0  0  0
  8  9  1  0  0  0
  8 17  1  0  0  0
  9 10  2  0  0  0
 10 11  1  0  0  0
 11 12  1  0  0  0
 11 17  2  0  0  0
 12 13  1  0  0  0
 12 14  2  0  0  0
 14 15  1  0  0  0
 15 16  2  0  0  0
 16 17  1  0  0  0
 29 31  1  0  0  0
 30 32  1  0  0  0
 24 25  1  0  0  0
  4  7  1  0  0  0
 13 18  1  0  0  0
 13 19  1  0  0  0
M  END
> <minimizedAffinity>
-8.50432

$$$$
4UOF_DAT_A_1152


 32 34  0  0  0  0  0  0  0  0999 V2000
   10.6166  -55.3259    6.8312 C   0  0  0  0  0  0  0  0  0  0  0  0
   11.4739  -55.5785    5.8802 O   0  0  0  0  0  0  0  0  0  0  0  0
   11.1933  -54.0790    7.5104 C   0  0  0  0  0  0  0  0  0  0  0  0
   10.6997  -53.9539    8.7792 O   0  0  0  0  0  0  0  0  0  0  0  0
   12.7060  -54.3271    7.4452 C   0  0  0  0  0  0  0  0  0  0  0  0
   12.8935  -55.1083    6.3899 C   0  0  0  0  0  0  0  0  0  0  0  0
   10.8925  -54.7606    9.2821 H   0  0  0  0  0  0  0  0  0  0  0  0
   13.5755  -54.4178    5.3158 N   0  0  0  0  0  0  0  0  0  0  0  0
   12.6505  -54.1274    4.3431 C   0  0  0  0  0  0  0  0  0  0  0  0
   13.2690  -53.4685    3.3373 N   0  0  0  0  0  0  0  0  0  0  0  0
   14.5876  -53.3610    3.6651 C   0  0  0  0  0  0  0  0  0  0  0  0
   15.6382  -52.7943    3.0086 C   0  0  0  0  0  0  0  0  0  0  0  0
   15.7006  -52.1417    1.7469 N   0  0  0  0  0  0  0  0  0  0  0  0
   16.8612  -52.8128    3.5683 N   0  0  0  0  0  0  0  0  0  0  0  0
   17.0426  -53.4035    4.7884 C   0  0  0  0  0  0  0  0  0  0  0  0
   15.9904  -53.9611    5.4359 N   0  0  0  0  0  0  0  0  0  0  0  0
   14.7728  -53.9487    4.8869 C   0  0  0  0  0  0  0  0  0  0  0  0
   14.8860  -52.0427    1.2030 H   0  0  0  0  0  0  0  0  0  0  0  0
   16.5585  -51.7888    1.4171 H   0  0  0  0  0  0  0  0  0  0  0  0
    9.2296  -54.9690    6.2203 C   0  0  0  0  0  0  0  0  0  0  0  0
    8.6079  -54.0348    7.0867 O   0  0  0  0  0  0  0  0  0  0  0  0
    7.0664  -54.1295    7.3774 P   0  0  0  0  0  0  0  0  0  0  0  0
    6.3677  -52.8017    7.0657 O   0  0  0  0  0  0  0  0  0  0  0  0
    6.8127  -54.4708    8.7873 O   0  0  0  0  0  0  0  0  0  0  0  0
    5.8563  -54.5230    8.9403 H   0  0  0  0  0  0  0  0  0  0  0  0
    6.4648  -55.2188    6.4554 O   0  0  0  0  0  0  0  0  0  0  0  0
    4.9045  -55.5207    6.3458 P   0  0  0  0  0  0  0  0  0  0  0  0
    4.3552  -54.7023    5.1740 O   0  0  0  0  0  0  0  0  0  0  0  0
    4.1850  -55.0785    7.6539 O   0  0  0  0  0  0  0  0  0  0  0  0
    4.7443  -57.0021    6.1210 O   0  0  0  0  0  0  0  0  0  0  0  0
    3.2360  -55.2652    7.5799 H   0  0  0  0  0  0  0  0  0  0  0  0
    3.8013  -57.2182    6.0498 H   0  0  0  0  0  0  0  0  0  0  0  0
 27 28  2  0  0  0
 27 29  1  0  0  0
 27 30  1  0  0  0
 27 26  1  0  0  0
 22 23  2  0  0  0
 22 24  1  0  0  0
 22 26  1  0  0  0
 22 21  1  0  0  0
 21 20  1  0  0  0
 20  1  1  0  0  0
  1  2  1  0  0  0
  1  3  1  0  0  0
  2  6  1  0  0  0
  3  4  1  0  0  0
  3  5  1  0  0  0
  5  6  1  0  0  0
  6  8  1  0  0  0
  8  9  1  0  0  0
  8 17  1  0  0  0
  9 10  2  0  0  0
 10 11  1  0  0  0
 11 12  1  0  0  0
 11 17  2  0  0  0
 12 13  1  0  0  0
 12 14  2  0  0  0
 14 15  1  0  0  0
 15 16  2  0  0  0
 16 17  1  0  0  0
 29 31  1  0  0  0
 30 32  1  0  0  0
 24 25  1  0  0  0
  4  7  1  0  0  0
 13 18  1  0  0  0
 13 19  1  0  0  0
M  END
> <minimizedAffinity>
-8.17658

$$$$
4UOF_DAT_A_1152


 32 34  0  0  0  0  0  0  0  0999 V2000
    9.6323  -55.8726    6.3284 C   0  0  0  0  0  0  0  0  0  0  0  0
   10.7793  -56.0624    5.7355 O   0  0  0  0  0  0  0  0  0  0  0  0
    9.6828  -54.3974    6.7407 C   0  0  0  0  0  0  0  0  0  0  0  0
    8.7990  -54.1536    7.7548 O   0  0  0  0  0  0  0  0  0  0  0  0
   11.1547  -54.2046    7.1286 C   0  0  0  0  0  0  0  0  0  0  0  0
   11.8291  -55.1039    6.4247 C   0  0  0  0  0  0  0  0  0  0  0  0
    8.9916  -54.7435    8.5004 H   0  0  0  0  0  0  0  0  0  0  0  0
   12.6504  -54.4906    5.4024 N   0  0  0  0  0  0  0  0  0  0  0  0
   11.8524  -54.2335    4.3146 C   0  0  0  0  0  0  0  0  0  0  0  0
   12.6018  -53.6465    3.3543 N   0  0  0  0  0  0  0  0  0  0  0  0
   13.8765  -53.5516    3.8274 C   0  0  0  0  0  0  0  0  0  0  0  0
   15.0120  -53.0471    3.2687 C   0  0  0  0  0  0  0  0  0  0  0  0
   15.2385  -52.4677    1.9902 N   0  0  0  0  0  0  0  0  0  0  0  0
   16.1614  -53.0629    3.9672 N   0  0  0  0  0  0  0  0  0  0  0  0
   16.1836  -53.5884    5.2297 C   0  0  0  0  0  0  0  0  0  0  0  0
   15.0478  -54.0844    5.7787 N   0  0  0  0  0  0  0  0  0  0  0  0
   13.9024  -54.0743    5.0917 C   0  0  0  0  0  0  0  0  0  0  0  0
   14.4951  -52.3803    1.3506 H   0  0  0  0  0  0  0  0  0  0  0  0
   16.1387  -52.1540    1.7444 H   0  0  0  0  0  0  0  0  0  0  0  0
    8.4668  -56.0714    5.3153 C   0  0  0  0  0  0  0  0  0  0  0  0
    7.3327  -55.3932    5.8291 O   0  0  0  0  0  0  0  0  0  0  0  0
    5.8920  -55.9802    5.6070 P   0  0  0  0  0  0  0  0  0  0  0  0
    5.9566  -57.4671    5.2420 O   0  0  0  0  0  0  0  0  0  0  0  0
    5.1885  -55.2651    4.5287 O   0  0  0  0  0  0  0  0  0  0  0  0
    4.3040  -55.6456    4.4119 H   0  0  0  0  0  0  0  0  0  0  0  0
    5.1025  -55.8431    6.9323 O   0  0  0  0  0  0  0  0  0  0  0  0
    5.1244  -54.5361    7.8428 P   0  0  0  0  0  0  0  0  0  0  0  0
    6.1797  -54.7477    8.9320 O   0  0  0  0  0  0  0  0  0  0  0  0
    3.7350  -54.3347    8.5161 O   0  0  0  0  0  0  0  0  0  0  0  0
    5.4622  -53.3688    6.9519 O   0  0  0  0  0  0  0  0  0  0  0  0
    3.7559  -53.5377    9.0685 H   0  0  0  0  0  0  0  0  0  0  0  0
    5.4832  -52.5550    7.4794 H   0  0  0  0  0  0  0  0  0  0  0  0
 27 28  2  0  0  0
 27 29  1  0  0  0
 27 30  1  0  0  0
 27 26  1  0  0  0
 22 23  2  0  0  0
 22 24  1  0  0  0
 22 26  1  0  0  0
 22 21  1  0  0  0
 21 20  1  0  0  0
 20  1  1  0  0  0
  1  2  1  0  0  0
  1  3  1  0  0  0
  2  6  1  0  0  0
  3  4  1  0  0  0
  3  5  1  0  0  0
  5  6  1  0  0  0
  6  8  1  0  0  0
  8  9  1  0  0  0
  8 17  1  0  0  0
  9 10  2  0  0  0
 10 11  1  0  0  0
 11 12  1  0  0  0
 11 17  2  0  0  0
 12 13  1  0  0  0
 12 14  2  0  0  0
 14 15  1  0  0  0
 15 16  2  0  0  0
 16 17  1  0  0  0
 29 31  1  0  0  0
 30 32  1  0  0  0
 24 25  1  0  0  0
  4  7  1  0  0  0
 13 18  1  0  0  0
 13 19  1  0  0  0
M  END
> <minimizedAffinity>
-8.13910

$$$$
4UOF_DAT_A_1152


 32 34  0  0  0  0  0  0  0  0999 V2000
    8.8193  -55.1040    7.0292 C   0  0  0  0  0  0  0  0  0  0  0  0
    8.7274  -55.5499    5.8061 O   0  0  0  0  0  0  0  0  0  0  0  0
    9.9858  -54.1123    6.9614 C   0  0  0  0  0  0  0  0  0  0  0  0
   10.5139  -53.9091    8.2059 O   0  0  0  0  0  0  0  0  0  0  0  0
   10.9460  -54.7863    5.9725 C   0  0  0  0  0  0  0  0  0  0  0  0
   10.1823  -55.5376    5.1906 C   0  0  0  0  0  0  0  0  0  0  0  0
   10.7851  -54.7598    8.5849 H   0  0  0  0  0  0  0  0  0  0  0  0
   10.1181  -55.0254    3.8381 N   0  0  0  0  0  0  0  0  0  0  0  0
   11.0939  -54.0689    3.6997 C   0  0  0  0  0  0  0  0  0  0  0  0
   11.0573  -53.5896    2.4359 N   0  0  0  0  0  0  0  0  0  0  0  0
   10.0457  -54.2282    1.7826 C   0  0  0  0  0  0  0  0  0  0  0  0
    9.5861  -54.1204    0.5047 C   0  0  0  0  0  0  0  0  0  0  0  0
   10.0068  -53.2836   -0.5651 N   0  0  0  0  0  0  0  0  0  0  0  0
    8.5608  -54.8908    0.0988 N   0  0  0  0  0  0  0  0  0  0  0  0
    7.9847  -55.7723    0.9714 C   0  0  0  0  0  0  0  0  0  0  0  0
    8.4516  -55.8754    2.2397 N   0  0  0  0  0  0  0  0  0  0  0  0
    9.4682  -55.1132    2.6518 C   0  0  0  0  0  0  0  0  0  0  0  0
   10.7525  -52.6543   -0.4338 H   0  0  0  0  0  0  0  0  0  0  0  0
    9.5525  -53.3335   -1.4370 H   0  0  0  0  0  0  0  0  0  0  0  0
    7.5244  -54.3306    7.4156 C   0  0  0  0  0  0  0  0  0  0  0  0
    6.7799  -54.1217    6.2274 O   0  0  0  0  0  0  0  0  0  0  0  0
    5.2841  -53.6461    6.3043 P   0  0  0  0  0  0  0  0  0  0  0  0
    5.1929  -52.1169    6.2652 O   0  0  0  0  0  0  0  0  0  0  0  0
    4.6397  -54.1207    7.5406 O   0  0  0  0  0  0  0  0  0  0  0  0
    3.7196  -53.8145    7.5637 H   0  0  0  0  0  0  0  0  0  0  0  0
    4.5330  -54.2054    5.0708 O   0  0  0  0  0  0  0  0  0  0  0  0
    5.2586  -54.8994    3.8340 P   0  0  0  0  0  0  0  0  0  0  0  0
    4.1763  -55.3057    2.8299 O   0  0  0  0  0  0  0  0  0  0  0  0
    6.0134  -56.1756    4.3091 O   0  0  0  0  0  0  0  0  0  0  0  0
    6.2187  -53.8954    3.2503 O   0  0  0  0  0  0  0  0  0  0  0  0
    6.4525  -56.5926    3.5513 H   0  0  0  0  0  0  0  0  0  0  0  0
    6.6777  -54.2898    2.4923 H   0  0  0  0  0  0  0  0  0  0  0  0
 27 28  2  0  0  0
 27 29  1  0  0  0
 27 30  1  0  0  0
 27 26  1  0  0  0
 22 23  2  0  0  0
 22 24  1  0  0  0
 22 26  1  0  0  0
 22 21  1  0  0  0
 21 20  1  0  0  0
 20  1  1  0  0  0
  1  2  1  0  0  0
  1  3  1  0  0  0
  2  6  1  0  0  0
  3  4  1  0  0  0
  3  5  1  0  0  0
  5  6  1  0  0  0
  6  8  1  0  0  0
  8  9  1  0  0  0
  8 17  1  0  0  0
  9 10  2  0  0  0
 10 11  1  0  0  0
 11 12  1  0  0  0
 11 17  2  0  0  0
 12 13  1  0  0  0
 12 14  2  0  0  0
 14 15  1  0  0  0
 15 16  2  0  0  0
 16 17  1  0  0  0
 29 31  1  0  0  0
 30 32  1  0  0  0
 24 25  1  0  0  0
  4  7  1  0  0  0
 13 18  1  0  0  0
 13 19  1  0  0  0
M  END
> <minimizedAffinity>
-7.88889

$$$$
4UOF_DAT_A_1152


 32 34  0  0  0  0  0  0  0  0999 V2000
    7.1325  -54.5853    1.5583 C   0  0  0  0  0  0  0  0  0  0  0  0
    8.0363  -53.8535    2.1506 O   0  0  0  0  0  0  0  0  0  0  0  0
    7.6607  -56.0138    1.7299 C   0  0  0  0  0  0  0  0  0  0  0  0
    7.1073  -56.8439    0.7952 O   0  0  0  0  0  0  0  0  0  0  0  0
    9.1780  -55.8326    1.5912 C   0  0  0  0  0  0  0  0  0  0  0  0
    9.4244  -54.5872    1.9752 C   0  0  0  0  0  0  0  0  0  0  0  0
    7.2872  -56.4968   -0.0925 H   0  0  0  0  0  0  0  0  0  0  0  0
   10.1464  -54.5371    3.2290 N   0  0  0  0  0  0  0  0  0  0  0  0
   11.3499  -53.9159    3.0012 C   0  0  0  0  0  0  0  0  0  0  0  0
   12.0318  -53.8477    4.1668 N   0  0  0  0  0  0  0  0  0  0  0  0
   11.2685  -54.4437    5.1258 C   0  0  0  0  0  0  0  0  0  0  0  0
   11.4835  -54.6437    6.4561 C   0  0  0  0  0  0  0  0  0  0  0  0
   12.5946  -54.3076    7.2771 N   0  0  0  0  0  0  0  0  0  0  0  0
   10.5450  -55.2601    7.1969 N   0  0  0  0  0  0  0  0  0  0  0  0
    9.3852  -55.6853    6.6098 C   0  0  0  0  0  0  0  0  0  0  0  0
    9.1786  -55.4781    5.2862 N   0  0  0  0  0  0  0  0  0  0  0  0
   10.1057  -54.8684    4.5428 C   0  0  0  0  0  0  0  0  0  0  0  0
   13.3734  -53.8483    6.8876 H   0  0  0  0  0  0  0  0  0  0  0  0
   12.5852  -54.5342    8.2352 H   0  0  0  0  0  0  0  0  0  0  0  0
    5.7708  -54.4606    2.3029 C   0  0  0  0  0  0  0  0  0  0  0  0
    6.0497  -54.1274    3.6523 O   0  0  0  0  0  0  0  0  0  0  0  0
    5.4221  -54.9696    4.8212 P   0  0  0  0  0  0  0  0  0  0  0  0
    5.8948  -56.4261    4.7620 O   0  0  0  0  0  0  0  0  0  0  0  0
    3.9509  -54.9533    4.7558 O   0  0  0  0  0  0  0  0  0  0  0  0
    3.5889  -55.4790    5.4862 H   0  0  0  0  0  0  0  0  0  0  0  0
    5.8961  -54.3632    6.1652 O   0  0  0  0  0  0  0  0  0  0  0  0
    5.5996  -55.0215    7.5852 P   0  0  0  0  0  0  0  0  0  0  0  0
    6.4186  -54.2584    8.6299 O   0  0  0  0  0  0  0  0  0  0  0  0
    6.0459  -56.5132    7.5825 O   0  0  0  0  0  0  0  0  0  0  0  0
    4.1185  -54.9060    7.8378 O   0  0  0  0  0  0  0  0  0  0  0  0
    5.8624  -56.9071    8.4497 H   0  0  0  0  0  0  0  0  0  0  0  0
    3.9057  -55.2995    8.6984 H   0  0  0  0  0  0  0  0  0  0  0  0
 27 28  2  0  0  0
 27 29  1  0  0  0
 27 30  1  0  0  0
 27 26  1  0  0  0
 22 23  2  0  0  0
 22 24  1  0  0  0
 22 26  1  0  0  0
 22 21  1  0  0  0
 21 20  1  0  0  0
 20  1  1  0  0  0
  1  2  1  0  0  0
  1  3  1  0  0  0
  2  6  1  0  0  0
  3  4  1  0  0  0
  3  5  1  0  0  0
  5  6  1  0  0  0
  6  8  1  0  0  0
  8  9  1  0  0  0
  8 17  1  0  0  0
  9 10  2  0  0  0
 10 11  1  0  0  0
 11 12  1  0  0  0
 11 17  2  0  0  0
 12 13  1  0  0  0
 12 14  2  0  0  0
 14 15  1  0  0  0
 15 16  2  0  0  0
 16 17  1  0  0  0
 29 31  1  0  0  0
 30 32  1  0  0  0
 24 25  1  0  0  0
  4  7  1  0  0  0
 13 18  1  0  0  0
 13 19  1  0  0  0
M  END
> <minimizedAffinity>
-7.68189

$$$$
4UOF_DAT_A_1152


 32 34  0  0  0  0  0  0  0  0999 V2000
   10.0929  -55.8605    5.2411 C   0  0  0  0  0  0  0  0  0  0  0  0
    9.7688  -55.8297    3.9773 O   0  0  0  0  0  0  0  0  0  0  0  0
   10.4540  -54.4041    5.5531 C   0  0  0  0  0  0  0  0  0  0  0  0
   11.2440  -54.3351    6.6667 O   0  0  0  0  0  0  0  0  0  0  0  0
   11.1437  -53.9424    4.2626 C   0  0  0  0  0  0  0  0  0  0  0  0
   10.6343  -54.6962    3.2975 C   0  0  0  0  0  0  0  0  0  0  0  0
   12.0339  -54.8830    6.5372 H   0  0  0  0  0  0  0  0  0  0  0  0
    9.7926  -53.9347    2.3989 N   0  0  0  0  0  0  0  0  0  0  0  0
   10.5827  -53.0137    1.7556 C   0  0  0  0  0  0  0  0  0  0  0  0
    9.8136  -52.3025    0.9006 N   0  0  0  0  0  0  0  0  0  0  0  0
    8.5352  -52.7600    1.0188 C   0  0  0  0  0  0  0  0  0  0  0  0
    7.3826  -52.3916    0.3929 C   0  0  0  0  0  0  0  0  0  0  0  0
    7.1371  -51.3869   -0.5827 N   0  0  0  0  0  0  0  0  0  0  0  0
    6.2331  -53.0247    0.6881 N   0  0  0  0  0  0  0  0  0  0  0  0
    6.2281  -54.0291    1.6164 C   0  0  0  0  0  0  0  0  0  0  0  0
    7.3806  -54.3913    2.2310 N   0  0  0  0  0  0  0  0  0  0  0  0
    8.5263  -53.7671    1.9451 C   0  0  0  0  0  0  0  0  0  0  0  0
    7.8780  -50.8277   -0.9107 H   0  0  0  0  0  0  0  0  0  0  0  0
    6.2261  -51.2503   -0.9302 H   0  0  0  0  0  0  0  0  0  0  0  0
    8.8596  -56.2672    6.1000 C   0  0  0  0  0  0  0  0  0  0  0  0
    8.6598  -55.2523    7.0696 O   0  0  0  0  0  0  0  0  0  0  0  0
    7.2223  -54.9765    7.6416 P   0  0  0  0  0  0  0  0  0  0  0  0
    7.2060  -53.7007    8.4903 O   0  0  0  0  0  0  0  0  0  0  0  0
    6.7595  -56.0983    8.4760 O   0  0  0  0  0  0  0  0  0  0  0  0
    5.8721  -55.9037    8.8160 H   0  0  0  0  0  0  0  0  0  0  0  0
    6.2559  -54.7740    6.4484 O   0  0  0  0  0  0  0  0  0  0  0  0
    4.8732  -55.5490    6.2898 P   0  0  0  0  0  0  0  0  0  0  0  0
    5.1928  -57.0361    6.1135 O   0  0  0  0  0  0  0  0  0  0  0  0
    4.1209  -55.0393    5.0254 O   0  0  0  0  0  0  0  0  0  0  0  0
    4.0640  -55.2915    7.5346 O   0  0  0  0  0  0  0  0  0  0  0  0
    3.2805  -55.5153    4.9354 H   0  0  0  0  0  0  0  0  0  0  0  0
    3.2129  -55.7520    7.4680 H   0  0  0  0  0  0  0  0  0  0  0  0
 27 28  2  0  0  0
 27 29  1  0  0  0
 27 30  1  0  0  0
 27 26  1  0  0  0
 22 23  2  0  0  0
 22 24  1  0  0  0
 22 26  1  0  0  0
 22 21  1  0  0  0
 21 20  1  0  0  0
 20  1  1  0  0  0
  1  2  1  0  0  0
  1  3  1  0  0  0
  2  6  1  0  0  0
  3  4  1  0  0  0
  3  5  1  0  0  0
  5  6  1  0  0  0
  6  8  1  0  0  0
  8  9  1  0  0  0
  8 17  1  0  0  0
  9 10  2  0  0  0
 10 11  1  0  0  0
 11 12  1  0  0  0
 11 17  2  0  0  0
 12 13  1  0  0  0
 12 14  2  0  0  0
 14 15  1  0  0  0
 15 16  2  0  0  0
 16 17  1  0  0  0
 29 31  1  0  0  0
 30 32  1  0  0  0
 24 25  1  0  0  0
  4  7  1  0  0  0
 13 18  1  0  0  0
 13 19  1  0  0  0
M  END
> <minimizedAffinity>
-7.37698

$$$$
