2CGR_GAS_H_215


 32 34  0  0  0  0  0  0  0  0999 V2000
   -8.8028   40.4141   17.5939 C   0  0  0  0  0  0  0  0  0  0  0  0
   -9.4105   41.5889   17.6116 N   0  0  0  0  0  0  0  0  0  0  0  0
   -9.4321   39.3356   18.0303 N   0  0  0  0  0  0  0  0  0  0  0  0
   -9.2931   38.5009   17.5270 H   0  0  0  0  0  0  0  0  0  0  0  0
  -10.3150   39.2724   19.1924 C   0  0  0  0  0  0  0  0  0  0  0  0
   -8.3476   38.9155   20.5906 C   0  0  0  0  0  0  0  0  0  0  0  0
   -7.6357   39.2329   21.7444 C   0  0  0  0  0  0  0  0  0  0  0  0
   -8.1959   40.0584   22.7031 C   0  0  0  0  0  0  0  0  0  0  0  0
   -9.4657   40.5572   22.5116 C   0  0  0  0  0  0  0  0  0  0  0  0
  -10.1689   40.2383   21.3683 C   0  0  0  0  0  0  0  0  0  0  0  0
   -9.6221   39.4242   20.3953 C   0  0  0  0  0  0  0  0  0  0  0  0
  -11.2206   38.2097   19.1772 C   0  0  0  0  0  0  0  0  0  0  0  0
  -10.8126   36.9464   18.7365 C   0  0  0  0  0  0  0  0  0  0  0  0
  -11.7461   35.9684   18.4942 C   0  0  0  0  0  0  0  0  0  0  0  0
  -13.0949   36.2263   18.6877 C   0  0  0  0  0  0  0  0  0  0  0  0
  -13.5194   37.4613   19.1376 C   0  0  0  0  0  0  0  0  0  0  0  0
  -12.5892   38.4512   19.3865 C   0  0  0  0  0  0  0  0  0  0  0  0
   -7.7866   40.2310   16.8158 N   0  0  0  0  0  0  0  0  0  0  0  0
   -7.5457   41.0373   16.3048 H   0  0  0  0  0  0  0  0  0  0  0  0
   -6.9019   39.0749   16.5213 C   0  0  0  0  0  0  0  0  0  0  0  0
   -6.9499   37.9310   17.2905 C   0  0  0  0  0  0  0  0  0  0  0  0
   -6.1008   36.8733   17.0111 C   0  0  0  0  0  0  0  0  0  0  0  0
   -5.2084   36.9619   15.9595 C   0  0  0  0  0  0  0  0  0  0  0  0
   -5.1717   38.0915   15.1989 C   0  0  0  0  0  0  0  0  0  0  0  0
   -6.0197   39.1486   15.4753 C   0  0  0  0  0  0  0  0  0  0  0  0
   -4.2797   35.8170   15.6305 C   0  0  0  0  0  0  0  0  0  0  0  0
   -3.5697   34.9364   15.3824 N   0  0  0  0  0  0  0  0  0  0  0  0
   -8.7846   42.8496   17.9827 C   0  0  0  0  0  0  0  0  0  0  0  0
   -8.7136   43.2140   19.4494 C   0  0  0  0  0  0  0  0  0  0  0  0
   -7.8664   42.6403   20.1691 O   0  0  0  0  0  0  0  0  0  0  0  0
   -9.2810   44.2745   19.7991 O   0  0  0  0  0  0  0  0  0  0  0  0
   -9.9110   44.6770   19.2344 H   0  0  0  0  0  0  0  0  0  0  0  0
  6  7  1  0  0  0
  6 11  2  0  0  0
  7  8  2  0  0  0
  8  9  1  0  0  0
  9 10  2  0  0  0
 10 11  1  0  0  0
 11  5  1  0  0  0
  5  3  1  0  0  0
  5 12  1  0  0  0
  3  1  1  0  0  0
 12 13  2  0  0  0
 12 17  1  0  0  0
 13 14  1  0  0  0
 14 15  2  0  0  0
 15 16  1  0  0  0
 16 17  2  0  0  0
  1  2  2  0  0  0
  1 18  1  0  0  0
  2 28  1  0  0  0
 28 29  1  0  0  0
 29 30  2  0  0  0
 29 31  1  0  0  0
 18 20  1  0  0  0
 20 21  1  0  0  0
 20 25  2  0  0  0
 21 22  2  0  0  0
 22 23  1  0  0  0
 23 26  1  0  0  0
 23 24  2  0  0  0
 26 27  3  0  0  0
 24 25  1  0  0  0
  3  4  1  0  0  0
 31 32  1  0  0  0
 18 19  1  0  0  0
M  END
> <minimizedAffinity>
-9.00828

$$$$
2CGR_GAS_H_215


 32 34  0  0  0  0  0  0  0  0999 V2000
   -8.8463   40.5642   17.4778 C   0  0  0  0  0  0  0  0  0  0  0  0
   -9.2978   41.7890   17.6922 N   0  0  0  0  0  0  0  0  0  0  0  0
   -9.6887   39.5453   17.4342 N   0  0  0  0  0  0  0  0  0  0  0  0
  -10.1812   39.4065   16.5931 H   0  0  0  0  0  0  0  0  0  0  0  0
   -9.9535   38.6077   18.5226 C   0  0  0  0  0  0  0  0  0  0  0  0
  -12.2228   38.5133   17.6314 C   0  0  0  0  0  0  0  0  0  0  0  0
  -13.3803   37.7740   17.4021 C   0  0  0  0  0  0  0  0  0  0  0  0
  -13.5118   36.5036   17.9345 C   0  0  0  0  0  0  0  0  0  0  0  0
  -12.4931   35.9793   18.6995 C   0  0  0  0  0  0  0  0  0  0  0  0
  -11.3489   36.7159   18.9265 C   0  0  0  0  0  0  0  0  0  0  0  0
  -11.1952   37.9816   18.3946 C   0  0  0  0  0  0  0  0  0  0  0  0
   -9.6875   39.1083   19.7987 C   0  0  0  0  0  0  0  0  0  0  0  0
  -10.5841   39.9936   20.4060 C   0  0  0  0  0  0  0  0  0  0  0  0
  -10.2181   40.6692   21.5445 C   0  0  0  0  0  0  0  0  0  0  0  0
   -8.9617   40.4755   22.0987 C   0  0  0  0  0  0  0  0  0  0  0  0
   -8.0660   39.5943   21.5251 C   0  0  0  0  0  0  0  0  0  0  0  0
   -8.4244   38.9081   20.3815 C   0  0  0  0  0  0  0  0  0  0  0  0
   -7.6870   40.3963   16.9306 N   0  0  0  0  0  0  0  0  0  0  0  0
   -7.2484   41.2456   16.6949 H   0  0  0  0  0  0  0  0  0  0  0  0
   -6.8697   39.2071   16.5784 C   0  0  0  0  0  0  0  0  0  0  0  0
   -6.8968   38.0711   17.3603 C   0  0  0  0  0  0  0  0  0  0  0  0
   -6.1103   36.9816   17.0250 C   0  0  0  0  0  0  0  0  0  0  0  0
   -5.3017   37.0307   15.9053 C   0  0  0  0  0  0  0  0  0  0  0  0
   -5.2858   38.1529   15.1331 C   0  0  0  0  0  0  0  0  0  0  0  0
   -6.0714   39.2417   15.4652 C   0  0  0  0  0  0  0  0  0  0  0  0
   -4.4430   35.8510   15.5152 C   0  0  0  0  0  0  0  0  0  0  0  0
   -3.7890   34.9439   15.2143 N   0  0  0  0  0  0  0  0  0  0  0  0
   -8.6537   42.7822   18.5392 C   0  0  0  0  0  0  0  0  0  0  0  0
   -9.5274   43.6870   19.3800 C   0  0  0  0  0  0  0  0  0  0  0  0
   -9.0458   44.7616   19.8023 O   0  0  0  0  0  0  0  0  0  0  0  0
  -10.7609   43.4716   19.3518 O   0  0  0  0  0  0  0  0  0  0  0  0
  -11.0865   42.6546   19.0287 H   0  0  0  0  0  0  0  0  0  0  0  0
  6  7  1  0  0  0
  6 11  2  0  0  0
  7  8  2  0  0  0
  8  9  1  0  0  0
  9 10  2  0  0  0
 10 11  1  0  0  0
 11  5  1  0  0  0
  5  3  1  0  0  0
  5 12  1  0  0  0
  3  1  1  0  0  0
 12 13  2  0  0  0
 12 17  1  0  0  0
 13 14  1  0  0  0
 14 15  2  0  0  0
 15 16  1  0  0  0
 16 17  2  0  0  0
  1  2  2  0  0  0
  1 18  1  0  0  0
  2 28  1  0  0  0
 28 29  1  0  0  0
 29 30  2  0  0  0
 29 31  1  0  0  0
 18 20  1  0  0  0
 20 21  1  0  0  0
 20 25  2  0  0  0
 21 22  2  0  0  0
 22 23  1  0  0  0
 23 26  1  0  0  0
 23 24  2  0  0  0
 26 27  3  0  0  0
 24 25  1  0  0  0
  3  4  1  0  0  0
 31 32  1  0  0  0
 18 19  1  0  0  0
M  END
> <minimizedAffinity>
-8.88755

$$$$
2CGR_GAS_H_215


 32 34  0  0  0  0  0  0  0  0999 V2000
   -9.1100   40.8275   17.2730 C   0  0  0  0  0  0  0  0  0  0  0  0
   -9.4360   42.0539   17.6466 N   0  0  0  0  0  0  0  0  0  0  0  0
  -10.0519   39.9158   17.0963 N   0  0  0  0  0  0  0  0  0  0  0  0
   -9.8436   39.1672   16.4917 H   0  0  0  0  0  0  0  0  0  0  0  0
  -11.3737   39.9206   17.7181 C   0  0  0  0  0  0  0  0  0  0  0  0
  -13.0935   38.2304   18.0906 C   0  0  0  0  0  0  0  0  0  0  0  0
  -13.4176   36.9023   18.3551 C   0  0  0  0  0  0  0  0  0  0  0  0
  -12.4225   35.9900   18.6586 C   0  0  0  0  0  0  0  0  0  0  0  0
  -11.1103   36.4070   18.7052 C   0  0  0  0  0  0  0  0  0  0  0  0
  -10.7935   37.7242   18.4450 C   0  0  0  0  0  0  0  0  0  0  0  0
  -11.7721   38.6471   18.1299 C   0  0  0  0  0  0  0  0  0  0  0  0
  -12.3464   40.6297   17.0104 C   0  0  0  0  0  0  0  0  0  0  0  0
  -12.4281   40.5107   15.6190 C   0  0  0  0  0  0  0  0  0  0  0  0
  -13.2147   41.3773   14.9002 C   0  0  0  0  0  0  0  0  0  0  0  0
  -13.9331   42.3708   15.5484 C   0  0  0  0  0  0  0  0  0  0  0  0
  -13.8800   42.4968   16.9228 C   0  0  0  0  0  0  0  0  0  0  0  0
  -13.0941   41.6296   17.6557 C   0  0  0  0  0  0  0  0  0  0  0  0
   -7.9669   40.6134   16.7079 N   0  0  0  0  0  0  0  0  0  0  0  0
   -7.5581   41.4336   16.3483 H   0  0  0  0  0  0  0  0  0  0  0  0
   -7.1334   39.4052   16.4806 C   0  0  0  0  0  0  0  0  0  0  0  0
   -7.1665   38.3446   17.3619 C   0  0  0  0  0  0  0  0  0  0  0  0
   -6.3648   37.2370   17.1417 C   0  0  0  0  0  0  0  0  0  0  0  0
   -5.5351   37.1922   16.0375 C   0  0  0  0  0  0  0  0  0  0  0  0
   -5.5132   38.2397   15.1668 C   0  0  0  0  0  0  0  0  0  0  0  0
   -6.3139   39.3464   15.3839 C   0  0  0  0  0  0  0  0  0  0  0  0
   -4.6595   35.9904   15.7723 C   0  0  0  0  0  0  0  0  0  0  0  0
   -3.9844   35.0710   15.5721 N   0  0  0  0  0  0  0  0  0  0  0  0
   -8.7045   42.8559   18.6164 C   0  0  0  0  0  0  0  0  0  0  0  0
   -9.4912   43.7348   19.5637 C   0  0  0  0  0  0  0  0  0  0  0  0
   -8.9964   44.8279   19.9175 O   0  0  0  0  0  0  0  0  0  0  0  0
  -10.7094   43.4767   19.6984 O   0  0  0  0  0  0  0  0  0  0  0  0
  -11.0458   42.6469   19.4220 H   0  0  0  0  0  0  0  0  0  0  0  0
  6  7  1  0  0  0
  6 11  2  0  0  0
  7  8  2  0  0  0
  8  9  1  0  0  0
  9 10  2  0  0  0
 10 11  1  0  0  0
 11  5  1  0  0  0
  5  3  1  0  0  0
  5 12  1  0  0  0
  3  1  1  0  0  0
 12 13  2  0  0  0
 12 17  1  0  0  0
 13 14  1  0  0  0
 14 15  2  0  0  0
 15 16  1  0  0  0
 16 17  2  0  0  0
  1  2  2  0  0  0
  1 18  1  0  0  0
  2 28  1  0  0  0
 28 29  1  0  0  0
 29 30  2  0  0  0
 29 31  1  0  0  0
 18 20  1  0  0  0
 20 21  1  0  0  0
 20 25  2  0  0  0
 21 22  2  0  0  0
 22 23  1  0  0  0
 23 26  1  0  0  0
 23 24  2  0  0  0
 26 27  3  0  0  0
 24 25  1  0  0  0
  3  4  1  0  0  0
 31 32  1  0  0  0
 18 19  1  0  0  0
M  END
> <minimizedAffinity>
-8.84623

$$$$
2CGR_GAS_H_215


 32 34  0  0  0  0  0  0  0  0999 V2000
   -9.0032   41.0501   17.3873 C   0  0  0  0  0  0  0  0  0  0  0  0
   -8.4433   41.7767   18.3404 N   0  0  0  0  0  0  0  0  0  0  0  0
   -8.3166   40.0836   16.8007 N   0  0  0  0  0  0  0  0  0  0  0  0
   -8.3741   40.0244   15.8197 H   0  0  0  0  0  0  0  0  0  0  0  0
   -7.4805   39.0961   17.4787 C   0  0  0  0  0  0  0  0  0  0  0  0
   -6.2731   38.9448   15.3639 C   0  0  0  0  0  0  0  0  0  0  0  0
   -5.2980   38.3161   14.5940 C   0  0  0  0  0  0  0  0  0  0  0  0
   -4.6801   37.1673   15.0556 C   0  0  0  0  0  0  0  0  0  0  0  0
   -5.0424   36.6458   16.2781 C   0  0  0  0  0  0  0  0  0  0  0  0
   -6.0109   37.2701   17.0368 C   0  0  0  0  0  0  0  0  0  0  0  0
   -6.6313   38.4236   16.5974 C   0  0  0  0  0  0  0  0  0  0  0  0
   -8.1664   38.2655   18.3672 C   0  0  0  0  0  0  0  0  0  0  0  0
   -8.9954   37.2494   17.8801 C   0  0  0  0  0  0  0  0  0  0  0  0
   -9.8494   36.5919   18.7314 C   0  0  0  0  0  0  0  0  0  0  0  0
   -9.8923   36.9285   20.0760 C   0  0  0  0  0  0  0  0  0  0  0  0
   -9.0716   37.9175   20.5820 C   0  0  0  0  0  0  0  0  0  0  0  0
   -8.2075   38.5836   19.7355 C   0  0  0  0  0  0  0  0  0  0  0  0
  -10.2918   40.9995   17.2948 N   0  0  0  0  0  0  0  0  0  0  0  0
  -10.6655   41.7305   16.7514 H   0  0  0  0  0  0  0  0  0  0  0  0
  -11.3338   40.0839   17.8258 C   0  0  0  0  0  0  0  0  0  0  0  0
  -12.0126   39.2213   16.9905 C   0  0  0  0  0  0  0  0  0  0  0  0
  -12.9954   38.3915   17.5037 C   0  0  0  0  0  0  0  0  0  0  0  0
  -13.2931   38.4242   18.8529 C   0  0  0  0  0  0  0  0  0  0  0  0
  -12.6133   39.2728   19.6736 C   0  0  0  0  0  0  0  0  0  0  0  0
  -11.6305   40.1016   19.1635 C   0  0  0  0  0  0  0  0  0  0  0  0
  -14.3542   37.5213   19.4361 C   0  0  0  0  0  0  0  0  0  0  0  0
  -15.1714   36.8311   19.8799 N   0  0  0  0  0  0  0  0  0  0  0  0
   -8.6015   43.2150   18.4986 C   0  0  0  0  0  0  0  0  0  0  0  0
   -9.6209   43.7220   19.4950 C   0  0  0  0  0  0  0  0  0  0  0  0
   -9.2668   44.5856   20.3279 O   0  0  0  0  0  0  0  0  0  0  0  0
  -10.8256   43.4892   19.2432 O   0  0  0  0  0  0  0  0  0  0  0  0
  -11.0545   42.8347   18.6130 H   0  0  0  0  0  0  0  0  0  0  0  0
  6  7  1  0  0  0
  6 11  2  0  0  0
  7  8  2  0  0  0
  8  9  1  0  0  0
  9 10  2  0  0  0
 10 11  1  0  0  0
 11  5  1  0  0  0
  5  3  1  0  0  0
  5 12  1  0  0  0
  3  1  1  0  0  0
 12 13  2  0  0  0
 12 17  1  0  0  0
 13 14  1  0  0  0
 14 15  2  0  0  0
 15 16  1  0  0  0
 16 17  2  0  0  0
  1  2  2  0  0  0
  1 18  1  0  0  0
  2 28  1  0  0  0
 28 29  1  0  0  0
 29 30  2  0  0  0
 29 31  1  0  0  0
 18 20  1  0  0  0
 20 21  1  0  0  0
 20 25  2  0  0  0
 21 22  2  0  0  0
 22 23  1  0  0  0
 23 26  1  0  0  0
 23 24  2  0  0  0
 26 27  3  0  0  0
 24 25  1  0  0  0
  3  4  1  0  0  0
 31 32  1  0  0  0
 18 19  1  0  0  0
M  END
> <minimizedAffinity>
-8.69162

$$$$
2CGR_GAS_H_215


 32 34  0  0  0  0  0  0  0  0999 V2000
   -9.1932   40.0659   17.8431 C   0  0  0  0  0  0  0  0  0  0  0  0
   -9.2422   40.4476   19.1087 N   0  0  0  0  0  0  0  0  0  0  0  0
  -10.2938   40.0597   17.1094 N   0  0  0  0  0  0  0  0  0  0  0  0
  -10.1952   39.8392   16.1550 H   0  0  0  0  0  0  0  0  0  0  0  0
  -11.6426   40.3508   17.5890 C   0  0  0  0  0  0  0  0  0  0  0  0
  -12.1745   38.0021   17.1964 C   0  0  0  0  0  0  0  0  0  0  0  0
  -12.7969   36.8352   17.6321 C   0  0  0  0  0  0  0  0  0  0  0  0
  -13.6084   36.8557   18.7526 C   0  0  0  0  0  0  0  0  0  0  0  0
  -13.8026   38.0402   19.4288 C   0  0  0  0  0  0  0  0  0  0  0  0
  -13.1862   39.1947   18.9925 C   0  0  0  0  0  0  0  0  0  0  0  0
  -12.3642   39.1917   17.8822 C   0  0  0  0  0  0  0  0  0  0  0  0
  -12.3409   41.2888   16.8260 C   0  0  0  0  0  0  0  0  0  0  0  0
  -12.7864   42.4783   17.4120 C   0  0  0  0  0  0  0  0  0  0  0  0
  -13.6704   43.2865   16.7400 C   0  0  0  0  0  0  0  0  0  0  0  0
  -14.1228   42.9304   15.4783 C   0  0  0  0  0  0  0  0  0  0  0  0
  -13.6842   41.7686   14.8737 C   0  0  0  0  0  0  0  0  0  0  0  0
  -12.7937   40.9496   15.5395 C   0  0  0  0  0  0  0  0  0  0  0  0
   -8.0637   40.0796   17.2140 N   0  0  0  0  0  0  0  0  0  0  0  0
   -7.7805   40.9864   16.9557 H   0  0  0  0  0  0  0  0  0  0  0  0
   -7.0985   39.0317   16.7942 C   0  0  0  0  0  0  0  0  0  0  0  0
   -6.2360   39.2435   15.7388 C   0  0  0  0  0  0  0  0  0  0  0  0
   -5.3589   38.2444   15.3508 C   0  0  0  0  0  0  0  0  0  0  0  0
   -5.3447   37.0371   16.0232 C   0  0  0  0  0  0  0  0  0  0  0  0
   -6.1936   36.8375   17.0698 C   0  0  0  0  0  0  0  0  0  0  0  0
   -7.0695   37.8343   17.4599 C   0  0  0  0  0  0  0  0  0  0  0  0
   -4.3900   35.9370   15.6237 C   0  0  0  0  0  0  0  0  0  0  0  0
   -3.6587   35.0912   15.3222 N   0  0  0  0  0  0  0  0  0  0  0  0
   -8.5219   39.8131   20.2029 C   0  0  0  0  0  0  0  0  0  0  0  0
   -8.9874   38.4548   20.6795 C   0  0  0  0  0  0  0  0  0  0  0  0
  -10.1303   38.0646   20.3533 O   0  0  0  0  0  0  0  0  0  0  0  0
   -8.1086   37.6705   21.1053 O   0  0  0  0  0  0  0  0  0  0  0  0
   -7.2627   37.9979   21.3405 H   0  0  0  0  0  0  0  0  0  0  0  0
  6  7  1  0  0  0
  6 11  2  0  0  0
  7  8  2  0  0  0
  8  9  1  0  0  0
  9 10  2  0  0  0
 10 11  1  0  0  0
 11  5  1  0  0  0
  5  3  1  0  0  0
  5 12  1  0  0  0
  3  1  1  0  0  0
 12 13  2  0  0  0
 12 17  1  0  0  0
 13 14  1  0  0  0
 14 15  2  0  0  0
 15 16  1  0  0  0
 16 17  2  0  0  0
  1  2  2  0  0  0
  1 18  1  0  0  0
  2 28  1  0  0  0
 28 29  1  0  0  0
 29 30  2  0  0  0
 29 31  1  0  0  0
 18 20  1  0  0  0
 20 21  1  0  0  0
 20 25  2  0  0  0
 21 22  2  0  0  0
 22 23  1  0  0  0
 23 26  1  0  0  0
 23 24  2  0  0  0
 26 27  3  0  0  0
 24 25  1  0  0  0
  3  4  1  0  0  0
 31 32  1  0  0  0
 18 19  1  0  0  0
M  END
> <minimizedAffinity>
-8.60130

$$$$
2CGR_GAS_H_215


 32 34  0  0  0  0  0  0  0  0999 V2000
  -10.4008   40.7743   17.9245 C   0  0  0  0  0  0  0  0  0  0  0  0
  -10.4412   42.0965   17.9347 N   0  0  0  0  0  0  0  0  0  0  0  0
  -11.2091   40.0925   17.1299 N   0  0  0  0  0  0  0  0  0  0  0  0
  -10.7919   39.5717   16.4060 H   0  0  0  0  0  0  0  0  0  0  0  0
  -12.6656   40.0433   17.2305 C   0  0  0  0  0  0  0  0  0  0  0  0
  -12.3257   37.6272   17.2435 C   0  0  0  0  0  0  0  0  0  0  0  0
  -12.8663   36.3513   17.3805 C   0  0  0  0  0  0  0  0  0  0  0  0
  -14.2362   36.1825   17.4783 C   0  0  0  0  0  0  0  0  0  0  0  0
  -15.0613   37.2847   17.4309 C   0  0  0  0  0  0  0  0  0  0  0  0
  -14.5220   38.5469   17.2925 C   0  0  0  0  0  0  0  0  0  0  0  0
  -13.1564   38.7362   17.2039 C   0  0  0  0  0  0  0  0  0  0  0  0
  -13.3369   40.9299   16.3861 C   0  0  0  0  0  0  0  0  0  0  0  0
  -12.9622   41.0392   15.0428 C   0  0  0  0  0  0  0  0  0  0  0  0
  -13.4503   42.0679   14.2747 C   0  0  0  0  0  0  0  0  0  0  0  0
  -14.3177   43.0000   14.8244 C   0  0  0  0  0  0  0  0  0  0  0  0
  -14.7137   42.9026   16.1440 C   0  0  0  0  0  0  0  0  0  0  0  0
  -14.2308   41.8710   16.9248 C   0  0  0  0  0  0  0  0  0  0  0  0
   -9.3495   40.1628   18.3634 N   0  0  0  0  0  0  0  0  0  0  0  0
   -9.2409   40.2404   19.3388 H   0  0  0  0  0  0  0  0  0  0  0  0
   -8.2693   39.3694   17.7235 C   0  0  0  0  0  0  0  0  0  0  0  0
   -7.4901   39.9103   16.7219 C   0  0  0  0  0  0  0  0  0  0  0  0
   -6.5025   39.1453   16.1243 C   0  0  0  0  0  0  0  0  0  0  0  0
   -6.2945   37.8418   16.5339 C   0  0  0  0  0  0  0  0  0  0  0  0
   -7.0622   37.3165   17.5291 C   0  0  0  0  0  0  0  0  0  0  0  0
   -8.0484   38.0790   18.1283 C   0  0  0  0  0  0  0  0  0  0  0  0
   -5.2166   36.9923   15.9031 C   0  0  0  0  0  0  0  0  0  0  0  0
   -4.3939   36.3385   15.4164 N   0  0  0  0  0  0  0  0  0  0  0  0
  -10.3441   42.9277   19.1257 C   0  0  0  0  0  0  0  0  0  0  0  0
   -9.0034   43.5383   19.4702 C   0  0  0  0  0  0  0  0  0  0  0  0
   -7.9776   42.8302   19.3649 O   0  0  0  0  0  0  0  0  0  0  0  0
   -8.9500   44.7877   19.5415 O   0  0  0  0  0  0  0  0  0  0  0  0
   -9.7392   45.2867   19.6197 H   0  0  0  0  0  0  0  0  0  0  0  0
  6  7  1  0  0  0
  6 11  2  0  0  0
  7  8  2  0  0  0
  8  9  1  0  0  0
  9 10  2  0  0  0
 10 11  1  0  0  0
 11  5  1  0  0  0
  5  3  1  0  0  0
  5 12  1  0  0  0
  3  1  1  0  0  0
 12 13  2  0  0  0
 12 17  1  0  0  0
 13 14  1  0  0  0
 14 15  2  0  0  0
 15 16  1  0  0  0
 16 17  2  0  0  0
  1  2  2  0  0  0
  1 18  1  0  0  0
  2 28  1  0  0  0
 28 29  1  0  0  0
 29 30  2  0  0  0
 29 31  1  0  0  0
 18 20  1  0  0  0
 20 21  1  0  0  0
 20 25  2  0  0  0
 21 22  2  0  0  0
 22 23  1  0  0  0
 23 26  1  0  0  0
 23 24  2  0  0  0
 26 27  3  0  0  0
 24 25  1  0  0  0
  3  4  1  0  0  0
 31 32  1  0  0  0
 18 19  1  0  0  0
M  END
> <minimizedAffinity>
-7.98613

$$$$
2CGR_GAS_H_215


 32 34  0  0  0  0  0  0  0  0999 V2000
   -8.2664   40.0437   17.6225 C   0  0  0  0  0  0  0  0  0  0  0  0
   -7.1633   39.9505   16.8983 N   0  0  0  0  0  0  0  0  0  0  0  0
   -8.3356   39.4531   18.8040 N   0  0  0  0  0  0  0  0  0  0  0  0
   -7.5251   38.9954   19.1246 H   0  0  0  0  0  0  0  0  0  0  0  0
   -9.5074   39.4193   19.6756 C   0  0  0  0  0  0  0  0  0  0  0  0
   -7.9912   39.2901   21.5829 C   0  0  0  0  0  0  0  0  0  0  0  0
   -7.6483   39.7246   22.8605 C   0  0  0  0  0  0  0  0  0  0  0  0
   -8.4990   40.5590   23.5638 C   0  0  0  0  0  0  0  0  0  0  0  0
   -9.6909   40.9499   22.9942 C   0  0  0  0  0  0  0  0  0  0  0  0
  -10.0283   40.5151   21.7292 C   0  0  0  0  0  0  0  0  0  0  0  0
   -9.1871   39.6904   21.0076 C   0  0  0  0  0  0  0  0  0  0  0  0
  -10.3348   38.3092   19.4946 C   0  0  0  0  0  0  0  0  0  0  0  0
   -9.7770   37.0547   19.2263 C   0  0  0  0  0  0  0  0  0  0  0  0
  -10.5800   36.0195   18.8142 C   0  0  0  0  0  0  0  0  0  0  0  0
  -11.9455   36.2106   18.6652 C   0  0  0  0  0  0  0  0  0  0  0  0
  -12.5201   37.4362   18.9397 C   0  0  0  0  0  0  0  0  0  0  0  0
  -11.7225   38.4835   19.3568 C   0  0  0  0  0  0  0  0  0  0  0  0
   -9.1063   40.9985   17.3890 N   0  0  0  0  0  0  0  0  0  0  0  0
   -8.6892   41.8899   17.4146 H   0  0  0  0  0  0  0  0  0  0  0  0
  -10.5604   41.0498   17.0908 C   0  0  0  0  0  0  0  0  0  0  0  0
  -11.3948   41.9097   17.7742 C   0  0  0  0  0  0  0  0  0  0  0  0
  -12.7511   41.9256   17.4948 C   0  0  0  0  0  0  0  0  0  0  0  0
  -13.2681   41.0834   16.5286 C   0  0  0  0  0  0  0  0  0  0  0  0
  -12.4372   40.2424   15.8518 C   0  0  0  0  0  0  0  0  0  0  0  0
  -11.0821   40.2256   16.1283 C   0  0  0  0  0  0  0  0  0  0  0  0
  -14.7424   41.0907   16.2005 C   0  0  0  0  0  0  0  0  0  0  0  0
  -15.8730   41.1014   15.9500 N   0  0  0  0  0  0  0  0  0  0  0  0
   -7.1225   39.7559   15.4564 C   0  0  0  0  0  0  0  0  0  0  0  0
   -6.1664   38.7261   14.8956 C   0  0  0  0  0  0  0  0  0  0  0  0
   -4.9869   38.7141   15.3120 O   0  0  0  0  0  0  0  0  0  0  0  0
   -6.6710   37.7552   14.2861 O   0  0  0  0  0  0  0  0  0  0  0  0
   -7.5584   37.7990   13.9882 H   0  0  0  0  0  0  0  0  0  0  0  0
  6  7  1  0  0  0
  6 11  2  0  0  0
  7  8  2  0  0  0
  8  9  1  0  0  0
  9 10  2  0  0  0
 10 11  1  0  0  0
 11  5  1  0  0  0
  5  3  1  0  0  0
  5 12  1  0  0  0
  3  1  1  0  0  0
 12 13  2  0  0  0
 12 17  1  0  0  0
 13 14  1  0  0  0
 14 15  2  0  0  0
 15 16  1  0  0  0
 16 17  2  0  0  0
  1  2  2  0  0  0
  1 18  1  0  0  0
  2 28  1  0  0  0
 28 29  1  0  0  0
 29 30  2  0  0  0
 29 31  1  0  0  0
 18 20  1  0  0  0
 20 21  1  0  0  0
 20 25  2  0  0  0
 21 22  2  0  0  0
 22 23  1  0  0  0
 23 26  1  0  0  0
 23 24  2  0  0  0
 26 27  3  0  0  0
 24 25  1  0  0  0
  3  4  1  0  0  0
 31 32  1  0  0  0
 18 19  1  0  0  0
M  END
> <minimizedAffinity>
-7.89370

$$$$
2CGR_GAS_H_215


 32 34  0  0  0  0  0  0  0  0999 V2000
  -10.9003   37.4319   18.2339 C   0  0  0  0  0  0  0  0  0  0  0  0
  -11.5436   36.3140   18.5281 N   0  0  0  0  0  0  0  0  0  0  0  0
   -9.6160   37.5541   18.5259 N   0  0  0  0  0  0  0  0  0  0  0  0
   -9.1580   36.7561   18.8762 H   0  0  0  0  0  0  0  0  0  0  0  0
   -8.8166   38.7674   18.3749 C   0  0  0  0  0  0  0  0  0  0  0  0
   -7.0148   37.3590   17.5247 C   0  0  0  0  0  0  0  0  0  0  0  0
   -6.0043   37.1576   16.5881 C   0  0  0  0  0  0  0  0  0  0  0  0
   -5.6711   38.1620   15.6966 C   0  0  0  0  0  0  0  0  0  0  0  0
   -6.3405   39.3650   15.7479 C   0  0  0  0  0  0  0  0  0  0  0  0
   -7.3393   39.5616   16.6790 C   0  0  0  0  0  0  0  0  0  0  0  0
   -7.6931   38.5670   17.5702 C   0  0  0  0  0  0  0  0  0  0  0  0
   -8.5595   39.4463   19.5677 C   0  0  0  0  0  0  0  0  0  0  0  0
   -8.1678   38.7373   20.7081 C   0  0  0  0  0  0  0  0  0  0  0  0
   -8.1465   39.3611   21.9316 C   0  0  0  0  0  0  0  0  0  0  0  0
   -8.5093   40.6950   22.0424 C   0  0  0  0  0  0  0  0  0  0  0  0
   -8.8842   41.4189   20.9275 C   0  0  0  0  0  0  0  0  0  0  0  0
   -8.9071   40.8023   19.6921 C   0  0  0  0  0  0  0  0  0  0  0  0
  -11.3810   38.2297   17.3372 N   0  0  0  0  0  0  0  0  0  0  0  0
  -11.3448   37.8511   16.4291 H   0  0  0  0  0  0  0  0  0  0  0  0
  -11.9756   39.5903   17.3723 C   0  0  0  0  0  0  0  0  0  0  0  0
  -12.2905   40.2570   16.2066 C   0  0  0  0  0  0  0  0  0  0  0  0
  -12.8243   41.5337   16.2623 C   0  0  0  0  0  0  0  0  0  0  0  0
  -13.0456   42.1380   17.4853 C   0  0  0  0  0  0  0  0  0  0  0  0
  -12.7398   41.4707   18.6330 C   0  0  0  0  0  0  0  0  0  0  0  0
  -12.2078   40.1952   18.5798 C   0  0  0  0  0  0  0  0  0  0  0  0
  -13.6359   43.5257   17.5703 C   0  0  0  0  0  0  0  0  0  0  0  0
  -14.0835   44.5917   17.6359 N   0  0  0  0  0  0  0  0  0  0  0  0
  -12.8968   36.2420   19.0595 C   0  0  0  0  0  0  0  0  0  0  0  0
  -14.0485   36.1342   18.0844 C   0  0  0  0  0  0  0  0  0  0  0  0
  -14.3780   37.1491   17.4315 O   0  0  0  0  0  0  0  0  0  0  0  0
  -14.4066   34.9803   17.7539 O   0  0  0  0  0  0  0  0  0  0  0  0
  -14.1410   34.2425   18.2667 H   0  0  0  0  0  0  0  0  0  0  0  0
  6  7  1  0  0  0
  6 11  2  0  0  0
  7  8  2  0  0  0
  8  9  1  0  0  0
  9 10  2  0  0  0
 10 11  1  0  0  0
 11  5  1  0  0  0
  5  3  1  0  0  0
  5 12  1  0  0  0
  3  1  1  0  0  0
 12 13  2  0  0  0
 12 17  1  0  0  0
 13 14  1  0  0  0
 14 15  2  0  0  0
 15 16  1  0  0  0
 16 17  2  0  0  0
  1  2  2  0  0  0
  1 18  1  0  0  0
  2 28  1  0  0  0
 28 29  1  0  0  0
 29 30  2  0  0  0
 29 31  1  0  0  0
 18 20  1  0  0  0
 20 21  1  0  0  0
 20 25  2  0  0  0
 21 22  2  0  0  0
 22 23  1  0  0  0
 23 26  1  0  0  0
 23 24  2  0  0  0
 26 27  3  0  0  0
 24 25  1  0  0  0
  3  4  1  0  0  0
 31 32  1  0  0  0
 18 19  1  0  0  0
M  END
> <minimizedAffinity>
-7.83527

$$$$
2CGR_GAS_H_215


 32 34  0  0  0  0  0  0  0  0999 V2000
  -11.1143   38.1311   17.8198 C   0  0  0  0  0  0  0  0  0  0  0  0
  -11.0852   36.9450   18.4047 N   0  0  0  0  0  0  0  0  0  0  0  0
  -10.1046   38.9716   17.9747 N   0  0  0  0  0  0  0  0  0  0  0  0
  -10.2275   39.8874   17.6349 H   0  0  0  0  0  0  0  0  0  0  0  0
   -8.8237   38.6622   18.6050 C   0  0  0  0  0  0  0  0  0  0  0  0
   -9.0607   40.7182   19.8972 C   0  0  0  0  0  0  0  0  0  0  0  0
   -8.9595   41.3700   21.1235 C   0  0  0  0  0  0  0  0  0  0  0  0
   -8.4014   40.7229   22.2118 C   0  0  0  0  0  0  0  0  0  0  0  0
   -7.9395   39.4327   22.0711 C   0  0  0  0  0  0  0  0  0  0  0  0
   -8.0393   38.7912   20.8538 C   0  0  0  0  0  0  0  0  0  0  0  0
   -8.6029   39.4172   19.7589 C   0  0  0  0  0  0  0  0  0  0  0  0
   -7.7391   38.6185   17.7266 C   0  0  0  0  0  0  0  0  0  0  0  0
   -7.4890   39.6930   16.8666 C   0  0  0  0  0  0  0  0  0  0  0  0
   -6.5805   39.5589   15.8454 C   0  0  0  0  0  0  0  0  0  0  0  0
   -5.9052   38.3613   15.6634 C   0  0  0  0  0  0  0  0  0  0  0  0
   -6.1245   37.2923   16.5100 C   0  0  0  0  0  0  0  0  0  0  0  0
   -7.0342   37.4168   17.5415 C   0  0  0  0  0  0  0  0  0  0  0  0
  -11.8966   38.3272   16.8093 N   0  0  0  0  0  0  0  0  0  0  0  0
  -11.9062   37.5701   16.1801 H   0  0  0  0  0  0  0  0  0  0  0  0
  -12.7841   39.4406   16.3865 C   0  0  0  0  0  0  0  0  0  0  0  0
  -12.3708   40.3580   15.4430 C   0  0  0  0  0  0  0  0  0  0  0  0
  -13.2065   41.4007   15.0794 C   0  0  0  0  0  0  0  0  0  0  0  0
  -14.4558   41.5199   15.6582 C   0  0  0  0  0  0  0  0  0  0  0  0
  -14.8608   40.6058   16.5835 C   0  0  0  0  0  0  0  0  0  0  0  0
  -14.0284   39.5629   16.9474 C   0  0  0  0  0  0  0  0  0  0  0  0
  -15.3876   42.6434   15.2698 C   0  0  0  0  0  0  0  0  0  0  0  0
  -16.1032   43.5022   14.9674 N   0  0  0  0  0  0  0  0  0  0  0  0
  -12.2220   36.2990   19.0443 C   0  0  0  0  0  0  0  0  0  0  0  0
  -13.4300   35.9638   18.1973 C   0  0  0  0  0  0  0  0  0  0  0  0
  -13.2625   35.2980   17.1516 O   0  0  0  0  0  0  0  0  0  0  0  0
  -14.5541   36.0963   18.7337 O   0  0  0  0  0  0  0  0  0  0  0  0
  -14.6425   36.6026   19.5171 H   0  0  0  0  0  0  0  0  0  0  0  0
  6  7  1  0  0  0
  6 11  2  0  0  0
  7  8  2  0  0  0
  8  9  1  0  0  0
  9 10  2  0  0  0
 10 11  1  0  0  0
 11  5  1  0  0  0
  5  3  1  0  0  0
  5 12  1  0  0  0
  3  1  1  0  0  0
 12 13  2  0  0  0
 12 17  1  0  0  0
 13 14  1  0  0  0
 14 15  2  0  0  0
 15 16  1  0  0  0
 16 17  2  0  0  0
  1  2  2  0  0  0
  1 18  1  0  0  0
  2 28  1  0  0  0
 28 29  1  0  0  0
 29 30  2  0  0  0
 29 31  1  0  0  0
 18 20  1  0  0  0
 20 21  1  0  0  0
 20 25  2  0  0  0
 21 22  2  0  0  0
 22 23  1  0  0  0
 23 26  1  0  0  0
 23 24  2  0  0  0
 26 27  3  0  0  0
 24 25  1  0  0  0
  3  4  1  0  0  0
 31 32  1  0  0  0
 18 19  1  0  0  0
M  END
> <minimizedAffinity>
-7.80771

$$$$
2CGR_GAS_H_215


 32 34  0  0  0  0  0  0  0  0999 V2000
  -11.1190   38.2674   18.3702 C   0  0  0  0  0  0  0  0  0  0  0  0
  -11.6425   37.9805   19.5507 N   0  0  0  0  0  0  0  0  0  0  0  0
   -9.8245   38.0954   18.1596 N   0  0  0  0  0  0  0  0  0  0  0  0
   -9.5120   37.1726   18.0180 H   0  0  0  0  0  0  0  0  0  0  0  0
   -8.8171   39.1524   18.1185 C   0  0  0  0  0  0  0  0  0  0  0  0
   -7.1218   37.4934   17.5470 C   0  0  0  0  0  0  0  0  0  0  0  0
   -6.0729   37.1020   16.7191 C   0  0  0  0  0  0  0  0  0  0  0  0
   -5.5671   37.9780   15.7750 C   0  0  0  0  0  0  0  0  0  0  0  0
   -6.1032   39.2424   15.6658 C   0  0  0  0  0  0  0  0  0  0  0  0
   -7.1406   39.6272   16.4897 C   0  0  0  0  0  0  0  0  0  0  0  0
   -7.6657   38.7630   17.4309 C   0  0  0  0  0  0  0  0  0  0  0  0
   -8.5752   39.7729   19.3458 C   0  0  0  0  0  0  0  0  0  0  0  0
   -8.2421   39.0051   20.4666 C   0  0  0  0  0  0  0  0  0  0  0  0
   -8.2385   39.5773   21.7152 C   0  0  0  0  0  0  0  0  0  0  0  0
   -8.5612   40.9170   21.8711 C   0  0  0  0  0  0  0  0  0  0  0  0
   -8.8778   41.6981   20.7769 C   0  0  0  0  0  0  0  0  0  0  0  0
   -8.8824   41.1337   19.5166 C   0  0  0  0  0  0  0  0  0  0  0  0
  -11.8836   38.3310   17.3296 N   0  0  0  0  0  0  0  0  0  0  0  0
  -11.9455   37.4750   16.8472 H   0  0  0  0  0  0  0  0  0  0  0  0
  -12.6894   39.4081   16.7000 C   0  0  0  0  0  0  0  0  0  0  0  0
  -14.0016   39.6200   17.0685 C   0  0  0  0  0  0  0  0  0  0  0  0
  -14.7409   40.6162   16.4530 C   0  0  0  0  0  0  0  0  0  0  0  0
  -14.1633   41.4007   15.4729 C   0  0  0  0  0  0  0  0  0  0  0  0
  -12.8644   41.1914   15.1193 C   0  0  0  0  0  0  0  0  0  0  0  0
  -12.1237   40.1979   15.7335 C   0  0  0  0  0  0  0  0  0  0  0  0
  -14.9476   42.4993   14.7950 C   0  0  0  0  0  0  0  0  0  0  0  0
  -15.5534   43.3389   14.2764 N   0  0  0  0  0  0  0  0  0  0  0  0
  -12.6559   38.7729   20.2319 C   0  0  0  0  0  0  0  0  0  0  0  0
  -12.2619   40.1256   20.7832 C   0  0  0  0  0  0  0  0  0  0  0  0
  -12.4555   41.1399   20.0771 O   0  0  0  0  0  0  0  0  0  0  0  0
  -12.0553   40.1979   22.0164 O   0  0  0  0  0  0  0  0  0  0  0  0
  -11.9141   39.4168   22.5143 H   0  0  0  0  0  0  0  0  0  0  0  0
  6  7  1  0  0  0
  6 11  2  0  0  0
  7  8  2  0  0  0
  8  9  1  0  0  0
  9 10  2  0  0  0
 10 11  1  0  0  0
 11  5  1  0  0  0
  5  3  1  0  0  0
  5 12  1  0  0  0
  3  1  1  0  0  0
 12 13  2  0  0  0
 12 17  1  0  0  0
 13 14  1  0  0  0
 14 15  2  0  0  0
 15 16  1  0  0  0
 16 17  2  0  0  0
  1  2  2  0  0  0
  1 18  1  0  0  0
  2 28  1  0  0  0
 28 29  1  0  0  0
 29 30  2  0  0  0
 29 31  1  0  0  0
 18 20  1  0  0  0
 20 21  1  0  0  0
 20 25  2  0  0  0
 21 22  2  0  0  0
 22 23  1  0  0  0
 23 26  1  0  0  0
 23 24  2  0  0  0
 26 27  3  0  0  0
 24 25  1  0  0  0
  3  4  1  0  0  0
 31 32  1  0  0  0
 18 19  1  0  0  0
M  END
> <minimizedAffinity>
-7.67739

$$$$
