5U0G_7QY_A_302


 19 20  0  0  0  0  0  0  0  0999 V2000
   -4.1805    5.7995   15.0464 C   0  0  0  0  0  0  0  0  0  0  0  0
   -3.4592    6.9641   14.9843 C   0  0  0  0  0  0  0  0  0  0  0  0
   -1.8780    5.9584   13.5280 C   0  0  0  0  0  0  0  0  0  0  0  0
   -3.7640    4.6774   14.3600 C   0  0  0  0  0  0  0  0  0  0  0  0
   -2.3098    7.0600   14.2277 C   0  0  0  0  0  0  0  0  0  0  0  0
   -2.6088    4.7654   13.6047 C   0  0  0  0  0  0  0  0  0  0  0  0
   -2.0199    9.1576   15.3574 C   0  0  0  0  0  0  0  0  0  0  0  0
   -1.6719    8.3176   14.2378 O   0  0  0  0  0  0  0  0  0  0  0  0
   -2.3473    3.7189   11.4933 C   0  0  0  0  0  0  0  0  0  0  0  0
   -2.2275    3.6157   12.9267 O   0  0  0  0  0  0  0  0  0  0  0  0
   -4.6119    3.4389   14.5240 C   0  0  0  0  0  0  0  0  0  0  0  0
   -4.4932    1.7202   16.3663 C   0  0  0  0  0  0  0  0  0  0  0  0
   -6.6230    1.6774   16.9017 C   0  0  0  0  0  0  0  0  0  0  0  0
   -4.7915    3.1679   16.0425 C   0  0  0  0  0  0  0  0  0  0  0  0
   -5.5114    0.9837   16.8347 N   0  0  0  0  0  0  0  0  0  0  0  0
   -3.3726    1.2944   16.1839 O   0  0  0  0  0  0  0  0  0  0  0  0
   -7.7118    1.2713   17.1809 O   0  0  0  0  0  0  0  0  0  0  0  0
   -6.4774    3.3772   16.6521 S   0  0  0  0  0  0  0  0  0  0  0  0
   -5.4342    0.0378   17.0963 H   0  0  0  0  0  0  0  0  0  0  0  0
  9 10  1  0  0  0
 10  6  1  0  0  0
  6  3  2  0  0  0
  6  4  1  0  0  0
 16 12  2  0  0  0
 11  4  1  0  0  0
 11 14  1  0  0  0
  3  5  1  0  0  0
  4  1  2  0  0  0
  7  8  1  0  0  0
 12 14  1  0  0  0
 12 15  1  0  0  0
  5  8  1  0  0  0
  5  2  2  0  0  0
  1  2  1  0  0  0
 14 18  1  0  0  0
 15 13  1  0  0  0
 13 18  1  0  0  0
 13 17  2  0  0  0
 15 19  1  0  0  0
M  END
> <minimizedAffinity>
-7.03773

$$$$
5U0G_7QY_A_302


 19 20  0  0  0  0  0  0  0  0999 V2000
   -4.4370    1.4885   15.0017 C   0  0  0  0  0  0  0  0  0  0  0  0
   -4.7027    1.3318   16.3379 C   0  0  0  0  0  0  0  0  0  0  0  0
   -6.1112    3.2418   16.3264 C   0  0  0  0  0  0  0  0  0  0  0  0
   -4.9920    2.5339   14.2927 C   0  0  0  0  0  0  0  0  0  0  0  0
   -5.5393    2.1967   17.0122 C   0  0  0  0  0  0  0  0  0  0  0  0
   -5.8267    3.4083   14.9646 C   0  0  0  0  0  0  0  0  0  0  0  0
   -6.3409    2.9891   19.1310 C   0  0  0  0  0  0  0  0  0  0  0  0
   -5.7406    1.9147   18.3791 O   0  0  0  0  0  0  0  0  0  0  0  0
   -5.9809    5.7556   14.6691 C   0  0  0  0  0  0  0  0  0  0  0  0
   -6.3673    4.4430   14.2137 O   0  0  0  0  0  0  0  0  0  0  0  0
   -4.6073    2.6339   12.8360 C   0  0  0  0  0  0  0  0  0  0  0  0
   -2.5160    2.0032   11.5747 C   0  0  0  0  0  0  0  0  0  0  0  0
   -3.3952    0.5119   10.2229 C   0  0  0  0  0  0  0  0  0  0  0  0
   -3.5860    1.5068   12.5224 C   0  0  0  0  0  0  0  0  0  0  0  0
   -2.4594    1.4198   10.3685 N   0  0  0  0  0  0  0  0  0  0  0  0
   -1.7769    2.8944   11.9351 O   0  0  0  0  0  0  0  0  0  0  0  0
   -3.6601   -0.0993    9.2306 O   0  0  0  0  0  0  0  0  0  0  0  0
   -4.2743    0.0881   11.6443 S   0  0  0  0  0  0  0  0  0  0  0  0
   -1.7964    1.6454    9.6765 H   0  0  0  0  0  0  0  0  0  0  0  0
  9 10  1  0  0  0
 10  6  1  0  0  0
  6  3  2  0  0  0
  6  4  1  0  0  0
 16 12  2  0  0  0
 11  4  1  0  0  0
 11 14  1  0  0  0
  3  5  1  0  0  0
  4  1  2  0  0  0
  7  8  1  0  0  0
 12 14  1  0  0  0
 12 15  1  0  0  0
  5  8  1  0  0  0
  5  2  2  0  0  0
  1  2  1  0  0  0
 14 18  1  0  0  0
 15 13  1  0  0  0
 13 18  1  0  0  0
 13 17  2  0  0  0
 15 19  1  0  0  0
M  END
> <minimizedAffinity>
-6.58415

$$$$
5U0G_7QY_A_302


 19 20  0  0  0  0  0  0  0  0999 V2000
   -3.8409    3.7258   14.6461 C   0  0  0  0  0  0  0  0  0  0  0  0
   -4.0629    3.0483   15.8176 C   0  0  0  0  0  0  0  0  0  0  0  0
   -4.6113    1.0729   14.6222 C   0  0  0  0  0  0  0  0  0  0  0  0
   -4.0096    3.0987   13.4288 C   0  0  0  0  0  0  0  0  0  0  0  0
   -4.4442    1.7227   15.8219 C   0  0  0  0  0  0  0  0  0  0  0  0
   -4.3980    1.7713   13.4264 C   0  0  0  0  0  0  0  0  0  0  0  0
   -5.9485    1.2994   17.6434 C   0  0  0  0  0  0  0  0  0  0  0  0
   -4.6247    1.1405   17.0935 O   0  0  0  0  0  0  0  0  0  0  0  0
   -4.0981   -0.1906   12.1295 C   0  0  0  0  0  0  0  0  0  0  0  0
   -4.5520    1.1772   12.1814 O   0  0  0  0  0  0  0  0  0  0  0  0
   -3.7724    3.9448   12.2010 C   0  0  0  0  0  0  0  0  0  0  0  0
   -1.8321    5.2895   11.3125 C   0  0  0  0  0  0  0  0  0  0  0  0
   -1.3658    4.0561    9.5558 C   0  0  0  0  0  0  0  0  0  0  0  0
   -2.2476    3.9615   11.9069 C   0  0  0  0  0  0  0  0  0  0  0  0
   -1.3564    5.2678   10.0587 N   0  0  0  0  0  0  0  0  0  0  0  0
   -1.9528    6.2963   11.9774 O   0  0  0  0  0  0  0  0  0  0  0  0
   -1.1001    3.7375    8.4350 O   0  0  0  0  0  0  0  0  0  0  0  0
   -1.7070    2.7754   10.6585 S   0  0  0  0  0  0  0  0  0  0  0  0
   -1.0389    6.0642    9.5747 H   0  0  0  0  0  0  0  0  0  0  0  0
  9 10  1  0  0  0
 10  6  1  0  0  0
  6  3  2  0  0  0
  6  4  1  0  0  0
 16 12  2  0  0  0
 11  4  1  0  0  0
 11 14  1  0  0  0
  3  5  1  0  0  0
  4  1  2  0  0  0
  7  8  1  0  0  0
 12 14  1  0  0  0
 12 15  1  0  0  0
  5  8  1  0  0  0
  5  2  2  0  0  0
  1  2  1  0  0  0
 14 18  1  0  0  0
 15 13  1  0  0  0
 13 18  1  0  0  0
 13 17  2  0  0  0
 15 19  1  0  0  0
M  END
> <minimizedAffinity>
-6.25473

$$$$
5U0G_7QY_A_302


 19 20  0  0  0  0  0  0  0  0999 V2000
   -4.2807    1.3287   14.1254 C   0  0  0  0  0  0  0  0  0  0  0  0
   -4.5286    1.0274   15.4401 C   0  0  0  0  0  0  0  0  0  0  0  0
   -5.6906    3.0754   15.7358 C   0  0  0  0  0  0  0  0  0  0  0  0
   -4.7208    2.5181   13.5820 C   0  0  0  0  0  0  0  0  0  0  0  0
   -5.2343    1.8875   16.2555 C   0  0  0  0  0  0  0  0  0  0  0  0
   -5.4235    3.3876   14.3962 C   0  0  0  0  0  0  0  0  0  0  0  0
   -6.1520    2.3808   18.4175 C   0  0  0  0  0  0  0  0  0  0  0  0
   -5.4330    1.4511   17.5816 O   0  0  0  0  0  0  0  0  0  0  0  0
   -5.9353    5.6787   14.7280 C   0  0  0  0  0  0  0  0  0  0  0  0
   -5.8518    4.5703   13.8092 O   0  0  0  0  0  0  0  0  0  0  0  0
   -4.3650    2.7657   12.1356 C   0  0  0  0  0  0  0  0  0  0  0  0
   -2.5746    4.4968   11.7355 C   0  0  0  0  0  0  0  0  0  0  0  0
   -1.7411    3.6717    9.8783 C   0  0  0  0  0  0  0  0  0  0  0  0
   -2.8389    3.0402   12.0486 C   0  0  0  0  0  0  0  0  0  0  0  0
   -1.9726    4.7640   10.5672 N   0  0  0  0  0  0  0  0  0  0  0  0
   -2.9191    5.3429   12.5328 O   0  0  0  0  0  0  0  0  0  0  0  0
   -1.3132    3.5973    8.7649 O   0  0  0  0  0  0  0  0  0  0  0  0
   -1.9931    2.1803   10.7060 S   0  0  0  0  0  0  0  0  0  0  0  0
   -1.7336    5.6694   10.2635 H   0  0  0  0  0  0  0  0  0  0  0  0
  9 10  1  0  0  0
 10  6  1  0  0  0
  6  3  2  0  0  0
  6  4  1  0  0  0
 16 12  2  0  0  0
 11  4  1  0  0  0
 11 14  1  0  0  0
  3  5  1  0  0  0
  4  1  2  0  0  0
  7  8  1  0  0  0
 12 14  1  0  0  0
 12 15  1  0  0  0
  5  8  1  0  0  0
  5  2  2  0  0  0
  1  2  1  0  0  0
 14 18  1  0  0  0
 15 13  1  0  0  0
 13 18  1  0  0  0
 13 17  2  0  0  0
 15 19  1  0  0  0
M  END
> <minimizedAffinity>
-6.21545

$$$$
5U0G_7QY_A_302


 19 20  0  0  0  0  0  0  0  0999 V2000
   -4.1293    5.0522   12.7438 C   0  0  0  0  0  0  0  0  0  0  0  0
   -4.0995    5.3180   11.3988 C   0  0  0  0  0  0  0  0  0  0  0  0
   -3.6189    3.0446   10.9159 C   0  0  0  0  0  0  0  0  0  0  0  0
   -3.8927    3.7767   13.2135 C   0  0  0  0  0  0  0  0  0  0  0  0
   -3.8498    4.3256   10.4739 C   0  0  0  0  0  0  0  0  0  0  0  0
   -3.6354    2.7785   12.2914 C   0  0  0  0  0  0  0  0  0  0  0  0
   -3.8257    6.1568    8.9228 C   0  0  0  0  0  0  0  0  0  0  0  0
   -3.8626    4.7290    9.1227 O   0  0  0  0  0  0  0  0  0  0  0  0
   -4.1993    0.4783   12.1818 C   0  0  0  0  0  0  0  0  0  0  0  0
   -3.4073    1.5095   12.8054 O   0  0  0  0  0  0  0  0  0  0  0  0
   -3.9154    3.6003   14.7129 C   0  0  0  0  0  0  0  0  0  0  0  0
   -5.9670    3.7761   16.1697 C   0  0  0  0  0  0  0  0  0  0  0  0
   -5.6440    1.9819   17.3950 C   0  0  0  0  0  0  0  0  0  0  0  0
   -5.2708    2.9531   15.1078 C   0  0  0  0  0  0  0  0  0  0  0  0
   -6.1476    3.1930   17.3639 N   0  0  0  0  0  0  0  0  0  0  0  0
   -6.3163    4.9065   15.9044 O   0  0  0  0  0  0  0  0  0  0  0  0
   -5.5608    1.2587   18.3428 O   0  0  0  0  0  0  0  0  0  0  0  0
   -5.1339    1.3290   15.8830 S   0  0  0  0  0  0  0  0  0  0  0  0
   -6.6027    3.6215   18.1245 H   0  0  0  0  0  0  0  0  0  0  0  0
  9 10  1  0  0  0
 10  6  1  0  0  0
  6  3  2  0  0  0
  6  4  1  0  0  0
 16 12  2  0  0  0
 11  4  1  0  0  0
 11 14  1  0  0  0
  3  5  1  0  0  0
  4  1  2  0  0  0
  7  8  1  0  0  0
 12 14  1  0  0  0
 12 15  1  0  0  0
  5  8  1  0  0  0
  5  2  2  0  0  0
  1  2  1  0  0  0
 14 18  1  0  0  0
 15 13  1  0  0  0
 13 18  1  0  0  0
 13 17  2  0  0  0
 15 19  1  0  0  0
M  END
> <minimizedAffinity>
-6.21171

$$$$
5U0G_7QY_A_302


 19 20  0  0  0  0  0  0  0  0999 V2000
   -3.4213    4.3519   13.8651 C   0  0  0  0  0  0  0  0  0  0  0  0
   -2.4884    5.2332   13.3819 C   0  0  0  0  0  0  0  0  0  0  0  0
   -2.1234    3.8687   11.4747 C   0  0  0  0  0  0  0  0  0  0  0  0
   -3.7230    3.1977   13.1721 C   0  0  0  0  0  0  0  0  0  0  0  0
   -1.8348    5.0076   12.1883 C   0  0  0  0  0  0  0  0  0  0  0  0
   -3.0664    2.9626   11.9778 C   0  0  0  0  0  0  0  0  0  0  0  0
   -0.7528    7.0768   12.7430 C   0  0  0  0  0  0  0  0  0  0  0  0
   -0.9110    5.9989   11.7979 O   0  0  0  0  0  0  0  0  0  0  0  0
   -2.2769    1.1255   10.7039 C   0  0  0  0  0  0  0  0  0  0  0  0
   -3.4023    1.7928   11.3104 O   0  0  0  0  0  0  0  0  0  0  0  0
   -4.7390    2.2802   13.8091 C   0  0  0  0  0  0  0  0  0  0  0  0
   -4.5284    1.4632   16.1862 C   0  0  0  0  0  0  0  0  0  0  0  0
   -6.6362    1.6473   16.7757 C   0  0  0  0  0  0  0  0  0  0  0  0
   -4.8588    2.6532   15.3119 C   0  0  0  0  0  0  0  0  0  0  0  0
   -5.5182    0.9842   16.9539 N   0  0  0  0  0  0  0  0  0  0  0  0
   -3.4094    0.9976   16.1495 O   0  0  0  0  0  0  0  0  0  0  0  0
   -7.7082    1.3928   17.2389 O   0  0  0  0  0  0  0  0  0  0  0  0
   -6.5239    3.0967   15.8488 S   0  0  0  0  0  0  0  0  0  0  0  0
   -5.4181    0.2273   17.5755 H   0  0  0  0  0  0  0  0  0  0  0  0
  9 10  1  0  0  0
 10  6  1  0  0  0
  6  3  2  0  0  0
  6  4  1  0  0  0
 16 12  2  0  0  0
 11  4  1  0  0  0
 11 14  1  0  0  0
  3  5  1  0  0  0
  4  1  2  0  0  0
  7  8  1  0  0  0
 12 14  1  0  0  0
 12 15  1  0  0  0
  5  8  1  0  0  0
  5  2  2  0  0  0
  1  2  1  0  0  0
 14 18  1  0  0  0
 15 13  1  0  0  0
 13 18  1  0  0  0
 13 17  2  0  0  0
 15 19  1  0  0  0
M  END
> <minimizedAffinity>
-6.18768

$$$$
5U0G_7QY_A_302


 19 20  0  0  0  0  0  0  0  0999 V2000
   -2.9561    1.6842   11.9861 C   0  0  0  0  0  0  0  0  0  0  0  0
   -2.1151    1.9352   10.9324 C   0  0  0  0  0  0  0  0  0  0  0  0
   -3.1040    4.0658   10.5940 C   0  0  0  0  0  0  0  0  0  0  0  0
   -3.9033    2.6127   12.3659 C   0  0  0  0  0  0  0  0  0  0  0  0
   -2.1744    3.1209   10.2302 C   0  0  0  0  0  0  0  0  0  0  0  0
   -3.9719    3.8010   11.6617 C   0  0  0  0  0  0  0  0  0  0  0  0
   -1.1203    4.5985    8.6599 C   0  0  0  0  0  0  0  0  0  0  0  0
   -1.2439    3.2588    9.1796 O   0  0  0  0  0  0  0  0  0  0  0  0
   -4.5498    6.0877   11.9034 C   0  0  0  0  0  0  0  0  0  0  0  0
   -4.9353    4.7091   12.0788 O   0  0  0  0  0  0  0  0  0  0  0  0
   -4.8002    2.2223   13.5161 C   0  0  0  0  0  0  0  0  0  0  0  0
   -4.3154    2.0738   15.9870 C   0  0  0  0  0  0  0  0  0  0  0  0
   -5.8913    3.4255   16.7040 C   0  0  0  0  0  0  0  0  0  0  0  0
   -4.3319    2.9896   14.7825 C   0  0  0  0  0  0  0  0  0  0  0  0
   -5.1622    2.3712   16.9835 N   0  0  0  0  0  0  0  0  0  0  0  0
   -3.5601    1.1253   15.9958 O   0  0  0  0  0  0  0  0  0  0  0  0
   -6.7966    3.8682   17.3466 O   0  0  0  0  0  0  0  0  0  0  0  0
   -5.4300    4.3229   15.3060 S   0  0  0  0  0  0  0  0  0  0  0  0
   -5.2286    1.8606   17.8227 H   0  0  0  0  0  0  0  0  0  0  0  0
  9 10  1  0  0  0
 10  6  1  0  0  0
  6  3  2  0  0  0
  6  4  1  0  0  0
 16 12  2  0  0  0
 11  4  1  0  0  0
 11 14  1  0  0  0
  3  5  1  0  0  0
  4  1  2  0  0  0
  7  8  1  0  0  0
 12 14  1  0  0  0
 12 15  1  0  0  0
  5  8  1  0  0  0
  5  2  2  0  0  0
  1  2  1  0  0  0
 14 18  1  0  0  0
 15 13  1  0  0  0
 13 18  1  0  0  0
 13 17  2  0  0  0
 15 19  1  0  0  0
M  END
> <minimizedAffinity>
-6.12129

$$$$
5U0G_7QY_A_302


 19 20  0  0  0  0  0  0  0  0999 V2000
   -3.6897    6.2645   14.7687 C   0  0  0  0  0  0  0  0  0  0  0  0
   -3.4907    7.2935   13.8844 C   0  0  0  0  0  0  0  0  0  0  0  0
   -2.5952    5.7958   12.2758 C   0  0  0  0  0  0  0  0  0  0  0  0
   -3.3359    4.9732   14.4356 C   0  0  0  0  0  0  0  0  0  0  0  0
   -2.9488    7.0747   12.6349 C   0  0  0  0  0  0  0  0  0  0  0  0
   -2.7861    4.7483   13.1866 C   0  0  0  0  0  0  0  0  0  0  0  0
   -1.9585    9.2437   12.3611 C   0  0  0  0  0  0  0  0  0  0  0  0
   -2.8115    8.2155   11.8175 O   0  0  0  0  0  0  0  0  0  0  0  0
   -3.1150    2.9125   11.7229 C   0  0  0  0  0  0  0  0  0  0  0  0
   -2.4484    3.4350   12.8900 O   0  0  0  0  0  0  0  0  0  0  0  0
   -3.5661    3.9215   15.4943 C   0  0  0  0  0  0  0  0  0  0  0  0
   -5.9602    3.3854   16.0802 C   0  0  0  0  0  0  0  0  0  0  0  0
   -5.7012    1.2601   16.5709 C   0  0  0  0  0  0  0  0  0  0  0  0
   -4.8329    3.1101   15.1089 C   0  0  0  0  0  0  0  0  0  0  0  0
   -6.3861    2.3510   16.8200 N   0  0  0  0  0  0  0  0  0  0  0  0
   -6.4145    4.5072   16.1531 O   0  0  0  0  0  0  0  0  0  0  0  0
   -5.7795    0.2125   17.1409 O   0  0  0  0  0  0  0  0  0  0  0  0
   -4.6416    1.3184   15.2120 S   0  0  0  0  0  0  0  0  0  0  0  0
   -7.1230    2.4039   17.4708 H   0  0  0  0  0  0  0  0  0  0  0  0
  9 10  1  0  0  0
 10  6  1  0  0  0
  6  3  2  0  0  0
  6  4  1  0  0  0
 16 12  2  0  0  0
 11  4  1  0  0  0
 11 14  1  0  0  0
  3  5  1  0  0  0
  4  1  2  0  0  0
  7  8  1  0  0  0
 12 14  1  0  0  0
 12 15  1  0  0  0
  5  8  1  0  0  0
  5  2  2  0  0  0
  1  2  1  0  0  0
 14 18  1  0  0  0
 15 13  1  0  0  0
 13 18  1  0  0  0
 13 17  2  0  0  0
 15 19  1  0  0  0
M  END
> <minimizedAffinity>
-5.97186

$$$$
5U0G_7QY_A_302


 19 20  0  0  0  0  0  0  0  0999 V2000
   -4.3680    3.6214   15.0720 C   0  0  0  0  0  0  0  0  0  0  0  0
   -4.9702    2.7857   15.9772 C   0  0  0  0  0  0  0  0  0  0  0  0
   -4.5630    0.9096   14.5819 C   0  0  0  0  0  0  0  0  0  0  0  0
   -3.8566    3.1261   13.8902 C   0  0  0  0  0  0  0  0  0  0  0  0
   -5.0718    1.4292   15.7483 C   0  0  0  0  0  0  0  0  0  0  0  0
   -3.9610    1.7677   13.6520 C   0  0  0  0  0  0  0  0  0  0  0  0
   -6.9160    1.2644   17.2753 C   0  0  0  0  0  0  0  0  0  0  0  0
   -5.6997    0.6809   16.7653 O   0  0  0  0  0  0  0  0  0  0  0  0
   -4.1254    0.1713   11.9069 C   0  0  0  0  0  0  0  0  0  0  0  0
   -3.4301    1.3101   12.4539 O   0  0  0  0  0  0  0  0  0  0  0  0
   -3.2453    4.1365   12.9493 C   0  0  0  0  0  0  0  0  0  0  0  0
   -4.1799    4.7077   10.6772 C   0  0  0  0  0  0  0  0  0  0  0  0
   -3.9791    6.8922   10.7886 C   0  0  0  0  0  0  0  0  0  0  0  0
   -4.3930    4.8344   12.1699 C   0  0  0  0  0  0  0  0  0  0  0  0
   -3.9788    5.8459    9.9970 N   0  0  0  0  0  0  0  0  0  0  0  0
   -4.1907    3.6056   10.1718 O   0  0  0  0  0  0  0  0  0  0  0  0
   -3.7264    8.0220   10.4920 O   0  0  0  0  0  0  0  0  0  0  0  0
   -4.4924    6.6202   12.4119 S   0  0  0  0  0  0  0  0  0  0  0  0
   -3.8471    5.8909    9.0224 H   0  0  0  0  0  0  0  0  0  0  0  0
  9 10  1  0  0  0
 10  6  1  0  0  0
  6  3  2  0  0  0
  6  4  1  0  0  0
 16 12  2  0  0  0
 11  4  1  0  0  0
 11 14  1  0  0  0
  3  5  1  0  0  0
  4  1  2  0  0  0
  7  8  1  0  0  0
 12 14  1  0  0  0
 12 15  1  0  0  0
  5  8  1  0  0  0
  5  2  2  0  0  0
  1  2  1  0  0  0
 14 18  1  0  0  0
 15 13  1  0  0  0
 13 18  1  0  0  0
 13 17  2  0  0  0
 15 19  1  0  0  0
M  END
> <minimizedAffinity>
-5.83488

$$$$
5U0G_7QY_A_302


 19 20  0  0  0  0  0  0  0  0999 V2000
   -3.7193    3.0630   15.3570 C   0  0  0  0  0  0  0  0  0  0  0  0
   -4.6220    2.6553   16.3054 C   0  0  0  0  0  0  0  0  0  0  0  0
   -6.0813    4.4417   15.7474 C   0  0  0  0  0  0  0  0  0  0  0  0
   -3.9672    4.1792   14.5848 C   0  0  0  0  0  0  0  0  0  0  0  0
   -5.8071    3.3310   16.5094 C   0  0  0  0  0  0  0  0  0  0  0  0
   -5.1508    4.8648   14.7890 C   0  0  0  0  0  0  0  0  0  0  0  0
   -7.2575    1.5344   17.1639 C   0  0  0  0  0  0  0  0  0  0  0  0
   -6.6532    2.7990   17.5041 O   0  0  0  0  0  0  0  0  0  0  0  0
   -6.7560    6.2862   13.7769 C   0  0  0  0  0  0  0  0  0  0  0  0
   -5.3630    5.9788   13.9886 O   0  0  0  0  0  0  0  0  0  0  0  0
   -2.8930    4.5604   13.5945 C   0  0  0  0  0  0  0  0  0  0  0  0
   -1.6878    3.6742   11.5636 C   0  0  0  0  0  0  0  0  0  0  0  0
   -3.1351    4.2997   10.0344 C   0  0  0  0  0  0  0  0  0  0  0  0
   -2.9273    3.5432   12.4216 C   0  0  0  0  0  0  0  0  0  0  0  0
   -1.8703    4.0683   10.2948 N   0  0  0  0  0  0  0  0  0  0  0  0
   -0.6048    3.4314   12.0519 O   0  0  0  0  0  0  0  0  0  0  0  0
   -3.5937    4.7565    9.0297 O   0  0  0  0  0  0  0  0  0  0  0  0
   -4.2650    3.8015   11.2378 S   0  0  0  0  0  0  0  0  0  0  0  0
   -1.1436    4.1714    9.6386 H   0  0  0  0  0  0  0  0  0  0  0  0
  9 10  1  0  0  0
 10  6  1  0  0  0
  6  3  2  0  0  0
  6  4  1  0  0  0
 16 12  2  0  0  0
 11  4  1  0  0  0
 11 14  1  0  0  0
  3  5  1  0  0  0
  4  1  2  0  0  0
  7  8  1  0  0  0
 12 14  1  0  0  0
 12 15  1  0  0  0
  5  8  1  0  0  0
  5  2  2  0  0  0
  1  2  1  0  0  0
 14 18  1  0  0  0
 15 13  1  0  0  0
 13 18  1  0  0  0
 13 17  2  0  0  0
 15 19  1  0  0  0
M  END
> <minimizedAffinity>
-5.74148

$$$$
