5Z7J_36J_A_301


 26 27  0  0  0  0  0  0  0  0999 V2000
   -7.9125    4.7476    5.7519 C   0  0  0  0  0  0  0  0  0  0  0  0
   -7.5500    3.2747    5.8846 C   0  0  0  0  0  0  0  0  0  0  0  0
   -8.6635    2.4143    6.4675 C   0  0  0  0  0  0  0  0  0  0  0  0
   -8.5830    0.9313    6.1601 C   0  0  0  0  0  0  0  0  0  0  0  0
   -7.1777    0.4403    5.9126 C   0  0  0  0  0  0  0  0  0  0  0  0
   -9.3740    0.7445    4.9322 O   0  0  0  0  0  0  0  0  0  0  0  0
   -9.6418   -0.5138    4.5584 C   0  0  0  0  0  0  0  0  0  0  0  0
   -9.7911   -1.4047    5.3514 O   0  0  0  0  0  0  0  0  0  0  0  0
   -9.7053   -0.7189    3.0937 C   0  0  0  0  0  0  0  0  0  0  0  0
   -9.4135   -2.0198    2.6209 C   0  0  0  0  0  0  0  0  0  0  0  0
   -9.1033   -3.0126    3.4826 O   0  0  0  0  0  0  0  0  0  0  0  0
   -9.4400   -2.3111    1.2710 C   0  0  0  0  0  0  0  0  0  0  0  0
   -9.7621   -1.3180    0.3594 C   0  0  0  0  0  0  0  0  0  0  0  0
   -9.7885   -1.5971   -0.9725 O   0  0  0  0  0  0  0  0  0  0  0  0
  -10.0549   -0.0308    0.7883 C   0  0  0  0  0  0  0  0  0  0  0  0
  -10.0359    0.2895    2.1446 C   0  0  0  0  0  0  0  0  0  0  0  0
  -10.3528    1.6719    2.5265 C   0  0  0  0  0  0  0  0  0  0  0  0
  -10.8781    2.5934    1.7424 C   0  0  0  0  0  0  0  0  0  0  0  0
  -11.3485    3.9425    2.1790 C   0  0  0  0  0  0  0  0  0  0  0  0
  -10.2215    4.8723    2.6023 C   0  0  0  0  0  0  0  0  0  0  0  0
   -9.7699    4.6416    4.0352 C   0  0  0  0  0  0  0  0  0  0  0  0
   -8.3931    5.1748    4.3728 C   0  0  0  0  0  0  0  0  0  0  0  0
   -8.3985    6.6086    4.2775 O   0  0  0  0  0  0  0  0  0  0  0  0
   -8.9116   -3.8708    3.1591 H   0  0  0  0  0  0  0  0  0  0  0  0
   -9.5926   -2.4624   -1.2739 H   0  0  0  0  0  0  0  0  0  0  0  0
   -9.0229    6.9733    4.9241 H   0  0  0  0  0  0  0  0  0  0  0  0
 14 13  1  0  0  0
 13 12  2  0  0  0
 13 15  1  0  0  0
 12 10  1  0  0  0
 15 16  2  0  0  0
 10 11  1  0  0  0
 10  9  2  0  0  0
 16  9  1  0  0  0
 16 17  1  0  0  0
  9  7  1  0  0  0
 17 18  2  0  0  0
 18 19  1  0  0  0
  7  8  2  0  0  0
  7  6  1  0  0  0
 19 20  1  0  0  0
  6  4  1  0  0  0
 20 21  1  0  0  0
  5  4  1  0  0  0
  4  3  1  0  0  0
 21 22  1  0  0  0
  3  2  1  0  0  0
 22 23  1  0  0  0
 22  1  1  0  0  0
  2  1  1  0  0  0
 11 24  1  0  0  0
 14 25  1  0  0  0
 23 26  1  0  0  0
M  END
> <minimizedAffinity>
-11.61015

$$$$
5Z7J_36J_A_301


 26 27  0  0  0  0  0  0  0  0999 V2000
   -8.8650   -1.0893    5.4298 C   0  0  0  0  0  0  0  0  0  0  0  0
   -9.0075    0.4155    5.6126 C   0  0  0  0  0  0  0  0  0  0  0  0
   -7.9085    1.2268    4.9389 C   0  0  0  0  0  0  0  0  0  0  0  0
   -8.2447    2.6751    4.6394 C   0  0  0  0  0  0  0  0  0  0  0  0
   -9.2771    3.2614    5.5709 C   0  0  0  0  0  0  0  0  0  0  0  0
   -8.7869    2.6741    3.2704 O   0  0  0  0  0  0  0  0  0  0  0  0
   -8.9684    3.8627    2.6797 C   0  0  0  0  0  0  0  0  0  0  0  0
   -8.2608    4.8086    2.9021 O   0  0  0  0  0  0  0  0  0  0  0  0
  -10.1271    3.9211    1.7603 C   0  0  0  0  0  0  0  0  0  0  0  0
  -10.7158    5.1915    1.5596 C   0  0  0  0  0  0  0  0  0  0  0  0
  -10.2227    6.2852    2.1801 O   0  0  0  0  0  0  0  0  0  0  0  0
  -11.8051    5.3495    0.7252 C   0  0  0  0  0  0  0  0  0  0  0  0
  -12.3318    4.2497    0.0663 C   0  0  0  0  0  0  0  0  0  0  0  0
  -13.4062    4.3972   -0.7562 O   0  0  0  0  0  0  0  0  0  0  0  0
  -11.7786    2.9885    0.2392 C   0  0  0  0  0  0  0  0  0  0  0  0
  -10.6789    2.8017    1.0750 C   0  0  0  0  0  0  0  0  0  0  0  0
  -10.1472    1.4396    1.2134 C   0  0  0  0  0  0  0  0  0  0  0  0
  -10.4540    0.4052    0.4546 C   0  0  0  0  0  0  0  0  0  0  0  0
   -9.7894   -0.9322    0.4962 C   0  0  0  0  0  0  0  0  0  0  0  0
  -10.0767   -1.7152    1.7683 C   0  0  0  0  0  0  0  0  0  0  0  0
   -9.1815   -1.3104    2.9280 C   0  0  0  0  0  0  0  0  0  0  0  0
   -9.6945   -1.6864    4.3025 C   0  0  0  0  0  0  0  0  0  0  0  0
   -9.7305   -3.1177    4.4249 O   0  0  0  0  0  0  0  0  0  0  0  0
  -10.6201    7.1222    2.0404 H   0  0  0  0  0  0  0  0  0  0  0  0
  -13.7882    5.2437   -0.8807 H   0  0  0  0  0  0  0  0  0  0  0  0
   -8.8318   -3.4724    4.3381 H   0  0  0  0  0  0  0  0  0  0  0  0
 14 13  1  0  0  0
 13 12  2  0  0  0
 13 15  1  0  0  0
 12 10  1  0  0  0
 15 16  2  0  0  0
 10 11  1  0  0  0
 10  9  2  0  0  0
 16  9  1  0  0  0
 16 17  1  0  0  0
  9  7  1  0  0  0
 17 18  2  0  0  0
 18 19  1  0  0  0
  7  8  2  0  0  0
  7  6  1  0  0  0
 19 20  1  0  0  0
  6  4  1  0  0  0
 20 21  1  0  0  0
  5  4  1  0  0  0
  4  3  1  0  0  0
 21 22  1  0  0  0
  3  2  1  0  0  0
 22 23  1  0  0  0
 22  1  1  0  0  0
  2  1  1  0  0  0
 11 24  1  0  0  0
 14 25  1  0  0  0
 23 26  1  0  0  0
M  END
> <minimizedAffinity>
-9.23278

$$$$
