5YHE_8UX_A_604


 29 29  0  0  0  0  0  0  0  0999 V2000
   14.8768   22.8538   23.4206 C   0  0  0  0  0  0  0  0  0  0  0  0
   13.5004   23.1029   23.8656 N   0  0  0  0  0  0  0  0  0  0  0  0
   12.8592   22.9715   23.0832 H   0  0  0  0  0  0  0  0  0  0  0  0
   13.3976   24.4973   24.3643 C   0  0  0  0  0  0  0  0  0  0  0  0
   13.3732   25.5486   23.2085 C   0  0  0  0  0  0  0  0  0  0  0  0
   13.0170   25.1230   22.0859 O   0  0  0  0  0  0  0  0  0  0  0  0
   13.7318   26.7378   23.4433 O   0  0  0  0  0  0  0  0  0  0  0  0
   12.7631   24.2268   21.9836 H   0  0  0  0  0  0  0  0  0  0  0  0
   12.1370   24.6612   25.2219 C   0  0  0  0  0  0  0  0  0  0  0  0
   10.8919   24.0079   24.5962 C   0  0  0  0  0  0  0  0  0  0  0  0
    9.9928   23.3103   25.2912 C   0  0  0  0  0  0  0  0  0  0  0  0
    9.0621   22.9007   24.4270 N   0  0  0  0  0  0  0  0  0  0  0  0
    9.4031   23.3368   23.2126 C   0  0  0  0  0  0  0  0  0  0  0  0
   10.5452   24.0243   23.3087 N   0  0  0  0  0  0  0  0  0  0  0  0
    8.2631   22.3694   24.6470 H   0  0  0  0  0  0  0  0  0  0  0  0
   15.1762   21.4506   22.8715 C   0  0  0  0  0  0  0  0  0  0  0  0
   14.1707   21.0973   21.7341 C   0  0  0  0  0  0  0  0  0  0  0  0
   13.0081   20.2147   22.2135 C   0  0  0  0  0  0  0  0  0  0  0  0
   13.1664   18.9771   22.2986 O   0  0  0  0  0  0  0  0  0  0  0  0
   11.9473   20.8419   22.4284 O   0  0  0  0  0  0  0  0  0  0  0  0
   14.0040   18.5983   22.1170 H   0  0  0  0  0  0  0  0  0  0  0  0
   13.8902   22.3208   20.9248 N   0  0  0  0  0  0  0  0  0  0  0  0
   14.7742   22.8280   20.8832 H   0  0  0  0  0  0  0  0  0  0  0  0
   13.3678   22.3210   19.5349 C   0  0  0  0  0  0  0  0  0  0  0  0
   13.2407   20.8786   19.0389 C   0  0  0  0  0  0  0  0  0  0  0  0
   11.7793   24.1223   19.7558 O   0  0  0  0  0  0  0  0  0  0  0  0
   12.0044   22.9653   19.3068 C   0  0  0  0  0  0  0  0  0  0  0  0
   11.2714   22.3261   18.5302 O   0  0  0  0  0  0  0  0  0  0  0  0
   12.3919   24.5261   20.3386 H   0  0  0  0  0  0  0  0  0  0  0  0
 11 12  1  0  0  0
 11 10  2  0  0  0
  9 10  1  0  0  0
  9  4  1  0  0  0
 12 13  1  0  0  0
 10 14  1  0  0  0
  4  2  1  0  0  0
  4  5  1  0  0  0
 13 14  2  0  0  0
  2  1  1  0  0  0
  7  5  2  0  0  0
  5  6  1  0  0  0
  1 16  1  0  0  0
 20 18  2  0  0  0
 16 17  1  0  0  0
 19 18  1  0  0  0
 18 17  1  0  0  0
 17 22  1  0  0  0
 28 27  2  0  0  0
 22 24  1  0  0  0
 27 24  1  0  0  0
 27 26  1  0  0  0
 24 25  1  0  0  0
 26 29  1  0  0  0
 22 23  1  0  0  0
 19 21  1  0  0  0
  2  3  1  0  0  0
  6  8  1  0  0  0
 12 15  1  0  0  0
M  END
> <minimizedAffinity>
-8.04238

$$$$
5YHE_8UX_A_604


 29 29  0  0  0  0  0  0  0  0999 V2000
   14.7162   22.4809   23.4042 C   0  0  0  0  0  0  0  0  0  0  0  0
   14.2844   22.3812   22.0048 N   0  0  0  0  0  0  0  0  0  0  0  0
   13.3033   22.6500   21.9298 H   0  0  0  0  0  0  0  0  0  0  0  0
   14.4527   20.9799   21.5448 C   0  0  0  0  0  0  0  0  0  0  0  0
   13.5294   19.9802   22.3129 C   0  0  0  0  0  0  0  0  0  0  0  0
   12.4013   20.4145   22.6399 O   0  0  0  0  0  0  0  0  0  0  0  0
   13.9596   18.8239   22.5882 O   0  0  0  0  0  0  0  0  0  0  0  0
   12.1471   21.2844   22.4019 H   0  0  0  0  0  0  0  0  0  0  0  0
   14.1663   20.8780   20.0418 C   0  0  0  0  0  0  0  0  0  0  0  0
   12.9764   21.7452   19.5938 C   0  0  0  0  0  0  0  0  0  0  0  0
   13.0283   22.6060   18.5767 C   0  0  0  0  0  0  0  0  0  0  0  0
   11.8239   23.1725   18.4816 N   0  0  0  0  0  0  0  0  0  0  0  0
   11.0505   22.6671   19.4448 C   0  0  0  0  0  0  0  0  0  0  0  0
   11.7629   21.7797   20.1456 N   0  0  0  0  0  0  0  0  0  0  0  0
   11.5529   23.8460   17.8166 H   0  0  0  0  0  0  0  0  0  0  0  0
   14.6974   23.8842   24.0288 C   0  0  0  0  0  0  0  0  0  0  0  0
   13.2320   24.4071   24.1218 C   0  0  0  0  0  0  0  0  0  0  0  0
   12.9925   25.6739   23.2861 C   0  0  0  0  0  0  0  0  0  0  0  0
   12.1116   25.6710   22.3985 O   0  0  0  0  0  0  0  0  0  0  0  0
   13.7770   26.6124   23.5476 O   0  0  0  0  0  0  0  0  0  0  0  0
   11.5699   24.9159   22.2785 H   0  0  0  0  0  0  0  0  0  0  0  0
   12.2883   23.2547   24.0118 N   0  0  0  0  0  0  0  0  0  0  0  0
   12.7985   22.4497   24.3751 H   0  0  0  0  0  0  0  0  0  0  0  0
   10.9458   23.1904   24.6430 C   0  0  0  0  0  0  0  0  0  0  0  0
   10.8113   24.3183   25.6688 C   0  0  0  0  0  0  0  0  0  0  0  0
    8.6058   22.9316   24.1187 O   0  0  0  0  0  0  0  0  0  0  0  0
    9.7387   23.3166   23.7193 C   0  0  0  0  0  0  0  0  0  0  0  0
    9.9682   23.9608   22.6794 O   0  0  0  0  0  0  0  0  0  0  0  0
    8.5300   22.4495   24.9185 H   0  0  0  0  0  0  0  0  0  0  0  0
 11 12  1  0  0  0
 11 10  2  0  0  0
  9 10  1  0  0  0
  9  4  1  0  0  0
 12 13  1  0  0  0
 10 14  1  0  0  0
  4  2  1  0  0  0
  4  5  1  0  0  0
 13 14  2  0  0  0
  2  1  1  0  0  0
  7  5  2  0  0  0
  5  6  1  0  0  0
  1 16  1  0  0  0
 20 18  2  0  0  0
 16 17  1  0  0  0
 19 18  1  0  0  0
 18 17  1  0  0  0
 17 22  1  0  0  0
 28 27  2  0  0  0
 22 24  1  0  0  0
 27 24  1  0  0  0
 27 26  1  0  0  0
 24 25  1  0  0  0
 26 29  1  0  0  0
 22 23  1  0  0  0
 19 21  1  0  0  0
  2  3  1  0  0  0
  6  8  1  0  0  0
 12 15  1  0  0  0
M  END
> <minimizedAffinity>
-7.76151

$$$$
5YHE_8UX_A_604


 29 29  0  0  0  0  0  0  0  0999 V2000
    9.5930   23.7781   22.0815 C   0  0  0  0  0  0  0  0  0  0  0  0
    9.8237   22.8501   23.1952 N   0  0  0  0  0  0  0  0  0  0  0  0
    9.1864   22.0575   23.1173 H   0  0  0  0  0  0  0  0  0  0  0  0
    9.5800   23.5604   24.4757 C   0  0  0  0  0  0  0  0  0  0  0  0
    8.3262   23.0183   25.2344 C   0  0  0  0  0  0  0  0  0  0  0  0
    8.1638   21.7768   25.2107 O   0  0  0  0  0  0  0  0  0  0  0  0
    7.5393   23.8333   25.7953 O   0  0  0  0  0  0  0  0  0  0  0  0
    8.7886   21.2308   24.7754 H   0  0  0  0  0  0  0  0  0  0  0  0
   10.8086   23.4470   25.3861 C   0  0  0  0  0  0  0  0  0  0  0  0
   12.0006   24.2901   24.8994 C   0  0  0  0  0  0  0  0  0  0  0  0
   13.1851   23.7759   24.5666 C   0  0  0  0  0  0  0  0  0  0  0  0
   13.9637   24.7942   24.1959 N   0  0  0  0  0  0  0  0  0  0  0  0
   13.2584   25.9209   24.3165 C   0  0  0  0  0  0  0  0  0  0  0  0
   12.0347   25.6157   24.7588 N   0  0  0  0  0  0  0  0  0  0  0  0
   14.8961   24.7263   23.8872 H   0  0  0  0  0  0  0  0  0  0  0  0
    9.3674   23.1469   20.6991 C   0  0  0  0  0  0  0  0  0  0  0  0
   10.1220   23.9665   19.6090 C   0  0  0  0  0  0  0  0  0  0  0  0
   11.4787   23.3537   19.2292 C   0  0  0  0  0  0  0  0  0  0  0  0
   12.5342   23.9081   19.6062 O   0  0  0  0  0  0  0  0  0  0  0  0
   11.3940   22.3432   18.4968 O   0  0  0  0  0  0  0  0  0  0  0  0
   12.4949   24.6650   20.1573 H   0  0  0  0  0  0  0  0  0  0  0  0
    9.1610   24.3663   18.5379 N   0  0  0  0  0  0  0  0  0  0  0  0
    8.4001   23.6889   18.5885 H   0  0  0  0  0  0  0  0  0  0  0  0
    8.5033   25.6937   18.4363 C   0  0  0  0  0  0  0  0  0  0  0  0
    7.1731   25.6617   19.1926 C   0  0  0  0  0  0  0  0  0  0  0  0
    9.7114   27.7669   18.1926 O   0  0  0  0  0  0  0  0  0  0  0  0
    9.2705   26.8915   18.9866 C   0  0  0  0  0  0  0  0  0  0  0  0
    9.2471   26.9746   20.2282 O   0  0  0  0  0  0  0  0  0  0  0  0
    9.6878   27.6156   17.2682 H   0  0  0  0  0  0  0  0  0  0  0  0
 11 12  1  0  0  0
 11 10  2  0  0  0
  9 10  1  0  0  0
  9  4  1  0  0  0
 12 13  1  0  0  0
 10 14  1  0  0  0
  4  2  1  0  0  0
  4  5  1  0  0  0
 13 14  2  0  0  0
  2  1  1  0  0  0
  7  5  2  0  0  0
  5  6  1  0  0  0
  1 16  1  0  0  0
 20 18  2  0  0  0
 16 17  1  0  0  0
 19 18  1  0  0  0
 18 17  1  0  0  0
 17 22  1  0  0  0
 28 27  2  0  0  0
 22 24  1  0  0  0
 27 24  1  0  0  0
 27 26  1  0  0  0
 24 25  1  0  0  0
 26 29  1  0  0  0
 22 23  1  0  0  0
 19 21  1  0  0  0
  2  3  1  0  0  0
  6  8  1  0  0  0
 12 15  1  0  0  0
M  END
> <minimizedAffinity>
-7.32740

$$$$
5YHE_8UX_A_604


 29 29  0  0  0  0  0  0  0  0999 V2000
   14.8193   22.6019   23.2518 C   0  0  0  0  0  0  0  0  0  0  0  0
   14.2718   22.4146   21.9028 N   0  0  0  0  0  0  0  0  0  0  0  0
   13.2771   22.6401   21.9032 H   0  0  0  0  0  0  0  0  0  0  0  0
   14.4610   20.9997   21.4957 C   0  0  0  0  0  0  0  0  0  0  0  0
   13.6168   20.0079   22.3590 C   0  0  0  0  0  0  0  0  0  0  0  0
   14.1408   18.8934   22.5858 O   0  0  0  0  0  0  0  0  0  0  0  0
   12.4658   20.3520   22.7525 O   0  0  0  0  0  0  0  0  0  0  0  0
   15.0001   18.7053   22.2629 H   0  0  0  0  0  0  0  0  0  0  0  0
   14.0938   20.8204   20.0177 C   0  0  0  0  0  0  0  0  0  0  0  0
   12.9330   21.7262   19.5699 C   0  0  0  0  0  0  0  0  0  0  0  0
   13.0081   22.5741   18.5435 C   0  0  0  0  0  0  0  0  0  0  0  0
   11.8246   23.1836   18.4517 N   0  0  0  0  0  0  0  0  0  0  0  0
   11.0410   22.7169   19.4262 C   0  0  0  0  0  0  0  0  0  0  0  0
   11.7261   21.8110   20.1307 N   0  0  0  0  0  0  0  0  0  0  0  0
   11.5731   23.8598   17.7818 H   0  0  0  0  0  0  0  0  0  0  0  0
   13.8878   23.2539   24.2849 C   0  0  0  0  0  0  0  0  0  0  0  0
   13.6030   24.7338   23.8873 C   0  0  0  0  0  0  0  0  0  0  0  0
   12.1655   24.9564   23.3927 C   0  0  0  0  0  0  0  0  0  0  0  0
   11.2076   24.4911   24.0483 O   0  0  0  0  0  0  0  0  0  0  0  0
   12.0906   25.5613   22.3003 O   0  0  0  0  0  0  0  0  0  0  0  0
   11.3655   24.0518   24.8607 H   0  0  0  0  0  0  0  0  0  0  0  0
   14.1827   25.6434   24.9203 N   0  0  0  0  0  0  0  0  0  0  0  0
   15.0857   25.9373   24.5479 H   0  0  0  0  0  0  0  0  0  0  0  0
   13.5381   26.8839   25.4207 C   0  0  0  0  0  0  0  0  0  0  0  0
   14.2457   27.3460   26.6967 C   0  0  0  0  0  0  0  0  0  0  0  0
   14.6098   28.4688   23.9520 O   0  0  0  0  0  0  0  0  0  0  0  0
   13.5316   28.0880   24.4846 C   0  0  0  0  0  0  0  0  0  0  0  0
   12.3906   28.4954   24.1997 O   0  0  0  0  0  0  0  0  0  0  0  0
   15.4257   28.1036   24.2330 H   0  0  0  0  0  0  0  0  0  0  0  0
 11 12  1  0  0  0
 11 10  2  0  0  0
  9 10  1  0  0  0
  9  4  1  0  0  0
 12 13  1  0  0  0
 10 14  1  0  0  0
  4  2  1  0  0  0
  4  5  1  0  0  0
 13 14  2  0  0  0
  2  1  1  0  0  0
  7  5  2  0  0  0
  5  6  1  0  0  0
  1 16  1  0  0  0
 20 18  2  0  0  0
 16 17  1  0  0  0
 19 18  1  0  0  0
 18 17  1  0  0  0
 17 22  1  0  0  0
 28 27  2  0  0  0
 22 24  1  0  0  0
 27 24  1  0  0  0
 27 26  1  0  0  0
 24 25  1  0  0  0
 26 29  1  0  0  0
 22 23  1  0  0  0
 19 21  1  0  0  0
  2  3  1  0  0  0
  6  8  1  0  0  0
 12 15  1  0  0  0
M  END
> <minimizedAffinity>
-7.26577

$$$$
5YHE_8UX_A_604


 29 29  0  0  0  0  0  0  0  0999 V2000
   11.0311   24.2949   25.6687 C   0  0  0  0  0  0  0  0  0  0  0  0
   11.6008   25.5640   25.2001 N   0  0  0  0  0  0  0  0  0  0  0  0
   11.0651   25.9051   24.4019 H   0  0  0  0  0  0  0  0  0  0  0  0
   13.0111   25.3411   24.7941 C   0  0  0  0  0  0  0  0  0  0  0  0
   13.1716   25.1681   23.2494 C   0  0  0  0  0  0  0  0  0  0  0  0
   12.3535   25.7952   22.5383 O   0  0  0  0  0  0  0  0  0  0  0  0
   14.0724   24.4032   22.8006 O   0  0  0  0  0  0  0  0  0  0  0  0
   11.7103   26.3463   22.9391 H   0  0  0  0  0  0  0  0  0  0  0  0
   13.8882   26.5075   25.2649 C   0  0  0  0  0  0  0  0  0  0  0  0
   13.1271   27.8430   25.3406 C   0  0  0  0  0  0  0  0  0  0  0  0
   13.1966   28.6778   26.3781 C   0  0  0  0  0  0  0  0  0  0  0  0
   12.4142   29.7208   26.0945 N   0  0  0  0  0  0  0  0  0  0  0  0
   11.8630   29.5123   24.8969 C   0  0  0  0  0  0  0  0  0  0  0  0
   12.2989   28.3415   24.4220 N   0  0  0  0  0  0  0  0  0  0  0  0
   12.2687   30.5072   26.6686 H   0  0  0  0  0  0  0  0  0  0  0  0
   11.1030   23.1100   24.6935 C   0  0  0  0  0  0  0  0  0  0  0  0
    9.7525   22.9660   23.9288 C   0  0  0  0  0  0  0  0  0  0  0  0
    8.5524   22.7550   24.8645 C   0  0  0  0  0  0  0  0  0  0  0  0
    8.5069   21.7383   25.5913 O   0  0  0  0  0  0  0  0  0  0  0  0
    7.6669   23.6328   24.7631 O   0  0  0  0  0  0  0  0  0  0  0  0
    9.2241   21.1354   25.5988 H   0  0  0  0  0  0  0  0  0  0  0  0
    9.6824   23.9977   22.8512 N   0  0  0  0  0  0  0  0  0  0  0  0
   10.5766   24.4873   22.8848 H   0  0  0  0  0  0  0  0  0  0  0  0
    9.4407   23.7128   21.4141 C   0  0  0  0  0  0  0  0  0  0  0  0
    7.9448   23.8368   21.1153 C   0  0  0  0  0  0  0  0  0  0  0  0
    9.5961   25.6793   20.0263 O   0  0  0  0  0  0  0  0  0  0  0  0
   10.1469   24.6083   20.4015 C   0  0  0  0  0  0  0  0  0  0  0  0
   11.3166   24.2616   20.1555 O   0  0  0  0  0  0  0  0  0  0  0  0
    8.7062   25.8556   20.2608 H   0  0  0  0  0  0  0  0  0  0  0  0
 11 12  1  0  0  0
 11 10  2  0  0  0
  9 10  1  0  0  0
  9  4  1  0  0  0
 12 13  1  0  0  0
 10 14  1  0  0  0
  4  2  1  0  0  0
  4  5  1  0  0  0
 13 14  2  0  0  0
  2  1  1  0  0  0
  7  5  2  0  0  0
  5  6  1  0  0  0
  1 16  1  0  0  0
 20 18  2  0  0  0
 16 17  1  0  0  0
 19 18  1  0  0  0
 18 17  1  0  0  0
 17 22  1  0  0  0
 28 27  2  0  0  0
 22 24  1  0  0  0
 27 24  1  0  0  0
 27 26  1  0  0  0
 24 25  1  0  0  0
 26 29  1  0  0  0
 22 23  1  0  0  0
 19 21  1  0  0  0
  2  3  1  0  0  0
  6  8  1  0  0  0
 12 15  1  0  0  0
M  END
> <minimizedAffinity>
-7.15443

$$$$
5YHE_8UX_A_604


 29 29  0  0  0  0  0  0  0  0999 V2000
   15.0354   22.8552   23.3332 C   0  0  0  0  0  0  0  0  0  0  0  0
   13.9454   23.3040   24.2079 N   0  0  0  0  0  0  0  0  0  0  0  0
   13.0920   22.7938   23.9798 H   0  0  0  0  0  0  0  0  0  0  0  0
   13.7261   24.7576   24.0015 C   0  0  0  0  0  0  0  0  0  0  0  0
   12.7094   25.0548   22.8527 C   0  0  0  0  0  0  0  0  0  0  0  0
   11.4978   25.0110   23.1662 O   0  0  0  0  0  0  0  0  0  0  0  0
   13.1402   25.2890   21.6876 O   0  0  0  0  0  0  0  0  0  0  0  0
   11.2491   24.8317   24.0517 H   0  0  0  0  0  0  0  0  0  0  0  0
   13.2266   25.4069   25.2977 C   0  0  0  0  0  0  0  0  0  0  0  0
   13.4440   26.9301   25.3327 C   0  0  0  0  0  0  0  0  0  0  0  0
   14.5598   27.5291   24.9152 C   0  0  0  0  0  0  0  0  0  0  0  0
   14.3905   28.8405   25.0940 N   0  0  0  0  0  0  0  0  0  0  0  0
   13.1834   29.0337   25.6297 C   0  0  0  0  0  0  0  0  0  0  0  0
   12.5885   27.8471   25.7859 N   0  0  0  0  0  0  0  0  0  0  0  0
   15.0425   29.5433   24.8698 H   0  0  0  0  0  0  0  0  0  0  0  0
   15.1178   21.3457   23.0603 C   0  0  0  0  0  0  0  0  0  0  0  0
   14.1812   20.9664   21.8735 C   0  0  0  0  0  0  0  0  0  0  0  0
   13.0178   20.0554   22.2944 C   0  0  0  0  0  0  0  0  0  0  0  0
   13.1834   18.8163   22.3252 O   0  0  0  0  0  0  0  0  0  0  0  0
   11.9497   20.6655   22.5218 O   0  0  0  0  0  0  0  0  0  0  0  0
   14.0262   18.4515   22.1390 H   0  0  0  0  0  0  0  0  0  0  0  0
   13.9124   22.1818   21.0482 N   0  0  0  0  0  0  0  0  0  0  0  0
   14.7754   22.7248   21.0746 H   0  0  0  0  0  0  0  0  0  0  0  0
   13.4965   22.1682   19.6229 C   0  0  0  0  0  0  0  0  0  0  0  0
   13.3816   20.7204   19.1402 C   0  0  0  0  0  0  0  0  0  0  0  0
   11.9722   24.0372   19.5978 O   0  0  0  0  0  0  0  0  0  0  0  0
   12.1658   22.8313   19.2826 C   0  0  0  0  0  0  0  0  0  0  0  0
   11.4316   22.1379   18.5552 O   0  0  0  0  0  0  0  0  0  0  0  0
   12.5827   24.4800   20.1538 H   0  0  0  0  0  0  0  0  0  0  0  0
 11 12  1  0  0  0
 11 10  2  0  0  0
  9 10  1  0  0  0
  9  4  1  0  0  0
 12 13  1  0  0  0
 10 14  1  0  0  0
  4  2  1  0  0  0
  4  5  1  0  0  0
 13 14  2  0  0  0
  2  1  1  0  0  0
  7  5  2  0  0  0
  5  6  1  0  0  0
  1 16  1  0  0  0
 20 18  2  0  0  0
 16 17  1  0  0  0
 19 18  1  0  0  0
 18 17  1  0  0  0
 17 22  1  0  0  0
 28 27  2  0  0  0
 22 24  1  0  0  0
 27 24  1  0  0  0
 27 26  1  0  0  0
 24 25  1  0  0  0
 26 29  1  0  0  0
 22 23  1  0  0  0
 19 21  1  0  0  0
  2  3  1  0  0  0
  6  8  1  0  0  0
 12 15  1  0  0  0
M  END
> <minimizedAffinity>
-7.08115

$$$$
5YHE_8UX_A_604


 29 29  0  0  0  0  0  0  0  0999 V2000
   11.4551   23.5767   25.2533 C   0  0  0  0  0  0  0  0  0  0  0  0
   12.8524   24.0213   25.3203 N   0  0  0  0  0  0  0  0  0  0  0  0
   12.9039   24.9137   25.8117 H   0  0  0  0  0  0  0  0  0  0  0  0
   13.3759   24.1823   23.9406 C   0  0  0  0  0  0  0  0  0  0  0  0
   13.5972   25.6797   23.5527 C   0  0  0  0  0  0  0  0  0  0  0  0
   14.1067   26.4067   24.4359 O   0  0  0  0  0  0  0  0  0  0  0  0
   13.2356   26.0854   22.4113 O   0  0  0  0  0  0  0  0  0  0  0  0
   14.3519   26.0384   25.2619 H   0  0  0  0  0  0  0  0  0  0  0  0
   14.6972   23.4200   23.7835 C   0  0  0  0  0  0  0  0  0  0  0  0
   14.5715   22.1714   22.8926 C   0  0  0  0  0  0  0  0  0  0  0  0
   14.7455   20.9253   23.3345 C   0  0  0  0  0  0  0  0  0  0  0  0
   14.5596   20.1114   22.2936 N   0  0  0  0  0  0  0  0  0  0  0  0
   14.2876   20.8616   21.2237 C   0  0  0  0  0  0  0  0  0  0  0  0
   14.2975   22.1475   21.5878 N   0  0  0  0  0  0  0  0  0  0  0  0
   14.6136   19.1285   22.3116 H   0  0  0  0  0  0  0  0  0  0  0  0
   10.6387   24.0616   24.0457 C   0  0  0  0  0  0  0  0  0  0  0  0
    9.4239   23.1144   23.8080 C   0  0  0  0  0  0  0  0  0  0  0  0
    8.6195   22.8373   25.0872 C   0  0  0  0  0  0  0  0  0  0  0  0
    8.3925   21.6565   25.4307 O   0  0  0  0  0  0  0  0  0  0  0  0
    8.2004   23.8681   25.6587 O   0  0  0  0  0  0  0  0  0  0  0  0
    8.7529   20.9471   24.9358 H   0  0  0  0  0  0  0  0  0  0  0  0
    8.7154   23.5236   22.5585 N   0  0  0  0  0  0  0  0  0  0  0  0
    8.3746   24.4684   22.7361 H   0  0  0  0  0  0  0  0  0  0  0  0
    9.3305   23.5718   21.2079 C   0  0  0  0  0  0  0  0  0  0  0  0
    8.2279   23.5758   20.1464 C   0  0  0  0  0  0  0  0  0  0  0  0
   11.4123   24.5817   20.5271 O   0  0  0  0  0  0  0  0  0  0  0  0
   10.2201   24.7701   20.8937 C   0  0  0  0  0  0  0  0  0  0  0  0
    9.6111   25.8553   20.8739 O   0  0  0  0  0  0  0  0  0  0  0  0
   11.7884   23.7250   20.5784 H   0  0  0  0  0  0  0  0  0  0  0  0
 11 12  1  0  0  0
 11 10  2  0  0  0
  9 10  1  0  0  0
  9  4  1  0  0  0
 12 13  1  0  0  0
 10 14  1  0  0  0
  4  2  1  0  0  0
  4  5  1  0  0  0
 13 14  2  0  0  0
  2  1  1  0  0  0
  7  5  2  0  0  0
  5  6  1  0  0  0
  1 16  1  0  0  0
 20 18  2  0  0  0
 16 17  1  0  0  0
 19 18  1  0  0  0
 18 17  1  0  0  0
 17 22  1  0  0  0
 28 27  2  0  0  0
 22 24  1  0  0  0
 27 24  1  0  0  0
 27 26  1  0  0  0
 24 25  1  0  0  0
 26 29  1  0  0  0
 22 23  1  0  0  0
 19 21  1  0  0  0
  2  3  1  0  0  0
  6  8  1  0  0  0
 12 15  1  0  0  0
M  END
> <minimizedAffinity>
-6.71349

$$$$
5YHE_8UX_A_604


 29 29  0  0  0  0  0  0  0  0999 V2000
   11.6332   23.5962   24.5902 C   0  0  0  0  0  0  0  0  0  0  0  0
   10.5232   24.1460   23.8025 N   0  0  0  0  0  0  0  0  0  0  0  0
   10.1346   24.9590   24.2805 H   0  0  0  0  0  0  0  0  0  0  0  0
    9.4734   23.1071   23.6543 C   0  0  0  0  0  0  0  0  0  0  0  0
    8.6141   22.9324   24.9478 C   0  0  0  0  0  0  0  0  0  0  0  0
    8.2414   21.7651   25.2064 O   0  0  0  0  0  0  0  0  0  0  0  0
    8.3170   23.9490   25.6378 O   0  0  0  0  0  0  0  0  0  0  0  0
    8.4998   21.0567   24.6501 H   0  0  0  0  0  0  0  0  0  0  0  0
    8.5509   23.4505   22.4786 C   0  0  0  0  0  0  0  0  0  0  0  0
    9.3143   23.7053   21.1667 C   0  0  0  0  0  0  0  0  0  0  0  0
    9.0664   24.7319   20.3526 C   0  0  0  0  0  0  0  0  0  0  0  0
    9.9136   24.6311   19.3265 N   0  0  0  0  0  0  0  0  0  0  0  0
   10.6616   23.5414   19.5117 C   0  0  0  0  0  0  0  0  0  0  0  0
   10.2912   22.9559   20.6546 N   0  0  0  0  0  0  0  0  0  0  0  0
    9.9760   25.2525   18.5654 H   0  0  0  0  0  0  0  0  0  0  0  0
   12.2732   24.5372   25.6221 C   0  0  0  0  0  0  0  0  0  0  0  0
   13.1199   25.6269   24.8974 C   0  0  0  0  0  0  0  0  0  0  0  0
   13.7835   25.1138   23.6103 C   0  0  0  0  0  0  0  0  0  0  0  0
   14.6124   24.1796   23.6727 O   0  0  0  0  0  0  0  0  0  0  0  0
   13.4583   25.7476   22.5820 O   0  0  0  0  0  0  0  0  0  0  0  0
   14.7898   23.7647   24.4939 H   0  0  0  0  0  0  0  0  0  0  0  0
   12.3601   26.9126   24.8803 N   0  0  0  0  0  0  0  0  0  0  0  0
   11.4498   26.6960   25.2864 H   0  0  0  0  0  0  0  0  0  0  0  0
   12.7984   28.1693   25.5386 C   0  0  0  0  0  0  0  0  0  0  0  0
   14.2775   28.4156   25.2315 C   0  0  0  0  0  0  0  0  0  0  0  0
   12.1658   30.4721   25.8763 O   0  0  0  0  0  0  0  0  0  0  0  0
   12.0689   29.4493   25.1445 C   0  0  0  0  0  0  0  0  0  0  0  0
   11.5588   29.4067   24.0100 O   0  0  0  0  0  0  0  0  0  0  0  0
   12.5677   30.4079   26.7203 H   0  0  0  0  0  0  0  0  0  0  0  0
 11 12  1  0  0  0
 11 10  2  0  0  0
  9 10  1  0  0  0
  9  4  1  0  0  0
 12 13  1  0  0  0
 10 14  1  0  0  0
  4  2  1  0  0  0
  4  5  1  0  0  0
 13 14  2  0  0  0
  2  1  1  0  0  0
  7  5  2  0  0  0
  5  6  1  0  0  0
  1 16  1  0  0  0
 20 18  2  0  0  0
 16 17  1  0  0  0
 19 18  1  0  0  0
 18 17  1  0  0  0
 17 22  1  0  0  0
 28 27  2  0  0  0
 22 24  1  0  0  0
 27 24  1  0  0  0
 27 26  1  0  0  0
 24 25  1  0  0  0
 26 29  1  0  0  0
 22 23  1  0  0  0
 19 21  1  0  0  0
  2  3  1  0  0  0
  6  8  1  0  0  0
 12 15  1  0  0  0
M  END
> <minimizedAffinity>
-6.49841

$$$$
5YHE_8UX_A_604


 29 29  0  0  0  0  0  0  0  0999 V2000
   11.0881   22.9491   19.0509 C   0  0  0  0  0  0  0  0  0  0  0  0
   10.8529   24.3244   19.5069 N   0  0  0  0  0  0  0  0  0  0  0  0
   11.4504   24.5256   20.3086 H   0  0  0  0  0  0  0  0  0  0  0  0
    9.4285   24.4674   19.8996 C   0  0  0  0  0  0  0  0  0  0  0  0
    9.1821   24.1209   21.4033 C   0  0  0  0  0  0  0  0  0  0  0  0
    8.0651   23.6253   21.6771 O   0  0  0  0  0  0  0  0  0  0  0  0
   10.0811   24.3760   22.2546 O   0  0  0  0  0  0  0  0  0  0  0  0
    7.4448   23.4621   20.9941 H   0  0  0  0  0  0  0  0  0  0  0  0
    8.9446   25.8964   19.6254 C   0  0  0  0  0  0  0  0  0  0  0  0
    7.5610   25.9467   18.9533 C   0  0  0  0  0  0  0  0  0  0  0  0
    6.4097   25.9383   19.6259 C   0  0  0  0  0  0  0  0  0  0  0  0
    5.4285   25.9919   18.7231 N   0  0  0  0  0  0  0  0  0  0  0  0
    5.9828   26.0192   17.5092 C   0  0  0  0  0  0  0  0  0  0  0  0
    7.3121   25.9868   17.6438 N   0  0  0  0  0  0  0  0  0  0  0  0
    4.4637   26.0086   18.9184 H   0  0  0  0  0  0  0  0  0  0  0  0
   11.5372   21.9404   20.1190 C   0  0  0  0  0  0  0  0  0  0  0  0
   12.9115   21.3208   19.7232 C   0  0  0  0  0  0  0  0  0  0  0  0
   13.2239   21.4605   18.2254 C   0  0  0  0  0  0  0  0  0  0  0  0
   14.0520   22.3165   17.8443 O   0  0  0  0  0  0  0  0  0  0  0  0
   12.5459   20.7080   17.4913 O   0  0  0  0  0  0  0  0  0  0  0  0
   14.5133   22.8350   18.4739 H   0  0  0  0  0  0  0  0  0  0  0  0
   13.9385   21.7087   20.7359 N   0  0  0  0  0  0  0  0  0  0  0  0
   13.5005   22.4344   21.3032 H   0  0  0  0  0  0  0  0  0  0  0  0
   14.5733   20.7787   21.7038 C   0  0  0  0  0  0  0  0  0  0  0  0
   14.8778   21.5271   23.0037 C   0  0  0  0  0  0  0  0  0  0  0  0
   14.2985   18.4024   22.0119 O   0  0  0  0  0  0  0  0  0  0  0  0
   13.7725   19.5450   22.1072 C   0  0  0  0  0  0  0  0  0  0  0  0
   12.6917   19.8090   22.6649 O   0  0  0  0  0  0  0  0  0  0  0  0
   15.1191   18.2997   21.5715 H   0  0  0  0  0  0  0  0  0  0  0  0
 11 12  1  0  0  0
 11 10  2  0  0  0
  9 10  1  0  0  0
  9  4  1  0  0  0
 12 13  1  0  0  0
 10 14  1  0  0  0
  4  2  1  0  0  0
  4  5  1  0  0  0
 13 14  2  0  0  0
  2  1  1  0  0  0
  7  5  2  0  0  0
  5  6  1  0  0  0
  1 16  1  0  0  0
 20 18  2  0  0  0
 16 17  1  0  0  0
 19 18  1  0  0  0
 18 17  1  0  0  0
 17 22  1  0  0  0
 28 27  2  0  0  0
 22 24  1  0  0  0
 27 24  1  0  0  0
 27 26  1  0  0  0
 24 25  1  0  0  0
 26 29  1  0  0  0
 22 23  1  0  0  0
 19 21  1  0  0  0
  2  3  1  0  0  0
  6  8  1  0  0  0
 12 15  1  0  0  0
M  END
> <minimizedAffinity>
-6.43264

$$$$
5YHE_8UX_A_604


 29 29  0  0  0  0  0  0  0  0999 V2000
   12.1447   21.6950   19.1870 C   0  0  0  0  0  0  0  0  0  0  0  0
   11.8446   23.0568   19.6451 N   0  0  0  0  0  0  0  0  0  0  0  0
   12.4071   23.2724   20.4682 H   0  0  0  0  0  0  0  0  0  0  0  0
   10.4035   23.1449   19.9905 C   0  0  0  0  0  0  0  0  0  0  0  0
   10.1581   23.8244   21.3760 C   0  0  0  0  0  0  0  0  0  0  0  0
    9.4491   23.1830   22.1848 O   0  0  0  0  0  0  0  0  0  0  0  0
   10.6454   24.9689   21.6013 O   0  0  0  0  0  0  0  0  0  0  0  0
    9.1203   22.3372   21.9512 H   0  0  0  0  0  0  0  0  0  0  0  0
    9.6459   23.9213   18.9067 C   0  0  0  0  0  0  0  0  0  0  0  0
    8.2286   24.3357   19.3402 C   0  0  0  0  0  0  0  0  0  0  0  0
    7.7758   25.5891   19.2923 C   0  0  0  0  0  0  0  0  0  0  0  0
    6.5191   25.5687   19.7406 N   0  0  0  0  0  0  0  0  0  0  0  0
    6.2169   24.3113   20.0710 C   0  0  0  0  0  0  0  0  0  0  0  0
    7.2789   23.5370   19.8285 N   0  0  0  0  0  0  0  0  0  0  0  0
    5.9193   26.3458   19.8147 H   0  0  0  0  0  0  0  0  0  0  0  0
   13.4454   21.0670   19.7103 C   0  0  0  0  0  0  0  0  0  0  0  0
   13.4040   20.9725   21.2656 C   0  0  0  0  0  0  0  0  0  0  0  0
   13.5565   19.5342   21.7838 C   0  0  0  0  0  0  0  0  0  0  0  0
   12.5512   18.9176   22.1996 O   0  0  0  0  0  0  0  0  0  0  0  0
   14.7363   19.1187   21.7935 O   0  0  0  0  0  0  0  0  0  0  0  0
   11.7040   19.3148   22.1495 H   0  0  0  0  0  0  0  0  0  0  0  0
   14.2382   22.0651   21.8494 N   0  0  0  0  0  0  0  0  0  0  0  0
   13.8984   22.9257   21.4200 H   0  0  0  0  0  0  0  0  0  0  0  0
   14.3550   22.3652   23.2989 C   0  0  0  0  0  0  0  0  0  0  0  0
   15.7995   22.1378   23.7508 C   0  0  0  0  0  0  0  0  0  0  0  0
   14.0412   24.7256   22.9153 O   0  0  0  0  0  0  0  0  0  0  0  0
   13.9924   23.7775   23.7459 C   0  0  0  0  0  0  0  0  0  0  0  0
   13.5098   23.8324   24.8918 O   0  0  0  0  0  0  0  0  0  0  0  0
   14.4257   24.5900   22.0716 H   0  0  0  0  0  0  0  0  0  0  0  0
 11 12  1  0  0  0
 11 10  2  0  0  0
  9 10  1  0  0  0
  9  4  1  0  0  0
 12 13  1  0  0  0
 10 14  1  0  0  0
  4  2  1  0  0  0
  4  5  1  0  0  0
 13 14  2  0  0  0
  2  1  1  0  0  0
  7  5  2  0  0  0
  5  6  1  0  0  0
  1 16  1  0  0  0
 20 18  2  0  0  0
 16 17  1  0  0  0
 19 18  1  0  0  0
 18 17  1  0  0  0
 17 22  1  0  0  0
 28 27  2  0  0  0
 22 24  1  0  0  0
 27 24  1  0  0  0
 27 26  1  0  0  0
 24 25  1  0  0  0
 26 29  1  0  0  0
 22 23  1  0  0  0
 19 21  1  0  0  0
  2  3  1  0  0  0
  6  8  1  0  0  0
 12 15  1  0  0  0
M  END
> <minimizedAffinity>
-6.14728

$$$$
