3I5Z_Z48_A_401


 35 38  0  0  0  0  0  0  0  0999 V2000
    7.8366   -2.6203   45.2933 C   0  0  0  0  0  0  0  0  0  0  0  0
    7.9206   -3.6470   44.3869 C   0  0  0  0  0  0  0  0  0  0  0  0
    9.2027   -4.0153   44.2492 N   0  0  0  0  0  0  0  0  0  0  0  0
    9.9796   -3.2380   45.0687 C   0  0  0  0  0  0  0  0  0  0  0  0
    9.1617   -2.3514   45.7182 C   0  0  0  0  0  0  0  0  0  0  0  0
    9.5325   -4.7283   43.6558 H   0  0  0  0  0  0  0  0  0  0  0  0
    7.3522   -1.0327   47.9202 C   0  0  0  0  0  0  0  0  0  0  0  0
    6.3207   -1.2226   46.8395 C   0  0  0  0  0  0  0  0  0  0  0  0
    5.0797   -0.6342   47.0060 C   0  0  0  0  0  0  0  0  0  0  0  0
    4.1570   -0.7711   46.0650 N   0  0  0  0  0  0  0  0  0  0  0  0
    4.3798   -1.4733   44.9605 C   0  0  0  0  0  0  0  0  0  0  0  0
    5.5552   -2.0390   44.7599 N   0  0  0  0  0  0  0  0  0  0  0  0
    6.5489   -1.9579   45.6505 C   0  0  0  0  0  0  0  0  0  0  0  0
    3.3490   -1.5718   44.0249 N   0  0  0  0  0  0  0  0  0  0  0  0
    2.6758   -0.8539   44.0505 H   0  0  0  0  0  0  0  0  0  0  0  0
    3.1491   -2.5651   43.0508 C   0  0  0  0  0  0  0  0  0  0  0  0
    3.9843   -2.7087   41.9399 C   0  0  0  0  0  0  0  0  0  0  0  0
    3.7446   -3.7015   40.9989 C   0  0  0  0  0  0  0  0  0  0  0  0
    2.6575   -4.5557   41.1722 C   0  0  0  0  0  0  0  0  0  0  0  0
    1.8189   -4.4229   42.2729 C   0  0  0  0  0  0  0  0  0  0  0  0
    2.0653   -3.4264   43.2037 C   0  0  0  0  0  0  0  0  0  0  0  0
   11.4431   -3.3794   45.1277 C   0  0  0  0  0  0  0  0  0  0  0  0
   12.1313   -2.5361   45.6907 O   0  0  0  0  0  0  0  0  0  0  0  0
   11.9778   -4.4543   44.4984 N   0  0  0  0  0  0  0  0  0  0  0  0
   11.3596   -5.0964   44.0804 H   0  0  0  0  0  0  0  0  0  0  0  0
   13.4223   -4.7259   44.3982 C   0  0  0  0  0  0  0  0  0  0  0  0
   13.9108   -5.7830   45.3610 C   0  0  0  0  0  0  0  0  0  0  0  0
   13.0157   -6.6019   46.0475 C   0  0  0  0  0  0  0  0  0  0  0  0
   13.4933   -7.5668   46.9167 C   0  0  0  0  0  0  0  0  0  0  0  0
   14.8586   -7.7146   47.1108 C   0  0  0  0  0  0  0  0  0  0  0  0
   15.7478   -6.9006   46.4304 C   0  0  0  0  0  0  0  0  0  0  0  0
   15.2781   -5.9316   45.5548 C   0  0  0  0  0  0  0  0  0  0  0  0
   13.7019   -5.1352   42.9393 C   0  0  0  0  0  0  0  0  0  0  0  0
   13.4284   -4.0238   42.0604 O   0  0  0  0  0  0  0  0  0  0  0  0
   12.4977   -3.7647   42.1469 H   0  0  0  0  0  0  0  0  0  0  0  0
  7  8  1  0  0  0
  9  8  2  0  0  0
  8 13  1  0  0  0
  9 10  1  0  0  0
 10 11  2  0  0  0
 14 11  1  0  0  0
 11 12  1  0  0  0
 14 16  1  0  0  0
 17 16  2  0  0  0
 16 21  1  0  0  0
 17 18  1  0  0  0
 18 19  2  0  0  0
 19 20  1  0  0  0
 21 20  2  0  0  0
 12 13  2  0  0  0
 13  1  1  0  0  0
  1  5  1  0  0  0
  1  2  2  0  0  0
  2  3  1  0  0  0
  4  3  1  0  0  0
  5  4  2  0  0  0
  4 22  1  0  0  0
 23 22  2  0  0  0
 22 24  1  0  0  0
 24 26  1  0  0  0
 26 33  1  0  0  0
 26 27  1  0  0  0
 34 33  1  0  0  0
 27 32  2  0  0  0
 27 28  1  0  0  0
 28 29  2  0  0  0
 29 30  1  0  0  0
 31 30  2  0  0  0
 32 31  1  0  0  0
 14 15  1  0  0  0
  3  6  1  0  0  0
 24 25  1  0  0  0
 34 35  1  0  0  0
M  END
> <minimizedAffinity>
-10.91466

$$$$
3I5Z_Z48_A_401


 35 38  0  0  0  0  0  0  0  0999 V2000
   11.0516   -3.1102   44.9043 C   0  0  0  0  0  0  0  0  0  0  0  0
   11.4862   -2.6664   43.6809 C   0  0  0  0  0  0  0  0  0  0  0  0
   12.5398   -3.3983   43.2905 N   0  0  0  0  0  0  0  0  0  0  0  0
   12.8092   -4.3385   44.2511 C   0  0  0  0  0  0  0  0  0  0  0  0
   11.9118   -4.1745   45.2732 C   0  0  0  0  0  0  0  0  0  0  0  0
   13.0390   -3.2797   42.4502 H   0  0  0  0  0  0  0  0  0  0  0  0
   11.3411   -0.7826   46.9425 C   0  0  0  0  0  0  0  0  0  0  0  0
   10.0307   -1.4169   46.5574 C   0  0  0  0  0  0  0  0  0  0  0  0
    8.8699   -0.9213   47.1242 C   0  0  0  0  0  0  0  0  0  0  0  0
    7.7007   -1.4492   46.7929 N   0  0  0  0  0  0  0  0  0  0  0  0
    7.6039   -2.4586   45.9360 C   0  0  0  0  0  0  0  0  0  0  0  0
    8.6874   -2.9504   45.3651 N   0  0  0  0  0  0  0  0  0  0  0  0
    9.9114   -2.4853   45.6350 C   0  0  0  0  0  0  0  0  0  0  0  0
    6.3327   -2.9584   45.6498 N   0  0  0  0  0  0  0  0  0  0  0  0
    5.9258   -3.5219   46.3471 H   0  0  0  0  0  0  0  0  0  0  0  0
    5.5592   -2.7600   44.4932 C   0  0  0  0  0  0  0  0  0  0  0  0
    5.8499   -3.3838   43.2772 C   0  0  0  0  0  0  0  0  0  0  0  0
    5.0608   -3.1530   42.1579 C   0  0  0  0  0  0  0  0  0  0  0  0
    3.9729   -2.2882   42.2583 C   0  0  0  0  0  0  0  0  0  0  0  0
    3.6736   -1.6611   43.4623 C   0  0  0  0  0  0  0  0  0  0  0  0
    4.4697   -1.8958   44.5718 C   0  0  0  0  0  0  0  0  0  0  0  0
   13.9295   -5.2849   44.1303 C   0  0  0  0  0  0  0  0  0  0  0  0
   14.1694   -5.8380   43.0633 O   0  0  0  0  0  0  0  0  0  0  0  0
   14.6401   -5.5358   45.2569 N   0  0  0  0  0  0  0  0  0  0  0  0
   14.3969   -5.0418   46.0730 H   0  0  0  0  0  0  0  0  0  0  0  0
   15.7521   -6.4984   45.3418 C   0  0  0  0  0  0  0  0  0  0  0  0
   17.0788   -5.9371   44.8858 C   0  0  0  0  0  0  0  0  0  0  0  0
   17.8395   -6.5843   43.9133 C   0  0  0  0  0  0  0  0  0  0  0  0
   19.0469   -6.0416   43.5101 C   0  0  0  0  0  0  0  0  0  0  0  0
   19.5033   -4.8609   44.0768 C   0  0  0  0  0  0  0  0  0  0  0  0
   18.7490   -4.2187   45.0435 C   0  0  0  0  0  0  0  0  0  0  0  0
   17.5357   -4.7542   45.4526 C   0  0  0  0  0  0  0  0  0  0  0  0
   15.8258   -6.9710   46.8064 C   0  0  0  0  0  0  0  0  0  0  0  0
   15.9027   -8.4113   46.8504 O   0  0  0  0  0  0  0  0  0  0  0  0
   15.1140   -8.7902   46.4317 H   0  0  0  0  0  0  0  0  0  0  0  0
  7  8  1  0  0  0
  9  8  2  0  0  0
  8 13  1  0  0  0
  9 10  1  0  0  0
 10 11  2  0  0  0
 14 11  1  0  0  0
 11 12  1  0  0  0
 14 16  1  0  0  0
 17 16  2  0  0  0
 16 21  1  0  0  0
 17 18  1  0  0  0
 18 19  2  0  0  0
 19 20  1  0  0  0
 21 20  2  0  0  0
 12 13  2  0  0  0
 13  1  1  0  0  0
  1  5  1  0  0  0
  1  2  2  0  0  0
  2  3  1  0  0  0
  4  3  1  0  0  0
  5  4  2  0  0  0
  4 22  1  0  0  0
 23 22  2  0  0  0
 22 24  1  0  0  0
 24 26  1  0  0  0
 26 33  1  0  0  0
 26 27  1  0  0  0
 34 33  1  0  0  0
 27 32  2  0  0  0
 27 28  1  0  0  0
 28 29  2  0  0  0
 29 30  1  0  0  0
 31 30  2  0  0  0
 32 31  1  0  0  0
 14 15  1  0  0  0
  3  6  1  0  0  0
 24 25  1  0  0  0
 34 35  1  0  0  0
M  END
> <minimizedAffinity>
-10.63029

$$$$
3I5Z_Z48_A_401


 35 38  0  0  0  0  0  0  0  0999 V2000
   12.7462   -5.0448   44.8935 C   0  0  0  0  0  0  0  0  0  0  0  0
   12.4693   -3.7078   44.7585 C   0  0  0  0  0  0  0  0  0  0  0  0
   11.2232   -3.5568   44.2861 N   0  0  0  0  0  0  0  0  0  0  0  0
   10.6613   -4.7947   44.1092 C   0  0  0  0  0  0  0  0  0  0  0  0
   11.5883   -5.7395   44.4629 C   0  0  0  0  0  0  0  0  0  0  0  0
   10.7834   -2.6966   44.0971 H   0  0  0  0  0  0  0  0  0  0  0  0
   13.0994   -7.4168   46.8696 C   0  0  0  0  0  0  0  0  0  0  0  0
   14.2377   -6.6427   46.2590 C   0  0  0  0  0  0  0  0  0  0  0  0
   15.5312   -7.0205   46.5726 C   0  0  0  0  0  0  0  0  0  0  0  0
   16.5531   -6.3678   46.0386 N   0  0  0  0  0  0  0  0  0  0  0  0
   16.3772   -5.3425   45.2137 C   0  0  0  0  0  0  0  0  0  0  0  0
   15.1586   -4.9603   44.8810 N   0  0  0  0  0  0  0  0  0  0  0  0
   14.0649   -5.5555   45.3675 C   0  0  0  0  0  0  0  0  0  0  0  0
   17.5103   -4.7076   44.7032 N   0  0  0  0  0  0  0  0  0  0  0  0
   17.8611   -3.9595   45.2384 H   0  0  0  0  0  0  0  0  0  0  0  0
   18.2145   -4.9999   43.5225 C   0  0  0  0  0  0  0  0  0  0  0  0
   18.7003   -4.0052   42.6700 C   0  0  0  0  0  0  0  0  0  0  0  0
   19.3857   -4.3413   41.5099 C   0  0  0  0  0  0  0  0  0  0  0  0
   19.5837   -5.6855   41.2011 C   0  0  0  0  0  0  0  0  0  0  0  0
   19.1049   -6.6845   42.0408 C   0  0  0  0  0  0  0  0  0  0  0  0
   18.4192   -6.3379   43.1939 C   0  0  0  0  0  0  0  0  0  0  0  0
    9.3014   -4.9698   43.5751 C   0  0  0  0  0  0  0  0  0  0  0  0
    9.0190   -5.9453   42.8892 O   0  0  0  0  0  0  0  0  0  0  0  0
    8.4085   -3.9866   43.8460 N   0  0  0  0  0  0  0  0  0  0  0  0
    8.7051   -3.2411   44.4165 H   0  0  0  0  0  0  0  0  0  0  0  0
    7.0237   -3.9592   43.3440 C   0  0  0  0  0  0  0  0  0  0  0  0
    6.0831   -3.1412   44.1979 C   0  0  0  0  0  0  0  0  0  0  0  0
    4.7729   -2.8924   43.7922 C   0  0  0  0  0  0  0  0  0  0  0  0
    3.9322   -2.1466   44.5995 C   0  0  0  0  0  0  0  0  0  0  0  0
    4.3933   -1.6412   45.8060 C   0  0  0  0  0  0  0  0  0  0  0  0
    5.6947   -1.8868   46.2086 C   0  0  0  0  0  0  0  0  0  0  0  0
    6.5445   -2.6357   45.4066 C   0  0  0  0  0  0  0  0  0  0  0  0
    7.0791   -3.4136   41.9041 C   0  0  0  0  0  0  0  0  0  0  0  0
    7.0327   -4.5090   40.9658 O   0  0  0  0  0  0  0  0  0  0  0  0
    7.7913   -5.0948   41.1150 H   0  0  0  0  0  0  0  0  0  0  0  0
  7  8  1  0  0  0
  9  8  2  0  0  0
  8 13  1  0  0  0
  9 10  1  0  0  0
 10 11  2  0  0  0
 14 11  1  0  0  0
 11 12  1  0  0  0
 14 16  1  0  0  0
 17 16  2  0  0  0
 16 21  1  0  0  0
 17 18  1  0  0  0
 18 19  2  0  0  0
 19 20  1  0  0  0
 21 20  2  0  0  0
 12 13  2  0  0  0
 13  1  1  0  0  0
  1  5  1  0  0  0
  1  2  2  0  0  0
  2  3  1  0  0  0
  4  3  1  0  0  0
  5  4  2  0  0  0
  4 22  1  0  0  0
 23 22  2  0  0  0
 22 24  1  0  0  0
 24 26  1  0  0  0
 26 33  1  0  0  0
 26 27  1  0  0  0
 34 33  1  0  0  0
 27 32  2  0  0  0
 27 28  1  0  0  0
 28 29  2  0  0  0
 29 30  1  0  0  0
 31 30  2  0  0  0
 32 31  1  0  0  0
 14 15  1  0  0  0
  3  6  1  0  0  0
 24 25  1  0  0  0
 34 35  1  0  0  0
M  END
> <minimizedAffinity>
-10.18883

$$$$
3I5Z_Z48_A_401


 35 38  0  0  0  0  0  0  0  0999 V2000
   12.6927   -5.1382   44.9165 C   0  0  0  0  0  0  0  0  0  0  0  0
   12.3467   -5.3868   43.6122 C   0  0  0  0  0  0  0  0  0  0  0  0
   11.2659   -4.6601   43.2922 N   0  0  0  0  0  0  0  0  0  0  0  0
   10.8895   -3.9185   44.3821 C   0  0  0  0  0  0  0  0  0  0  0  0
   11.7469   -4.2058   45.4113 C   0  0  0  0  0  0  0  0  0  0  0  0
   10.8158   -4.6594   42.4166 H   0  0  0  0  0  0  0  0  0  0  0  0
   12.4059   -7.5606   46.8415 C   0  0  0  0  0  0  0  0  0  0  0  0
   13.7183   -6.9253   46.4646 C   0  0  0  0  0  0  0  0  0  0  0  0
   14.8816   -7.4639   46.9849 C   0  0  0  0  0  0  0  0  0  0  0  0
   16.0522   -6.9357   46.6591 N   0  0  0  0  0  0  0  0  0  0  0  0
   16.1483   -5.8861   45.8517 C   0  0  0  0  0  0  0  0  0  0  0  0
   15.0621   -5.3522   45.3257 N   0  0  0  0  0  0  0  0  0  0  0  0
   13.8365   -5.8139   45.5944 C   0  0  0  0  0  0  0  0  0  0  0  0
   17.4213   -5.3896   45.5677 N   0  0  0  0  0  0  0  0  0  0  0  0
   17.8918   -4.9596   46.3180 H   0  0  0  0  0  0  0  0  0  0  0  0
   18.1173   -5.4251   44.3471 C   0  0  0  0  0  0  0  0  0  0  0  0
   18.3664   -6.6142   43.6570 C   0  0  0  0  0  0  0  0  0  0  0  0
   19.0643   -6.6018   42.4564 C   0  0  0  0  0  0  0  0  0  0  0  0
   19.5179   -5.3877   41.9449 C   0  0  0  0  0  0  0  0  0  0  0  0
   19.2768   -4.1978   42.6222 C   0  0  0  0  0  0  0  0  0  0  0  0
   18.5826   -4.2222   43.8211 C   0  0  0  0  0  0  0  0  0  0  0  0
    9.7154   -3.0318   44.3600 C   0  0  0  0  0  0  0  0  0  0  0  0
    9.4480   -2.3719   43.3626 O   0  0  0  0  0  0  0  0  0  0  0  0
    8.9858   -2.9575   45.4999 N   0  0  0  0  0  0  0  0  0  0  0  0
    9.2541   -3.5292   46.2552 H   0  0  0  0  0  0  0  0  0  0  0  0
    7.8180   -2.0785   45.6841 C   0  0  0  0  0  0  0  0  0  0  0  0
    6.5560   -2.5999   45.0372 C   0  0  0  0  0  0  0  0  0  0  0  0
    6.5406   -3.8233   44.3691 C   0  0  0  0  0  0  0  0  0  0  0  0
    5.3675   -4.2784   43.7934 C   0  0  0  0  0  0  0  0  0  0  0  0
    4.2112   -3.5167   43.8740 C   0  0  0  0  0  0  0  0  0  0  0  0
    4.2264   -2.3012   44.5360 C   0  0  0  0  0  0  0  0  0  0  0  0
    5.3977   -1.8376   45.1185 C   0  0  0  0  0  0  0  0  0  0  0  0
    7.6271   -1.8981   47.2024 C   0  0  0  0  0  0  0  0  0  0  0  0
    8.8868   -2.0935   47.8785 O   0  0  0  0  0  0  0  0  0  0  0  0
    9.2131   -2.9897   47.7017 H   0  0  0  0  0  0  0  0  0  0  0  0
  7  8  1  0  0  0
  9  8  2  0  0  0
  8 13  1  0  0  0
  9 10  1  0  0  0
 10 11  2  0  0  0
 14 11  1  0  0  0
 11 12  1  0  0  0
 14 16  1  0  0  0
 17 16  2  0  0  0
 16 21  1  0  0  0
 17 18  1  0  0  0
 18 19  2  0  0  0
 19 20  1  0  0  0
 21 20  2  0  0  0
 12 13  2  0  0  0
 13  1  1  0  0  0
  1  5  1  0  0  0
  1  2  2  0  0  0
  2  3  1  0  0  0
  4  3  1  0  0  0
  5  4  2  0  0  0
  4 22  1  0  0  0
 23 22  2  0  0  0
 22 24  1  0  0  0
 24 26  1  0  0  0
 26 33  1  0  0  0
 26 27  1  0  0  0
 34 33  1  0  0  0
 27 32  2  0  0  0
 27 28  1  0  0  0
 28 29  2  0  0  0
 29 30  1  0  0  0
 31 30  2  0  0  0
 32 31  1  0  0  0
 14 15  1  0  0  0
  3  6  1  0  0  0
 24 25  1  0  0  0
 34 35  1  0  0  0
M  END
> <minimizedAffinity>
-10.13463

$$$$
3I5Z_Z48_A_401


 35 38  0  0  0  0  0  0  0  0999 V2000
   11.0950   -4.2169   43.8529 C   0  0  0  0  0  0  0  0  0  0  0  0
   11.6168   -3.0794   44.4155 C   0  0  0  0  0  0  0  0  0  0  0  0
   12.8288   -3.3492   44.9222 N   0  0  0  0  0  0  0  0  0  0  0  0
   13.1230   -4.6686   44.6942 C   0  0  0  0  0  0  0  0  0  0  0  0
   12.0588   -5.2379   44.0460 C   0  0  0  0  0  0  0  0  0  0  0  0
   13.4127   -2.7042   45.3831 H   0  0  0  0  0  0  0  0  0  0  0  0
   10.5828   -4.5526   40.8065 C   0  0  0  0  0  0  0  0  0  0  0  0
    9.4967   -4.4283   41.8423 C   0  0  0  0  0  0  0  0  0  0  0  0
    8.1797   -4.4916   41.4231 C   0  0  0  0  0  0  0  0  0  0  0  0
    7.2027   -4.4006   42.3134 N   0  0  0  0  0  0  0  0  0  0  0  0
    7.4460   -4.2349   43.6080 C   0  0  0  0  0  0  0  0  0  0  0  0
    8.6892   -4.1824   44.0479 N   0  0  0  0  0  0  0  0  0  0  0  0
    9.7418   -4.2645   43.2277 C   0  0  0  0  0  0  0  0  0  0  0  0
    6.3564   -4.1412   44.4751 N   0  0  0  0  0  0  0  0  0  0  0  0
    5.9086   -4.9899   44.6952 H   0  0  0  0  0  0  0  0  0  0  0  0
    5.8168   -2.9899   45.0740 C   0  0  0  0  0  0  0  0  0  0  0  0
    6.4248   -2.3494   46.1568 C   0  0  0  0  0  0  0  0  0  0  0  0
    5.8518   -1.2172   46.7209 C   0  0  0  0  0  0  0  0  0  0  0  0
    4.6585   -0.7246   46.1966 C   0  0  0  0  0  0  0  0  0  0  0  0
    4.0435   -1.3531   45.1199 C   0  0  0  0  0  0  0  0  0  0  0  0
    4.6221   -2.4843   44.5671 C   0  0  0  0  0  0  0  0  0  0  0  0
   14.3779   -5.2835   45.1549 C   0  0  0  0  0  0  0  0  0  0  0  0
   14.3856   -6.4169   45.6208 O   0  0  0  0  0  0  0  0  0  0  0  0
   15.4961   -4.5215   45.0742 N   0  0  0  0  0  0  0  0  0  0  0  0
   15.4135   -3.6256   44.6745 H   0  0  0  0  0  0  0  0  0  0  0  0
   16.8266   -4.9444   45.5445 C   0  0  0  0  0  0  0  0  0  0  0  0
   17.8040   -5.2298   44.4283 C   0  0  0  0  0  0  0  0  0  0  0  0
   18.6907   -4.2526   43.9788 C   0  0  0  0  0  0  0  0  0  0  0  0
   19.5800   -4.5462   42.9601 C   0  0  0  0  0  0  0  0  0  0  0  0
   19.5849   -5.8069   42.3820 C   0  0  0  0  0  0  0  0  0  0  0  0
   18.7036   -6.7771   42.8270 C   0  0  0  0  0  0  0  0  0  0  0  0
   17.8096   -6.4926   43.8498 C   0  0  0  0  0  0  0  0  0  0  0  0
   17.3520   -3.8282   46.4675 C   0  0  0  0  0  0  0  0  0  0  0  0
   17.0005   -4.1216   47.8360 O   0  0  0  0  0  0  0  0  0  0  0  0
   16.0355   -4.1759   47.9174 H   0  0  0  0  0  0  0  0  0  0  0  0
  7  8  1  0  0  0
  9  8  2  0  0  0
  8 13  1  0  0  0
  9 10  1  0  0  0
 10 11  2  0  0  0
 14 11  1  0  0  0
 11 12  1  0  0  0
 14 16  1  0  0  0
 17 16  2  0  0  0
 16 21  1  0  0  0
 17 18  1  0  0  0
 18 19  2  0  0  0
 19 20  1  0  0  0
 21 20  2  0  0  0
 12 13  2  0  0  0
 13  1  1  0  0  0
  1  5  1  0  0  0
  1  2  2  0  0  0
  2  3  1  0  0  0
  4  3  1  0  0  0
  5  4  2  0  0  0
  4 22  1  0  0  0
 23 22  2  0  0  0
 22 24  1  0  0  0
 24 26  1  0  0  0
 26 33  1  0  0  0
 26 27  1  0  0  0
 34 33  1  0  0  0
 27 32  2  0  0  0
 27 28  1  0  0  0
 28 29  2  0  0  0
 29 30  1  0  0  0
 31 30  2  0  0  0
 32 31  1  0  0  0
 14 15  1  0  0  0
  3  6  1  0  0  0
 24 25  1  0  0  0
 34 35  1  0  0  0
M  END
> <minimizedAffinity>
-10.02404

$$$$
3I5Z_Z48_A_401


 35 38  0  0  0  0  0  0  0  0999 V2000
    7.4329   -3.3602   44.4340 C   0  0  0  0  0  0  0  0  0  0  0  0
    7.6493   -4.6021   43.8923 C   0  0  0  0  0  0  0  0  0  0  0  0
    8.9670   -4.8488   43.8570 N   0  0  0  0  0  0  0  0  0  0  0  0
    9.6355   -3.7727   44.3810 C   0  0  0  0  0  0  0  0  0  0  0  0
    8.7107   -2.8254   44.7337 C   0  0  0  0  0  0  0  0  0  0  0  0
    9.3863   -5.6695   43.5109 H   0  0  0  0  0  0  0  0  0  0  0  0
    6.4453   -1.8670   46.9738 C   0  0  0  0  0  0  0  0  0  0  0  0
    5.6157   -2.0760   45.7344 C   0  0  0  0  0  0  0  0  0  0  0  0
    4.3361   -1.5507   45.7047 C   0  0  0  0  0  0  0  0  0  0  0  0
    3.5883   -1.7055   44.6221 N   0  0  0  0  0  0  0  0  0  0  0  0
    4.0241   -2.3671   43.5567 C   0  0  0  0  0  0  0  0  0  0  0  0
    5.2434   -2.8719   43.5423 N   0  0  0  0  0  0  0  0  0  0  0  0
    6.0724   -2.7682   44.5861 C   0  0  0  0  0  0  0  0  0  0  0  0
    3.1668   -2.4887   42.4622 N   0  0  0  0  0  0  0  0  0  0  0  0
    2.7074   -1.6640   42.1829 H   0  0  0  0  0  0  0  0  0  0  0  0
    2.8756   -3.6383   41.7078 C   0  0  0  0  0  0  0  0  0  0  0  0
    2.0189   -4.6424   42.1663 C   0  0  0  0  0  0  0  0  0  0  0  0
    1.7650   -5.7645   41.3886 C   0  0  0  0  0  0  0  0  0  0  0  0
    2.3767   -5.8818   40.1421 C   0  0  0  0  0  0  0  0  0  0  0  0
    3.2314   -4.8900   39.6749 C   0  0  0  0  0  0  0  0  0  0  0  0
    3.4804   -3.7763   40.4608 C   0  0  0  0  0  0  0  0  0  0  0  0
   11.1041   -3.7236   44.4591 C   0  0  0  0  0  0  0  0  0  0  0  0
   11.6819   -2.6778   44.7315 O   0  0  0  0  0  0  0  0  0  0  0  0
   11.7686   -4.8706   44.1760 N   0  0  0  0  0  0  0  0  0  0  0  0
   11.2348   -5.6743   43.9801 H   0  0  0  0  0  0  0  0  0  0  0  0
   13.2361   -4.9949   44.1418 C   0  0  0  0  0  0  0  0  0  0  0  0
   13.7941   -5.9098   45.2070 C   0  0  0  0  0  0  0  0  0  0  0  0
   15.1660   -5.9928   45.4398 C   0  0  0  0  0  0  0  0  0  0  0  0
   15.6468   -6.8338   46.4280 C   0  0  0  0  0  0  0  0  0  0  0  0
   14.7673   -7.5981   47.1803 C   0  0  0  0  0  0  0  0  0  0  0  0
   13.4051   -7.5171   46.9484 C   0  0  0  0  0  0  0  0  0  0  0  0
   12.9134   -6.6747   45.9611 C   0  0  0  0  0  0  0  0  0  0  0  0
   13.6117   -5.4931   42.7330 C   0  0  0  0  0  0  0  0  0  0  0  0
   12.4261   -5.5808   41.9150 O   0  0  0  0  0  0  0  0  0  0  0  0
   11.8007   -6.2032   42.3179 H   0  0  0  0  0  0  0  0  0  0  0  0
  7  8  1  0  0  0
  9  8  2  0  0  0
  8 13  1  0  0  0
  9 10  1  0  0  0
 10 11  2  0  0  0
 14 11  1  0  0  0
 11 12  1  0  0  0
 14 16  1  0  0  0
 17 16  2  0  0  0
 16 21  1  0  0  0
 17 18  1  0  0  0
 18 19  2  0  0  0
 19 20  1  0  0  0
 21 20  2  0  0  0
 12 13  2  0  0  0
 13  1  1  0  0  0
  1  5  1  0  0  0
  1  2  2  0  0  0
  2  3  1  0  0  0
  4  3  1  0  0  0
  5  4  2  0  0  0
  4 22  1  0  0  0
 23 22  2  0  0  0
 22 24  1  0  0  0
 24 26  1  0  0  0
 26 33  1  0  0  0
 26 27  1  0  0  0
 34 33  1  0  0  0
 27 32  2  0  0  0
 27 28  1  0  0  0
 28 29  2  0  0  0
 29 30  1  0  0  0
 31 30  2  0  0  0
 32 31  1  0  0  0
 14 15  1  0  0  0
  3  6  1  0  0  0
 24 25  1  0  0  0
 34 35  1  0  0  0
M  END
> <minimizedAffinity>
-9.96405

$$$$
3I5Z_Z48_A_401


 35 38  0  0  0  0  0  0  0  0999 V2000
    8.1759   -3.9427   43.8346 C   0  0  0  0  0  0  0  0  0  0  0  0
    7.4301   -5.0441   44.1714 C   0  0  0  0  0  0  0  0  0  0  0  0
    6.3338   -5.0920   43.4005 N   0  0  0  0  0  0  0  0  0  0  0  0
    6.3469   -4.0239   42.5412 C   0  0  0  0  0  0  0  0  0  0  0  0
    7.4705   -3.2830   42.7973 C   0  0  0  0  0  0  0  0  0  0  0  0
    5.6332   -5.7823   43.4446 H   0  0  0  0  0  0  0  0  0  0  0  0
    8.4502   -1.6359   45.8984 C   0  0  0  0  0  0  0  0  0  0  0  0
    9.5796   -2.5391   45.4782 C   0  0  0  0  0  0  0  0  0  0  0  0
   10.8201   -2.3540   46.0623 C   0  0  0  0  0  0  0  0  0  0  0  0
   11.8290   -3.1433   45.7238 N   0  0  0  0  0  0  0  0  0  0  0  0
   11.6933   -4.1085   44.8225 C   0  0  0  0  0  0  0  0  0  0  0  0
   10.5226   -4.3240   44.2525 N   0  0  0  0  0  0  0  0  0  0  0  0
    9.4459   -3.5810   44.5279 C   0  0  0  0  0  0  0  0  0  0  0  0
   12.8108   -4.8880   44.5205 N   0  0  0  0  0  0  0  0  0  0  0  0
   13.1729   -4.7853   43.6108 H   0  0  0  0  0  0  0  0  0  0  0  0
   13.4854   -5.8009   45.3493 C   0  0  0  0  0  0  0  0  0  0  0  0
   12.8139   -6.7181   46.1618 C   0  0  0  0  0  0  0  0  0  0  0  0
   13.5224   -7.5978   46.9699 C   0  0  0  0  0  0  0  0  0  0  0  0
   14.9151   -7.5559   46.9647 C   0  0  0  0  0  0  0  0  0  0  0  0
   15.5948   -6.6477   46.1612 C   0  0  0  0  0  0  0  0  0  0  0  0
   14.8779   -5.7722   45.3616 C   0  0  0  0  0  0  0  0  0  0  0  0
    5.2615   -3.7783   41.5785 C   0  0  0  0  0  0  0  0  0  0  0  0
    4.8884   -2.6370   41.3335 O   0  0  0  0  0  0  0  0  0  0  0  0
    4.6818   -4.8696   41.0214 N   0  0  0  0  0  0  0  0  0  0  0  0
    5.0461   -5.7535   41.2562 H   0  0  0  0  0  0  0  0  0  0  0  0
    3.5431   -4.8213   40.0880 C   0  0  0  0  0  0  0  0  0  0  0  0
    3.5293   -5.9523   39.0862 C   0  0  0  0  0  0  0  0  0  0  0  0
    4.3897   -5.9546   37.9895 C   0  0  0  0  0  0  0  0  0  0  0  0
    4.3596   -7.0085   37.0932 C   0  0  0  0  0  0  0  0  0  0  0  0
    3.4708   -8.0566   37.2807 C   0  0  0  0  0  0  0  0  0  0  0  0
    2.6152   -8.0540   38.3687 C   0  0  0  0  0  0  0  0  0  0  0  0
    2.6398   -7.0025   39.2742 C   0  0  0  0  0  0  0  0  0  0  0  0
    2.2614   -4.8245   40.9431 C   0  0  0  0  0  0  0  0  0  0  0  0
    1.2740   -3.9592   40.3444 O   0  0  0  0  0  0  0  0  0  0  0  0
    1.6232   -3.0555   40.2953 H   0  0  0  0  0  0  0  0  0  0  0  0
  7  8  1  0  0  0
  9  8  2  0  0  0
  8 13  1  0  0  0
  9 10  1  0  0  0
 10 11  2  0  0  0
 14 11  1  0  0  0
 11 12  1  0  0  0
 14 16  1  0  0  0
 17 16  2  0  0  0
 16 21  1  0  0  0
 17 18  1  0  0  0
 18 19  2  0  0  0
 19 20  1  0  0  0
 21 20  2  0  0  0
 12 13  2  0  0  0
 13  1  1  0  0  0
  1  5  1  0  0  0
  1  2  2  0  0  0
  2  3  1  0  0  0
  4  3  1  0  0  0
  5  4  2  0  0  0
  4 22  1  0  0  0
 23 22  2  0  0  0
 22 24  1  0  0  0
 24 26  1  0  0  0
 26 33  1  0  0  0
 26 27  1  0  0  0
 34 33  1  0  0  0
 27 32  2  0  0  0
 27 28  1  0  0  0
 28 29  2  0  0  0
 29 30  1  0  0  0
 31 30  2  0  0  0
 32 31  1  0  0  0
 14 15  1  0  0  0
  3  6  1  0  0  0
 24 25  1  0  0  0
 34 35  1  0  0  0
M  END
> <minimizedAffinity>
-9.88976

$$$$
3I5Z_Z48_A_401


 35 38  0  0  0  0  0  0  0  0999 V2000
   10.8247   -4.0574   43.4597 C   0  0  0  0  0  0  0  0  0  0  0  0
   11.5516   -3.0943   44.1130 C   0  0  0  0  0  0  0  0  0  0  0  0
   12.8120   -3.5221   44.2761 N   0  0  0  0  0  0  0  0  0  0  0  0
   12.9325   -4.7722   43.7264 C   0  0  0  0  0  0  0  0  0  0  0  0
   11.7110   -5.1383   43.2255 C   0  0  0  0  0  0  0  0  0  0  0  0
   13.5339   -3.0199   44.7189 H   0  0  0  0  0  0  0  0  0  0  0  0
    9.5914   -4.4069   40.6290 C   0  0  0  0  0  0  0  0  0  0  0  0
    8.7993   -4.0748   41.8660 C   0  0  0  0  0  0  0  0  0  0  0  0
    7.4274   -3.9386   41.7501 C   0  0  0  0  0  0  0  0  0  0  0  0
    6.7024   -3.6618   42.8239 N   0  0  0  0  0  0  0  0  0  0  0  0
    7.2547   -3.4948   44.0197 C   0  0  0  0  0  0  0  0  0  0  0  0
    8.5587   -3.6289   44.1727 N   0  0  0  0  0  0  0  0  0  0  0  0
    9.3736   -3.9068   43.1500 C   0  0  0  0  0  0  0  0  0  0  0  0
    6.4165   -3.1979   45.0953 N   0  0  0  0  0  0  0  0  0  0  0  0
    5.6435   -3.7957   45.2150 H   0  0  0  0  0  0  0  0  0  0  0  0
    6.5351   -2.1544   46.0294 C   0  0  0  0  0  0  0  0  0  0  0  0
    7.7234   -1.8891   46.7147 C   0  0  0  0  0  0  0  0  0  0  0  0
    7.7925   -0.8506   47.6341 C   0  0  0  0  0  0  0  0  0  0  0  0
    6.6603   -0.0734   47.8699 C   0  0  0  0  0  0  0  0  0  0  0  0
    5.4719   -0.3275   47.1948 C   0  0  0  0  0  0  0  0  0  0  0  0
    5.4132   -1.3685   46.2822 C   0  0  0  0  0  0  0  0  0  0  0  0
   14.1941   -5.5285   43.7662 C   0  0  0  0  0  0  0  0  0  0  0  0
   14.7028   -5.9521   42.7349 O   0  0  0  0  0  0  0  0  0  0  0  0
   14.7276   -5.7607   44.9904 N   0  0  0  0  0  0  0  0  0  0  0  0
   14.2690   -5.3756   45.7719 H   0  0  0  0  0  0  0  0  0  0  0  0
   15.9478   -6.5507   45.2298 C   0  0  0  0  0  0  0  0  0  0  0  0
   17.2228   -5.8263   44.8655 C   0  0  0  0  0  0  0  0  0  0  0  0
   18.0451   -6.2863   43.8381 C   0  0  0  0  0  0  0  0  0  0  0  0
   19.2025   -5.5969   43.5220 C   0  0  0  0  0  0  0  0  0  0  0  0
   19.5482   -4.4554   44.2298 C   0  0  0  0  0  0  0  0  0  0  0  0
   18.7328   -3.9991   45.2510 C   0  0  0  0  0  0  0  0  0  0  0  0
   17.5687   -4.6826   45.5737 C   0  0  0  0  0  0  0  0  0  0  0  0
   15.9422   -6.9451   46.7192 C   0  0  0  0  0  0  0  0  0  0  0  0
   15.9608   -8.3827   46.8427 O   0  0  0  0  0  0  0  0  0  0  0  0
   15.1759   -8.7545   46.4107 H   0  0  0  0  0  0  0  0  0  0  0  0
  7  8  1  0  0  0
  9  8  2  0  0  0
  8 13  1  0  0  0
  9 10  1  0  0  0
 10 11  2  0  0  0
 14 11  1  0  0  0
 11 12  1  0  0  0
 14 16  1  0  0  0
 17 16  2  0  0  0
 16 21  1  0  0  0
 17 18  1  0  0  0
 18 19  2  0  0  0
 19 20  1  0  0  0
 21 20  2  0  0  0
 12 13  2  0  0  0
 13  1  1  0  0  0
  1  5  1  0  0  0
  1  2  2  0  0  0
  2  3  1  0  0  0
  4  3  1  0  0  0
  5  4  2  0  0  0
  4 22  1  0  0  0
 23 22  2  0  0  0
 22 24  1  0  0  0
 24 26  1  0  0  0
 26 33  1  0  0  0
 26 27  1  0  0  0
 34 33  1  0  0  0
 27 32  2  0  0  0
 27 28  1  0  0  0
 28 29  2  0  0  0
 29 30  1  0  0  0
 31 30  2  0  0  0
 32 31  1  0  0  0
 14 15  1  0  0  0
  3  6  1  0  0  0
 24 25  1  0  0  0
 34 35  1  0  0  0
M  END
> <minimizedAffinity>
-9.81280

$$$$
3I5Z_Z48_A_401


 35 38  0  0  0  0  0  0  0  0999 V2000
    8.3254   -3.9492   43.8429 C   0  0  0  0  0  0  0  0  0  0  0  0
    7.9515   -5.2427   43.5793 C   0  0  0  0  0  0  0  0  0  0  0  0
    6.7759   -5.2435   42.9340 N   0  0  0  0  0  0  0  0  0  0  0  0
    6.3631   -3.9479   42.7594 C   0  0  0  0  0  0  0  0  0  0  0  0
    7.2968   -3.1217   43.3273 C   0  0  0  0  0  0  0  0  0  0  0  0
    6.2884   -6.0446   42.6342 H   0  0  0  0  0  0  0  0  0  0  0  0
    8.5131   -1.7500   46.0302 C   0  0  0  0  0  0  0  0  0  0  0  0
    9.6684   -2.6083   45.5866 C   0  0  0  0  0  0  0  0  0  0  0  0
   10.8932   -2.4310   46.2051 C   0  0  0  0  0  0  0  0  0  0  0  0
   11.9241   -3.1820   45.8466 N   0  0  0  0  0  0  0  0  0  0  0  0
   11.8253   -4.1006   44.8931 C   0  0  0  0  0  0  0  0  0  0  0  0
   10.6706   -4.3077   44.2886 N   0  0  0  0  0  0  0  0  0  0  0  0
    9.5741   -3.6007   44.5803 C   0  0  0  0  0  0  0  0  0  0  0  0
   12.9639   -4.8418   44.5738 N   0  0  0  0  0  0  0  0  0  0  0  0
   13.3182   -4.7142   43.6642 H   0  0  0  0  0  0  0  0  0  0  0  0
   13.6694   -5.7471   45.3851 C   0  0  0  0  0  0  0  0  0  0  0  0
   15.0640   -5.7534   45.4693 C   0  0  0  0  0  0  0  0  0  0  0  0
   15.7191   -6.6712   46.2800 C   0  0  0  0  0  0  0  0  0  0  0  0
   14.9698   -7.5914   47.0103 C   0  0  0  0  0  0  0  0  0  0  0  0
   13.5817   -7.5956   46.9347 C   0  0  0  0  0  0  0  0  0  0  0  0
   12.9386   -6.6778   46.1199 C   0  0  0  0  0  0  0  0  0  0  0  0
    5.0894   -3.6121   42.1036 C   0  0  0  0  0  0  0  0  0  0  0  0
    5.0215   -2.6838   41.3064 O   0  0  0  0  0  0  0  0  0  0  0  0
    4.0081   -4.3485   42.4581 N   0  0  0  0  0  0  0  0  0  0  0  0
    4.1442   -5.0876   43.0941 H   0  0  0  0  0  0  0  0  0  0  0  0
    2.6428   -4.1168   41.9554 C   0  0  0  0  0  0  0  0  0  0  0  0
    2.0596   -5.2966   41.2130 C   0  0  0  0  0  0  0  0  0  0  0  0
    0.8438   -5.8603   41.5966 C   0  0  0  0  0  0  0  0  0  0  0  0
    0.3308   -6.9353   40.8922 C   0  0  0  0  0  0  0  0  0  0  0  0
    1.0274   -7.4558   39.8117 C   0  0  0  0  0  0  0  0  0  0  0  0
    2.2354   -6.8972   39.4314 C   0  0  0  0  0  0  0  0  0  0  0  0
    2.7566   -5.8174   40.1304 C   0  0  0  0  0  0  0  0  0  0  0  0
    1.7737   -3.7446   43.1719 C   0  0  0  0  0  0  0  0  0  0  0  0
    2.3069   -2.5647   43.8090 O   0  0  0  0  0  0  0  0  0  0  0  0
    3.2138   -2.7392   44.1056 H   0  0  0  0  0  0  0  0  0  0  0  0
  7  8  1  0  0  0
  9  8  2  0  0  0
  8 13  1  0  0  0
  9 10  1  0  0  0
 10 11  2  0  0  0
 14 11  1  0  0  0
 11 12  1  0  0  0
 14 16  1  0  0  0
 17 16  2  0  0  0
 16 21  1  0  0  0
 17 18  1  0  0  0
 18 19  2  0  0  0
 19 20  1  0  0  0
 21 20  2  0  0  0
 12 13  2  0  0  0
 13  1  1  0  0  0
  1  5  1  0  0  0
  1  2  2  0  0  0
  2  3  1  0  0  0
  4  3  1  0  0  0
  5  4  2  0  0  0
  4 22  1  0  0  0
 23 22  2  0  0  0
 22 24  1  0  0  0
 24 26  1  0  0  0
 26 33  1  0  0  0
 26 27  1  0  0  0
 34 33  1  0  0  0
 27 32  2  0  0  0
 27 28  1  0  0  0
 28 29  2  0  0  0
 29 30  1  0  0  0
 31 30  2  0  0  0
 32 31  1  0  0  0
 14 15  1  0  0  0
  3  6  1  0  0  0
 24 25  1  0  0  0
 34 35  1  0  0  0
M  END
> <minimizedAffinity>
-9.79019

$$$$
3I5Z_Z48_A_401


 35 38  0  0  0  0  0  0  0  0999 V2000
    7.7296   -2.6408   45.1359 C   0  0  0  0  0  0  0  0  0  0  0  0
    8.9489   -2.3377   45.6874 C   0  0  0  0  0  0  0  0  0  0  0  0
    9.9004   -3.0750   45.0963 N   0  0  0  0  0  0  0  0  0  0  0  0
    9.3192   -3.8702   44.1427 C   0  0  0  0  0  0  0  0  0  0  0  0
    7.9696   -3.6347   44.1544 C   0  0  0  0  0  0  0  0  0  0  0  0
   10.8606   -3.0494   45.3121 H   0  0  0  0  0  0  0  0  0  0  0  0
    7.4753   -0.8027   47.6284 C   0  0  0  0  0  0  0  0  0  0  0  0
    6.3299   -1.1678   46.7213 C   0  0  0  0  0  0  0  0  0  0  0  0
    5.0823   -0.6348   46.9924 C   0  0  0  0  0  0  0  0  0  0  0  0
    4.0588   -0.9259   46.2030 N   0  0  0  0  0  0  0  0  0  0  0  0
    4.1871   -1.7321   45.1560 C   0  0  0  0  0  0  0  0  0  0  0  0
    5.3638   -2.2500   44.8578 N   0  0  0  0  0  0  0  0  0  0  0  0
    6.4551   -2.0159   45.5937 C   0  0  0  0  0  0  0  0  0  0  0  0
    3.0545   -1.9905   44.3825 N   0  0  0  0  0  0  0  0  0  0  0  0
    2.2217   -1.5602   44.6835 H   0  0  0  0  0  0  0  0  0  0  0  0
    2.9511   -2.7865   43.2288 C   0  0  0  0  0  0  0  0  0  0  0  0
    3.8685   -2.7111   42.1776 C   0  0  0  0  0  0  0  0  0  0  0  0
    3.7228   -3.5133   41.0534 C   0  0  0  0  0  0  0  0  0  0  0  0
    2.6475   -4.3965   40.9817 C   0  0  0  0  0  0  0  0  0  0  0  0
    1.7277   -4.4805   42.0207 C   0  0  0  0  0  0  0  0  0  0  0  0
    1.8807   -3.6728   43.1361 C   0  0  0  0  0  0  0  0  0  0  0  0
   10.0979   -4.8197   43.3321 C   0  0  0  0  0  0  0  0  0  0  0  0
   10.8490   -5.6285   43.8646 O   0  0  0  0  0  0  0  0  0  0  0  0
    9.9700   -4.7208   41.9862 N   0  0  0  0  0  0  0  0  0  0  0  0
    9.3358   -4.0560   41.6327 H   0  0  0  0  0  0  0  0  0  0  0  0
   10.7166   -5.5417   41.0172 C   0  0  0  0  0  0  0  0  0  0  0  0
    9.9330   -5.8718   39.7682 C   0  0  0  0  0  0  0  0  0  0  0  0
    8.5436   -5.7621   39.7387 C   0  0  0  0  0  0  0  0  0  0  0  0
    7.8540   -6.0636   38.5775 C   0  0  0  0  0  0  0  0  0  0  0  0
    8.5418   -6.4809   37.4477 C   0  0  0  0  0  0  0  0  0  0  0  0
    9.9212   -6.5913   37.4770 C   0  0  0  0  0  0  0  0  0  0  0  0
   10.6217   -6.2889   38.6364 C   0  0  0  0  0  0  0  0  0  0  0  0
   12.0051   -4.7699   40.6737 C   0  0  0  0  0  0  0  0  0  0  0  0
   11.6946   -3.3787   40.4494 O   0  0  0  0  0  0  0  0  0  0  0  0
   11.0696   -3.3018   39.7116 H   0  0  0  0  0  0  0  0  0  0  0  0
  7  8  1  0  0  0
  9  8  2  0  0  0
  8 13  1  0  0  0
  9 10  1  0  0  0
 10 11  2  0  0  0
 14 11  1  0  0  0
 11 12  1  0  0  0
 14 16  1  0  0  0
 17 16  2  0  0  0
 16 21  1  0  0  0
 17 18  1  0  0  0
 18 19  2  0  0  0
 19 20  1  0  0  0
 21 20  2  0  0  0
 12 13  2  0  0  0
 13  1  1  0  0  0
  1  5  1  0  0  0
  1  2  2  0  0  0
  2  3  1  0  0  0
  4  3  1  0  0  0
  5  4  2  0  0  0
  4 22  1  0  0  0
 23 22  2  0  0  0
 22 24  1  0  0  0
 24 26  1  0  0  0
 26 33  1  0  0  0
 26 27  1  0  0  0
 34 33  1  0  0  0
 27 32  2  0  0  0
 27 28  1  0  0  0
 28 29  2  0  0  0
 29 30  1  0  0  0
 31 30  2  0  0  0
 32 31  1  0  0  0
 14 15  1  0  0  0
  3  6  1  0  0  0
 24 25  1  0  0  0
 34 35  1  0  0  0
M  END
> <minimizedAffinity>
-9.28988

$$$$
