6B7B_CWJ_A_201


 13 14  0  0  0  0  0  0  0  0999 V2000
  -37.2197   33.2666   55.0595 C   0  0  0  0  0  0  0  0  0  0  0  0
  -36.7292   32.1681   54.3817 C   0  0  0  0  0  0  0  0  0  0  0  0
  -40.1537   31.2164   55.5322 C   0  0  0  0  0  0  0  0  0  0  0  0
  -36.4701   34.4297   55.2027 C   0  0  0  0  0  0  0  0  0  0  0  0
  -35.4632   32.1633   53.8088 C   0  0  0  0  0  0  0  0  0  0  0  0
  -37.8534   31.1713   54.4755 C   0  0  0  0  0  0  0  0  0  0  0  0
  -38.8192   31.7912   55.1692 C   0  0  0  0  0  0  0  0  0  0  0  0
  -35.1919   34.4415   54.6313 C   0  0  0  0  0  0  0  0  0  0  0  0
  -34.6882   33.3226   53.9401 C   0  0  0  0  0  0  0  0  0  0  0  0
  -38.4574   32.9994   55.5075 N   0  0  0  0  0  0  0  0  0  0  0  0
  -39.0152   33.6280   56.0203 H   0  0  0  0  0  0  0  0  0  0  0  0
  -32.4594   34.3501   53.6410 C   0  0  0  0  0  0  0  0  0  0  0  0
  -33.4135   33.3146   53.3613 O   0  0  0  0  0  0  0  0  0  0  0  0
  3  7  1  0  0  0
  6  7  2  0  0  0
  6  2  1  0  0  0
  7 10  1  0  0  0
  2  5  2  0  0  0
  2  1  1  0  0  0
  5  9  1  0  0  0
 10  1  1  0  0  0
 12 13  1  0  0  0
  1  4  2  0  0  0
  9 13  1  0  0  0
  9  8  2  0  0  0
  4  8  1  0  0  0
 10 11  1  0  0  0
M  END
> <minimizedAffinity>
-5.09423

$$$$
6B7B_CWJ_A_201


 13 14  0  0  0  0  0  0  0  0999 V2000
  -37.1208   33.2544   55.1008 C   0  0  0  0  0  0  0  0  0  0  0  0
  -36.1257   34.0493   55.6342 C   0  0  0  0  0  0  0  0  0  0  0  0
  -39.1202   34.5599   57.8088 C   0  0  0  0  0  0  0  0  0  0  0  0
  -36.9018   32.4708   53.9725 C   0  0  0  0  0  0  0  0  0  0  0  0
  -34.8555   34.1117   55.0740 C   0  0  0  0  0  0  0  0  0  0  0  0
  -36.7952   34.6983   56.8161 C   0  0  0  0  0  0  0  0  0  0  0  0
  -38.0472   34.2178   56.8215 C   0  0  0  0  0  0  0  0  0  0  0  0
  -35.6272   32.5220   53.3954 C   0  0  0  0  0  0  0  0  0  0  0  0
  -34.6102   33.3323   53.9364 C   0  0  0  0  0  0  0  0  0  0  0  0
  -38.2384   33.3850   55.8341 N   0  0  0  0  0  0  0  0  0  0  0  0
  -39.0854   32.9172   55.6522 H   0  0  0  0  0  0  0  0  0  0  0  0
  -32.4159   34.4503   53.7166 C   0  0  0  0  0  0  0  0  0  0  0  0
  -33.3294   33.3969   53.3748 O   0  0  0  0  0  0  0  0  0  0  0  0
  3  7  1  0  0  0
  6  7  2  0  0  0
  6  2  1  0  0  0
  7 10  1  0  0  0
  2  5  2  0  0  0
  2  1  1  0  0  0
  5  9  1  0  0  0
 10  1  1  0  0  0
 12 13  1  0  0  0
  1  4  2  0  0  0
  9 13  1  0  0  0
  9  8  2  0  0  0
  4  8  1  0  0  0
 10 11  1  0  0  0
M  END
> <minimizedAffinity>
-4.92458

$$$$
6B7B_CWJ_A_201


 13 14  0  0  0  0  0  0  0  0999 V2000
  -35.1107   32.5797   53.8841 C   0  0  0  0  0  0  0  0  0  0  0  0
  -36.1358   32.9184   54.7451 C   0  0  0  0  0  0  0  0  0  0  0  0
  -33.3766   35.3408   55.4348 C   0  0  0  0  0  0  0  0  0  0  0  0
  -35.2290   31.5202   52.9905 C   0  0  0  0  0  0  0  0  0  0  0  0
  -37.3372   32.2206   54.7676 C   0  0  0  0  0  0  0  0  0  0  0  0
  -35.5787   34.0934   55.5036 C   0  0  0  0  0  0  0  0  0  0  0  0
  -34.3474   34.2833   55.0077 C   0  0  0  0  0  0  0  0  0  0  0  0
  -36.4334   30.8063   53.0003 C   0  0  0  0  0  0  0  0  0  0  0  0
  -37.4806   31.1486   53.8777 C   0  0  0  0  0  0  0  0  0  0  0  0
  -34.0741   33.4125   54.0738 N   0  0  0  0  0  0  0  0  0  0  0  0
  -33.2251   33.3720   53.5770 H   0  0  0  0  0  0  0  0  0  0  0  0
  -39.9253   31.0995   54.2440 C   0  0  0  0  0  0  0  0  0  0  0  0
  -38.6925   30.4480   53.9025 O   0  0  0  0  0  0  0  0  0  0  0  0
  3  7  1  0  0  0
  6  7  2  0  0  0
  6  2  1  0  0  0
  7 10  1  0  0  0
  2  5  2  0  0  0
  2  1  1  0  0  0
  5  9  1  0  0  0
 10  1  1  0  0  0
 12 13  1  0  0  0
  1  4  2  0  0  0
  9 13  1  0  0  0
  9  8  2  0  0  0
  4  8  1  0  0  0
 10 11  1  0  0  0
M  END
> <minimizedAffinity>
-4.90337

$$$$
6B7B_CWJ_A_201


 13 14  0  0  0  0  0  0  0  0999 V2000
  -35.7449   33.7860   54.6796 C   0  0  0  0  0  0  0  0  0  0  0  0
  -35.3360   34.5178   55.7769 C   0  0  0  0  0  0  0  0  0  0  0  0
  -32.3778   34.3437   53.5019 C   0  0  0  0  0  0  0  0  0  0  0  0
  -37.0366   33.2793   54.5813 C   0  0  0  0  0  0  0  0  0  0  0  0
  -36.1888   34.7858   56.8407 C   0  0  0  0  0  0  0  0  0  0  0  0
  -33.9033   34.8519   55.4576 C   0  0  0  0  0  0  0  0  0  0  0  0
  -33.6679   34.2942   54.2610 C   0  0  0  0  0  0  0  0  0  0  0  0
  -37.9089   33.5401   55.6449 C   0  0  0  0  0  0  0  0  0  0  0  0
  -37.4949   34.2854   56.7659 C   0  0  0  0  0  0  0  0  0  0  0  0
  -34.7274   33.6789   53.8094 N   0  0  0  0  0  0  0  0  0  0  0  0
  -34.7740   33.2021   52.9493 H   0  0  0  0  0  0  0  0  0  0  0  0
  -38.3093   35.8161   58.5286 C   0  0  0  0  0  0  0  0  0  0  0  0
  -38.3518   34.5577   57.8390 O   0  0  0  0  0  0  0  0  0  0  0  0
  3  7  1  0  0  0
  6  7  2  0  0  0
  6  2  1  0  0  0
  7 10  1  0  0  0
  2  5  2  0  0  0
  2  1  1  0  0  0
  5  9  1  0  0  0
 10  1  1  0  0  0
 12 13  1  0  0  0
  1  4  2  0  0  0
  9 13  1  0  0  0
  9  8  2  0  0  0
  4  8  1  0  0  0
 10 11  1  0  0  0
M  END
> <minimizedAffinity>
-4.88306

$$$$
6B7B_CWJ_A_201


 13 14  0  0  0  0  0  0  0  0999 V2000
  -37.4764   32.9516   54.9571 C   0  0  0  0  0  0  0  0  0  0  0  0
  -38.1066   31.7251   54.8851 C   0  0  0  0  0  0  0  0  0  0  0  0
  -40.1728   33.8035   57.2019 C   0  0  0  0  0  0  0  0  0  0  0  0
  -36.3091   33.2144   54.2478 C   0  0  0  0  0  0  0  0  0  0  0  0
  -37.6100   30.6885   54.1042 C   0  0  0  0  0  0  0  0  0  0  0  0
  -39.2979   31.8927   55.7901 C   0  0  0  0  0  0  0  0  0  0  0  0
  -39.2144   33.1471   56.2567 C   0  0  0  0  0  0  0  0  0  0  0  0
  -35.7950   32.1805   53.4559 C   0  0  0  0  0  0  0  0  0  0  0  0
  -36.4348   30.9280   53.3809 C   0  0  0  0  0  0  0  0  0  0  0  0
  -38.1655   33.7607   55.7785 N   0  0  0  0  0  0  0  0  0  0  0  0
  -37.9144   34.6886   55.9908 H   0  0  0  0  0  0  0  0  0  0  0  0
  -34.7974   30.0651   51.7415 C   0  0  0  0  0  0  0  0  0  0  0  0
  -35.9374   29.8819   52.5947 O   0  0  0  0  0  0  0  0  0  0  0  0
  3  7  1  0  0  0
  6  7  2  0  0  0
  6  2  1  0  0  0
  7 10  1  0  0  0
  2  5  2  0  0  0
  2  1  1  0  0  0
  5  9  1  0  0  0
 10  1  1  0  0  0
 12 13  1  0  0  0
  1  4  2  0  0  0
  9 13  1  0  0  0
  9  8  2  0  0  0
  4  8  1  0  0  0
 10 11  1  0  0  0
M  END
> <minimizedAffinity>
-4.88197

$$$$
6B7B_CWJ_A_201


 13 14  0  0  0  0  0  0  0  0999 V2000
  -35.4825   34.4277   55.4800 C   0  0  0  0  0  0  0  0  0  0  0  0
  -35.9051   33.4926   54.5560 C   0  0  0  0  0  0  0  0  0  0  0  0
  -32.3961   34.3555   53.6081 C   0  0  0  0  0  0  0  0  0  0  0  0
  -36.3125   34.8646   56.5073 C   0  0  0  0  0  0  0  0  0  0  0  0
  -37.1793   32.9399   54.6001 C   0  0  0  0  0  0  0  0  0  0  0  0
  -34.7089   33.3266   53.6573 C   0  0  0  0  0  0  0  0  0  0  0  0
  -33.7767   34.1538   54.1523 C   0  0  0  0  0  0  0  0  0  0  0  0
  -37.5999   34.3176   56.5661 C   0  0  0  0  0  0  0  0  0  0  0  0
  -38.0345   33.3643   55.6249 C   0  0  0  0  0  0  0  0  0  0  0  0
  -34.2192   34.7902   55.2032 N   0  0  0  0  0  0  0  0  0  0  0  0
  -33.6984   35.4456   55.7214 H   0  0  0  0  0  0  0  0  0  0  0  0
  -39.5158   31.3849   55.5983 C   0  0  0  0  0  0  0  0  0  0  0  0
  -39.3173   32.8050   55.6669 O   0  0  0  0  0  0  0  0  0  0  0  0
  3  7  1  0  0  0
  6  7  2  0  0  0
  6  2  1  0  0  0
  7 10  1  0  0  0
  2  5  2  0  0  0
  2  1  1  0  0  0
  5  9  1  0  0  0
 10  1  1  0  0  0
 12 13  1  0  0  0
  1  4  2  0  0  0
  9 13  1  0  0  0
  9  8  2  0  0  0
  4  8  1  0  0  0
 10 11  1  0  0  0
M  END
> <minimizedAffinity>
-4.74971

$$$$
6B7B_CWJ_A_201


 13 14  0  0  0  0  0  0  0  0999 V2000
  -37.0670   34.9124   56.7192 C   0  0  0  0  0  0  0  0  0  0  0  0
  -38.0384   33.9877   56.3906 C   0  0  0  0  0  0  0  0  0  0  0  0
  -35.3148   33.5509   53.8712 C   0  0  0  0  0  0  0  0  0  0  0  0
  -37.2138   35.7699   57.8047 C   0  0  0  0  0  0  0  0  0  0  0  0
  -39.2132   33.8645   57.1225 C   0  0  0  0  0  0  0  0  0  0  0  0
  -37.4665   33.2975   55.1812 C   0  0  0  0  0  0  0  0  0  0  0  0
  -36.2801   33.8846   54.9665 C   0  0  0  0  0  0  0  0  0  0  0  0
  -38.3920   35.6590   58.5529 C   0  0  0  0  0  0  0  0  0  0  0  0
  -39.3852   34.7175   58.2200 C   0  0  0  0  0  0  0  0  0  0  0  0
  -36.0464   34.8161   55.8514 N   0  0  0  0  0  0  0  0  0  0  0  0
  -35.2339   35.3713   55.8786 H   0  0  0  0  0  0  0  0  0  0  0  0
  -41.3865   35.7312   59.2594 C   0  0  0  0  0  0  0  0  0  0  0  0
  -40.5696   34.5905   58.9556 O   0  0  0  0  0  0  0  0  0  0  0  0
  3  7  1  0  0  0
  6  7  2  0  0  0
  6  2  1  0  0  0
  7 10  1  0  0  0
  2  5  2  0  0  0
  2  1  1  0  0  0
  5  9  1  0  0  0
 10  1  1  0  0  0
 12 13  1  0  0  0
  1  4  2  0  0  0
  9 13  1  0  0  0
  9  8  2  0  0  0
  4  8  1  0  0  0
 10 11  1  0  0  0
M  END
> <minimizedAffinity>
-4.71005

$$$$
6B7B_CWJ_A_201


 13 14  0  0  0  0  0  0  0  0999 V2000
  -36.8061   32.1931   54.3310 C   0  0  0  0  0  0  0  0  0  0  0  0
  -37.0954   33.3962   54.9437 C   0  0  0  0  0  0  0  0  0  0  0  0
  -40.0384   31.1863   55.5858 C   0  0  0  0  0  0  0  0  0  0  0  0
  -35.6117   31.9916   53.6470 C   0  0  0  0  0  0  0  0  0  0  0  0
  -36.2131   34.4692   54.9094 C   0  0  0  0  0  0  0  0  0  0  0  0
  -38.4557   33.1620   55.5446 C   0  0  0  0  0  0  0  0  0  0  0  0
  -38.7744   31.9009   55.2187 C   0  0  0  0  0  0  0  0  0  0  0  0
  -34.7113   33.0629   53.6027 C   0  0  0  0  0  0  0  0  0  0  0  0
  -35.0035   34.2916   54.2259 C   0  0  0  0  0  0  0  0  0  0  0  0
  -37.8257   31.3391   54.5190 N   0  0  0  0  0  0  0  0  0  0  0  0
  -37.8539   30.4166   54.1765 H   0  0  0  0  0  0  0  0  0  0  0  0
  -32.7093   35.1815   53.9849 C   0  0  0  0  0  0  0  0  0  0  0  0
  -34.1165   35.3743   54.1937 O   0  0  0  0  0  0  0  0  0  0  0  0
  3  7  1  0  0  0
  6  7  2  0  0  0
  6  2  1  0  0  0
  7 10  1  0  0  0
  2  5  2  0  0  0
  2  1  1  0  0  0
  5  9  1  0  0  0
 10  1  1  0  0  0
 12 13  1  0  0  0
  1  4  2  0  0  0
  9 13  1  0  0  0
  9  8  2  0  0  0
  4  8  1  0  0  0
 10 11  1  0  0  0
M  END
> <minimizedAffinity>
-4.69596

$$$$
6B7B_CWJ_A_201


 13 14  0  0  0  0  0  0  0  0999 V2000
  -35.9580   34.3935   56.1043 C   0  0  0  0  0  0  0  0  0  0  0  0
  -36.8815   33.5652   55.4980 C   0  0  0  0  0  0  0  0  0  0  0  0
  -38.7465   35.3991   58.1654 C   0  0  0  0  0  0  0  0  0  0  0  0
  -34.6298   34.4299   55.6923 C   0  0  0  0  0  0  0  0  0  0  0  0
  -36.5358   32.7236   54.4476 C   0  0  0  0  0  0  0  0  0  0  0  0
  -38.1535   33.8536   56.2498 C   0  0  0  0  0  0  0  0  0  0  0  0
  -37.8229   34.7777   57.1635 C   0  0  0  0  0  0  0  0  0  0  0  0
  -34.2646   33.5879   54.6350 C   0  0  0  0  0  0  0  0  0  0  0  0
  -35.2038   32.7412   54.0149 C   0  0  0  0  0  0  0  0  0  0  0  0
  -36.5579   35.0915   57.0825 N   0  0  0  0  0  0  0  0  0  0  0  0
  -36.1061   35.7492   57.6591 H   0  0  0  0  0  0  0  0  0  0  0  0
  -35.6591   30.7476   52.6251 C   0  0  0  0  0  0  0  0  0  0  0  0
  -34.8589   31.8926   52.9561 O   0  0  0  0  0  0  0  0  0  0  0  0
  3  7  1  0  0  0
  6  7  2  0  0  0
  6  2  1  0  0  0
  7 10  1  0  0  0
  2  5  2  0  0  0
  2  1  1  0  0  0
  5  9  1  0  0  0
 10  1  1  0  0  0
 12 13  1  0  0  0
  1  4  2  0  0  0
  9 13  1  0  0  0
  9  8  2  0  0  0
  4  8  1  0  0  0
 10 11  1  0  0  0
M  END
> <minimizedAffinity>
-4.68386

$$$$
6B7B_CWJ_A_201


 13 14  0  0  0  0  0  0  0  0999 V2000
  -38.1400   31.4623   54.7493 C   0  0  0  0  0  0  0  0  0  0  0  0
  -37.4185   32.6386   54.7982 C   0  0  0  0  0  0  0  0  0  0  0  0
  -35.4865   30.3440   52.5713 C   0  0  0  0  0  0  0  0  0  0  0  0
  -39.3353   31.3106   55.4446 C   0  0  0  0  0  0  0  0  0  0  0  0
  -37.8441   33.7313   55.5438 C   0  0  0  0  0  0  0  0  0  0  0  0
  -36.2308   32.3548   53.9177 C   0  0  0  0  0  0  0  0  0  0  0  0
  -36.4041   31.0978   53.4840 C   0  0  0  0  0  0  0  0  0  0  0  0
  -39.7785   32.4021   56.2011 C   0  0  0  0  0  0  0  0  0  0  0  0
  -39.0446   33.6031   56.2538 C   0  0  0  0  0  0  0  0  0  0  0  0
  -37.5038   30.5801   53.9613 N   0  0  0  0  0  0  0  0  0  0  0  0
  -37.8227   29.6686   53.7699 H   0  0  0  0  0  0  0  0  0  0  0  0
  -40.2122   34.5399   58.2216 C   0  0  0  0  0  0  0  0  0  0  0  0
  -39.4709   34.7059   57.0035 O   0  0  0  0  0  0  0  0  0  0  0  0
  3  7  1  0  0  0
  6  7  2  0  0  0
  6  2  1  0  0  0
  7 10  1  0  0  0
  2  5  2  0  0  0
  2  1  1  0  0  0
  5  9  1  0  0  0
 10  1  1  0  0  0
 12 13  1  0  0  0
  1  4  2  0  0  0
  9 13  1  0  0  0
  9  8  2  0  0  0
  4  8  1  0  0  0
 10 11  1  0  0  0
M  END
> <minimizedAffinity>
-4.66845

$$$$
