4TJZ_DKA_A_200


 13 12  0  0  0  0  0  0  0  0999 V2000
    7.4925  -23.1648   -1.0926 C   0  0  0  0  0  0  0  0  0  0  0  0
    6.3482  -22.5501   -0.3352 C   0  0  0  0  0  0  0  0  0  0  0  0
    6.7422  -21.5824    0.7041 C   0  0  0  0  0  0  0  0  0  0  0  0
    7.7442  -22.0450    1.7324 C   0  0  0  0  0  0  0  0  0  0  0  0
    7.5828  -23.1392    2.3126 O   0  0  0  0  0  0  0  0  0  0  0  0
    8.7341  -21.2847    1.9681 O   0  0  0  0  0  0  0  0  0  0  0  0
    8.8191  -20.4710    1.5113 H   0  0  0  0  0  0  0  0  0  0  0  0
    7.2433  -24.6122   -1.4961 C   0  0  0  0  0  0  0  0  0  0  0  0
    7.9365  -25.0142   -2.7971 C   0  0  0  0  0  0  0  0  0  0  0  0
    7.0278  -25.3092   -3.9520 C   0  0  0  0  0  0  0  0  0  0  0  0
    6.6079  -24.1235   -4.7332 C   0  0  0  0  0  0  0  0  0  0  0  0
    7.6518  -23.0126   -4.8572 C   0  0  0  0  0  0  0  0  0  0  0  0
    7.1267  -21.6326   -4.4727 C   0  0  0  0  0  0  0  0  0  0  0  0
  4  5  2  0  0  0
  4  3  1  0  0  0
  4  6  1  0  0  0
  3  2  1  0  0  0
  2  1  1  0  0  0
  1  8  1  0  0  0
  8  9  1  0  0  0
  9 10  1  0  0  0
 10 11  1  0  0  0
 11 12  1  0  0  0
 12 13  1  0  0  0
  6  7  1  0  0  0
M  END
> <minimizedAffinity>
-5.45528

$$$$
4TJZ_DKA_A_200


 13 12  0  0  0  0  0  0  0  0999 V2000
    6.9732  -23.5843   -1.0612 C   0  0  0  0  0  0  0  0  0  0  0  0
    6.9311  -23.5474    0.4414 C   0  0  0  0  0  0  0  0  0  0  0  0
    6.8078  -22.1996    1.0246 C   0  0  0  0  0  0  0  0  0  0  0  0
    5.5211  -21.4541    0.7714 C   0  0  0  0  0  0  0  0  0  0  0  0
    5.5247  -20.4267    0.0613 O   0  0  0  0  0  0  0  0  0  0  0  0
    4.4633  -21.9158    1.3020 O   0  0  0  0  0  0  0  0  0  0  0  0
    4.5027  -22.6899    1.8286 H   0  0  0  0  0  0  0  0  0  0  0  0
    7.3155  -24.9578   -1.6235 C   0  0  0  0  0  0  0  0  0  0  0  0
    8.1377  -24.9062   -2.9104 C   0  0  0  0  0  0  0  0  0  0  0  0
    7.7329  -23.8529   -3.8970 C   0  0  0  0  0  0  0  0  0  0  0  0
    6.6055  -24.2273   -4.7807 C   0  0  0  0  0  0  0  0  0  0  0  0
    6.4427  -23.3732   -6.0390 C   0  0  0  0  0  0  0  0  0  0  0  0
    5.9106  -21.9701   -5.7626 C   0  0  0  0  0  0  0  0  0  0  0  0
  4  5  2  0  0  0
  4  3  1  0  0  0
  4  6  1  0  0  0
  3  2  1  0  0  0
  2  1  1  0  0  0
  1  8  1  0  0  0
  8  9  1  0  0  0
  9 10  1  0  0  0
 10 11  1  0  0  0
 11 12  1  0  0  0
 12 13  1  0  0  0
  6  7  1  0  0  0
M  END
> <minimizedAffinity>
-5.21682

$$$$
4TJZ_DKA_A_200


 13 12  0  0  0  0  0  0  0  0999 V2000
    7.0903  -22.0111   -2.0153 C   0  0  0  0  0  0  0  0  0  0  0  0
    7.2593  -22.7107   -0.6950 C   0  0  0  0  0  0  0  0  0  0  0  0
    6.9634  -21.8821    0.4873 C   0  0  0  0  0  0  0  0  0  0  0  0
    7.7964  -22.1206    1.7220 C   0  0  0  0  0  0  0  0  0  0  0  0
    7.6620  -23.1796    2.3704 O   0  0  0  0  0  0  0  0  0  0  0  0
    8.6205  -21.2134    2.0560 O   0  0  0  0  0  0  0  0  0  0  0  0
    8.6914  -20.4328    1.5426 H   0  0  0  0  0  0  0  0  0  0  0  0
    7.8766  -20.7105   -2.1161 C   0  0  0  0  0  0  0  0  0  0  0  0
    8.0151  -20.1867   -3.5448 C   0  0  0  0  0  0  0  0  0  0  0  0
    6.7679  -20.2289   -4.3749 C   0  0  0  0  0  0  0  0  0  0  0  0
    6.8917  -20.9744   -5.6482 C   0  0  0  0  0  0  0  0  0  0  0  0
    5.9352  -22.1560   -5.8158 C   0  0  0  0  0  0  0  0  0  0  0  0
    6.5813  -23.5110   -5.5424 C   0  0  0  0  0  0  0  0  0  0  0  0
  4  5  2  0  0  0
  4  3  1  0  0  0
  4  6  1  0  0  0
  3  2  1  0  0  0
  2  1  1  0  0  0
  1  8  1  0  0  0
  8  9  1  0  0  0
  9 10  1  0  0  0
 10 11  1  0  0  0
 11 12  1  0  0  0
 12 13  1  0  0  0
  6  7  1  0  0  0
M  END
> <minimizedAffinity>
-5.00283

$$$$
4TJZ_DKA_A_200


 13 12  0  0  0  0  0  0  0  0999 V2000
    7.4468  -23.8168   -4.3947 C   0  0  0  0  0  0  0  0  0  0  0  0
    6.4796  -23.6317   -5.5311 C   0  0  0  0  0  0  0  0  0  0  0  0
    6.0245  -22.2453   -5.7373 C   0  0  0  0  0  0  0  0  0  0  0  0
    7.0808  -21.2099   -6.0333 C   0  0  0  0  0  0  0  0  0  0  0  0
    7.1416  -20.1672   -5.3485 O   0  0  0  0  0  0  0  0  0  0  0  0
    7.8840  -21.4498   -6.9878 O   0  0  0  0  0  0  0  0  0  0  0  0
    7.8050  -22.2445   -7.4780 H   0  0  0  0  0  0  0  0  0  0  0  0
    7.0326  -24.9111   -3.4195 C   0  0  0  0  0  0  0  0  0  0  0  0
    7.2636  -24.5460   -1.9539 C   0  0  0  0  0  0  0  0  0  0  0  0
    7.3918  -23.0814   -1.6626 C   0  0  0  0  0  0  0  0  0  0  0  0
    6.4837  -22.5739   -0.6090 C   0  0  0  0  0  0  0  0  0  0  0  0
    7.1654  -22.0922    0.6726 C   0  0  0  0  0  0  0  0  0  0  0  0
    7.1795  -23.1335    1.7878 C   0  0  0  0  0  0  0  0  0  0  0  0
  4  5  2  0  0  0
  4  3  1  0  0  0
  4  6  1  0  0  0
  3  2  1  0  0  0
  2  1  1  0  0  0
  1  8  1  0  0  0
  8  9  1  0  0  0
  9 10  1  0  0  0
 10 11  1  0  0  0
 11 12  1  0  0  0
 12 13  1  0  0  0
  6  7  1  0  0  0
M  END
> <minimizedAffinity>
-4.92920

$$$$
4TJZ_DKA_A_200


 13 12  0  0  0  0  0  0  0  0999 V2000
    6.6703  -21.9331   -0.6967 C   0  0  0  0  0  0  0  0  0  0  0  0
    7.4401  -22.3591    0.5227 C   0  0  0  0  0  0  0  0  0  0  0  0
    7.7095  -21.2825    1.4924 C   0  0  0  0  0  0  0  0  0  0  0  0
    8.7137  -20.2303    1.0927 C   0  0  0  0  0  0  0  0  0  0  0  0
    8.3236  -19.1488    0.6047 O   0  0  0  0  0  0  0  0  0  0  0  0
    9.9426  -20.4947    1.2761 O   0  0  0  0  0  0  0  0  0  0  0  0
   10.1946  -21.3183    1.6452 H   0  0  0  0  0  0  0  0  0  0  0  0
    7.3953  -22.2274   -2.0035 C   0  0  0  0  0  0  0  0  0  0  0  0
    7.5326  -23.7187   -2.3063 C   0  0  0  0  0  0  0  0  0  0  0  0
    7.8481  -24.0653   -3.7300 C   0  0  0  0  0  0  0  0  0  0  0  0
    6.6708  -24.3842   -4.5693 C   0  0  0  0  0  0  0  0  0  0  0  0
    6.2466  -23.2917   -5.5519 C   0  0  0  0  0  0  0  0  0  0  0  0
    7.3158  -22.2284   -5.7851 C   0  0  0  0  0  0  0  0  0  0  0  0
  4  5  2  0  0  0
  4  3  1  0  0  0
  4  6  1  0  0  0
  3  2  1  0  0  0
  2  1  1  0  0  0
  1  8  1  0  0  0
  8  9  1  0  0  0
  9 10  1  0  0  0
 10 11  1  0  0  0
 11 12  1  0  0  0
 12 13  1  0  0  0
  6  7  1  0  0  0
M  END
> <minimizedAffinity>
-4.85960

$$$$
4TJZ_DKA_A_200


 13 12  0  0  0  0  0  0  0  0999 V2000
    7.8548  -21.5730   -2.1501 C   0  0  0  0  0  0  0  0  0  0  0  0
    6.9491  -21.8711   -0.9875 C   0  0  0  0  0  0  0  0  0  0  0  0
    7.6049  -21.8417    0.3320 C   0  0  0  0  0  0  0  0  0  0  0  0
    6.9500  -22.6217    1.4447 C   0  0  0  0  0  0  0  0  0  0  0  0
    5.7065  -22.7332    1.4805 O   0  0  0  0  0  0  0  0  0  0  0  0
    7.7097  -23.1464    2.3172 O   0  0  0  0  0  0  0  0  0  0  0  0
    8.6385  -23.0395    2.2548 H   0  0  0  0  0  0  0  0  0  0  0  0
    7.1652  -20.8119   -3.2749 C   0  0  0  0  0  0  0  0  0  0  0  0
    6.7661  -21.6936   -4.4573 C   0  0  0  0  0  0  0  0  0  0  0  0
    7.5574  -22.9559   -4.6215 C   0  0  0  0  0  0  0  0  0  0  0  0
    6.7464  -24.1893   -4.7363 C   0  0  0  0  0  0  0  0  0  0  0  0
    6.9446  -25.2147   -3.6190 C   0  0  0  0  0  0  0  0  0  0  0  0
    8.3307  -25.1678   -2.9830 C   0  0  0  0  0  0  0  0  0  0  0  0
  4  5  2  0  0  0
  4  3  1  0  0  0
  4  6  1  0  0  0
  3  2  1  0  0  0
  2  1  1  0  0  0
  1  8  1  0  0  0
  8  9  1  0  0  0
  9 10  1  0  0  0
 10 11  1  0  0  0
 11 12  1  0  0  0
 12 13  1  0  0  0
  6  7  1  0  0  0
M  END
> <minimizedAffinity>
-4.83657

$$$$
4TJZ_DKA_A_200


 13 12  0  0  0  0  0  0  0  0999 V2000
    6.7554  -19.8482   -0.7040 C   0  0  0  0  0  0  0  0  0  0  0  0
    6.6163  -21.3003   -0.3392 C   0  0  0  0  0  0  0  0  0  0  0  0
    6.4502  -21.5638    1.1012 C   0  0  0  0  0  0  0  0  0  0  0  0
    7.6606  -22.0540    1.8563 C   0  0  0  0  0  0  0  0  0  0  0  0
    7.6868  -23.2198    2.3039 O   0  0  0  0  0  0  0  0  0  0  0  0
    8.6254  -21.2414    2.0060 O   0  0  0  0  0  0  0  0  0  0  0  0
    8.5668  -20.3747    1.6548 H   0  0  0  0  0  0  0  0  0  0  0  0
    8.1127  -19.5018   -1.3020 C   0  0  0  0  0  0  0  0  0  0  0  0
    8.1997  -19.7455   -2.8079 C   0  0  0  0  0  0  0  0  0  0  0  0
    6.9121  -19.6085   -3.5627 C   0  0  0  0  0  0  0  0  0  0  0  0
    6.8852  -18.5097   -4.5547 C   0  0  0  0  0  0  0  0  0  0  0  0
    6.2887  -17.1907   -4.0611 C   0  0  0  0  0  0  0  0  0  0  0  0
    5.2472  -17.3633   -2.9595 C   0  0  0  0  0  0  0  0  0  0  0  0
  4  5  2  0  0  0
  4  3  1  0  0  0
  4  6  1  0  0  0
  3  2  1  0  0  0
  2  1  1  0  0  0
  1  8  1  0  0  0
  8  9  1  0  0  0
  9 10  1  0  0  0
 10 11  1  0  0  0
 11 12  1  0  0  0
 12 13  1  0  0  0
  6  7  1  0  0  0
M  END
> <minimizedAffinity>
-4.78387

$$$$
4TJZ_DKA_A_200


 13 12  0  0  0  0  0  0  0  0999 V2000
    6.7055  -22.9949    0.8562 C   0  0  0  0  0  0  0  0  0  0  0  0
    7.5460  -21.9189    1.4862 C   0  0  0  0  0  0  0  0  0  0  0  0
    8.3359  -21.1146    0.5370 C   0  0  0  0  0  0  0  0  0  0  0  0
    7.7538  -19.7924    0.1029 C   0  0  0  0  0  0  0  0  0  0  0  0
    6.7051  -19.7649   -0.5749 O   0  0  0  0  0  0  0  0  0  0  0  0
    8.3686  -18.7384    0.4559 O   0  0  0  0  0  0  0  0  0  0  0  0
    9.1530  -18.8016    0.9645 H   0  0  0  0  0  0  0  0  0  0  0  0
    7.2470  -23.4801   -0.4821 C   0  0  0  0  0  0  0  0  0  0  0  0
    6.3561  -23.1216   -1.6705 C   0  0  0  0  0  0  0  0  0  0  0  0
    7.0698  -22.6115   -2.8858 C   0  0  0  0  0  0  0  0  0  0  0  0
    7.4918  -23.6572   -3.8453 C   0  0  0  0  0  0  0  0  0  0  0  0
    6.6855  -23.7248   -5.1432 C   0  0  0  0  0  0  0  0  0  0  0  0
    6.0673  -22.3907   -5.5508 C   0  0  0  0  0  0  0  0  0  0  0  0
  4  5  2  0  0  0
  4  3  1  0  0  0
  4  6  1  0  0  0
  3  2  1  0  0  0
  2  1  1  0  0  0
  1  8  1  0  0  0
  8  9  1  0  0  0
  9 10  1  0  0  0
 10 11  1  0  0  0
 11 12  1  0  0  0
 12 13  1  0  0  0
  6  7  1  0  0  0
M  END
> <minimizedAffinity>
-4.70719

$$$$
4TJZ_DKA_A_200


 13 12  0  0  0  0  0  0  0  0999 V2000
    6.7727  -18.8330   -0.5696 C   0  0  0  0  0  0  0  0  0  0  0  0
    6.9231  -17.3475   -0.3911 C   0  0  0  0  0  0  0  0  0  0  0  0
    7.8862  -16.7083   -1.3053 C   0  0  0  0  0  0  0  0  0  0  0  0
    7.6323  -15.2687   -1.6773 C   0  0  0  0  0  0  0  0  0  0  0  0
    7.3426  -14.4372   -0.7914 O   0  0  0  0  0  0  0  0  0  0  0  0
    7.7286  -14.9558   -2.9046 O   0  0  0  0  0  0  0  0  0  0  0  0
    7.9482  -15.6095   -3.5390 H   0  0  0  0  0  0  0  0  0  0  0  0
    8.0719  -19.6016   -0.3670 C   0  0  0  0  0  0  0  0  0  0  0  0
    8.3501  -19.9620    1.0916 C   0  0  0  0  0  0  0  0  0  0  0  0
    8.4048  -21.4280    1.3986 C   0  0  0  0  0  0  0  0  0  0  0  0
    7.4426  -22.2597    0.6404 C   0  0  0  0  0  0  0  0  0  0  0  0
    6.1727  -22.6531    1.3967 C   0  0  0  0  0  0  0  0  0  0  0  0
    4.9898  -21.7264    1.1320 C   0  0  0  0  0  0  0  0  0  0  0  0
  4  5  2  0  0  0
  4  3  1  0  0  0
  4  6  1  0  0  0
  3  2  1  0  0  0
  2  1  1  0  0  0
  1  8  1  0  0  0
  8  9  1  0  0  0
  9 10  1  0  0  0
 10 11  1  0  0  0
 11 12  1  0  0  0
 12 13  1  0  0  0
  6  7  1  0  0  0
M  END
> <minimizedAffinity>
-4.69019

$$$$
4TJZ_DKA_A_200


 13 12  0  0  0  0  0  0  0  0999 V2000
    6.8902  -21.9579   -1.9601 C   0  0  0  0  0  0  0  0  0  0  0  0
    7.5559  -23.2575   -2.3191 C   0  0  0  0  0  0  0  0  0  0  0  0
    7.0039  -23.9279   -3.5097 C   0  0  0  0  0  0  0  0  0  0  0  0
    7.3982  -23.3752   -4.8568 C   0  0  0  0  0  0  0  0  0  0  0  0
    8.5261  -22.8626   -5.0150 O   0  0  0  0  0  0  0  0  0  0  0  0
    6.5465  -23.4589   -5.7956 O   0  0  0  0  0  0  0  0  0  0  0  0
    5.7105  -23.8509   -5.6361 H   0  0  0  0  0  0  0  0  0  0  0  0
    7.8287  -20.7599   -2.0212 C   0  0  0  0  0  0  0  0  0  0  0  0
    8.0496  -20.0842   -0.6687 C   0  0  0  0  0  0  0  0  0  0  0  0
    8.8144  -20.8865    0.3402 C   0  0  0  0  0  0  0  0  0  0  0  0
    8.0727  -21.1930    1.5844 C   0  0  0  0  0  0  0  0  0  0  0  0
    7.5257  -22.6173    1.6917 C   0  0  0  0  0  0  0  0  0  0  0  0
    6.0335  -22.7248    1.3921 C   0  0  0  0  0  0  0  0  0  0  0  0
  4  5  2  0  0  0
  4  3  1  0  0  0
  4  6  1  0  0  0
  3  2  1  0  0  0
  2  1  1  0  0  0
  1  8  1  0  0  0
  8  9  1  0  0  0
  9 10  1  0  0  0
 10 11  1  0  0  0
 11 12  1  0  0  0
 12 13  1  0  0  0
  6  7  1  0  0  0
M  END
> <minimizedAffinity>
-4.67668

$$$$
