2CES_GIM_A_1447


 19 20  0  0  0  0  0  0  0  0999 V2000
   -0.8298   10.4368   10.9008 C   0  0  0  0  0  0  0  0  0  0  0  0
    0.1888   11.3135   10.1594 C   0  0  0  0  0  0  0  0  0  0  0  0
   -1.8774    9.8580   10.2769 N   0  0  0  0  0  0  0  0  0  0  0  0
   -0.2157   11.5910    8.6871 C   0  0  0  0  0  0  0  0  0  0  0  0
   -0.9349   10.3684    8.0110 C   0  0  0  0  0  0  0  0  0  0  0  0
   -2.1987   10.1156    8.8593 C   0  0  0  0  0  0  0  0  0  0  0  0
   -1.7877    9.2206   12.4213 C   0  0  0  0  0  0  0  0  0  0  0  0
   -2.4408    9.0211   11.1889 C   0  0  0  0  0  0  0  0  0  0  0  0
   -0.7612   10.0830   12.1902 N   0  0  0  0  0  0  0  0  0  0  0  0
    0.9897   12.0087    8.0108 O   0  0  0  0  0  0  0  0  0  0  0  0
    0.6815   12.4213   10.8915 O   0  0  0  0  0  0  0  0  0  0  0  0
   -1.3054   10.6993    6.6643 O   0  0  0  0  0  0  0  0  0  0  0  0
   -0.0943   10.3889   12.8466 H   0  0  0  0  0  0  0  0  0  0  0  0
    1.6533   11.3035    8.0677 H   0  0  0  0  0  0  0  0  0  0  0  0
   -0.0360   13.0578   11.0367 H   0  0  0  0  0  0  0  0  0  0  0  0
   -1.8811   11.4800    6.6698 H   0  0  0  0  0  0  0  0  0  0  0  0
   -3.3288    9.2228    8.3988 C   0  0  0  0  0  0  0  0  0  0  0  0
   -3.8266   10.0284    7.3062 O   0  0  0  0  0  0  0  0  0  0  0  0
   -4.0540   10.9126    7.6339 H   0  0  0  0  0  0  0  0  0  0  0  0
  1  2  1  0  0  0
  1  3  2  0  0  0
  1  9  1  0  0  0
  2  4  1  0  0  0
  2 11  1  0  0  0
  3  6  1  0  0  0
  3  8  1  0  0  0
  4  5  1  0  0  0
  4 10  1  0  0  0
  5  6  1  0  0  0
  5 12  1  0  0  0
  6 17  1  0  0  0
 17 18  1  0  0  0
  7  8  2  0  0  0
  7  9  1  0  0  0
  9 13  1  0  0  0
 10 14  1  0  0  0
 11 15  1  0  0  0
 12 16  1  0  0  0
 18 19  1  0  0  0
M  CHG 1   3   1
M  END
> <minimizedAffinity>
-8.64225

$$$$
2CES_GIM_A_1447


 19 20  0  0  0  0  0  0  0  0999 V2000
   -0.9583    7.8043    9.7279 C   0  0  0  0  0  0  0  0  0  0  0  0
   -1.3583    9.1279    9.0616 C   0  0  0  0  0  0  0  0  0  0  0  0
   -0.7687    7.6919   11.0596 N   0  0  0  0  0  0  0  0  0  0  0  0
   -1.3467   10.3254   10.0485 C   0  0  0  0  0  0  0  0  0  0  0  0
   -1.8132    9.9283   11.4955 C   0  0  0  0  0  0  0  0  0  0  0  0
   -0.8121    8.8539   11.9688 C   0  0  0  0  0  0  0  0  0  0  0  0
   -0.5770    5.6950   10.0653 C   0  0  0  0  0  0  0  0  0  0  0  0
   -0.6157    6.3630   11.3052 C   0  0  0  0  0  0  0  0  0  0  0  0
   -0.8350    6.6249    9.1064 N   0  0  0  0  0  0  0  0  0  0  0  0
   -2.1493   11.3582    9.4371 O   0  0  0  0  0  0  0  0  0  0  0  0
   -0.7856    9.3624    7.7877 O   0  0  0  0  0  0  0  0  0  0  0  0
   -1.7536   11.0710   12.3622 O   0  0  0  0  0  0  0  0  0  0  0  0
   -0.9156    6.4616    8.1389 H   0  0  0  0  0  0  0  0  0  0  0  0
   -3.0497   11.0265    9.2951 H   0  0  0  0  0  0  0  0  0  0  0  0
    0.1718    9.4870    7.8816 H   0  0  0  0  0  0  0  0  0  0  0  0
   -0.8491   11.4212   12.3738 H   0  0  0  0  0  0  0  0  0  0  0  0
   -0.7117    8.4065   13.4097 C   0  0  0  0  0  0  0  0  0  0  0  0
   -2.0944    8.5733   13.7983 O   0  0  0  0  0  0  0  0  0  0  0  0
   -2.3703    9.4874   13.6271 H   0  0  0  0  0  0  0  0  0  0  0  0
  1  2  1  0  0  0
  1  3  2  0  0  0
  1  9  1  0  0  0
  2  4  1  0  0  0
  2 11  1  0  0  0
  3  6  1  0  0  0
  3  8  1  0  0  0
  4  5  1  0  0  0
  4 10  1  0  0  0
  5  6  1  0  0  0
  5 12  1  0  0  0
  6 17  1  0  0  0
 17 18  1  0  0  0
  7  8  2  0  0  0
  7  9  1  0  0  0
  9 13  1  0  0  0
 10 14  1  0  0  0
 11 15  1  0  0  0
 12 16  1  0  0  0
 18 19  1  0  0  0
M  CHG 1   3   1
M  END
> <minimizedAffinity>
-6.49511

$$$$
2CES_GIM_A_1447


 19 20  0  0  0  0  0  0  0  0999 V2000
   -2.1695   10.1297    8.4124 C   0  0  0  0  0  0  0  0  0  0  0  0
   -1.1230   10.9642    7.6611 C   0  0  0  0  0  0  0  0  0  0  0  0
   -2.0585    9.8409    9.7262 N   0  0  0  0  0  0  0  0  0  0  0  0
    0.1282   11.2777    8.5238 C   0  0  0  0  0  0  0  0  0  0  0  0
   -0.2182   11.5138   10.0381 C   0  0  0  0  0  0  0  0  0  0  0  0
   -0.8669   10.1996   10.5203 C   0  0  0  0  0  0  0  0  0  0  0  0
   -4.0023    9.0823    8.9145 C   0  0  0  0  0  0  0  0  0  0  0  0
   -3.2362    9.2619   10.0832 C   0  0  0  0  0  0  0  0  0  0  0  0
   -3.3185    9.6739    7.8981 N   0  0  0  0  0  0  0  0  0  0  0  0
    0.7825   12.3985    7.8909 O   0  0  0  0  0  0  0  0  0  0  0  0
   -0.8767   10.5665    6.3242 O   0  0  0  0  0  0  0  0  0  0  0  0
    0.9818   11.7712   10.7826 O   0  0  0  0  0  0  0  0  0  0  0  0
   -3.6127    9.7521    6.9618 H   0  0  0  0  0  0  0  0  0  0  0  0
    0.1747   13.1539    7.8627 H   0  0  0  0  0  0  0  0  0  0  0  0
   -0.4527    9.6941    6.3194 H   0  0  0  0  0  0  0  0  0  0  0  0
    1.5927   11.0248   10.6793 H   0  0  0  0  0  0  0  0  0  0  0  0
   -1.0866    9.8833   11.9825 C   0  0  0  0  0  0  0  0  0  0  0  0
   -1.6771   11.1349   12.4015 O   0  0  0  0  0  0  0  0  0  0  0  0
   -1.0771   11.8649   12.1822 H   0  0  0  0  0  0  0  0  0  0  0  0
  1  2  1  0  0  0
  1  3  2  0  0  0
  1  9  1  0  0  0
  2  4  1  0  0  0
  2 11  1  0  0  0
  3  6  1  0  0  0
  3  8  1  0  0  0
  4  5  1  0  0  0
  4 10  1  0  0  0
  5  6  1  0  0  0
  5 12  1  0  0  0
  6 17  1  0  0  0
 17 18  1  0  0  0
  7  8  2  0  0  0
  7  9  1  0  0  0
  9 13  1  0  0  0
 10 14  1  0  0  0
 11 15  1  0  0  0
 12 16  1  0  0  0
 18 19  1  0  0  0
M  CHG 1   3   1
M  END
> <minimizedAffinity>
-6.40972

$$$$
2CES_GIM_A_1447


 19 20  0  0  0  0  0  0  0  0999 V2000
   -1.2980    9.2097   11.8345 C   0  0  0  0  0  0  0  0  0  0  0  0
   -1.1797    9.9570   10.4990 C   0  0  0  0  0  0  0  0  0  0  0  0
   -1.0320    7.8917   11.9532 N   0  0  0  0  0  0  0  0  0  0  0  0
   -0.8977    9.0095    9.3028 C   0  0  0  0  0  0  0  0  0  0  0  0
    0.0333    7.8031    9.6860 C   0  0  0  0  0  0  0  0  0  0  0  0
   -0.7228    7.0361   10.7907 C   0  0  0  0  0  0  0  0  0  0  0  0
   -1.4852    8.7871   13.9546 C   0  0  0  0  0  0  0  0  0  0  0  0
   -1.0567    7.6232   13.2862 C   0  0  0  0  0  0  0  0  0  0  0  0
   -1.5866    9.7675   13.0168 N   0  0  0  0  0  0  0  0  0  0  0  0
   -0.3733    9.8415    8.2457 O   0  0  0  0  0  0  0  0  0  0  0  0
   -2.1489   10.9665   10.2815 O   0  0  0  0  0  0  0  0  0  0  0  0
    0.2318    6.9537    8.5460 O   0  0  0  0  0  0  0  0  0  0  0  0
   -1.8266   10.7087   13.1772 H   0  0  0  0  0  0  0  0  0  0  0  0
    0.4382   10.2773    8.5498 H   0  0  0  0  0  0  0  0  0  0  0  0
   -3.0242   10.5593   10.1863 H   0  0  0  0  0  0  0  0  0  0  0  0
   -0.6274    6.6393    8.2237 H   0  0  0  0  0  0  0  0  0  0  0  0
   -0.3269    5.6481   11.2416 C   0  0  0  0  0  0  0  0  0  0  0  0
    1.1033    5.7452   11.0529 O   0  0  0  0  0  0  0  0  0  0  0  0
    1.2922    5.9930   10.1343 H   0  0  0  0  0  0  0  0  0  0  0  0
  1  2  1  0  0  0
  1  3  2  0  0  0
  1  9  1  0  0  0
  2  4  1  0  0  0
  2 11  1  0  0  0
  3  6  1  0  0  0
  3  8  1  0  0  0
  4  5  1  0  0  0
  4 10  1  0  0  0
  5  6  1  0  0  0
  5 12  1  0  0  0
  6 17  1  0  0  0
 17 18  1  0  0  0
  7  8  2  0  0  0
  7  9  1  0  0  0
  9 13  1  0  0  0
 10 14  1  0  0  0
 11 15  1  0  0  0
 12 16  1  0  0  0
 18 19  1  0  0  0
M  CHG 1   3   1
M  END
> <minimizedAffinity>
-6.19704

$$$$
2CES_GIM_A_1447


 19 20  0  0  0  0  0  0  0  0999 V2000
   -0.7890    9.5752   11.4694 C   0  0  0  0  0  0  0  0  0  0  0  0
   -1.4654    8.8503   12.6412 C   0  0  0  0  0  0  0  0  0  0  0  0
   -0.0787    8.9214   10.5261 N   0  0  0  0  0  0  0  0  0  0  0  0
   -1.0990    7.3438   12.7083 C   0  0  0  0  0  0  0  0  0  0  0  0
   -0.9341    6.6920   11.2881 C   0  0  0  0  0  0  0  0  0  0  0  0
    0.2073    7.4755   10.6071 C   0  0  0  0  0  0  0  0  0  0  0  0
   -0.2357   11.0982   10.0264 C   0  0  0  0  0  0  0  0  0  0  0  0
    0.2032    9.8415    9.5649 C   0  0  0  0  0  0  0  0  0  0  0  0
   -0.8861   10.8833   11.2017 N   0  0  0  0  0  0  0  0  0  0  0  0
   -2.1126    6.7194   13.5253 O   0  0  0  0  0  0  0  0  0  0  0  0
   -1.4584    9.5505   13.8723 O   0  0  0  0  0  0  0  0  0  0  0  0
   -0.5701    5.3098   11.4208 O   0  0  0  0  0  0  0  0  0  0  0  0
   -1.3419   11.5612   11.7512 H   0  0  0  0  0  0  0  0  0  0  0  0
   -2.9831    6.8533   13.1190 H   0  0  0  0  0  0  0  0  0  0  0  0
   -0.5481    9.6186   14.2004 H   0  0  0  0  0  0  0  0  0  0  0  0
    0.2515    5.2395   11.9316 H   0  0  0  0  0  0  0  0  0  0  0  0
    0.8906    6.9965    9.3461 C   0  0  0  0  0  0  0  0  0  0  0  0
   -0.2352    6.3541    8.7054 O   0  0  0  0  0  0  0  0  0  0  0  0
   -0.6069    5.6843    9.3004 H   0  0  0  0  0  0  0  0  0  0  0  0
  1  2  1  0  0  0
  1  3  2  0  0  0
  1  9  1  0  0  0
  2  4  1  0  0  0
  2 11  1  0  0  0
  3  6  1  0  0  0
  3  8  1  0  0  0
  4  5  1  0  0  0
  4 10  1  0  0  0
  5  6  1  0  0  0
  5 12  1  0  0  0
  6 17  1  0  0  0
 17 18  1  0  0  0
  7  8  2  0  0  0
  7  9  1  0  0  0
  9 13  1  0  0  0
 10 14  1  0  0  0
 11 15  1  0  0  0
 12 16  1  0  0  0
 18 19  1  0  0  0
M  CHG 1   3   1
M  END
> <minimizedAffinity>
-6.12984

$$$$
2CES_GIM_A_1447


 19 20  0  0  0  0  0  0  0  0999 V2000
    0.2667    6.9526   12.1367 C   0  0  0  0  0  0  0  0  0  0  0  0
    0.6978    6.3123   10.8100 C   0  0  0  0  0  0  0  0  0  0  0  0
   -0.3229    8.1652   12.1981 N   0  0  0  0  0  0  0  0  0  0  0  0
    0.5406    7.2716    9.6004 C   0  0  0  0  0  0  0  0  0  0  0  0
   -0.7157    8.2074    9.7228 C   0  0  0  0  0  0  0  0  0  0  0  0
   -0.4931    9.0264   11.0113 C   0  0  0  0  0  0  0  0  0  0  0  0
   -0.2390    7.2265   14.2290 C   0  0  0  0  0  0  0  0  0  0  0  0
   -0.7283    8.3197   13.4870 C   0  0  0  0  0  0  0  0  0  0  0  0
    0.3425    6.3746   13.3419 N   0  0  0  0  0  0  0  0  0  0  0  0
    0.5363    6.4364    8.4226 O   0  0  0  0  0  0  0  0  0  0  0  0
    1.8980    5.5622   10.8608 O   0  0  0  0  0  0  0  0  0  0  0  0
   -0.7874    9.0851    8.5892 O   0  0  0  0  0  0  0  0  0  0  0  0
    0.7431    5.4990   13.5473 H   0  0  0  0  0  0  0  0  0  0  0  0
   -0.2017    5.8090    8.4739 H   0  0  0  0  0  0  0  0  0  0  0  0
    2.6450    6.1582   11.0274 H   0  0  0  0  0  0  0  0  0  0  0  0
    0.0286    9.6065    8.5319 H   0  0  0  0  0  0  0  0  0  0  0  0
   -1.3114   10.2507   11.3550 C   0  0  0  0  0  0  0  0  0  0  0  0
   -0.4015   11.2729   10.8883 O   0  0  0  0  0  0  0  0  0  0  0  0
    0.4573   11.1657   11.3263 H   0  0  0  0  0  0  0  0  0  0  0  0
  1  2  1  0  0  0
  1  3  2  0  0  0
  1  9  1  0  0  0
  2  4  1  0  0  0
  2 11  1  0  0  0
  3  6  1  0  0  0
  3  8  1  0  0  0
  4  5  1  0  0  0
  4 10  1  0  0  0
  5  6  1  0  0  0
  5 12  1  0  0  0
  6 17  1  0  0  0
 17 18  1  0  0  0
  7  8  2  0  0  0
  7  9  1  0  0  0
  9 13  1  0  0  0
 10 14  1  0  0  0
 11 15  1  0  0  0
 12 16  1  0  0  0
 18 19  1  0  0  0
M  CHG 1   3   1
M  END
> <minimizedAffinity>
-6.05509

$$$$
2CES_GIM_A_1447


 19 20  0  0  0  0  0  0  0  0999 V2000
   -0.9011    6.7797   11.4809 C   0  0  0  0  0  0  0  0  0  0  0  0
   -1.3694    7.4766   12.7659 C   0  0  0  0  0  0  0  0  0  0  0  0
   -0.7040    7.4480   10.3249 N   0  0  0  0  0  0  0  0  0  0  0  0
   -1.7476    8.9644   12.5393 C   0  0  0  0  0  0  0  0  0  0  0  0
   -0.8329    9.6714   11.4750 C   0  0  0  0  0  0  0  0  0  0  0  0
   -1.0360    8.8777   10.1676 C   0  0  0  0  0  0  0  0  0  0  0  0
   -0.1034    5.3022   10.1064 C   0  0  0  0  0  0  0  0  0  0  0  0
   -0.1207    6.5614    9.4744 C   0  0  0  0  0  0  0  0  0  0  0  0
   -0.5626    5.4889   11.3733 N   0  0  0  0  0  0  0  0  0  0  0  0
   -1.7218    9.5886   13.8410 O   0  0  0  0  0  0  0  0  0  0  0  0
   -2.2539    6.7233   13.5759 O   0  0  0  0  0  0  0  0  0  0  0  0
   -1.2515   11.0324   11.2935 O   0  0  0  0  0  0  0  0  0  0  0  0
   -0.6328    4.8044   12.0775 H   0  0  0  0  0  0  0  0  0  0  0  0
   -0.8340    9.5041   14.2225 H   0  0  0  0  0  0  0  0  0  0  0  0
   -3.0981    6.6081   13.1123 H   0  0  0  0  0  0  0  0  0  0  0  0
   -2.1813   11.0506   11.0178 H   0  0  0  0  0  0  0  0  0  0  0  0
   -0.5739    9.3865    8.8207 C   0  0  0  0  0  0  0  0  0  0  0  0
   -1.8604    9.5308    8.1767 O   0  0  0  0  0  0  0  0  0  0  0  0
   -2.3317    8.6834    8.2022 H   0  0  0  0  0  0  0  0  0  0  0  0
  1  2  1  0  0  0
  1  3  2  0  0  0
  1  9  1  0  0  0
  2  4  1  0  0  0
  2 11  1  0  0  0
  3  6  1  0  0  0
  3  8  1  0  0  0
  4  5  1  0  0  0
  4 10  1  0  0  0
  5  6  1  0  0  0
  5 12  1  0  0  0
  6 17  1  0  0  0
 17 18  1  0  0  0
  7  8  2  0  0  0
  7  9  1  0  0  0
  9 13  1  0  0  0
 10 14  1  0  0  0
 11 15  1  0  0  0
 12 16  1  0  0  0
 18 19  1  0  0  0
M  CHG 1   3   1
M  END
> <minimizedAffinity>
-6.01264

$$$$
2CES_GIM_A_1447


 19 20  0  0  0  0  0  0  0  0999 V2000
   -0.6942    8.4850    9.3579 C   0  0  0  0  0  0  0  0  0  0  0  0
    0.4432    7.4554    9.4042 C   0  0  0  0  0  0  0  0  0  0  0  0
   -1.4198    8.8124   10.4479 N   0  0  0  0  0  0  0  0  0  0  0  0
    0.5407    6.7284   10.7717 C   0  0  0  0  0  0  0  0  0  0  0  0
    0.1911    7.6625   11.9858 C   0  0  0  0  0  0  0  0  0  0  0  0
   -1.2612    8.1236   11.7438 C   0  0  0  0  0  0  0  0  0  0  0  0
   -2.0118   10.0779    8.6983 C   0  0  0  0  0  0  0  0  0  0  0  0
   -2.1912    9.8705   10.0803 C   0  0  0  0  0  0  0  0  0  0  0  0
   -1.0387    9.2183    8.2921 N   0  0  0  0  0  0  0  0  0  0  0  0
    1.8672    6.1612   10.8319 O   0  0  0  0  0  0  0  0  0  0  0  0
    0.5704    6.6405    8.2528 O   0  0  0  0  0  0  0  0  0  0  0  0
    0.2738    6.9242   13.2140 O   0  0  0  0  0  0  0  0  0  0  0  0
   -0.6597    9.1487    7.3861 H   0  0  0  0  0  0  0  0  0  0  0  0
    2.5254    6.8701   10.7612 H   0  0  0  0  0  0  0  0  0  0  0  0
   -0.2014    6.0572    8.1827 H   0  0  0  0  0  0  0  0  0  0  0  0
   -0.3291    6.1652   13.1762 H   0  0  0  0  0  0  0  0  0  0  0  0
   -2.0949    8.7973   12.8103 C   0  0  0  0  0  0  0  0  0  0  0  0
   -1.0323    9.3908   13.5909 O   0  0  0  0  0  0  0  0  0  0  0  0
   -0.4123    8.6996   13.8714 H   0  0  0  0  0  0  0  0  0  0  0  0
  1  2  1  0  0  0
  1  3  2  0  0  0
  1  9  1  0  0  0
  2  4  1  0  0  0
  2 11  1  0  0  0
  3  6  1  0  0  0
  3  8  1  0  0  0
  4  5  1  0  0  0
  4 10  1  0  0  0
  5  6  1  0  0  0
  5 12  1  0  0  0
  6 17  1  0  0  0
 17 18  1  0  0  0
  7  8  2  0  0  0
  7  9  1  0  0  0
  9 13  1  0  0  0
 10 14  1  0  0  0
 11 15  1  0  0  0
 12 16  1  0  0  0
 18 19  1  0  0  0
M  CHG 1   3   1
M  END
> <minimizedAffinity>
-5.97037

$$$$
2CES_GIM_A_1447


 19 20  0  0  0  0  0  0  0  0999 V2000
   -0.3980    7.6732   12.7897 C   0  0  0  0  0  0  0  0  0  0  0  0
   -1.0219    9.0619   12.5933 C   0  0  0  0  0  0  0  0  0  0  0  0
   -0.3231    6.7653   11.7938 N   0  0  0  0  0  0  0  0  0  0  0  0
   -1.6946    9.2278   11.2047 C   0  0  0  0  0  0  0  0  0  0  0  0
   -0.9271    8.4723   10.0605 C   0  0  0  0  0  0  0  0  0  0  0  0
   -0.9398    6.9850   10.4707 C   0  0  0  0  0  0  0  0  0  0  0  0
    0.7104    6.0077   13.6297 C   0  0  0  0  0  0  0  0  0  0  0  0
    0.4449    5.7491   12.2704 C   0  0  0  0  0  0  0  0  0  0  0  0
    0.2009    7.2386   13.9054 N   0  0  0  0  0  0  0  0  0  0  0  0
   -1.8203   10.6495   10.9861 O   0  0  0  0  0  0  0  0  0  0  0  0
   -1.7460    9.5633   13.7024 O   0  0  0  0  0  0  0  0  0  0  0  0
   -1.6139    8.6433    8.8117 O   0  0  0  0  0  0  0  0  0  0  0  0
    0.2612    7.7188   14.7627 H   0  0  0  0  0  0  0  0  0  0  0  0
   -0.9408   11.0583   11.0035 H   0  0  0  0  0  0  0  0  0  0  0  0
   -2.5403    9.0239   13.8406 H   0  0  0  0  0  0  0  0  0  0  0  0
   -2.5226    8.3144    8.8949 H   0  0  0  0  0  0  0  0  0  0  0  0
   -0.5694    5.8700    9.5189 C   0  0  0  0  0  0  0  0  0  0  0  0
    0.2865    6.6112    8.6196 O   0  0  0  0  0  0  0  0  0  0  0  0
   -0.2010    7.3689    8.2603 H   0  0  0  0  0  0  0  0  0  0  0  0
  1  2  1  0  0  0
  1  3  2  0  0  0
  1  9  1  0  0  0
  2  4  1  0  0  0
  2 11  1  0  0  0
  3  6  1  0  0  0
  3  8  1  0  0  0
  4  5  1  0  0  0
  4 10  1  0  0  0
  5  6  1  0  0  0
  5 12  1  0  0  0
  6 17  1  0  0  0
 17 18  1  0  0  0
  7  8  2  0  0  0
  7  9  1  0  0  0
  9 13  1  0  0  0
 10 14  1  0  0  0
 11 15  1  0  0  0
 12 16  1  0  0  0
 18 19  1  0  0  0
M  CHG 1   3   1
M  END
> <minimizedAffinity>
-5.74558

$$$$
