6D55_FWA_B_2001


 35 40  0  0  0  0  0  0  0  0999 V2000
   35.6451   28.8601   26.2113 C   0  0  0  0  0  0  0  0  0  0  0  0
   34.6373   29.4000   27.0461 C   0  0  0  0  0  0  0  0  0  0  0  0
   33.4351   29.7224   26.4932 C   0  0  0  0  0  0  0  0  0  0  0  0
   33.0188   29.6204   25.2338 C   0  0  0  0  0  0  0  0  0  0  0  0
   35.2850   28.7145   24.8678 C   0  0  0  0  0  0  0  0  0  0  0  0
   35.3138   28.2322   22.7558 C   0  0  0  0  0  0  0  0  0  0  0  0
   34.0263   29.0615   24.4001 C   0  0  0  0  0  0  0  0  0  0  0  0
   36.1182   28.1856   23.8410 N   0  0  0  0  0  0  0  0  0  0  0  0
   34.0081   28.7350   23.0343 N   0  0  0  0  0  0  0  0  0  0  0  0
   32.1777   30.3373   27.6140 Cl  0  0  0  0  0  0  0  0  0  0  0  0
   35.7421   27.9432   21.4273 N   0  0  0  0  0  0  0  0  0  0  0  0
   36.5086   26.7315   19.9490 C   0  0  0  0  0  0  0  0  0  0  0  0
   36.9945   27.2066   18.5272 C   0  0  0  0  0  0  0  0  0  0  0  0
   37.1030   27.3843   21.1955 C   0  0  0  0  0  0  0  0  0  0  0  0
   36.8122   25.2685   19.5936 C   0  0  0  0  0  0  0  0  0  0  0  0
   35.0518   27.0785   20.4131 C   0  0  0  0  0  0  0  0  0  0  0  0
   37.1318   25.7386   18.1431 N   0  0  0  0  0  0  0  0  0  0  0  0
   38.0681   25.4846   17.8282 H   0  0  0  0  0  0  0  0  0  0  0  0
   36.8860   28.4722   26.7030 N   0  0  0  0  0  0  0  0  0  0  0  0
   39.3284   28.2659   26.4087 C   0  0  0  0  0  0  0  0  0  0  0  0
   39.4986   28.2486   27.8813 N   0  0  0  0  0  0  0  0  0  0  0  0
   40.7479   27.4910   28.2379 C   0  0  0  0  0  0  0  0  0  0  0  0
   38.3179   27.6230   28.5651 C   0  0  0  0  0  0  0  0  0  0  0  0
   37.0053   28.4305   28.2047 C   0  0  0  0  0  0  0  0  0  0  0  0
   38.0392   29.0631   26.0674 C   0  0  0  0  0  0  0  0  0  0  0  0
   32.8222   28.8474   22.2041 C   0  0  0  0  0  0  0  0  0  0  0  0
   33.3721   32.4286   20.9717 C   0  0  0  0  0  0  0  0  0  0  0  0
   34.0441   33.7246   21.3808 C   0  0  0  0  0  0  0  0  0  0  0  0
   32.6706   32.3539   19.7862 C   0  0  0  0  0  0  0  0  0  0  0  0
   31.2036   31.2071   18.1303 C   0  0  0  0  0  0  0  0  0  0  0  0
   32.8385   30.0796   21.3565 C   0  0  0  0  0  0  0  0  0  0  0  0
   33.4880   31.2974   21.7753 C   0  0  0  0  0  0  0  0  0  0  0  0
   32.0239   31.1783   19.3999 C   0  0  0  0  0  0  0  0  0  0  0  0
   32.1014   30.0475   20.1626 C   0  0  0  0  0  0  0  0  0  0  0  0
   32.5652   33.4051   18.9681 F   0  0  0  0  0  0  0  0  0  0  0  0
 17 13  1  0  0  0
 17 15  1  0  0  0
 30 33  1  0  0  0
 13 12  1  0  0  0
 35 29  1  0  0  0
 15 12  1  0  0  0
 33 29  2  0  0  0
 33 34  1  0  0  0
 29 27  1  0  0  0
 12 16  1  0  0  0
 12 14  1  0  0  0
 34 31  2  0  0  0
 16 11  1  0  0  0
 27 28  1  0  0  0
 27 32  2  0  0  0
 14 11  1  0  0  0
 31 32  1  0  0  0
 31 26  1  0  0  0
 11  6  1  0  0  0
 26  9  1  0  0  0
  6  9  1  0  0  0
  6  8  2  0  0  0
  9  7  1  0  0  0
  8  5  1  0  0  0
  7  5  2  0  0  0
  7  4  1  0  0  0
  5  1  1  0  0  0
  4  3  2  0  0  0
 25 20  1  0  0  0
 25 19  1  0  0  0
  1 19  1  0  0  0
  1  2  2  0  0  0
 20 21  1  0  0  0
  3  2  1  0  0  0
  3 10  1  0  0  0
 19 24  1  0  0  0
 21 22  1  0  0  0
 21 23  1  0  0  0
 24 23  1  0  0  0
 17 18  1  0  0  0
M  END
> <minimizedAffinity>
-11.34098

$$$$
6D55_FWA_B_2001


 35 40  0  0  0  0  0  0  0  0999 V2000
   37.7715   27.6753   22.0300 C   0  0  0  0  0  0  0  0  0  0  0  0
   37.8712   27.2367   20.6877 C   0  0  0  0  0  0  0  0  0  0  0  0
   36.7402   27.1901   19.9305 C   0  0  0  0  0  0  0  0  0  0  0  0
   35.4851   27.4944   20.2496 C   0  0  0  0  0  0  0  0  0  0  0  0
   36.4816   28.0212   22.4449 C   0  0  0  0  0  0  0  0  0  0  0  0
   34.7993   28.7087   23.6245 C   0  0  0  0  0  0  0  0  0  0  0  0
   35.3895   27.9515   21.5929 C   0  0  0  0  0  0  0  0  0  0  0  0
   36.1297   28.4998   23.7393 N   0  0  0  0  0  0  0  0  0  0  0  0
   34.2857   28.4168   22.3259 N   0  0  0  0  0  0  0  0  0  0  0  0
   36.9421   26.6920   18.2198 Cl  0  0  0  0  0  0  0  0  0  0  0  0
   33.9452   29.0549   24.7118 N   0  0  0  0  0  0  0  0  0  0  0  0
   33.5138   29.9368   26.5223 C   0  0  0  0  0  0  0  0  0  0  0  0
   32.2094   29.7017   27.3747 C   0  0  0  0  0  0  0  0  0  0  0  0
   34.3582   28.7337   26.1063 C   0  0  0  0  0  0  0  0  0  0  0  0
   34.0313   30.9580   27.5461 C   0  0  0  0  0  0  0  0  0  0  0  0
   33.3779   30.4070   25.0328 C   0  0  0  0  0  0  0  0  0  0  0  0
   32.6661   30.8338   28.2864 N   0  0  0  0  0  0  0  0  0  0  0  0
   32.7554   30.5596   29.2648 H   0  0  0  0  0  0  0  0  0  0  0  0
   38.8823   27.7858   22.8584 N   0  0  0  0  0  0  0  0  0  0  0  0
   40.6449   26.7185   24.2180 C   0  0  0  0  0  0  0  0  0  0  0  0
   41.4890   27.9272   24.0621 N   0  0  0  0  0  0  0  0  0  0  0  0
   42.4171   28.0520   25.2389 C   0  0  0  0  0  0  0  0  0  0  0  0
   40.6555   29.1698   23.9441 C   0  0  0  0  0  0  0  0  0  0  0  0
   39.6912   29.0468   22.6952 C   0  0  0  0  0  0  0  0  0  0  0  0
   39.7052   26.6070   22.9856 C   0  0  0  0  0  0  0  0  0  0  0  0
   32.9664   28.6017   21.7482 C   0  0  0  0  0  0  0  0  0  0  0  0
   33.1937   32.2986   20.7848 C   0  0  0  0  0  0  0  0  0  0  0  0
   33.7926   33.6059   21.2651 C   0  0  0  0  0  0  0  0  0  0  0  0
   32.4374   32.2630   19.6317 C   0  0  0  0  0  0  0  0  0  0  0  0
   30.9699   31.1403   17.9597 C   0  0  0  0  0  0  0  0  0  0  0  0
   32.8499   29.8934   21.0033 C   0  0  0  0  0  0  0  0  0  0  0  0
   33.4324   31.1206   21.4879 C   0  0  0  0  0  0  0  0  0  0  0  0
   31.8564   31.0754   19.1826 C   0  0  0  0  0  0  0  0  0  0  0  0
   32.0546   29.8982   19.8468 C   0  0  0  0  0  0  0  0  0  0  0  0
   32.2142   33.3633   18.9071 F   0  0  0  0  0  0  0  0  0  0  0  0
 17 13  1  0  0  0
 17 15  1  0  0  0
 30 33  1  0  0  0
 13 12  1  0  0  0
 35 29  1  0  0  0
 15 12  1  0  0  0
 33 29  2  0  0  0
 33 34  1  0  0  0
 29 27  1  0  0  0
 12 16  1  0  0  0
 12 14  1  0  0  0
 34 31  2  0  0  0
 16 11  1  0  0  0
 27 28  1  0  0  0
 27 32  2  0  0  0
 14 11  1  0  0  0
 31 32  1  0  0  0
 31 26  1  0  0  0
 11  6  1  0  0  0
 26  9  1  0  0  0
  6  9  1  0  0  0
  6  8  2  0  0  0
  9  7  1  0  0  0
  8  5  1  0  0  0
  7  5  2  0  0  0
  7  4  1  0  0  0
  5  1  1  0  0  0
  4  3  2  0  0  0
 25 20  1  0  0  0
 25 19  1  0  0  0
  1 19  1  0  0  0
  1  2  2  0  0  0
 20 21  1  0  0  0
  3  2  1  0  0  0
  3 10  1  0  0  0
 19 24  1  0  0  0
 21 22  1  0  0  0
 21 23  1  0  0  0
 24 23  1  0  0  0
 17 18  1  0  0  0
M  END
> <minimizedAffinity>
-9.79545

$$$$
6D55_FWA_B_2001


 35 40  0  0  0  0  0  0  0  0999 V2000
   33.4144   29.7062   24.0997 C   0  0  0  0  0  0  0  0  0  0  0  0
   32.6882   30.0015   25.2784 C   0  0  0  0  0  0  0  0  0  0  0  0
   33.1972   29.6008   26.4763 C   0  0  0  0  0  0  0  0  0  0  0  0
   34.3169   28.9366   26.7499 C   0  0  0  0  0  0  0  0  0  0  0  0
   34.6114   29.0116   24.3008 C   0  0  0  0  0  0  0  0  0  0  0  0
   36.5066   28.0128   23.9775 C   0  0  0  0  0  0  0  0  0  0  0  0
   35.0539   28.6563   25.5663 C   0  0  0  0  0  0  0  0  0  0  0  0
   35.5184   28.6133   23.2777 N   0  0  0  0  0  0  0  0  0  0  0  0
   36.2969   28.0274   25.3885 N   0  0  0  0  0  0  0  0  0  0  0  0
   32.2659   30.0641   27.9370 Cl  0  0  0  0  0  0  0  0  0  0  0  0
   37.5940   27.3069   23.3849 N   0  0  0  0  0  0  0  0  0  0  0  0
   39.1639   27.0853   22.0705 C   0  0  0  0  0  0  0  0  0  0  0  0
   39.9239   25.7400   21.7606 C   0  0  0  0  0  0  0  0  0  0  0  0
   37.6461   27.1379   21.9061 C   0  0  0  0  0  0  0  0  0  0  0  0
   40.0952   27.8603   21.1266 C   0  0  0  0  0  0  0  0  0  0  0  0
   39.0603   27.5789   23.5549 C   0  0  0  0  0  0  0  0  0  0  0  0
   40.9319   26.5565   20.9614 N   0  0  0  0  0  0  0  0  0  0  0  0
   41.0274   26.2525   19.9924 H   0  0  0  0  0  0  0  0  0  0  0  0
   32.9825   30.1105   22.8418 N   0  0  0  0  0  0  0  0  0  0  0  0
   32.9737   31.7799   21.0232 C   0  0  0  0  0  0  0  0  0  0  0  0
   32.6141   30.7157   20.0558 N   0  0  0  0  0  0  0  0  0  0  0  0
   31.8563   31.3143   18.9029 C   0  0  0  0  0  0  0  0  0  0  0  0
   31.7858   29.6425   20.6999 C   0  0  0  0  0  0  0  0  0  0  0  0
   32.5898   28.9997   21.9021 C   0  0  0  0  0  0  0  0  0  0  0  0
   33.7644   31.1377   22.1964 C   0  0  0  0  0  0  0  0  0  0  0  0
   37.1402   27.6033   26.4918 C   0  0  0  0  0  0  0  0  0  0  0  0
   35.9006   24.5158   28.3832 C   0  0  0  0  0  0  0  0  0  0  0  0
   35.0081   24.1264   29.5452 C   0  0  0  0  0  0  0  0  0  0  0  0
   36.5747   23.5465   27.6697 C   0  0  0  0  0  0  0  0  0  0  0  0
   38.1898   22.7684   25.9390 C   0  0  0  0  0  0  0  0  0  0  0  0
   36.8732   26.1888   26.8980 C   0  0  0  0  0  0  0  0  0  0  0  0
   36.0178   25.8520   28.0093 C   0  0  0  0  0  0  0  0  0  0  0  0
   37.4204   23.8829   26.6108 C   0  0  0  0  0  0  0  0  0  0  0  0
   37.5742   25.1818   26.2165 C   0  0  0  0  0  0  0  0  0  0  0  0
   36.4618   22.2498   27.9719 F   0  0  0  0  0  0  0  0  0  0  0  0
 17 13  1  0  0  0
 17 15  1  0  0  0
 30 33  1  0  0  0
 13 12  1  0  0  0
 35 29  1  0  0  0
 15 12  1  0  0  0
 33 29  2  0  0  0
 33 34  1  0  0  0
 29 27  1  0  0  0
 12 16  1  0  0  0
 12 14  1  0  0  0
 34 31  2  0  0  0
 16 11  1  0  0  0
 27 28  1  0  0  0
 27 32  2  0  0  0
 14 11  1  0  0  0
 31 32  1  0  0  0
 31 26  1  0  0  0
 11  6  1  0  0  0
 26  9  1  0  0  0
  6  9  1  0  0  0
  6  8  2  0  0  0
  9  7  1  0  0  0
  8  5  1  0  0  0
  7  5  2  0  0  0
  7  4  1  0  0  0
  5  1  1  0  0  0
  4  3  2  0  0  0
 25 20  1  0  0  0
 25 19  1  0  0  0
  1 19  1  0  0  0
  1  2  2  0  0  0
 20 21  1  0  0  0
  3  2  1  0  0  0
  3 10  1  0  0  0
 19 24  1  0  0  0
 21 22  1  0  0  0
 21 23  1  0  0  0
 24 23  1  0  0  0
 17 18  1  0  0  0
M  END
> <minimizedAffinity>
-8.78443

$$$$
6D55_FWA_B_2001


 35 40  0  0  0  0  0  0  0  0999 V2000
   35.9491   28.0842   26.8436 C   0  0  0  0  0  0  0  0  0  0  0  0
   34.7596   28.5272   27.4704 C   0  0  0  0  0  0  0  0  0  0  0  0
   34.2485   29.7393   27.1180 C   0  0  0  0  0  0  0  0  0  0  0  0
   34.6990   30.6353   26.2440 C   0  0  0  0  0  0  0  0  0  0  0  0
   36.4870   28.9688   25.9034 C   0  0  0  0  0  0  0  0  0  0  0  0
   37.7391   29.8592   24.3758 C   0  0  0  0  0  0  0  0  0  0  0  0
   35.8842   30.1811   25.6025 C   0  0  0  0  0  0  0  0  0  0  0  0
   37.6655   28.7440   25.1360 N   0  0  0  0  0  0  0  0  0  0  0  0
   36.6632   30.7704   24.5935 N   0  0  0  0  0  0  0  0  0  0  0  0
   32.7042   30.2138   27.8963 Cl  0  0  0  0  0  0  0  0  0  0  0  0
   38.8411   30.1828   23.5317 N   0  0  0  0  0  0  0  0  0  0  0  0
   40.8419   30.4156   23.1027 C   0  0  0  0  0  0  0  0  0  0  0  0
   41.4347   31.1288   21.8286 C   0  0  0  0  0  0  0  0  0  0  0  0
   39.8550   31.1735   23.9887 C   0  0  0  0  0  0  0  0  0  0  0  0
   42.2535   30.0681   23.5981 C   0  0  0  0  0  0  0  0  0  0  0  0
   39.8276   29.2351   22.9140 C   0  0  0  0  0  0  0  0  0  0  0  0
   42.8097   30.6310   22.2561 N   0  0  0  0  0  0  0  0  0  0  0  0
   43.4944   31.3771   22.3786 H   0  0  0  0  0  0  0  0  0  0  0  0
   36.5161   26.8456   27.1203 N   0  0  0  0  0  0  0  0  0  0  0  0
   38.2909   25.5015   28.1870 C   0  0  0  0  0  0  0  0  0  0  0  0
   37.3824   24.3302   28.2093 N   0  0  0  0  0  0  0  0  0  0  0  0
   38.1902   23.0620   28.1760 C   0  0  0  0  0  0  0  0  0  0  0  0
   36.4288   24.3503   27.0504 C   0  0  0  0  0  0  0  0  0  0  0  0
   35.5658   25.6763   27.0949 C   0  0  0  0  0  0  0  0  0  0  0  0
   37.4329   26.7960   28.2338 C   0  0  0  0  0  0  0  0  0  0  0  0
   36.2995   32.0079   23.9266 C   0  0  0  0  0  0  0  0  0  0  0  0
   33.6498   32.6352   21.2373 C   0  0  0  0  0  0  0  0  0  0  0  0
   33.0974   33.7452   20.3648 C   0  0  0  0  0  0  0  0  0  0  0  0
   33.1175   31.3646   21.1652 C   0  0  0  0  0  0  0  0  0  0  0  0
   32.8969   28.9931   21.8977 C   0  0  0  0  0  0  0  0  0  0  0  0
   35.2236   31.8073   22.9072 C   0  0  0  0  0  0  0  0  0  0  0  0
   34.7202   32.8854   22.0921 C   0  0  0  0  0  0  0  0  0  0  0  0
   33.5941   30.3322   21.9755 C   0  0  0  0  0  0  0  0  0  0  0  0
   34.6351   30.5350   22.8367 C   0  0  0  0  0  0  0  0  0  0  0  0
   32.1142   31.0726   20.3323 F   0  0  0  0  0  0  0  0  0  0  0  0
 17 13  1  0  0  0
 17 15  1  0  0  0
 30 33  1  0  0  0
 13 12  1  0  0  0
 35 29  1  0  0  0
 15 12  1  0  0  0
 33 29  2  0  0  0
 33 34  1  0  0  0
 29 27  1  0  0  0
 12 16  1  0  0  0
 12 14  1  0  0  0
 34 31  2  0  0  0
 16 11  1  0  0  0
 27 28  1  0  0  0
 27 32  2  0  0  0
 14 11  1  0  0  0
 31 32  1  0  0  0
 31 26  1  0  0  0
 11  6  1  0  0  0
 26  9  1  0  0  0
  6  9  1  0  0  0
  6  8  2  0  0  0
  9  7  1  0  0  0
  8  5  1  0  0  0
  7  5  2  0  0  0
  7  4  1  0  0  0
  5  1  1  0  0  0
  4  3  2  0  0  0
 25 20  1  0  0  0
 25 19  1  0  0  0
  1 19  1  0  0  0
  1  2  2  0  0  0
 20 21  1  0  0  0
  3  2  1  0  0  0
  3 10  1  0  0  0
 19 24  1  0  0  0
 21 22  1  0  0  0
 21 23  1  0  0  0
 24 23  1  0  0  0
 17 18  1  0  0  0
M  END
> <minimizedAffinity>
-8.49309

$$$$
6D55_FWA_B_2001


 35 40  0  0  0  0  0  0  0  0999 V2000
   40.9690   31.1439   22.9592 C   0  0  0  0  0  0  0  0  0  0  0  0
   41.8854   30.3828   22.1944 C   0  0  0  0  0  0  0  0  0  0  0  0
   41.5880   29.0815   21.9247 C   0  0  0  0  0  0  0  0  0  0  0  0
   40.5313   28.3552   22.2792 C   0  0  0  0  0  0  0  0  0  0  0  0
   39.8238   30.4535   23.3687 C   0  0  0  0  0  0  0  0  0  0  0  0
   37.9013   29.9616   24.2383 C   0  0  0  0  0  0  0  0  0  0  0  0
   39.6034   29.1262   23.0325 C   0  0  0  0  0  0  0  0  0  0  0  0
   38.7558   31.0036   24.1335 N   0  0  0  0  0  0  0  0  0  0  0  0
   38.3483   28.7868   23.5634 N   0  0  0  0  0  0  0  0  0  0  0  0
   42.7544   28.1906   20.8945 Cl  0  0  0  0  0  0  0  0  0  0  0  0
   36.7289   29.9644   25.0489 N   0  0  0  0  0  0  0  0  0  0  0  0
   34.7137   29.7180   25.3949 C   0  0  0  0  0  0  0  0  0  0  0  0
   33.9379   30.1740   26.6885 C   0  0  0  0  0  0  0  0  0  0  0  0
   35.5358   30.7452   24.6188 C   0  0  0  0  0  0  0  0  0  0  0  0
   33.4304   29.1143   24.8054 C   0  0  0  0  0  0  0  0  0  0  0  0
   35.9577   28.7754   25.5434 C   0  0  0  0  0  0  0  0  0  0  0  0
   32.7213   29.4265   26.1570 N   0  0  0  0  0  0  0  0  0  0  0  0
   31.8927   30.0129   26.0577 H   0  0  0  0  0  0  0  0  0  0  0  0
   41.1803   32.4870   23.2482 N   0  0  0  0  0  0  0  0  0  0  0  0
   41.4040   34.3039   24.9046 C   0  0  0  0  0  0  0  0  0  0  0  0
   42.1891   35.0924   23.9250 N   0  0  0  0  0  0  0  0  0  0  0  0
   42.0270   36.5601   24.2102 C   0  0  0  0  0  0  0  0  0  0  0  0
   41.7617   34.8031   22.5156 C   0  0  0  0  0  0  0  0  0  0  0  0
   41.9489   33.2617   22.2090 C   0  0  0  0  0  0  0  0  0  0  0  0
   41.5978   32.7936   24.5953 C   0  0  0  0  0  0  0  0  0  0  0  0
   37.7053   27.5057   23.3319 C   0  0  0  0  0  0  0  0  0  0  0  0
   36.7576   27.2045   19.6363 C   0  0  0  0  0  0  0  0  0  0  0  0
   37.3492   26.8099   18.2973 C   0  0  0  0  0  0  0  0  0  0  0  0
   35.4494   27.6346   19.7182 C   0  0  0  0  0  0  0  0  0  0  0  0
   33.4790   28.5677   20.9249 C   0  0  0  0  0  0  0  0  0  0  0  0
   36.9292   27.4840   22.0536 C   0  0  0  0  0  0  0  0  0  0  0  0
   37.5224   27.1027   20.7954 C   0  0  0  0  0  0  0  0  0  0  0  0
   34.8901   28.0255   20.9364 C   0  0  0  0  0  0  0  0  0  0  0  0
   35.6070   27.9527   22.0971 C   0  0  0  0  0  0  0  0  0  0  0  0
   34.6694   27.7125   18.6360 F   0  0  0  0  0  0  0  0  0  0  0  0
 17 13  1  0  0  0
 17 15  1  0  0  0
 30 33  1  0  0  0
 13 12  1  0  0  0
 35 29  1  0  0  0
 15 12  1  0  0  0
 33 29  2  0  0  0
 33 34  1  0  0  0
 29 27  1  0  0  0
 12 16  1  0  0  0
 12 14  1  0  0  0
 34 31  2  0  0  0
 16 11  1  0  0  0
 27 28  1  0  0  0
 27 32  2  0  0  0
 14 11  1  0  0  0
 31 32  1  0  0  0
 31 26  1  0  0  0
 11  6  1  0  0  0
 26  9  1  0  0  0
  6  9  1  0  0  0
  6  8  2  0  0  0
  9  7  1  0  0  0
  8  5  1  0  0  0
  7  5  2  0  0  0
  7  4  1  0  0  0
  5  1  1  0  0  0
  4  3  2  0  0  0
 25 20  1  0  0  0
 25 19  1  0  0  0
  1 19  1  0  0  0
  1  2  2  0  0  0
 20 21  1  0  0  0
  3  2  1  0  0  0
  3 10  1  0  0  0
 19 24  1  0  0  0
 21 22  1  0  0  0
 21 23  1  0  0  0
 24 23  1  0  0  0
 17 18  1  0  0  0
M  END
> <minimizedAffinity>
-8.43305

$$$$
