2RA6_ETY_A_604


 10 10  0  0  0  0  0  0  0  0999 V2000
   25.5643   37.9913   42.5371 C   0  0  0  0  0  0  0  0  0  0  0  0
   24.9151   37.5734   41.3477 C   0  0  0  0  0  0  0  0  0  0  0  0
   23.5170   37.7052   41.1990 C   0  0  0  0  0  0  0  0  0  0  0  0
   24.7744   38.5503   43.5815 C   0  0  0  0  0  0  0  0  0  0  0  0
   23.3767   38.6858   43.4422 C   0  0  0  0  0  0  0  0  0  0  0  0
   22.7559   38.2611   42.2467 C   0  0  0  0  0  0  0  0  0  0  0  0
   21.3999   38.3890   42.1058 O   0  0  0  0  0  0  0  0  0  0  0  0
   20.9825   38.1090   41.3150 H   0  0  0  0  0  0  0  0  0  0  0  0
   27.4635   37.2072   44.0221 C   0  0  0  0  0  0  0  0  0  0  0  0
   27.0511   37.8509   42.6941 C   0  0  0  0  0  0  0  0  0  0  0  0
  9 10  1  0  0  0
 10  1  1  0  0  0
  1  2  2  0  0  0
  1  4  1  0  0  0
  2  3  1  0  0  0
  3  6  2  0  0  0
  4  5  2  0  0  0
  5  6  1  0  0  0
  6  7  1  0  0  0
  7  8  1  0  0  0
M  END
> <minimizedAffinity>
-6.56265

$$$$
2RA6_ETY_A_604


 10 10  0  0  0  0  0  0  0  0999 V2000
   25.5702   37.9954   42.5649 C   0  0  0  0  0  0  0  0  0  0  0  0
   24.7772   38.5559   43.5982 C   0  0  0  0  0  0  0  0  0  0  0  0
   23.3798   38.6928   43.4478 C   0  0  0  0  0  0  0  0  0  0  0  0
   24.9254   37.5702   41.3686 C   0  0  0  0  0  0  0  0  0  0  0  0
   23.5296   37.7033   41.2091 C   0  0  0  0  0  0  0  0  0  0  0  0
   22.7639   38.2653   42.2544 C   0  0  0  0  0  0  0  0  0  0  0  0
   21.4093   38.3979   42.1053 O   0  0  0  0  0  0  0  0  0  0  0  0
   20.8961   38.7700   42.7953 H   0  0  0  0  0  0  0  0  0  0  0  0
   27.4629   37.2081   44.0565 C   0  0  0  0  0  0  0  0  0  0  0  0
   27.0561   37.8501   42.7259 C   0  0  0  0  0  0  0  0  0  0  0  0
  9 10  1  0  0  0
 10  1  1  0  0  0
  1  2  2  0  0  0
  1  4  1  0  0  0
  2  3  1  0  0  0
  3  6  2  0  0  0
  4  5  2  0  0  0
  5  6  1  0  0  0
  6  7  1  0  0  0
  7  8  1  0  0  0
M  END
> <minimizedAffinity>
-6.55923

$$$$
2RA6_ETY_A_604


 10 10  0  0  0  0  0  0  0  0999 V2000
   25.2606   37.9091   42.5641 C   0  0  0  0  0  0  0  0  0  0  0  0
   24.0814   37.3059   42.0578 C   0  0  0  0  0  0  0  0  0  0  0  0
   22.8073   37.8313   42.3661 C   0  0  0  0  0  0  0  0  0  0  0  0
   25.1330   39.0611   43.3912 C   0  0  0  0  0  0  0  0  0  0  0  0
   23.8642   39.5931   43.7049 C   0  0  0  0  0  0  0  0  0  0  0  0
   22.7060   38.9721   43.1873 C   0  0  0  0  0  0  0  0  0  0  0  0
   21.4720   39.4831   43.4889 O   0  0  0  0  0  0  0  0  0  0  0  0
   20.7001   39.0753   43.1484 H   0  0  0  0  0  0  0  0  0  0  0  0
   27.5879   37.3801   43.4188 C   0  0  0  0  0  0  0  0  0  0  0  0
   26.6149   37.3497   42.2355 C   0  0  0  0  0  0  0  0  0  0  0  0
  9 10  1  0  0  0
 10  1  1  0  0  0
  1  2  2  0  0  0
  1  4  1  0  0  0
  2  3  1  0  0  0
  3  6  2  0  0  0
  4  5  2  0  0  0
  5  6  1  0  0  0
  6  7  1  0  0  0
  7  8  1  0  0  0
M  END
> <minimizedAffinity>
-5.48961

$$$$
2RA6_ETY_A_604


 10 10  0  0  0  0  0  0  0  0999 V2000
   23.8528   38.5460   43.2749 C   0  0  0  0  0  0  0  0  0  0  0  0
   25.1446   39.0476   42.9744 C   0  0  0  0  0  0  0  0  0  0  0  0
   25.7593   38.7731   41.7330 C   0  0  0  0  0  0  0  0  0  0  0  0
   23.1849   37.7585   42.2944 C   0  0  0  0  0  0  0  0  0  0  0  0
   23.7912   37.4787   41.0513 C   0  0  0  0  0  0  0  0  0  0  0  0
   25.0790   37.9908   40.7784 C   0  0  0  0  0  0  0  0  0  0  0  0
   25.6730   37.7221   39.5743 O   0  0  0  0  0  0  0  0  0  0  0  0
   26.5271   38.0591   39.3877 H   0  0  0  0  0  0  0  0  0  0  0  0
   24.0503   38.4199   45.7992 C   0  0  0  0  0  0  0  0  0  0  0  0
   23.2000   38.8386   44.5952 C   0  0  0  0  0  0  0  0  0  0  0  0
  9 10  1  0  0  0
 10  1  1  0  0  0
  1  2  2  0  0  0
  1  4  1  0  0  0
  2  3  1  0  0  0
  3  6  2  0  0  0
  4  5  2  0  0  0
  5  6  1  0  0  0
  6  7  1  0  0  0
  7  8  1  0  0  0
M  END
> <minimizedAffinity>
-5.34943

$$$$
2RA6_ETY_A_604


 10 10  0  0  0  0  0  0  0  0999 V2000
   23.8316   38.5502   43.2793 C   0  0  0  0  0  0  0  0  0  0  0  0
   23.1625   37.7546   42.3149 C   0  0  0  0  0  0  0  0  0  0  0  0
   23.7619   37.4667   41.0691 C   0  0  0  0  0  0  0  0  0  0  0  0
   25.1261   39.0532   42.9649 C   0  0  0  0  0  0  0  0  0  0  0  0
   25.7330   38.7711   41.7226 C   0  0  0  0  0  0  0  0  0  0  0  0
   25.0438   37.9761   40.7802 C   0  0  0  0  0  0  0  0  0  0  0  0
   25.6270   37.6997   39.5726 O   0  0  0  0  0  0  0  0  0  0  0  0
   25.1746   37.1728   38.9435 H   0  0  0  0  0  0  0  0  0  0  0  0
   24.0346   38.4032   45.8020 C   0  0  0  0  0  0  0  0  0  0  0  0
   23.1934   38.8556   44.6038 C   0  0  0  0  0  0  0  0  0  0  0  0
  9 10  1  0  0  0
 10  1  1  0  0  0
  1  2  2  0  0  0
  1  4  1  0  0  0
  2  3  1  0  0  0
  3  6  2  0  0  0
  4  5  2  0  0  0
  5  6  1  0  0  0
  6  7  1  0  0  0
  7  8  1  0  0  0
M  END
> <minimizedAffinity>
-5.34332

$$$$
2RA6_ETY_A_604


 10 10  0  0  0  0  0  0  0  0999 V2000
   24.9636   39.5436   42.4139 C   0  0  0  0  0  0  0  0  0  0  0  0
   24.2258   39.6590   43.6194 C   0  0  0  0  0  0  0  0  0  0  0  0
   23.0732   38.8743   43.8430 C   0  0  0  0  0  0  0  0  0  0  0  0
   24.5175   38.6152   41.4308 C   0  0  0  0  0  0  0  0  0  0  0  0
   23.3668   37.8270   41.6452 C   0  0  0  0  0  0  0  0  0  0  0  0
   22.6506   37.9625   42.8551 C   0  0  0  0  0  0  0  0  0  0  0  0
   21.5327   37.2012   43.0687 O   0  0  0  0  0  0  0  0  0  0  0  0
   21.0536   37.2867   43.8693 H   0  0  0  0  0  0  0  0  0  0  0  0
   25.9956   41.4492   41.0984 C   0  0  0  0  0  0  0  0  0  0  0  0
   26.1892   40.3783   42.1771 C   0  0  0  0  0  0  0  0  0  0  0  0
  9 10  1  0  0  0
 10  1  1  0  0  0
  1  2  2  0  0  0
  1  4  1  0  0  0
  2  3  1  0  0  0
  3  6  2  0  0  0
  4  5  2  0  0  0
  5  6  1  0  0  0
  6  7  1  0  0  0
  7  8  1  0  0  0
M  END
> <minimizedAffinity>
-5.05458

$$$$
2RA6_ETY_A_604


 10 10  0  0  0  0  0  0  0  0999 V2000
   25.6715   39.3212   41.9797 C   0  0  0  0  0  0  0  0  0  0  0  0
   26.4895   38.2152   42.3236 C   0  0  0  0  0  0  0  0  0  0  0  0
   26.0213   36.8914   42.1730 C   0  0  0  0  0  0  0  0  0  0  0  0
   24.3640   39.0683   41.4757 C   0  0  0  0  0  0  0  0  0  0  0  0
   23.8874   37.7490   41.3219 C   0  0  0  0  0  0  0  0  0  0  0  0
   24.7233   36.6658   41.6725 C   0  0  0  0  0  0  0  0  0  0  0  0
   24.2663   35.3834   41.5265 O   0  0  0  0  0  0  0  0  0  0  0  0
   24.8163   34.6608   41.7575 H   0  0  0  0  0  0  0  0  0  0  0  0
   25.9258   41.6038   40.9064 C   0  0  0  0  0  0  0  0  0  0  0  0
   26.1703   40.7285   42.1401 C   0  0  0  0  0  0  0  0  0  0  0  0
  9 10  1  0  0  0
 10  1  1  0  0  0
  1  2  2  0  0  0
  1  4  1  0  0  0
  2  3  1  0  0  0
  3  6  2  0  0  0
  4  5  2  0  0  0
  5  6  1  0  0  0
  6  7  1  0  0  0
  7  8  1  0  0  0
M  END
> <minimizedAffinity>
-4.59474

$$$$
2RA6_ETY_A_604


 10 10  0  0  0  0  0  0  0  0999 V2000
   25.5631   39.3024   42.0012 C   0  0  0  0  0  0  0  0  0  0  0  0
   24.2246   39.0090   41.6363 C   0  0  0  0  0  0  0  0  0  0  0  0
   23.7894   37.6741   41.4849 C   0  0  0  0  0  0  0  0  0  0  0  0
   26.4620   38.2190   42.2144 C   0  0  0  0  0  0  0  0  0  0  0  0
   26.0364   36.8819   42.0652 C   0  0  0  0  0  0  0  0  0  0  0  0
   24.6975   36.6182   41.7008 C   0  0  0  0  0  0  0  0  0  0  0  0
   24.2787   35.3229   41.5536 O   0  0  0  0  0  0  0  0  0  0  0  0
   23.3917   35.1419   41.3119 H   0  0  0  0  0  0  0  0  0  0  0  0
   25.9450   41.5373   40.8670 C   0  0  0  0  0  0  0  0  0  0  0  0
   26.0247   40.7223   42.1621 C   0  0  0  0  0  0  0  0  0  0  0  0
  9 10  1  0  0  0
 10  1  1  0  0  0
  1  2  2  0  0  0
  1  4  1  0  0  0
  2  3  1  0  0  0
  3  6  2  0  0  0
  4  5  2  0  0  0
  5  6  1  0  0  0
  6  7  1  0  0  0
  7  8  1  0  0  0
M  END
> <minimizedAffinity>
-4.58087

$$$$
2RA6_ETY_A_604


 10 10  0  0  0  0  0  0  0  0999 V2000
   24.4507   38.0256   41.9438 C   0  0  0  0  0  0  0  0  0  0  0  0
   25.1618   39.1240   42.4902 C   0  0  0  0  0  0  0  0  0  0  0  0
   26.4669   38.9605   43.0043 C   0  0  0  0  0  0  0  0  0  0  0  0
   25.0830   36.7500   41.9226 C   0  0  0  0  0  0  0  0  0  0  0  0
   26.3866   36.5768   42.4343 C   0  0  0  0  0  0  0  0  0  0  0  0
   27.0721   37.6881   42.9730 C   0  0  0  0  0  0  0  0  0  0  0  0
   28.3369   37.5264   43.4719 O   0  0  0  0  0  0  0  0  0  0  0  0
   28.7964   38.2600   43.8305 H   0  0  0  0  0  0  0  0  0  0  0  0
   22.0090   38.4442   42.4824 C   0  0  0  0  0  0  0  0  0  0  0  0
   23.0631   38.2006   41.3972 C   0  0  0  0  0  0  0  0  0  0  0  0
  9 10  1  0  0  0
 10  1  1  0  0  0
  1  2  2  0  0  0
  1  4  1  0  0  0
  2  3  1  0  0  0
  3  6  2  0  0  0
  4  5  2  0  0  0
  5  6  1  0  0  0
  6  7  1  0  0  0
  7  8  1  0  0  0
M  END
> <minimizedAffinity>
-4.44459

$$$$
2RA6_ETY_A_604


 10 10  0  0  0  0  0  0  0  0999 V2000
   24.8236   37.9649   42.2353 C   0  0  0  0  0  0  0  0  0  0  0  0
   23.8155   38.3011   43.1742 C   0  0  0  0  0  0  0  0  0  0  0  0
   23.7202   39.6080   43.7004 C   0  0  0  0  0  0  0  0  0  0  0  0
   25.7401   38.9770   41.8313 C   0  0  0  0  0  0  0  0  0  0  0  0
   25.6529   40.2857   42.3518 C   0  0  0  0  0  0  0  0  0  0  0  0
   24.6390   40.5930   43.2859 C   0  0  0  0  0  0  0  0  0  0  0  0
   24.5498   41.8608   43.7954 O   0  0  0  0  0  0  0  0  0  0  0  0
   23.8793   42.0705   44.4153 H   0  0  0  0  0  0  0  0  0  0  0  0
   26.2585   35.8896   41.9880 C   0  0  0  0  0  0  0  0  0  0  0  0
   24.9239   36.5749   41.6762 C   0  0  0  0  0  0  0  0  0  0  0  0
  9 10  1  0  0  0
 10  1  1  0  0  0
  1  2  2  0  0  0
  1  4  1  0  0  0
  2  3  1  0  0  0
  3  6  2  0  0  0
  4  5  2  0  0  0
  5  6  1  0  0  0
  6  7  1  0  0  0
  7  8  1  0  0  0
M  END
> <minimizedAffinity>
-4.18783

$$$$
