2ZFS_12U_A_501


 34 36  0  0  0  0  0  0  0  0999 V2000
   28.7062   -1.2901   16.7771 C   0  0  0  0  0  0  0  0  0  0  0  0
   27.5177   -1.2586   17.1087 O   0  0  0  0  0  0  0  0  0  0  0  0
   28.9731   -0.9167   15.5631 N   0  0  0  0  0  0  0  0  0  0  0  0
   28.1274   -0.5073   14.7093 C   0  0  0  0  0  0  0  0  0  0  0  0
   28.9114    0.1005   13.5409 C   0  0  0  0  0  0  0  0  0  0  0  0
   30.2736   -0.5184   13.6212 C   0  0  0  0  0  0  0  0  0  0  0  0
   30.3726   -0.9124   15.0882 C   0  0  0  0  0  0  0  0  0  0  0  0
   27.1314   -1.4102   14.1320 C   0  0  0  0  0  0  0  0  0  0  0  0
   27.4224   -2.2621   13.2932 O   0  0  0  0  0  0  0  0  0  0  0  0
   25.8760   -1.3474   14.4564 N   0  0  0  0  0  0  0  0  0  0  0  0
   25.6552   -0.7573   15.2130 H   0  0  0  0  0  0  0  0  0  0  0  0
   24.7749   -2.0282   13.8521 C   0  0  0  0  0  0  0  0  0  0  0  0
   23.5009   -1.7919   14.6533 C   0  0  0  0  0  0  0  0  0  0  0  0
   22.4264   -1.0100   14.3020 C   0  0  0  0  0  0  0  0  0  0  0  0
   21.3262   -0.9117   15.1796 C   0  0  0  0  0  0  0  0  0  0  0  0
   21.1958   -1.5458   16.4231 C   0  0  0  0  0  0  0  0  0  0  0  0
   22.2697   -2.3272   16.7690 C   0  0  0  0  0  0  0  0  0  0  0  0
   23.3755   -2.4319   15.8992 C   0  0  0  0  0  0  0  0  0  0  0  0
   19.9469   -1.3502   17.2626 C   0  0  0  0  0  0  0  0  0  0  0  0
   19.7762   -2.2000   18.2606 N   0  0  0  0  0  0  0  0  0  0  0  0
   19.0695   -0.3881   17.0195 N   0  0  0  0  0  0  0  0  0  0  0  0
   20.4408   -2.9078   18.4236 H   0  0  0  0  0  0  0  0  0  0  0  0
   19.2161    0.2341   16.2708 H   0  0  0  0  0  0  0  0  0  0  0  0
   18.2707   -0.2954   17.5875 H   0  0  0  0  0  0  0  0  0  0  0  0
   29.7134   -1.7004   17.8199 C   0  0  0  0  0  0  0  0  0  0  0  0
   29.6025   -0.8050   19.0036 N   0  0  0  0  0  0  0  0  0  0  0  0
   30.2431   -1.1536   19.7166 H   0  0  0  0  0  0  0  0  0  0  0  0
   29.9117    0.6247   18.7825 C   0  0  0  0  0  0  0  0  0  0  0  0
   31.3042    0.9636   19.2015 C   0  0  0  0  0  0  0  0  0  0  0  0
   31.3060    1.2889   20.6774 C   0  0  0  0  0  0  0  0  0  0  0  0
   31.0866    2.7307   21.0240 C   0  0  0  0  0  0  0  0  0  0  0  0
   29.7863    3.2302   20.5961 C   0  0  0  0  0  0  0  0  0  0  0  0
   29.3947    2.5722   19.3534 C   0  0  0  0  0  0  0  0  0  0  0  0
   28.7789    1.2508   19.2434 C   0  0  0  0  0  0  0  0  0  0  0  0
  9  8  2  0  0  0
  8 10  1  0  0  0
  8  4  1  0  0  0
 10 12  1  0  0  0
 12 13  1  0  0  0
 13 18  2  0  0  0
 13 14  1  0  0  0
 18 17  1  0  0  0
 17 16  2  0  0  0
 16 19  1  0  0  0
 16 15  1  0  0  0
 19 20  2  0  0  0
 19 21  1  0  0  0
 15 14  2  0  0  0
  4  5  1  0  0  0
  4  3  1  0  0  0
  5  6  1  0  0  0
  6  7  1  0  0  0
  7  3  1  0  0  0
  3  1  1  0  0  0
  1  2  2  0  0  0
  1 25  1  0  0  0
 25 26  1  0  0  0
 26 28  1  0  0  0
 28 29  1  0  0  0
 28 34  1  0  0  0
 29 30  1  0  0  0
 30 31  1  0  0  0
 31 32  1  0  0  0
 32 33  1  0  0  0
 33 34  1  0  0  0
 26 27  1  0  0  0
 10 11  1  0  0  0
 20 22  1  0  0  0
 21 23  1  0  0  0
 21 24  1  0  0  0
M  END
> <minimizedAffinity>
-9.20879

$$$$
2ZFS_12U_A_501


 34 36  0  0  0  0  0  0  0  0999 V2000
   28.8100   -0.9928   16.7693 C   0  0  0  0  0  0  0  0  0  0  0  0
   27.6256   -0.9166   17.1085 O   0  0  0  0  0  0  0  0  0  0  0  0
   29.0613   -0.7855   15.5130 N   0  0  0  0  0  0  0  0  0  0  0  0
   28.2047   -0.4938   14.6226 C   0  0  0  0  0  0  0  0  0  0  0  0
   28.9735   -0.0484   13.3737 C   0  0  0  0  0  0  0  0  0  0  0  0
   30.3374   -0.6517   13.5193 C   0  0  0  0  0  0  0  0  0  0  0  0
   30.4549   -0.8456   15.0245 C   0  0  0  0  0  0  0  0  0  0  0  0
   27.2027   -1.4654   14.1838 C   0  0  0  0  0  0  0  0  0  0  0  0
   27.5031   -2.4930   13.5774 O   0  0  0  0  0  0  0  0  0  0  0  0
   25.9337   -1.2856   14.3901 N   0  0  0  0  0  0  0  0  0  0  0  0
   25.6949   -0.5340   14.9794 H   0  0  0  0  0  0  0  0  0  0  0  0
   24.8405   -2.0431   13.8683 C   0  0  0  0  0  0  0  0  0  0  0  0
   23.6312   -1.9317   14.7880 C   0  0  0  0  0  0  0  0  0  0  0  0
   23.4692   -2.5033   16.0275 C   0  0  0  0  0  0  0  0  0  0  0  0
   22.2696   -2.2863   16.7378 C   0  0  0  0  0  0  0  0  0  0  0  0
   21.1754   -1.5231   16.3073 C   0  0  0  0  0  0  0  0  0  0  0  0
   21.3420   -0.9525   15.0704 C   0  0  0  0  0  0  0  0  0  0  0  0
   22.5373   -1.1635   14.3511 C   0  0  0  0  0  0  0  0  0  0  0  0
   19.9454   -1.3737   17.1835 C   0  0  0  0  0  0  0  0  0  0  0  0
   19.8394   -2.2243   18.1897 N   0  0  0  0  0  0  0  0  0  0  0  0
   19.0228   -0.4491   16.9632 N   0  0  0  0  0  0  0  0  0  0  0  0
   20.5368   -2.9038   18.3354 H   0  0  0  0  0  0  0  0  0  0  0  0
   19.1214    0.1745   16.2079 H   0  0  0  0  0  0  0  0  0  0  0  0
   18.2384   -0.3856   17.5548 H   0  0  0  0  0  0  0  0  0  0  0  0
   29.8304   -1.2602   17.8451 C   0  0  0  0  0  0  0  0  0  0  0  0
   30.4674    0.0190   18.2609 N   0  0  0  0  0  0  0  0  0  0  0  0
   30.1090    0.7555   17.6530 H   0  0  0  0  0  0  0  0  0  0  0  0
   30.2453    0.4441   19.6603 C   0  0  0  0  0  0  0  0  0  0  0  0
   28.9704    1.2060   19.8141 C   0  0  0  0  0  0  0  0  0  0  0  0
   29.2316    2.6637   19.5124 C   0  0  0  0  0  0  0  0  0  0  0  0
   29.6213    3.5094   20.6871 C   0  0  0  0  0  0  0  0  0  0  0  0
   30.8728    3.0895   21.3041 C   0  0  0  0  0  0  0  0  0  0  0  0
   31.0051    1.6392   21.2032 C   0  0  0  0  0  0  0  0  0  0  0  0
   31.4848    0.9043   20.0339 C   0  0  0  0  0  0  0  0  0  0  0  0
  9  8  2  0  0  0
  8 10  1  0  0  0
  8  4  1  0  0  0
 10 12  1  0  0  0
 12 13  1  0  0  0
 13 18  2  0  0  0
 13 14  1  0  0  0
 18 17  1  0  0  0
 17 16  2  0  0  0
 16 19  1  0  0  0
 16 15  1  0  0  0
 19 20  2  0  0  0
 19 21  1  0  0  0
 15 14  2  0  0  0
  4  5  1  0  0  0
  4  3  1  0  0  0
  5  6  1  0  0  0
  6  7  1  0  0  0
  7  3  1  0  0  0
  3  1  1  0  0  0
  1  2  2  0  0  0
  1 25  1  0  0  0
 25 26  1  0  0  0
 26 28  1  0  0  0
 28 29  1  0  0  0
 28 34  1  0  0  0
 29 30  1  0  0  0
 30 31  1  0  0  0
 31 32  1  0  0  0
 32 33  1  0  0  0
 33 34  1  0  0  0
 26 27  1  0  0  0
 10 11  1  0  0  0
 20 22  1  0  0  0
 21 23  1  0  0  0
 21 24  1  0  0  0
M  END
> <minimizedAffinity>
-9.01353

$$$$
2ZFS_12U_A_501


 34 36  0  0  0  0  0  0  0  0999 V2000
   28.1465   -1.1951   16.7514 C   0  0  0  0  0  0  0  0  0  0  0  0
   26.9375   -0.9970   16.9024 O   0  0  0  0  0  0  0  0  0  0  0  0
   28.6301   -0.9233   15.5781 N   0  0  0  0  0  0  0  0  0  0  0  0
   27.9759   -0.4569   14.5951 C   0  0  0  0  0  0  0  0  0  0  0  0
   28.9913   -0.0154   13.5353 C   0  0  0  0  0  0  0  0  0  0  0  0
   30.2346   -0.7954   13.8373 C   0  0  0  0  0  0  0  0  0  0  0  0
   30.0711   -1.1201   15.3155 C   0  0  0  0  0  0  0  0  0  0  0  0
   26.9617   -1.2570   13.9082 C   0  0  0  0  0  0  0  0  0  0  0  0
   27.1825   -1.8224   12.8379 O   0  0  0  0  0  0  0  0  0  0  0  0
   25.7602   -1.3966   14.3797 N   0  0  0  0  0  0  0  0  0  0  0  0
   25.6120   -1.0539   15.2906 H   0  0  0  0  0  0  0  0  0  0  0  0
   24.6264   -1.9859   13.7409 C   0  0  0  0  0  0  0  0  0  0  0  0
   23.3706   -1.7569   14.5724 C   0  0  0  0  0  0  0  0  0  0  0  0
   22.2765   -0.9940   14.2401 C   0  0  0  0  0  0  0  0  0  0  0  0
   21.1984   -0.8997   15.1452 C   0  0  0  0  0  0  0  0  0  0  0  0
   21.1095   -1.5198   16.3993 C   0  0  0  0  0  0  0  0  0  0  0  0
   22.2028   -2.2822   16.7263 C   0  0  0  0  0  0  0  0  0  0  0  0
   23.2868   -2.3828   15.8289 C   0  0  0  0  0  0  0  0  0  0  0  0
   19.8804   -1.3307   17.2690 C   0  0  0  0  0  0  0  0  0  0  0  0
   19.7604   -2.1542   18.2959 N   0  0  0  0  0  0  0  0  0  0  0  0
   18.9717   -0.3986   17.0238 N   0  0  0  0  0  0  0  0  0  0  0  0
   20.4475   -2.8399   18.4600 H   0  0  0  0  0  0  0  0  0  0  0  0
   19.0807    0.2045   16.2534 H   0  0  0  0  0  0  0  0  0  0  0  0
   18.1874   -0.3089   17.6121 H   0  0  0  0  0  0  0  0  0  0  0  0
   28.9321   -1.6726   17.9451 C   0  0  0  0  0  0  0  0  0  0  0  0
   29.3496   -0.5060   18.7697 N   0  0  0  0  0  0  0  0  0  0  0  0
   29.3408    0.3176   18.1680 H   0  0  0  0  0  0  0  0  0  0  0  0
   28.5196   -0.2041   19.9563 C   0  0  0  0  0  0  0  0  0  0  0  0
   29.2429    0.6610   20.9352 C   0  0  0  0  0  0  0  0  0  0  0  0
   30.0646   -0.2170   21.8507 C   0  0  0  0  0  0  0  0  0  0  0  0
   29.3752   -0.6753   23.1005 C   0  0  0  0  0  0  0  0  0  0  0  0
   28.2071   -1.5058   22.8376 C   0  0  0  0  0  0  0  0  0  0  0  0
   27.5584   -1.0618   21.6076 C   0  0  0  0  0  0  0  0  0  0  0  0
   27.9615   -1.4247   20.2499 C   0  0  0  0  0  0  0  0  0  0  0  0
  9  8  2  0  0  0
  8 10  1  0  0  0
  8  4  1  0  0  0
 10 12  1  0  0  0
 12 13  1  0  0  0
 13 18  2  0  0  0
 13 14  1  0  0  0
 18 17  1  0  0  0
 17 16  2  0  0  0
 16 19  1  0  0  0
 16 15  1  0  0  0
 19 20  2  0  0  0
 19 21  1  0  0  0
 15 14  2  0  0  0
  4  5  1  0  0  0
  4  3  1  0  0  0
  5  6  1  0  0  0
  6  7  1  0  0  0
  7  3  1  0  0  0
  3  1  1  0  0  0
  1  2  2  0  0  0
  1 25  1  0  0  0
 25 26  1  0  0  0
 26 28  1  0  0  0
 28 29  1  0  0  0
 28 34  1  0  0  0
 29 30  1  0  0  0
 30 31  1  0  0  0
 31 32  1  0  0  0
 32 33  1  0  0  0
 33 34  1  0  0  0
 26 27  1  0  0  0
 10 11  1  0  0  0
 20 22  1  0  0  0
 21 23  1  0  0  0
 21 24  1  0  0  0
M  END
> <minimizedAffinity>
-8.27903

$$$$
2ZFS_12U_A_501


 34 36  0  0  0  0  0  0  0  0999 V2000
   27.7142   -1.6308   18.1704 C   0  0  0  0  0  0  0  0  0  0  0  0
   26.6529   -1.0180   18.0221 O   0  0  0  0  0  0  0  0  0  0  0  0
   28.3959   -1.8664   17.0914 N   0  0  0  0  0  0  0  0  0  0  0  0
   28.0762   -1.5048   15.9171 C   0  0  0  0  0  0  0  0  0  0  0  0
   29.2980   -1.7279   15.0190 C   0  0  0  0  0  0  0  0  0  0  0  0
   30.1255   -2.7527   15.7334 C   0  0  0  0  0  0  0  0  0  0  0  0
   29.6848   -2.5841   17.1806 C   0  0  0  0  0  0  0  0  0  0  0  0
   26.9263   -2.0902   15.2277 C   0  0  0  0  0  0  0  0  0  0  0  0
   26.8691   -3.2852   14.9400 O   0  0  0  0  0  0  0  0  0  0  0  0
   25.9080   -1.3745   14.8587 N   0  0  0  0  0  0  0  0  0  0  0  0
   25.8885   -0.4484   15.1921 H   0  0  0  0  0  0  0  0  0  0  0  0
   24.8121   -1.7637   14.0289 C   0  0  0  0  0  0  0  0  0  0  0  0
   23.5002   -1.6495   14.7948 C   0  0  0  0  0  0  0  0  0  0  0  0
   22.3557   -0.9996   14.3985 C   0  0  0  0  0  0  0  0  0  0  0  0
   21.2296   -1.0016   15.2484 C   0  0  0  0  0  0  0  0  0  0  0  0
   21.1383   -1.6152   16.5055 C   0  0  0  0  0  0  0  0  0  0  0  0
   22.2823   -2.2648   16.8964 C   0  0  0  0  0  0  0  0  0  0  0  0
   23.4144   -2.2685   16.0546 C   0  0  0  0  0  0  0  0  0  0  0  0
   19.8548   -1.5378   17.3114 C   0  0  0  0  0  0  0  0  0  0  0  0
   19.0439   -0.5350   17.0215 N   0  0  0  0  0  0  0  0  0  0  0  0
   19.5528   -2.4172   18.2548 N   0  0  0  0  0  0  0  0  0  0  0  0
   19.2878    0.1074   16.3165 H   0  0  0  0  0  0  0  0  0  0  0  0
   20.1712   -3.1566   18.4547 H   0  0  0  0  0  0  0  0  0  0  0  0
   18.7098   -2.3313   18.7561 H   0  0  0  0  0  0  0  0  0  0  0  0
   28.1268   -1.9866   19.5750 C   0  0  0  0  0  0  0  0  0  0  0  0
   28.0685   -0.7747   20.4370 N   0  0  0  0  0  0  0  0  0  0  0  0
   27.7246   -1.0626   21.3531 H   0  0  0  0  0  0  0  0  0  0  0  0
   29.3402   -0.0477   20.6427 C   0  0  0  0  0  0  0  0  0  0  0  0
   29.3493    1.2676   19.9359 C   0  0  0  0  0  0  0  0  0  0  0  0
   29.8105    1.0553   18.5124 C   0  0  0  0  0  0  0  0  0  0  0  0
   31.2876    1.1724   18.2849 C   0  0  0  0  0  0  0  0  0  0  0  0
   32.0595    0.1750   19.0148 C   0  0  0  0  0  0  0  0  0  0  0  0
   31.4026   -0.1179   20.2851 C   0  0  0  0  0  0  0  0  0  0  0  0
   30.2804   -1.0355   20.4751 C   0  0  0  0  0  0  0  0  0  0  0  0
  9  8  2  0  0  0
  8 10  1  0  0  0
  8  4  1  0  0  0
 10 12  1  0  0  0
 12 13  1  0  0  0
 13 18  2  0  0  0
 13 14  1  0  0  0
 18 17  1  0  0  0
 17 16  2  0  0  0
 16 19  1  0  0  0
 16 15  1  0  0  0
 19 20  2  0  0  0
 19 21  1  0  0  0
 15 14  2  0  0  0
  4  5  1  0  0  0
  4  3  1  0  0  0
  5  6  1  0  0  0
  6  7  1  0  0  0
  7  3  1  0  0  0
  3  1  1  0  0  0
  1  2  2  0  0  0
  1 25  1  0  0  0
 25 26  1  0  0  0
 26 28  1  0  0  0
 28 29  1  0  0  0
 28 34  1  0  0  0
 29 30  1  0  0  0
 30 31  1  0  0  0
 31 32  1  0  0  0
 32 33  1  0  0  0
 33 34  1  0  0  0
 26 27  1  0  0  0
 10 11  1  0  0  0
 20 22  1  0  0  0
 21 23  1  0  0  0
 21 24  1  0  0  0
M  END
> <minimizedAffinity>
-8.10253

$$$$
2ZFS_12U_A_501


 34 36  0  0  0  0  0  0  0  0999 V2000
   28.9781   -2.0112   16.6235 C   0  0  0  0  0  0  0  0  0  0  0  0
   27.8554   -2.0394   17.1358 O   0  0  0  0  0  0  0  0  0  0  0  0
   29.0649   -1.4362   15.4632 N   0  0  0  0  0  0  0  0  0  0  0  0
   28.1085   -0.8897   14.8319 C   0  0  0  0  0  0  0  0  0  0  0  0
   28.7188   -0.0902   13.6754 C   0  0  0  0  0  0  0  0  0  0  0  0
   30.0621   -0.7104   13.4384 C   0  0  0  0  0  0  0  0  0  0  0  0
   30.3750   -1.3478   14.7849 C   0  0  0  0  0  0  0  0  0  0  0  0
   27.0146   -1.6837   14.2722 C   0  0  0  0  0  0  0  0  0  0  0  0
   27.2103   -2.7205   13.6391 O   0  0  0  0  0  0  0  0  0  0  0  0
   25.7727   -1.3253   14.3928 N   0  0  0  0  0  0  0  0  0  0  0  0
   25.5991   -0.5697   14.9996 H   0  0  0  0  0  0  0  0  0  0  0  0
   24.6267   -1.8910   13.7543 C   0  0  0  0  0  0  0  0  0  0  0  0
   23.3835   -1.6757   14.6082 C   0  0  0  0  0  0  0  0  0  0  0  0
   22.2970   -0.8858   14.3170 C   0  0  0  0  0  0  0  0  0  0  0  0
   21.2302   -0.8104   15.2373 C   0  0  0  0  0  0  0  0  0  0  0  0
   21.1462   -1.4756   16.4684 C   0  0  0  0  0  0  0  0  0  0  0  0
   22.2320   -2.2649   16.7542 C   0  0  0  0  0  0  0  0  0  0  0  0
   23.3046   -2.3469   15.8413 C   0  0  0  0  0  0  0  0  0  0  0  0
   19.9296   -1.3021   17.3586 C   0  0  0  0  0  0  0  0  0  0  0  0
   19.9267   -1.9955   18.4840 N   0  0  0  0  0  0  0  0  0  0  0  0
   18.9209   -0.5056   17.0379 N   0  0  0  0  0  0  0  0  0  0  0  0
   20.6868   -2.5816   18.7029 H   0  0  0  0  0  0  0  0  0  0  0  0
   18.9434    0.0019   16.1946 H   0  0  0  0  0  0  0  0  0  0  0  0
   18.1487   -0.4213   17.6427 H   0  0  0  0  0  0  0  0  0  0  0  0
   30.1229   -2.5902   17.4136 C   0  0  0  0  0  0  0  0  0  0  0  0
   30.3761   -1.7520   18.6171 N   0  0  0  0  0  0  0  0  0  0  0  0
   29.8791   -2.1765   19.4002 H   0  0  0  0  0  0  0  0  0  0  0  0
   31.7894   -1.5837   19.0203 C   0  0  0  0  0  0  0  0  0  0  0  0
   32.1973   -0.1474   19.0302 C   0  0  0  0  0  0  0  0  0  0  0  0
   32.6457    0.2438   17.6409 C   0  0  0  0  0  0  0  0  0  0  0  0
   34.1055    0.0596   17.3546 C   0  0  0  0  0  0  0  0  0  0  0  0
   34.5344   -1.3303   17.4409 C   0  0  0  0  0  0  0  0  0  0  0  0
   33.7644   -2.0162   18.4741 C   0  0  0  0  0  0  0  0  0  0  0  0
   32.4233   -2.5750   18.3110 C   0  0  0  0  0  0  0  0  0  0  0  0
  9  8  2  0  0  0
  8 10  1  0  0  0
  8  4  1  0  0  0
 10 12  1  0  0  0
 12 13  1  0  0  0
 13 18  2  0  0  0
 13 14  1  0  0  0
 18 17  1  0  0  0
 17 16  2  0  0  0
 16 19  1  0  0  0
 16 15  1  0  0  0
 19 20  2  0  0  0
 19 21  1  0  0  0
 15 14  2  0  0  0
  4  5  1  0  0  0
  4  3  1  0  0  0
  5  6  1  0  0  0
  6  7  1  0  0  0
  7  3  1  0  0  0
  3  1  1  0  0  0
  1  2  2  0  0  0
  1 25  1  0  0  0
 25 26  1  0  0  0
 26 28  1  0  0  0
 28 29  1  0  0  0
 28 34  1  0  0  0
 29 30  1  0  0  0
 30 31  1  0  0  0
 31 32  1  0  0  0
 32 33  1  0  0  0
 33 34  1  0  0  0
 26 27  1  0  0  0
 10 11  1  0  0  0
 20 22  1  0  0  0
 21 23  1  0  0  0
 21 24  1  0  0  0
M  END
> <minimizedAffinity>
-7.32906

$$$$
2ZFS_12U_A_501


 34 36  0  0  0  0  0  0  0  0999 V2000
   29.1635   -3.3798   19.6550 C   0  0  0  0  0  0  0  0  0  0  0  0
   29.9021   -3.2559   18.6738 O   0  0  0  0  0  0  0  0  0  0  0  0
   28.1829   -4.2211   19.5322 N   0  0  0  0  0  0  0  0  0  0  0  0
   27.9381   -4.9320   18.5092 C   0  0  0  0  0  0  0  0  0  0  0  0
   26.8916   -5.9758   18.9147 C   0  0  0  0  0  0  0  0  0  0  0  0
   26.2094   -5.3977   20.1170 C   0  0  0  0  0  0  0  0  0  0  0  0
   27.2579   -4.4393   20.6640 C   0  0  0  0  0  0  0  0  0  0  0  0
   27.4789   -4.3304   17.2572 C   0  0  0  0  0  0  0  0  0  0  0  0
   27.5118   -4.9339   16.1854 O   0  0  0  0  0  0  0  0  0  0  0  0
   27.0308   -3.1131   17.2026 N   0  0  0  0  0  0  0  0  0  0  0  0
   26.8850   -2.6683   18.0686 H   0  0  0  0  0  0  0  0  0  0  0  0
   26.7232   -2.3390   16.0420 C   0  0  0  0  0  0  0  0  0  0  0  0
   25.2174   -2.1432   15.9189 C   0  0  0  0  0  0  0  0  0  0  0  0
   24.5267   -1.6313   14.8464 C   0  0  0  0  0  0  0  0  0  0  0  0
   23.1216   -1.5252   14.9155 C   0  0  0  0  0  0  0  0  0  0  0  0
   22.3124   -1.8965   15.9983 C   0  0  0  0  0  0  0  0  0  0  0  0
   23.0056   -2.4091   17.0661 C   0  0  0  0  0  0  0  0  0  0  0  0
   24.4110   -2.5189   17.0080 C   0  0  0  0  0  0  0  0  0  0  0  0
   20.8058   -1.7279   15.9302 C   0  0  0  0  0  0  0  0  0  0  0  0
   20.3190   -1.2942   14.7804 N   0  0  0  0  0  0  0  0  0  0  0  0
   20.0127   -1.9954   16.9569 N   0  0  0  0  0  0  0  0  0  0  0  0
   20.9264   -1.1014   14.0300 H   0  0  0  0  0  0  0  0  0  0  0  0
   20.3963   -2.3175   17.8044 H   0  0  0  0  0  0  0  0  0  0  0  0
   19.0396   -1.8719   16.8724 H   0  0  0  0  0  0  0  0  0  0  0  0
   29.5066   -2.5931   20.8933 C   0  0  0  0  0  0  0  0  0  0  0  0
   30.0531   -1.2636   20.5072 N   0  0  0  0  0  0  0  0  0  0  0  0
   30.2672   -1.2944   19.5104 H   0  0  0  0  0  0  0  0  0  0  0  0
   29.1773   -0.0949   20.7426 C   0  0  0  0  0  0  0  0  0  0  0  0
   28.6640    0.4815   19.4644 C   0  0  0  0  0  0  0  0  0  0  0  0
   29.6771    1.4676   18.9303 C   0  0  0  0  0  0  0  0  0  0  0  0
   29.5028    2.8859   19.3831 C   0  0  0  0  0  0  0  0  0  0  0  0
   29.6408    3.0471   20.8247 C   0  0  0  0  0  0  0  0  0  0  0  0
   29.1330    1.8570   21.5005 C   0  0  0  0  0  0  0  0  0  0  0  0
   29.8675    0.6087   21.6998 C   0  0  0  0  0  0  0  0  0  0  0  0
  9  8  2  0  0  0
  8 10  1  0  0  0
  8  4  1  0  0  0
 10 12  1  0  0  0
 12 13  1  0  0  0
 13 18  2  0  0  0
 13 14  1  0  0  0
 18 17  1  0  0  0
 17 16  2  0  0  0
 16 19  1  0  0  0
 16 15  1  0  0  0
 19 20  2  0  0  0
 19 21  1  0  0  0
 15 14  2  0  0  0
  4  5  1  0  0  0
  4  3  1  0  0  0
  5  6  1  0  0  0
  6  7  1  0  0  0
  7  3  1  0  0  0
  3  1  1  0  0  0
  1  2  2  0  0  0
  1 25  1  0  0  0
 25 26  1  0  0  0
 26 28  1  0  0  0
 28 29  1  0  0  0
 28 34  1  0  0  0
 29 30  1  0  0  0
 30 31  1  0  0  0
 31 32  1  0  0  0
 32 33  1  0  0  0
 33 34  1  0  0  0
 26 27  1  0  0  0
 10 11  1  0  0  0
 20 22  1  0  0  0
 21 23  1  0  0  0
 21 24  1  0  0  0
M  END
> <minimizedAffinity>
-7.17002

$$$$
2ZFS_12U_A_501


 34 36  0  0  0  0  0  0  0  0999 V2000
   28.3777   -1.8973   18.2699 C   0  0  0  0  0  0  0  0  0  0  0  0
   27.1811   -1.6120   18.3720 O   0  0  0  0  0  0  0  0  0  0  0  0
   28.9236   -1.6756   17.1135 N   0  0  0  0  0  0  0  0  0  0  0  0
   28.3420   -1.1767   16.1012 C   0  0  0  0  0  0  0  0  0  0  0  0
   29.4257   -0.8221   15.0771 C   0  0  0  0  0  0  0  0  0  0  0  0
   30.5978   -1.6844   15.4348 C   0  0  0  0  0  0  0  0  0  0  0  0
   30.3558   -1.9776   16.9088 C   0  0  0  0  0  0  0  0  0  0  0  0
   27.3001   -1.9116   15.3838 C   0  0  0  0  0  0  0  0  0  0  0  0
   27.4719   -3.0546   14.9618 O   0  0  0  0  0  0  0  0  0  0  0  0
   26.1392   -1.3883   15.1310 N   0  0  0  0  0  0  0  0  0  0  0  0
   25.9496   -0.5276   15.5696 H   0  0  0  0  0  0  0  0  0  0  0  0
   25.1027   -1.9062   14.2953 C   0  0  0  0  0  0  0  0  0  0  0  0
   23.7486   -1.7613   14.9782 C   0  0  0  0  0  0  0  0  0  0  0  0
   22.6050   -1.2058   14.4558 C   0  0  0  0  0  0  0  0  0  0  0  0
   21.4360   -1.1595   15.2443 C   0  0  0  0  0  0  0  0  0  0  0  0
   21.2992   -1.6340   16.5562 C   0  0  0  0  0  0  0  0  0  0  0  0
   22.4425   -2.1898   17.0732 C   0  0  0  0  0  0  0  0  0  0  0  0
   23.6174   -2.2406   16.2937 C   0  0  0  0  0  0  0  0  0  0  0  0
   19.9727   -1.5200   17.2844 C   0  0  0  0  0  0  0  0  0  0  0  0
   19.1346   -0.6046   16.8296 N   0  0  0  0  0  0  0  0  0  0  0  0
   19.6603   -2.2868   18.3184 N   0  0  0  0  0  0  0  0  0  0  0  0
   19.3869   -0.0453   16.0597 H   0  0  0  0  0  0  0  0  0  0  0  0
   20.2995   -2.9626   18.6409 H   0  0  0  0  0  0  0  0  0  0  0  0
   18.7890   -2.1808   18.7643 H   0  0  0  0  0  0  0  0  0  0  0  0
   29.0815   -2.4139   19.4978 C   0  0  0  0  0  0  0  0  0  0  0  0
   28.2122   -3.3994   20.1966 N   0  0  0  0  0  0  0  0  0  0  0  0
   28.4982   -4.3316   19.8971 H   0  0  0  0  0  0  0  0  0  0  0  0
   28.2404   -3.3744   21.6754 C   0  0  0  0  0  0  0  0  0  0  0  0
   27.0057   -2.7572   22.2446 C   0  0  0  0  0  0  0  0  0  0  0  0
   27.1926   -1.2589   22.3100 C   0  0  0  0  0  0  0  0  0  0  0  0
   27.7778   -0.7334   23.5861 C   0  0  0  0  0  0  0  0  0  0  0  0
   29.1243   -1.2273   23.8439 C   0  0  0  0  0  0  0  0  0  0  0  0
   29.2520   -2.5884   23.3323 C   0  0  0  0  0  0  0  0  0  0  0  0
   29.5218   -2.9575   21.9435 C   0  0  0  0  0  0  0  0  0  0  0  0
  9  8  2  0  0  0
  8 10  1  0  0  0
  8  4  1  0  0  0
 10 12  1  0  0  0
 12 13  1  0  0  0
 13 18  2  0  0  0
 13 14  1  0  0  0
 18 17  1  0  0  0
 17 16  2  0  0  0
 16 19  1  0  0  0
 16 15  1  0  0  0
 19 20  2  0  0  0
 19 21  1  0  0  0
 15 14  2  0  0  0
  4  5  1  0  0  0
  4  3  1  0  0  0
  5  6  1  0  0  0
  6  7  1  0  0  0
  7  3  1  0  0  0
  3  1  1  0  0  0
  1  2  2  0  0  0
  1 25  1  0  0  0
 25 26  1  0  0  0
 26 28  1  0  0  0
 28 29  1  0  0  0
 28 34  1  0  0  0
 29 30  1  0  0  0
 30 31  1  0  0  0
 31 32  1  0  0  0
 32 33  1  0  0  0
 33 34  1  0  0  0
 26 27  1  0  0  0
 10 11  1  0  0  0
 20 22  1  0  0  0
 21 23  1  0  0  0
 21 24  1  0  0  0
M  END
> <minimizedAffinity>
-7.13009

$$$$
2ZFS_12U_A_501


 34 36  0  0  0  0  0  0  0  0999 V2000
   30.2888   -1.7289   16.3028 C   0  0  0  0  0  0  0  0  0  0  0  0
   30.0395   -2.5687   15.4332 O   0  0  0  0  0  0  0  0  0  0  0  0
   29.2859   -1.3402   17.0292 N   0  0  0  0  0  0  0  0  0  0  0  0
   28.0924   -1.7628   16.9344 C   0  0  0  0  0  0  0  0  0  0  0  0
   27.3288   -1.2628   18.1655 C   0  0  0  0  0  0  0  0  0  0  0  0
   28.1054   -0.0770   18.6514 C   0  0  0  0  0  0  0  0  0  0  0  0
   29.4991   -0.3458   18.1015 C   0  0  0  0  0  0  0  0  0  0  0  0
   27.2675   -1.4557   15.7658 C   0  0  0  0  0  0  0  0  0  0  0  0
   27.4527   -0.4557   15.0733 O   0  0  0  0  0  0  0  0  0  0  0  0
   26.2752   -2.2118   15.4064 N   0  0  0  0  0  0  0  0  0  0  0  0
   26.1974   -3.0733   15.8764 H   0  0  0  0  0  0  0  0  0  0  0  0
   25.2821   -1.9489   14.4136 C   0  0  0  0  0  0  0  0  0  0  0  0
   23.9108   -1.8026   15.0608 C   0  0  0  0  0  0  0  0  0  0  0  0
   22.8164   -1.1403   14.5578 C   0  0  0  0  0  0  0  0  0  0  0  0
   21.6209   -1.1118   15.3065 C   0  0  0  0  0  0  0  0  0  0  0  0
   21.4103   -1.7054   16.5588 C   0  0  0  0  0  0  0  0  0  0  0  0
   22.5046   -2.3675   17.0564 C   0  0  0  0  0  0  0  0  0  0  0  0
   23.7054   -2.4016   16.3164 C   0  0  0  0  0  0  0  0  0  0  0  0
   20.0632   -1.5957   17.2488 C   0  0  0  0  0  0  0  0  0  0  0  0
   19.3470   -0.5222   16.9625 N   0  0  0  0  0  0  0  0  0  0  0  0
   19.6190   -2.5150   18.0928 N   0  0  0  0  0  0  0  0  0  0  0  0
   19.6963    0.1488   16.3324 H   0  0  0  0  0  0  0  0  0  0  0  0
   20.1687   -3.3071   18.2920 H   0  0  0  0  0  0  0  0  0  0  0  0
   18.7390   -2.4062   18.5207 H   0  0  0  0  0  0  0  0  0  0  0  0
   31.7215   -1.2910   16.4629 C   0  0  0  0  0  0  0  0  0  0  0  0
   32.0509   -0.2673   15.4340 N   0  0  0  0  0  0  0  0  0  0  0  0
   31.9901    0.6489   15.8781 H   0  0  0  0  0  0  0  0  0  0  0  0
   33.3834   -0.3718   14.8002 C   0  0  0  0  0  0  0  0  0  0  0  0
   33.3279   -0.0777   13.3373 C   0  0  0  0  0  0  0  0  0  0  0  0
   32.9801   -1.3477   12.5955 C   0  0  0  0  0  0  0  0  0  0  0  0
   34.1454   -2.1835   12.1588 C   0  0  0  0  0  0  0  0  0  0  0  0
   34.9416   -2.6812   13.2731 C   0  0  0  0  0  0  0  0  0  0  0  0
   34.9412   -1.6979   14.3520 C   0  0  0  0  0  0  0  0  0  0  0  0
   33.8872   -1.5255   15.3505 C   0  0  0  0  0  0  0  0  0  0  0  0
  9  8  2  0  0  0
  8 10  1  0  0  0
  8  4  1  0  0  0
 10 12  1  0  0  0
 12 13  1  0  0  0
 13 18  2  0  0  0
 13 14  1  0  0  0
 18 17  1  0  0  0
 17 16  2  0  0  0
 16 19  1  0  0  0
 16 15  1  0  0  0
 19 20  2  0  0  0
 19 21  1  0  0  0
 15 14  2  0  0  0
  4  5  1  0  0  0
  4  3  1  0  0  0
  5  6  1  0  0  0
  6  7  1  0  0  0
  7  3  1  0  0  0
  3  1  1  0  0  0
  1  2  2  0  0  0
  1 25  1  0  0  0
 25 26  1  0  0  0
 26 28  1  0  0  0
 28 29  1  0  0  0
 28 34  1  0  0  0
 29 30  1  0  0  0
 30 31  1  0  0  0
 31 32  1  0  0  0
 32 33  1  0  0  0
 33 34  1  0  0  0
 26 27  1  0  0  0
 10 11  1  0  0  0
 20 22  1  0  0  0
 21 23  1  0  0  0
 21 24  1  0  0  0
M  END
> <minimizedAffinity>
-7.02625

$$$$
2ZFS_12U_A_501


 34 36  0  0  0  0  0  0  0  0999 V2000
   29.2727   -0.9250   14.0108 C   0  0  0  0  0  0  0  0  0  0  0  0
   29.7425   -0.2002   14.8926 O   0  0  0  0  0  0  0  0  0  0  0  0
   28.0468   -1.3153   14.1819 N   0  0  0  0  0  0  0  0  0  0  0  0
   27.2960   -0.9996   15.1558 C   0  0  0  0  0  0  0  0  0  0  0  0
   25.8700   -1.4302   14.7951 C   0  0  0  0  0  0  0  0  0  0  0  0
   26.0355   -2.4956   13.7546 C   0  0  0  0  0  0  0  0  0  0  0  0
   27.4028   -2.1755   13.1672 C   0  0  0  0  0  0  0  0  0  0  0  0
   27.5605   -1.4880   16.5093 C   0  0  0  0  0  0  0  0  0  0  0  0
   27.3255   -2.6470   16.8490 O   0  0  0  0  0  0  0  0  0  0  0  0
   28.0380   -0.7165   17.4379 N   0  0  0  0  0  0  0  0  0  0  0  0
   28.3437    0.1723   17.1450 H   0  0  0  0  0  0  0  0  0  0  0  0
   28.1749   -0.9971   18.8320 C   0  0  0  0  0  0  0  0  0  0  0  0
   28.6648    0.2387   19.5761 C   0  0  0  0  0  0  0  0  0  0  0  0
   28.8870    0.3670   20.9265 C   0  0  0  0  0  0  0  0  0  0  0  0
   29.3448    1.5995   21.4381 C   0  0  0  0  0  0  0  0  0  0  0  0
   29.6103    2.7596   20.6973 C   0  0  0  0  0  0  0  0  0  0  0  0
   29.3894    2.6267   19.3493 C   0  0  0  0  0  0  0  0  0  0  0  0
   28.9307    1.3988   18.8272 C   0  0  0  0  0  0  0  0  0  0  0  0
   30.1044    4.0189   21.3849 C   0  0  0  0  0  0  0  0  0  0  0  0
   31.1921    3.8908   22.1249 N   0  0  0  0  0  0  0  0  0  0  0  0
   29.4898    5.1857   21.2602 N   0  0  0  0  0  0  0  0  0  0  0  0
   31.6333    3.0142   22.2039 H   0  0  0  0  0  0  0  0  0  0  0  0
   28.6808    5.2590   20.7040 H   0  0  0  0  0  0  0  0  0  0  0  0
   29.8420    5.9796   21.7238 H   0  0  0  0  0  0  0  0  0  0  0  0
   30.1419   -1.2303   12.8187 C   0  0  0  0  0  0  0  0  0  0  0  0
   31.1974   -0.1891   12.6880 N   0  0  0  0  0  0  0  0  0  0  0  0
   31.1558    0.4001   13.5196 H   0  0  0  0  0  0  0  0  0  0  0  0
   32.5887   -0.6717   12.5486 C   0  0  0  0  0  0  0  0  0  0  0  0
   32.9073   -1.7430   13.5389 C   0  0  0  0  0  0  0  0  0  0  0  0
   33.3602   -1.0985   14.8287 C   0  0  0  0  0  0  0  0  0  0  0  0
   34.8344   -0.8550   14.9493 C   0  0  0  0  0  0  0  0  0  0  0  0
   35.3460    0.0670   13.9435 C   0  0  0  0  0  0  0  0  0  0  0  0
   34.5978   -0.1004   12.7013 C   0  0  0  0  0  0  0  0  0  0  0  0
   33.2974    0.4959   12.4001 C   0  0  0  0  0  0  0  0  0  0  0  0
  9  8  2  0  0  0
  8 10  1  0  0  0
  8  4  1  0  0  0
 10 12  1  0  0  0
 12 13  1  0  0  0
 13 18  2  0  0  0
 13 14  1  0  0  0
 18 17  1  0  0  0
 17 16  2  0  0  0
 16 19  1  0  0  0
 16 15  1  0  0  0
 19 20  2  0  0  0
 19 21  1  0  0  0
 15 14  2  0  0  0
  4  5  1  0  0  0
  4  3  1  0  0  0
  5  6  1  0  0  0
  6  7  1  0  0  0
  7  3  1  0  0  0
  3  1  1  0  0  0
  1  2  2  0  0  0
  1 25  1  0  0  0
 25 26  1  0  0  0
 26 28  1  0  0  0
 28 29  1  0  0  0
 28 34  1  0  0  0
 29 30  1  0  0  0
 30 31  1  0  0  0
 31 32  1  0  0  0
 32 33  1  0  0  0
 33 34  1  0  0  0
 26 27  1  0  0  0
 10 11  1  0  0  0
 20 22  1  0  0  0
 21 23  1  0  0  0
 21 24  1  0  0  0
M  END
> <minimizedAffinity>
-6.96863

$$$$
2ZFS_12U_A_501


 34 36  0  0  0  0  0  0  0  0999 V2000
   29.6438   -3.2553   19.0551 C   0  0  0  0  0  0  0  0  0  0  0  0
   30.3311   -3.2471   18.0299 O   0  0  0  0  0  0  0  0  0  0  0  0
   28.4772   -3.8159   18.9591 N   0  0  0  0  0  0  0  0  0  0  0  0
   28.0016   -4.3672   17.9190 C   0  0  0  0  0  0  0  0  0  0  0  0
   26.7511   -5.1457   18.3425 C   0  0  0  0  0  0  0  0  0  0  0  0
   26.3083   -4.5058   19.6231 C   0  0  0  0  0  0  0  0  0  0  0  0
   27.5948   -3.8800   20.1430 C   0  0  0  0  0  0  0  0  0  0  0  0
   27.6367   -3.5808   16.7406 C   0  0  0  0  0  0  0  0  0  0  0  0
   27.4024   -4.0991   15.6495 O   0  0  0  0  0  0  0  0  0  0  0  0
   27.5621   -2.2851   16.7744 N   0  0  0  0  0  0  0  0  0  0  0  0
   27.6253   -1.8728   17.6661 H   0  0  0  0  0  0  0  0  0  0  0  0
   27.3998   -1.3833   15.6783 C   0  0  0  0  0  0  0  0  0  0  0  0
   28.7575   -0.9067   15.1780 C   0  0  0  0  0  0  0  0  0  0  0  0
   29.8845   -0.6626   15.9260 C   0  0  0  0  0  0  0  0  0  0  0  0
   31.0602   -0.2228   15.2820 C   0  0  0  0  0  0  0  0  0  0  0  0
   31.2195    0.0052   13.9080 C   0  0  0  0  0  0  0  0  0  0  0  0
   30.0927   -0.2418   13.1646 C   0  0  0  0  0  0  0  0  0  0  0  0
   28.9114   -0.6812   13.7985 C   0  0  0  0  0  0  0  0  0  0  0  0
   32.5507    0.4766   13.3526 C   0  0  0  0  0  0  0  0  0  0  0  0
   33.6155    0.2179   14.0918 N   0  0  0  0  0  0  0  0  0  0  0  0
   32.6538    1.1129   12.1954 N   0  0  0  0  0  0  0  0  0  0  0  0
   33.5164   -0.2564   14.9489 H   0  0  0  0  0  0  0  0  0  0  0  0
   31.8477    1.2954   11.6605 H   0  0  0  0  0  0  0  0  0  0  0  0
   33.5365    1.4033   11.8702 H   0  0  0  0  0  0  0  0  0  0  0  0
   30.2460   -2.6709   20.3064 C   0  0  0  0  0  0  0  0  0  0  0  0
   30.5501   -1.2300   20.0907 N   0  0  0  0  0  0  0  0  0  0  0  0
   30.7414   -1.0992   19.0973 H   0  0  0  0  0  0  0  0  0  0  0  0
   29.4954   -0.2668   20.4755 C   0  0  0  0  0  0  0  0  0  0  0  0
   28.8965    0.4068   19.2850 C   0  0  0  0  0  0  0  0  0  0  0  0
   29.7361    1.6125   18.9307 C   0  0  0  0  0  0  0  0  0  0  0  0
   29.3327    2.8990   19.5858 C   0  0  0  0  0  0  0  0  0  0  0  0
   29.4409    2.8596   21.0384 C   0  0  0  0  0  0  0  0  0  0  0  0
   29.1329    1.5147   21.5153 C   0  0  0  0  0  0  0  0  0  0  0  0
   30.0607    0.3852   21.5446 C   0  0  0  0  0  0  0  0  0  0  0  0
  9  8  2  0  0  0
  8 10  1  0  0  0
  8  4  1  0  0  0
 10 12  1  0  0  0
 12 13  1  0  0  0
 13 18  2  0  0  0
 13 14  1  0  0  0
 18 17  1  0  0  0
 17 16  2  0  0  0
 16 19  1  0  0  0
 16 15  1  0  0  0
 19 20  2  0  0  0
 19 21  1  0  0  0
 15 14  2  0  0  0
  4  5  1  0  0  0
  4  3  1  0  0  0
  5  6  1  0  0  0
  6  7  1  0  0  0
  7  3  1  0  0  0
  3  1  1  0  0  0
  1  2  2  0  0  0
  1 25  1  0  0  0
 25 26  1  0  0  0
 26 28  1  0  0  0
 28 29  1  0  0  0
 28 34  1  0  0  0
 29 30  1  0  0  0
 30 31  1  0  0  0
 31 32  1  0  0  0
 32 33  1  0  0  0
 33 34  1  0  0  0
 26 27  1  0  0  0
 10 11  1  0  0  0
 20 22  1  0  0  0
 21 23  1  0  0  0
 21 24  1  0  0  0
M  END
> <minimizedAffinity>
-6.96191

$$$$
