3W07_U5P_A_301


 26 27  0  0  0  0  0  0  0  0999 V2000
   20.0569   37.7703   37.9497 C   0  0  0  0  0  0  0  0  0  0  0  0
   20.1483   37.5028   39.4415 C   0  0  0  0  0  0  0  0  0  0  0  0
   20.9708   38.4239   40.0964 O   0  0  0  0  0  0  0  0  0  0  0  0
   20.7590   36.1108   39.4592 C   0  0  0  0  0  0  0  0  0  0  0  0
   20.1270   35.4628   38.2575 C   0  0  0  0  0  0  0  0  0  0  0  0
   22.1620   36.2419   39.2443 O   0  0  0  0  0  0  0  0  0  0  0  0
   19.9057   36.5170   37.3063 O   0  0  0  0  0  0  0  0  0  0  0  0
   21.8529   38.4137   39.6931 H   0  0  0  0  0  0  0  0  0  0  0  0
   22.3187   36.7346   38.4236 H   0  0  0  0  0  0  0  0  0  0  0  0
   19.0008   38.6667   37.5183 N   0  0  0  0  0  0  0  0  0  0  0  0
   19.2317   40.0274   37.3881 C   0  0  0  0  0  0  0  0  0  0  0  0
   18.1818   40.7971   37.0179 N   0  0  0  0  0  0  0  0  0  0  0  0
   16.8974   40.3468   36.7732 C   0  0  0  0  0  0  0  0  0  0  0  0
   16.7048   38.9624   36.8969 C   0  0  0  0  0  0  0  0  0  0  0  0
   17.6942   38.1438   37.3600 C   0  0  0  0  0  0  0  0  0  0  0  0
   20.3216   40.5157   37.6264 O   0  0  0  0  0  0  0  0  0  0  0  0
   16.0452   41.2021   36.4581 O   0  0  0  0  0  0  0  0  0  0  0  0
   18.3470   41.7620   36.9136 H   0  0  0  0  0  0  0  0  0  0  0  0
   18.8365   34.7227   38.5617 C   0  0  0  0  0  0  0  0  0  0  0  0
   18.6482   33.8442   37.4790 O   0  0  0  0  0  0  0  0  0  0  0  0
   17.9077   34.3167   36.1227 P   0  0  0  0  0  0  0  0  0  0  0  0
   16.9281   35.4199   36.4758 O   0  0  0  0  0  0  0  0  0  0  0  0
   17.2536   33.0410   35.6644 O   0  0  0  0  0  0  0  0  0  0  0  0
   18.9709   34.7995   35.1774 O   0  0  0  0  0  0  0  0  0  0  0  0
   16.5782   32.7747   36.3077 H   0  0  0  0  0  0  0  0  0  0  0  0
   19.3583   35.6207   35.5186 H   0  0  0  0  0  0  0  0  0  0  0  0
 10 11  1  0  0  0
 10 15  1  0  0  0
 10  1  1  0  0  0
 11 12  1  0  0  0
 11 16  2  0  0  0
 12 13  1  0  0  0
 13 14  1  0  0  0
 13 17  2  0  0  0
 14 15  2  0  0  0
  1  2  1  0  0  0
  1  7  1  0  0  0
  2  3  1  0  0  0
  2  4  1  0  0  0
  4  5  1  0  0  0
  4  6  1  0  0  0
  5  7  1  0  0  0
  5 19  1  0  0  0
 19 20  1  0  0  0
 20 21  1  0  0  0
 21 22  2  0  0  0
 21 23  1  0  0  0
 21 24  1  0  0  0
 12 18  1  0  0  0
  3  8  1  0  0  0
  6  9  1  0  0  0
 23 25  1  0  0  0
 24 26  1  0  0  0
M  END
> <minimizedAffinity>
-9.69889

$$$$
3W07_U5P_A_301


 26 27  0  0  0  0  0  0  0  0999 V2000
   19.1191   38.0734   36.8787 C   0  0  0  0  0  0  0  0  0  0  0  0
   19.2954   37.4983   38.2728 C   0  0  0  0  0  0  0  0  0  0  0  0
   20.0718   38.3223   39.0926 O   0  0  0  0  0  0  0  0  0  0  0  0
   20.0120   36.1924   37.9695 C   0  0  0  0  0  0  0  0  0  0  0  0
   19.3806   35.7685   36.6715 C   0  0  0  0  0  0  0  0  0  0  0  0
   21.3901   36.4854   37.7530 O   0  0  0  0  0  0  0  0  0  0  0  0
   19.0374   36.9808   35.9804 O   0  0  0  0  0  0  0  0  0  0  0  0
   20.9338   38.4744   38.6746 H   0  0  0  0  0  0  0  0  0  0  0  0
   21.4726   37.1555   37.0565 H   0  0  0  0  0  0  0  0  0  0  0  0
   17.9792   38.9490   36.6813 N   0  0  0  0  0  0  0  0  0  0  0  0
   18.1564   40.2897   36.3768 C   0  0  0  0  0  0  0  0  0  0  0  0
   17.0402   41.0440   36.2469 N   0  0  0  0  0  0  0  0  0  0  0  0
   15.7411   40.5975   36.4062 C   0  0  0  0  0  0  0  0  0  0  0  0
   15.5991   39.2319   36.6959 C   0  0  0  0  0  0  0  0  0  0  0  0
   16.6831   38.4377   36.9356 C   0  0  0  0  0  0  0  0  0  0  0  0
   19.2665   40.7770   36.2619 O   0  0  0  0  0  0  0  0  0  0  0  0
   14.8296   41.4382   36.2672 O   0  0  0  0  0  0  0  0  0  0  0  0
   17.1639   41.9938   36.0191 H   0  0  0  0  0  0  0  0  0  0  0  0
   18.1655   34.8733   36.8388 C   0  0  0  0  0  0  0  0  0  0  0  0
   18.6778   33.5668   36.9393 O   0  0  0  0  0  0  0  0  0  0  0  0
   18.5742   32.7188   38.3108 P   0  0  0  0  0  0  0  0  0  0  0  0
   19.2425   33.5166   39.4145 O   0  0  0  0  0  0  0  0  0  0  0  0
   19.2985   31.4502   37.9481 O   0  0  0  0  0  0  0  0  0  0  0  0
   17.1148   32.4976   38.5909 O   0  0  0  0  0  0  0  0  0  0  0  0
   20.2327   31.6486   37.7780 H   0  0  0  0  0  0  0  0  0  0  0  0
   16.6975   33.3432   38.8185 H   0  0  0  0  0  0  0  0  0  0  0  0
 10 11  1  0  0  0
 10 15  1  0  0  0
 10  1  1  0  0  0
 11 12  1  0  0  0
 11 16  2  0  0  0
 12 13  1  0  0  0
 13 14  1  0  0  0
 13 17  2  0  0  0
 14 15  2  0  0  0
  1  2  1  0  0  0
  1  7  1  0  0  0
  2  3  1  0  0  0
  2  4  1  0  0  0
  4  5  1  0  0  0
  4  6  1  0  0  0
  5  7  1  0  0  0
  5 19  1  0  0  0
 19 20  1  0  0  0
 20 21  1  0  0  0
 21 22  2  0  0  0
 21 23  1  0  0  0
 21 24  1  0  0  0
 12 18  1  0  0  0
  3  8  1  0  0  0
  6  9  1  0  0  0
 23 25  1  0  0  0
 24 26  1  0  0  0
M  END
> <minimizedAffinity>
-9.58783

$$$$
3W07_U5P_A_301


 26 27  0  0  0  0  0  0  0  0999 V2000
   17.7962   39.7499   35.8986 C   0  0  0  0  0  0  0  0  0  0  0  0
   18.2160   39.5283   37.3408 C   0  0  0  0  0  0  0  0  0  0  0  0
   18.6849   40.6994   37.9430 O   0  0  0  0  0  0  0  0  0  0  0  0
   19.3328   38.5105   37.1747 C   0  0  0  0  0  0  0  0  0  0  0  0
   18.8410   37.6723   36.0262 C   0  0  0  0  0  0  0  0  0  0  0  0
   20.5113   39.2091   36.7814 O   0  0  0  0  0  0  0  0  0  0  0  0
   18.0686   38.5519   35.1927 O   0  0  0  0  0  0  0  0  0  0  0  0
   19.4222   41.0570   37.4240 H   0  0  0  0  0  0  0  0  0  0  0  0
   20.3271   39.7311   35.9848 H   0  0  0  0  0  0  0  0  0  0  0  0
   16.4150   40.1372   35.6807 N   0  0  0  0  0  0  0  0  0  0  0  0
   15.3952   39.5964   36.4483 C   0  0  0  0  0  0  0  0  0  0  0  0
   14.1320   39.9829   36.1536 N   0  0  0  0  0  0  0  0  0  0  0  0
   13.7699   40.8573   35.1453 C   0  0  0  0  0  0  0  0  0  0  0  0
   14.8290   41.3987   34.4009 C   0  0  0  0  0  0  0  0  0  0  0  0
   16.1151   40.9783   34.5815 C   0  0  0  0  0  0  0  0  0  0  0  0
   15.6198   38.7853   37.3284 O   0  0  0  0  0  0  0  0  0  0  0  0
   12.5519   41.0879   35.0027 O   0  0  0  0  0  0  0  0  0  0  0  0
   13.4076   39.6088   36.7054 H   0  0  0  0  0  0  0  0  0  0  0  0
   18.0241   36.4640   36.4484 C   0  0  0  0  0  0  0  0  0  0  0  0
   18.4650   36.1534   37.7479 O   0  0  0  0  0  0  0  0  0  0  0  0
   18.7611   34.6311   38.2016 P   0  0  0  0  0  0  0  0  0  0  0  0
   20.0642   34.6115   38.9780 O   0  0  0  0  0  0  0  0  0  0  0  0
   18.8269   33.9187   36.8773 O   0  0  0  0  0  0  0  0  0  0  0  0
   17.6034   34.1833   39.0480 O   0  0  0  0  0  0  0  0  0  0  0  0
   19.5889   34.2439   36.3728 H   0  0  0  0  0  0  0  0  0  0  0  0
   17.6078   34.6715   39.8862 H   0  0  0  0  0  0  0  0  0  0  0  0
 10 11  1  0  0  0
 10 15  1  0  0  0
 10  1  1  0  0  0
 11 12  1  0  0  0
 11 16  2  0  0  0
 12 13  1  0  0  0
 13 14  1  0  0  0
 13 17  2  0  0  0
 14 15  2  0  0  0
  1  2  1  0  0  0
  1  7  1  0  0  0
  2  3  1  0  0  0
  2  4  1  0  0  0
  4  5  1  0  0  0
  4  6  1  0  0  0
  5  7  1  0  0  0
  5 19  1  0  0  0
 19 20  1  0  0  0
 20 21  1  0  0  0
 21 22  2  0  0  0
 21 23  1  0  0  0
 21 24  1  0  0  0
 12 18  1  0  0  0
  3  8  1  0  0  0
  6  9  1  0  0  0
 23 25  1  0  0  0
 24 26  1  0  0  0
M  END
> <minimizedAffinity>
-9.44679

$$$$
3W07_U5P_A_301


 26 27  0  0  0  0  0  0  0  0999 V2000
   17.9448   39.8195   35.6168 C   0  0  0  0  0  0  0  0  0  0  0  0
   18.4798   40.0264   37.0226 C   0  0  0  0  0  0  0  0  0  0  0  0
   19.1498   41.2453   37.1613 O   0  0  0  0  0  0  0  0  0  0  0  0
   19.4385   38.8540   37.1537 C   0  0  0  0  0  0  0  0  0  0  0  0
   18.7310   37.7681   36.3899 C   0  0  0  0  0  0  0  0  0  0  0  0
   20.6479   39.1960   36.4814 O   0  0  0  0  0  0  0  0  0  0  0  0
   17.9922   38.4289   35.3494 O   0  0  0  0  0  0  0  0  0  0  0  0
   19.8686   41.2949   36.5118 H   0  0  0  0  0  0  0  0  0  0  0  0
   20.4491   39.4467   35.5657 H   0  0  0  0  0  0  0  0  0  0  0  0
   16.6073   40.3176   35.3555 N   0  0  0  0  0  0  0  0  0  0  0  0
   16.2565   40.7889   34.0999 C   0  0  0  0  0  0  0  0  0  0  0  0
   15.0005   41.2710   33.9524 N   0  0  0  0  0  0  0  0  0  0  0  0
   14.0433   41.3480   34.9475 C   0  0  0  0  0  0  0  0  0  0  0  0
   14.4272   40.8453   36.2001 C   0  0  0  0  0  0  0  0  0  0  0  0
   15.7066   40.4355   36.4420 C   0  0  0  0  0  0  0  0  0  0  0  0
   17.0510   40.7994   33.1770 O   0  0  0  0  0  0  0  0  0  0  0  0
   12.9392   41.8399   34.6379 O   0  0  0  0  0  0  0  0  0  0  0  0
   14.7460   41.5953   33.0584 H   0  0  0  0  0  0  0  0  0  0  0  0
   17.8182   36.9060   37.2439 C   0  0  0  0  0  0  0  0  0  0  0  0
   17.4370   35.8348   36.4153 O   0  0  0  0  0  0  0  0  0  0  0  0
   17.7579   34.3013   36.8107 P   0  0  0  0  0  0  0  0  0  0  0  0
   16.9211   33.9380   38.0227 O   0  0  0  0  0  0  0  0  0  0  0  0
   19.2376   34.3526   37.0817 O   0  0  0  0  0  0  0  0  0  0  0  0
   17.4117   33.4508   35.6215 O   0  0  0  0  0  0  0  0  0  0  0  0
   19.4053   34.9122   37.8560 H   0  0  0  0  0  0  0  0  0  0  0  0
   16.4504   33.4521   35.4920 H   0  0  0  0  0  0  0  0  0  0  0  0
 10 11  1  0  0  0
 10 15  1  0  0  0
 10  1  1  0  0  0
 11 12  1  0  0  0
 11 16  2  0  0  0
 12 13  1  0  0  0
 13 14  1  0  0  0
 13 17  2  0  0  0
 14 15  2  0  0  0
  1  2  1  0  0  0
  1  7  1  0  0  0
  2  3  1  0  0  0
  2  4  1  0  0  0
  4  5  1  0  0  0
  4  6  1  0  0  0
  5  7  1  0  0  0
  5 19  1  0  0  0
 19 20  1  0  0  0
 20 21  1  0  0  0
 21 22  2  0  0  0
 21 23  1  0  0  0
 21 24  1  0  0  0
 12 18  1  0  0  0
  3  8  1  0  0  0
  6  9  1  0  0  0
 23 25  1  0  0  0
 24 26  1  0  0  0
M  END
> <minimizedAffinity>
-9.37009

$$$$
3W07_U5P_A_301


 26 27  0  0  0  0  0  0  0  0999 V2000
   17.8268   38.1301   36.4047 C   0  0  0  0  0  0  0  0  0  0  0  0
   16.9831   39.0954   37.2182 C   0  0  0  0  0  0  0  0  0  0  0  0
   15.6331   38.7337   37.2377 O   0  0  0  0  0  0  0  0  0  0  0  0
   17.1936   40.3933   36.4552 C   0  0  0  0  0  0  0  0  0  0  0  0
   18.6271   40.2818   36.0126 C   0  0  0  0  0  0  0  0  0  0  0  0
   16.3418   40.3762   35.3125 O   0  0  0  0  0  0  0  0  0  0  0  0
   18.8769   38.8799   35.8193 O   0  0  0  0  0  0  0  0  0  0  0  0
   15.3014   38.6734   36.3281 H   0  0  0  0  0  0  0  0  0  0  0  0
   16.5150   39.5762   34.7920 H   0  0  0  0  0  0  0  0  0  0  0  0
   18.3818   36.9967   37.1207 N   0  0  0  0  0  0  0  0  0  0  0  0
   18.1993   35.7034   36.6563 C   0  0  0  0  0  0  0  0  0  0  0  0
   18.7171   34.7019   37.4050 N   0  0  0  0  0  0  0  0  0  0  0  0
   19.3982   34.8555   38.5987 C   0  0  0  0  0  0  0  0  0  0  0  0
   19.5799   36.1788   39.0287 C   0  0  0  0  0  0  0  0  0  0  0  0
   19.0008   37.2270   38.3735 C   0  0  0  0  0  0  0  0  0  0  0  0
   17.5739   35.4733   35.6370 O   0  0  0  0  0  0  0  0  0  0  0  0
   19.7918   33.8167   39.1668 O   0  0  0  0  0  0  0  0  0  0  0  0
   18.5985   33.7836   37.0706 H   0  0  0  0  0  0  0  0  0  0  0  0
   19.6234   40.8840   36.9875 C   0  0  0  0  0  0  0  0  0  0  0  0
   20.1097   42.0421   36.3534 O   0  0  0  0  0  0  0  0  0  0  0  0
   21.6081   42.5868   36.6163 P   0  0  0  0  0  0  0  0  0  0  0  0
   22.4578   42.2423   35.4078 O   0  0  0  0  0  0  0  0  0  0  0  0
   21.9942   41.8448   37.8676 O   0  0  0  0  0  0  0  0  0  0  0  0
   21.5141   44.0719   36.8241 O   0  0  0  0  0  0  0  0  0  0  0  0
   22.0403   40.8945   37.6788 H   0  0  0  0  0  0  0  0  0  0  0  0
   21.2634   44.4998   35.9905 H   0  0  0  0  0  0  0  0  0  0  0  0
 10 11  1  0  0  0
 10 15  1  0  0  0
 10  1  1  0  0  0
 11 12  1  0  0  0
 11 16  2  0  0  0
 12 13  1  0  0  0
 13 14  1  0  0  0
 13 17  2  0  0  0
 14 15  2  0  0  0
  1  2  1  0  0  0
  1  7  1  0  0  0
  2  3  1  0  0  0
  2  4  1  0  0  0
  4  5  1  0  0  0
  4  6  1  0  0  0
  5  7  1  0  0  0
  5 19  1  0  0  0
 19 20  1  0  0  0
 20 21  1  0  0  0
 21 22  2  0  0  0
 21 23  1  0  0  0
 21 24  1  0  0  0
 12 18  1  0  0  0
  3  8  1  0  0  0
  6  9  1  0  0  0
 23 25  1  0  0  0
 24 26  1  0  0  0
M  END
> <minimizedAffinity>
-9.33475

$$$$
3W07_U5P_A_301


 26 27  0  0  0  0  0  0  0  0999 V2000
   18.0215   39.9386   35.6949 C   0  0  0  0  0  0  0  0  0  0  0  0
   18.5161   40.0669   37.1246 C   0  0  0  0  0  0  0  0  0  0  0  0
   19.0588   41.3280   37.3873 O   0  0  0  0  0  0  0  0  0  0  0  0
   19.5860   38.9879   37.1693 C   0  0  0  0  0  0  0  0  0  0  0  0
   19.0003   37.9125   36.2955 C   0  0  0  0  0  0  0  0  0  0  0  0
   20.7630   39.5083   36.5563 O   0  0  0  0  0  0  0  0  0  0  0  0
   18.2114   38.5901   35.3037 O   0  0  0  0  0  0  0  0  0  0  0  0
   19.7766   41.5081   36.7603 H   0  0  0  0  0  0  0  0  0  0  0  0
   20.5510   39.8215   35.6631 H   0  0  0  0  0  0  0  0  0  0  0  0
   16.6440   40.3240   35.4516 N   0  0  0  0  0  0  0  0  0  0  0  0
   16.2389   40.7646   34.2012 C   0  0  0  0  0  0  0  0  0  0  0  0
   14.9454   41.1409   34.0706 N   0  0  0  0  0  0  0  0  0  0  0  0
   13.9983   41.1381   35.0782 C   0  0  0  0  0  0  0  0  0  0  0  0
   14.4388   40.6690   36.3252 C   0  0  0  0  0  0  0  0  0  0  0  0
   15.7509   40.3668   36.5499 C   0  0  0  0  0  0  0  0  0  0  0  0
   17.0176   40.8411   33.2681 O   0  0  0  0  0  0  0  0  0  0  0  0
   12.8532   41.5368   34.7836 O   0  0  0  0  0  0  0  0  0  0  0  0
   14.6532   41.4430   33.1804 H   0  0  0  0  0  0  0  0  0  0  0  0
   18.1685   36.8893   37.0484 C   0  0  0  0  0  0  0  0  0  0  0  0
   19.0330   35.8029   37.2760 O   0  0  0  0  0  0  0  0  0  0  0  0
   19.8401   35.6385   38.6662 P   0  0  0  0  0  0  0  0  0  0  0  0
   21.2646   36.1118   38.4475 O   0  0  0  0  0  0  0  0  0  0  0  0
   19.7189   34.1605   38.9237 O   0  0  0  0  0  0  0  0  0  0  0  0
   19.1303   36.4703   39.6966 O   0  0  0  0  0  0  0  0  0  0  0  0
   20.1927   33.6719   38.2324 H   0  0  0  0  0  0  0  0  0  0  0  0
   19.2395   37.4104   39.4843 H   0  0  0  0  0  0  0  0  0  0  0  0
 10 11  1  0  0  0
 10 15  1  0  0  0
 10  1  1  0  0  0
 11 12  1  0  0  0
 11 16  2  0  0  0
 12 13  1  0  0  0
 13 14  1  0  0  0
 13 17  2  0  0  0
 14 15  2  0  0  0
  1  2  1  0  0  0
  1  7  1  0  0  0
  2  3  1  0  0  0
  2  4  1  0  0  0
  4  5  1  0  0  0
  4  6  1  0  0  0
  5  7  1  0  0  0
  5 19  1  0  0  0
 19 20  1  0  0  0
 20 21  1  0  0  0
 21 22  2  0  0  0
 21 23  1  0  0  0
 21 24  1  0  0  0
 12 18  1  0  0  0
  3  8  1  0  0  0
  6  9  1  0  0  0
 23 25  1  0  0  0
 24 26  1  0  0  0
M  END
> <minimizedAffinity>
-9.05844

$$$$
3W07_U5P_A_301


 26 27  0  0  0  0  0  0  0  0999 V2000
   18.8327   37.9687   37.8768 C   0  0  0  0  0  0  0  0  0  0  0  0
   19.1483   38.6480   36.5561 C   0  0  0  0  0  0  0  0  0  0  0  0
   20.5163   38.8860   36.3953 O   0  0  0  0  0  0  0  0  0  0  0  0
   18.3766   39.9501   36.6972 C   0  0  0  0  0  0  0  0  0  0  0  0
   17.1486   39.5204   37.4526 C   0  0  0  0  0  0  0  0  0  0  0  0
   19.1470   40.8338   37.5079 O   0  0  0  0  0  0  0  0  0  0  0  0
   17.5586   38.4287   38.2923 O   0  0  0  0  0  0  0  0  0  0  0  0
   20.8416   39.4174   37.1388 H   0  0  0  0  0  0  0  0  0  0  0  0
   19.3545   40.4010   38.3509 H   0  0  0  0  0  0  0  0  0  0  0  0
   18.8472   36.5179   37.8760 N   0  0  0  0  0  0  0  0  0  0  0  0
   19.4495   35.8120   38.9058 C   0  0  0  0  0  0  0  0  0  0  0  0
   19.4518   34.4621   38.8075 N   0  0  0  0  0  0  0  0  0  0  0  0
   18.9198   33.7279   37.7635 C   0  0  0  0  0  0  0  0  0  0  0  0
   18.3024   34.4743   36.7482 C   0  0  0  0  0  0  0  0  0  0  0  0
   18.3502   35.8384   36.7371 C   0  0  0  0  0  0  0  0  0  0  0  0
   19.9817   36.3793   39.8428 O   0  0  0  0  0  0  0  0  0  0  0  0
   19.0273   32.4864   37.8284 O   0  0  0  0  0  0  0  0  0  0  0  0
   19.8688   33.9589   39.5438 H   0  0  0  0  0  0  0  0  0  0  0  0
   15.9855   39.1175   36.5633 C   0  0  0  0  0  0  0  0  0  0  0  0
   15.8181   40.1866   35.6641 O   0  0  0  0  0  0  0  0  0  0  0  0
   14.5678   41.2037   35.7796 P   0  0  0  0  0  0  0  0  0  0  0  0
   14.3191   41.8085   34.4109 O   0  0  0  0  0  0  0  0  0  0  0  0
   15.0622   42.1897   36.8038 O   0  0  0  0  0  0  0  0  0  0  0  0
   13.3866   40.4081   36.2583 O   0  0  0  0  0  0  0  0  0  0  0  0
   15.8220   42.6746   36.4454 H   0  0  0  0  0  0  0  0  0  0  0  0
   13.1095   39.7908   35.5633 H   0  0  0  0  0  0  0  0  0  0  0  0
 10 11  1  0  0  0
 10 15  1  0  0  0
 10  1  1  0  0  0
 11 12  1  0  0  0
 11 16  2  0  0  0
 12 13  1  0  0  0
 13 14  1  0  0  0
 13 17  2  0  0  0
 14 15  2  0  0  0
  1  2  1  0  0  0
  1  7  1  0  0  0
  2  3  1  0  0  0
  2  4  1  0  0  0
  4  5  1  0  0  0
  4  6  1  0  0  0
  5  7  1  0  0  0
  5 19  1  0  0  0
 19 20  1  0  0  0
 20 21  1  0  0  0
 21 22  2  0  0  0
 21 23  1  0  0  0
 21 24  1  0  0  0
 12 18  1  0  0  0
  3  8  1  0  0  0
  6  9  1  0  0  0
 23 25  1  0  0  0
 24 26  1  0  0  0
M  END
> <minimizedAffinity>
-8.89457

$$$$
3W07_U5P_A_301


 26 27  0  0  0  0  0  0  0  0999 V2000
   19.5731   36.1092   37.6617 C   0  0  0  0  0  0  0  0  0  0  0  0
   18.0914   35.7791   37.6324 C   0  0  0  0  0  0  0  0  0  0  0  0
   17.8326   34.4647   38.0316 O   0  0  0  0  0  0  0  0  0  0  0  0
   17.7689   35.9801   36.1605 C   0  0  0  0  0  0  0  0  0  0  0  0
   18.6489   37.1428   35.7904 C   0  0  0  0  0  0  0  0  0  0  0  0
   18.1951   34.8186   35.4529 O   0  0  0  0  0  0  0  0  0  0  0  0
   19.8174   37.0385   36.6203 O   0  0  0  0  0  0  0  0  0  0  0  0
   18.3301   33.8517   37.4681 H   0  0  0  0  0  0  0  0  0  0  0  0
   19.1336   34.6548   35.6357 H   0  0  0  0  0  0  0  0  0  0  0  0
   20.0928   36.6338   38.9107 N   0  0  0  0  0  0  0  0  0  0  0  0
   21.4048   36.3971   39.2905 C   0  0  0  0  0  0  0  0  0  0  0  0
   21.7971   36.8899   40.4884 N   0  0  0  0  0  0  0  0  0  0  0  0
   20.9999   37.5948   41.3715 C   0  0  0  0  0  0  0  0  0  0  0  0
   19.6838   37.8314   40.9462 C   0  0  0  0  0  0  0  0  0  0  0  0
   19.1965   37.2805   39.7963 C   0  0  0  0  0  0  0  0  0  0  0  0
   22.1638   35.7477   38.5939 O   0  0  0  0  0  0  0  0  0  0  0  0
   21.5235   37.9593   42.4439 O   0  0  0  0  0  0  0  0  0  0  0  0
   22.7319   36.7327   40.7544 H   0  0  0  0  0  0  0  0  0  0  0  0
   17.9835   38.4979   35.9532 C   0  0  0  0  0  0  0  0  0  0  0  0
   19.0336   39.4337   35.9188 O   0  0  0  0  0  0  0  0  0  0  0  0
   19.3143   40.4386   37.1526 P   0  0  0  0  0  0  0  0  0  0  0  0
   20.5474   39.9523   37.8904 O   0  0  0  0  0  0  0  0  0  0  0  0
   18.0405   40.3214   37.9458 O   0  0  0  0  0  0  0  0  0  0  0  0
   19.5177   41.8105   36.5748 O   0  0  0  0  0  0  0  0  0  0  0  0
   17.9587   39.4201   38.2948 H   0  0  0  0  0  0  0  0  0  0  0  0
   20.3492   41.8311   36.0757 H   0  0  0  0  0  0  0  0  0  0  0  0
 10 11  1  0  0  0
 10 15  1  0  0  0
 10  1  1  0  0  0
 11 12  1  0  0  0
 11 16  2  0  0  0
 12 13  1  0  0  0
 13 14  1  0  0  0
 13 17  2  0  0  0
 14 15  2  0  0  0
  1  2  1  0  0  0
  1  7  1  0  0  0
  2  3  1  0  0  0
  2  4  1  0  0  0
  4  5  1  0  0  0
  4  6  1  0  0  0
  5  7  1  0  0  0
  5 19  1  0  0  0
 19 20  1  0  0  0
 20 21  1  0  0  0
 21 22  2  0  0  0
 21 23  1  0  0  0
 21 24  1  0  0  0
 12 18  1  0  0  0
  3  8  1  0  0  0
  6  9  1  0  0  0
 23 25  1  0  0  0
 24 26  1  0  0  0
M  END
> <minimizedAffinity>
-8.73810

$$$$
3W07_U5P_A_301


 26 27  0  0  0  0  0  0  0  0999 V2000
   19.0570   37.9589   38.0566 C   0  0  0  0  0  0  0  0  0  0  0  0
   19.7959   38.0927   36.7370 C   0  0  0  0  0  0  0  0  0  0  0  0
   20.1660   39.4134   36.4675 O   0  0  0  0  0  0  0  0  0  0  0  0
   18.7439   37.6050   35.7540 C   0  0  0  0  0  0  0  0  0  0  0  0
   18.0552   36.5147   36.5286 C   0  0  0  0  0  0  0  0  0  0  0  0
   17.8285   38.6727   35.5219 O   0  0  0  0  0  0  0  0  0  0  0  0
   18.1233   36.9032   37.9104 O   0  0  0  0  0  0  0  0  0  0  0  0
   19.3774   39.9782   36.4760 H   0  0  0  0  0  0  0  0  0  0  0  0
   17.4693   38.9804   36.3688 H   0  0  0  0  0  0  0  0  0  0  0  0
   19.8737   37.7236   39.2326 N   0  0  0  0  0  0  0  0  0  0  0  0
   20.9776   36.8870   39.1761 C   0  0  0  0  0  0  0  0  0  0  0  0
   21.6616   36.6923   40.3276 N   0  0  0  0  0  0  0  0  0  0  0  0
   21.3466   37.2425   41.5566 C   0  0  0  0  0  0  0  0  0  0  0  0
   20.2345   38.0980   41.5723 C   0  0  0  0  0  0  0  0  0  0  0  0
   19.4448   38.2607   40.4708 C   0  0  0  0  0  0  0  0  0  0  0  0
   21.3013   36.3257   38.1450 O   0  0  0  0  0  0  0  0  0  0  0  0
   22.0791   36.9392   42.5202 O   0  0  0  0  0  0  0  0  0  0  0  0
   22.4527   36.1077   40.2867 H   0  0  0  0  0  0  0  0  0  0  0  0
   18.6545   35.1352   36.3197 C   0  0  0  0  0  0  0  0  0  0  0  0
   17.7597   34.2439   36.9399 O   0  0  0  0  0  0  0  0  0  0  0  0
   18.1968   33.3552   38.2167 P   0  0  0  0  0  0  0  0  0  0  0  0
   16.9406   32.8038   38.8642 O   0  0  0  0  0  0  0  0  0  0  0  0
   18.9291   34.3629   39.0615 O   0  0  0  0  0  0  0  0  0  0  0  0
   19.0899   32.2572   37.7128 O   0  0  0  0  0  0  0  0  0  0  0  0
   18.3089   35.0467   39.3595 H   0  0  0  0  0  0  0  0  0  0  0  0
   18.5702   31.6381   37.1766 H   0  0  0  0  0  0  0  0  0  0  0  0
 10 11  1  0  0  0
 10 15  1  0  0  0
 10  1  1  0  0  0
 11 12  1  0  0  0
 11 16  2  0  0  0
 12 13  1  0  0  0
 13 14  1  0  0  0
 13 17  2  0  0  0
 14 15  2  0  0  0
  1  2  1  0  0  0
  1  7  1  0  0  0
  2  3  1  0  0  0
  2  4  1  0  0  0
  4  5  1  0  0  0
  4  6  1  0  0  0
  5  7  1  0  0  0
  5 19  1  0  0  0
 19 20  1  0  0  0
 20 21  1  0  0  0
 21 22  2  0  0  0
 21 23  1  0  0  0
 21 24  1  0  0  0
 12 18  1  0  0  0
  3  8  1  0  0  0
  6  9  1  0  0  0
 23 25  1  0  0  0
 24 26  1  0  0  0
M  END
> <minimizedAffinity>
-8.04236

$$$$
3W07_U5P_A_301


 26 27  0  0  0  0  0  0  0  0999 V2000
   17.5561   36.8772   37.5968 C   0  0  0  0  0  0  0  0  0  0  0  0
   18.2134   35.6521   36.9865 C   0  0  0  0  0  0  0  0  0  0  0  0
   17.2853   34.7934   36.3904 O   0  0  0  0  0  0  0  0  0  0  0  0
   18.8478   35.0116   38.2105 C   0  0  0  0  0  0  0  0  0  0  0  0
   19.2742   36.2065   39.0190 C   0  0  0  0  0  0  0  0  0  0  0  0
   17.8313   34.3016   38.9136 O   0  0  0  0  0  0  0  0  0  0  0  0
   18.3206   37.2427   38.7323 O   0  0  0  0  0  0  0  0  0  0  0  0
   16.6190   34.5327   37.0453 H   0  0  0  0  0  0  0  0  0  0  0  0
   17.0971   34.9027   39.1147 H   0  0  0  0  0  0  0  0  0  0  0  0
   17.4014   38.0276   36.7263 N   0  0  0  0  0  0  0  0  0  0  0  0
   16.2857   38.8450   36.8195 C   0  0  0  0  0  0  0  0  0  0  0  0
   16.2019   39.8739   35.9441 N   0  0  0  0  0  0  0  0  0  0  0  0
   17.1235   40.1710   34.9569 C   0  0  0  0  0  0  0  0  0  0  0  0
   18.2484   39.3338   34.9039 C   0  0  0  0  0  0  0  0  0  0  0  0
   18.3480   38.2231   35.6912 C   0  0  0  0  0  0  0  0  0  0  0  0
   15.4031   38.6308   37.6307 O   0  0  0  0  0  0  0  0  0  0  0  0
   16.8763   41.1500   34.2239 O   0  0  0  0  0  0  0  0  0  0  0  0
   15.4159   40.4623   36.0165 H   0  0  0  0  0  0  0  0  0  0  0  0
   20.6902   36.6736   38.7317 C   0  0  0  0  0  0  0  0  0  0  0  0
   21.3714   36.5698   39.9583 O   0  0  0  0  0  0  0  0  0  0  0  0
   21.2599   37.7180   41.0898 P   0  0  0  0  0  0  0  0  0  0  0  0
   21.9280   38.9730   40.5608 O   0  0  0  0  0  0  0  0  0  0  0  0
   21.9800   37.0836   42.2493 O   0  0  0  0  0  0  0  0  0  0  0  0
   19.7986   37.9387   41.3607 O   0  0  0  0  0  0  0  0  0  0  0  0
   22.9155   36.9640   42.0226 H   0  0  0  0  0  0  0  0  0  0  0  0
   19.3842   38.3479   40.5850 H   0  0  0  0  0  0  0  0  0  0  0  0
 10 11  1  0  0  0
 10 15  1  0  0  0
 10  1  1  0  0  0
 11 12  1  0  0  0
 11 16  2  0  0  0
 12 13  1  0  0  0
 13 14  1  0  0  0
 13 17  2  0  0  0
 14 15  2  0  0  0
  1  2  1  0  0  0
  1  7  1  0  0  0
  2  3  1  0  0  0
  2  4  1  0  0  0
  4  5  1  0  0  0
  4  6  1  0  0  0
  5  7  1  0  0  0
  5 19  1  0  0  0
 19 20  1  0  0  0
 20 21  1  0  0  0
 21 22  2  0  0  0
 21 23  1  0  0  0
 21 24  1  0  0  0
 12 18  1  0  0  0
  3  8  1  0  0  0
  6  9  1  0  0  0
 23 25  1  0  0  0
 24 26  1  0  0  0
M  END
> <minimizedAffinity>
-7.98415

$$$$
