2ZN7_410_A_300


 37 40  0  0  0  0  0  0  0  0999 V2000
   44.5156   12.0273   -1.7330 C   0  0  0  0  0  0  0  0  0  0  0  0
   44.3333   10.6903   -1.3682 C   0  0  0  0  0  0  0  0  0  0  0  0
   44.4507   10.3111   -0.0291 C   0  0  0  0  0  0  0  0  0  0  0  0
   44.7492   11.2544    0.9625 C   0  0  0  0  0  0  0  0  0  0  0  0
   44.9345   12.6051    0.6206 C   0  0  0  0  0  0  0  0  0  0  0  0
   44.8133   12.9743   -0.7309 C   0  0  0  0  0  0  0  0  0  0  0  0
   45.2251   13.6174    1.6440 C   0  0  0  0  0  0  0  0  0  0  0  0
   46.1747   13.6519    2.6516 C   0  0  0  0  0  0  0  0  0  0  0  0
   46.1386   14.8336    3.4438 C   0  0  0  0  0  0  0  0  0  0  0  0
   45.1232   15.6676    3.0085 C   0  0  0  0  0  0  0  0  0  0  0  0
   44.2700   15.0423    1.6605 S   0  0  0  0  0  0  0  0  0  0  0  0
   47.4487   12.2884    3.0037 Br  0  0  0  0  0  0  0  0  0  0  0  0
   44.7100   17.0672    3.5664 C   0  0  0  0  0  0  0  0  0  0  0  0
   44.5760   17.9544    2.6737 O   0  0  0  0  0  0  0  0  0  0  0  0
   44.5286   17.1960    4.8086 O   0  0  0  0  0  0  0  0  0  0  0  0
   44.6586   16.4644    5.3795 H   0  0  0  0  0  0  0  0  0  0  0  0
   46.9647   15.0767    4.5112 O   0  0  0  0  0  0  0  0  0  0  0  0
   48.0931   15.9273    4.2624 C   0  0  0  0  0  0  0  0  0  0  0  0
   48.0065   17.0583    5.3071 C   0  0  0  0  0  0  0  0  0  0  0  0
   47.0000   17.0462    6.0555 O   0  0  0  0  0  0  0  0  0  0  0  0
   48.9488   17.9004    5.3075 O   0  0  0  0  0  0  0  0  0  0  0  0
   49.6564   17.8119    4.6996 H   0  0  0  0  0  0  0  0  0  0  0  0
   45.5253   12.5044   -3.9434 C   0  0  0  0  0  0  0  0  0  0  0  0
   45.4790   12.8731   -5.1175 O   0  0  0  0  0  0  0  0  0  0  0  0
   44.4101   12.4916   -3.0883 N   0  0  0  0  0  0  0  0  0  0  0  0
   49.3790   11.3309   -2.3936 C   0  0  0  0  0  0  0  0  0  0  0  0
   48.9717   12.6668   -2.3596 C   0  0  0  0  0  0  0  0  0  0  0  0
   47.7179   13.0367   -2.8631 C   0  0  0  0  0  0  0  0  0  0  0  0
   46.8557   12.0713   -3.4114 C   0  0  0  0  0  0  0  0  0  0  0  0
   47.2691   10.7334   -3.4445 C   0  0  0  0  0  0  0  0  0  0  0  0
   48.5231   10.3701   -2.9397 C   0  0  0  0  0  0  0  0  0  0  0  0
   43.0771   12.9300   -3.6107 C   0  0  0  0  0  0  0  0  0  0  0  0
   42.5999   14.2577   -3.0069 C   0  0  0  0  0  0  0  0  0  0  0  0
   41.3188   14.7217   -3.6859 C   0  0  0  0  0  0  0  0  0  0  0  0
   40.2217   13.6874   -3.4561 C   0  0  0  0  0  0  0  0  0  0  0  0
   40.6235   12.3342   -4.0438 C   0  0  0  0  0  0  0  0  0  0  0  0
   41.9903   11.8457   -3.5431 C   0  0  0  0  0  0  0  0  0  0  0  0
 27 26  2  0  0  0
 26 31  1  0  0  0
 27 28  1  0  0  0
 28 29  2  0  0  0
 29 30  1  0  0  0
 29 23  1  0  0  0
 31 30  2  0  0  0
 23 24  2  0  0  0
 23 25  1  0  0  0
  1 25  1  0  0  0
 25 32  1  0  0  0
  2  1  2  0  0  0
  1  6  1  0  0  0
  2  3  1  0  0  0
  3  4  2  0  0  0
  4  5  1  0  0  0
  6  5  2  0  0  0
  5  7  1  0  0  0
 11  7  1  0  0  0
  7  8  2  0  0  0
  8  9  1  0  0  0
  8 12  1  0  0  0
 10  9  2  0  0  0
  9 17  1  0  0  0
 11 10  1  0  0  0
 13 10  1  0  0  0
 14 13  2  0  0  0
 13 15  1  0  0  0
 18 17  1  0  0  0
 18 19  1  0  0  0
 19 20  2  0  0  0
 19 21  1  0  0  0
 33 32  1  0  0  0
 32 37  1  0  0  0
 33 34  1  0  0  0
 34 35  1  0  0  0
 35 36  1  0  0  0
 37 36  1  0  0  0
 15 16  1  0  0  0
 21 22  1  0  0  0
M  END
> <minimizedAffinity>
-8.24629

$$$$
2ZN7_410_A_300


 37 40  0  0  0  0  0  0  0  0999 V2000
   47.1844    9.6919    0.5678 C   0  0  0  0  0  0  0  0  0  0  0  0
   46.0544    9.0115    0.1055 C   0  0  0  0  0  0  0  0  0  0  0  0
   44.7987    9.6194    0.1729 C   0  0  0  0  0  0  0  0  0  0  0  0
   44.6509   10.9092    0.6988 C   0  0  0  0  0  0  0  0  0  0  0  0
   45.7727   11.6145    1.1678 C   0  0  0  0  0  0  0  0  0  0  0  0
   47.0314   10.9917    1.0941 C   0  0  0  0  0  0  0  0  0  0  0  0
   45.6480   12.9767    1.7020 C   0  0  0  0  0  0  0  0  0  0  0  0
   46.2296   13.5835    2.8027 C   0  0  0  0  0  0  0  0  0  0  0  0
   45.8544   14.9445    2.9818 C   0  0  0  0  0  0  0  0  0  0  0  0
   44.9629   15.3263    1.9940 C   0  0  0  0  0  0  0  0  0  0  0  0
   44.6257   14.0761    0.8719 S   0  0  0  0  0  0  0  0  0  0  0  0
   47.4339   12.7443    4.0076 Br  0  0  0  0  0  0  0  0  0  0  0  0
   44.2866   16.7186    1.7820 C   0  0  0  0  0  0  0  0  0  0  0  0
   43.4565   16.7438    0.8269 O   0  0  0  0  0  0  0  0  0  0  0  0
   44.5905   17.6657    2.5588 O   0  0  0  0  0  0  0  0  0  0  0  0
   45.2239   17.5312    3.2361 H   0  0  0  0  0  0  0  0  0  0  0  0
   46.2838   15.7375    4.0150 O   0  0  0  0  0  0  0  0  0  0  0  0
   47.4761   16.5002    3.7794 C   0  0  0  0  0  0  0  0  0  0  0  0
   47.8065   17.1897    5.1188 C   0  0  0  0  0  0  0  0  0  0  0  0
   49.0060   17.5111    5.2960 O   0  0  0  0  0  0  0  0  0  0  0  0
   46.8441   17.3575    5.9202 O   0  0  0  0  0  0  0  0  0  0  0  0
   45.9822   17.0768    5.6827 H   0  0  0  0  0  0  0  0  0  0  0  0
   49.4387    9.5280   -0.4441 C   0  0  0  0  0  0  0  0  0  0  0  0
   50.5891    9.0924   -0.5030 O   0  0  0  0  0  0  0  0  0  0  0  0
   48.5068    9.1321    0.5304 N   0  0  0  0  0  0  0  0  0  0  0  0
   48.2089   12.3163   -3.5008 C   0  0  0  0  0  0  0  0  0  0  0  0
   47.8617   10.9657   -3.5839 C   0  0  0  0  0  0  0  0  0  0  0  0
   48.2639   10.0695   -2.5852 C   0  0  0  0  0  0  0  0  0  0  0  0
   49.0237   10.5154   -1.4898 C   0  0  0  0  0  0  0  0  0  0  0  0
   49.3706   11.8701   -1.4115 C   0  0  0  0  0  0  0  0  0  0  0  0
   48.9655   12.7608   -2.4127 C   0  0  0  0  0  0  0  0  0  0  0  0
   48.9119    8.1396    1.5759 C   0  0  0  0  0  0  0  0  0  0  0  0
   48.5582    6.6935    1.2034 C   0  0  0  0  0  0  0  0  0  0  0  0
   49.1275    5.7246    2.2304 C   0  0  0  0  0  0  0  0  0  0  0  0
   48.5119    6.0152    3.5953 C   0  0  0  0  0  0  0  0  0  0  0  0
   48.8333    7.4425    4.0397 C   0  0  0  0  0  0  0  0  0  0  0  0
   48.4429    8.4976    2.9947 C   0  0  0  0  0  0  0  0  0  0  0  0
 27 26  2  0  0  0
 26 31  1  0  0  0
 27 28  1  0  0  0
 28 29  2  0  0  0
 29 30  1  0  0  0
 29 23  1  0  0  0
 31 30  2  0  0  0
 23 24  2  0  0  0
 23 25  1  0  0  0
  1 25  1  0  0  0
 25 32  1  0  0  0
  2  1  2  0  0  0
  1  6  1  0  0  0
  2  3  1  0  0  0
  3  4  2  0  0  0
  4  5  1  0  0  0
  6  5  2  0  0  0
  5  7  1  0  0  0
 11  7  1  0  0  0
  7  8  2  0  0  0
  8  9  1  0  0  0
  8 12  1  0  0  0
 10  9  2  0  0  0
  9 17  1  0  0  0
 11 10  1  0  0  0
 13 10  1  0  0  0
 14 13  2  0  0  0
 13 15  1  0  0  0
 18 17  1  0  0  0
 18 19  1  0  0  0
 19 20  2  0  0  0
 19 21  1  0  0  0
 33 32  1  0  0  0
 32 37  1  0  0  0
 33 34  1  0  0  0
 34 35  1  0  0  0
 35 36  1  0  0  0
 37 36  1  0  0  0
 15 16  1  0  0  0
 21 22  1  0  0  0
M  END
> <minimizedAffinity>
-7.86782

$$$$
2ZN7_410_A_300


 37 40  0  0  0  0  0  0  0  0999 V2000
   47.0688   10.3902   -1.0115 C   0  0  0  0  0  0  0  0  0  0  0  0
   45.9552    9.5699   -1.2126 C   0  0  0  0  0  0  0  0  0  0  0  0
   44.7343    9.8935   -0.6164 C   0  0  0  0  0  0  0  0  0  0  0  0
   44.6050   11.0352    0.1850 C   0  0  0  0  0  0  0  0  0  0  0  0
   45.7100   11.8769    0.4000 C   0  0  0  0  0  0  0  0  0  0  0  0
   46.9334   11.5403   -0.2061 C   0  0  0  0  0  0  0  0  0  0  0  0
   45.5949   13.0921    1.2166 C   0  0  0  0  0  0  0  0  0  0  0  0
   46.1536   13.4284    2.4384 C   0  0  0  0  0  0  0  0  0  0  0  0
   45.7993   14.7264    2.9017 C   0  0  0  0  0  0  0  0  0  0  0  0
   44.9463   15.3376    1.9989 C   0  0  0  0  0  0  0  0  0  0  0  0
   44.6201   14.3720    0.6216 S   0  0  0  0  0  0  0  0  0  0  0  0
   47.3037   12.3156    3.4608 Br  0  0  0  0  0  0  0  0  0  0  0  0
   44.3037   16.7593    2.0799 C   0  0  0  0  0  0  0  0  0  0  0  0
   43.1208   16.8122    1.6329 O   0  0  0  0  0  0  0  0  0  0  0  0
   44.9761   17.7016    2.5826 O   0  0  0  0  0  0  0  0  0  0  0  0
   45.8498   17.5454    2.8829 H   0  0  0  0  0  0  0  0  0  0  0  0
   46.2116   15.2630    4.0946 O   0  0  0  0  0  0  0  0  0  0  0  0
   47.4744   15.9442    4.0839 C   0  0  0  0  0  0  0  0  0  0  0  0
   47.3020   17.1655    5.0097 C   0  0  0  0  0  0  0  0  0  0  0  0
   48.3522   17.7736    5.3268 O   0  0  0  0  0  0  0  0  0  0  0  0
   46.1227   17.4359    5.3743 O   0  0  0  0  0  0  0  0  0  0  0  0
   45.4074   16.9104    5.0741 H   0  0  0  0  0  0  0  0  0  0  0  0
   49.2311    9.1830   -1.0208 C   0  0  0  0  0  0  0  0  0  0  0  0
   50.3336    8.9046   -1.4938 O   0  0  0  0  0  0  0  0  0  0  0  0
   48.3553   10.1222   -1.5917 N   0  0  0  0  0  0  0  0  0  0  0  0
   48.0551    7.1164    2.5815 C   0  0  0  0  0  0  0  0  0  0  0  0
   47.9912    6.4803    1.3393 C   0  0  0  0  0  0  0  0  0  0  0  0
   48.3775    7.1593    0.1765 C   0  0  0  0  0  0  0  0  0  0  0  0
   48.8306    8.4883    0.2431 C   0  0  0  0  0  0  0  0  0  0  0  0
   48.8916    9.1223    1.4905 C   0  0  0  0  0  0  0  0  0  0  0  0
   48.5042    8.4385    2.6489 C   0  0  0  0  0  0  0  0  0  0  0  0
   48.7514   10.8266   -2.8523 C   0  0  0  0  0  0  0  0  0  0  0  0
   49.4209   12.1841   -2.5993 C   0  0  0  0  0  0  0  0  0  0  0  0
   49.9328   12.7769   -3.9048 C   0  0  0  0  0  0  0  0  0  0  0  0
   48.7582   13.0086   -4.8497 C   0  0  0  0  0  0  0  0  0  0  0  0
   48.0451   11.6916   -5.1578 C   0  0  0  0  0  0  0  0  0  0  0  0
   47.6260   10.9272   -3.8938 C   0  0  0  0  0  0  0  0  0  0  0  0
 27 26  2  0  0  0
 26 31  1  0  0  0
 27 28  1  0  0  0
 28 29  2  0  0  0
 29 30  1  0  0  0
 29 23  1  0  0  0
 31 30  2  0  0  0
 23 24  2  0  0  0
 23 25  1  0  0  0
  1 25  1  0  0  0
 25 32  1  0  0  0
  2  1  2  0  0  0
  1  6  1  0  0  0
  2  3  1  0  0  0
  3  4  2  0  0  0
  4  5  1  0  0  0
  6  5  2  0  0  0
  5  7  1  0  0  0
 11  7  1  0  0  0
  7  8  2  0  0  0
  8  9  1  0  0  0
  8 12  1  0  0  0
 10  9  2  0  0  0
  9 17  1  0  0  0
 11 10  1  0  0  0
 13 10  1  0  0  0
 14 13  2  0  0  0
 13 15  1  0  0  0
 18 17  1  0  0  0
 18 19  1  0  0  0
 19 20  2  0  0  0
 19 21  1  0  0  0
 33 32  1  0  0  0
 32 37  1  0  0  0
 33 34  1  0  0  0
 34 35  1  0  0  0
 35 36  1  0  0  0
 37 36  1  0  0  0
 15 16  1  0  0  0
 21 22  1  0  0  0
M  END
> <minimizedAffinity>
-7.74463

$$$$
2ZN7_410_A_300


 37 40  0  0  0  0  0  0  0  0999 V2000
   48.0631   10.4212    0.0887 C   0  0  0  0  0  0  0  0  0  0  0  0
   48.1575    9.4492    1.0887 C   0  0  0  0  0  0  0  0  0  0  0  0
   47.6450    9.7072    2.3621 C   0  0  0  0  0  0  0  0  0  0  0  0
   47.0323   10.9320    2.6567 C   0  0  0  0  0  0  0  0  0  0  0  0
   46.9233   11.9242    1.6669 C   0  0  0  0  0  0  0  0  0  0  0  0
   47.4429   11.6520    0.3889 C   0  0  0  0  0  0  0  0  0  0  0  0
   46.2649   13.2074    1.9434 C   0  0  0  0  0  0  0  0  0  0  0  0
   46.3752   14.0791    3.0140 C   0  0  0  0  0  0  0  0  0  0  0  0
   45.5620   15.2417    2.9027 C   0  0  0  0  0  0  0  0  0  0  0  0
   44.8302   15.2000    1.7285 C   0  0  0  0  0  0  0  0  0  0  0  0
   45.1526   13.8075    0.7835 S   0  0  0  0  0  0  0  0  0  0  0  0
   47.4933   13.8205    4.5270 Br  0  0  0  0  0  0  0  0  0  0  0  0
   43.8128   16.2516    1.1807 C   0  0  0  0  0  0  0  0  0  0  0  0
   43.6764   16.2241   -0.0773 O   0  0  0  0  0  0  0  0  0  0  0  0
   43.2144   17.0016    2.0005 O   0  0  0  0  0  0  0  0  0  0  0  0
   43.3966   16.9333    2.9171 H   0  0  0  0  0  0  0  0  0  0  0  0
   45.4876   16.2293    3.8514 O   0  0  0  0  0  0  0  0  0  0  0  0
   46.3441   17.3640    3.6580 C   0  0  0  0  0  0  0  0  0  0  0  0
   47.3603   17.3272    4.8174 C   0  0  0  0  0  0  0  0  0  0  0  0
   48.5708   17.2751    4.4926 O   0  0  0  0  0  0  0  0  0  0  0  0
   46.8831   17.3405    5.9874 O   0  0  0  0  0  0  0  0  0  0  0  0
   45.9557   17.3812    6.1147 H   0  0  0  0  0  0  0  0  0  0  0  0
   47.7071    9.9020   -2.3064 C   0  0  0  0  0  0  0  0  0  0  0  0
   48.0887    9.7477   -3.4672 O   0  0  0  0  0  0  0  0  0  0  0  0
   48.5661   10.2277   -1.2429 N   0  0  0  0  0  0  0  0  0  0  0  0
   43.4887    9.4108   -1.5359 C   0  0  0  0  0  0  0  0  0  0  0  0
   43.9810   10.5955   -2.0889 C   0  0  0  0  0  0  0  0  0  0  0  0
   45.3517   10.7438   -2.3372 C   0  0  0  0  0  0  0  0  0  0  0  0
   46.2490    9.7060   -2.0309 C   0  0  0  0  0  0  0  0  0  0  0  0
   45.7509    8.5207   -1.4753 C   0  0  0  0  0  0  0  0  0  0  0  0
   44.3801    8.3786   -1.2296 C   0  0  0  0  0  0  0  0  0  0  0  0
   50.0272   10.4187   -1.5089 C   0  0  0  0  0  0  0  0  0  0  0  0
   50.9120    9.4066   -0.7687 C   0  0  0  0  0  0  0  0  0  0  0  0
   52.3653    9.5569   -1.1964 C   0  0  0  0  0  0  0  0  0  0  0  0
   52.8571   10.9544   -0.8340 C   0  0  0  0  0  0  0  0  0  0  0  0
   52.0254   12.0212   -1.5468 C   0  0  0  0  0  0  0  0  0  0  0  0
   50.5167   11.8617   -1.3103 C   0  0  0  0  0  0  0  0  0  0  0  0
 27 26  2  0  0  0
 26 31  1  0  0  0
 27 28  1  0  0  0
 28 29  2  0  0  0
 29 30  1  0  0  0
 29 23  1  0  0  0
 31 30  2  0  0  0
 23 24  2  0  0  0
 23 25  1  0  0  0
  1 25  1  0  0  0
 25 32  1  0  0  0
  2  1  2  0  0  0
  1  6  1  0  0  0
  2  3  1  0  0  0
  3  4  2  0  0  0
  4  5  1  0  0  0
  6  5  2  0  0  0
  5  7  1  0  0  0
 11  7  1  0  0  0
  7  8  2  0  0  0
  8  9  1  0  0  0
  8 12  1  0  0  0
 10  9  2  0  0  0
  9 17  1  0  0  0
 11 10  1  0  0  0
 13 10  1  0  0  0
 14 13  2  0  0  0
 13 15  1  0  0  0
 18 17  1  0  0  0
 18 19  1  0  0  0
 19 20  2  0  0  0
 19 21  1  0  0  0
 33 32  1  0  0  0
 32 37  1  0  0  0
 33 34  1  0  0  0
 34 35  1  0  0  0
 35 36  1  0  0  0
 37 36  1  0  0  0
 15 16  1  0  0  0
 21 22  1  0  0  0
M  END
> <minimizedAffinity>
-7.47508

$$$$
2ZN7_410_A_300


 37 40  0  0  0  0  0  0  0  0999 V2000
   46.6159   10.4165   -1.2602 C   0  0  0  0  0  0  0  0  0  0  0  0
   45.6693    9.4124   -1.0382 C   0  0  0  0  0  0  0  0  0  0  0  0
   44.6858    9.5853   -0.0617 C   0  0  0  0  0  0  0  0  0  0  0  0
   44.6304   10.7567    0.7044 C   0  0  0  0  0  0  0  0  0  0  0  0
   45.5698   11.7817    0.4979 C   0  0  0  0  0  0  0  0  0  0  0  0
   46.5547   11.5957   -0.4884 C   0  0  0  0  0  0  0  0  0  0  0  0
   45.5192   13.0291    1.2713 C   0  0  0  0  0  0  0  0  0  0  0  0
   46.1284   13.3920    2.4610 C   0  0  0  0  0  0  0  0  0  0  0  0
   45.8296   14.7168    2.8862 C   0  0  0  0  0  0  0  0  0  0  0  0
   44.9661   15.3213    1.9889 C   0  0  0  0  0  0  0  0  0  0  0  0
   44.5648   14.3167    0.6601 S   0  0  0  0  0  0  0  0  0  0  0  0
   47.2773   12.2815    3.4871 Br  0  0  0  0  0  0  0  0  0  0  0  0
   44.3704   16.7648    2.0368 C   0  0  0  0  0  0  0  0  0  0  0  0
   43.1990   16.8505    1.5653 O   0  0  0  0  0  0  0  0  0  0  0  0
   45.0641   17.6914    2.5396 O   0  0  0  0  0  0  0  0  0  0  0  0
   45.9260   17.5105    2.8596 H   0  0  0  0  0  0  0  0  0  0  0  0
   46.2977   15.2834    4.0441 O   0  0  0  0  0  0  0  0  0  0  0  0
   47.5718   15.9383    3.9629 C   0  0  0  0  0  0  0  0  0  0  0  0
   47.5035   17.1170    4.9550 C   0  0  0  0  0  0  0  0  0  0  0  0
   48.6026   17.5933    5.3269 O   0  0  0  0  0  0  0  0  0  0  0  0
   46.3497   17.4883    5.3125 O   0  0  0  0  0  0  0  0  0  0  0  0
   45.5916   17.0581    4.9686 H   0  0  0  0  0  0  0  0  0  0  0  0
   47.4108   10.6067   -3.5979 C   0  0  0  0  0  0  0  0  0  0  0  0
   48.2742   10.5507   -4.4743 O   0  0  0  0  0  0  0  0  0  0  0  0
   47.6552   10.3103   -2.2461 N   0  0  0  0  0  0  0  0  0  0  0  0
   43.4371   11.7928   -4.7951 C   0  0  0  0  0  0  0  0  0  0  0  0
   44.3597   12.7393   -4.3427 C   0  0  0  0  0  0  0  0  0  0  0  0
   45.6476   12.3441   -3.9589 C   0  0  0  0  0  0  0  0  0  0  0  0
   46.0274   10.9921   -4.0201 C   0  0  0  0  0  0  0  0  0  0  0  0
   45.0985   10.0466   -4.4729 C   0  0  0  0  0  0  0  0  0  0  0  0
   43.8131   10.4478   -4.8552 C   0  0  0  0  0  0  0  0  0  0  0  0
   49.0348    9.9173   -1.8167 C   0  0  0  0  0  0  0  0  0  0  0  0
   49.0426    8.8167   -0.7471 C   0  0  0  0  0  0  0  0  0  0  0  0
   50.4667    8.3586   -0.4648 C   0  0  0  0  0  0  0  0  0  0  0  0
   51.2784    9.5327    0.0726 C   0  0  0  0  0  0  0  0  0  0  0  0
   51.3245   10.6698   -0.9486 C   0  0  0  0  0  0  0  0  0  0  0  0
   49.9310   11.1029   -1.4263 C   0  0  0  0  0  0  0  0  0  0  0  0
 27 26  2  0  0  0
 26 31  1  0  0  0
 27 28  1  0  0  0
 28 29  2  0  0  0
 29 30  1  0  0  0
 29 23  1  0  0  0
 31 30  2  0  0  0
 23 24  2  0  0  0
 23 25  1  0  0  0
  1 25  1  0  0  0
 25 32  1  0  0  0
  2  1  2  0  0  0
  1  6  1  0  0  0
  2  3  1  0  0  0
  3  4  2  0  0  0
  4  5  1  0  0  0
  6  5  2  0  0  0
  5  7  1  0  0  0
 11  7  1  0  0  0
  7  8  2  0  0  0
  8  9  1  0  0  0
  8 12  1  0  0  0
 10  9  2  0  0  0
  9 17  1  0  0  0
 11 10  1  0  0  0
 13 10  1  0  0  0
 14 13  2  0  0  0
 13 15  1  0  0  0
 18 17  1  0  0  0
 18 19  1  0  0  0
 19 20  2  0  0  0
 19 21  1  0  0  0
 33 32  1  0  0  0
 32 37  1  0  0  0
 33 34  1  0  0  0
 34 35  1  0  0  0
 35 36  1  0  0  0
 37 36  1  0  0  0
 15 16  1  0  0  0
 21 22  1  0  0  0
M  END
> <minimizedAffinity>
-7.30843

$$$$
2ZN7_410_A_300


 37 40  0  0  0  0  0  0  0  0999 V2000
   46.6422   11.3094   -1.3474 C   0  0  0  0  0  0  0  0  0  0  0  0
   45.4751   11.1768   -2.1051 C   0  0  0  0  0  0  0  0  0  0  0  0
   44.3221   11.8738   -1.7368 C   0  0  0  0  0  0  0  0  0  0  0  0
   44.3150   12.7105   -0.6134 C   0  0  0  0  0  0  0  0  0  0  0  0
   45.4771   12.8620    0.1628 C   0  0  0  0  0  0  0  0  0  0  0  0
   46.6313   12.1552   -0.2186 C   0  0  0  0  0  0  0  0  0  0  0  0
   45.5025   13.7511    1.3314 C   0  0  0  0  0  0  0  0  0  0  0  0
   46.1498   13.6395    2.5506 C   0  0  0  0  0  0  0  0  0  0  0  0
   45.9251   14.7354    3.4302 C   0  0  0  0  0  0  0  0  0  0  0  0
   45.0774   15.6553    2.8374 C   0  0  0  0  0  0  0  0  0  0  0  0
   44.6031   15.2097    1.2524 S   0  0  0  0  0  0  0  0  0  0  0  0
   47.2595   12.1898    3.0735 Br  0  0  0  0  0  0  0  0  0  0  0  0
   44.5556   17.0090    3.4172 C   0  0  0  0  0  0  0  0  0  0  0  0
   44.2899   16.9671    4.6540 O   0  0  0  0  0  0  0  0  0  0  0  0
   44.4628   18.0040    2.6464 O   0  0  0  0  0  0  0  0  0  0  0  0
   44.6885   17.9179    1.7411 H   0  0  0  0  0  0  0  0  0  0  0  0
   46.4412   14.8309    4.6972 O   0  0  0  0  0  0  0  0  0  0  0  0
   47.7442   15.4207    4.8114 C   0  0  0  0  0  0  0  0  0  0  0  0
   47.5059   16.9059    5.1518 C   0  0  0  0  0  0  0  0  0  0  0  0
   48.0185   17.7430    4.3708 O   0  0  0  0  0  0  0  0  0  0  0  0
   46.8277   17.1455    6.1907 O   0  0  0  0  0  0  0  0  0  0  0  0
   46.4905   16.4376    6.7037 H   0  0  0  0  0  0  0  0  0  0  0  0
   48.6952   11.0636   -2.7104 C   0  0  0  0  0  0  0  0  0  0  0  0
   49.7617   10.5230   -3.0053 O   0  0  0  0  0  0  0  0  0  0  0  0
   47.8649   10.6255   -1.6646 N   0  0  0  0  0  0  0  0  0  0  0  0
   47.4413   14.3939   -5.1531 C   0  0  0  0  0  0  0  0  0  0  0  0
   47.2869   13.0801   -5.6022 C   0  0  0  0  0  0  0  0  0  0  0  0
   47.6950   12.0063   -4.8006 C   0  0  0  0  0  0  0  0  0  0  0  0
   48.2674   12.2357   -3.5373 C   0  0  0  0  0  0  0  0  0  0  0  0
   48.4214   13.5546   -3.0919 C   0  0  0  0  0  0  0  0  0  0  0  0
   48.0115   14.6235   -3.8977 C   0  0  0  0  0  0  0  0  0  0  0  0
   48.2822    9.4493   -0.8371 C   0  0  0  0  0  0  0  0  0  0  0  0
   47.1119    8.5300   -0.4627 C   0  0  0  0  0  0  0  0  0  0  0  0
   47.6204    7.2818    0.2450 C   0  0  0  0  0  0  0  0  0  0  0  0
   48.3247    7.6845    1.5366 C   0  0  0  0  0  0  0  0  0  0  0  0
   49.5151    8.5973    1.2406 C   0  0  0  0  0  0  0  0  0  0  0  0
   49.1377    9.8157    0.3857 C   0  0  0  0  0  0  0  0  0  0  0  0
 27 26  2  0  0  0
 26 31  1  0  0  0
 27 28  1  0  0  0
 28 29  2  0  0  0
 29 30  1  0  0  0
 29 23  1  0  0  0
 31 30  2  0  0  0
 23 24  2  0  0  0
 23 25  1  0  0  0
  1 25  1  0  0  0
 25 32  1  0  0  0
  2  1  2  0  0  0
  1  6  1  0  0  0
  2  3  1  0  0  0
  3  4  2  0  0  0
  4  5  1  0  0  0
  6  5  2  0  0  0
  5  7  1  0  0  0
 11  7  1  0  0  0
  7  8  2  0  0  0
  8  9  1  0  0  0
  8 12  1  0  0  0
 10  9  2  0  0  0
  9 17  1  0  0  0
 11 10  1  0  0  0
 13 10  1  0  0  0
 14 13  2  0  0  0
 13 15  1  0  0  0
 18 17  1  0  0  0
 18 19  1  0  0  0
 19 20  2  0  0  0
 19 21  1  0  0  0
 33 32  1  0  0  0
 32 37  1  0  0  0
 33 34  1  0  0  0
 34 35  1  0  0  0
 35 36  1  0  0  0
 37 36  1  0  0  0
 15 16  1  0  0  0
 21 22  1  0  0  0
M  END
> <minimizedAffinity>
-6.79946

$$$$
2ZN7_410_A_300


 37 40  0  0  0  0  0  0  0  0999 V2000
   47.0925    8.9542    0.1872 C   0  0  0  0  0  0  0  0  0  0  0  0
   45.8692    8.4910   -0.3054 C   0  0  0  0  0  0  0  0  0  0  0  0
   44.7110    9.2493   -0.1200 C   0  0  0  0  0  0  0  0  0  0  0  0
   44.7543   10.4759    0.5552 C   0  0  0  0  0  0  0  0  0  0  0  0
   45.9731   10.9638    1.0575 C   0  0  0  0  0  0  0  0  0  0  0  0
   47.1320   10.1911    0.8641 C   0  0  0  0  0  0  0  0  0  0  0  0
   46.0494   12.2574    1.7484 C   0  0  0  0  0  0  0  0  0  0  0  0
   45.5766   13.5107    1.3964 C   0  0  0  0  0  0  0  0  0  0  0  0
   45.8499   14.5254    2.3560 C   0  0  0  0  0  0  0  0  0  0  0  0
   46.5557   13.9946    3.4220 C   0  0  0  0  0  0  0  0  0  0  0  0
   46.8422   12.3123    3.2687 S   0  0  0  0  0  0  0  0  0  0  0  0
   44.6338   13.9172   -0.2012 Br  0  0  0  0  0  0  0  0  0  0  0  0
   47.0681   14.7226    4.7059 C   0  0  0  0  0  0  0  0  0  0  0  0
   46.4931   14.3487    5.7697 O   0  0  0  0  0  0  0  0  0  0  0  0
   47.9911   15.5757    4.5925 O   0  0  0  0  0  0  0  0  0  0  0  0
   48.3440   15.7747    3.7476 H   0  0  0  0  0  0  0  0  0  0  0  0
   45.5009   15.8437    2.2110 O   0  0  0  0  0  0  0  0  0  0  0  0
   44.3890   16.2983    2.9957 C   0  0  0  0  0  0  0  0  0  0  0  0
   44.9959   17.1294    4.1443 C   0  0  0  0  0  0  0  0  0  0  0  0
   44.4431   17.0142    5.2643 O   0  0  0  0  0  0  0  0  0  0  0  0
   45.9855   17.8590    3.8520 O   0  0  0  0  0  0  0  0  0  0  0  0
   46.3189   17.8673    2.9764 H   0  0  0  0  0  0  0  0  0  0  0  0
   49.0033    8.1992   -1.1954 C   0  0  0  0  0  0  0  0  0  0  0  0
   50.0713    7.6109   -1.3686 O   0  0  0  0  0  0  0  0  0  0  0  0
   48.3239    8.2306    0.0344 N   0  0  0  0  0  0  0  0  0  0  0  0
   47.2445   10.1320   -4.6307 C   0  0  0  0  0  0  0  0  0  0  0  0
   47.1085    8.7550   -4.4378 C   0  0  0  0  0  0  0  0  0  0  0  0
   47.6812    8.1380   -3.3182 C   0  0  0  0  0  0  0  0  0  0  0  0
   48.4020    8.8937   -2.3772 C   0  0  0  0  0  0  0  0  0  0  0  0
   48.5368   10.2737   -2.5757 C   0  0  0  0  0  0  0  0  0  0  0  0
   47.9621   10.8844   -3.6965 C   0  0  0  0  0  0  0  0  0  0  0  0
   48.9152    7.5325    1.2198 C   0  0  0  0  0  0  0  0  0  0  0  0
   47.8642    7.1016    2.2517 C   0  0  0  0  0  0  0  0  0  0  0  0
   48.5081    6.2698    3.3522 C   0  0  0  0  0  0  0  0  0  0  0  0
   49.5517    7.1126    4.0780 C   0  0  0  0  0  0  0  0  0  0  0  0
   50.6432    7.5715    3.1106 C   0  0  0  0  0  0  0  0  0  0  0  0
   50.0842    8.2869    1.8723 C   0  0  0  0  0  0  0  0  0  0  0  0
 27 26  2  0  0  0
 26 31  1  0  0  0
 27 28  1  0  0  0
 28 29  2  0  0  0
 29 30  1  0  0  0
 29 23  1  0  0  0
 31 30  2  0  0  0
 23 24  2  0  0  0
 23 25  1  0  0  0
  1 25  1  0  0  0
 25 32  1  0  0  0
  2  1  2  0  0  0
  1  6  1  0  0  0
  2  3  1  0  0  0
  3  4  2  0  0  0
  4  5  1  0  0  0
  6  5  2  0  0  0
  5  7  1  0  0  0
 11  7  1  0  0  0
  7  8  2  0  0  0
  8  9  1  0  0  0
  8 12  1  0  0  0
 10  9  2  0  0  0
  9 17  1  0  0  0
 11 10  1  0  0  0
 13 10  1  0  0  0
 14 13  2  0  0  0
 13 15  1  0  0  0
 18 17  1  0  0  0
 18 19  1  0  0  0
 19 20  2  0  0  0
 19 21  1  0  0  0
 33 32  1  0  0  0
 32 37  1  0  0  0
 33 34  1  0  0  0
 34 35  1  0  0  0
 35 36  1  0  0  0
 37 36  1  0  0  0
 15 16  1  0  0  0
 21 22  1  0  0  0
M  END
> <minimizedAffinity>
-6.77391

$$$$
2ZN7_410_A_300


 37 40  0  0  0  0  0  0  0  0999 V2000
   47.0673   10.6318   -1.5639 C   0  0  0  0  0  0  0  0  0  0  0  0
   47.9260   11.7011   -1.8338 C   0  0  0  0  0  0  0  0  0  0  0  0
   49.1137   11.8405   -1.1123 C   0  0  0  0  0  0  0  0  0  0  0  0
   49.4628   10.9198   -0.1160 C   0  0  0  0  0  0  0  0  0  0  0  0
   48.6167    9.8348    0.1719 C   0  0  0  0  0  0  0  0  0  0  0  0
   47.4240    9.7054   -0.5617 C   0  0  0  0  0  0  0  0  0  0  0  0
   48.9709    8.8428    1.1951 C   0  0  0  0  0  0  0  0  0  0  0  0
   50.0532    7.9851    1.3006 C   0  0  0  0  0  0  0  0  0  0  0  0
   50.0372    7.1701    2.4670 C   0  0  0  0  0  0  0  0  0  0  0  0
   48.9028    7.4327    3.2156 C   0  0  0  0  0  0  0  0  0  0  0  0
   47.9140    8.6543    2.5331 S   0  0  0  0  0  0  0  0  0  0  0  0
   51.4740    7.8546    0.0473 Br  0  0  0  0  0  0  0  0  0  0  0  0
   48.4624    6.7890    4.5693 C   0  0  0  0  0  0  0  0  0  0  0  0
   47.2838    7.0900    4.9192 O   0  0  0  0  0  0  0  0  0  0  0  0
   49.2724    6.0337    5.1743 O   0  0  0  0  0  0  0  0  0  0  0  0
   50.1260    5.8818    4.8190 H   0  0  0  0  0  0  0  0  0  0  0  0
   50.9893    6.2305    2.7693 O   0  0  0  0  0  0  0  0  0  0  0  0
   52.3037    6.7266    3.0607 C   0  0  0  0  0  0  0  0  0  0  0  0
   52.2389    7.2696    4.5026 C   0  0  0  0  0  0  0  0  0  0  0  0
   52.2813    6.4148    5.4196 O   0  0  0  0  0  0  0  0  0  0  0  0
   52.1370    8.5227    4.6303 O   0  0  0  0  0  0  0  0  0  0  0  0
   52.1144    9.0707    3.8706 H   0  0  0  0  0  0  0  0  0  0  0  0
   44.6551   11.0928   -1.8831 C   0  0  0  0  0  0  0  0  0  0  0  0
   43.5778   10.9624   -2.4655 O   0  0  0  0  0  0  0  0  0  0  0  0
   45.8305   10.4232   -2.2641 N   0  0  0  0  0  0  0  0  0  0  0  0
   44.7440   13.6495    1.5933 C   0  0  0  0  0  0  0  0  0  0  0  0
   44.7159   12.2594    1.7290 C   0  0  0  0  0  0  0  0  0  0  0  0
   44.6897   11.4385    0.5942 C   0  0  0  0  0  0  0  0  0  0  0  0
   44.6876   12.0013   -0.6940 C   0  0  0  0  0  0  0  0  0  0  0  0
   44.7144   13.3955   -0.8250 C   0  0  0  0  0  0  0  0  0  0  0  0
   44.7407   14.2104    0.3130 C   0  0  0  0  0  0  0  0  0  0  0  0
   45.8047    9.5072   -3.4484 C   0  0  0  0  0  0  0  0  0  0  0  0
   45.2159    8.1263   -3.1296 C   0  0  0  0  0  0  0  0  0  0  0  0
   45.0789    7.2995   -4.4005 C   0  0  0  0  0  0  0  0  0  0  0  0
   46.4582    7.0845   -5.0150 C   0  0  0  0  0  0  0  0  0  0  0  0
   47.1056    8.4232   -5.3706 C   0  0  0  0  0  0  0  0  0  0  0  0
   47.1476    9.4014   -4.1878 C   0  0  0  0  0  0  0  0  0  0  0  0
 27 26  2  0  0  0
 26 31  1  0  0  0
 27 28  1  0  0  0
 28 29  2  0  0  0
 29 30  1  0  0  0
 29 23  1  0  0  0
 31 30  2  0  0  0
 23 24  2  0  0  0
 23 25  1  0  0  0
  1 25  1  0  0  0
 25 32  1  0  0  0
  2  1  2  0  0  0
  1  6  1  0  0  0
  2  3  1  0  0  0
  3  4  2  0  0  0
  4  5  1  0  0  0
  6  5  2  0  0  0
  5  7  1  0  0  0
 11  7  1  0  0  0
  7  8  2  0  0  0
  8  9  1  0  0  0
  8 12  1  0  0  0
 10  9  2  0  0  0
  9 17  1  0  0  0
 11 10  1  0  0  0
 13 10  1  0  0  0
 14 13  2  0  0  0
 13 15  1  0  0  0
 18 17  1  0  0  0
 18 19  1  0  0  0
 19 20  2  0  0  0
 19 21  1  0  0  0
 33 32  1  0  0  0
 32 37  1  0  0  0
 33 34  1  0  0  0
 34 35  1  0  0  0
 35 36  1  0  0  0
 37 36  1  0  0  0
 15 16  1  0  0  0
 21 22  1  0  0  0
M  END
> <minimizedAffinity>
-6.69024

$$$$
2ZN7_410_A_300


 37 40  0  0  0  0  0  0  0  0999 V2000
   48.9205    9.0875    0.1666 C   0  0  0  0  0  0  0  0  0  0  0  0
   48.1144    8.2604   -0.6206 C   0  0  0  0  0  0  0  0  0  0  0  0
   48.0730    6.8866   -0.3722 C   0  0  0  0  0  0  0  0  0  0  0  0
   48.8302    6.3188    0.6605 C   0  0  0  0  0  0  0  0  0  0  0  0
   49.6464    7.1305    1.4672 C   0  0  0  0  0  0  0  0  0  0  0  0
   49.6792    8.5120    1.2073 C   0  0  0  0  0  0  0  0  0  0  0  0
   50.4317    6.5634    2.5710 C   0  0  0  0  0  0  0  0  0  0  0  0
   50.0991    6.3036    3.8901 C   0  0  0  0  0  0  0  0  0  0  0  0
   51.1553    5.7329    4.6542 C   0  0  0  0  0  0  0  0  0  0  0  0
   52.2880    5.5935    3.8707 C   0  0  0  0  0  0  0  0  0  0  0  0
   52.0555    6.1101    2.2536 S   0  0  0  0  0  0  0  0  0  0  0  0
   48.4062    6.6436    4.6806 Br  0  0  0  0  0  0  0  0  0  0  0  0
   53.6816    5.0134    4.2733 C   0  0  0  0  0  0  0  0  0  0  0  0
   54.3373    4.5367    3.3012 O   0  0  0  0  0  0  0  0  0  0  0  0
   54.0410    5.0804    5.4811 O   0  0  0  0  0  0  0  0  0  0  0  0
   53.4685    5.4570    6.1201 H   0  0  0  0  0  0  0  0  0  0  0  0
   51.0655    5.4161    5.9854 O   0  0  0  0  0  0  0  0  0  0  0  0
   50.7743    4.0458    6.2958 C   0  0  0  0  0  0  0  0  0  0  0  0
   51.5773    3.7233    7.5724 C   0  0  0  0  0  0  0  0  0  0  0  0
   52.3253    4.6339    8.0020 O   0  0  0  0  0  0  0  0  0  0  0  0
   51.4191    2.5694    8.0627 O   0  0  0  0  0  0  0  0  0  0  0  0
   50.8301    1.9645    7.6566 H   0  0  0  0  0  0  0  0  0  0  0  0
   49.9960   11.0656   -0.8647 C   0  0  0  0  0  0  0  0  0  0  0  0
   50.1014   12.2737   -1.0793 O   0  0  0  0  0  0  0  0  0  0  0  0
   49.0138   10.5076   -0.0287 N   0  0  0  0  0  0  0  0  0  0  0  0
   52.9178    8.4741   -2.7024 C   0  0  0  0  0  0  0  0  0  0  0  0
   53.1803    9.0913   -1.4770 C   0  0  0  0  0  0  0  0  0  0  0  0
   52.2241    9.9287   -0.8880 C   0  0  0  0  0  0  0  0  0  0  0  0
   50.9915   10.1616   -1.5223 C   0  0  0  0  0  0  0  0  0  0  0  0
   50.7335    9.5417   -2.7515 C   0  0  0  0  0  0  0  0  0  0  0  0
   51.6930    8.7059   -3.3349 C   0  0  0  0  0  0  0  0  0  0  0  0
   48.0184   11.4057    0.6384 C   0  0  0  0  0  0  0  0  0  0  0  0
   47.6193   10.9267    2.0407 C   0  0  0  0  0  0  0  0  0  0  0  0
   46.7268   11.9555    2.7208 C   0  0  0  0  0  0  0  0  0  0  0  0
   45.4473   12.1303    1.9093 C   0  0  0  0  0  0  0  0  0  0  0  0
   45.7668   12.6189    0.4961 C   0  0  0  0  0  0  0  0  0  0  0  0
   46.7915   11.7330   -0.2268 C   0  0  0  0  0  0  0  0  0  0  0  0
 27 26  2  0  0  0
 26 31  1  0  0  0
 27 28  1  0  0  0
 28 29  2  0  0  0
 29 30  1  0  0  0
 29 23  1  0  0  0
 31 30  2  0  0  0
 23 24  2  0  0  0
 23 25  1  0  0  0
  1 25  1  0  0  0
 25 32  1  0  0  0
  2  1  2  0  0  0
  1  6  1  0  0  0
  2  3  1  0  0  0
  3  4  2  0  0  0
  4  5  1  0  0  0
  6  5  2  0  0  0
  5  7  1  0  0  0
 11  7  1  0  0  0
  7  8  2  0  0  0
  8  9  1  0  0  0
  8 12  1  0  0  0
 10  9  2  0  0  0
  9 17  1  0  0  0
 11 10  1  0  0  0
 13 10  1  0  0  0
 14 13  2  0  0  0
 13 15  1  0  0  0
 18 17  1  0  0  0
 18 19  1  0  0  0
 19 20  2  0  0  0
 19 21  1  0  0  0
 33 32  1  0  0  0
 32 37  1  0  0  0
 33 34  1  0  0  0
 34 35  1  0  0  0
 35 36  1  0  0  0
 37 36  1  0  0  0
 15 16  1  0  0  0
 21 22  1  0  0  0
M  END
> <minimizedAffinity>
-6.68019

$$$$
2ZN7_410_A_300


 37 40  0  0  0  0  0  0  0  0999 V2000
   47.0979   10.6468   -2.0071 C   0  0  0  0  0  0  0  0  0  0  0  0
   47.6694   11.8987   -2.2517 C   0  0  0  0  0  0  0  0  0  0  0  0
   48.9153   12.2147   -1.7053 C   0  0  0  0  0  0  0  0  0  0  0  0
   49.6080   11.2918   -0.9112 C   0  0  0  0  0  0  0  0  0  0  0  0
   49.0548   10.0256   -0.6532 C   0  0  0  0  0  0  0  0  0  0  0  0
   47.8001    9.7194   -1.2093 C   0  0  0  0  0  0  0  0  0  0  0  0
   49.7712    9.0316    0.1565 C   0  0  0  0  0  0  0  0  0  0  0  0
   49.5362    8.5534    1.4349 C   0  0  0  0  0  0  0  0  0  0  0  0
   50.4693    7.5702    1.8681 C   0  0  0  0  0  0  0  0  0  0  0  0
   51.4154    7.3452    0.8829 C   0  0  0  0  0  0  0  0  0  0  0  0
   51.1503    8.2772   -0.5302 S   0  0  0  0  0  0  0  0  0  0  0  0
   48.1148    9.1049    2.5670 Br  0  0  0  0  0  0  0  0  0  0  0  0
   52.6244    6.3559    0.9057 C   0  0  0  0  0  0  0  0  0  0  0  0
   53.5800    6.6986    0.1499 O   0  0  0  0  0  0  0  0  0  0  0  0
   52.5675    5.3451    1.6593 O   0  0  0  0  0  0  0  0  0  0  0  0
   51.8030    5.1903    2.1785 H   0  0  0  0  0  0  0  0  0  0  0  0
   50.4507    6.9749    3.1034 O   0  0  0  0  0  0  0  0  0  0  0  0
   50.9663    7.7529    4.1932 C   0  0  0  0  0  0  0  0  0  0  0  0
   52.1961    6.9828    4.7157 C   0  0  0  0  0  0  0  0  0  0  0  0
   52.2424    5.7598    4.4411 O   0  0  0  0  0  0  0  0  0  0  0  0
   53.0384    7.6487    5.3820 O   0  0  0  0  0  0  0  0  0  0  0  0
   52.9025    8.5644    5.5272 H   0  0  0  0  0  0  0  0  0  0  0  0
   44.6227   10.6617   -1.9286 C   0  0  0  0  0  0  0  0  0  0  0  0
   43.5066   10.3653   -2.3567 O   0  0  0  0  0  0  0  0  0  0  0  0
   45.8220   10.2506   -2.5350 N   0  0  0  0  0  0  0  0  0  0  0  0
   44.7978   13.1065    1.6242 C   0  0  0  0  0  0  0  0  0  0  0  0
   44.7210   13.6908    0.3576 C   0  0  0  0  0  0  0  0  0  0  0  0
   44.6621   12.8882   -0.7890 C   0  0  0  0  0  0  0  0  0  0  0  0
   44.6831   11.4868   -0.6812 C   0  0  0  0  0  0  0  0  0  0  0  0
   44.7618   10.9056    0.5907 C   0  0  0  0  0  0  0  0  0  0  0  0
   44.8201   11.7130    1.7327 C   0  0  0  0  0  0  0  0  0  0  0  0
   45.7702    9.4192   -3.7793 C   0  0  0  0  0  0  0  0  0  0  0  0
   45.6654    7.9148   -3.4951 C   0  0  0  0  0  0  0  0  0  0  0  0
   45.4655    7.1407   -4.7906 C   0  0  0  0  0  0  0  0  0  0  0  0
   46.6705    7.3575   -5.7001 C   0  0  0  0  0  0  0  0  0  0  0  0
   46.8330    8.8400   -6.0370 C   0  0  0  0  0  0  0  0  0  0  0  0
   46.8828    9.7357   -4.7909 C   0  0  0  0  0  0  0  0  0  0  0  0
 27 26  2  0  0  0
 26 31  1  0  0  0
 27 28  1  0  0  0
 28 29  2  0  0  0
 29 30  1  0  0  0
 29 23  1  0  0  0
 31 30  2  0  0  0
 23 24  2  0  0  0
 23 25  1  0  0  0
  1 25  1  0  0  0
 25 32  1  0  0  0
  2  1  2  0  0  0
  1  6  1  0  0  0
  2  3  1  0  0  0
  3  4  2  0  0  0
  4  5  1  0  0  0
  6  5  2  0  0  0
  5  7  1  0  0  0
 11  7  1  0  0  0
  7  8  2  0  0  0
  8  9  1  0  0  0
  8 12  1  0  0  0
 10  9  2  0  0  0
  9 17  1  0  0  0
 11 10  1  0  0  0
 13 10  1  0  0  0
 14 13  2  0  0  0
 13 15  1  0  0  0
 18 17  1  0  0  0
 18 19  1  0  0  0
 19 20  2  0  0  0
 19 21  1  0  0  0
 33 32  1  0  0  0
 32 37  1  0  0  0
 33 34  1  0  0  0
 34 35  1  0  0  0
 35 36  1  0  0  0
 37 36  1  0  0  0
 15 16  1  0  0  0
 21 22  1  0  0  0
M  END
> <minimizedAffinity>
-6.61072

$$$$
