4CRC_OTM_A_1245


 42 46  0  0  0  0  0  0  0  0999 V2000
  -51.4354  -11.2668  -24.7544 C   0  0  0  0  0  0  0  0  0  0  0  0
  -49.8989  -10.0301  -23.3378 C   0  0  0  0  0  0  0  0  0  0  0  0
  -49.6858   -9.2514  -24.2529 O   0  0  0  0  0  0  0  0  0  0  0  0
  -50.7812  -11.0738  -23.4597 N   0  0  0  0  0  0  0  0  0  0  0  0
  -50.9679  -11.6730  -22.7012 H   0  0  0  0  0  0  0  0  0  0  0  0
  -49.1495   -9.8540  -22.0596 C   0  0  0  0  0  0  0  0  0  0  0  0
  -48.6234  -10.8800  -21.3716 C   0  0  0  0  0  0  0  0  0  0  0  0
  -47.9035  -10.5763  -20.1158 C   0  0  0  0  0  0  0  0  0  0  0  0
  -46.5210  -10.4799  -20.1060 C   0  0  0  0  0  0  0  0  0  0  0  0
  -45.8152  -10.1975  -18.9452 C   0  0  0  0  0  0  0  0  0  0  0  0
  -46.4970  -10.0051  -17.7574 C   0  0  0  0  0  0  0  0  0  0  0  0
  -47.8707  -10.1027  -17.7412 C   0  0  0  0  0  0  0  0  0  0  0  0
  -48.5568  -10.3831  -18.9092 C   0  0  0  0  0  0  0  0  0  0  0  0
  -44.0761  -10.0864  -18.9651 Cl  0  0  0  0  0  0  0  0  0  0  0  0
  -49.9548  -10.4691  -18.8300 N   0  0  0  0  0  0  0  0  0  0  0  0
  -50.7087  -11.5690  -18.5585 C   0  0  0  0  0  0  0  0  0  0  0  0
  -51.9783  -11.2331  -18.6211 N   0  0  0  0  0  0  0  0  0  0  0  0
  -52.0031   -9.9025  -18.9390 N   0  0  0  0  0  0  0  0  0  0  0  0
  -50.7688   -9.4339  -19.0689 N   0  0  0  0  0  0  0  0  0  0  0  0
  -52.7100  -10.4463  -24.7818 C   0  0  0  0  0  0  0  0  0  0  0  0
  -53.6704  -10.6548  -24.0479 O   0  0  0  0  0  0  0  0  0  0  0  0
  -52.6486   -9.4679  -25.7578 N   0  0  0  0  0  0  0  0  0  0  0  0
  -51.8362   -9.4561  -26.3138 H   0  0  0  0  0  0  0  0  0  0  0  0
  -53.6224   -8.4815  -26.0476 C   0  0  0  0  0  0  0  0  0  0  0  0
  -53.8845   -8.2056  -27.3692 C   0  0  0  0  0  0  0  0  0  0  0  0
  -54.8159   -7.2541  -27.7303 C   0  0  0  0  0  0  0  0  0  0  0  0
  -55.5018   -6.5607  -26.7509 C   0  0  0  0  0  0  0  0  0  0  0  0
  -55.2437   -6.8396  -25.4267 C   0  0  0  0  0  0  0  0  0  0  0  0
  -54.3184   -7.7979  -25.0678 C   0  0  0  0  0  0  0  0  0  0  0  0
  -56.4426   -5.5234  -27.0961 C   0  0  0  0  0  0  0  0  0  0  0  0
  -57.1809   -4.8163  -26.1947 N   0  0  0  0  0  0  0  0  0  0  0  0
  -57.9649   -3.9433  -26.8399 N   0  0  0  0  0  0  0  0  0  0  0  0
  -57.7103   -4.1310  -28.1289 N   0  0  0  0  0  0  0  0  0  0  0  0
  -56.7699   -5.1053  -28.3012 N   0  0  0  0  0  0  0  0  0  0  0  0
  -57.1436   -4.9302  -25.2175 H   0  0  0  0  0  0  0  0  0  0  0  0
  -51.8102  -12.7288  -24.9379 C   0  0  0  0  0  0  0  0  0  0  0  0
  -52.2324  -13.0781  -26.3326 C   0  0  0  0  0  0  0  0  0  0  0  0
  -53.2238  -14.0208  -26.5112 C   0  0  0  0  0  0  0  0  0  0  0  0
  -51.6589  -12.4989  -27.4485 C   0  0  0  0  0  0  0  0  0  0  0  0
  -53.6381  -14.3802  -27.7813 C   0  0  0  0  0  0  0  0  0  0  0  0
  -52.0644  -12.8528  -28.7199 C   0  0  0  0  0  0  0  0  0  0  0  0
  -53.0555  -13.7992  -28.8883 C   0  0  0  0  0  0  0  0  0  0  0  0
 42 40  1  0  0  0
 42 41  2  0  0  0
 40 38  2  0  0  0
 38 37  1  0  0  0
 37 39  2  0  0  0
 37 36  1  0  0  0
 39 41  1  0  0  0
 36  1  1  0  0  0
  1 20  1  0  0  0
  1  4  1  0  0  0
 20 21  2  0  0  0
 20 22  1  0  0  0
 22 24  1  0  0  0
 24 25  1  0  0  0
 24 29  2  0  0  0
 25 26  2  0  0  0
 26 27  1  0  0  0
 27 28  2  0  0  0
 27 30  1  0  0  0
 28 29  1  0  0  0
 30 31  1  0  0  0
 30 34  2  0  0  0
 31 32  1  0  0  0
 32 33  2  0  0  0
 33 34  1  0  0  0
  4  2  1  0  0  0
  2  3  2  0  0  0
  2  6  1  0  0  0
  6  7  2  0  0  0
  7  8  1  0  0  0
  8  9  1  0  0  0
  8 13  2  0  0  0
  9 10  2  0  0  0
 10 11  1  0  0  0
 10 14  1  0  0  0
 11 12  2  0  0  0
 12 13  1  0  0  0
 13 15  1  0  0  0
 15 16  1  0  0  0
 15 19  1  0  0  0
 16 17  2  0  0  0
 17 18  1  0  0  0
 18 19  2  0  0  0
  4  5  1  0  0  0
 22 23  1  0  0  0
 31 35  1  0  0  0
M  END
> <minimizedAffinity>
-10.27077

$$$$
4CRC_OTM_A_1245


 42 46  0  0  0  0  0  0  0  0999 V2000
  -51.4049  -11.3281  -24.5690 C   0  0  0  0  0  0  0  0  0  0  0  0
  -49.8715  -10.0661  -23.1715 C   0  0  0  0  0  0  0  0  0  0  0  0
  -49.6710   -9.2928  -24.0939 O   0  0  0  0  0  0  0  0  0  0  0  0
  -50.7449  -11.1187  -23.2798 N   0  0  0  0  0  0  0  0  0  0  0  0
  -50.9218  -11.7135  -22.5154 H   0  0  0  0  0  0  0  0  0  0  0  0
  -49.1164   -9.8729  -21.8991 C   0  0  0  0  0  0  0  0  0  0  0  0
  -48.5466  -10.8844  -21.2246 C   0  0  0  0  0  0  0  0  0  0  0  0
  -47.8257  -10.5645  -19.9734 C   0  0  0  0  0  0  0  0  0  0  0  0
  -46.4474  -10.4209  -19.9755 C   0  0  0  0  0  0  0  0  0  0  0  0
  -45.7408  -10.1223  -18.8193 C   0  0  0  0  0  0  0  0  0  0  0  0
  -46.4176   -9.9612  -17.6240 C   0  0  0  0  0  0  0  0  0  0  0  0
  -47.7869  -10.1059  -17.5960 C   0  0  0  0  0  0  0  0  0  0  0  0
  -48.4740  -10.4018  -18.7596 C   0  0  0  0  0  0  0  0  0  0  0  0
  -44.0067   -9.9516  -18.8543 Cl  0  0  0  0  0  0  0  0  0  0  0  0
  -49.8674  -10.5362  -18.6682 N   0  0  0  0  0  0  0  0  0  0  0  0
  -50.5835  -11.6737  -18.4561 C   0  0  0  0  0  0  0  0  0  0  0  0
  -51.8634  -11.3744  -18.4817 N   0  0  0  0  0  0  0  0  0  0  0  0
  -51.9333  -10.0281  -18.7159 N   0  0  0  0  0  0  0  0  0  0  0  0
  -50.7158   -9.5141  -18.8320 N   0  0  0  0  0  0  0  0  0  0  0  0
  -52.6676  -10.4900  -24.6102 C   0  0  0  0  0  0  0  0  0  0  0  0
  -53.6151  -10.6474  -23.8473 O   0  0  0  0  0  0  0  0  0  0  0  0
  -52.6129   -9.5614  -25.6341 N   0  0  0  0  0  0  0  0  0  0  0  0
  -51.8125   -9.5895  -26.2067 H   0  0  0  0  0  0  0  0  0  0  0  0
  -53.5781   -8.5751  -25.9517 C   0  0  0  0  0  0  0  0  0  0  0  0
  -53.7585   -8.2555  -27.2771 C   0  0  0  0  0  0  0  0  0  0  0  0
  -54.6764   -7.3012  -27.6643 C   0  0  0  0  0  0  0  0  0  0  0  0
  -55.4319   -6.6495  -26.7077 C   0  0  0  0  0  0  0  0  0  0  0  0
  -55.2556   -6.9724  -25.3801 C   0  0  0  0  0  0  0  0  0  0  0  0
  -54.3436   -7.9335  -24.9957 C   0  0  0  0  0  0  0  0  0  0  0  0
  -56.3613   -5.6102  -27.0766 C   0  0  0  0  0  0  0  0  0  0  0  0
  -56.6475   -5.2465  -28.3586 N   0  0  0  0  0  0  0  0  0  0  0  0
  -57.5347   -4.2434  -28.3554 N   0  0  0  0  0  0  0  0  0  0  0  0
  -57.7744   -3.9928  -27.0742 N   0  0  0  0  0  0  0  0  0  0  0  0
  -57.0554   -4.8317  -26.2726 N   0  0  0  0  0  0  0  0  0  0  0  0
  -56.2608   -5.6588  -29.1647 H   0  0  0  0  0  0  0  0  0  0  0  0
  -51.8011  -12.7879  -24.7224 C   0  0  0  0  0  0  0  0  0  0  0  0
  -51.6581  -13.5922  -23.4661 C   0  0  0  0  0  0  0  0  0  0  0  0
  -50.4469  -14.1954  -23.1967 C   0  0  0  0  0  0  0  0  0  0  0  0
  -52.6973  -13.7618  -22.5713 C   0  0  0  0  0  0  0  0  0  0  0  0
  -50.2732  -14.9546  -22.0533 C   0  0  0  0  0  0  0  0  0  0  0  0
  -52.5339  -14.5193  -21.4286 C   0  0  0  0  0  0  0  0  0  0  0  0
  -51.3187  -15.1210  -21.1691 C   0  0  0  0  0  0  0  0  0  0  0  0
 42 40  1  0  0  0
 42 41  2  0  0  0
 40 38  2  0  0  0
 38 37  1  0  0  0
 37 39  2  0  0  0
 37 36  1  0  0  0
 39 41  1  0  0  0
 36  1  1  0  0  0
  1 20  1  0  0  0
  1  4  1  0  0  0
 20 21  2  0  0  0
 20 22  1  0  0  0
 22 24  1  0  0  0
 24 25  1  0  0  0
 24 29  2  0  0  0
 25 26  2  0  0  0
 26 27  1  0  0  0
 27 28  2  0  0  0
 27 30  1  0  0  0
 28 29  1  0  0  0
 30 31  1  0  0  0
 30 34  2  0  0  0
 31 32  1  0  0  0
 32 33  2  0  0  0
 33 34  1  0  0  0
  4  2  1  0  0  0
  2  3  2  0  0  0
  2  6  1  0  0  0
  6  7  2  0  0  0
  7  8  1  0  0  0
  8  9  1  0  0  0
  8 13  2  0  0  0
  9 10  2  0  0  0
 10 11  1  0  0  0
 10 14  1  0  0  0
 11 12  2  0  0  0
 12 13  1  0  0  0
 13 15  1  0  0  0
 15 16  1  0  0  0
 15 19  1  0  0  0
 16 17  2  0  0  0
 17 18  1  0  0  0
 18 19  2  0  0  0
  4  5  1  0  0  0
 22 23  1  0  0  0
 31 35  1  0  0  0
M  END
> <minimizedAffinity>
-9.91104

$$$$
4CRC_OTM_A_1245


 42 46  0  0  0  0  0  0  0  0999 V2000
  -52.6726  -10.8979  -25.1029 C   0  0  0  0  0  0  0  0  0  0  0  0
  -53.5872  -12.6053  -26.5677 C   0  0  0  0  0  0  0  0  0  0  0  0
  -53.1144  -12.0271  -27.5327 O   0  0  0  0  0  0  0  0  0  0  0  0
  -53.4111  -12.1480  -25.2861 N   0  0  0  0  0  0  0  0  0  0  0  0
  -53.7698  -12.6444  -24.5153 H   0  0  0  0  0  0  0  0  0  0  0  0
  -54.4075  -13.8301  -26.7988 C   0  0  0  0  0  0  0  0  0  0  0  0
  -54.8222  -14.6322  -25.8052 C   0  0  0  0  0  0  0  0  0  0  0  0
  -55.6292  -15.8189  -26.1629 C   0  0  0  0  0  0  0  0  0  0  0  0
  -56.9120  -15.6688  -26.6654 C   0  0  0  0  0  0  0  0  0  0  0  0
  -57.6958  -16.7609  -27.0096 C   0  0  0  0  0  0  0  0  0  0  0  0
  -57.1962  -18.0408  -26.8518 C   0  0  0  0  0  0  0  0  0  0  0  0
  -55.9263  -18.2150  -26.3479 C   0  0  0  0  0  0  0  0  0  0  0  0
  -55.1594  -17.1137  -26.0122 C   0  0  0  0  0  0  0  0  0  0  0  0
  -59.3069  -16.5388  -27.6357 Cl  0  0  0  0  0  0  0  0  0  0  0  0
  -53.8740  -17.3547  -25.5047 N   0  0  0  0  0  0  0  0  0  0  0  0
  -52.7206  -17.5320  -26.2048 C   0  0  0  0  0  0  0  0  0  0  0  0
  -51.7472  -17.7744  -25.3550 N   0  0  0  0  0  0  0  0  0  0  0  0
  -52.3151  -17.7472  -24.1103 N   0  0  0  0  0  0  0  0  0  0  0  0
  -53.6141  -17.4929  -24.1992 N   0  0  0  0  0  0  0  0  0  0  0  0
  -51.4769  -11.1664  -24.2102 C   0  0  0  0  0  0  0  0  0  0  0  0
  -50.6185  -12.0075  -24.4556 O   0  0  0  0  0  0  0  0  0  0  0  0
  -51.5100  -10.3648  -23.0833 N   0  0  0  0  0  0  0  0  0  0  0  0
  -52.2937   -9.7765  -22.9887 H   0  0  0  0  0  0  0  0  0  0  0  0
  -50.5439  -10.2948  -22.0504 C   0  0  0  0  0  0  0  0  0  0  0  0
  -50.9666  -10.5085  -20.7591 C   0  0  0  0  0  0  0  0  0  0  0  0
  -50.0853  -10.4518  -19.6993 C   0  0  0  0  0  0  0  0  0  0  0  0
  -48.7513  -10.1749  -19.9318 C   0  0  0  0  0  0  0  0  0  0  0  0
  -48.3257   -9.9655  -21.2252 C   0  0  0  0  0  0  0  0  0  0  0  0
  -49.2069  -10.0316  -22.2846 C   0  0  0  0  0  0  0  0  0  0  0  0
  -47.8161  -10.0566  -18.8401 C   0  0  0  0  0  0  0  0  0  0  0  0
  -48.1673   -9.8763  -17.5356 N   0  0  0  0  0  0  0  0  0  0  0  0
  -47.0653   -9.7901  -16.7798 N   0  0  0  0  0  0  0  0  0  0  0  0
  -46.0502   -9.9052  -17.6271 N   0  0  0  0  0  0  0  0  0  0  0  0
  -46.5008  -10.0713  -18.9048 N   0  0  0  0  0  0  0  0  0  0  0  0
  -49.0910   -9.8183  -17.1999 H   0  0  0  0  0  0  0  0  0  0  0  0
  -53.5533   -9.8664  -24.4160 C   0  0  0  0  0  0  0  0  0  0  0  0
  -53.9348   -8.7121  -25.2922 C   0  0  0  0  0  0  0  0  0  0  0  0
  -53.3465   -8.5974  -26.5348 C   0  0  0  0  0  0  0  0  0  0  0  0
  -54.8466   -7.7513  -24.8985 C   0  0  0  0  0  0  0  0  0  0  0  0
  -53.6623   -7.5428  -27.3727 C   0  0  0  0  0  0  0  0  0  0  0  0
  -55.1664   -6.6942  -25.7271 C   0  0  0  0  0  0  0  0  0  0  0  0
  -54.5704   -6.5868  -26.9678 C   0  0  0  0  0  0  0  0  0  0  0  0
 42 40  1  0  0  0
 42 41  2  0  0  0
 40 38  2  0  0  0
 38 37  1  0  0  0
 37 39  2  0  0  0
 37 36  1  0  0  0
 39 41  1  0  0  0
 36  1  1  0  0  0
  1 20  1  0  0  0
  1  4  1  0  0  0
 20 21  2  0  0  0
 20 22  1  0  0  0
 22 24  1  0  0  0
 24 25  1  0  0  0
 24 29  2  0  0  0
 25 26  2  0  0  0
 26 27  1  0  0  0
 27 28  2  0  0  0
 27 30  1  0  0  0
 28 29  1  0  0  0
 30 31  1  0  0  0
 30 34  2  0  0  0
 31 32  1  0  0  0
 32 33  2  0  0  0
 33 34  1  0  0  0
  4  2  1  0  0  0
  2  3  2  0  0  0
  2  6  1  0  0  0
  6  7  2  0  0  0
  7  8  1  0  0  0
  8  9  1  0  0  0
  8 13  2  0  0  0
  9 10  2  0  0  0
 10 11  1  0  0  0
 10 14  1  0  0  0
 11 12  2  0  0  0
 12 13  1  0  0  0
 13 15  1  0  0  0
 15 16  1  0  0  0
 15 19  1  0  0  0
 16 17  2  0  0  0
 17 18  1  0  0  0
 18 19  2  0  0  0
  4  5  1  0  0  0
 22 23  1  0  0  0
 31 35  1  0  0  0
M  END
> <minimizedAffinity>
-9.21674

$$$$
4CRC_OTM_A_1245


 42 46  0  0  0  0  0  0  0  0999 V2000
  -49.2952  -10.0537  -21.2837 C   0  0  0  0  0  0  0  0  0  0  0  0
  -50.9655  -10.3907  -19.5536 C   0  0  0  0  0  0  0  0  0  0  0  0
  -50.9520   -9.1949  -19.3111 O   0  0  0  0  0  0  0  0  0  0  0  0
  -50.1926  -10.9421  -20.5441 N   0  0  0  0  0  0  0  0  0  0  0  0
  -50.2402  -11.9035  -20.7505 H   0  0  0  0  0  0  0  0  0  0  0  0
  -51.8287  -11.2796  -18.7221 C   0  0  0  0  0  0  0  0  0  0  0  0
  -52.9554  -11.8460  -19.1828 C   0  0  0  0  0  0  0  0  0  0  0  0
  -53.7263  -12.7070  -18.2598 C   0  0  0  0  0  0  0  0  0  0  0  0
  -54.6608  -12.1525  -17.3997 C   0  0  0  0  0  0  0  0  0  0  0  0
  -55.3997  -12.9317  -16.5208 C   0  0  0  0  0  0  0  0  0  0  0  0
  -55.2085  -14.3011  -16.4909 C   0  0  0  0  0  0  0  0  0  0  0  0
  -54.2803  -14.8740  -17.3317 C   0  0  0  0  0  0  0  0  0  0  0  0
  -53.5547  -14.0808  -18.2023 C   0  0  0  0  0  0  0  0  0  0  0  0
  -56.5652  -12.2035  -15.4491 Cl  0  0  0  0  0  0  0  0  0  0  0  0
  -52.6247  -14.7217  -19.0345 N   0  0  0  0  0  0  0  0  0  0  0  0
  -51.3136  -14.9792  -18.7770 C   0  0  0  0  0  0  0  0  0  0  0  0
  -50.7845  -15.5574  -19.8326 N   0  0  0  0  0  0  0  0  0  0  0  0
  -51.7901  -15.6543  -20.7556 N   0  0  0  0  0  0  0  0  0  0  0  0
  -52.9144  -15.1431  -20.2713 N   0  0  0  0  0  0  0  0  0  0  0  0
  -49.8204   -9.8999  -22.6977 C   0  0  0  0  0  0  0  0  0  0  0  0
  -49.2840   -9.2018  -23.5516 O   0  0  0  0  0  0  0  0  0  0  0  0
  -50.9883  -10.6203  -22.8735 N   0  0  0  0  0  0  0  0  0  0  0  0
  -51.3365  -11.0879  -22.0802 H   0  0  0  0  0  0  0  0  0  0  0  0
  -51.7394  -10.7610  -24.0656 C   0  0  0  0  0  0  0  0  0  0  0  0
  -52.8332   -9.9450  -24.2364 C   0  0  0  0  0  0  0  0  0  0  0  0
  -53.6168  -10.0267  -25.3688 C   0  0  0  0  0  0  0  0  0  0  0  0
  -53.3032  -10.9440  -26.3541 C   0  0  0  0  0  0  0  0  0  0  0  0
  -52.2050  -11.7585  -26.1865 C   0  0  0  0  0  0  0  0  0  0  0  0
  -51.4173  -11.6690  -25.0573 C   0  0  0  0  0  0  0  0  0  0  0  0
  -54.1334  -11.0897  -27.5245 C   0  0  0  0  0  0  0  0  0  0  0  0
  -54.8689  -10.0868  -28.0820 N   0  0  0  0  0  0  0  0  0  0  0  0
  -55.5369  -10.5545  -29.1442 N   0  0  0  0  0  0  0  0  0  0  0  0
  -55.2158  -11.8400  -29.2210 N   0  0  0  0  0  0  0  0  0  0  0  0
  -54.3477  -12.1839  -28.2253 N   0  0  0  0  0  0  0  0  0  0  0  0
  -54.9038   -9.1593  -27.7536 H   0  0  0  0  0  0  0  0  0  0  0  0
  -47.9037  -10.6617  -21.3599 C   0  0  0  0  0  0  0  0  0  0  0  0
  -47.0595  -10.4022  -20.1493 C   0  0  0  0  0  0  0  0  0  0  0  0
  -45.6993  -10.6192  -20.2279 C   0  0  0  0  0  0  0  0  0  0  0  0
  -47.5933   -9.9633  -18.9526 C   0  0  0  0  0  0  0  0  0  0  0  0
  -44.8834  -10.4014  -19.1320 C   0  0  0  0  0  0  0  0  0  0  0  0
  -46.7872   -9.7453  -17.8531 C   0  0  0  0  0  0  0  0  0  0  0  0
  -45.4274   -9.9677  -17.9410 C   0  0  0  0  0  0  0  0  0  0  0  0
 42 40  1  0  0  0
 42 41  2  0  0  0
 40 38  2  0  0  0
 38 37  1  0  0  0
 37 39  2  0  0  0
 37 36  1  0  0  0
 39 41  1  0  0  0
 36  1  1  0  0  0
  1 20  1  0  0  0
  1  4  1  0  0  0
 20 21  2  0  0  0
 20 22  1  0  0  0
 22 24  1  0  0  0
 24 25  1  0  0  0
 24 29  2  0  0  0
 25 26  2  0  0  0
 26 27  1  0  0  0
 27 28  2  0  0  0
 27 30  1  0  0  0
 28 29  1  0  0  0
 30 31  1  0  0  0
 30 34  2  0  0  0
 31 32  1  0  0  0
 32 33  2  0  0  0
 33 34  1  0  0  0
  4  2  1  0  0  0
  2  3  2  0  0  0
  2  6  1  0  0  0
  6  7  2  0  0  0
  7  8  1  0  0  0
  8  9  1  0  0  0
  8 13  2  0  0  0
  9 10  2  0  0  0
 10 11  1  0  0  0
 10 14  1  0  0  0
 11 12  2  0  0  0
 12 13  1  0  0  0
 13 15  1  0  0  0
 15 16  1  0  0  0
 15 19  1  0  0  0
 16 17  2  0  0  0
 17 18  1  0  0  0
 18 19  2  0  0  0
  4  5  1  0  0  0
 22 23  1  0  0  0
 31 35  1  0  0  0
M  END
> <minimizedAffinity>
-9.04293

$$$$
4CRC_OTM_A_1245


 42 46  0  0  0  0  0  0  0  0999 V2000
  -54.8563  -12.6947  -21.6546 C   0  0  0  0  0  0  0  0  0  0  0  0
  -55.7947  -10.8997  -22.9943 C   0  0  0  0  0  0  0  0  0  0  0  0
  -56.8531  -11.0108  -22.3974 O   0  0  0  0  0  0  0  0  0  0  0  0
  -54.7035  -11.6753  -22.6934 N   0  0  0  0  0  0  0  0  0  0  0  0
  -53.8462  -11.5502  -23.1609 H   0  0  0  0  0  0  0  0  0  0  0  0
  -55.7009   -9.9089  -24.1061 C   0  0  0  0  0  0  0  0  0  0  0  0
  -54.5571   -9.2912  -24.4423 C   0  0  0  0  0  0  0  0  0  0  0  0
  -54.5933   -8.3271  -25.5633 C   0  0  0  0  0  0  0  0  0  0  0  0
  -55.4992   -7.2783  -25.5570 C   0  0  0  0  0  0  0  0  0  0  0  0
  -55.5599   -6.3574  -26.5931 C   0  0  0  0  0  0  0  0  0  0  0  0
  -54.6990   -6.4772  -27.6688 C   0  0  0  0  0  0  0  0  0  0  0  0
  -53.7945   -7.5154  -27.7003 C   0  0  0  0  0  0  0  0  0  0  0  0
  -53.7478   -8.4224  -26.6569 C   0  0  0  0  0  0  0  0  0  0  0  0
  -56.7132   -5.0513  -26.5573 Cl  0  0  0  0  0  0  0  0  0  0  0  0
  -52.8052   -9.4576  -26.7453 N   0  0  0  0  0  0  0  0  0  0  0  0
  -52.9644  -10.6845  -27.3120 C   0  0  0  0  0  0  0  0  0  0  0  0
  -51.8553  -11.3705  -27.1455 N   0  0  0  0  0  0  0  0  0  0  0  0
  -51.0006  -10.5492  -26.4619 N   0  0  0  0  0  0  0  0  0  0  0  0
  -51.5789   -9.3811  -26.2147 N   0  0  0  0  0  0  0  0  0  0  0  0
  -53.5779  -12.7555  -20.8419 C   0  0  0  0  0  0  0  0  0  0  0  0
  -53.3247  -13.6444  -20.0356 O   0  0  0  0  0  0  0  0  0  0  0  0
  -52.7676  -11.6670  -21.1106 N   0  0  0  0  0  0  0  0  0  0  0  0
  -53.1275  -10.9991  -21.7381 H   0  0  0  0  0  0  0  0  0  0  0  0
  -51.4790  -11.4049  -20.5852 C   0  0  0  0  0  0  0  0  0  0  0  0
  -51.3880  -10.5844  -19.4852 C   0  0  0  0  0  0  0  0  0  0  0  0
  -50.1673  -10.2787  -18.9198 C   0  0  0  0  0  0  0  0  0  0  0  0
  -49.0099  -10.8027  -19.4642 C   0  0  0  0  0  0  0  0  0  0  0  0
  -49.1001  -11.6286  -20.5630 C   0  0  0  0  0  0  0  0  0  0  0  0
  -50.3226  -11.9403  -21.1214 C   0  0  0  0  0  0  0  0  0  0  0  0
  -47.7155  -10.4594  -18.9283 C   0  0  0  0  0  0  0  0  0  0  0  0
  -46.5678  -10.3906  -19.6602 N   0  0  0  0  0  0  0  0  0  0  0  0
  -45.5434  -10.0629  -18.8625 N   0  0  0  0  0  0  0  0  0  0  0  0
  -46.0684   -9.9463  -17.6491 N   0  0  0  0  0  0  0  0  0  0  0  0
  -47.4115  -10.1884  -17.6759 N   0  0  0  0  0  0  0  0  0  0  0  0
  -46.5020  -10.5566  -20.6283 H   0  0  0  0  0  0  0  0  0  0  0  0
  -55.0785  -14.0584  -22.2891 C   0  0  0  0  0  0  0  0  0  0  0  0
  -54.3477  -14.2537  -23.5827 C   0  0  0  0  0  0  0  0  0  0  0  0
  -55.0382  -14.0981  -24.7669 C   0  0  0  0  0  0  0  0  0  0  0  0
  -53.0095  -14.5944  -23.6348 C   0  0  0  0  0  0  0  0  0  0  0  0
  -54.4054  -14.2778  -25.9840 C   0  0  0  0  0  0  0  0  0  0  0  0
  -52.3701  -14.7779  -24.8446 C   0  0  0  0  0  0  0  0  0  0  0  0
  -53.0704  -14.6224  -26.0243 C   0  0  0  0  0  0  0  0  0  0  0  0
 42 40  1  0  0  0
 42 41  2  0  0  0
 40 38  2  0  0  0
 38 37  1  0  0  0
 37 39  2  0  0  0
 37 36  1  0  0  0
 39 41  1  0  0  0
 36  1  1  0  0  0
  1 20  1  0  0  0
  1  4  1  0  0  0
 20 21  2  0  0  0
 20 22  1  0  0  0
 22 24  1  0  0  0
 24 25  1  0  0  0
 24 29  2  0  0  0
 25 26  2  0  0  0
 26 27  1  0  0  0
 27 28  2  0  0  0
 27 30  1  0  0  0
 28 29  1  0  0  0
 30 31  1  0  0  0
 30 34  2  0  0  0
 31 32  1  0  0  0
 32 33  2  0  0  0
 33 34  1  0  0  0
  4  2  1  0  0  0
  2  3  2  0  0  0
  2  6  1  0  0  0
  6  7  2  0  0  0
  7  8  1  0  0  0
  8  9  1  0  0  0
  8 13  2  0  0  0
  9 10  2  0  0  0
 10 11  1  0  0  0
 10 14  1  0  0  0
 11 12  2  0  0  0
 12 13  1  0  0  0
 13 15  1  0  0  0
 15 16  1  0  0  0
 15 19  1  0  0  0
 16 17  2  0  0  0
 17 18  1  0  0  0
 18 19  2  0  0  0
  4  5  1  0  0  0
 22 23  1  0  0  0
 31 35  1  0  0  0
M  END
> <minimizedAffinity>
-8.83236

$$$$
4CRC_OTM_A_1245


 42 46  0  0  0  0  0  0  0  0999 V2000
  -52.7166  -10.7251  -24.9679 C   0  0  0  0  0  0  0  0  0  0  0  0
  -54.3151  -12.0817  -26.1932 C   0  0  0  0  0  0  0  0  0  0  0  0
  -54.0294  -11.4869  -27.2197 O   0  0  0  0  0  0  0  0  0  0  0  0
  -53.7029  -11.8058  -24.9967 N   0  0  0  0  0  0  0  0  0  0  0  0
  -53.9200  -12.3179  -24.1844 H   0  0  0  0  0  0  0  0  0  0  0  0
  -55.3869  -13.1187  -26.2421 C   0  0  0  0  0  0  0  0  0  0  0  0
  -55.3021  -14.2247  -26.9985 C   0  0  0  0  0  0  0  0  0  0  0  0
  -56.4324  -15.1780  -26.9624 C   0  0  0  0  0  0  0  0  0  0  0  0
  -56.4880  -16.1629  -25.9890 C   0  0  0  0  0  0  0  0  0  0  0  0
  -57.5334  -17.0732  -25.9278 C   0  0  0  0  0  0  0  0  0  0  0  0
  -58.5550  -17.0083  -26.8577 C   0  0  0  0  0  0  0  0  0  0  0  0
  -58.5179  -16.0421  -27.8385 C   0  0  0  0  0  0  0  0  0  0  0  0
  -57.4682  -15.1422  -27.8820 C   0  0  0  0  0  0  0  0  0  0  0  0
  -57.5725  -18.3027  -24.6932 Cl  0  0  0  0  0  0  0  0  0  0  0  0
  -57.4861  -14.1808  -28.9035 N   0  0  0  0  0  0  0  0  0  0  0  0
  -56.8988  -14.2548  -30.1288 C   0  0  0  0  0  0  0  0  0  0  0  0
  -57.1186  -13.1271  -30.7680 N   0  0  0  0  0  0  0  0  0  0  0  0
  -57.8529  -12.3462  -29.9175 N   0  0  0  0  0  0  0  0  0  0  0  0
  -58.0772  -12.9867  -28.7775 N   0  0  0  0  0  0  0  0  0  0  0  0
  -51.5936  -11.1172  -24.0278 C   0  0  0  0  0  0  0  0  0  0  0  0
  -51.0138  -12.1972  -24.0720 O   0  0  0  0  0  0  0  0  0  0  0  0
  -51.3436  -10.1140  -23.1088 N   0  0  0  0  0  0  0  0  0  0  0  0
  -51.9294   -9.3240  -23.1546 H   0  0  0  0  0  0  0  0  0  0  0  0
  -50.3404  -10.0949  -22.1096 C   0  0  0  0  0  0  0  0  0  0  0  0
  -49.0490   -9.8277  -22.5002 C   0  0  0  0  0  0  0  0  0  0  0  0
  -48.0169   -9.7969  -21.5854 C   0  0  0  0  0  0  0  0  0  0  0  0
  -48.2778  -10.0388  -20.2498 C   0  0  0  0  0  0  0  0  0  0  0  0
  -49.5717  -10.3017  -19.8566 C   0  0  0  0  0  0  0  0  0  0  0  0
  -50.6039  -10.3231  -20.7717 C   0  0  0  0  0  0  0  0  0  0  0  0
  -47.2124  -10.0658  -19.2780 C   0  0  0  0  0  0  0  0  0  0  0  0
  -47.3670   -9.7925  -17.9517 N   0  0  0  0  0  0  0  0  0  0  0  0
  -46.1846   -9.8896  -17.3306 N   0  0  0  0  0  0  0  0  0  0  0  0
  -45.3152  -10.2084  -18.2815 N   0  0  0  0  0  0  0  0  0  0  0  0
  -45.9381  -10.3211  -19.4909 N   0  0  0  0  0  0  0  0  0  0  0  0
  -48.2186   -9.5592  -17.5164 H   0  0  0  0  0  0  0  0  0  0  0  0
  -53.3533   -9.4502  -24.4379 C   0  0  0  0  0  0  0  0  0  0  0  0
  -53.7614   -8.4838  -25.5080 C   0  0  0  0  0  0  0  0  0  0  0  0
  -53.2028   -8.6066  -26.7635 C   0  0  0  0  0  0  0  0  0  0  0  0
  -54.6691   -7.4666  -25.2822 C   0  0  0  0  0  0  0  0  0  0  0  0
  -53.5438   -7.7306  -27.7786 C   0  0  0  0  0  0  0  0  0  0  0  0
  -55.0139   -6.5864  -26.2885 C   0  0  0  0  0  0  0  0  0  0  0  0
  -54.4474   -6.7160  -27.5409 C   0  0  0  0  0  0  0  0  0  0  0  0
 42 40  1  0  0  0
 42 41  2  0  0  0
 40 38  2  0  0  0
 38 37  1  0  0  0
 37 39  2  0  0  0
 37 36  1  0  0  0
 39 41  1  0  0  0
 36  1  1  0  0  0
  1 20  1  0  0  0
  1  4  1  0  0  0
 20 21  2  0  0  0
 20 22  1  0  0  0
 22 24  1  0  0  0
 24 25  1  0  0  0
 24 29  2  0  0  0
 25 26  2  0  0  0
 26 27  1  0  0  0
 27 28  2  0  0  0
 27 30  1  0  0  0
 28 29  1  0  0  0
 30 31  1  0  0  0
 30 34  2  0  0  0
 31 32  1  0  0  0
 32 33  2  0  0  0
 33 34  1  0  0  0
  4  2  1  0  0  0
  2  3  2  0  0  0
  2  6  1  0  0  0
  6  7  2  0  0  0
  7  8  1  0  0  0
  8  9  1  0  0  0
  8 13  2  0  0  0
  9 10  2  0  0  0
 10 11  1  0  0  0
 10 14  1  0  0  0
 11 12  2  0  0  0
 12 13  1  0  0  0
 13 15  1  0  0  0
 15 16  1  0  0  0
 15 19  1  0  0  0
 16 17  2  0  0  0
 17 18  1  0  0  0
 18 19  2  0  0  0
  4  5  1  0  0  0
 22 23  1  0  0  0
 31 35  1  0  0  0
M  END
> <minimizedAffinity>
-8.34642

$$$$
4CRC_OTM_A_1245


 42 46  0  0  0  0  0  0  0  0999 V2000
  -49.5467  -10.6116  -21.0239 C   0  0  0  0  0  0  0  0  0  0  0  0
  -51.1717  -11.6920  -19.5786 C   0  0  0  0  0  0  0  0  0  0  0  0
  -51.4978  -10.6029  -19.1351 O   0  0  0  0  0  0  0  0  0  0  0  0
  -50.2163  -11.8251  -20.5543 N   0  0  0  0  0  0  0  0  0  0  0  0
  -49.9887  -12.7078  -20.9262 H   0  0  0  0  0  0  0  0  0  0  0  0
  -51.8142  -12.9153  -19.0153 C   0  0  0  0  0  0  0  0  0  0  0  0
  -53.1388  -13.1311  -19.0544 C   0  0  0  0  0  0  0  0  0  0  0  0
  -53.6553  -14.3830  -18.4599 C   0  0  0  0  0  0  0  0  0  0  0  0
  -53.4979  -15.5905  -19.1217 C   0  0  0  0  0  0  0  0  0  0  0  0
  -53.9715  -16.7824  -18.5923 C   0  0  0  0  0  0  0  0  0  0  0  0
  -54.6212  -16.7807  -17.3714 C   0  0  0  0  0  0  0  0  0  0  0  0
  -54.7954  -15.5918  -16.6984 C   0  0  0  0  0  0  0  0  0  0  0  0
  -54.3144  -14.4139  -17.2415 C   0  0  0  0  0  0  0  0  0  0  0  0
  -53.7609  -18.2842  -19.4511 Cl  0  0  0  0  0  0  0  0  0  0  0  0
  -54.5213  -13.2355  -16.5091 N   0  0  0  0  0  0  0  0  0  0  0  0
  -55.4949  -12.3018  -16.6888 C   0  0  0  0  0  0  0  0  0  0  0  0
  -55.3104  -11.3312  -15.8214 N   0  0  0  0  0  0  0  0  0  0  0  0
  -54.2014  -11.6754  -15.0976 N   0  0  0  0  0  0  0  0  0  0  0  0
  -53.7166  -12.8370  -15.5167 N   0  0  0  0  0  0  0  0  0  0  0  0
  -50.0855  -10.2596  -22.3967 C   0  0  0  0  0  0  0  0  0  0  0  0
  -49.5399   -9.4707  -23.1611 O   0  0  0  0  0  0  0  0  0  0  0  0
  -51.2763  -10.9183  -22.6454 N   0  0  0  0  0  0  0  0  0  0  0  0
  -51.6278  -11.4760  -21.9142 H   0  0  0  0  0  0  0  0  0  0  0  0
  -52.0466  -10.8810  -23.8330 C   0  0  0  0  0  0  0  0  0  0  0  0
  -51.8653  -11.8909  -24.7488 C   0  0  0  0  0  0  0  0  0  0  0  0
  -52.5755  -11.9204  -25.9312 C   0  0  0  0  0  0  0  0  0  0  0  0
  -53.4875  -10.9192  -26.2075 C   0  0  0  0  0  0  0  0  0  0  0  0
  -53.6736   -9.9097  -25.2888 C   0  0  0  0  0  0  0  0  0  0  0  0
  -52.9690   -9.8870  -24.1029 C   0  0  0  0  0  0  0  0  0  0  0  0
  -54.2062  -10.8937  -27.4578 C   0  0  0  0  0  0  0  0  0  0  0  0
  -54.7361  -11.9906  -28.0689 N   0  0  0  0  0  0  0  0  0  0  0  0
  -55.3225  -11.6280  -29.2169 N   0  0  0  0  0  0  0  0  0  0  0  0
  -55.1363  -10.3169  -29.3057 N   0  0  0  0  0  0  0  0  0  0  0  0
  -54.4477   -9.8499  -28.2236 N   0  0  0  0  0  0  0  0  0  0  0  0
  -54.6942  -12.9101  -27.7194 H   0  0  0  0  0  0  0  0  0  0  0  0
  -48.0514  -10.8555  -21.1512 C   0  0  0  0  0  0  0  0  0  0  0  0
  -47.2734  -10.5233  -19.9143 C   0  0  0  0  0  0  0  0  0  0  0  0
  -47.9608  -10.1902  -18.7655 C   0  0  0  0  0  0  0  0  0  0  0  0
  -45.8919  -10.5278  -19.8831 C   0  0  0  0  0  0  0  0  0  0  0  0
  -47.2829   -9.8676  -17.6034 C   0  0  0  0  0  0  0  0  0  0  0  0
  -45.2067  -10.2052  -18.7287 C   0  0  0  0  0  0  0  0  0  0  0  0
  -45.9037   -9.8707  -17.5848 C   0  0  0  0  0  0  0  0  0  0  0  0
 42 40  1  0  0  0
 42 41  2  0  0  0
 40 38  2  0  0  0
 38 37  1  0  0  0
 37 39  2  0  0  0
 37 36  1  0  0  0
 39 41  1  0  0  0
 36  1  1  0  0  0
  1 20  1  0  0  0
  1  4  1  0  0  0
 20 21  2  0  0  0
 20 22  1  0  0  0
 22 24  1  0  0  0
 24 25  1  0  0  0
 24 29  2  0  0  0
 25 26  2  0  0  0
 26 27  1  0  0  0
 27 28  2  0  0  0
 27 30  1  0  0  0
 28 29  1  0  0  0
 30 31  1  0  0  0
 30 34  2  0  0  0
 31 32  1  0  0  0
 32 33  2  0  0  0
 33 34  1  0  0  0
  4  2  1  0  0  0
  2  3  2  0  0  0
  2  6  1  0  0  0
  6  7  2  0  0  0
  7  8  1  0  0  0
  8  9  1  0  0  0
  8 13  2  0  0  0
  9 10  2  0  0  0
 10 11  1  0  0  0
 10 14  1  0  0  0
 11 12  2  0  0  0
 12 13  1  0  0  0
 13 15  1  0  0  0
 15 16  1  0  0  0
 15 19  1  0  0  0
 16 17  2  0  0  0
 17 18  1  0  0  0
 18 19  2  0  0  0
  4  5  1  0  0  0
 22 23  1  0  0  0
 31 35  1  0  0  0
M  END
> <minimizedAffinity>
-8.28174

$$$$
4CRC_OTM_A_1245


 42 46  0  0  0  0  0  0  0  0999 V2000
  -53.5380   -9.2193  -26.7773 C   0  0  0  0  0  0  0  0  0  0  0  0
  -52.4640   -9.9572  -24.7281 C   0  0  0  0  0  0  0  0  0  0  0  0
  -51.3744   -9.6791  -25.2020 O   0  0  0  0  0  0  0  0  0  0  0  0
  -53.6326   -9.7470  -25.4156 N   0  0  0  0  0  0  0  0  0  0  0  0
  -54.5060   -9.9446  -25.0063 H   0  0  0  0  0  0  0  0  0  0  0  0
  -52.5173  -10.5737  -23.3703 C   0  0  0  0  0  0  0  0  0  0  0  0
  -51.5047  -10.4992  -22.4917 C   0  0  0  0  0  0  0  0  0  0  0  0
  -51.6782  -11.1534  -21.1766 C   0  0  0  0  0  0  0  0  0  0  0  0
  -52.9044  -11.6893  -20.8165 C   0  0  0  0  0  0  0  0  0  0  0  0
  -53.1010  -12.3084  -19.5904 C   0  0  0  0  0  0  0  0  0  0  0  0
  -52.0532  -12.4002  -18.6924 C   0  0  0  0  0  0  0  0  0  0  0  0
  -50.8270  -11.8688  -19.0255 C   0  0  0  0  0  0  0  0  0  0  0  0
  -50.6501  -11.2571  -20.2535 C   0  0  0  0  0  0  0  0  0  0  0  0
  -54.6566  -12.9695  -19.1657 Cl  0  0  0  0  0  0  0  0  0  0  0  0
  -49.3787  -10.7357  -20.5360 N   0  0  0  0  0  0  0  0  0  0  0  0
  -48.4756  -11.1878  -21.4480 C   0  0  0  0  0  0  0  0  0  0  0  0
  -47.3926  -10.4467  -21.3688 N   0  0  0  0  0  0  0  0  0  0  0  0
  -47.6356   -9.5240  -20.3880 N   0  0  0  0  0  0  0  0  0  0  0  0
  -48.8471   -9.6995  -19.8766 N   0  0  0  0  0  0  0  0  0  0  0  0
  -54.0037   -7.7765  -26.7726 C   0  0  0  0  0  0  0  0  0  0  0  0
  -53.3461   -6.8497  -26.3109 O   0  0  0  0  0  0  0  0  0  0  0  0
  -55.2674   -7.6619  -27.3235 N   0  0  0  0  0  0  0  0  0  0  0  0
  -55.7014   -8.5016  -27.5991 H   0  0  0  0  0  0  0  0  0  0  0  0
  -56.0073   -6.4734  -27.5359 C   0  0  0  0  0  0  0  0  0  0  0  0
  -55.9853   -5.9185  -28.7941 C   0  0  0  0  0  0  0  0  0  0  0  0
  -56.6770   -4.7588  -29.0768 C   0  0  0  0  0  0  0  0  0  0  0  0
  -57.4073   -4.1371  -28.0816 C   0  0  0  0  0  0  0  0  0  0  0  0
  -57.4342   -4.6945  -26.8221 C   0  0  0  0  0  0  0  0  0  0  0  0
  -56.7492   -5.8593  -26.5438 C   0  0  0  0  0  0  0  0  0  0  0  0
  -58.0975   -2.8956  -28.3322 C   0  0  0  0  0  0  0  0  0  0  0  0
  -57.8826   -2.0948  -29.4140 N   0  0  0  0  0  0  0  0  0  0  0  0
  -58.6705   -1.0146  -29.3389 N   0  0  0  0  0  0  0  0  0  0  0  0
  -59.3507   -1.1559  -28.2080 N   0  0  0  0  0  0  0  0  0  0  0  0
  -59.0063   -2.3156  -27.5758 N   0  0  0  0  0  0  0  0  0  0  0  0
  -57.2450   -2.2821  -30.1403 H   0  0  0  0  0  0  0  0  0  0  0  0
  -54.4473  -10.0066  -27.7073 C   0  0  0  0  0  0  0  0  0  0  0  0
  -53.8544  -11.2952  -28.1905 C   0  0  0  0  0  0  0  0  0  0  0  0
  -54.6998  -12.2927  -28.6307 C   0  0  0  0  0  0  0  0  0  0  0  0
  -52.4921  -11.5269  -28.2024 C   0  0  0  0  0  0  0  0  0  0  0  0
  -54.1962  -13.5016  -29.0768 C   0  0  0  0  0  0  0  0  0  0  0  0
  -51.9805  -12.7309  -28.6438 C   0  0  0  0  0  0  0  0  0  0  0  0
  -52.8349  -13.7238  -29.0799 C   0  0  0  0  0  0  0  0  0  0  0  0
 42 40  1  0  0  0
 42 41  2  0  0  0
 40 38  2  0  0  0
 38 37  1  0  0  0
 37 39  2  0  0  0
 37 36  1  0  0  0
 39 41  1  0  0  0
 36  1  1  0  0  0
  1 20  1  0  0  0
  1  4  1  0  0  0
 20 21  2  0  0  0
 20 22  1  0  0  0
 22 24  1  0  0  0
 24 25  1  0  0  0
 24 29  2  0  0  0
 25 26  2  0  0  0
 26 27  1  0  0  0
 27 28  2  0  0  0
 27 30  1  0  0  0
 28 29  1  0  0  0
 30 31  1  0  0  0
 30 34  2  0  0  0
 31 32  1  0  0  0
 32 33  2  0  0  0
 33 34  1  0  0  0
  4  2  1  0  0  0
  2  3  2  0  0  0
  2  6  1  0  0  0
  6  7  2  0  0  0
  7  8  1  0  0  0
  8  9  1  0  0  0
  8 13  2  0  0  0
  9 10  2  0  0  0
 10 11  1  0  0  0
 10 14  1  0  0  0
 11 12  2  0  0  0
 12 13  1  0  0  0
 13 15  1  0  0  0
 15 16  1  0  0  0
 15 19  1  0  0  0
 16 17  2  0  0  0
 17 18  1  0  0  0
 18 19  2  0  0  0
  4  5  1  0  0  0
 22 23  1  0  0  0
 31 35  1  0  0  0
M  END
> <minimizedAffinity>
-8.26131

$$$$
4CRC_OTM_A_1245


 42 46  0  0  0  0  0  0  0  0999 V2000
  -54.7385  -12.4105  -21.4065 C   0  0  0  0  0  0  0  0  0  0  0  0
  -55.7670  -10.8117  -22.9175 C   0  0  0  0  0  0  0  0  0  0  0  0
  -56.8525  -11.0284  -22.4039 O   0  0  0  0  0  0  0  0  0  0  0  0
  -54.6202  -11.4285  -22.4850 N   0  0  0  0  0  0  0  0  0  0  0  0
  -53.7466  -11.2174  -22.8870 H   0  0  0  0  0  0  0  0  0  0  0  0
  -55.6971   -9.8687  -24.0718 C   0  0  0  0  0  0  0  0  0  0  0  0
  -54.5745   -9.2203  -24.4210 C   0  0  0  0  0  0  0  0  0  0  0  0
  -54.6332   -8.3097  -25.5850 C   0  0  0  0  0  0  0  0  0  0  0  0
  -55.4986   -7.2273  -25.5854 C   0  0  0  0  0  0  0  0  0  0  0  0
  -55.5791   -6.3548  -26.6614 C   0  0  0  0  0  0  0  0  0  0  0  0
  -54.7798   -6.5589  -27.7713 C   0  0  0  0  0  0  0  0  0  0  0  0
  -53.9167   -7.6319  -27.7966 C   0  0  0  0  0  0  0  0  0  0  0  0
  -53.8493   -8.4896  -26.7133 C   0  0  0  0  0  0  0  0  0  0  0  0
  -56.6806   -5.0046  -26.6326 Cl  0  0  0  0  0  0  0  0  0  0  0  0
  -52.9509   -9.5638  -26.7974 N   0  0  0  0  0  0  0  0  0  0  0  0
  -51.6578   -9.6045  -26.3755 C   0  0  0  0  0  0  0  0  0  0  0  0
  -51.1547  -10.7808  -26.6785 N   0  0  0  0  0  0  0  0  0  0  0  0
  -52.1579  -11.4735  -27.2999 N   0  0  0  0  0  0  0  0  0  0  0  0
  -53.2553  -10.7319  -27.3753 N   0  0  0  0  0  0  0  0  0  0  0  0
  -53.4606  -12.3926  -20.5908 C   0  0  0  0  0  0  0  0  0  0  0  0
  -53.2991  -13.0423  -19.5631 O   0  0  0  0  0  0  0  0  0  0  0  0
  -52.5320  -11.5290  -21.1436 N   0  0  0  0  0  0  0  0  0  0  0  0
  -52.8221  -11.0267  -21.9390 H   0  0  0  0  0  0  0  0  0  0  0  0
  -51.2113  -11.2858  -20.6944 C   0  0  0  0  0  0  0  0  0  0  0  0
  -51.0181  -10.2733  -19.7839 C   0  0  0  0  0  0  0  0  0  0  0  0
  -49.7600   -9.9734  -19.3038 C   0  0  0  0  0  0  0  0  0  0  0  0
  -48.6686  -10.6994  -19.7421 C   0  0  0  0  0  0  0  0  0  0  0  0
  -48.8614  -11.7171  -20.6503 C   0  0  0  0  0  0  0  0  0  0  0  0
  -50.1216  -12.0214  -21.1224 C   0  0  0  0  0  0  0  0  0  0  0  0
  -47.3347  -10.3754  -19.2992 C   0  0  0  0  0  0  0  0  0  0  0  0
  -47.0449   -9.6274  -18.1973 N   0  0  0  0  0  0  0  0  0  0  0  0
  -45.7174   -9.5001  -18.0753 N   0  0  0  0  0  0  0  0  0  0  0  0
  -45.2065  -10.1589  -19.1080 N   0  0  0  0  0  0  0  0  0  0  0  0
  -46.1962  -10.7058  -19.8727 N   0  0  0  0  0  0  0  0  0  0  0  0
  -47.7104   -9.2396  -17.5843 H   0  0  0  0  0  0  0  0  0  0  0  0
  -54.9098  -13.8056  -21.9863 C   0  0  0  0  0  0  0  0  0  0  0  0
  -55.8268  -14.6857  -21.1926 C   0  0  0  0  0  0  0  0  0  0  0  0
  -57.1351  -14.2887  -21.0079 C   0  0  0  0  0  0  0  0  0  0  0  0
  -55.4090  -15.8763  -20.6291 C   0  0  0  0  0  0  0  0  0  0  0  0
  -58.0138  -15.0658  -20.2744 C   0  0  0  0  0  0  0  0  0  0  0  0
  -56.2781  -16.6574  -19.8938 C   0  0  0  0  0  0  0  0  0  0  0  0
  -57.5848  -16.2502  -19.7125 C   0  0  0  0  0  0  0  0  0  0  0  0
 42 40  1  0  0  0
 42 41  2  0  0  0
 40 38  2  0  0  0
 38 37  1  0  0  0
 37 39  2  0  0  0
 37 36  1  0  0  0
 39 41  1  0  0  0
 36  1  1  0  0  0
  1 20  1  0  0  0
  1  4  1  0  0  0
 20 21  2  0  0  0
 20 22  1  0  0  0
 22 24  1  0  0  0
 24 25  1  0  0  0
 24 29  2  0  0  0
 25 26  2  0  0  0
 26 27  1  0  0  0
 27 28  2  0  0  0
 27 30  1  0  0  0
 28 29  1  0  0  0
 30 31  1  0  0  0
 30 34  2  0  0  0
 31 32  1  0  0  0
 32 33  2  0  0  0
 33 34  1  0  0  0
  4  2  1  0  0  0
  2  3  2  0  0  0
  2  6  1  0  0  0
  6  7  2  0  0  0
  7  8  1  0  0  0
  8  9  1  0  0  0
  8 13  2  0  0  0
  9 10  2  0  0  0
 10 11  1  0  0  0
 10 14  1  0  0  0
 11 12  2  0  0  0
 12 13  1  0  0  0
 13 15  1  0  0  0
 15 16  1  0  0  0
 15 19  1  0  0  0
 16 17  2  0  0  0
 17 18  1  0  0  0
 18 19  2  0  0  0
  4  5  1  0  0  0
 22 23  1  0  0  0
 31 35  1  0  0  0
M  END
> <minimizedAffinity>
-8.24316

$$$$
4CRC_OTM_A_1245


 42 46  0  0  0  0  0  0  0  0999 V2000
  -52.4160  -11.0000  -24.7310 C   0  0  0  0  0  0  0  0  0  0  0  0
  -53.6724  -12.3850  -26.2803 C   0  0  0  0  0  0  0  0  0  0  0  0
  -53.5528  -11.5274  -27.1401 O   0  0  0  0  0  0  0  0  0  0  0  0
  -53.1210  -12.2467  -25.0315 N   0  0  0  0  0  0  0  0  0  0  0  0
  -53.1972  -12.9624  -24.3598 H   0  0  0  0  0  0  0  0  0  0  0  0
  -54.4712  -13.6058  -26.5937 C   0  0  0  0  0  0  0  0  0  0  0  0
  -55.1666  -14.2841  -25.6669 C   0  0  0  0  0  0  0  0  0  0  0  0
  -55.9183  -15.4811  -26.1024 C   0  0  0  0  0  0  0  0  0  0  0  0
  -57.1977  -15.3555  -26.6199 C   0  0  0  0  0  0  0  0  0  0  0  0
  -57.9303  -16.4579  -27.0364 C   0  0  0  0  0  0  0  0  0  0  0  0
  -57.3813  -17.7235  -26.9378 C   0  0  0  0  0  0  0  0  0  0  0  0
  -56.1139  -17.8737  -26.4204 C   0  0  0  0  0  0  0  0  0  0  0  0
  -55.3984  -16.7623  -26.0122 C   0  0  0  0  0  0  0  0  0  0  0  0
  -59.5387  -16.2670  -27.6798 Cl  0  0  0  0  0  0  0  0  0  0  0  0
  -54.1127  -16.9787  -25.4944 N   0  0  0  0  0  0  0  0  0  0  0  0
  -53.7552  -17.1456  -24.1921 C   0  0  0  0  0  0  0  0  0  0  0  0
  -52.4487  -17.2786  -24.1295 N   0  0  0  0  0  0  0  0  0  0  0  0
  -51.9965  -17.1894  -25.4179 N   0  0  0  0  0  0  0  0  0  0  0  0
  -53.0105  -17.0045  -26.2532 N   0  0  0  0  0  0  0  0  0  0  0  0
  -51.1153  -11.3348  -24.0276 C   0  0  0  0  0  0  0  0  0  0  0  0
  -50.3652  -12.2402  -24.3770 O   0  0  0  0  0  0  0  0  0  0  0  0
  -50.9160  -10.5096  -22.9354 N   0  0  0  0  0  0  0  0  0  0  0  0
  -51.6334   -9.8648  -22.7386 H   0  0  0  0  0  0  0  0  0  0  0  0
  -49.7964  -10.4874  -22.0686 C   0  0  0  0  0  0  0  0  0  0  0  0
  -48.7246   -9.7017  -22.4227 C   0  0  0  0  0  0  0  0  0  0  0  0
  -47.5963   -9.6325  -21.6320 C   0  0  0  0  0  0  0  0  0  0  0  0
  -47.5344  -10.3642  -20.4610 C   0  0  0  0  0  0  0  0  0  0  0  0
  -48.6094  -11.1477  -20.1027 C   0  0  0  0  0  0  0  0  0  0  0  0
  -49.7405  -11.2086  -20.8903 C   0  0  0  0  0  0  0  0  0  0  0  0
  -46.3483  -10.3538  -19.6406 C   0  0  0  0  0  0  0  0  0  0  0  0
  -46.2597   -9.7649  -18.4146 N   0  0  0  0  0  0  0  0  0  0  0  0
  -45.0222   -9.9213  -17.9276 N   0  0  0  0  0  0  0  0  0  0  0  0
  -44.3607  -10.5922  -18.8625 N   0  0  0  0  0  0  0  0  0  0  0  0
  -45.1696  -10.8666  -19.9272 N   0  0  0  0  0  0  0  0  0  0  0  0
  -46.9941   -9.2956  -17.9567 H   0  0  0  0  0  0  0  0  0  0  0  0
  -53.2511  -10.1395  -23.7963 C   0  0  0  0  0  0  0  0  0  0  0  0
  -54.4296  -10.8512  -23.2045 C   0  0  0  0  0  0  0  0  0  0  0  0
  -55.6851  -10.5999  -23.7183 C   0  0  0  0  0  0  0  0  0  0  0  0
  -54.3081  -11.7429  -22.1559 C   0  0  0  0  0  0  0  0  0  0  0  0
  -56.8020  -11.2277  -23.1964 C   0  0  0  0  0  0  0  0  0  0  0  0
  -55.4173  -12.3726  -21.6272 C   0  0  0  0  0  0  0  0  0  0  0  0
  -56.6698  -12.1125  -22.1465 C   0  0  0  0  0  0  0  0  0  0  0  0
 42 40  1  0  0  0
 42 41  2  0  0  0
 40 38  2  0  0  0
 38 37  1  0  0  0
 37 39  2  0  0  0
 37 36  1  0  0  0
 39 41  1  0  0  0
 36  1  1  0  0  0
  1 20  1  0  0  0
  1  4  1  0  0  0
 20 21  2  0  0  0
 20 22  1  0  0  0
 22 24  1  0  0  0
 24 25  1  0  0  0
 24 29  2  0  0  0
 25 26  2  0  0  0
 26 27  1  0  0  0
 27 28  2  0  0  0
 27 30  1  0  0  0
 28 29  1  0  0  0
 30 31  1  0  0  0
 30 34  2  0  0  0
 31 32  1  0  0  0
 32 33  2  0  0  0
 33 34  1  0  0  0
  4  2  1  0  0  0
  2  3  2  0  0  0
  2  6  1  0  0  0
  6  7  2  0  0  0
  7  8  1  0  0  0
  8  9  1  0  0  0
  8 13  2  0  0  0
  9 10  2  0  0  0
 10 11  1  0  0  0
 10 14  1  0  0  0
 11 12  2  0  0  0
 12 13  1  0  0  0
 13 15  1  0  0  0
 15 16  1  0  0  0
 15 19  1  0  0  0
 16 17  2  0  0  0
 17 18  1  0  0  0
 18 19  2  0  0  0
  4  5  1  0  0  0
 22 23  1  0  0  0
 31 35  1  0  0  0
M  END
> <minimizedAffinity>
-8.19469

$$$$
