5HVT_NVS_A_202


 21 23  0  0  0  0  0  0  0  0999 V2000
   32.3107  -27.3299  -24.5696 N   0  0  0  0  0  0  0  0  0  0  0  0
   31.3747  -27.1733  -23.5999 C   0  0  0  0  0  0  0  0  0  0  0  0
   31.3577  -28.1004  -22.5860 O   0  0  0  0  0  0  0  0  0  0  0  0
   32.4519  -28.8873  -22.3347 C   0  0  0  0  0  0  0  0  0  0  0  0
   33.3937  -29.1061  -23.3015 C   0  0  0  0  0  0  0  0  0  0  0  0
   33.2234  -28.4665  -24.6725 C   0  0  0  0  0  0  0  0  0  0  0  0
   30.5235  -26.2917  -23.6083 O   0  0  0  0  0  0  0  0  0  0  0  0
   32.5775  -29.4738  -21.0732 C   0  0  0  0  0  0  0  0  0  0  0  0
   33.6647  -30.2904  -20.7816 C   0  0  0  0  0  0  0  0  0  0  0  0
   34.6171  -30.5341  -21.7647 C   0  0  0  0  0  0  0  0  0  0  0  0
   34.4766  -29.9385  -23.0152 C   0  0  0  0  0  0  0  0  0  0  0  0
   33.7693  -30.8254  -19.5264 O   0  0  0  0  0  0  0  0  0  0  0  0
   34.4950  -31.3780  -19.3116 H   0  0  0  0  0  0  0  0  0  0  0  0
   32.3615  -26.3526  -25.5731 C   0  0  0  0  0  0  0  0  0  0  0  0
   31.2818  -26.1861  -26.4365 C   0  0  0  0  0  0  0  0  0  0  0  0
   31.3196  -25.2229  -27.4388 C   0  0  0  0  0  0  0  0  0  0  0  0
   32.4415  -24.4190  -27.5914 C   0  0  0  0  0  0  0  0  0  0  0  0
   33.5108  -24.5729  -26.7181 C   0  0  0  0  0  0  0  0  0  0  0  0
   33.4699  -25.5441  -25.7121 C   0  0  0  0  0  0  0  0  0  0  0  0
   32.4390  -23.4693  -28.5822 O   0  0  0  0  0  0  0  0  0  0  0  0
   33.6807  -23.0345  -29.1140 C   0  0  0  0  0  0  0  0  0  0  0  0
 21 20  1  0  0  0
 20 17  1  0  0  0
 17 16  2  0  0  0
 17 18  1  0  0  0
 16 15  1  0  0  0
 18 19  2  0  0  0
 15 14  2  0  0  0
 19 14  1  0  0  0
 14  1  1  0  0  0
  6  1  1  0  0  0
  6  5  1  0  0  0
  1  2  1  0  0  0
  7  2  2  0  0  0
  2  3  1  0  0  0
  5 11  2  0  0  0
  5  4  1  0  0  0
 11 10  1  0  0  0
  3  4  1  0  0  0
  4  8  2  0  0  0
 10  9  2  0  0  0
  8  9  1  0  0  0
  9 12  1  0  0  0
 12 13  1  0  0  0
M  END
> <minimizedAffinity>
-10.00287

$$$$
5HVT_NVS_A_202


 21 23  0  0  0  0  0  0  0  0999 V2000
   32.9265  -26.0655  -25.4562 N   0  0  0  0  0  0  0  0  0  0  0  0
   31.7558  -25.9272  -24.7846 C   0  0  0  0  0  0  0  0  0  0  0  0
   31.3799  -26.9568  -23.9561 O   0  0  0  0  0  0  0  0  0  0  0  0
   32.2984  -27.8726  -23.5118 C   0  0  0  0  0  0  0  0  0  0  0  0
   33.4699  -28.0734  -24.1877 C   0  0  0  0  0  0  0  0  0  0  0  0
   33.7559  -27.2687  -25.4479 C   0  0  0  0  0  0  0  0  0  0  0  0
   31.0022  -24.9697  -24.9157 O   0  0  0  0  0  0  0  0  0  0  0  0
   32.0058  -28.6080  -22.3609 C   0  0  0  0  0  0  0  0  0  0  0  0
   32.9037  -29.5570  -21.8845 C   0  0  0  0  0  0  0  0  0  0  0  0
   34.0887  -29.7815  -22.5762 C   0  0  0  0  0  0  0  0  0  0  0  0
   34.3644  -29.0370  -23.7197 C   0  0  0  0  0  0  0  0  0  0  0  0
   32.5962  -30.2386  -20.7384 O   0  0  0  0  0  0  0  0  0  0  0  0
   33.1890  -30.8817  -20.4024 H   0  0  0  0  0  0  0  0  0  0  0  0
   33.3346  -24.9908  -26.2581 C   0  0  0  0  0  0  0  0  0  0  0  0
   33.4336  -25.1512  -27.6377 C   0  0  0  0  0  0  0  0  0  0  0  0
   33.8404  -24.0948  -28.4453 C   0  0  0  0  0  0  0  0  0  0  0  0
   34.1580  -22.8670  -27.8798 C   0  0  0  0  0  0  0  0  0  0  0  0
   34.0411  -22.7019  -26.5055 C   0  0  0  0  0  0  0  0  0  0  0  0
   33.6333  -23.7675  -25.6960 C   0  0  0  0  0  0  0  0  0  0  0  0
   34.5424  -21.8423  -28.7081 O   0  0  0  0  0  0  0  0  0  0  0  0
   35.9236  -21.5374  -28.8208 C   0  0  0  0  0  0  0  0  0  0  0  0
 21 20  1  0  0  0
 20 17  1  0  0  0
 17 16  2  0  0  0
 17 18  1  0  0  0
 16 15  1  0  0  0
 18 19  2  0  0  0
 15 14  2  0  0  0
 19 14  1  0  0  0
 14  1  1  0  0  0
  6  1  1  0  0  0
  6  5  1  0  0  0
  1  2  1  0  0  0
  7  2  2  0  0  0
  2  3  1  0  0  0
  5 11  2  0  0  0
  5  4  1  0  0  0
 11 10  1  0  0  0
  3  4  1  0  0  0
  4  8  2  0  0  0
 10  9  2  0  0  0
  8  9  1  0  0  0
  9 12  1  0  0  0
 12 13  1  0  0  0
M  END
> <minimizedAffinity>
-8.25155

$$$$
5HVT_NVS_A_202


 21 23  0  0  0  0  0  0  0  0999 V2000
   33.0599  -26.2102  -25.4190 N   0  0  0  0  0  0  0  0  0  0  0  0
   33.3101  -26.5930  -26.6964 C   0  0  0  0  0  0  0  0  0  0  0  0
   33.4063  -25.6018  -27.6430 O   0  0  0  0  0  0  0  0  0  0  0  0
   33.6458  -24.3021  -27.2781 C   0  0  0  0  0  0  0  0  0  0  0  0
   33.3638  -23.8670  -26.0130 C   0  0  0  0  0  0  0  0  0  0  0  0
   32.7774  -24.8393  -24.9989 C   0  0  0  0  0  0  0  0  0  0  0  0
   33.4019  -27.7616  -27.0536 O   0  0  0  0  0  0  0  0  0  0  0  0
   34.1711  -23.4266  -28.2313 C   0  0  0  0  0  0  0  0  0  0  0  0
   34.4156  -22.0967  -27.9066 C   0  0  0  0  0  0  0  0  0  0  0  0
   34.1137  -21.6407  -26.6283 C   0  0  0  0  0  0  0  0  0  0  0  0
   33.5934  -22.5287  -25.6909 C   0  0  0  0  0  0  0  0  0  0  0  0
   34.9568  -21.2747  -28.8575 O   0  0  0  0  0  0  0  0  0  0  0  0
   35.1284  -20.3757  -28.6569 H   0  0  0  0  0  0  0  0  0  0  0  0
   33.0167  -27.2184  -24.4461 C   0  0  0  0  0  0  0  0  0  0  0  0
   31.8756  -27.3822  -23.6650 C   0  0  0  0  0  0  0  0  0  0  0  0
   31.8198  -28.3759  -22.6939 C   0  0  0  0  0  0  0  0  0  0  0  0
   32.9084  -29.2136  -22.4901 C   0  0  0  0  0  0  0  0  0  0  0  0
   34.0395  -29.0619  -23.2822 C   0  0  0  0  0  0  0  0  0  0  0  0
   34.0926  -28.0600  -24.2570 C   0  0  0  0  0  0  0  0  0  0  0  0
   32.8135  -30.1925  -21.5327 O   0  0  0  0  0  0  0  0  0  0  0  0
   33.6403  -30.1048  -20.3828 C   0  0  0  0  0  0  0  0  0  0  0  0
 21 20  1  0  0  0
 20 17  1  0  0  0
 17 16  2  0  0  0
 17 18  1  0  0  0
 16 15  1  0  0  0
 18 19  2  0  0  0
 15 14  2  0  0  0
 19 14  1  0  0  0
 14  1  1  0  0  0
  6  1  1  0  0  0
  6  5  1  0  0  0
  1  2  1  0  0  0
  7  2  2  0  0  0
  2  3  1  0  0  0
  5 11  2  0  0  0
  5  4  1  0  0  0
 11 10  1  0  0  0
  3  4  1  0  0  0
  4  8  2  0  0  0
 10  9  2  0  0  0
  8  9  1  0  0  0
  9 12  1  0  0  0
 12 13  1  0  0  0
M  END
> <minimizedAffinity>
-7.66767

$$$$
5HVT_NVS_A_202


 21 23  0  0  0  0  0  0  0  0999 V2000
   32.3405  -25.8907  -25.5564 N   0  0  0  0  0  0  0  0  0  0  0  0
   31.3736  -26.1057  -26.4836 C   0  0  0  0  0  0  0  0  0  0  0  0
   31.1471  -25.1073  -27.3999 O   0  0  0  0  0  0  0  0  0  0  0  0
   32.0904  -24.1403  -27.6334 C   0  0  0  0  0  0  0  0  0  0  0  0
   33.0535  -23.8629  -26.7034 C   0  0  0  0  0  0  0  0  0  0  0  0
   33.0770  -24.6390  -25.3939 C   0  0  0  0  0  0  0  0  0  0  0  0
   30.6672  -27.1067  -26.5141 O   0  0  0  0  0  0  0  0  0  0  0  0
   32.0385  -23.4329  -28.8367 C   0  0  0  0  0  0  0  0  0  0  0  0
   32.9676  -22.4342  -29.1070 C   0  0  0  0  0  0  0  0  0  0  0  0
   33.9386  -22.1321  -28.1589 C   0  0  0  0  0  0  0  0  0  0  0  0
   33.9764  -22.8497  -26.9666 C   0  0  0  0  0  0  0  0  0  0  0  0
   32.9031  -21.7814  -30.3080 O   0  0  0  0  0  0  0  0  0  0  0  0
   33.5208  -21.1056  -30.5077 H   0  0  0  0  0  0  0  0  0  0  0  0
   32.6073  -26.9323  -24.6572 C   0  0  0  0  0  0  0  0  0  0  0  0
   33.7781  -27.6756  -24.7818 C   0  0  0  0  0  0  0  0  0  0  0  0
   34.0542  -28.7138  -23.8990 C   0  0  0  0  0  0  0  0  0  0  0  0
   33.1582  -29.0232  -22.8844 C   0  0  0  0  0  0  0  0  0  0  0  0
   31.9992  -28.2695  -22.7488 C   0  0  0  0  0  0  0  0  0  0  0  0
   31.7240  -27.2268  -23.6400 C   0  0  0  0  0  0  0  0  0  0  0  0
   33.4694  -30.0452  -22.0225 O   0  0  0  0  0  0  0  0  0  0  0  0
   33.2236  -29.8675  -20.6363 C   0  0  0  0  0  0  0  0  0  0  0  0
 21 20  1  0  0  0
 20 17  1  0  0  0
 17 16  2  0  0  0
 17 18  1  0  0  0
 16 15  1  0  0  0
 18 19  2  0  0  0
 15 14  2  0  0  0
 19 14  1  0  0  0
 14  1  1  0  0  0
  6  1  1  0  0  0
  6  5  1  0  0  0
  1  2  1  0  0  0
  7  2  2  0  0  0
  2  3  1  0  0  0
  5 11  2  0  0  0
  5  4  1  0  0  0
 11 10  1  0  0  0
  3  4  1  0  0  0
  4  8  2  0  0  0
 10  9  2  0  0  0
  8  9  1  0  0  0
  9 12  1  0  0  0
 12 13  1  0  0  0
M  END
> <minimizedAffinity>
-7.45333

$$$$
5HVT_NVS_A_202


 21 23  0  0  0  0  0  0  0  0999 V2000
   32.6933  -26.1896  -25.9087 N   0  0  0  0  0  0  0  0  0  0  0  0
   33.6356  -27.0487  -26.3720 C   0  0  0  0  0  0  0  0  0  0  0  0
   34.1083  -27.9964  -25.4965 O   0  0  0  0  0  0  0  0  0  0  0  0
   33.4000  -28.3286  -24.3706 C   0  0  0  0  0  0  0  0  0  0  0  0
   32.4743  -27.4693  -23.8471 C   0  0  0  0  0  0  0  0  0  0  0  0
   32.2283  -26.1284  -24.5246 C   0  0  0  0  0  0  0  0  0  0  0  0
   34.1176  -26.9918  -27.4973 O   0  0  0  0  0  0  0  0  0  0  0  0
   33.6545  -29.5588  -23.7600 C   0  0  0  0  0  0  0  0  0  0  0  0
   32.9684  -29.9285  -22.6083 C   0  0  0  0  0  0  0  0  0  0  0  0
   32.0393  -29.0528  -22.0579 C   0  0  0  0  0  0  0  0  0  0  0  0
   31.7970  -27.8322  -22.6821 C   0  0  0  0  0  0  0  0  0  0  0  0
   33.2236  -31.1531  -22.0534 O   0  0  0  0  0  0  0  0  0  0  0  0
   32.7710  -31.4193  -21.2773 H   0  0  0  0  0  0  0  0  0  0  0  0
   32.1731  -25.2593  -26.8190 C   0  0  0  0  0  0  0  0  0  0  0  0
   33.0300  -24.3955  -27.4962 C   0  0  0  0  0  0  0  0  0  0  0  0
   32.5278  -23.4653  -28.3996 C   0  0  0  0  0  0  0  0  0  0  0  0
   31.1609  -23.3857  -28.6311 C   0  0  0  0  0  0  0  0  0  0  0  0
   30.3082  -24.2601  -27.9693 C   0  0  0  0  0  0  0  0  0  0  0  0
   30.8169  -25.1935  -27.0598 C   0  0  0  0  0  0  0  0  0  0  0  0
   30.7013  -22.4654  -29.5397 O   0  0  0  0  0  0  0  0  0  0  0  0
   29.3818  -21.9638  -29.3950 C   0  0  0  0  0  0  0  0  0  0  0  0
 21 20  1  0  0  0
 20 17  1  0  0  0
 17 16  2  0  0  0
 17 18  1  0  0  0
 16 15  1  0  0  0
 18 19  2  0  0  0
 15 14  2  0  0  0
 19 14  1  0  0  0
 14  1  1  0  0  0
  6  1  1  0  0  0
  6  5  1  0  0  0
  1  2  1  0  0  0
  7  2  2  0  0  0
  2  3  1  0  0  0
  5 11  2  0  0  0
  5  4  1  0  0  0
 11 10  1  0  0  0
  3  4  1  0  0  0
  4  8  2  0  0  0
 10  9  2  0  0  0
  8  9  1  0  0  0
  9 12  1  0  0  0
 12 13  1  0  0  0
M  END
> <minimizedAffinity>
-7.07150

$$$$
5HVT_NVS_A_202


 21 23  0  0  0  0  0  0  0  0999 V2000
   32.9208  -24.3962  -26.8832 N   0  0  0  0  0  0  0  0  0  0  0  0
   31.7154  -24.1279  -26.3212 C   0  0  0  0  0  0  0  0  0  0  0  0
   31.1396  -25.1190  -25.5635 O   0  0  0  0  0  0  0  0  0  0  0  0
   31.8938  -26.1485  -25.0625 C   0  0  0  0  0  0  0  0  0  0  0  0
   33.0929  -26.4786  -25.6304 C   0  0  0  0  0  0  0  0  0  0  0  0
   33.5949  -25.6918  -26.8332 C   0  0  0  0  0  0  0  0  0  0  0  0
   31.0987  -23.0830  -26.4939 O   0  0  0  0  0  0  0  0  0  0  0  0
   31.4042  -26.8637  -23.9671 C   0  0  0  0  0  0  0  0  0  0  0  0
   32.1310  -27.9242  -23.4370 C   0  0  0  0  0  0  0  0  0  0  0  0
   33.3421  -28.2794  -24.0202 C   0  0  0  0  0  0  0  0  0  0  0  0
   33.8153  -27.5531  -25.1096 C   0  0  0  0  0  0  0  0  0  0  0  0
   31.6336  -28.5842  -22.3463 O   0  0  0  0  0  0  0  0  0  0  0  0
   32.1094  -29.3012  -21.9754 H   0  0  0  0  0  0  0  0  0  0  0  0
   33.5312  -23.3648  -27.6101 C   0  0  0  0  0  0  0  0  0  0  0  0
   34.1757  -22.3287  -26.9393 C   0  0  0  0  0  0  0  0  0  0  0  0
   34.7827  -21.2972  -27.6473 C   0  0  0  0  0  0  0  0  0  0  0  0
   34.7464  -21.2887  -29.0354 C   0  0  0  0  0  0  0  0  0  0  0  0
   34.1196  -22.3322  -29.7047 C   0  0  0  0  0  0  0  0  0  0  0  0
   33.5085  -23.3673  -28.9890 C   0  0  0  0  0  0  0  0  0  0  0  0
   35.3680  -20.2625  -29.7022 O   0  0  0  0  0  0  0  0  0  0  0  0
   36.5404  -19.6944  -29.1399 C   0  0  0  0  0  0  0  0  0  0  0  0
 21 20  1  0  0  0
 20 17  1  0  0  0
 17 16  2  0  0  0
 17 18  1  0  0  0
 16 15  1  0  0  0
 18 19  2  0  0  0
 15 14  2  0  0  0
 19 14  1  0  0  0
 14  1  1  0  0  0
  6  1  1  0  0  0
  6  5  1  0  0  0
  1  2  1  0  0  0
  7  2  2  0  0  0
  2  3  1  0  0  0
  5 11  2  0  0  0
  5  4  1  0  0  0
 11 10  1  0  0  0
  3  4  1  0  0  0
  4  8  2  0  0  0
 10  9  2  0  0  0
  8  9  1  0  0  0
  9 12  1  0  0  0
 12 13  1  0  0  0
M  END
> <minimizedAffinity>
-7.05260

$$$$
5HVT_NVS_A_202


 21 23  0  0  0  0  0  0  0  0999 V2000
   32.1934  -25.4751  -25.9686 N   0  0  0  0  0  0  0  0  0  0  0  0
   32.9763  -24.3723  -25.8614 C   0  0  0  0  0  0  0  0  0  0  0  0
   32.7306  -23.3388  -26.7328 O   0  0  0  0  0  0  0  0  0  0  0  0
   31.5302  -23.2422  -27.3880 C   0  0  0  0  0  0  0  0  0  0  0  0
   30.7343  -24.3411  -27.5563 C   0  0  0  0  0  0  0  0  0  0  0  0
   31.1882  -25.6868  -27.0080 C   0  0  0  0  0  0  0  0  0  0  0  0
   33.9105  -24.2718  -25.0746 O   0  0  0  0  0  0  0  0  0  0  0  0
   31.1433  -21.9991  -27.8939 C   0  0  0  0  0  0  0  0  0  0  0  0
   29.9401  -21.8606  -28.5773 C   0  0  0  0  0  0  0  0  0  0  0  0
   29.1335  -22.9765  -28.7700 C   0  0  0  0  0  0  0  0  0  0  0  0
   29.5344  -24.2067  -28.2562 C   0  0  0  0  0  0  0  0  0  0  0  0
   29.5804  -20.6219  -29.0344 O   0  0  0  0  0  0  0  0  0  0  0  0
   28.7734  -20.5094  -29.4970 H   0  0  0  0  0  0  0  0  0  0  0  0
   32.4098  -26.5055  -25.0433 C   0  0  0  0  0  0  0  0  0  0  0  0
   31.4623  -26.7637  -24.0562 C   0  0  0  0  0  0  0  0  0  0  0  0
   31.6653  -27.7805  -23.1296 C   0  0  0  0  0  0  0  0  0  0  0  0
   32.8222  -28.5469  -23.1776 C   0  0  0  0  0  0  0  0  0  0  0  0
   33.7585  -28.3013  -24.1740 C   0  0  0  0  0  0  0  0  0  0  0  0
   33.5517  -27.2764  -25.1034 C   0  0  0  0  0  0  0  0  0  0  0  0
   32.9832  -29.5513  -22.2560 O   0  0  0  0  0  0  0  0  0  0  0  0
   32.8168  -29.2479  -20.8799 C   0  0  0  0  0  0  0  0  0  0  0  0
 21 20  1  0  0  0
 20 17  1  0  0  0
 17 16  2  0  0  0
 17 18  1  0  0  0
 16 15  1  0  0  0
 18 19  2  0  0  0
 15 14  2  0  0  0
 19 14  1  0  0  0
 14  1  1  0  0  0
  6  1  1  0  0  0
  6  5  1  0  0  0
  1  2  1  0  0  0
  7  2  2  0  0  0
  2  3  1  0  0  0
  5 11  2  0  0  0
  5  4  1  0  0  0
 11 10  1  0  0  0
  3  4  1  0  0  0
  4  8  2  0  0  0
 10  9  2  0  0  0
  8  9  1  0  0  0
  9 12  1  0  0  0
 12 13  1  0  0  0
M  END
> <minimizedAffinity>
-7.05161

$$$$
