3CJ5_SX6_A_571


 31 33  0  0  0  0  0  0  0  0999 V2000
    7.5241   37.2446   77.5685 C   0  0  0  0  0  0  0  0  0  0  0  0
    6.6345   38.1342   76.9449 C   0  0  0  0  0  0  0  0  0  0  0  0
    6.9842   38.7683   75.7492 C   0  0  0  0  0  0  0  0  0  0  0  0
    8.2342   38.5027   75.1905 C   0  0  0  0  0  0  0  0  0  0  0  0
    8.7477   39.3073   73.5814 Br  0  0  0  0  0  0  0  0  0  0  0  0
    9.1329   37.6293   75.7737 C   0  0  0  0  0  0  0  0  0  0  0  0
    8.7880   36.9917   76.9632 C   0  0  0  0  0  0  0  0  0  0  0  0
    9.8173   36.0837   77.5368 C   0  0  0  0  0  0  0  0  0  0  0  0
   10.6761   36.6073   78.2372 O   0  0  0  0  0  0  0  0  0  0  0  0
    9.8404   34.7195   77.3097 N   0  0  0  0  0  0  0  0  0  0  0  0
   10.8487   33.8417   77.9133 C   0  0  0  0  0  0  0  0  0  0  0  0
   11.6451   33.0535   76.8776 C   0  0  0  0  0  0  0  0  0  0  0  0
   12.6363   32.1074   77.5598 C   0  0  0  0  0  0  0  0  0  0  0  0
   10.6868   32.3044   75.9518 C   0  0  0  0  0  0  0  0  0  0  0  0
    8.9644   34.1290   76.2733 C   0  0  0  0  0  0  0  0  0  0  0  0
    9.6973   33.2458   75.2572 C   0  0  0  0  0  0  0  0  0  0  0  0
    8.7190   32.4804   74.3703 C   0  0  0  0  0  0  0  0  0  0  0  0
    6.3127   35.5179   78.8350 C   0  0  0  0  0  0  0  0  0  0  0  0
    5.7641   34.9776   77.8674 O   0  0  0  0  0  0  0  0  0  0  0  0
    7.1601   36.6031   78.7735 N   0  0  0  0  0  0  0  0  0  0  0  0
    7.5325   36.9505   79.6161 H   0  0  0  0  0  0  0  0  0  0  0  0
    6.1108   35.0722   80.2723 C   0  0  0  0  0  0  0  0  0  0  0  0
    4.7349   35.4737   80.7998 C   0  0  0  0  0  0  0  0  0  0  0  0
    5.2302   37.8484   80.5827 O   0  0  0  0  0  0  0  0  0  0  0  0
    4.3804   36.9477   80.6318 C   0  0  0  0  0  0  0  0  0  0  0  0
    3.0282   37.2487   80.5312 N   0  0  0  0  0  0  0  0  0  0  0  0
    2.4570   38.6054   80.3575 C   0  0  0  0  0  0  0  0  0  0  0  0
    1.1109   38.7959   81.0806 C   0  0  0  0  0  0  0  0  0  0  0  0
    0.1717   37.7719   80.6997 O   0  0  0  0  0  0  0  0  0  0  0  0
    0.6783   36.4564   81.0042 C   0  0  0  0  0  0  0  0  0  0  0  0
    2.0043   36.2019   80.2689 C   0  0  0  0  0  0  0  0  0  0  0  0
 24 25  2  0  0  0
 26 25  1  0  0  0
 25 23  1  0  0  0
 27 26  1  0  0  0
 26 31  1  0  0  0
 28 27  1  0  0  0
 28 29  1  0  0  0
 29 30  1  0  0  0
 30 31  1  0  0  0
 23 22  1  0  0  0
 22 18  1  0  0  0
 20 18  1  0  0  0
 18 19  2  0  0  0
 20  1  1  0  0  0
  1  7  2  0  0  0
  1  2  1  0  0  0
  2  3  2  0  0  0
  3  4  1  0  0  0
  6  4  2  0  0  0
  4  5  1  0  0  0
  7  6  1  0  0  0
  8  7  1  0  0  0
  9  8  2  0  0  0
  8 10  1  0  0  0
 11 10  1  0  0  0
 10 15  1  0  0  0
 11 12  1  0  0  0
 13 12  1  0  0  0
 12 14  1  0  0  0
 14 16  1  0  0  0
 15 16  1  0  0  0
 16 17  1  0  0  0
 20 21  1  0  0  0
M  END
> <minimizedAffinity>
-8.53677

$$$$
3CJ5_SX6_A_571


 31 33  0  0  0  0  0  0  0  0999 V2000
    7.2720   36.7715   76.9551 C   0  0  0  0  0  0  0  0  0  0  0  0
    6.4228   37.6075   76.2124 C   0  0  0  0  0  0  0  0  0  0  0  0
    6.9421   38.4609   75.2346 C   0  0  0  0  0  0  0  0  0  0  0  0
    8.3193   38.4678   75.0142 C   0  0  0  0  0  0  0  0  0  0  0  0
    9.0678   39.5748   73.7048 Br  0  0  0  0  0  0  0  0  0  0  0  0
    9.1843   37.6551   75.7226 C   0  0  0  0  0  0  0  0  0  0  0  0
    8.6718   36.8000   76.6953 C   0  0  0  0  0  0  0  0  0  0  0  0
    9.6697   35.9738   77.4265 C   0  0  0  0  0  0  0  0  0  0  0  0
   10.3825   36.5648   78.2296 O   0  0  0  0  0  0  0  0  0  0  0  0
    9.8187   34.6123   77.2332 N   0  0  0  0  0  0  0  0  0  0  0  0
   10.7896   33.8151   77.9906 C   0  0  0  0  0  0  0  0  0  0  0  0
   11.7769   33.0745   77.0936 C   0  0  0  0  0  0  0  0  0  0  0  0
   12.7246   32.2089   77.9277 C   0  0  0  0  0  0  0  0  0  0  0  0
   11.0134   32.2491   76.0581 C   0  0  0  0  0  0  0  0  0  0  0  0
    9.1411   33.9498   76.0966 C   0  0  0  0  0  0  0  0  0  0  0  0
   10.0696   33.1101   75.2120 C   0  0  0  0  0  0  0  0  0  0  0  0
    9.2819   32.2675   74.2126 C   0  0  0  0  0  0  0  0  0  0  0  0
    5.8368   34.9018   77.6607 C   0  0  0  0  0  0  0  0  0  0  0  0
    5.3795   34.6323   76.5438 O   0  0  0  0  0  0  0  0  0  0  0  0
    6.7380   35.9073   77.9371 N   0  0  0  0  0  0  0  0  0  0  0  0
    7.0256   36.0302   78.8706 H   0  0  0  0  0  0  0  0  0  0  0  0
    5.4460   34.1644   78.9290 C   0  0  0  0  0  0  0  0  0  0  0  0
    5.4118   35.0982   80.1371 C   0  0  0  0  0  0  0  0  0  0  0  0
    3.0281   35.3478   80.5697 O   0  0  0  0  0  0  0  0  0  0  0  0
    4.1161   35.8832   80.3139 C   0  0  0  0  0  0  0  0  0  0  0  0
    4.2072   37.2622   80.1748 N   0  0  0  0  0  0  0  0  0  0  0  0
    3.0833   38.2191   80.3103 C   0  0  0  0  0  0  0  0  0  0  0  0
    3.1925   39.4246   79.3586 C   0  0  0  0  0  0  0  0  0  0  0  0
    4.4677   40.0800   79.5012 O   0  0  0  0  0  0  0  0  0  0  0  0
    5.5561   39.1743   79.2274 C   0  0  0  0  0  0  0  0  0  0  0  0
    5.5147   37.9714   80.1840 C   0  0  0  0  0  0  0  0  0  0  0  0
 24 25  2  0  0  0
 26 25  1  0  0  0
 25 23  1  0  0  0
 27 26  1  0  0  0
 26 31  1  0  0  0
 28 27  1  0  0  0
 28 29  1  0  0  0
 29 30  1  0  0  0
 30 31  1  0  0  0
 23 22  1  0  0  0
 22 18  1  0  0  0
 20 18  1  0  0  0
 18 19  2  0  0  0
 20  1  1  0  0  0
  1  7  2  0  0  0
  1  2  1  0  0  0
  2  3  2  0  0  0
  3  4  1  0  0  0
  6  4  2  0  0  0
  4  5  1  0  0  0
  7  6  1  0  0  0
  8  7  1  0  0  0
  9  8  2  0  0  0
  8 10  1  0  0  0
 11 10  1  0  0  0
 10 15  1  0  0  0
 11 12  1  0  0  0
 13 12  1  0  0  0
 12 14  1  0  0  0
 14 16  1  0  0  0
 15 16  1  0  0  0
 16 17  1  0  0  0
 20 21  1  0  0  0
M  END
> <minimizedAffinity>
-8.50027

$$$$
3CJ5_SX6_A_571


 31 33  0  0  0  0  0  0  0  0999 V2000
    7.3297   37.1766   77.2298 C   0  0  0  0  0  0  0  0  0  0  0  0
    6.4717   38.0246   76.5110 C   0  0  0  0  0  0  0  0  0  0  0  0
    6.9321   38.7143   75.3858 C   0  0  0  0  0  0  0  0  0  0  0  0
    8.2600   38.5463   74.9937 C   0  0  0  0  0  0  0  0  0  0  0  0
    8.9253   39.4288   73.4841 Br  0  0  0  0  0  0  0  0  0  0  0  0
    9.1311   37.7164   75.6740 C   0  0  0  0  0  0  0  0  0  0  0  0
    8.6766   37.0236   76.7936 C   0  0  0  0  0  0  0  0  0  0  0  0
    9.6805   36.1678   77.4811 C   0  0  0  0  0  0  0  0  0  0  0  0
   10.4497   36.7381   78.2463 O   0  0  0  0  0  0  0  0  0  0  0  0
    9.7756   34.8014   77.2883 N   0  0  0  0  0  0  0  0  0  0  0  0
   10.7547   33.9756   78.0030 C   0  0  0  0  0  0  0  0  0  0  0  0
   11.6736   33.1994   77.0642 C   0  0  0  0  0  0  0  0  0  0  0  0
   12.6309   32.3062   77.8571 C   0  0  0  0  0  0  0  0  0  0  0  0
   10.8350   32.3957   76.0705 C   0  0  0  0  0  0  0  0  0  0  0  0
    9.0233   34.1573   76.1886 C   0  0  0  0  0  0  0  0  0  0  0  0
    9.8807   33.2841   75.2656 C   0  0  0  0  0  0  0  0  0  0  0  0
    9.0192   32.4640   74.3092 C   0  0  0  0  0  0  0  0  0  0  0  0
    5.9564   35.4348   78.2945 C   0  0  0  0  0  0  0  0  0  0  0  0
    5.4522   34.9855   77.2586 O   0  0  0  0  0  0  0  0  0  0  0  0
    6.8544   36.4782   78.3623 N   0  0  0  0  0  0  0  0  0  0  0  0
    7.1828   36.7521   79.2490 H   0  0  0  0  0  0  0  0  0  0  0  0
    5.6355   34.9087   79.6820 C   0  0  0  0  0  0  0  0  0  0  0  0
    6.7713   35.1817   80.6660 C   0  0  0  0  0  0  0  0  0  0  0  0
    5.7632   37.2601   81.4377 O   0  0  0  0  0  0  0  0  0  0  0  0
    6.5028   36.2943   81.6743 C   0  0  0  0  0  0  0  0  0  0  0  0
    7.1370   36.1772   82.9044 N   0  0  0  0  0  0  0  0  0  0  0  0
    7.0168   37.1326   84.0314 C   0  0  0  0  0  0  0  0  0  0  0  0
    8.3169   37.2834   84.8424 C   0  0  0  0  0  0  0  0  0  0  0  0
    8.8008   36.0001   85.2839 O   0  0  0  0  0  0  0  0  0  0  0  0
    9.0512   35.1219   84.1676 C   0  0  0  0  0  0  0  0  0  0  0  0
    7.7679   34.9056   83.3490 C   0  0  0  0  0  0  0  0  0  0  0  0
 24 25  2  0  0  0
 26 25  1  0  0  0
 25 23  1  0  0  0
 27 26  1  0  0  0
 26 31  1  0  0  0
 28 27  1  0  0  0
 28 29  1  0  0  0
 29 30  1  0  0  0
 30 31  1  0  0  0
 23 22  1  0  0  0
 22 18  1  0  0  0
 20 18  1  0  0  0
 18 19  2  0  0  0
 20  1  1  0  0  0
  1  7  2  0  0  0
  1  2  1  0  0  0
  2  3  2  0  0  0
  3  4  1  0  0  0
  6  4  2  0  0  0
  4  5  1  0  0  0
  7  6  1  0  0  0
  8  7  1  0  0  0
  9  8  2  0  0  0
  8 10  1  0  0  0
 11 10  1  0  0  0
 10 15  1  0  0  0
 11 12  1  0  0  0
 13 12  1  0  0  0
 12 14  1  0  0  0
 14 16  1  0  0  0
 15 16  1  0  0  0
 16 17  1  0  0  0
 20 21  1  0  0  0
M  END
> <minimizedAffinity>
-8.38722

$$$$
3CJ5_SX6_A_571


 31 33  0  0  0  0  0  0  0  0999 V2000
    7.2684   36.7679   77.0988 C   0  0  0  0  0  0  0  0  0  0  0  0
    6.4116   37.6297   76.3954 C   0  0  0  0  0  0  0  0  0  0  0  0
    6.9171   38.4979   75.4235 C   0  0  0  0  0  0  0  0  0  0  0  0
    8.2885   38.4935   75.1692 C   0  0  0  0  0  0  0  0  0  0  0  0
    9.0181   39.6199   73.8657 Br  0  0  0  0  0  0  0  0  0  0  0  0
    9.1606   37.6557   75.8384 C   0  0  0  0  0  0  0  0  0  0  0  0
    8.6617   36.7857   76.8051 C   0  0  0  0  0  0  0  0  0  0  0  0
    9.6671   35.9323   77.4935 C   0  0  0  0  0  0  0  0  0  0  0  0
   10.4028   36.4964   78.2953 O   0  0  0  0  0  0  0  0  0  0  0  0
    9.7987   34.5748   77.2632 N   0  0  0  0  0  0  0  0  0  0  0  0
   10.7779   33.7500   77.9790 C   0  0  0  0  0  0  0  0  0  0  0  0
   11.7385   33.0231   77.0425 C   0  0  0  0  0  0  0  0  0  0  0  0
   12.6954   32.1282   77.8339 C   0  0  0  0  0  0  0  0  0  0  0  0
   10.9448   32.2311   76.0037 C   0  0  0  0  0  0  0  0  0  0  0  0
    9.0903   33.9473   76.1254 C   0  0  0  0  0  0  0  0  0  0  0  0
    9.9913   33.1216   75.2002 C   0  0  0  0  0  0  0  0  0  0  0  0
    9.1741   32.3116   74.1975 C   0  0  0  0  0  0  0  0  0  0  0  0
    6.5355   36.2468   79.3890 C   0  0  0  0  0  0  0  0  0  0  0  0
    6.7732   37.3566   79.8800 O   0  0  0  0  0  0  0  0  0  0  0  0
    6.7482   35.8890   78.0751 N   0  0  0  0  0  0  0  0  0  0  0  0
    6.5252   34.9699   77.8016 H   0  0  0  0  0  0  0  0  0  0  0  0
    5.9844   35.0767   80.1841 C   0  0  0  0  0  0  0  0  0  0  0  0
    6.2715   33.7428   79.4978 C   0  0  0  0  0  0  0  0  0  0  0  0
    4.3507   32.4946   80.3252 O   0  0  0  0  0  0  0  0  0  0  0  0
    5.0727   32.8087   79.3681 C   0  0  0  0  0  0  0  0  0  0  0  0
    4.8138   32.3113   78.0974 N   0  0  0  0  0  0  0  0  0  0  0  0
    3.7033   31.3974   77.7384 C   0  0  0  0  0  0  0  0  0  0  0  0
    4.0775   30.3887   76.6368 C   0  0  0  0  0  0  0  0  0  0  0  0
    4.6054   31.0632   75.4782 O   0  0  0  0  0  0  0  0  0  0  0  0
    5.7743   31.8397   75.8108 C   0  0  0  0  0  0  0  0  0  0  0  0
    5.4399   32.8929   76.8798 C   0  0  0  0  0  0  0  0  0  0  0  0
 24 25  2  0  0  0
 26 25  1  0  0  0
 25 23  1  0  0  0
 27 26  1  0  0  0
 26 31  1  0  0  0
 28 27  1  0  0  0
 28 29  1  0  0  0
 29 30  1  0  0  0
 30 31  1  0  0  0
 23 22  1  0  0  0
 22 18  1  0  0  0
 20 18  1  0  0  0
 18 19  2  0  0  0
 20  1  1  0  0  0
  1  7  2  0  0  0
  1  2  1  0  0  0
  2  3  2  0  0  0
  3  4  1  0  0  0
  6  4  2  0  0  0
  4  5  1  0  0  0
  7  6  1  0  0  0
  8  7  1  0  0  0
  9  8  2  0  0  0
  8 10  1  0  0  0
 11 10  1  0  0  0
 10 15  1  0  0  0
 11 12  1  0  0  0
 13 12  1  0  0  0
 12 14  1  0  0  0
 14 16  1  0  0  0
 15 16  1  0  0  0
 16 17  1  0  0  0
 20 21  1  0  0  0
M  END
> <minimizedAffinity>
-8.36737

$$$$
3CJ5_SX6_A_571


 31 33  0  0  0  0  0  0  0  0999 V2000
    7.4138   37.1491   77.3541 C   0  0  0  0  0  0  0  0  0  0  0  0
    6.5228   37.9957   76.6752 C   0  0  0  0  0  0  0  0  0  0  0  0
    6.9288   38.6819   75.5270 C   0  0  0  0  0  0  0  0  0  0  0  0
    8.2361   38.5116   75.0718 C   0  0  0  0  0  0  0  0  0  0  0  0
    8.8284   39.3892   73.5293 Br  0  0  0  0  0  0  0  0  0  0  0  0
    9.1385   37.6828   75.7116 C   0  0  0  0  0  0  0  0  0  0  0  0
    8.7380   36.9936   76.8539 C   0  0  0  0  0  0  0  0  0  0  0  0
    9.7734   36.1389   77.4946 C   0  0  0  0  0  0  0  0  0  0  0  0
   10.5789   36.7106   78.2202 O   0  0  0  0  0  0  0  0  0  0  0  0
    9.8581   34.7719   77.3011 N   0  0  0  0  0  0  0  0  0  0  0  0
   10.8700   33.9472   77.9701 C   0  0  0  0  0  0  0  0  0  0  0  0
   11.7420   33.1678   76.9903 C   0  0  0  0  0  0  0  0  0  0  0  0
   12.7359   32.2760   77.7386 C   0  0  0  0  0  0  0  0  0  0  0  0
   10.8560   32.3621   76.0404 C   0  0  0  0  0  0  0  0  0  0  0  0
    9.0533   34.1254   76.2408 C   0  0  0  0  0  0  0  0  0  0  0  0
    9.8647   33.2490   75.2799 C   0  0  0  0  0  0  0  0  0  0  0  0
    8.9575   32.4271   74.3684 C   0  0  0  0  0  0  0  0  0  0  0  0
    6.2130   35.3187   78.4771 C   0  0  0  0  0  0  0  0  0  0  0  0
    5.7800   34.7727   77.4555 O   0  0  0  0  0  0  0  0  0  0  0  0
    6.9933   36.4543   78.5103 N   0  0  0  0  0  0  0  0  0  0  0  0
    7.2731   36.8006   79.3883 H   0  0  0  0  0  0  0  0  0  0  0  0
    5.9225   34.8228   79.8823 C   0  0  0  0  0  0  0  0  0  0  0  0
    6.7725   33.6049   80.2382 C   0  0  0  0  0  0  0  0  0  0  0  0
    8.6744   35.0606   80.6801 O   0  0  0  0  0  0  0  0  0  0  0  0
    8.2004   33.9156   80.6755 C   0  0  0  0  0  0  0  0  0  0  0  0
    8.9697   32.8330   81.0819 N   0  0  0  0  0  0  0  0  0  0  0  0
   10.3741   32.9004   81.5513 C   0  0  0  0  0  0  0  0  0  0  0  0
   11.2120   31.6751   81.1418 C   0  0  0  0  0  0  0  0  0  0  0  0
   10.5724   30.4520   81.5550 O   0  0  0  0  0  0  0  0  0  0  0  0
    9.2570   30.3270   80.9771 C   0  0  0  0  0  0  0  0  0  0  0  0
    8.3668   31.5093   81.3937 C   0  0  0  0  0  0  0  0  0  0  0  0
 24 25  2  0  0  0
 26 25  1  0  0  0
 25 23  1  0  0  0
 27 26  1  0  0  0
 26 31  1  0  0  0
 28 27  1  0  0  0
 28 29  1  0  0  0
 29 30  1  0  0  0
 30 31  1  0  0  0
 23 22  1  0  0  0
 22 18  1  0  0  0
 20 18  1  0  0  0
 18 19  2  0  0  0
 20  1  1  0  0  0
  1  7  2  0  0  0
  1  2  1  0  0  0
  2  3  2  0  0  0
  3  4  1  0  0  0
  6  4  2  0  0  0
  4  5  1  0  0  0
  7  6  1  0  0  0
  8  7  1  0  0  0
  9  8  2  0  0  0
  8 10  1  0  0  0
 11 10  1  0  0  0
 10 15  1  0  0  0
 11 12  1  0  0  0
 13 12  1  0  0  0
 12 14  1  0  0  0
 14 16  1  0  0  0
 15 16  1  0  0  0
 16 17  1  0  0  0
 20 21  1  0  0  0
M  END
> <minimizedAffinity>
-8.15900

$$$$
3CJ5_SX6_A_571


 31 33  0  0  0  0  0  0  0  0999 V2000
    7.2949   37.0245   77.1724 C   0  0  0  0  0  0  0  0  0  0  0  0
    6.4466   37.8871   76.4597 C   0  0  0  0  0  0  0  0  0  0  0  0
    6.9361   38.6426   75.3903 C   0  0  0  0  0  0  0  0  0  0  0  0
    8.2831   38.5250   75.0479 C   0  0  0  0  0  0  0  0  0  0  0  0
    8.9885   39.4967   73.6132 Br  0  0  0  0  0  0  0  0  0  0  0  0
    9.1456   37.6825   75.7237 C   0  0  0  0  0  0  0  0  0  0  0  0
    8.6622   36.9244   76.7876 C   0  0  0  0  0  0  0  0  0  0  0  0
    9.6578   36.0588   77.4750 C   0  0  0  0  0  0  0  0  0  0  0  0
   10.4151   36.6174   78.2603 O   0  0  0  0  0  0  0  0  0  0  0  0
    9.7578   34.6959   77.2610 N   0  0  0  0  0  0  0  0  0  0  0  0
   10.7281   33.8598   77.9758 C   0  0  0  0  0  0  0  0  0  0  0  0
   11.6614   33.1005   77.0374 C   0  0  0  0  0  0  0  0  0  0  0  0
   12.6090   32.1957   77.8289 C   0  0  0  0  0  0  0  0  0  0  0  0
   10.8383   32.3122   76.0188 C   0  0  0  0  0  0  0  0  0  0  0  0
    9.0223   34.0690   76.1403 C   0  0  0  0  0  0  0  0  0  0  0  0
    9.8940   33.2124   75.2152 C   0  0  0  0  0  0  0  0  0  0  0  0
    9.0475   32.4071   74.2333 C   0  0  0  0  0  0  0  0  0  0  0  0
    5.8702   35.2447   78.0977 C   0  0  0  0  0  0  0  0  0  0  0  0
    5.3686   34.8808   77.0275 O   0  0  0  0  0  0  0  0  0  0  0  0
    6.7904   36.2597   78.2480 N   0  0  0  0  0  0  0  0  0  0  0  0
    7.1141   36.4631   79.1552 H   0  0  0  0  0  0  0  0  0  0  0  0
    5.5207   34.6303   79.4414 C   0  0  0  0  0  0  0  0  0  0  0  0
    4.0100   34.5138   79.6330 C   0  0  0  0  0  0  0  0  0  0  0  0
    3.4053   32.5339   78.3500 O   0  0  0  0  0  0  0  0  0  0  0  0
    3.4384   33.1121   79.4457 C   0  0  0  0  0  0  0  0  0  0  0  0
    2.9442   32.4908   80.5853 N   0  0  0  0  0  0  0  0  0  0  0  0
    2.3513   31.1333   80.6395 C   0  0  0  0  0  0  0  0  0  0  0  0
    1.2034   31.0110   81.6586 C   0  0  0  0  0  0  0  0  0  0  0  0
    1.6215   31.4600   82.9622 O   0  0  0  0  0  0  0  0  0  0  0  0
    2.0647   32.8320   82.9270 C   0  0  0  0  0  0  0  0  0  0  0  0
    3.2419   32.9970   81.9520 C   0  0  0  0  0  0  0  0  0  0  0  0
 24 25  2  0  0  0
 26 25  1  0  0  0
 25 23  1  0  0  0
 27 26  1  0  0  0
 26 31  1  0  0  0
 28 27  1  0  0  0
 28 29  1  0  0  0
 29 30  1  0  0  0
 30 31  1  0  0  0
 23 22  1  0  0  0
 22 18  1  0  0  0
 20 18  1  0  0  0
 18 19  2  0  0  0
 20  1  1  0  0  0
  1  7  2  0  0  0
  1  2  1  0  0  0
  2  3  2  0  0  0
  3  4  1  0  0  0
  6  4  2  0  0  0
  4  5  1  0  0  0
  7  6  1  0  0  0
  8  7  1  0  0  0
  9  8  2  0  0  0
  8 10  1  0  0  0
 11 10  1  0  0  0
 10 15  1  0  0  0
 11 12  1  0  0  0
 13 12  1  0  0  0
 12 14  1  0  0  0
 14 16  1  0  0  0
 15 16  1  0  0  0
 16 17  1  0  0  0
 20 21  1  0  0  0
M  END
> <minimizedAffinity>
-7.53615

$$$$
3CJ5_SX6_A_571


 31 33  0  0  0  0  0  0  0  0999 V2000
    7.2672   36.7854   77.2107 C   0  0  0  0  0  0  0  0  0  0  0  0
    6.3824   37.6265   76.5168 C   0  0  0  0  0  0  0  0  0  0  0  0
    6.8430   38.4426   75.4796 C   0  0  0  0  0  0  0  0  0  0  0  0
    8.1979   38.4074   75.1505 C   0  0  0  0  0  0  0  0  0  0  0  0
    8.8666   39.4632   73.7583 Br  0  0  0  0  0  0  0  0  0  0  0  0
    9.0963   37.5884   75.8083 C   0  0  0  0  0  0  0  0  0  0  0  0
    8.6420   36.7702   76.8399 C   0  0  0  0  0  0  0  0  0  0  0  0
    9.6743   35.9347   77.5103 C   0  0  0  0  0  0  0  0  0  0  0  0
   10.4213   36.5139   78.2905 O   0  0  0  0  0  0  0  0  0  0  0  0
    9.8179   34.5773   77.2864 N   0  0  0  0  0  0  0  0  0  0  0  0
   10.8243   33.7702   77.9846 C   0  0  0  0  0  0  0  0  0  0  0  0
   11.7717   33.0489   77.0307 C   0  0  0  0  0  0  0  0  0  0  0  0
   12.7586   32.1720   77.8054 C   0  0  0  0  0  0  0  0  0  0  0  0
   10.9640   32.2392   76.0165 C   0  0  0  0  0  0  0  0  0  0  0  0
    9.0910   33.9326   76.1702 C   0  0  0  0  0  0  0  0  0  0  0  0
    9.9805   33.1117   75.2296 C   0  0  0  0  0  0  0  0  0  0  0  0
    9.1503   32.2841   74.2523 C   0  0  0  0  0  0  0  0  0  0  0  0
    6.5257   36.4136   79.5270 C   0  0  0  0  0  0  0  0  0  0  0  0
    6.6708   37.5769   79.9208 O   0  0  0  0  0  0  0  0  0  0  0  0
    6.7921   35.9589   78.2535 N   0  0  0  0  0  0  0  0  0  0  0  0
    6.6430   35.0052   78.0597 H   0  0  0  0  0  0  0  0  0  0  0  0
    6.0451   35.2797   80.4149 C   0  0  0  0  0  0  0  0  0  0  0  0
    4.6587   35.5621   80.9903 C   0  0  0  0  0  0  0  0  0  0  0  0
    4.8406   37.2222   82.7630 O   0  0  0  0  0  0  0  0  0  0  0  0
    4.6426   36.0429   82.4377 C   0  0  0  0  0  0  0  0  0  0  0  0
    4.3878   35.0787   83.4044 N   0  0  0  0  0  0  0  0  0  0  0  0
    4.3186   35.3192   84.8655 C   0  0  0  0  0  0  0  0  0  0  0  0
    4.8570   34.1436   85.7017 C   0  0  0  0  0  0  0  0  0  0  0  0
    4.2078   32.9106   85.3354 O   0  0  0  0  0  0  0  0  0  0  0  0
    4.4014   32.6112   83.9380 C   0  0  0  0  0  0  0  0  0  0  0  0
    3.8395   33.7399   83.0583 C   0  0  0  0  0  0  0  0  0  0  0  0
 24 25  2  0  0  0
 26 25  1  0  0  0
 25 23  1  0  0  0
 27 26  1  0  0  0
 26 31  1  0  0  0
 28 27  1  0  0  0
 28 29  1  0  0  0
 29 30  1  0  0  0
 30 31  1  0  0  0
 23 22  1  0  0  0
 22 18  1  0  0  0
 20 18  1  0  0  0
 18 19  2  0  0  0
 20  1  1  0  0  0
  1  7  2  0  0  0
  1  2  1  0  0  0
  2  3  2  0  0  0
  3  4  1  0  0  0
  6  4  2  0  0  0
  4  5  1  0  0  0
  7  6  1  0  0  0
  8  7  1  0  0  0
  9  8  2  0  0  0
  8 10  1  0  0  0
 11 10  1  0  0  0
 10 15  1  0  0  0
 11 12  1  0  0  0
 13 12  1  0  0  0
 12 14  1  0  0  0
 14 16  1  0  0  0
 15 16  1  0  0  0
 16 17  1  0  0  0
 20 21  1  0  0  0
M  END
> <minimizedAffinity>
-7.51955

$$$$
3CJ5_SX6_A_571


 31 33  0  0  0  0  0  0  0  0999 V2000
    5.8084   39.0432   78.3439 C   0  0  0  0  0  0  0  0  0  0  0  0
    5.0483   40.0166   77.6758 C   0  0  0  0  0  0  0  0  0  0  0  0
    3.7975   40.4025   78.1663 C   0  0  0  0  0  0  0  0  0  0  0  0
    3.3187   39.7996   79.3293 C   0  0  0  0  0  0  0  0  0  0  0  0
    1.6604   40.2910   80.0425 Br  0  0  0  0  0  0  0  0  0  0  0  0
    4.0415   38.8420   80.0157 C   0  0  0  0  0  0  0  0  0  0  0  0
    5.2902   38.4566   79.5335 C   0  0  0  0  0  0  0  0  0  0  0  0
    5.9948   37.4069   80.3176 C   0  0  0  0  0  0  0  0  0  0  0  0
    6.6504   37.7928   81.2785 O   0  0  0  0  0  0  0  0  0  0  0  0
    5.9416   36.0602   80.0064 N   0  0  0  0  0  0  0  0  0  0  0  0
    6.6204   35.0419   80.8150 C   0  0  0  0  0  0  0  0  0  0  0  0
    7.6059   34.2030   80.0068 C   0  0  0  0  0  0  0  0  0  0  0  0
    8.2374   33.1160   80.8801 C   0  0  0  0  0  0  0  0  0  0  0  0
    6.9007   33.6146   78.7849 C   0  0  0  0  0  0  0  0  0  0  0  0
    5.3647   35.6234   78.7155 C   0  0  0  0  0  0  0  0  0  0  0  0
    6.2741   34.6973   77.9001 C   0  0  0  0  0  0  0  0  0  0  0  0
    5.5365   34.0936   76.7080 C   0  0  0  0  0  0  0  0  0  0  0  0
    7.2584   38.0182   76.6409 C   0  0  0  0  0  0  0  0  0  0  0  0
    6.3607   37.6855   75.8583 O   0  0  0  0  0  0  0  0  0  0  0  0
    7.0745   38.6637   77.8447 N   0  0  0  0  0  0  0  0  0  0  0  0
    7.8695   38.8718   78.3869 H   0  0  0  0  0  0  0  0  0  0  0  0
    8.7307   37.7366   76.3996 C   0  0  0  0  0  0  0  0  0  0  0  0
    9.0031   36.2407   76.2558 C   0  0  0  0  0  0  0  0  0  0  0  0
   10.2652   36.2700   78.3387 O   0  0  0  0  0  0  0  0  0  0  0  0
    9.8641   35.6293   77.3565 C   0  0  0  0  0  0  0  0  0  0  0  0
   10.1883   34.2866   77.2110 N   0  0  0  0  0  0  0  0  0  0  0  0
   11.0044   33.4888   78.1569 C   0  0  0  0  0  0  0  0  0  0  0  0
   11.8824   32.4321   77.4615 C   0  0  0  0  0  0  0  0  0  0  0  0
   11.0910   31.5893   76.6017 O   0  0  0  0  0  0  0  0  0  0  0  0
   10.4104   32.3622   75.5921 C   0  0  0  0  0  0  0  0  0  0  0  0
    9.4857   33.4061   76.2396 C   0  0  0  0  0  0  0  0  0  0  0  0
 24 25  2  0  0  0
 26 25  1  0  0  0
 25 23  1  0  0  0
 27 26  1  0  0  0
 26 31  1  0  0  0
 28 27  1  0  0  0
 28 29  1  0  0  0
 29 30  1  0  0  0
 30 31  1  0  0  0
 23 22  1  0  0  0
 22 18  1  0  0  0
 20 18  1  0  0  0
 18 19  2  0  0  0
 20  1  1  0  0  0
  1  7  2  0  0  0
  1  2  1  0  0  0
  2  3  2  0  0  0
  3  4  1  0  0  0
  6  4  2  0  0  0
  4  5  1  0  0  0
  7  6  1  0  0  0
  8  7  1  0  0  0
  9  8  2  0  0  0
  8 10  1  0  0  0
 11 10  1  0  0  0
 10 15  1  0  0  0
 11 12  1  0  0  0
 13 12  1  0  0  0
 12 14  1  0  0  0
 14 16  1  0  0  0
 15 16  1  0  0  0
 16 17  1  0  0  0
 20 21  1  0  0  0
M  END
> <minimizedAffinity>
-7.39494

$$$$
3CJ5_SX6_A_571


 31 33  0  0  0  0  0  0  0  0999 V2000
    5.4100   38.6340   79.0121 C   0  0  0  0  0  0  0  0  0  0  0  0
    4.5901   39.7649   78.8695 C   0  0  0  0  0  0  0  0  0  0  0  0
    3.3137   39.7943   79.4386 C   0  0  0  0  0  0  0  0  0  0  0  0
    2.8702   38.6778   80.1472 C   0  0  0  0  0  0  0  0  0  0  0  0
    1.1789   38.6687   80.9470 Br  0  0  0  0  0  0  0  0  0  0  0  0
    3.6517   37.5498   80.3119 C   0  0  0  0  0  0  0  0  0  0  0  0
    4.9259   37.5167   79.7502 C   0  0  0  0  0  0  0  0  0  0  0  0
    5.6949   36.2598   79.9553 C   0  0  0  0  0  0  0  0  0  0  0  0
    5.6065   35.4167   79.0701 O   0  0  0  0  0  0  0  0  0  0  0  0
    6.4728   36.0173   81.0730 N   0  0  0  0  0  0  0  0  0  0  0  0
    7.2466   34.7818   81.2359 C   0  0  0  0  0  0  0  0  0  0  0  0
    6.8881   34.0214   82.5093 C   0  0  0  0  0  0  0  0  0  0  0  0
    7.7668   32.7776   82.6644 C   0  0  0  0  0  0  0  0  0  0  0  0
    7.0014   34.9535   83.7153 C   0  0  0  0  0  0  0  0  0  0  0  0
    6.3813   36.9164   82.2449 C   0  0  0  0  0  0  0  0  0  0  0  0
    6.1171   36.1967   83.5722 C   0  0  0  0  0  0  0  0  0  0  0  0
    6.2730   37.1392   84.7624 C   0  0  0  0  0  0  0  0  0  0  0  0
    6.9636   38.1674   77.1621 C   0  0  0  0  0  0  0  0  0  0  0  0
    6.1249   37.7253   76.3682 O   0  0  0  0  0  0  0  0  0  0  0  0
    6.7014   38.6152   78.4390 N   0  0  0  0  0  0  0  0  0  0  0  0
    7.4557   38.9400   78.9818 H   0  0  0  0  0  0  0  0  0  0  0  0
    8.4466   38.2624   76.8514 C   0  0  0  0  0  0  0  0  0  0  0  0
    9.0148   36.9202   76.3949 C   0  0  0  0  0  0  0  0  0  0  0  0
    9.3502   35.9103   78.5856 O   0  0  0  0  0  0  0  0  0  0  0  0
    8.9333   35.7974   77.4240 C   0  0  0  0  0  0  0  0  0  0  0  0
    8.3547   34.6097   76.9956 N   0  0  0  0  0  0  0  0  0  0  0  0
    8.1662   33.3942   77.8228 C   0  0  0  0  0  0  0  0  0  0  0  0
    8.3230   32.0858   77.0262 C   0  0  0  0  0  0  0  0  0  0  0  0
    7.4626   32.0798   75.8705 O   0  0  0  0  0  0  0  0  0  0  0  0
    7.7505   33.1906   74.9969 C   0  0  0  0  0  0  0  0  0  0  0  0
    7.5657   34.5253   75.7373 C   0  0  0  0  0  0  0  0  0  0  0  0
 24 25  2  0  0  0
 26 25  1  0  0  0
 25 23  1  0  0  0
 27 26  1  0  0  0
 26 31  1  0  0  0
 28 27  1  0  0  0
 28 29  1  0  0  0
 29 30  1  0  0  0
 30 31  1  0  0  0
 23 22  1  0  0  0
 22 18  1  0  0  0
 20 18  1  0  0  0
 18 19  2  0  0  0
 20  1  1  0  0  0
  1  7  2  0  0  0
  1  2  1  0  0  0
  2  3  2  0  0  0
  3  4  1  0  0  0
  6  4  2  0  0  0
  4  5  1  0  0  0
  7  6  1  0  0  0
  8  7  1  0  0  0
  9  8  2  0  0  0
  8 10  1  0  0  0
 11 10  1  0  0  0
 10 15  1  0  0  0
 11 12  1  0  0  0
 13 12  1  0  0  0
 12 14  1  0  0  0
 14 16  1  0  0  0
 15 16  1  0  0  0
 16 17  1  0  0  0
 20 21  1  0  0  0
M  END
> <minimizedAffinity>
-7.20240

$$$$
3CJ5_SX6_A_571


 31 33  0  0  0  0  0  0  0  0999 V2000
    6.7850   37.3409   77.7254 C   0  0  0  0  0  0  0  0  0  0  0  0
    6.1996   38.4786   77.1468 C   0  0  0  0  0  0  0  0  0  0  0  0
    6.8401   39.1562   76.1053 C   0  0  0  0  0  0  0  0  0  0  0  0
    8.0722   38.6823   75.6553 C   0  0  0  0  0  0  0  0  0  0  0  0
    8.9653   39.5374   74.2512 Br  0  0  0  0  0  0  0  0  0  0  0  0
    8.6754   37.5632   76.1976 C   0  0  0  0  0  0  0  0  0  0  0  0
    8.0398   36.8818   77.2330 C   0  0  0  0  0  0  0  0  0  0  0  0
    8.7635   35.7006   77.7752 C   0  0  0  0  0  0  0  0  0  0  0  0
    9.6074   35.9263   78.6349 O   0  0  0  0  0  0  0  0  0  0  0  0
    8.5287   34.4045   77.3530 N   0  0  0  0  0  0  0  0  0  0  0  0
    9.2343   33.2537   77.9270 C   0  0  0  0  0  0  0  0  0  0  0  0
    9.9822   32.4341   76.8795 C   0  0  0  0  0  0  0  0  0  0  0  0
   10.6459   31.2119   77.5188 C   0  0  0  0  0  0  0  0  0  0  0  0
    9.0258   32.0403   75.7542 C   0  0  0  0  0  0  0  0  0  0  0  0
    7.7008   34.1583   76.1514 C   0  0  0  0  0  0  0  0  0  0  0  0
    8.3645   33.2592   75.1023 C   0  0  0  0  0  0  0  0  0  0  0  0
    7.3798   32.8495   74.0106 C   0  0  0  0  0  0  0  0  0  0  0  0
    5.9972   37.1626   80.0494 C   0  0  0  0  0  0  0  0  0  0  0  0
    6.4340   38.2511   80.4411 O   0  0  0  0  0  0  0  0  0  0  0  0
    6.1278   36.6582   78.7734 N   0  0  0  0  0  0  0  0  0  0  0  0
    5.7418   35.7731   78.5815 H   0  0  0  0  0  0  0  0  0  0  0  0
    5.2558   36.1841   80.9426 C   0  0  0  0  0  0  0  0  0  0  0  0
    3.7502   36.2161   80.6875 C   0  0  0  0  0  0  0  0  0  0  0  0
    3.7407   33.9048   79.9197 O   0  0  0  0  0  0  0  0  0  0  0  0
    3.1128   34.8616   80.3952 C   0  0  0  0  0  0  0  0  0  0  0  0
    1.7619   34.7390   80.6937 N   0  0  0  0  0  0  0  0  0  0  0  0
    0.9425   33.5192   80.4990 C   0  0  0  0  0  0  0  0  0  0  0  0
   -0.5111   33.8215   80.0906 C   0  0  0  0  0  0  0  0  0  0  0  0
   -1.1287   34.7329   81.0200 O   0  0  0  0  0  0  0  0  0  0  0  0
   -0.4016   35.9761   81.0967 C   0  0  0  0  0  0  0  0  0  0  0  0
    1.0486   35.7298   81.5437 C   0  0  0  0  0  0  0  0  0  0  0  0
 24 25  2  0  0  0
 26 25  1  0  0  0
 25 23  1  0  0  0
 27 26  1  0  0  0
 26 31  1  0  0  0
 28 27  1  0  0  0
 28 29  1  0  0  0
 29 30  1  0  0  0
 30 31  1  0  0  0
 23 22  1  0  0  0
 22 18  1  0  0  0
 20 18  1  0  0  0
 18 19  2  0  0  0
 20  1  1  0  0  0
  1  7  2  0  0  0
  1  2  1  0  0  0
  2  3  2  0  0  0
  3  4  1  0  0  0
  6  4  2  0  0  0
  4  5  1  0  0  0
  7  6  1  0  0  0
  8  7  1  0  0  0
  9  8  2  0  0  0
  8 10  1  0  0  0
 11 10  1  0  0  0
 10 15  1  0  0  0
 11 12  1  0  0  0
 13 12  1  0  0  0
 12 14  1  0  0  0
 14 16  1  0  0  0
 15 16  1  0  0  0
 16 17  1  0  0  0
 20 21  1  0  0  0
M  END
> <minimizedAffinity>
-6.98481

$$$$
