1E3G_R18_A_1000


 22 25  0  0  0  0  0  0  0  0999 V2000
    0.2506   28.1389    3.8615 C   0  0  0  0  0  0  0  0  0  0  0  0
    0.7978   26.9240    4.5777 C   0  0  0  0  0  0  0  0  0  0  0  0
    2.2907   26.8624    4.4150 C   0  0  0  0  0  0  0  0  0  0  0  0
    2.9593   28.0714    4.8119 C   0  0  0  0  0  0  0  0  0  0  0  0
    2.3221   29.2742    4.8059 C   0  0  0  0  0  0  0  0  0  0  0  0
    3.0805   30.5007    5.2868 C   0  0  0  0  0  0  0  0  0  0  0  0
    2.5490   31.7618    4.6452 C   0  0  0  0  0  0  0  0  0  0  0  0
    1.0452   31.8886    4.9524 C   0  0  0  0  0  0  0  0  0  0  0  0
    0.2868   30.6534    4.4227 C   0  0  0  0  0  0  0  0  0  0  0  0
    0.9072   29.4357    4.3740 C   0  0  0  0  0  0  0  0  0  0  0  0
   -1.1089   30.8686    4.0370 C   0  0  0  0  0  0  0  0  0  0  0  0
   -1.7329   32.0601    4.1051 C   0  0  0  0  0  0  0  0  0  0  0  0
   -1.0131   33.3023    4.6013 C   0  0  0  0  0  0  0  0  0  0  0  0
    0.4861   33.1321    4.3294 C   0  0  0  0  0  0  0  0  0  0  0  0
    1.0991   34.4731    4.7778 C   0  0  0  0  0  0  0  0  0  0  0  0
   -0.0302   35.4591    4.4637 C   0  0  0  0  0  0  0  0  0  0  0  0
   -1.2221   34.6422    3.8894 C   0  0  0  0  0  0  0  0  0  0  0  0
   -1.3182   33.4302    6.1139 C   0  0  0  0  0  0  0  0  0  0  0  0
   -1.1463   34.5029    2.3915 C   0  0  0  0  0  0  0  0  0  0  0  0
    2.8967   25.8612    4.0432 O   0  0  0  0  0  0  0  0  0  0  0  0
   -2.4282   35.3120    4.2603 O   0  0  0  0  0  0  0  0  0  0  0  0
   -2.4672   35.3966    5.2258 H   0  0  0  0  0  0  0  0  0  0  0  0
  1  2  1  0  0  0
  1 10  1  0  0  0
  2  3  1  0  0  0
  3  4  1  0  0  0
  3 20  2  0  0  0
  4  5  2  0  0  0
  5  6  1  0  0  0
  5 10  1  0  0  0
  6  7  1  0  0  0
  7  8  1  0  0  0
  8  9  1  0  0  0
  8 14  1  0  0  0
  9 10  2  0  0  0
  9 11  1  0  0  0
 11 12  2  0  0  0
 12 13  1  0  0  0
 13 14  1  0  0  0
 13 17  1  0  0  0
 13 18  1  0  0  0
 14 15  1  0  0  0
 15 16  1  0  0  0
 16 17  1  0  0  0
 17 19  1  0  0  0
 17 21  1  0  0  0
 21 22  1  0  0  0
M  END
> <minimizedAffinity>
-12.09357

$$$$
