4EI4_0Q2_A_1201


 21 24  0  0  0  0  0  0  0  0999 V2000
   10.5256   56.2868   -0.3923 C   0  0  0  0  0  0  0  0  0  0  0  0
    9.3906   57.2803   -0.2356 C   0  0  0  0  0  0  0  0  0  0  0  0
    9.4518   58.5299   -0.6278 N   0  0  0  0  0  0  0  0  0  0  0  0
    8.2935   59.1728   -0.3359 C   0  0  0  0  0  0  0  0  0  0  0  0
    7.8419   60.4935   -0.5144 C   0  0  0  0  0  0  0  0  0  0  0  0
    6.6327   60.8639   -0.1338 N   0  0  0  0  0  0  0  0  0  0  0  0
    5.7953   59.9951    0.4382 C   0  0  0  0  0  0  0  0  0  0  0  0
    6.1673   58.6494    0.6651 C   0  0  0  0  0  0  0  0  0  0  0  0
    7.4475   58.2171    0.2817 C   0  0  0  0  0  0  0  0  0  0  0  0
    8.1658   57.0215    0.3210 N   0  0  0  0  0  0  0  0  0  0  0  0
    5.0167   57.9981    1.3058 C   0  0  0  0  0  0  0  0  0  0  0  0
    4.0725   58.9245    1.4251 C   0  0  0  0  0  0  0  0  0  0  0  0
    4.5240   60.1226    0.9133 N   0  0  0  0  0  0  0  0  0  0  0  0
    7.7321   55.7241    0.8610 C   0  0  0  0  0  0  0  0  0  0  0  0
    6.6042   55.1365   -0.0094 C   0  0  0  0  0  0  0  0  0  0  0  0
    6.2704   53.7112    0.4570 C   0  0  0  0  0  0  0  0  0  0  0  0
    5.9233   53.6955    1.9602 C   0  0  0  0  0  0  0  0  0  0  0  0
    6.9363   54.4356    2.8761 C   0  0  0  0  0  0  0  0  0  0  0  0
    7.3051   55.8309    2.3453 C   0  0  0  0  0  0  0  0  0  0  0  0
    8.1287   53.6586    3.0360 O   0  0  0  0  0  0  0  0  0  0  0  0
    8.5600   53.5471    2.1744 H   0  0  0  0  0  0  0  0  0  0  0  0
  3  2  2  0  0  0
  3  4  1  0  0  0
  1  2  1  0  0  0
  5  4  1  0  0  0
  5  6  2  0  0  0
  2 10  1  0  0  0
  4  9  2  0  0  0
  6  7  1  0  0  0
 15 16  1  0  0  0
 15 14  1  0  0  0
 10  9  1  0  0  0
 10 14  1  0  0  0
  9  8  1  0  0  0
 16 17  1  0  0  0
  7  8  2  0  0  0
  7 13  1  0  0  0
  8 11  1  0  0  0
 14 19  1  0  0  0
 13 12  2  0  0  0
 11 12  1  0  0  0
 17 18  1  0  0  0
 19 18  1  0  0  0
 18 20  1  0  0  0
 20 21  1  0  0  0
M  END
> <minimizedAffinity>
-9.10517

$$$$
4EI4_0Q2_A_1201


 21 24  0  0  0  0  0  0  0  0999 V2000
    3.9923   58.7686    1.5278 C   0  0  0  0  0  0  0  0  0  0  0  0
    5.3865   58.7303    0.9321 C   0  0  0  0  0  0  0  0  0  0  0  0
    5.9033   59.6989    0.2153 N   0  0  0  0  0  0  0  0  0  0  0  0
    7.1536   59.3674   -0.1934 C   0  0  0  0  0  0  0  0  0  0  0  0
    8.1233   60.0141   -0.9818 C   0  0  0  0  0  0  0  0  0  0  0  0
    9.2940   59.4547   -1.2278 N   0  0  0  0  0  0  0  0  0  0  0  0
    9.5975   58.2503   -0.7372 C   0  0  0  0  0  0  0  0  0  0  0  0
    8.6810   57.5233    0.0579 C   0  0  0  0  0  0  0  0  0  0  0  0
    7.4220   58.0799    0.3366 C   0  0  0  0  0  0  0  0  0  0  0  0
    6.2871   57.7055    1.0570 N   0  0  0  0  0  0  0  0  0  0  0  0
    9.3421   56.2597    0.4112 C   0  0  0  0  0  0  0  0  0  0  0  0
   10.5440   56.2879   -0.1530 C   0  0  0  0  0  0  0  0  0  0  0  0
   10.7098   57.4696   -0.8440 N   0  0  0  0  0  0  0  0  0  0  0  0
    6.0602   56.4577    1.8016 C   0  0  0  0  0  0  0  0  0  0  0  0
    7.1170   56.3024    2.9126 C   0  0  0  0  0  0  0  0  0  0  0  0
    6.7788   55.0888    3.7919 C   0  0  0  0  0  0  0  0  0  0  0  0
    6.6351   53.8150    2.9334 C   0  0  0  0  0  0  0  0  0  0  0  0
    5.7201   53.9627    1.6869 C   0  0  0  0  0  0  0  0  0  0  0  0
    6.0359   55.2242    0.8663 C   0  0  0  0  0  0  0  0  0  0  0  0
    4.3419   53.9825    2.0758 O   0  0  0  0  0  0  0  0  0  0  0  0
    4.1757   54.7552    2.6381 H   0  0  0  0  0  0  0  0  0  0  0  0
  3  2  2  0  0  0
  3  4  1  0  0  0
  1  2  1  0  0  0
  5  4  1  0  0  0
  5  6  2  0  0  0
  2 10  1  0  0  0
  4  9  2  0  0  0
  6  7  1  0  0  0
 15 16  1  0  0  0
 15 14  1  0  0  0
 10  9  1  0  0  0
 10 14  1  0  0  0
  9  8  1  0  0  0
 16 17  1  0  0  0
  7  8  2  0  0  0
  7 13  1  0  0  0
  8 11  1  0  0  0
 14 19  1  0  0  0
 13 12  2  0  0  0
 11 12  1  0  0  0
 17 18  1  0  0  0
 19 18  1  0  0  0
 18 20  1  0  0  0
 20 21  1  0  0  0
M  END
> <minimizedAffinity>
-8.37795

$$$$
4EI4_0Q2_A_1201


 21 24  0  0  0  0  0  0  0  0999 V2000
    3.3098   56.5204    2.0769 C   0  0  0  0  0  0  0  0  0  0  0  0
    4.4044   57.3479    1.4311 C   0  0  0  0  0  0  0  0  0  0  0  0
    4.2767   58.6148    1.1183 N   0  0  0  0  0  0  0  0  0  0  0  0
    5.4139   59.0741    0.5389 C   0  0  0  0  0  0  0  0  0  0  0  0
    5.8017   60.3183    0.0080 C   0  0  0  0  0  0  0  0  0  0  0  0
    7.0043   60.5018   -0.5059 N   0  0  0  0  0  0  0  0  0  0  0  0
    7.8958   59.5081   -0.5420 C   0  0  0  0  0  0  0  0  0  0  0  0
    7.5901   58.2218   -0.0394 C   0  0  0  0  0  0  0  0  0  0  0  0
    6.3192   57.9832    0.5088 C   0  0  0  0  0  0  0  0  0  0  0  0
    5.6556   56.9037    1.0930 N   0  0  0  0  0  0  0  0  0  0  0  0
    8.7870   57.3951   -0.2460 C   0  0  0  0  0  0  0  0  0  0  0  0
    9.6928   58.1745   -0.8256 C   0  0  0  0  0  0  0  0  0  0  0  0
    9.1740   59.4386   -1.0106 N   0  0  0  0  0  0  0  0  0  0  0  0
    6.1617   55.5393    1.3053 C   0  0  0  0  0  0  0  0  0  0  0  0
    7.3555   55.5611    2.2798 C   0  0  0  0  0  0  0  0  0  0  0  0
    7.7734   54.1245    2.6290 C   0  0  0  0  0  0  0  0  0  0  0  0
    8.0723   53.3160    1.3493 C   0  0  0  0  0  0  0  0  0  0  0  0
    6.9809   53.4030    0.2475 C   0  0  0  0  0  0  0  0  0  0  0  0
    6.5322   54.8475   -0.0292 C   0  0  0  0  0  0  0  0  0  0  0  0
    5.8416   52.6130    0.6065 O   0  0  0  0  0  0  0  0  0  0  0  0
    5.4471   52.9653    1.4196 H   0  0  0  0  0  0  0  0  0  0  0  0
  3  2  2  0  0  0
  3  4  1  0  0  0
  1  2  1  0  0  0
  5  4  1  0  0  0
  5  6  2  0  0  0
  2 10  1  0  0  0
  4  9  2  0  0  0
  6  7  1  0  0  0
 15 16  1  0  0  0
 15 14  1  0  0  0
 10  9  1  0  0  0
 10 14  1  0  0  0
  9  8  1  0  0  0
 16 17  1  0  0  0
  7  8  2  0  0  0
  7 13  1  0  0  0
  8 11  1  0  0  0
 14 19  1  0  0  0
 13 12  2  0  0  0
 11 12  1  0  0  0
 17 18  1  0  0  0
 19 18  1  0  0  0
 18 20  1  0  0  0
 20 21  1  0  0  0
M  END
> <minimizedAffinity>
-7.95509

$$$$
4EI4_0Q2_A_1201


 21 24  0  0  0  0  0  0  0  0999 V2000
    4.2534   57.7865    1.7119 C   0  0  0  0  0  0  0  0  0  0  0  0
    5.5219   58.1922    0.9866 C   0  0  0  0  0  0  0  0  0  0  0  0
    5.7363   59.3911    0.5010 N   0  0  0  0  0  0  0  0  0  0  0  0
    6.9476   59.4436   -0.1073 C   0  0  0  0  0  0  0  0  0  0  0  0
    7.6493   60.4522   -0.7931 C   0  0  0  0  0  0  0  0  0  0  0  0
    8.8501   60.2332   -1.2973 N   0  0  0  0  0  0  0  0  0  0  0  0
    9.4403   59.0415   -1.1756 C   0  0  0  0  0  0  0  0  0  0  0  0
    8.8059   57.9666   -0.5100 C   0  0  0  0  0  0  0  0  0  0  0  0
    7.5249   58.1563    0.0340 C   0  0  0  0  0  0  0  0  0  0  0  0
    6.6026   57.3860    0.7433 N   0  0  0  0  0  0  0  0  0  0  0  0
    9.7329   56.8285   -0.5723 C   0  0  0  0  0  0  0  0  0  0  0  0
   10.8075   57.2483   -1.2301 C   0  0  0  0  0  0  0  0  0  0  0  0
   10.6462   58.5672   -1.5985 N   0  0  0  0  0  0  0  0  0  0  0  0
    6.7251   55.9787    1.1520 C   0  0  0  0  0  0  0  0  0  0  0  0
    6.1700   55.0551    0.0502 C   0  0  0  0  0  0  0  0  0  0  0  0
    6.4513   53.5871    0.4055 C   0  0  0  0  0  0  0  0  0  0  0  0
    5.8874   53.2448    1.8002 C   0  0  0  0  0  0  0  0  0  0  0  0
    6.2644   54.2473    2.9253 C   0  0  0  0  0  0  0  0  0  0  0  0
    6.0388   55.7118    2.5139 C   0  0  0  0  0  0  0  0  0  0  0  0
    7.6301   54.0700    3.3183 O   0  0  0  0  0  0  0  0  0  0  0  0
    8.2108   54.2627    2.5656 H   0  0  0  0  0  0  0  0  0  0  0  0
  3  2  2  0  0  0
  3  4  1  0  0  0
  1  2  1  0  0  0
  5  4  1  0  0  0
  5  6  2  0  0  0
  2 10  1  0  0  0
  4  9  2  0  0  0
  6  7  1  0  0  0
 15 16  1  0  0  0
 15 14  1  0  0  0
 10  9  1  0  0  0
 10 14  1  0  0  0
  9  8  1  0  0  0
 16 17  1  0  0  0
  7  8  2  0  0  0
  7 13  1  0  0  0
  8 11  1  0  0  0
 14 19  1  0  0  0
 13 12  2  0  0  0
 11 12  1  0  0  0
 17 18  1  0  0  0
 19 18  1  0  0  0
 18 20  1  0  0  0
 20 21  1  0  0  0
M  END
> <minimizedAffinity>
-7.91157

$$$$
4EI4_0Q2_A_1201


 21 24  0  0  0  0  0  0  0  0999 V2000
    5.7160   53.8985    2.0607 C   0  0  0  0  0  0  0  0  0  0  0  0
    5.8133   55.3434    1.6104 C   0  0  0  0  0  0  0  0  0  0  0  0
    4.8627   56.2298    1.7830 N   0  0  0  0  0  0  0  0  0  0  0  0
    5.2322   57.4253    1.2592 C   0  0  0  0  0  0  0  0  0  0  0  0
    4.6012   58.6786    1.1543 C   0  0  0  0  0  0  0  0  0  0  0  0
    5.2044   59.7066    0.5856 N   0  0  0  0  0  0  0  0  0  0  0  0
    6.4374   59.5904    0.0862 C   0  0  0  0  0  0  0  0  0  0  0  0
    7.1445   58.3664    0.1392 C   0  0  0  0  0  0  0  0  0  0  0  0
    6.5352   57.2469    0.7293 C   0  0  0  0  0  0  0  0  0  0  0  0
    6.8836   55.9187    0.9775 N   0  0  0  0  0  0  0  0  0  0  0  0
    8.4458   58.6054   -0.4994 C   0  0  0  0  0  0  0  0  0  0  0  0
    8.4551   59.8775   -0.8805 C   0  0  0  0  0  0  0  0  0  0  0  0
    7.2616   60.4779   -0.5395 N   0  0  0  0  0  0  0  0  0  0  0  0
    8.1365   55.2326    0.6280 C   0  0  0  0  0  0  0  0  0  0  0  0
    7.9981   53.7170    0.8712 C   0  0  0  0  0  0  0  0  0  0  0  0
    9.2447   52.9863    0.3494 C   0  0  0  0  0  0  0  0  0  0  0  0
   10.5251   53.5698    0.9822 C   0  0  0  0  0  0  0  0  0  0  0  0
   10.6364   55.1183    0.9305 C   0  0  0  0  0  0  0  0  0  0  0  0
    9.3483   55.8205    1.3914 C   0  0  0  0  0  0  0  0  0  0  0  0
   10.9664   55.5537   -0.3933 O   0  0  0  0  0  0  0  0  0  0  0  0
   10.2543   55.3038   -1.0028 H   0  0  0  0  0  0  0  0  0  0  0  0
  3  2  2  0  0  0
  3  4  1  0  0  0
  1  2  1  0  0  0
  5  4  1  0  0  0
  5  6  2  0  0  0
  2 10  1  0  0  0
  4  9  2  0  0  0
  6  7  1  0  0  0
 15 16  1  0  0  0
 15 14  1  0  0  0
 10  9  1  0  0  0
 10 14  1  0  0  0
  9  8  1  0  0  0
 16 17  1  0  0  0
  7  8  2  0  0  0
  7 13  1  0  0  0
  8 11  1  0  0  0
 14 19  1  0  0  0
 13 12  2  0  0  0
 11 12  1  0  0  0
 17 18  1  0  0  0
 19 18  1  0  0  0
 18 20  1  0  0  0
 20 21  1  0  0  0
M  END
> <minimizedAffinity>
-7.63179

$$$$
4EI4_0Q2_A_1201


 21 24  0  0  0  0  0  0  0  0999 V2000
    9.8881   57.3653    0.6037 C   0  0  0  0  0  0  0  0  0  0  0  0
    9.4538   55.9160    0.7075 C   0  0  0  0  0  0  0  0  0  0  0  0
   10.2858   54.9038    0.7545 N   0  0  0  0  0  0  0  0  0  0  0  0
    9.6020   53.7344    0.8254 C   0  0  0  0  0  0  0  0  0  0  0  0
    9.9888   52.3824    0.8760 C   0  0  0  0  0  0  0  0  0  0  0  0
    9.0942   51.4137    0.9490 N   0  0  0  0  0  0  0  0  0  0  0  0
    7.7869   51.6852    0.9745 C   0  0  0  0  0  0  0  0  0  0  0  0
    7.3065   53.0144    0.9189 C   0  0  0  0  0  0  0  0  0  0  0  0
    8.2252   54.0733    0.8332 C   0  0  0  0  0  0  0  0  0  0  0  0
    8.1613   55.4657    0.7698 N   0  0  0  0  0  0  0  0  0  0  0  0
    5.8402   52.9329    0.9631 C   0  0  0  0  0  0  0  0  0  0  0  0
    5.5325   51.6431    1.0372 C   0  0  0  0  0  0  0  0  0  0  0  0
    6.6848   50.8858    1.0427 N   0  0  0  0  0  0  0  0  0  0  0  0
    6.9612   56.3155    0.7539 C   0  0  0  0  0  0  0  0  0  0  0  0
    7.1896   57.5407   -0.1527 C   0  0  0  0  0  0  0  0  0  0  0  0
    5.8828   58.3349   -0.3000 C   0  0  0  0  0  0  0  0  0  0  0  0
    5.3200   58.7225    1.0833 C   0  0  0  0  0  0  0  0  0  0  0  0
    5.2360   57.5582    2.1079 C   0  0  0  0  0  0  0  0  0  0  0  0
    6.5349   56.7383    2.1809 C   0  0  0  0  0  0  0  0  0  0  0  0
    4.1433   56.6885    1.7906 O   0  0  0  0  0  0  0  0  0  0  0  0
    4.2927   56.2857    0.9209 H   0  0  0  0  0  0  0  0  0  0  0  0
  3  2  2  0  0  0
  3  4  1  0  0  0
  1  2  1  0  0  0
  5  4  1  0  0  0
  5  6  2  0  0  0
  2 10  1  0  0  0
  4  9  2  0  0  0
  6  7  1  0  0  0
 15 16  1  0  0  0
 15 14  1  0  0  0
 10  9  1  0  0  0
 10 14  1  0  0  0
  9  8  1  0  0  0
 16 17  1  0  0  0
  7  8  2  0  0  0
  7 13  1  0  0  0
  8 11  1  0  0  0
 14 19  1  0  0  0
 13 12  2  0  0  0
 11 12  1  0  0  0
 17 18  1  0  0  0
 19 18  1  0  0  0
 18 20  1  0  0  0
 20 21  1  0  0  0
M  END
> <minimizedAffinity>
-7.47257

$$$$
4EI4_0Q2_A_1201


 21 24  0  0  0  0  0  0  0  0999 V2000
    4.4096   51.3741    1.2839 C   0  0  0  0  0  0  0  0  0  0  0  0
    5.9259   51.3821    1.2575 C   0  0  0  0  0  0  0  0  0  0  0  0
    6.6642   50.2986    1.2699 N   0  0  0  0  0  0  0  0  0  0  0  0
    7.9807   50.6252    1.2599 C   0  0  0  0  0  0  0  0  0  0  0  0
    9.1701   49.8737    1.2852 C   0  0  0  0  0  0  0  0  0  0  0  0
   10.3538   50.4588    1.2610 N   0  0  0  0  0  0  0  0  0  0  0  0
   10.4627   51.7890    1.2144 C   0  0  0  0  0  0  0  0  0  0  0  0
    9.3213   52.6241    1.1949 C   0  0  0  0  0  0  0  0  0  0  0  0
    8.0437   52.0414    1.2270 C   0  0  0  0  0  0  0  0  0  0  0  0
    6.7241   52.4947    1.2137 N   0  0  0  0  0  0  0  0  0  0  0  0
    9.8140   54.0075    1.1482 C   0  0  0  0  0  0  0  0  0  0  0  0
   11.1403   53.9393    1.1433 C   0  0  0  0  0  0  0  0  0  0  0  0
   11.5421   52.6209    1.1848 N   0  0  0  0  0  0  0  0  0  0  0  0
    6.2466   53.8851    1.1773 C   0  0  0  0  0  0  0  0  0  0  0  0
    6.8762   54.6322   -0.0146 C   0  0  0  0  0  0  0  0  0  0  0  0
    6.2496   56.0285   -0.1484 C   0  0  0  0  0  0  0  0  0  0  0  0
    6.3781   56.8140    1.1733 C   0  0  0  0  0  0  0  0  0  0  0  0
    5.9268   56.0415    2.4430 C   0  0  0  0  0  0  0  0  0  0  0  0
    6.5136   54.6218    2.5126 C   0  0  0  0  0  0  0  0  0  0  0  0
    4.4979   55.9676    2.5039 O   0  0  0  0  0  0  0  0  0  0  0  0
    4.1671   55.4688    1.7406 H   0  0  0  0  0  0  0  0  0  0  0  0
  3  2  2  0  0  0
  3  4  1  0  0  0
  1  2  1  0  0  0
  5  4  1  0  0  0
  5  6  2  0  0  0
  2 10  1  0  0  0
  4  9  2  0  0  0
  6  7  1  0  0  0
 15 16  1  0  0  0
 15 14  1  0  0  0
 10  9  1  0  0  0
 10 14  1  0  0  0
  9  8  1  0  0  0
 16 17  1  0  0  0
  7  8  2  0  0  0
  7 13  1  0  0  0
  8 11  1  0  0  0
 14 19  1  0  0  0
 13 12  2  0  0  0
 11 12  1  0  0  0
 17 18  1  0  0  0
 19 18  1  0  0  0
 18 20  1  0  0  0
 20 21  1  0  0  0
M  END
> <minimizedAffinity>
-7.27289

$$$$
4EI4_0Q2_A_1201


 21 24  0  0  0  0  0  0  0  0999 V2000
    7.0829   59.4651    0.2545 C   0  0  0  0  0  0  0  0  0  0  0  0
    8.2770   59.4352   -0.6799 C   0  0  0  0  0  0  0  0  0  0  0  0
    8.7663   60.4950   -1.2770 N   0  0  0  0  0  0  0  0  0  0  0  0
    9.8174   60.1505   -2.0621 C   0  0  0  0  0  0  0  0  0  0  0  0
   10.6720   60.8721   -2.9160 C   0  0  0  0  0  0  0  0  0  0  0  0
   11.6471   60.2754   -3.5773 N   0  0  0  0  0  0  0  0  0  0  0  0
   11.8542   58.9614   -3.4600 C   0  0  0  0  0  0  0  0  0  0  0  0
   11.0391   58.1554   -2.6313 C   0  0  0  0  0  0  0  0  0  0  0  0
    9.9864   58.7502   -1.9167 C   0  0  0  0  0  0  0  0  0  0  0  0
    9.0022   58.3248   -1.0237 N   0  0  0  0  0  0  0  0  0  0  0  0
   11.5480   56.7822   -2.7498 C   0  0  0  0  0  0  0  0  0  0  0  0
   12.5758   56.8282   -3.5896 C   0  0  0  0  0  0  0  0  0  0  0  0
   12.7691   58.1227   -4.0236 N   0  0  0  0  0  0  0  0  0  0  0  0
    8.7519   56.9595   -0.5378 C   0  0  0  0  0  0  0  0  0  0  0  0
    7.2432   56.7459   -0.3067 C   0  0  0  0  0  0  0  0  0  0  0  0
    6.9688   55.2742    0.0383 C   0  0  0  0  0  0  0  0  0  0  0  0
    7.8186   54.8286    1.2465 C   0  0  0  0  0  0  0  0  0  0  0  0
    9.3284   55.1816    1.1535 C   0  0  0  0  0  0  0  0  0  0  0  0
    9.5709   56.6418    0.7370 C   0  0  0  0  0  0  0  0  0  0  0  0
    9.9918   54.3090    0.2318 O   0  0  0  0  0  0  0  0  0  0  0  0
    9.6202   54.4332   -0.6556 H   0  0  0  0  0  0  0  0  0  0  0  0
  3  2  2  0  0  0
  3  4  1  0  0  0
  1  2  1  0  0  0
  5  4  1  0  0  0
  5  6  2  0  0  0
  2 10  1  0  0  0
  4  9  2  0  0  0
  6  7  1  0  0  0
 15 16  1  0  0  0
 15 14  1  0  0  0
 10  9  1  0  0  0
 10 14  1  0  0  0
  9  8  1  0  0  0
 16 17  1  0  0  0
  7  8  2  0  0  0
  7 13  1  0  0  0
  8 11  1  0  0  0
 14 19  1  0  0  0
 13 12  2  0  0  0
 11 12  1  0  0  0
 17 18  1  0  0  0
 19 18  1  0  0  0
 18 20  1  0  0  0
 20 21  1  0  0  0
M  END
> <minimizedAffinity>
-7.09064

$$$$
4EI4_0Q2_A_1201


 21 24  0  0  0  0  0  0  0  0999 V2000
   10.9025   53.5372    1.3355 C   0  0  0  0  0  0  0  0  0  0  0  0
   10.1387   54.7954    0.9703 C   0  0  0  0  0  0  0  0  0  0  0  0
   10.6975   55.8742    0.4774 N   0  0  0  0  0  0  0  0  0  0  0  0
    9.7640   56.8367    0.2718 C   0  0  0  0  0  0  0  0  0  0  0  0
    9.8183   58.1584   -0.2080 C   0  0  0  0  0  0  0  0  0  0  0  0
    8.7281   58.8959   -0.3162 N   0  0  0  0  0  0  0  0  0  0  0  0
    7.5329   58.4114    0.0302 C   0  0  0  0  0  0  0  0  0  0  0  0
    7.3845   57.0968    0.5306 C   0  0  0  0  0  0  0  0  0  0  0  0
    8.5205   56.2824    0.6680 C   0  0  0  0  0  0  0  0  0  0  0  0
    8.7871   54.9812    1.0956 N   0  0  0  0  0  0  0  0  0  0  0  0
    5.9534   56.9117    0.8065 C   0  0  0  0  0  0  0  0  0  0  0  0
    5.3523   58.0502    0.4805 C   0  0  0  0  0  0  0  0  0  0  0  0
    6.2832   58.9559    0.0175 N   0  0  0  0  0  0  0  0  0  0  0  0
    7.8332   53.9834    1.6030 C   0  0  0  0  0  0  0  0  0  0  0  0
    8.5870   52.7437    2.1226 C   0  0  0  0  0  0  0  0  0  0  0  0
    7.6036   51.7789    2.8026 C   0  0  0  0  0  0  0  0  0  0  0  0
    6.4511   51.4093    1.8458 C   0  0  0  0  0  0  0  0  0  0  0  0
    5.7663   52.6149    1.1457 C   0  0  0  0  0  0  0  0  0  0  0  0
    6.7785   53.5995    0.5367 C   0  0  0  0  0  0  0  0  0  0  0  0
    4.9190   53.3137    2.0648 O   0  0  0  0  0  0  0  0  0  0  0  0
    5.4553   53.6770    2.7868 H   0  0  0  0  0  0  0  0  0  0  0  0
  3  2  2  0  0  0
  3  4  1  0  0  0
  1  2  1  0  0  0
  5  4  1  0  0  0
  5  6  2  0  0  0
  2 10  1  0  0  0
  4  9  2  0  0  0
  6  7  1  0  0  0
 15 16  1  0  0  0
 15 14  1  0  0  0
 10  9  1  0  0  0
 10 14  1  0  0  0
  9  8  1  0  0  0
 16 17  1  0  0  0
  7  8  2  0  0  0
  7 13  1  0  0  0
  8 11  1  0  0  0
 14 19  1  0  0  0
 13 12  2  0  0  0
 11 12  1  0  0  0
 17 18  1  0  0  0
 19 18  1  0  0  0
 18 20  1  0  0  0
 20 21  1  0  0  0
M  END
> <minimizedAffinity>
-7.06493

$$$$
4EI4_0Q2_A_1201


 21 24  0  0  0  0  0  0  0  0999 V2000
    5.7361   60.6951   -0.1628 C   0  0  0  0  0  0  0  0  0  0  0  0
    5.6073   59.2825    0.3739 C   0  0  0  0  0  0  0  0  0  0  0  0
    4.4972   58.7824    0.8605 N   0  0  0  0  0  0  0  0  0  0  0  0
    4.6981   57.5078    1.2787 C   0  0  0  0  0  0  0  0  0  0  0  0
    3.8737   56.5403    1.8825 C   0  0  0  0  0  0  0  0  0  0  0  0
    4.3332   55.3411    2.1905 N   0  0  0  0  0  0  0  0  0  0  0  0
    5.6014   55.0054    1.9410 C   0  0  0  0  0  0  0  0  0  0  0  0
    6.5039   55.9167    1.3447 C   0  0  0  0  0  0  0  0  0  0  0  0
    6.0567   57.2051    1.0087 C   0  0  0  0  0  0  0  0  0  0  0  0
    6.6062   58.3462    0.4230 N   0  0  0  0  0  0  0  0  0  0  0  0
    7.7906   55.2173    1.2276 C   0  0  0  0  0  0  0  0  0  0  0  0
    7.6094   54.0003    1.7275 C   0  0  0  0  0  0  0  0  0  0  0  0
    6.3075   53.8601    2.1595 N   0  0  0  0  0  0  0  0  0  0  0  0
    7.9857   58.5464   -0.0458 C   0  0  0  0  0  0  0  0  0  0  0  0
    8.0460   59.7318   -1.0288 C   0  0  0  0  0  0  0  0  0  0  0  0
    9.5076   60.0434   -1.3854 C   0  0  0  0  0  0  0  0  0  0  0  0
   10.2160   58.7871   -1.9334 C   0  0  0  0  0  0  0  0  0  0  0  0
   10.0381   57.5053   -1.0743 C   0  0  0  0  0  0  0  0  0  0  0  0
    8.5740   57.2593   -0.6735 C   0  0  0  0  0  0  0  0  0  0  0  0
   10.8473   57.5755    0.1052 O   0  0  0  0  0  0  0  0  0  0  0  0
   10.5570   58.3218    0.6526 H   0  0  0  0  0  0  0  0  0  0  0  0
  3  2  2  0  0  0
  3  4  1  0  0  0
  1  2  1  0  0  0
  5  4  1  0  0  0
  5  6  2  0  0  0
  2 10  1  0  0  0
  4  9  2  0  0  0
  6  7  1  0  0  0
 15 16  1  0  0  0
 15 14  1  0  0  0
 10  9  1  0  0  0
 10 14  1  0  0  0
  9  8  1  0  0  0
 16 17  1  0  0  0
  7  8  2  0  0  0
  7 13  1  0  0  0
  8 11  1  0  0  0
 14 19  1  0  0  0
 13 12  2  0  0  0
 11 12  1  0  0  0
 17 18  1  0  0  0
 19 18  1  0  0  0
 18 20  1  0  0  0
 20 21  1  0  0  0
M  END
> <minimizedAffinity>
-7.02366

$$$$
