3OZS_OZS_A_223


 38 40  0  0  0  0  0  0  0  0999 V2000
  -19.5994   30.3672   10.5378 C   0  0  0  0  0  0  0  0  0  0  0  0
  -20.5957   30.0150    9.7438 C   0  0  0  0  0  0  0  0  0  0  0  0
  -19.9067   31.0139   12.9407 C   0  0  0  0  0  0  0  0  0  0  0  0
  -18.4733   31.5240   13.2226 C   0  0  0  0  0  0  0  0  0  0  0  0
  -17.6666   30.1974   13.3908 C   0  0  0  0  0  0  0  0  0  0  0  0
  -18.1970   29.4331   12.2899 O   0  0  0  0  0  0  0  0  0  0  0  0
  -19.5430   29.8592   11.9374 C   0  0  0  0  0  0  0  0  0  0  0  0
  -20.5330   30.4366   14.0726 O   0  0  0  0  0  0  0  0  0  0  0  0
  -18.4288   32.3380   14.4012 O   0  0  0  0  0  0  0  0  0  0  0  0
  -19.9738   29.7265   14.4246 H   0  0  0  0  0  0  0  0  0  0  0  0
  -18.7707   31.8333   15.1558 H   0  0  0  0  0  0  0  0  0  0  0  0
  -16.2477   30.2935   13.1776 N   0  0  0  0  0  0  0  0  0  0  0  0
  -15.5561   31.1137   12.2200 C   0  0  0  0  0  0  0  0  0  0  0  0
  -15.3156   29.5682   13.8552 C   0  0  0  0  0  0  0  0  0  0  0  0
  -14.1137   29.9590   13.2798 C   0  0  0  0  0  0  0  0  0  0  0  0
  -14.2579   30.9054   12.2860 N   0  0  0  0  0  0  0  0  0  0  0  0
  -12.7982   29.4024   13.6763 C   0  0  0  0  0  0  0  0  0  0  0  0
  -11.7309   30.1140   13.2951 F   0  0  0  0  0  0  0  0  0  0  0  0
  -12.5929   29.2742   14.9945 F   0  0  0  0  0  0  0  0  0  0  0  0
  -12.3973   28.2729   13.0554 F   0  0  0  0  0  0  0  0  0  0  0  0
  -20.6948   30.5108    8.2985 C   0  0  0  0  0  0  0  0  0  0  0  0
  -21.6326   29.6637    7.5663 N   0  0  0  0  0  0  0  0  0  0  0  0
  -22.6417   30.1850    6.8664 C   0  0  0  0  0  0  0  0  0  0  0  0
  -22.6978   31.4581    6.7213 O   0  0  0  0  0  0  0  0  0  0  0  0
  -21.5176   28.6863    7.5898 H   0  0  0  0  0  0  0  0  0  0  0  0
  -23.7057   29.3210    6.2446 C   0  0  0  0  0  0  0  0  0  0  0  0
  -23.7041   27.9147    6.4889 C   0  0  0  0  0  0  0  0  0  0  0  0
  -24.7728   27.1869    5.9037 C   0  0  0  0  0  0  0  0  0  0  0  0
  -25.7370   27.7487    5.1164 C   0  0  0  0  0  0  0  0  0  0  0  0
  -25.7142   29.1699    4.9546 C   0  0  0  0  0  0  0  0  0  0  0  0
  -24.6776   29.9608    5.5018 C   0  0  0  0  0  0  0  0  0  0  0  0
  -22.7428   27.2735    7.1416 O   0  0  0  0  0  0  0  0  0  0  0  0
  -24.7927   25.8207    6.0737 O   0  0  0  0  0  0  0  0  0  0  0  0
  -22.0374   27.7544    7.5277 H   0  0  0  0  0  0  0  0  0  0  0  0
  -24.1445   25.4055    6.6080 H   0  0  0  0  0  0  0  0  0  0  0  0
  -26.7299   29.8049    4.1595 N   0  0  0  0  0  0  0  0  0  0  0  0
  -27.2055   30.8773    4.4488 O   0  0  0  0  0  0  0  0  0  0  0  0
  -27.1040   29.1919    3.1773 O   0  0  0  0  0  0  0  0  0  0  0  0
  3  4  1  0  0  0
  3  7  1  0  0  0
  3  8  1  0  0  0
  4  5  1  0  0  0
  4  9  1  0  0  0
  5  6  1  0  0  0
  5 12  1  0  0  0
  6  7  1  0  0  0
  7  1  1  0  0  0
  1  2  2  0  0  0
 12 13  1  0  0  0
 12 14  1  0  0  0
  2 21  1  0  0  0
 13 16  2  0  0  0
 14 15  2  0  0  0
 15 16  1  0  0  0
 15 17  1  0  0  0
 17 18  1  0  0  0
 17 19  1  0  0  0
 17 20  1  0  0  0
 21 22  1  0  0  0
 22 23  1  0  0  0
 23 26  1  0  0  0
 23 24  2  0  0  0
 26 27  2  0  0  0
 26 31  1  0  0  0
 27 28  1  0  0  0
 27 32  1  0  0  0
 28 29  2  0  0  0
 28 33  1  0  0  0
 29 30  1  0  0  0
 30 31  2  0  0  0
 30 36  1  0  0  0
 36 37  2  0  0  0
 36 38  1  0  0  0
  8 10  1  0  0  0
  9 11  1  0  0  0
 22 25  1  0  0  0
 32 34  1  0  0  0
 33 35  1  0  0  0
M  CHG 1  36   1
M  CHG 1  38  -1
M  END
> <minimizedAffinity>
-11.35730

$$$$
3OZS_OZS_A_223


 38 40  0  0  0  0  0  0  0  0999 V2000
  -19.6753   30.5898   10.4641 C   0  0  0  0  0  0  0  0  0  0  0  0
  -20.5747   30.1880    9.5827 C   0  0  0  0  0  0  0  0  0  0  0  0
  -20.0154   31.1414   12.8863 C   0  0  0  0  0  0  0  0  0  0  0  0
  -18.5715   31.5850   13.2219 C   0  0  0  0  0  0  0  0  0  0  0  0
  -17.8175   30.2233   13.3483 C   0  0  0  0  0  0  0  0  0  0  0  0
  -18.3492   29.5283   12.2030 O   0  0  0  0  0  0  0  0  0  0  0  0
  -19.6702   30.0191   11.8406 C   0  0  0  0  0  0  0  0  0  0  0  0
  -20.6886   30.5387   13.9773 O   0  0  0  0  0  0  0  0  0  0  0  0
  -18.5254   32.3443   14.4364 O   0  0  0  0  0  0  0  0  0  0  0  0
  -20.1638   29.7935   14.3093 H   0  0  0  0  0  0  0  0  0  0  0  0
  -18.9029   31.8201   15.1600 H   0  0  0  0  0  0  0  0  0  0  0  0
  -16.3915   30.2760   13.1706 N   0  0  0  0  0  0  0  0  0  0  0  0
  -15.6483   31.1117   12.2665 C   0  0  0  0  0  0  0  0  0  0  0  0
  -15.5024   29.4869   13.8347 C   0  0  0  0  0  0  0  0  0  0  0  0
  -14.2739   29.8580   13.3040 C   0  0  0  0  0  0  0  0  0  0  0  0
  -14.3604   30.8525   12.3513 N   0  0  0  0  0  0  0  0  0  0  0  0
  -12.9891   29.2357   13.7034 C   0  0  0  0  0  0  0  0  0  0  0  0
  -11.8936   29.7595   13.1410 F   0  0  0  0  0  0  0  0  0  0  0  0
  -12.6914   29.2994   15.0085 F   0  0  0  0  0  0  0  0  0  0  0  0
  -12.7477   27.9851   13.2563 F   0  0  0  0  0  0  0  0  0  0  0  0
  -20.6178   30.7449    8.1570 C   0  0  0  0  0  0  0  0  0  0  0  0
  -21.7758   30.1889    7.4620 N   0  0  0  0  0  0  0  0  0  0  0  0
  -22.4642   30.9056    6.5719 C   0  0  0  0  0  0  0  0  0  0  0  0
  -22.0092   32.0519    6.2199 O   0  0  0  0  0  0  0  0  0  0  0  0
  -22.0547   29.2646    7.6547 H   0  0  0  0  0  0  0  0  0  0  0  0
  -23.7500   30.4031    5.9725 C   0  0  0  0  0  0  0  0  0  0  0  0
  -24.6572   31.3276    5.3727 C   0  0  0  0  0  0  0  0  0  0  0  0
  -25.8192   30.7592    4.7889 C   0  0  0  0  0  0  0  0  0  0  0  0
  -26.1107   29.4251    4.8140 C   0  0  0  0  0  0  0  0  0  0  0  0
  -25.1359   28.5453    5.3816 C   0  0  0  0  0  0  0  0  0  0  0  0
  -23.9573   29.0384    5.9878 C   0  0  0  0  0  0  0  0  0  0  0  0
  -24.5088   32.6459    5.4084 O   0  0  0  0  0  0  0  0  0  0  0  0
  -26.7470   31.6128    4.2353 O   0  0  0  0  0  0  0  0  0  0  0  0
  -23.7415   33.0207    5.7940 H   0  0  0  0  0  0  0  0  0  0  0  0
  -26.5762   32.5335    4.2033 H   0  0  0  0  0  0  0  0  0  0  0  0
  -25.3894   27.1303    5.3993 N   0  0  0  0  0  0  0  0  0  0  0  0
  -24.8613   26.3855    6.1907 O   0  0  0  0  0  0  0  0  0  0  0  0
  -26.1592   26.7123    4.5549 O   0  0  0  0  0  0  0  0  0  0  0  0
  3  4  1  0  0  0
  3  7  1  0  0  0
  3  8  1  0  0  0
  4  5  1  0  0  0
  4  9  1  0  0  0
  5  6  1  0  0  0
  5 12  1  0  0  0
  6  7  1  0  0  0
  7  1  1  0  0  0
  1  2  2  0  0  0
 12 13  1  0  0  0
 12 14  1  0  0  0
  2 21  1  0  0  0
 13 16  2  0  0  0
 14 15  2  0  0  0
 15 16  1  0  0  0
 15 17  1  0  0  0
 17 18  1  0  0  0
 17 19  1  0  0  0
 17 20  1  0  0  0
 21 22  1  0  0  0
 22 23  1  0  0  0
 23 26  1  0  0  0
 23 24  2  0  0  0
 26 27  2  0  0  0
 26 31  1  0  0  0
 27 28  1  0  0  0
 27 32  1  0  0  0
 28 29  2  0  0  0
 28 33  1  0  0  0
 29 30  1  0  0  0
 30 31  2  0  0  0
 30 36  1  0  0  0
 36 37  2  0  0  0
 36 38  1  0  0  0
  8 10  1  0  0  0
  9 11  1  0  0  0
 22 25  1  0  0  0
 32 34  1  0  0  0
 33 35  1  0  0  0
M  CHG 1  36   1
M  CHG 1  38  -1
M  END
> <minimizedAffinity>
-10.33956

$$$$
3OZS_OZS_A_223


 38 40  0  0  0  0  0  0  0  0999 V2000
  -20.2772   31.6327   13.3873 C   0  0  0  0  0  0  0  0  0  0  0  0
  -18.9998   31.5299   13.0638 C   0  0  0  0  0  0  0  0  0  0  0  0
  -22.4407   32.8157   13.8416 C   0  0  0  0  0  0  0  0  0  0  0  0
  -23.1037   32.6135   12.4582 C   0  0  0  0  0  0  0  0  0  0  0  0
  -22.3816   33.6802   11.5752 C   0  0  0  0  0  0  0  0  0  0  0  0
  -21.0193   33.4900   12.0058 O   0  0  0  0  0  0  0  0  0  0  0  0
  -20.9512   32.9613   13.3598 C   0  0  0  0  0  0  0  0  0  0  0  0
  -22.8206   34.0228   14.4784 O   0  0  0  0  0  0  0  0  0  0  0  0
  -24.5192   32.8291   12.5187 O   0  0  0  0  0  0  0  0  0  0  0  0
  -22.6339   34.7713   13.8903 H   0  0  0  0  0  0  0  0  0  0  0  0
  -24.6963   33.7196   12.8599 H   0  0  0  0  0  0  0  0  0  0  0  0
  -22.4011   33.4397   10.1576 N   0  0  0  0  0  0  0  0  0  0  0  0
  -23.0253   34.2395    9.1386 C   0  0  0  0  0  0  0  0  0  0  0  0
  -21.8375   32.3583    9.5515 C   0  0  0  0  0  0  0  0  0  0  0  0
  -22.1510   32.5335    8.2101 C   0  0  0  0  0  0  0  0  0  0  0  0
  -22.8708   33.6829    7.9556 N   0  0  0  0  0  0  0  0  0  0  0  0
  -21.7694   31.5714    7.1488 C   0  0  0  0  0  0  0  0  0  0  0  0
  -22.5708   30.5078    7.0174 F   0  0  0  0  0  0  0  0  0  0  0  0
  -21.7451   32.0595    5.9008 F   0  0  0  0  0  0  0  0  0  0  0  0
  -20.6558   30.8374    7.3572 F   0  0  0  0  0  0  0  0  0  0  0  0
  -18.2658   30.1861   13.0763 C   0  0  0  0  0  0  0  0  0  0  0  0
  -16.8467   30.4195   13.3311 N   0  0  0  0  0  0  0  0  0  0  0  0
  -15.9988   30.7035   12.3411 C   0  0  0  0  0  0  0  0  0  0  0  0
  -16.4709   30.9150   11.1675 O   0  0  0  0  0  0  0  0  0  0  0  0
  -16.5083   30.3660   14.2541 H   0  0  0  0  0  0  0  0  0  0  0  0
  -14.5132   30.7847   12.5677 C   0  0  0  0  0  0  0  0  0  0  0  0
  -13.9385   30.1522   13.7110 C   0  0  0  0  0  0  0  0  0  0  0  0
  -12.5258   30.2376   13.8168 C   0  0  0  0  0  0  0  0  0  0  0  0
  -11.7336   30.9074   12.9285 C   0  0  0  0  0  0  0  0  0  0  0  0
  -12.3638   31.4732   11.7756 C   0  0  0  0  0  0  0  0  0  0  0  0
  -13.7669   31.4338   11.6046 C   0  0  0  0  0  0  0  0  0  0  0  0
  -14.6440   29.5839   14.6808 O   0  0  0  0  0  0  0  0  0  0  0  0
  -11.9266   29.6807   14.9244 O   0  0  0  0  0  0  0  0  0  0  0  0
  -15.5767   29.5278   14.6105 H   0  0  0  0  0  0  0  0  0  0  0  0
  -12.4433   29.2150   15.5522 H   0  0  0  0  0  0  0  0  0  0  0  0
  -11.5616   32.1593   10.7996 N   0  0  0  0  0  0  0  0  0  0  0  0
  -11.6005   33.3581   10.6533 O   0  0  0  0  0  0  0  0  0  0  0  0
  -10.8450   31.4612   10.1072 O   0  0  0  0  0  0  0  0  0  0  0  0
  3  4  1  0  0  0
  3  7  1  0  0  0
  3  8  1  0  0  0
  4  5  1  0  0  0
  4  9  1  0  0  0
  5  6  1  0  0  0
  5 12  1  0  0  0
  6  7  1  0  0  0
  7  1  1  0  0  0
  1  2  2  0  0  0
 12 13  1  0  0  0
 12 14  1  0  0  0
  2 21  1  0  0  0
 13 16  2  0  0  0
 14 15  2  0  0  0
 15 16  1  0  0  0
 15 17  1  0  0  0
 17 18  1  0  0  0
 17 19  1  0  0  0
 17 20  1  0  0  0
 21 22  1  0  0  0
 22 23  1  0  0  0
 23 26  1  0  0  0
 23 24  2  0  0  0
 26 27  2  0  0  0
 26 31  1  0  0  0
 27 28  1  0  0  0
 27 32  1  0  0  0
 28 29  2  0  0  0
 28 33  1  0  0  0
 29 30  1  0  0  0
 30 31  2  0  0  0
 30 36  1  0  0  0
 36 37  2  0  0  0
 36 38  1  0  0  0
  8 10  1  0  0  0
  9 11  1  0  0  0
 22 25  1  0  0  0
 32 34  1  0  0  0
 33 35  1  0  0  0
M  CHG 1  36   1
M  CHG 1  38  -1
M  END
> <minimizedAffinity>
-9.48374

$$$$
3OZS_OZS_A_223


 38 40  0  0  0  0  0  0  0  0999 V2000
  -20.7119   32.9223   12.6296 C   0  0  0  0  0  0  0  0  0  0  0  0
  -19.6667   32.4957   13.3170 C   0  0  0  0  0  0  0  0  0  0  0  0
  -21.4054   34.6032   14.3560 C   0  0  0  0  0  0  0  0  0  0  0  0
  -22.8939   34.1991   14.4798 C   0  0  0  0  0  0  0  0  0  0  0  0
  -23.5267   34.8340   13.2010 C   0  0  0  0  0  0  0  0  0  0  0  0
  -22.5314   34.4814   12.2200 O   0  0  0  0  0  0  0  0  0  0  0  0
  -21.2180   34.3104   12.8226 C   0  0  0  0  0  0  0  0  0  0  0  0
  -21.1754   35.9837   14.5750 O   0  0  0  0  0  0  0  0  0  0  0  0
  -23.4777   34.7111   15.6842 O   0  0  0  0  0  0  0  0  0  0  0  0
  -21.7285   36.5035   13.9711 H   0  0  0  0  0  0  0  0  0  0  0  0
  -23.3785   35.6758   15.7070 H   0  0  0  0  0  0  0  0  0  0  0  0
  -24.7645   34.2519   12.7572 N   0  0  0  0  0  0  0  0  0  0  0  0
  -25.3475   33.0042   13.1709 C   0  0  0  0  0  0  0  0  0  0  0  0
  -25.5821   34.8026   11.8178 C   0  0  0  0  0  0  0  0  0  0  0  0
  -26.6060   33.8735   11.6885 C   0  0  0  0  0  0  0  0  0  0  0  0
  -26.4674   32.7785   12.5167 N   0  0  0  0  0  0  0  0  0  0  0  0
  -27.7340   34.0266   10.7389 C   0  0  0  0  0  0  0  0  0  0  0  0
  -28.2139   32.8889   10.2232 F   0  0  0  0  0  0  0  0  0  0  0  0
  -28.8403   34.5977   11.2350 F   0  0  0  0  0  0  0  0  0  0  0  0
  -27.4548   34.5756    9.5377 F   0  0  0  0  0  0  0  0  0  0  0  0
  -19.1108   31.0786   13.1511 C   0  0  0  0  0  0  0  0  0  0  0  0
  -17.6728   31.0969   13.4065 N   0  0  0  0  0  0  0  0  0  0  0  0
  -16.7883   30.9363   12.4207 C   0  0  0  0  0  0  0  0  0  0  0  0
  -17.2126   30.9097   11.2107 O   0  0  0  0  0  0  0  0  0  0  0  0
  -17.3491   31.2306   14.3265 H   0  0  0  0  0  0  0  0  0  0  0  0
  -15.3152   30.7907   12.6926 C   0  0  0  0  0  0  0  0  0  0  0  0
  -14.8781   30.0520   13.8330 C   0  0  0  0  0  0  0  0  0  0  0  0
  -13.4725   29.9243   13.9822 C   0  0  0  0  0  0  0  0  0  0  0  0
  -12.5613   30.4908   13.1372 C   0  0  0  0  0  0  0  0  0  0  0  0
  -13.0628   31.1721   11.9836 C   0  0  0  0  0  0  0  0  0  0  0  0
  -14.4500   31.3454   11.7709 C   0  0  0  0  0  0  0  0  0  0  0  0
  -15.6913   29.5709   14.7650 O   0  0  0  0  0  0  0  0  0  0  0  0
  -12.9989   29.2576   15.0900 O   0  0  0  0  0  0  0  0  0  0  0  0
  -16.6193   29.6555   14.6660 H   0  0  0  0  0  0  0  0  0  0  0  0
  -13.5990   28.8583   15.6886 H   0  0  0  0  0  0  0  0  0  0  0  0
  -12.1364   31.7554   11.0517 N   0  0  0  0  0  0  0  0  0  0  0  0
  -12.1658   32.9258   10.7529 O   0  0  0  0  0  0  0  0  0  0  0  0
  -11.3217   30.9978   10.5592 O   0  0  0  0  0  0  0  0  0  0  0  0
  3  4  1  0  0  0
  3  7  1  0  0  0
  3  8  1  0  0  0
  4  5  1  0  0  0
  4  9  1  0  0  0
  5  6  1  0  0  0
  5 12  1  0  0  0
  6  7  1  0  0  0
  7  1  1  0  0  0
  1  2  2  0  0  0
 12 13  1  0  0  0
 12 14  1  0  0  0
  2 21  1  0  0  0
 13 16  2  0  0  0
 14 15  2  0  0  0
 15 16  1  0  0  0
 15 17  1  0  0  0
 17 18  1  0  0  0
 17 19  1  0  0  0
 17 20  1  0  0  0
 21 22  1  0  0  0
 22 23  1  0  0  0
 23 26  1  0  0  0
 23 24  2  0  0  0
 26 27  2  0  0  0
 26 31  1  0  0  0
 27 28  1  0  0  0
 27 32  1  0  0  0
 28 29  2  0  0  0
 28 33  1  0  0  0
 29 30  1  0  0  0
 30 31  2  0  0  0
 30 36  1  0  0  0
 36 37  2  0  0  0
 36 38  1  0  0  0
  8 10  1  0  0  0
  9 11  1  0  0  0
 22 25  1  0  0  0
 32 34  1  0  0  0
 33 35  1  0  0  0
M  CHG 1  36   1
M  CHG 1  38  -1
M  END
> <minimizedAffinity>
-9.16966

$$$$
3OZS_OZS_A_223


 38 40  0  0  0  0  0  0  0  0999 V2000
  -22.9007   33.8584    9.3238 C   0  0  0  0  0  0  0  0  0  0  0  0
  -22.2581   32.7199    9.1291 C   0  0  0  0  0  0  0  0  0  0  0  0
  -22.7122   35.6278   11.0903 C   0  0  0  0  0  0  0  0  0  0  0  0
  -21.4454   35.0998   11.8049 C   0  0  0  0  0  0  0  0  0  0  0  0
  -22.0030   33.9142   12.6548 C   0  0  0  0  0  0  0  0  0  0  0  0
  -22.8701   33.2903   11.6872 O   0  0  0  0  0  0  0  0  0  0  0  0
  -23.3425   34.2430   10.6939 C   0  0  0  0  0  0  0  0  0  0  0  0
  -23.6134   36.2930   11.9575 O   0  0  0  0  0  0  0  0  0  0  0  0
  -20.8420   36.1131   12.6190 O   0  0  0  0  0  0  0  0  0  0  0  0
  -23.8480   35.7053   12.6927 H   0  0  0  0  0  0  0  0  0  0  0  0
  -21.4906   36.4399   13.2621 H   0  0  0  0  0  0  0  0  0  0  0  0
  -21.0437   32.9179   13.0487 N   0  0  0  0  0  0  0  0  0  0  0  0
  -20.0471   33.0164   14.0806 C   0  0  0  0  0  0  0  0  0  0  0  0
  -20.9110   31.6991   12.4562 C   0  0  0  0  0  0  0  0  0  0  0  0
  -19.8443   31.1204   13.1312 C   0  0  0  0  0  0  0  0  0  0  0  0
  -19.3195   31.9202   14.1258 N   0  0  0  0  0  0  0  0  0  0  0  0
  -19.3020   29.7794   12.8069 C   0  0  0  0  0  0  0  0  0  0  0  0
  -18.0851   29.5142   13.2962 F   0  0  0  0  0  0  0  0  0  0  0  0
  -20.0168   28.7378   13.2544 F   0  0  0  0  0  0  0  0  0  0  0  0
  -18.9496   29.5538   11.5235 F   0  0  0  0  0  0  0  0  0  0  0  0
  -21.7840   32.2838    7.7400 C   0  0  0  0  0  0  0  0  0  0  0  0
  -22.5299   31.0963    7.3318 N   0  0  0  0  0  0  0  0  0  0  0  0
  -23.1303   31.0256    6.1424 C   0  0  0  0  0  0  0  0  0  0  0  0
  -22.9239   31.9629    5.2916 O   0  0  0  0  0  0  0  0  0  0  0  0
  -22.5911   30.3310    7.9480 H   0  0  0  0  0  0  0  0  0  0  0  0
  -24.0339   29.8790    5.7768 C   0  0  0  0  0  0  0  0  0  0  0  0
  -23.7921   28.5860    6.3309 C   0  0  0  0  0  0  0  0  0  0  0  0
  -24.7236   27.5776    5.9705 C   0  0  0  0  0  0  0  0  0  0  0  0
  -25.7722   27.7774    5.1187 C   0  0  0  0  0  0  0  0  0  0  0  0
  -25.9922   29.1075    4.6404 C   0  0  0  0  0  0  0  0  0  0  0  0
  -25.1033   30.1625    4.9511 C   0  0  0  0  0  0  0  0  0  0  0  0
  -22.7333   28.2787    7.0697 O   0  0  0  0  0  0  0  0  0  0  0  0
  -24.5100   26.3025    6.4443 O   0  0  0  0  0  0  0  0  0  0  0  0
  -22.1186   28.9448    7.3074 H   0  0  0  0  0  0  0  0  0  0  0  0
  -23.7987   26.1334    7.0303 H   0  0  0  0  0  0  0  0  0  0  0  0
  -27.1040   29.3673    3.7668 N   0  0  0  0  0  0  0  0  0  0  0  0
  -27.8611   30.2935    3.9365 O   0  0  0  0  0  0  0  0  0  0  0  0
  -27.2568   28.5869    2.8458 O   0  0  0  0  0  0  0  0  0  0  0  0
  3  4  1  0  0  0
  3  7  1  0  0  0
  3  8  1  0  0  0
  4  5  1  0  0  0
  4  9  1  0  0  0
  5  6  1  0  0  0
  5 12  1  0  0  0
  6  7  1  0  0  0
  7  1  1  0  0  0
  1  2  2  0  0  0
 12 13  1  0  0  0
 12 14  1  0  0  0
  2 21  1  0  0  0
 13 16  2  0  0  0
 14 15  2  0  0  0
 15 16  1  0  0  0
 15 17  1  0  0  0
 17 18  1  0  0  0
 17 19  1  0  0  0
 17 20  1  0  0  0
 21 22  1  0  0  0
 22 23  1  0  0  0
 23 26  1  0  0  0
 23 24  2  0  0  0
 26 27  2  0  0  0
 26 31  1  0  0  0
 27 28  1  0  0  0
 27 32  1  0  0  0
 28 29  2  0  0  0
 28 33  1  0  0  0
 29 30  1  0  0  0
 30 31  2  0  0  0
 30 36  1  0  0  0
 36 37  2  0  0  0
 36 38  1  0  0  0
  8 10  1  0  0  0
  9 11  1  0  0  0
 22 25  1  0  0  0
 32 34  1  0  0  0
 33 35  1  0  0  0
M  CHG 1  36   1
M  CHG 1  38  -1
M  END
> <minimizedAffinity>
-8.48958

$$$$
