2O4R_VD5_A_500


 33 35  0  0  0  0  0  0  0  0999 V2000
   60.7285    5.3864   -2.7914 C   0  0  0  0  0  0  0  0  0  0  0  0
   60.9176    5.2845   -4.1479 C   0  0  0  0  0  0  0  0  0  0  0  0
   61.0740    6.5195   -5.0372 C   0  0  0  0  0  0  0  0  0  0  0  0
   62.3380    6.3884   -5.9070 C   0  0  0  0  0  0  0  0  0  0  0  0
   62.6045    4.9783   -6.5072 C   0  0  0  0  0  0  0  0  0  0  0  0
   61.0634    3.9628   -4.9111 C   0  0  0  0  0  0  0  0  0  0  0  0
   62.5023    3.8585   -5.4515 C   0  0  0  0  0  0  0  0  0  0  0  0
   63.5905    3.9670   -4.3537 C   0  0  0  0  0  0  0  0  0  0  0  0
   60.7628    2.6006   -4.2819 C   0  0  0  0  0  0  0  0  0  0  0  0
   61.5393    1.5911   -5.1803 C   0  0  0  0  0  0  0  0  0  0  0  0
   62.5774    2.4145   -5.9213 C   0  0  0  0  0  0  0  0  0  0  0  0
   63.4416    1.9119   -6.8501 C   0  0  0  0  0  0  0  0  0  0  0  0
   64.4722    2.7512   -7.5792 C   0  0  0  0  0  0  0  0  0  0  0  0
   58.8403    8.2620    1.1263 O   0  0  0  0  0  0  0  0  0  0  0  0
   60.2668    8.2955    1.2480 C   0  0  0  0  0  0  0  0  0  0  0  0
   60.6439    7.0849    2.0694 C   0  0  0  0  0  0  0  0  0  0  0  0
   61.1970    7.1835    3.2741 C   0  0  0  0  0  0  0  0  0  0  0  0
   60.3255    5.7542    1.5098 C   0  0  0  0  0  0  0  0  0  0  0  0
   60.7387    4.7734    2.4714 O   0  0  0  0  0  0  0  0  0  0  0  0
   61.0665    5.6196    0.1580 C   0  0  0  0  0  0  0  0  0  0  0  0
   60.8519    8.2285   -0.1595 C   0  0  0  0  0  0  0  0  0  0  0  0
   60.8557    6.8306   -0.7542 C   0  0  0  0  0  0  0  0  0  0  0  0
   60.6954    6.7024   -2.1082 C   0  0  0  0  0  0  0  0  0  0  0  0
   58.5424    9.0231    0.6039 H   0  0  0  0  0  0  0  0  0  0  0  0
   61.6851    4.8800    2.6557 H   0  0  0  0  0  0  0  0  0  0  0  0
   63.4383    0.4593   -7.2665 C   0  0  0  0  0  0  0  0  0  0  0  0
   64.2081   -0.3828   -6.2576 C   0  0  0  0  0  0  0  0  0  0  0  0
   65.6775   -0.4918   -6.6820 C   0  0  0  0  0  0  0  0  0  0  0  0
   66.2539   -1.8720   -6.4261 C   0  0  0  0  0  0  0  0  0  0  0  0
   65.9709   -2.4155   -5.0131 C   0  0  0  0  0  0  0  0  0  0  0  0
   67.7585   -1.7746   -6.5902 C   0  0  0  0  0  0  0  0  0  0  0  0
   65.6931   -2.7899   -7.3726 O   0  0  0  0  0  0  0  0  0  0  0  0
   65.8591   -2.4681   -8.2725 H   0  0  0  0  0  0  0  0  0  0  0  0
 13 12  1  0  0  0
 32 29  1  0  0  0
 26 12  1  0  0  0
 26 27  1  0  0  0
 31 29  1  0  0  0
 12 11  2  0  0  0
 28 29  1  0  0  0
 28 27  1  0  0  0
 29 30  1  0  0  0
  5  4  1  0  0  0
  5  7  1  0  0  0
 11  7  1  0  0  0
 11 10  1  0  0  0
  4  3  1  0  0  0
  7  6  1  0  0  0
  7  8  1  0  0  0
 10  9  1  0  0  0
  3  2  1  0  0  0
  6  9  1  0  0  0
  6  2  1  0  0  0
  2  1  2  0  0  0
  1 23  1  0  0  0
 23 22  2  0  0  0
 22 21  1  0  0  0
 22 20  1  0  0  0
 21 15  1  0  0  0
 20 18  1  0  0  0
 14 15  1  0  0  0
 15 16  1  0  0  0
 18 16  1  0  0  0
 18 19  1  0  0  0
 16 17  2  0  0  0
 14 24  1  0  0  0
 19 25  1  0  0  0
 32 33  1  0  0  0
M  END
> <minimizedAffinity>
-13.94128

$$$$
2O4R_VD5_A_500


 33 35  0  0  0  0  0  0  0  0999 V2000
   60.9703    5.3334   -2.5265 C   0  0  0  0  0  0  0  0  0  0  0  0
   61.1415    5.1611   -3.8782 C   0  0  0  0  0  0  0  0  0  0  0  0
   61.1790    6.3456   -4.8458 C   0  0  0  0  0  0  0  0  0  0  0  0
   62.4330    6.2620   -5.7358 C   0  0  0  0  0  0  0  0  0  0  0  0
   62.8030    4.8427   -6.2539 C   0  0  0  0  0  0  0  0  0  0  0  0
   61.3811    3.8096   -4.5615 C   0  0  0  0  0  0  0  0  0  0  0  0
   62.8132    3.7879   -5.1288 C   0  0  0  0  0  0  0  0  0  0  0  0
   63.9093    4.0535   -4.0663 C   0  0  0  0  0  0  0  0  0  0  0  0
   61.2053    2.4704   -3.8422 C   0  0  0  0  0  0  0  0  0  0  0  0
   62.0451    1.4718   -4.6948 C   0  0  0  0  0  0  0  0  0  0  0  0
   62.9978    2.3277   -5.5100 C   0  0  0  0  0  0  0  0  0  0  0  0
   63.8827    1.8385   -6.4265 C   0  0  0  0  0  0  0  0  0  0  0  0
   64.8268    2.7103   -7.2306 C   0  0  0  0  0  0  0  0  0  0  0  0
   58.8340    8.3124    1.1810 O   0  0  0  0  0  0  0  0  0  0  0  0
   60.2532    8.4442    1.3208 C   0  0  0  0  0  0  0  0  0  0  0  0
   60.6908    7.3116    2.2198 C   0  0  0  0  0  0  0  0  0  0  0  0
   61.2146    7.5175    3.4241 C   0  0  0  0  0  0  0  0  0  0  0  0
   60.4669    5.9321    1.7380 C   0  0  0  0  0  0  0  0  0  0  0  0
   60.9235    5.0392    2.7635 O   0  0  0  0  0  0  0  0  0  0  0  0
   61.2393    5.7643    0.4077 C   0  0  0  0  0  0  0  0  0  0  0  0
   60.8669    8.3304   -0.0715 C   0  0  0  0  0  0  0  0  0  0  0  0
   60.9694    6.9024   -0.5796 C   0  0  0  0  0  0  0  0  0  0  0  0
   60.8421    6.6833   -1.9255 C   0  0  0  0  0  0  0  0  0  0  0  0
   58.4984    9.0201    0.6088 H   0  0  0  0  0  0  0  0  0  0  0  0
   61.8577    5.2170    2.9545 H   0  0  0  0  0  0  0  0  0  0  0  0
   63.9910    0.3668   -6.7520 C   0  0  0  0  0  0  0  0  0  0  0  0
   62.7059   -0.1279   -7.4026 C   0  0  0  0  0  0  0  0  0  0  0  0
   62.2740    0.8424   -8.5086 C   0  0  0  0  0  0  0  0  0  0  0  0
   60.8099    1.2269   -8.4031 C   0  0  0  0  0  0  0  0  0  0  0  0
   60.5760    2.6710   -7.9214 C   0  0  0  0  0  0  0  0  0  0  0  0
   60.1658    0.2944   -7.3952 C   0  0  0  0  0  0  0  0  0  0  0  0
   60.2011    1.0878   -9.6926 O   0  0  0  0  0  0  0  0  0  0  0  0
   60.3355    0.1839  -10.0178 H   0  0  0  0  0  0  0  0  0  0  0  0
 13 12  1  0  0  0
 32 29  1  0  0  0
 26 12  1  0  0  0
 26 27  1  0  0  0
 31 29  1  0  0  0
 12 11  2  0  0  0
 28 29  1  0  0  0
 28 27  1  0  0  0
 29 30  1  0  0  0
  5  4  1  0  0  0
  5  7  1  0  0  0
 11  7  1  0  0  0
 11 10  1  0  0  0
  4  3  1  0  0  0
  7  6  1  0  0  0
  7  8  1  0  0  0
 10  9  1  0  0  0
  3  2  1  0  0  0
  6  9  1  0  0  0
  6  2  1  0  0  0
  2  1  2  0  0  0
  1 23  1  0  0  0
 23 22  2  0  0  0
 22 21  1  0  0  0
 22 20  1  0  0  0
 21 15  1  0  0  0
 20 18  1  0  0  0
 14 15  1  0  0  0
 15 16  1  0  0  0
 18 16  1  0  0  0
 18 19  1  0  0  0
 16 17  2  0  0  0
 14 24  1  0  0  0
 19 25  1  0  0  0
 32 33  1  0  0  0
M  END
> <minimizedAffinity>
-12.02242

$$$$
