5YH8_8UX_A_602


 29 29  0  0  0  0  0  0  0  0999 V2000
  -17.4205   23.9462  -20.5295 C   0  0  0  0  0  0  0  0  0  0  0  0
  -16.8664   23.5444  -19.2184 N   0  0  0  0  0  0  0  0  0  0  0  0
  -15.8816   23.8098  -19.2080 H   0  0  0  0  0  0  0  0  0  0  0  0
  -16.9438   22.1153  -18.8581 C   0  0  0  0  0  0  0  0  0  0  0  0
  -16.0398   21.1689  -19.6834 C   0  0  0  0  0  0  0  0  0  0  0  0
  -14.9030   21.5649  -20.0254 O   0  0  0  0  0  0  0  0  0  0  0  0
  -16.4980   20.0169  -19.8859 O   0  0  0  0  0  0  0  0  0  0  0  0
  -14.6363   22.4431  -19.8364 H   0  0  0  0  0  0  0  0  0  0  0  0
  -16.7433   21.9756  -17.3684 C   0  0  0  0  0  0  0  0  0  0  0  0
  -15.5429   22.7907  -16.8731 C   0  0  0  0  0  0  0  0  0  0  0  0
  -15.6128   23.5085  -15.7569 C   0  0  0  0  0  0  0  0  0  0  0  0
  -14.4524   24.1198  -15.6042 N   0  0  0  0  0  0  0  0  0  0  0  0
  -13.6468   23.7686  -16.5969 C   0  0  0  0  0  0  0  0  0  0  0  0
  -14.3248   22.9529  -17.4160 N   0  0  0  0  0  0  0  0  0  0  0  0
  -14.2227   24.7364  -14.8720 H   0  0  0  0  0  0  0  0  0  0  0  0
  -16.3801   24.6020  -21.4367 C   0  0  0  0  0  0  0  0  0  0  0  0
  -16.3584   26.1317  -21.2725 C   0  0  0  0  0  0  0  0  0  0  0  0
  -15.3665   26.4058  -20.1516 C   0  0  0  0  0  0  0  0  0  0  0  0
  -15.8203   26.5975  -18.9971 O   0  0  0  0  0  0  0  0  0  0  0  0
  -14.1738   26.2591  -20.4587 O   0  0  0  0  0  0  0  0  0  0  0  0
  -16.7429   26.6970  -18.8669 H   0  0  0  0  0  0  0  0  0  0  0  0
  -16.0419   26.9302  -22.5239 N   0  0  0  0  0  0  0  0  0  0  0  0
  -16.3324   26.3473  -23.3089 H   0  0  0  0  0  0  0  0  0  0  0  0
  -16.5955   28.2702  -22.7885 C   0  0  0  0  0  0  0  0  0  0  0  0
  -18.1111   28.2086  -23.1060 C   0  0  0  0  0  0  0  0  0  0  0  0
  -17.2223   29.4782  -20.8896 O   0  0  0  0  0  0  0  0  0  0  0  0
  -16.2671   29.1873  -21.6141 C   0  0  0  0  0  0  0  0  0  0  0  0
  -15.0596   29.5670  -21.4425 O   0  0  0  0  0  0  0  0  0  0  0  0
  -18.0784   29.1546  -21.0905 H   0  0  0  0  0  0  0  0  0  0  0  0
 11 12  1  0  0  0
 11 10  2  0  0  0
  9 10  1  0  0  0
  9  4  1  0  0  0
 12 13  1  0  0  0
 10 14  1  0  0  0
  4  2  1  0  0  0
  4  5  1  0  0  0
 13 14  2  0  0  0
  2  1  1  0  0  0
  7  5  2  0  0  0
  5  6  1  0  0  0
  1 16  1  0  0  0
 20 18  2  0  0  0
 16 17  1  0  0  0
 19 18  1  0  0  0
 18 17  1  0  0  0
 17 22  1  0  0  0
 28 27  2  0  0  0
 22 24  1  0  0  0
 27 24  1  0  0  0
 27 26  1  0  0  0
 24 25  1  0  0  0
 26 29  1  0  0  0
 22 23  1  0  0  0
 19 21  1  0  0  0
  2  3  1  0  0  0
  6  8  1  0  0  0
 12 15  1  0  0  0
M  END
> <minimizedAffinity>
-8.51473

$$$$
5YH8_8UX_A_602


 29 29  0  0  0  0  0  0  0  0999 V2000
  -17.6218   24.0203  -20.5533 C   0  0  0  0  0  0  0  0  0  0  0  0
  -16.3407   24.4828  -21.1298 N   0  0  0  0  0  0  0  0  0  0  0  0
  -15.6079   24.2785  -20.4504 H   0  0  0  0  0  0  0  0  0  0  0  0
  -16.2318   25.9117  -21.4824 C   0  0  0  0  0  0  0  0  0  0  0  0
  -16.0819   26.8844  -20.2886 C   0  0  0  0  0  0  0  0  0  0  0  0
  -15.5662   26.4649  -19.2283 O   0  0  0  0  0  0  0  0  0  0  0  0
  -16.4273   28.0723  -20.5068 O   0  0  0  0  0  0  0  0  0  0  0  0
  -15.3363   25.5603  -19.1451 H   0  0  0  0  0  0  0  0  0  0  0  0
  -15.1486   26.0774  -22.5208 C   0  0  0  0  0  0  0  0  0  0  0  0
  -13.8469   25.3813  -22.1066 C   0  0  0  0  0  0  0  0  0  0  0  0
  -13.0138   24.8845  -23.0149 C   0  0  0  0  0  0  0  0  0  0  0  0
  -12.0085   24.3240  -22.3678 N   0  0  0  0  0  0  0  0  0  0  0  0
  -12.1885   24.4911  -21.0650 C   0  0  0  0  0  0  0  0  0  0  0  0
  -13.3511   25.1324  -20.8830 N   0  0  0  0  0  0  0  0  0  0  0  0
  -11.2486   23.8577  -22.7851 H   0  0  0  0  0  0  0  0  0  0  0  0
  -17.6322   22.5206  -20.2591 C   0  0  0  0  0  0  0  0  0  0  0  0
  -16.7246   22.1632  -19.0693 C   0  0  0  0  0  0  0  0  0  0  0  0
  -15.5306   21.4380  -19.6727 C   0  0  0  0  0  0  0  0  0  0  0  0
  -14.5354   22.1234  -20.0127 O   0  0  0  0  0  0  0  0  0  0  0  0
  -15.5916   20.2000  -19.6292 O   0  0  0  0  0  0  0  0  0  0  0  0
  -14.5888   23.0588  -20.0129 H   0  0  0  0  0  0  0  0  0  0  0  0
  -16.3022   23.3214  -18.1839 N   0  0  0  0  0  0  0  0  0  0  0  0
  -17.1088   23.9436  -18.1332 H   0  0  0  0  0  0  0  0  0  0  0  0
  -15.8363   23.1492  -16.7963 C   0  0  0  0  0  0  0  0  0  0  0  0
  -15.5187   21.6655  -16.4813 C   0  0  0  0  0  0  0  0  0  0  0  0
  -14.8016   25.2386  -16.9450 O   0  0  0  0  0  0  0  0  0  0  0  0
  -14.6533   24.0802  -16.5474 C   0  0  0  0  0  0  0  0  0  0  0  0
  -13.6242   23.6269  -15.9414 O   0  0  0  0  0  0  0  0  0  0  0  0
  -15.5925   25.4862  -17.3821 H   0  0  0  0  0  0  0  0  0  0  0  0
 11 12  1  0  0  0
 11 10  2  0  0  0
  9 10  1  0  0  0
  9  4  1  0  0  0
 12 13  1  0  0  0
 10 14  1  0  0  0
  4  2  1  0  0  0
  4  5  1  0  0  0
 13 14  2  0  0  0
  2  1  1  0  0  0
  7  5  2  0  0  0
  5  6  1  0  0  0
  1 16  1  0  0  0
 20 18  2  0  0  0
 16 17  1  0  0  0
 19 18  1  0  0  0
 18 17  1  0  0  0
 17 22  1  0  0  0
 28 27  2  0  0  0
 22 24  1  0  0  0
 27 24  1  0  0  0
 27 26  1  0  0  0
 24 25  1  0  0  0
 26 29  1  0  0  0
 22 23  1  0  0  0
 19 21  1  0  0  0
  2  3  1  0  0  0
  6  8  1  0  0  0
 12 15  1  0  0  0
M  END
> <minimizedAffinity>
-8.41041

$$$$
5YH8_8UX_A_602


 29 29  0  0  0  0  0  0  0  0999 V2000
  -17.2992   23.8766  -20.6664 C   0  0  0  0  0  0  0  0  0  0  0  0
  -16.8766   23.4674  -19.3094 N   0  0  0  0  0  0  0  0  0  0  0  0
  -15.9275   23.8129  -19.1672 H   0  0  0  0  0  0  0  0  0  0  0  0
  -16.8720   22.0229  -19.0069 C   0  0  0  0  0  0  0  0  0  0  0  0
  -15.8357   21.1805  -19.7881 C   0  0  0  0  0  0  0  0  0  0  0  0
  -14.6894   21.6486  -19.9693 O   0  0  0  0  0  0  0  0  0  0  0  0
  -16.2102   20.0289  -20.1222 O   0  0  0  0  0  0  0  0  0  0  0  0
  -14.4897   22.5203  -19.6896 H   0  0  0  0  0  0  0  0  0  0  0  0
  -16.7794   21.8374  -17.5115 C   0  0  0  0  0  0  0  0  0  0  0  0
  -15.6789   22.7078  -16.8935 C   0  0  0  0  0  0  0  0  0  0  0  0
  -15.8955   23.4036  -15.7822 C   0  0  0  0  0  0  0  0  0  0  0  0
  -14.7905   24.0736  -15.5111 N   0  0  0  0  0  0  0  0  0  0  0  0
  -13.8747   23.7812  -16.4241 C   0  0  0  0  0  0  0  0  0  0  0  0
  -14.4247   22.9430  -17.3135 N   0  0  0  0  0  0  0  0  0  0  0  0
  -14.6667   24.6903  -14.7538 H   0  0  0  0  0  0  0  0  0  0  0  0
  -17.0472   25.3582  -20.9440 C   0  0  0  0  0  0  0  0  0  0  0  0
  -15.5836   25.6278  -21.3345 C   0  0  0  0  0  0  0  0  0  0  0  0
  -15.1278   26.7698  -20.4380 C   0  0  0  0  0  0  0  0  0  0  0  0
  -14.4642   26.4842  -19.4116 O   0  0  0  0  0  0  0  0  0  0  0  0
  -15.3254   27.9061  -20.8943 O   0  0  0  0  0  0  0  0  0  0  0  0
  -14.3722   25.5901  -19.1469 H   0  0  0  0  0  0  0  0  0  0  0  0
  -14.6462   24.4361  -21.2632 N   0  0  0  0  0  0  0  0  0  0  0  0
  -15.2075   23.6229  -21.5162 H   0  0  0  0  0  0  0  0  0  0  0  0
  -13.4073   24.3346  -22.0549 C   0  0  0  0  0  0  0  0  0  0  0  0
  -13.3391   25.4287  -23.1502 C   0  0  0  0  0  0  0  0  0  0  0  0
  -11.1045   24.3171  -21.6611 O   0  0  0  0  0  0  0  0  0  0  0  0
  -12.2083   24.3569  -21.1115 C   0  0  0  0  0  0  0  0  0  0  0  0
  -12.4109   24.4372  -19.8528 O   0  0  0  0  0  0  0  0  0  0  0  0
  -11.0478   24.2580  -22.5945 H   0  0  0  0  0  0  0  0  0  0  0  0
 11 12  1  0  0  0
 11 10  2  0  0  0
  9 10  1  0  0  0
  9  4  1  0  0  0
 12 13  1  0  0  0
 10 14  1  0  0  0
  4  2  1  0  0  0
  4  5  1  0  0  0
 13 14  2  0  0  0
  2  1  1  0  0  0
  7  5  2  0  0  0
  5  6  1  0  0  0
  1 16  1  0  0  0
 20 18  2  0  0  0
 16 17  1  0  0  0
 19 18  1  0  0  0
 18 17  1  0  0  0
 17 22  1  0  0  0
 28 27  2  0  0  0
 22 24  1  0  0  0
 27 24  1  0  0  0
 27 26  1  0  0  0
 24 25  1  0  0  0
 26 29  1  0  0  0
 22 23  1  0  0  0
 19 21  1  0  0  0
  2  3  1  0  0  0
  6  8  1  0  0  0
 12 15  1  0  0  0
M  END
> <minimizedAffinity>
-8.00766

$$$$
5YH8_8UX_A_602


 29 29  0  0  0  0  0  0  0  0999 V2000
  -16.9966   23.9661  -20.9562 C   0  0  0  0  0  0  0  0  0  0  0  0
  -16.7978   25.3018  -20.3529 N   0  0  0  0  0  0  0  0  0  0  0  0
  -17.7117   25.7513  -20.2966 H   0  0  0  0  0  0  0  0  0  0  0  0
  -15.8887   26.2325  -21.0496 C   0  0  0  0  0  0  0  0  0  0  0  0
  -14.6638   25.5816  -21.7350 C   0  0  0  0  0  0  0  0  0  0  0  0
  -14.7341   25.2927  -22.9507 O   0  0  0  0  0  0  0  0  0  0  0  0
  -13.6389   25.4609  -21.0188 O   0  0  0  0  0  0  0  0  0  0  0  0
  -15.5392   25.4126  -23.4149 H   0  0  0  0  0  0  0  0  0  0  0  0
  -16.6986   27.0990  -21.9836 C   0  0  0  0  0  0  0  0  0  0  0  0
  -16.0576   28.4769  -22.1868 C   0  0  0  0  0  0  0  0  0  0  0  0
  -16.3920   29.2453  -23.2181 C   0  0  0  0  0  0  0  0  0  0  0  0
  -15.6619   30.3434  -23.1488 N   0  0  0  0  0  0  0  0  0  0  0  0
  -14.8959   30.2836  -22.0684 C   0  0  0  0  0  0  0  0  0  0  0  0
  -15.1148   29.1066  -21.4661 N   0  0  0  0  0  0  0  0  0  0  0  0
  -15.6831   31.0861  -23.7947 H   0  0  0  0  0  0  0  0  0  0  0  0
  -17.7655   23.0120  -20.0429 C   0  0  0  0  0  0  0  0  0  0  0  0
  -16.8793   22.4615  -18.9120 C   0  0  0  0  0  0  0  0  0  0  0  0
  -16.0365   21.3681  -19.5519 C   0  0  0  0  0  0  0  0  0  0  0  0
  -16.6131   20.3107  -19.9054 O   0  0  0  0  0  0  0  0  0  0  0  0
  -14.8668   21.6901  -19.8096 O   0  0  0  0  0  0  0  0  0  0  0  0
  -17.5043   20.1583  -19.6594 H   0  0  0  0  0  0  0  0  0  0  0  0
  -16.0294   23.4819  -18.1769 N   0  0  0  0  0  0  0  0  0  0  0  0
  -16.5450   24.3608  -18.2227 H   0  0  0  0  0  0  0  0  0  0  0  0
  -15.6178   23.3272  -16.7703 C   0  0  0  0  0  0  0  0  0  0  0  0
  -15.5062   21.8344  -16.3696 C   0  0  0  0  0  0  0  0  0  0  0  0
  -14.3067   25.2455  -17.0133 O   0  0  0  0  0  0  0  0  0  0  0  0
  -14.3268   24.1069  -16.5388 C   0  0  0  0  0  0  0  0  0  0  0  0
  -13.3848   23.5623  -15.8697 O   0  0  0  0  0  0  0  0  0  0  0  0
  -15.0450   25.5664  -17.4927 H   0  0  0  0  0  0  0  0  0  0  0  0
 11 12  1  0  0  0
 11 10  2  0  0  0
  9 10  1  0  0  0
  9  4  1  0  0  0
 12 13  1  0  0  0
 10 14  1  0  0  0
  4  2  1  0  0  0
  4  5  1  0  0  0
 13 14  2  0  0  0
  2  1  1  0  0  0
  7  5  2  0  0  0
  5  6  1  0  0  0
  1 16  1  0  0  0
 20 18  2  0  0  0
 16 17  1  0  0  0
 19 18  1  0  0  0
 18 17  1  0  0  0
 17 22  1  0  0  0
 28 27  2  0  0  0
 22 24  1  0  0  0
 27 24  1  0  0  0
 27 26  1  0  0  0
 24 25  1  0  0  0
 26 29  1  0  0  0
 22 23  1  0  0  0
 19 21  1  0  0  0
  2  3  1  0  0  0
  6  8  1  0  0  0
 12 15  1  0  0  0
M  END
> <minimizedAffinity>
-7.93183

$$$$
5YH8_8UX_A_602


 29 29  0  0  0  0  0  0  0  0999 V2000
  -11.7386   24.8248  -19.5303 C   0  0  0  0  0  0  0  0  0  0  0  0
  -12.4515   24.2381  -20.6857 N   0  0  0  0  0  0  0  0  0  0  0  0
  -12.1779   23.2575  -20.7484 H   0  0  0  0  0  0  0  0  0  0  0  0
  -12.2174   24.8487  -22.0088 C   0  0  0  0  0  0  0  0  0  0  0  0
  -11.0555   24.2395  -22.8290 C   0  0  0  0  0  0  0  0  0  0  0  0
  -10.9524   22.9942  -22.8980 O   0  0  0  0  0  0  0  0  0  0  0  0
  -10.3314   25.0625  -23.4424 O   0  0  0  0  0  0  0  0  0  0  0  0
  -11.5340   22.4480  -22.4068 H   0  0  0  0  0  0  0  0  0  0  0  0
  -13.5220   24.8855  -22.7674 C   0  0  0  0  0  0  0  0  0  0  0  0
  -14.6417   25.5404  -21.9500 C   0  0  0  0  0  0  0  0  0  0  0  0
  -15.8562   25.0039  -21.8943 C   0  0  0  0  0  0  0  0  0  0  0  0
  -16.6069   25.7963  -21.1513 N   0  0  0  0  0  0  0  0  0  0  0  0
  -15.8673   26.8071  -20.7167 C   0  0  0  0  0  0  0  0  0  0  0  0
  -14.6362   26.6742  -21.2293 N   0  0  0  0  0  0  0  0  0  0  0  0
  -17.5612   25.6588  -20.9523 H   0  0  0  0  0  0  0  0  0  0  0  0
  -12.0716   24.1271  -18.2120 C   0  0  0  0  0  0  0  0  0  0  0  0
  -12.5302   25.1253  -17.1346 C   0  0  0  0  0  0  0  0  0  0  0  0
  -13.7850   24.5172  -16.5252 C   0  0  0  0  0  0  0  0  0  0  0  0
  -14.8927   25.0222  -16.8312 O   0  0  0  0  0  0  0  0  0  0  0  0
  -13.6049   23.4648  -15.8940 O   0  0  0  0  0  0  0  0  0  0  0  0
  -14.9244   25.8254  -17.3126 H   0  0  0  0  0  0  0  0  0  0  0  0
  -11.4995   25.4854  -16.0801 N   0  0  0  0  0  0  0  0  0  0  0  0
  -10.8596   24.6926  -16.0319 H   0  0  0  0  0  0  0  0  0  0  0  0
  -10.6497   26.6870  -16.1585 C   0  0  0  0  0  0  0  0  0  0  0  0
   -9.4228   26.4588  -17.0772 C   0  0  0  0  0  0  0  0  0  0  0  0
  -11.9523   28.5622  -15.6636 O   0  0  0  0  0  0  0  0  0  0  0  0
  -11.5044   27.8764  -16.5862 C   0  0  0  0  0  0  0  0  0  0  0  0
  -11.6797   28.0981  -17.8319 O   0  0  0  0  0  0  0  0  0  0  0  0
  -11.7740   28.3256  -14.7747 H   0  0  0  0  0  0  0  0  0  0  0  0
 11 12  1  0  0  0
 11 10  2  0  0  0
  9 10  1  0  0  0
  9  4  1  0  0  0
 12 13  1  0  0  0
 10 14  1  0  0  0
  4  2  1  0  0  0
  4  5  1  0  0  0
 13 14  2  0  0  0
  2  1  1  0  0  0
  7  5  2  0  0  0
  5  6  1  0  0  0
  1 16  1  0  0  0
 20 18  2  0  0  0
 16 17  1  0  0  0
 19 18  1  0  0  0
 18 17  1  0  0  0
 17 22  1  0  0  0
 28 27  2  0  0  0
 22 24  1  0  0  0
 27 24  1  0  0  0
 27 26  1  0  0  0
 24 25  1  0  0  0
 26 29  1  0  0  0
 22 23  1  0  0  0
 19 21  1  0  0  0
  2  3  1  0  0  0
  6  8  1  0  0  0
 12 15  1  0  0  0
M  END
> <minimizedAffinity>
-7.82035

$$$$
5YH8_8UX_A_602


 29 29  0  0  0  0  0  0  0  0999 V2000
  -11.7110   24.7309  -19.5140 C   0  0  0  0  0  0  0  0  0  0  0  0
  -12.4617   24.1978  -20.6716 N   0  0  0  0  0  0  0  0  0  0  0  0
  -12.2294   23.2084  -20.7577 H   0  0  0  0  0  0  0  0  0  0  0  0
  -12.2191   24.8256  -21.9850 C   0  0  0  0  0  0  0  0  0  0  0  0
  -11.0543   24.2247  -22.8072 C   0  0  0  0  0  0  0  0  0  0  0  0
  -10.9474   22.9801  -22.8835 O   0  0  0  0  0  0  0  0  0  0  0  0
  -10.3318   25.0535  -23.4148 O   0  0  0  0  0  0  0  0  0  0  0  0
  -11.5281   22.4293  -22.3963 H   0  0  0  0  0  0  0  0  0  0  0  0
  -13.5195   24.8758  -22.7500 C   0  0  0  0  0  0  0  0  0  0  0  0
  -14.6383   25.5353  -21.9351 C   0  0  0  0  0  0  0  0  0  0  0  0
  -15.8536   25.0007  -21.8774 C   0  0  0  0  0  0  0  0  0  0  0  0
  -16.6033   25.7969  -21.1375 N   0  0  0  0  0  0  0  0  0  0  0  0
  -15.8623   26.8084  -20.7067 C   0  0  0  0  0  0  0  0  0  0  0  0
  -14.6313   26.6718  -21.2187 N   0  0  0  0  0  0  0  0  0  0  0  0
  -17.5578   25.6615  -20.9380 H   0  0  0  0  0  0  0  0  0  0  0  0
  -12.6024   25.4786  -18.5232 C   0  0  0  0  0  0  0  0  0  0  0  0
  -12.9067   24.6332  -17.2741 C   0  0  0  0  0  0  0  0  0  0  0  0
  -11.8309   25.0011  -16.2627 C   0  0  0  0  0  0  0  0  0  0  0  0
  -11.5799   26.2182  -16.0860 O   0  0  0  0  0  0  0  0  0  0  0  0
  -11.4033   24.0552  -15.5839 O   0  0  0  0  0  0  0  0  0  0  0  0
  -11.9534   26.8612  -16.6562 H   0  0  0  0  0  0  0  0  0  0  0  0
  -14.3042   24.7756  -16.6993 N   0  0  0  0  0  0  0  0  0  0  0  0
  -14.7682   25.4869  -17.2642 H   0  0  0  0  0  0  0  0  0  0  0  0
  -15.2550   23.6538  -16.6005 C   0  0  0  0  0  0  0  0  0  0  0  0
  -14.9322   22.5404  -17.6288 C   0  0  0  0  0  0  0  0  0  0  0  0
  -14.7361   22.0593  -14.9737 O   0  0  0  0  0  0  0  0  0  0  0  0
  -15.2840   23.1487  -15.1610 C   0  0  0  0  0  0  0  0  0  0  0  0
  -15.8336   23.8702  -14.2615 O   0  0  0  0  0  0  0  0  0  0  0  0
  -14.3569   21.5957  -15.6942 H   0  0  0  0  0  0  0  0  0  0  0  0
 11 12  1  0  0  0
 11 10  2  0  0  0
  9 10  1  0  0  0
  9  4  1  0  0  0
 12 13  1  0  0  0
 10 14  1  0  0  0
  4  2  1  0  0  0
  4  5  1  0  0  0
 13 14  2  0  0  0
  2  1  1  0  0  0
  7  5  2  0  0  0
  5  6  1  0  0  0
  1 16  1  0  0  0
 20 18  2  0  0  0
 16 17  1  0  0  0
 19 18  1  0  0  0
 18 17  1  0  0  0
 17 22  1  0  0  0
 28 27  2  0  0  0
 22 24  1  0  0  0
 27 24  1  0  0  0
 27 26  1  0  0  0
 24 25  1  0  0  0
 26 29  1  0  0  0
 22 23  1  0  0  0
 19 21  1  0  0  0
  2  3  1  0  0  0
  6  8  1  0  0  0
 12 15  1  0  0  0
M  END
> <minimizedAffinity>
-7.51101

$$$$
5YH8_8UX_A_602


 29 29  0  0  0  0  0  0  0  0999 V2000
  -11.4702   24.5538  -19.4921 C   0  0  0  0  0  0  0  0  0  0  0  0
  -12.3937   24.1636  -20.5795 N   0  0  0  0  0  0  0  0  0  0  0  0
  -12.3006   23.1568  -20.7136 H   0  0  0  0  0  0  0  0  0  0  0  0
  -12.2027   24.8051  -21.8948 C   0  0  0  0  0  0  0  0  0  0  0  0
  -11.0439   24.2408  -22.7508 C   0  0  0  0  0  0  0  0  0  0  0  0
  -10.8754   23.0017  -22.7983 O   0  0  0  0  0  0  0  0  0  0  0  0
  -10.3920   25.0874  -23.4113 O   0  0  0  0  0  0  0  0  0  0  0  0
  -11.4055   22.4363  -22.2716 H   0  0  0  0  0  0  0  0  0  0  0  0
  -13.5236   24.8240  -22.6255 C   0  0  0  0  0  0  0  0  0  0  0  0
  -14.6212   25.5137  -21.8067 C   0  0  0  0  0  0  0  0  0  0  0  0
  -15.9035   25.2158  -21.9875 C   0  0  0  0  0  0  0  0  0  0  0  0
  -16.6079   25.9823  -21.1752 N   0  0  0  0  0  0  0  0  0  0  0  0
  -15.7782   26.7354  -20.4664 C   0  0  0  0  0  0  0  0  0  0  0  0
  -14.5275   26.4705  -20.8683 N   0  0  0  0  0  0  0  0  0  0  0  0
  -17.5900   25.9929  -21.1068 H   0  0  0  0  0  0  0  0  0  0  0  0
  -12.1144   25.4983  -18.4779 C   0  0  0  0  0  0  0  0  0  0  0  0
  -11.0958   26.0131  -17.4460 C   0  0  0  0  0  0  0  0  0  0  0  0
  -11.5968   27.3891  -17.0322 C   0  0  0  0  0  0  0  0  0  0  0  0
  -11.5884   27.6761  -15.8103 O   0  0  0  0  0  0  0  0  0  0  0  0
  -11.8258   28.1680  -17.9699 O   0  0  0  0  0  0  0  0  0  0  0  0
  -11.4032   27.0132  -15.1746 H   0  0  0  0  0  0  0  0  0  0  0  0
  -10.8475   25.1118  -16.2502 N   0  0  0  0  0  0  0  0  0  0  0  0
  -11.4250   24.2842  -16.3988 H   0  0  0  0  0  0  0  0  0  0  0  0
   -9.5117   24.6117  -15.8793 C   0  0  0  0  0  0  0  0  0  0  0  0
   -8.5236   24.6866  -17.0707 C   0  0  0  0  0  0  0  0  0  0  0  0
   -8.5874   24.6567  -13.7341 O   0  0  0  0  0  0  0  0  0  0  0  0
   -9.0208   25.3650  -14.6466 C   0  0  0  0  0  0  0  0  0  0  0  0
   -9.0636   26.6416  -14.6420 O   0  0  0  0  0  0  0  0  0  0  0  0
   -8.5939   23.7238  -13.8218 H   0  0  0  0  0  0  0  0  0  0  0  0
 11 12  1  0  0  0
 11 10  2  0  0  0
  9 10  1  0  0  0
  9  4  1  0  0  0
 12 13  1  0  0  0
 10 14  1  0  0  0
  4  2  1  0  0  0
  4  5  1  0  0  0
 13 14  2  0  0  0
  2  1  1  0  0  0
  7  5  2  0  0  0
  5  6  1  0  0  0
  1 16  1  0  0  0
 20 18  2  0  0  0
 16 17  1  0  0  0
 19 18  1  0  0  0
 18 17  1  0  0  0
 17 22  1  0  0  0
 28 27  2  0  0  0
 22 24  1  0  0  0
 27 24  1  0  0  0
 27 26  1  0  0  0
 24 25  1  0  0  0
 26 29  1  0  0  0
 22 23  1  0  0  0
 19 21  1  0  0  0
  2  3  1  0  0  0
  6  8  1  0  0  0
 12 15  1  0  0  0
M  END
> <minimizedAffinity>
-7.37099

$$$$
5YH8_8UX_A_602


 29 29  0  0  0  0  0  0  0  0999 V2000
  -14.0495   25.0988  -22.4555 C   0  0  0  0  0  0  0  0  0  0  0  0
  -13.2032   25.1833  -21.2455 N   0  0  0  0  0  0  0  0  0  0  0  0
  -12.8917   26.1505  -21.1567 H   0  0  0  0  0  0  0  0  0  0  0  0
  -12.0034   24.3253  -21.1954 C   0  0  0  0  0  0  0  0  0  0  0  0
  -11.2664   24.1288  -22.5415 C   0  0  0  0  0  0  0  0  0  0  0  0
  -11.0608   22.9653  -22.9537 O   0  0  0  0  0  0  0  0  0  0  0  0
  -10.9926   25.1806  -23.1715 O   0  0  0  0  0  0  0  0  0  0  0  0
  -11.2948   22.2311  -22.4205 H   0  0  0  0  0  0  0  0  0  0  0  0
  -11.0983   24.8154  -20.0910 C   0  0  0  0  0  0  0  0  0  0  0  0
  -11.8269   24.8896  -18.7439 C   0  0  0  0  0  0  0  0  0  0  0  0
  -11.6321   25.9075  -17.9122 C   0  0  0  0  0  0  0  0  0  0  0  0
  -12.3598   25.6841  -16.8334 N   0  0  0  0  0  0  0  0  0  0  0  0
  -13.0312   24.5521  -16.9937 C   0  0  0  0  0  0  0  0  0  0  0  0
  -12.6890   24.0281  -18.1788 N   0  0  0  0  0  0  0  0  0  0  0  0
  -12.3978   26.2640  -16.0387 H   0  0  0  0  0  0  0  0  0  0  0  0
  -15.5398   25.2384  -22.1472 C   0  0  0  0  0  0  0  0  0  0  0  0
  -15.8768   26.6191  -21.5578 C   0  0  0  0  0  0  0  0  0  0  0  0
  -15.6980   26.4734  -20.0537 C   0  0  0  0  0  0  0  0  0  0  0  0
  -16.4659   25.6910  -19.4423 O   0  0  0  0  0  0  0  0  0  0  0  0
  -14.6939   27.0329  -19.5879 O   0  0  0  0  0  0  0  0  0  0  0  0
  -17.2027   25.3171  -19.8842 H   0  0  0  0  0  0  0  0  0  0  0  0
  -15.0894   27.7904  -22.1162 N   0  0  0  0  0  0  0  0  0  0  0  0
  -14.3778   27.3850  -22.7242 H   0  0  0  0  0  0  0  0  0  0  0  0
  -15.7063   28.8835  -22.8886 C   0  0  0  0  0  0  0  0  0  0  0  0
  -17.2524   28.8509  -22.7881 C   0  0  0  0  0  0  0  0  0  0  0  0
  -15.2314   31.1438  -23.2402 O   0  0  0  0  0  0  0  0  0  0  0  0
  -15.1055   30.2127  -22.4407 C   0  0  0  0  0  0  0  0  0  0  0  0
  -14.5482   30.2862  -21.2937 O   0  0  0  0  0  0  0  0  0  0  0  0
  -15.6555   31.0005  -24.0633 H   0  0  0  0  0  0  0  0  0  0  0  0
 11 12  1  0  0  0
 11 10  2  0  0  0
  9 10  1  0  0  0
  9  4  1  0  0  0
 12 13  1  0  0  0
 10 14  1  0  0  0
  4  2  1  0  0  0
  4  5  1  0  0  0
 13 14  2  0  0  0
  2  1  1  0  0  0
  7  5  2  0  0  0
  5  6  1  0  0  0
  1 16  1  0  0  0
 20 18  2  0  0  0
 16 17  1  0  0  0
 19 18  1  0  0  0
 18 17  1  0  0  0
 17 22  1  0  0  0
 28 27  2  0  0  0
 22 24  1  0  0  0
 27 24  1  0  0  0
 27 26  1  0  0  0
 24 25  1  0  0  0
 26 29  1  0  0  0
 22 23  1  0  0  0
 19 21  1  0  0  0
  2  3  1  0  0  0
  6  8  1  0  0  0
 12 15  1  0  0  0
M  END
> <minimizedAffinity>
-7.06656

$$$$
5YH8_8UX_A_602


 29 29  0  0  0  0  0  0  0  0999 V2000
  -13.9977   24.8165  -17.1347 C   0  0  0  0  0  0  0  0  0  0  0  0
  -13.2356   25.5564  -18.1639 N   0  0  0  0  0  0  0  0  0  0  0  0
  -13.8998   25.8648  -18.8739 H   0  0  0  0  0  0  0  0  0  0  0  0
  -12.1513   24.8331  -18.8562 C   0  0  0  0  0  0  0  0  0  0  0  0
  -12.2604   24.7839  -20.3988 C   0  0  0  0  0  0  0  0  0  0  0  0
  -11.3069   24.3114  -21.0573 O   0  0  0  0  0  0  0  0  0  0  0  0
  -13.3581   25.1604  -20.8797 O   0  0  0  0  0  0  0  0  0  0  0  0
  -10.5187   24.0533  -20.6212 H   0  0  0  0  0  0  0  0  0  0  0  0
  -10.8235   25.3648  -18.3732 C   0  0  0  0  0  0  0  0  0  0  0  0
  -10.9956   26.5369  -17.4000 C   0  0  0  0  0  0  0  0  0  0  0  0
  -10.7168   26.4040  -16.1075 C   0  0  0  0  0  0  0  0  0  0  0  0
  -10.9889   27.5557  -15.5218 N   0  0  0  0  0  0  0  0  0  0  0  0
  -11.4065   28.4171  -16.4390 C   0  0  0  0  0  0  0  0  0  0  0  0
  -11.4395   27.7856  -17.6205 N   0  0  0  0  0  0  0  0  0  0  0  0
  -10.8967   27.7441  -14.5599 H   0  0  0  0  0  0  0  0  0  0  0  0
  -13.7089   23.3158  -17.1482 C   0  0  0  0  0  0  0  0  0  0  0  0
  -14.9962   22.4827  -17.0216 C   0  0  0  0  0  0  0  0  0  0  0  0
  -15.3944   22.5706  -15.5556 C   0  0  0  0  0  0  0  0  0  0  0  0
  -16.4912   23.1123  -15.2745 O   0  0  0  0  0  0  0  0  0  0  0  0
  -14.6578   21.9505  -14.7737 O   0  0  0  0  0  0  0  0  0  0  0  0
  -16.9765   23.5603  -15.9392 H   0  0  0  0  0  0  0  0  0  0  0  0
  -16.1341   22.8727  -17.9473 N   0  0  0  0  0  0  0  0  0  0  0  0
  -15.7979   23.6734  -18.4823 H   0  0  0  0  0  0  0  0  0  0  0  0
  -16.7278   21.9496  -18.9309 C   0  0  0  0  0  0  0  0  0  0  0  0
  -17.6393   22.6970  -19.9368 C   0  0  0  0  0  0  0  0  0  0  0  0
  -14.7613   21.8349  -20.1869 O   0  0  0  0  0  0  0  0  0  0  0  0
  -15.6137   21.1567  -19.6078 C   0  0  0  0  0  0  0  0  0  0  0  0
  -15.6162   19.8825  -19.5174 O   0  0  0  0  0  0  0  0  0  0  0  0
  -14.8379   22.7686  -20.2043 H   0  0  0  0  0  0  0  0  0  0  0  0
 11 12  1  0  0  0
 11 10  2  0  0  0
  9 10  1  0  0  0
  9  4  1  0  0  0
 12 13  1  0  0  0
 10 14  1  0  0  0
  4  2  1  0  0  0
  4  5  1  0  0  0
 13 14  2  0  0  0
  2  1  1  0  0  0
  7  5  2  0  0  0
  5  6  1  0  0  0
  1 16  1  0  0  0
 20 18  2  0  0  0
 16 17  1  0  0  0
 19 18  1  0  0  0
 18 17  1  0  0  0
 17 22  1  0  0  0
 28 27  2  0  0  0
 22 24  1  0  0  0
 27 24  1  0  0  0
 27 26  1  0  0  0
 24 25  1  0  0  0
 26 29  1  0  0  0
 22 23  1  0  0  0
 19 21  1  0  0  0
  2  3  1  0  0  0
  6  8  1  0  0  0
 12 15  1  0  0  0
M  END
> <minimizedAffinity>
-7.01169

$$$$
5YH8_8UX_A_602


 29 29  0  0  0  0  0  0  0  0999 V2000
  -12.6158   24.2092  -16.5647 C   0  0  0  0  0  0  0  0  0  0  0  0
  -11.8800   25.4137  -16.1227 N   0  0  0  0  0  0  0  0  0  0  0  0
  -12.5658   26.0741  -15.7567 H   0  0  0  0  0  0  0  0  0  0  0  0
  -11.0748   26.1261  -17.1337 C   0  0  0  0  0  0  0  0  0  0  0  0
  -11.2716   27.6599  -17.1842 C   0  0  0  0  0  0  0  0  0  0  0  0
  -10.6569   28.3755  -16.3619 O   0  0  0  0  0  0  0  0  0  0  0  0
  -11.9919   28.0863  -18.1208 O   0  0  0  0  0  0  0  0  0  0  0  0
  -10.1388   27.9777  -15.6900 H   0  0  0  0  0  0  0  0  0  0  0  0
   -9.6289   25.7195  -16.9816 C   0  0  0  0  0  0  0  0  0  0  0  0
   -9.2350   25.5439  -15.5103 C   0  0  0  0  0  0  0  0  0  0  0  0
   -8.7987   24.3761  -15.0501 C   0  0  0  0  0  0  0  0  0  0  0  0
   -8.5707   24.5186  -13.7573 N   0  0  0  0  0  0  0  0  0  0  0  0
   -8.8311   25.7712  -13.4097 C   0  0  0  0  0  0  0  0  0  0  0  0
   -9.2726   26.4224  -14.4946 N   0  0  0  0  0  0  0  0  0  0  0  0
   -8.2581   23.8096  -13.1501 H   0  0  0  0  0  0  0  0  0  0  0  0
  -14.1030   24.4747  -16.7957 C   0  0  0  0  0  0  0  0  0  0  0  0
  -14.9025   23.1686  -16.9446 C   0  0  0  0  0  0  0  0  0  0  0  0
  -15.2598   22.7472  -15.5267 C   0  0  0  0  0  0  0  0  0  0  0  0
  -14.6575   21.7614  -15.0357 O   0  0  0  0  0  0  0  0  0  0  0  0
  -16.0145   23.5243  -14.9227 O   0  0  0  0  0  0  0  0  0  0  0  0
  -14.1063   21.2317  -15.5776 H   0  0  0  0  0  0  0  0  0  0  0  0
  -16.1221   23.2348  -17.8457 N   0  0  0  0  0  0  0  0  0  0  0  0
  -15.9160   23.9494  -18.5437 H   0  0  0  0  0  0  0  0  0  0  0  0
  -16.6370   22.0746  -18.5945 C   0  0  0  0  0  0  0  0  0  0  0  0
  -17.7806   22.4799  -19.5587 C   0  0  0  0  0  0  0  0  0  0  0  0
  -15.4514   20.1523  -19.1921 O   0  0  0  0  0  0  0  0  0  0  0  0
  -15.4763   21.3809  -19.3013 C   0  0  0  0  0  0  0  0  0  0  0  0
  -14.6412   22.0868  -19.9616 O   0  0  0  0  0  0  0  0  0  0  0  0
  -16.1066   19.7136  -18.6859 H   0  0  0  0  0  0  0  0  0  0  0  0
 11 12  1  0  0  0
 11 10  2  0  0  0
  9 10  1  0  0  0
  9  4  1  0  0  0
 12 13  1  0  0  0
 10 14  1  0  0  0
  4  2  1  0  0  0
  4  5  1  0  0  0
 13 14  2  0  0  0
  2  1  1  0  0  0
  7  5  2  0  0  0
  5  6  1  0  0  0
  1 16  1  0  0  0
 20 18  2  0  0  0
 16 17  1  0  0  0
 19 18  1  0  0  0
 18 17  1  0  0  0
 17 22  1  0  0  0
 28 27  2  0  0  0
 22 24  1  0  0  0
 27 24  1  0  0  0
 27 26  1  0  0  0
 24 25  1  0  0  0
 26 29  1  0  0  0
 22 23  1  0  0  0
 19 21  1  0  0  0
  2  3  1  0  0  0
  6  8  1  0  0  0
 12 15  1  0  0  0
M  END
> <minimizedAffinity>
-6.70256

$$$$
