5DXT_5H5_A_1101


 30 33  0  0  0  0  0  0  0  0999 V2000
  -18.1846   15.7353   31.3496 C   0  0  0  0  0  0  0  0  0  0  0  0
  -14.4117   16.1088   28.5037 C   0  0  0  0  0  0  0  0  0  0  0  0
  -14.3114   12.6453   27.1403 C   0  0  0  0  0  0  0  0  0  0  0  0
  -15.3642   11.7880   27.2068 C   0  0  0  0  0  0  0  0  0  0  0  0
  -15.8133   13.4577   28.5449 C   0  0  0  0  0  0  0  0  0  0  0  0
  -16.5777   14.2945   29.5226 C   0  0  0  0  0  0  0  0  0  0  0  0
  -18.6454   14.5530   30.7572 C   0  0  0  0  0  0  0  0  0  0  0  0
  -16.9077   16.1907   31.0162 C   0  0  0  0  0  0  0  0  0  0  0  0
  -16.0989   15.5013   30.1215 C   0  0  0  0  0  0  0  0  0  0  0  0
  -14.8768   16.0013   29.8439 O   0  0  0  0  0  0  0  0  0  0  0  0
  -13.6733   14.8272   28.1680 C   0  0  0  0  0  0  0  0  0  0  0  0
  -14.5721   13.6952   27.9606 N   0  0  0  0  0  0  0  0  0  0  0  0
  -16.2395   12.3241   28.0656 N   0  0  0  0  0  0  0  0  0  0  0  0
  -17.8586   13.8552   29.8676 C   0  0  0  0  0  0  0  0  0  0  0  0
  -15.1881    9.0636   24.8849 C   0  0  0  0  0  0  0  0  0  0  0  0
  -15.4913   10.5117   26.4695 C   0  0  0  0  0  0  0  0  0  0  0  0
  -14.9139   10.2879   25.3092 N   0  0  0  0  0  0  0  0  0  0  0  0
  -15.9458    8.4712   25.7647 N   0  0  0  0  0  0  0  0  0  0  0  0
  -16.1620    9.3776   26.8153 N   0  0  0  0  0  0  0  0  0  0  0  0
  -16.9782    9.0817   28.0043 C   0  0  0  0  0  0  0  0  0  0  0  0
  -16.9009    7.5894   28.3313 C   0  0  0  0  0  0  0  0  0  0  0  0
  -18.4316    9.4440   27.6980 C   0  0  0  0  0  0  0  0  0  0  0  0
  -18.9128   16.4827   32.2453 O   0  0  0  0  0  0  0  0  0  0  0  0
  -20.1374   16.0245   32.8537 C   0  0  0  0  0  0  0  0  0  0  0  0
  -20.1572   16.4087   34.3366 C   0  0  0  0  0  0  0  0  0  0  0  0
  -21.3404   16.6187   32.1542 C   0  0  0  0  0  0  0  0  0  0  0  0
  -21.1909   17.6439   31.2927 N   0  0  0  0  0  0  0  0  0  0  0  0
  -22.4431   16.1456   32.3409 O   0  0  0  0  0  0  0  0  0  0  0  0
  -21.9777   18.0259   30.8409 H   0  0  0  0  0  0  0  0  0  0  0  0
  -20.2947   18.0109   31.1151 H   0  0  0  0  0  0  0  0  0  0  0  0
 15 17  1  0  0  0
 15 18  2  0  0  0
 17 16  2  0  0  0
 18 19  1  0  0  0
 16 19  1  0  0  0
 16  4  1  0  0  0
 19 20  1  0  0  0
 22 20  1  0  0  0
  3  4  2  0  0  0
  3 12  1  0  0  0
  4 13  1  0  0  0
 20 21  1  0  0  0
 12 11  1  0  0  0
 12  5  1  0  0  0
 13  5  2  0  0  0
 11  2  1  0  0  0
  2 10  1  0  0  0
  5  6  1  0  0  0
  6 14  2  0  0  0
  6  9  1  0  0  0
 10  9  1  0  0  0
 14  7  1  0  0  0
  9  8  2  0  0  0
 27 26  1  0  0  0
  7  1  2  0  0  0
  8  1  1  0  0  0
  1 23  1  0  0  0
 26 28  2  0  0  0
 26 24  1  0  0  0
 23 24  1  0  0  0
 24 25  1  0  0  0
 27 29  1  0  0  0
 27 30  1  0  0  0
M  END
> <minimizedAffinity>
-9.55529

$$$$
5DXT_5H5_A_1101


 30 33  0  0  0  0  0  0  0  0999 V2000
  -17.0999   10.6082   27.0448 C   0  0  0  0  0  0  0  0  0  0  0  0
  -13.7776   13.7021   28.4100 C   0  0  0  0  0  0  0  0  0  0  0  0
  -15.8775   16.0279   30.4214 C   0  0  0  0  0  0  0  0  0  0  0  0
  -17.1147   15.7043   30.8825 C   0  0  0  0  0  0  0  0  0  0  0  0
  -16.5636   14.1855   29.4096 C   0  0  0  0  0  0  0  0  0  0  0  0
  -16.6848   12.9618   28.5561 C   0  0  0  0  0  0  0  0  0  0  0  0
  -18.0316   11.0262   28.0029 C   0  0  0  0  0  0  0  0  0  0  0  0
  -15.9543   11.3823   26.8512 C   0  0  0  0  0  0  0  0  0  0  0  0
  -15.7271   12.5425   27.5808 C   0  0  0  0  0  0  0  0  0  0  0  0
  -14.5968   13.2398   27.3427 O   0  0  0  0  0  0  0  0  0  0  0  0
  -14.2461   15.0964   28.7798 C   0  0  0  0  0  0  0  0  0  0  0  0
  -15.5118   15.0925   29.5079 N   0  0  0  0  0  0  0  0  0  0  0  0
  -17.4812   14.5881   30.2415 N   0  0  0  0  0  0  0  0  0  0  0  0
  -17.8244   12.1735   28.7366 C   0  0  0  0  0  0  0  0  0  0  0  0
  -18.3064   17.9623   33.3976 C   0  0  0  0  0  0  0  0  0  0  0  0
  -17.8891   16.4598   31.8916 C   0  0  0  0  0  0  0  0  0  0  0  0
  -17.3934   17.4681   32.5752 N   0  0  0  0  0  0  0  0  0  0  0  0
  -19.4112   17.2846   33.2591 N   0  0  0  0  0  0  0  0  0  0  0  0
  -19.1840   16.3004   32.2833 N   0  0  0  0  0  0  0  0  0  0  0  0
  -20.1954   15.3237   31.8467 C   0  0  0  0  0  0  0  0  0  0  0  0
  -20.8220   15.7771   30.5270 C   0  0  0  0  0  0  0  0  0  0  0  0
  -21.2898   15.2491   32.9116 C   0  0  0  0  0  0  0  0  0  0  0  0
  -17.2404    9.4766   26.2761 O   0  0  0  0  0  0  0  0  0  0  0  0
  -16.3327    8.3575   26.3342 C   0  0  0  0  0  0  0  0  0  0  0  0
  -16.6804    7.4671   27.5313 C   0  0  0  0  0  0  0  0  0  0  0  0
  -16.3955    7.5475   25.0576 C   0  0  0  0  0  0  0  0  0  0  0  0
  -15.3099    7.4347   24.2675 N   0  0  0  0  0  0  0  0  0  0  0  0
  -17.4187    6.9645   24.7612 O   0  0  0  0  0  0  0  0  0  0  0  0
  -15.3574    6.9062   23.4382 H   0  0  0  0  0  0  0  0  0  0  0  0
  -14.4692    7.8809   24.5194 H   0  0  0  0  0  0  0  0  0  0  0  0
 15 17  1  0  0  0
 15 18  2  0  0  0
 17 16  2  0  0  0
 18 19  1  0  0  0
 16 19  1  0  0  0
 16  4  1  0  0  0
 19 20  1  0  0  0
 22 20  1  0  0  0
  3  4  2  0  0  0
  3 12  1  0  0  0
  4 13  1  0  0  0
 20 21  1  0  0  0
 12 11  1  0  0  0
 12  5  1  0  0  0
 13  5  2  0  0  0
 11  2  1  0  0  0
  2 10  1  0  0  0
  5  6  1  0  0  0
  6 14  2  0  0  0
  6  9  1  0  0  0
 10  9  1  0  0  0
 14  7  1  0  0  0
  9  8  2  0  0  0
 27 26  1  0  0  0
  7  1  2  0  0  0
  8  1  1  0  0  0
  1 23  1  0  0  0
 26 28  2  0  0  0
 26 24  1  0  0  0
 23 24  1  0  0  0
 24 25  1  0  0  0
 27 29  1  0  0  0
 27 30  1  0  0  0
M  END
> <minimizedAffinity>
-8.64240

$$$$
5DXT_5H5_A_1101


 30 33  0  0  0  0  0  0  0  0999 V2000
  -18.7639   17.0006   33.0857 C   0  0  0  0  0  0  0  0  0  0  0  0
  -15.6002   16.1766   29.6527 C   0  0  0  0  0  0  0  0  0  0  0  0
  -16.9530   12.9779   28.3100 C   0  0  0  0  0  0  0  0  0  0  0  0
  -18.2176   12.5432   28.5545 C   0  0  0  0  0  0  0  0  0  0  0  0
  -17.8281   14.1895   29.9394 C   0  0  0  0  0  0  0  0  0  0  0  0
  -18.0817   15.1876   31.0257 C   0  0  0  0  0  0  0  0  0  0  0  0
  -19.7016   16.0896   32.5841 C   0  0  0  0  0  0  0  0  0  0  0  0
  -17.4775   16.9952   32.5431 C   0  0  0  0  0  0  0  0  0  0  0  0
  -17.1175   16.1148   31.5306 C   0  0  0  0  0  0  0  0  0  0  0  0
  -15.8571   16.1674   31.0519 O   0  0  0  0  0  0  0  0  0  0  0  0
  -15.4281   14.7373   29.2063 C   0  0  0  0  0  0  0  0  0  0  0  0
  -16.6913   14.0066   29.1565 N   0  0  0  0  0  0  0  0  0  0  0  0
  -18.6990   13.3058   29.5433 N   0  0  0  0  0  0  0  0  0  0  0  0
  -19.3642   15.2087   31.5803 C   0  0  0  0  0  0  0  0  0  0  0  0
  -20.4010   10.4397   26.6433 C   0  0  0  0  0  0  0  0  0  0  0  0
  -18.9040   11.4349   27.8551 C   0  0  0  0  0  0  0  0  0  0  0  0
  -20.0153   11.5923   27.1695 N   0  0  0  0  0  0  0  0  0  0  0  0
  -19.5444    9.5153   26.9763 N   0  0  0  0  0  0  0  0  0  0  0  0
  -18.5504   10.1228   27.7606 N   0  0  0  0  0  0  0  0  0  0  0  0
  -17.4022    9.4043   28.3377 C   0  0  0  0  0  0  0  0  0  0  0  0
  -16.1678    9.6010   27.4562 C   0  0  0  0  0  0  0  0  0  0  0  0
  -17.7382    7.9137   28.3891 C   0  0  0  0  0  0  0  0  0  0  0  0
  -19.0288   17.9068   34.0855 O   0  0  0  0  0  0  0  0  0  0  0  0
  -18.2561   19.1058   34.2978 C   0  0  0  0  0  0  0  0  0  0  0  0
  -19.1916   20.3127   34.4212 C   0  0  0  0  0  0  0  0  0  0  0  0
  -17.4081   18.9851   35.5451 C   0  0  0  0  0  0  0  0  0  0  0  0
  -17.1350   17.7743   36.0696 N   0  0  0  0  0  0  0  0  0  0  0  0
  -16.9392   19.9818   36.0563 O   0  0  0  0  0  0  0  0  0  0  0  0
  -16.5826   17.7026   36.8813 H   0  0  0  0  0  0  0  0  0  0  0  0
  -17.4880   16.9613   35.6410 H   0  0  0  0  0  0  0  0  0  0  0  0
 15 17  1  0  0  0
 15 18  2  0  0  0
 17 16  2  0  0  0
 18 19  1  0  0  0
 16 19  1  0  0  0
 16  4  1  0  0  0
 19 20  1  0  0  0
 22 20  1  0  0  0
  3  4  2  0  0  0
  3 12  1  0  0  0
  4 13  1  0  0  0
 20 21  1  0  0  0
 12 11  1  0  0  0
 12  5  1  0  0  0
 13  5  2  0  0  0
 11  2  1  0  0  0
  2 10  1  0  0  0
  5  6  1  0  0  0
  6 14  2  0  0  0
  6  9  1  0  0  0
 10  9  1  0  0  0
 14  7  1  0  0  0
  9  8  2  0  0  0
 27 26  1  0  0  0
  7  1  2  0  0  0
  8  1  1  0  0  0
  1 23  1  0  0  0
 26 28  2  0  0  0
 26 24  1  0  0  0
 23 24  1  0  0  0
 24 25  1  0  0  0
 27 29  1  0  0  0
 27 30  1  0  0  0
M  END
> <minimizedAffinity>
-8.52814

$$$$
5DXT_5H5_A_1101


 30 33  0  0  0  0  0  0  0  0999 V2000
  -17.3724   16.4160   31.4745 C   0  0  0  0  0  0  0  0  0  0  0  0
  -14.2384   14.7915   28.3103 C   0  0  0  0  0  0  0  0  0  0  0  0
  -15.9448   11.6396   27.3011 C   0  0  0  0  0  0  0  0  0  0  0  0
  -17.2609   11.3963   27.5390 C   0  0  0  0  0  0  0  0  0  0  0  0
  -16.7073   13.1422   28.7328 C   0  0  0  0  0  0  0  0  0  0  0  0
  -16.8645   14.2912   29.6792 C   0  0  0  0  0  0  0  0  0  0  0  0
  -18.4026   15.5709   31.0441 C   0  0  0  0  0  0  0  0  0  0  0  0
  -16.0815   16.1863   30.9947 C   0  0  0  0  0  0  0  0  0  0  0  0
  -15.8061   15.1494   30.1121 C   0  0  0  0  0  0  0  0  0  0  0  0
  -14.5356   14.9879   29.6875 O   0  0  0  0  0  0  0  0  0  0  0  0
  -14.2368   13.2977   28.0477 C   0  0  0  0  0  0  0  0  0  0  0  0
  -15.5802   12.7260   28.0292 N   0  0  0  0  0  0  0  0  0  0  0  0
  -17.6710   12.3289   28.4068 N   0  0  0  0  0  0  0  0  0  0  0  0
  -18.1499   14.5374   30.1692 C   0  0  0  0  0  0  0  0  0  0  0  0
  -19.7650    9.3198   26.0347 C   0  0  0  0  0  0  0  0  0  0  0  0
  -18.0611   10.3015   26.9474 C   0  0  0  0  0  0  0  0  0  0  0  0
  -19.2964   10.4579   26.5238 N   0  0  0  0  0  0  0  0  0  0  0  0
  -18.8400    8.4062   26.1300 N   0  0  0  0  0  0  0  0  0  0  0  0
  -17.7121    9.0057   26.7135 N   0  0  0  0  0  0  0  0  0  0  0  0
  -16.4538    8.2950   26.9950 C   0  0  0  0  0  0  0  0  0  0  0  0
  -15.9782    7.5606   25.7404 C   0  0  0  0  0  0  0  0  0  0  0  0
  -16.7123    7.2687   28.0983 C   0  0  0  0  0  0  0  0  0  0  0  0
  -17.5499   17.4651   32.3457 O   0  0  0  0  0  0  0  0  0  0  0  0
  -18.0592   17.3091   33.6857 C   0  0  0  0  0  0  0  0  0  0  0  0
  -17.1982   18.1116   34.6664 C   0  0  0  0  0  0  0  0  0  0  0  0
  -19.4980   17.7699   33.7712 C   0  0  0  0  0  0  0  0  0  0  0  0
  -19.7900   19.0831   33.8468 N   0  0  0  0  0  0  0  0  0  0  0  0
  -20.3972   16.9547   33.7339 O   0  0  0  0  0  0  0  0  0  0  0  0
  -20.7282   19.3764   33.9022 H   0  0  0  0  0  0  0  0  0  0  0  0
  -19.0652   19.7494   33.8467 H   0  0  0  0  0  0  0  0  0  0  0  0
 15 17  1  0  0  0
 15 18  2  0  0  0
 17 16  2  0  0  0
 18 19  1  0  0  0
 16 19  1  0  0  0
 16  4  1  0  0  0
 19 20  1  0  0  0
 22 20  1  0  0  0
  3  4  2  0  0  0
  3 12  1  0  0  0
  4 13  1  0  0  0
 20 21  1  0  0  0
 12 11  1  0  0  0
 12  5  1  0  0  0
 13  5  2  0  0  0
 11  2  1  0  0  0
  2 10  1  0  0  0
  5  6  1  0  0  0
  6 14  2  0  0  0
  6  9  1  0  0  0
 10  9  1  0  0  0
 14  7  1  0  0  0
  9  8  2  0  0  0
 27 26  1  0  0  0
  7  1  2  0  0  0
  8  1  1  0  0  0
  1 23  1  0  0  0
 26 28  2  0  0  0
 26 24  1  0  0  0
 23 24  1  0  0  0
 24 25  1  0  0  0
 27 29  1  0  0  0
 27 30  1  0  0  0
M  END
> <minimizedAffinity>
-8.40779

$$$$
5DXT_5H5_A_1101


 30 33  0  0  0  0  0  0  0  0999 V2000
  -17.3500   16.2944   31.2782 C   0  0  0  0  0  0  0  0  0  0  0  0
  -14.0555   15.1603   28.0636 C   0  0  0  0  0  0  0  0  0  0  0  0
  -15.1403   11.6918   27.2530 C   0  0  0  0  0  0  0  0  0  0  0  0
  -16.3753   11.2088   27.5519 C   0  0  0  0  0  0  0  0  0  0  0  0
  -16.1390   13.0844   28.6501 C   0  0  0  0  0  0  0  0  0  0  0  0
  -16.4898   14.2251   29.5536 C   0  0  0  0  0  0  0  0  0  0  0  0
  -18.2070   15.2452   30.9236 C   0  0  0  0  0  0  0  0  0  0  0  0
  -16.0543   16.2974   30.7581 C   0  0  0  0  0  0  0  0  0  0  0  0
  -15.6077   15.2927   29.9091 C   0  0  0  0  0  0  0  0  0  0  0  0
  -14.3436   15.3612   29.4422 O   0  0  0  0  0  0  0  0  0  0  0  0
  -13.7688   13.6845   27.8631 C   0  0  0  0  0  0  0  0  0  0  0  0
  -14.9740   12.8621   27.9208 N   0  0  0  0  0  0  0  0  0  0  0  0
  -16.9339   12.0845   28.3958 N   0  0  0  0  0  0  0  0  0  0  0  0
  -17.7831   14.2398   30.0829 C   0  0  0  0  0  0  0  0  0  0  0  0
  -17.0941    7.8446   26.5467 C   0  0  0  0  0  0  0  0  0  0  0  0
  -16.9628    9.9520   27.0378 C   0  0  0  0  0  0  0  0  0  0  0  0
  -16.3316    8.7984   27.0595 N   0  0  0  0  0  0  0  0  0  0  0  0
  -18.2344    8.3631   26.1864 N   0  0  0  0  0  0  0  0  0  0  0  0
  -18.1925    9.7325   26.4945 N   0  0  0  0  0  0  0  0  0  0  0  0
  -19.2963   10.6707   26.2316 C   0  0  0  0  0  0  0  0  0  0  0  0
  -20.1469   10.8408   27.4914 C   0  0  0  0  0  0  0  0  0  0  0  0
  -20.1720   10.0909   25.1206 C   0  0  0  0  0  0  0  0  0  0  0  0
  -17.7034   17.3296   32.1115 O   0  0  0  0  0  0  0  0  0  0  0  0
  -18.2089   17.1378   33.4484 C   0  0  0  0  0  0  0  0  0  0  0  0
  -17.4387   18.0282   34.4287 C   0  0  0  0  0  0  0  0  0  0  0  0
  -19.6860   17.4592   33.5160 C   0  0  0  0  0  0  0  0  0  0  0  0
  -20.0993   18.7172   33.7656 N   0  0  0  0  0  0  0  0  0  0  0  0
  -20.5047   16.5870   33.3075 O   0  0  0  0  0  0  0  0  0  0  0  0
  -21.0618   18.9197   33.8083 H   0  0  0  0  0  0  0  0  0  0  0  0
  -19.4389   19.4338   33.9053 H   0  0  0  0  0  0  0  0  0  0  0  0
 15 17  1  0  0  0
 15 18  2  0  0  0
 17 16  2  0  0  0
 18 19  1  0  0  0
 16 19  1  0  0  0
 16  4  1  0  0  0
 19 20  1  0  0  0
 22 20  1  0  0  0
  3  4  2  0  0  0
  3 12  1  0  0  0
  4 13  1  0  0  0
 20 21  1  0  0  0
 12 11  1  0  0  0
 12  5  1  0  0  0
 13  5  2  0  0  0
 11  2  1  0  0  0
  2 10  1  0  0  0
  5  6  1  0  0  0
  6 14  2  0  0  0
  6  9  1  0  0  0
 10  9  1  0  0  0
 14  7  1  0  0  0
  9  8  2  0  0  0
 27 26  1  0  0  0
  7  1  2  0  0  0
  8  1  1  0  0  0
  1 23  1  0  0  0
 26 28  2  0  0  0
 26 24  1  0  0  0
 23 24  1  0  0  0
 24 25  1  0  0  0
 27 29  1  0  0  0
 27 30  1  0  0  0
M  END
> <minimizedAffinity>
-8.26503

$$$$
5DXT_5H5_A_1101


 30 33  0  0  0  0  0  0  0  0999 V2000
  -17.5707   16.6414   31.7997 C   0  0  0  0  0  0  0  0  0  0  0  0
  -20.6668   13.1879   30.8199 C   0  0  0  0  0  0  0  0  0  0  0  0
  -18.8097   11.4329   28.1114 C   0  0  0  0  0  0  0  0  0  0  0  0
  -17.4784   11.5992   27.8927 C   0  0  0  0  0  0  0  0  0  0  0  0
  -18.1050   13.1854   29.2605 C   0  0  0  0  0  0  0  0  0  0  0  0
  -17.9939   14.3833   30.1513 C   0  0  0  0  0  0  0  0  0  0  0  0
  -16.5038   16.0138   31.1451 C   0  0  0  0  0  0  0  0  0  0  0  0
  -18.8554   16.1248   31.6209 C   0  0  0  0  0  0  0  0  0  0  0  0
  -19.0895   15.0167   30.8165 C   0  0  0  0  0  0  0  0  0  0  0  0
  -20.3567   14.5703   30.6913 O   0  0  0  0  0  0  0  0  0  0  0  0
  -20.5920   12.5682   29.4375 C   0  0  0  0  0  0  0  0  0  0  0  0
  -19.2200   12.4057   28.9650 N   0  0  0  0  0  0  0  0  0  0  0  0
  -17.1045   12.6670   28.6074 N   0  0  0  0  0  0  0  0  0  0  0  0
  -16.7154   14.9138   30.3434 C   0  0  0  0  0  0  0  0  0  0  0  0
  -15.0528   10.2557   25.6219 C   0  0  0  0  0  0  0  0  0  0  0  0
  -16.6304   10.7551   27.0225 C   0  0  0  0  0  0  0  0  0  0  0  0
  -15.6463   11.2320   26.2918 N   0  0  0  0  0  0  0  0  0  0  0  0
  -15.6403    9.1280   25.9093 N   0  0  0  0  0  0  0  0  0  0  0  0
  -16.6694    9.4082   26.8229 N   0  0  0  0  0  0  0  0  0  0  0  0
  -17.5715    8.3899   27.3858 C   0  0  0  0  0  0  0  0  0  0  0  0
  -16.7614    7.3410   28.1495 C   0  0  0  0  0  0  0  0  0  0  0  0
  -18.3064    7.7026   26.2347 C   0  0  0  0  0  0  0  0  0  0  0  0
  -17.4352   17.7419   32.6133 O   0  0  0  0  0  0  0  0  0  0  0  0
  -18.0488   17.8502   33.9138 C   0  0  0  0  0  0  0  0  0  0  0  0
  -16.9698   18.0472   34.9834 C   0  0  0  0  0  0  0  0  0  0  0  0
  -19.0259   19.0049   33.9529 C   0  0  0  0  0  0  0  0  0  0  0  0
  -20.3464   18.7863   33.7981 N   0  0  0  0  0  0  0  0  0  0  0  0
  -18.6228   20.1312   34.1620 O   0  0  0  0  0  0  0  0  0  0  0  0
  -20.9769   19.5420   33.8245 H   0  0  0  0  0  0  0  0  0  0  0  0
  -20.6808   17.8709   33.6586 H   0  0  0  0  0  0  0  0  0  0  0  0
 15 17  1  0  0  0
 15 18  2  0  0  0
 17 16  2  0  0  0
 18 19  1  0  0  0
 16 19  1  0  0  0
 16  4  1  0  0  0
 19 20  1  0  0  0
 22 20  1  0  0  0
  3  4  2  0  0  0
  3 12  1  0  0  0
  4 13  1  0  0  0
 20 21  1  0  0  0
 12 11  1  0  0  0
 12  5  1  0  0  0
 13  5  2  0  0  0
 11  2  1  0  0  0
  2 10  1  0  0  0
  5  6  1  0  0  0
  6 14  2  0  0  0
  6  9  1  0  0  0
 10  9  1  0  0  0
 14  7  1  0  0  0
  9  8  2  0  0  0
 27 26  1  0  0  0
  7  1  2  0  0  0
  8  1  1  0  0  0
  1 23  1  0  0  0
 26 28  2  0  0  0
 26 24  1  0  0  0
 23 24  1  0  0  0
 24 25  1  0  0  0
 27 29  1  0  0  0
 27 30  1  0  0  0
M  END
> <minimizedAffinity>
-8.24967

$$$$
5DXT_5H5_A_1101


 30 33  0  0  0  0  0  0  0  0999 V2000
  -17.3971   11.2036   27.5850 C   0  0  0  0  0  0  0  0  0  0  0  0
  -14.7958   14.4422   29.8692 C   0  0  0  0  0  0  0  0  0  0  0  0
  -17.5203   16.4649   31.4024 C   0  0  0  0  0  0  0  0  0  0  0  0
  -18.7985   16.0191   31.5277 C   0  0  0  0  0  0  0  0  0  0  0  0
  -17.7728   14.6470   30.1694 C   0  0  0  0  0  0  0  0  0  0  0  0
  -17.5733   13.4768   29.2576 C   0  0  0  0  0  0  0  0  0  0  0  0
  -18.5671   11.4860   28.3007 C   0  0  0  0  0  0  0  0  0  0  0  0
  -16.3127   12.0731   27.7163 C   0  0  0  0  0  0  0  0  0  0  0  0
  -16.3740   13.1963   28.5315 C   0  0  0  0  0  0  0  0  0  0  0  0
  -15.2867   13.9911   28.6125 O   0  0  0  0  0  0  0  0  0  0  0  0
  -15.4627   15.7698   30.1748 C   0  0  0  0  0  0  0  0  0  0  0  0
  -16.8617   15.6222   30.5661 N   0  0  0  0  0  0  0  0  0  0  0  0
  -18.8972   14.9233   30.7658 N   0  0  0  0  0  0  0  0  0  0  0  0
  -18.6476   12.5945   29.1144 C   0  0  0  0  0  0  0  0  0  0  0  0
  -21.8548   17.2620   32.9272 C   0  0  0  0  0  0  0  0  0  0  0  0
  -19.8589   16.6457   32.3472 C   0  0  0  0  0  0  0  0  0  0  0  0
  -21.1300   16.6404   32.0094 N   0  0  0  0  0  0  0  0  0  0  0  0
  -21.0662   17.6786   33.8778 N   0  0  0  0  0  0  0  0  0  0  0  0
  -19.7584   17.2923   33.5419 N   0  0  0  0  0  0  0  0  0  0  0  0
  -18.5748   17.5857   34.3669 C   0  0  0  0  0  0  0  0  0  0  0  0
  -18.9606   17.5952   35.8470 C   0  0  0  0  0  0  0  0  0  0  0  0
  -18.0486   18.9697   33.9862 C   0  0  0  0  0  0  0  0  0  0  0  0
  -17.2451   10.1180   26.7546 O   0  0  0  0  0  0  0  0  0  0  0  0
  -16.4036    8.9893   27.0667 C   0  0  0  0  0  0  0  0  0  0  0  0
  -16.9841    8.2211   28.2583 C   0  0  0  0  0  0  0  0  0  0  0  0
  -16.2777    8.0665   25.8742 C   0  0  0  0  0  0  0  0  0  0  0  0
  -15.3472    8.2983   24.9277 N   0  0  0  0  0  0  0  0  0  0  0  0
  -16.9940    7.0898   25.7872 O   0  0  0  0  0  0  0  0  0  0  0  0
  -15.2705    7.6941   24.1542 H   0  0  0  0  0  0  0  0  0  0  0  0
  -14.7439    9.0721   25.0095 H   0  0  0  0  0  0  0  0  0  0  0  0
 15 17  1  0  0  0
 15 18  2  0  0  0
 17 16  2  0  0  0
 18 19  1  0  0  0
 16 19  1  0  0  0
 16  4  1  0  0  0
 19 20  1  0  0  0
 22 20  1  0  0  0
  3  4  2  0  0  0
  3 12  1  0  0  0
  4 13  1  0  0  0
 20 21  1  0  0  0
 12 11  1  0  0  0
 12  5  1  0  0  0
 13  5  2  0  0  0
 11  2  1  0  0  0
  2 10  1  0  0  0
  5  6  1  0  0  0
  6 14  2  0  0  0
  6  9  1  0  0  0
 10  9  1  0  0  0
 14  7  1  0  0  0
  9  8  2  0  0  0
 27 26  1  0  0  0
  7  1  2  0  0  0
  8  1  1  0  0  0
  1 23  1  0  0  0
 26 28  2  0  0  0
 26 24  1  0  0  0
 23 24  1  0  0  0
 24 25  1  0  0  0
 27 29  1  0  0  0
 27 30  1  0  0  0
M  END
> <minimizedAffinity>
-8.09253

$$$$
5DXT_5H5_A_1101


 30 33  0  0  0  0  0  0  0  0999 V2000
  -20.6775   14.0383   30.5724 C   0  0  0  0  0  0  0  0  0  0  0  0
  -16.2202   15.5756   30.0805 C   0  0  0  0  0  0  0  0  0  0  0  0
  -14.8042   12.7629   28.0933 C   0  0  0  0  0  0  0  0  0  0  0  0
  -15.5726   11.8617   27.4259 C   0  0  0  0  0  0  0  0  0  0  0  0
  -16.9010   12.9682   28.7643 C   0  0  0  0  0  0  0  0  0  0  0  0
  -18.1721   13.3859   29.4354 C   0  0  0  0  0  0  0  0  0  0  0  0
  -20.5728   13.0862   29.5510 C   0  0  0  0  0  0  0  0  0  0  0  0
  -19.5117   14.6630   31.0195 C   0  0  0  0  0  0  0  0  0  0  0  0
  -18.2691   14.3602   30.4773 C   0  0  0  0  0  0  0  0  0  0  0  0
  -17.1850   15.0049   30.9565 O   0  0  0  0  0  0  0  0  0  0  0  0
  -15.1551   14.5271   29.8221 C   0  0  0  0  0  0  0  0  0  0  0  0
  -15.6114   13.4670   28.9276 N   0  0  0  0  0  0  0  0  0  0  0  0
  -16.8253   12.0273   27.8668 N   0  0  0  0  0  0  0  0  0  0  0  0
  -19.3498   12.7723   29.0003 C   0  0  0  0  0  0  0  0  0  0  0  0
  -13.7927   10.0294   24.9121 C   0  0  0  0  0  0  0  0  0  0  0  0
  -15.0928   10.8909   26.4179 C   0  0  0  0  0  0  0  0  0  0  0  0
  -13.9815   11.0514   25.7330 N   0  0  0  0  0  0  0  0  0  0  0  0
  -14.7773    9.1867   25.0530 N   0  0  0  0  0  0  0  0  0  0  0  0
  -15.6430    9.7071   26.0286 N   0  0  0  0  0  0  0  0  0  0  0  0
  -16.8829    9.0458   26.4675 C   0  0  0  0  0  0  0  0  0  0  0  0
  -16.7777    7.5370   26.2393 C   0  0  0  0  0  0  0  0  0  0  0  0
  -18.0442    9.5900   25.6352 C   0  0  0  0  0  0  0  0  0  0  0  0
  -21.8624   14.4010   31.1689 O   0  0  0  0  0  0  0  0  0  0  0  0
  -22.1727   14.1309   32.5511 C   0  0  0  0  0  0  0  0  0  0  0  0
  -22.7555   15.3861   33.2084 C   0  0  0  0  0  0  0  0  0  0  0  0
  -23.1567   12.9874   32.6677 C   0  0  0  0  0  0  0  0  0  0  0  0
  -23.9755   12.6849   31.6412 N   0  0  0  0  0  0  0  0  0  0  0  0
  -23.1841   12.3139   33.6778 O   0  0  0  0  0  0  0  0  0  0  0  0
  -24.6135   11.9397   31.7235 H   0  0  0  0  0  0  0  0  0  0  0  0
  -23.9357   13.2092   30.8088 H   0  0  0  0  0  0  0  0  0  0  0  0
 15 17  1  0  0  0
 15 18  2  0  0  0
 17 16  2  0  0  0
 18 19  1  0  0  0
 16 19  1  0  0  0
 16  4  1  0  0  0
 19 20  1  0  0  0
 22 20  1  0  0  0
  3  4  2  0  0  0
  3 12  1  0  0  0
  4 13  1  0  0  0
 20 21  1  0  0  0
 12 11  1  0  0  0
 12  5  1  0  0  0
 13  5  2  0  0  0
 11  2  1  0  0  0
  2 10  1  0  0  0
  5  6  1  0  0  0
  6 14  2  0  0  0
  6  9  1  0  0  0
 10  9  1  0  0  0
 14  7  1  0  0  0
  9  8  2  0  0  0
 27 26  1  0  0  0
  7  1  2  0  0  0
  8  1  1  0  0  0
  1 23  1  0  0  0
 26 28  2  0  0  0
 26 24  1  0  0  0
 23 24  1  0  0  0
 24 25  1  0  0  0
 27 29  1  0  0  0
 27 30  1  0  0  0
M  END
> <minimizedAffinity>
-7.86654

$$$$
5DXT_5H5_A_1101


 30 33  0  0  0  0  0  0  0  0999 V2000
  -18.4261   16.3814   31.9264 C   0  0  0  0  0  0  0  0  0  0  0  0
  -22.0772   13.3751   31.6024 C   0  0  0  0  0  0  0  0  0  0  0  0
  -21.0663   11.4895   28.5548 C   0  0  0  0  0  0  0  0  0  0  0  0
  -19.7995   11.4951   28.0618 C   0  0  0  0  0  0  0  0  0  0  0  0
  -19.9180   13.1025   29.5389 C   0  0  0  0  0  0  0  0  0  0  0  0
  -19.4704   14.2479   30.3924 C   0  0  0  0  0  0  0  0  0  0  0  0
  -17.6087   15.6467   31.0587 C   0  0  0  0  0  0  0  0  0  0  0  0
  -19.7755   16.0355   32.0192 C   0  0  0  0  0  0  0  0  0  0  0  0
  -20.3127   14.9917   31.2765 C   0  0  0  0  0  0  0  0  0  0  0  0
  -21.6249   14.7113   31.4184 O   0  0  0  0  0  0  0  0  0  0  0  0
  -22.3720   12.7957   30.2321 C   0  0  0  0  0  0  0  0  0  0  0  0
  -21.1610   12.4781   29.4806 N   0  0  0  0  0  0  0  0  0  0  0  0
  -19.1505   12.4843   28.6873 N   0  0  0  0  0  0  0  0  0  0  0  0
  -18.1225   14.6081   30.3138 C   0  0  0  0  0  0  0  0  0  0  0  0
  -19.1524    9.5310   25.1346 C   0  0  0  0  0  0  0  0  0  0  0  0
  -19.2672   10.5800   27.0283 C   0  0  0  0  0  0  0  0  0  0  0  0
  -19.8474   10.3913   25.8632 N   0  0  0  0  0  0  0  0  0  0  0  0
  -18.1074    9.1492   25.8139 N   0  0  0  0  0  0  0  0  0  0  0  0
  -18.1412    9.8136   27.0506 N   0  0  0  0  0  0  0  0  0  0  0  0
  -17.1294    9.6421   28.1063 C   0  0  0  0  0  0  0  0  0  0  0  0
  -15.8072   10.2745   27.6686 C   0  0  0  0  0  0  0  0  0  0  0  0
  -16.9095    8.1456   28.3295 C   0  0  0  0  0  0  0  0  0  0  0  0
  -17.9835   17.4296   32.6988 O   0  0  0  0  0  0  0  0  0  0  0  0
  -18.3786   17.6289   34.0713 C   0  0  0  0  0  0  0  0  0  0  0  0
  -17.1561   18.0023   34.9157 C   0  0  0  0  0  0  0  0  0  0  0  0
  -19.4258   18.7159   34.1770 C   0  0  0  0  0  0  0  0  0  0  0  0
  -19.0949   20.0046   33.9639 N   0  0  0  0  0  0  0  0  0  0  0  0
  -20.5792   18.4229   34.4186 O   0  0  0  0  0  0  0  0  0  0  0  0
  -19.7811   20.7071   34.0342 H   0  0  0  0  0  0  0  0  0  0  0  0
  -18.1670   20.2437   33.7378 H   0  0  0  0  0  0  0  0  0  0  0  0
 15 17  1  0  0  0
 15 18  2  0  0  0
 17 16  2  0  0  0
 18 19  1  0  0  0
 16 19  1  0  0  0
 16  4  1  0  0  0
 19 20  1  0  0  0
 22 20  1  0  0  0
  3  4  2  0  0  0
  3 12  1  0  0  0
  4 13  1  0  0  0
 20 21  1  0  0  0
 12 11  1  0  0  0
 12  5  1  0  0  0
 13  5  2  0  0  0
 11  2  1  0  0  0
  2 10  1  0  0  0
  5  6  1  0  0  0
  6 14  2  0  0  0
  6  9  1  0  0  0
 10  9  1  0  0  0
 14  7  1  0  0  0
  9  8  2  0  0  0
 27 26  1  0  0  0
  7  1  2  0  0  0
  8  1  1  0  0  0
  1 23  1  0  0  0
 26 28  2  0  0  0
 26 24  1  0  0  0
 23 24  1  0  0  0
 24 25  1  0  0  0
 27 29  1  0  0  0
 27 30  1  0  0  0
M  END
> <minimizedAffinity>
-7.82610

$$$$
5DXT_5H5_A_1101


 30 33  0  0  0  0  0  0  0  0999 V2000
  -17.2892    9.9536   26.2648 C   0  0  0  0  0  0  0  0  0  0  0  0
  -21.1575   10.3040   23.5470 C   0  0  0  0  0  0  0  0  0  0  0  0
  -23.6921   11.0765   26.1631 C   0  0  0  0  0  0  0  0  0  0  0  0
  -23.3675   11.5180   27.4071 C   0  0  0  0  0  0  0  0  0  0  0  0
  -21.5223   10.7964   26.4828 C   0  0  0  0  0  0  0  0  0  0  0  0
  -20.0678   10.4725   26.3407 C   0  0  0  0  0  0  0  0  0  0  0  0
  -17.8758   10.5928   27.3639 C   0  0  0  0  0  0  0  0  0  0  0  0
  -18.1102    9.5765   25.2004 C   0  0  0  0  0  0  0  0  0  0  0  0
  -19.4779    9.8201   25.2135 C   0  0  0  0  0  0  0  0  0  0  0  0
  -20.2098    9.4304   24.1490 O   0  0  0  0  0  0  0  0  0  0  0  0
  -22.4956   10.0670   24.2205 C   0  0  0  0  0  0  0  0  0  0  0  0
  -22.5575   10.6284   25.5670 N   0  0  0  0  0  0  0  0  0  0  0  0
  -22.0505   11.3269   27.5486 N   0  0  0  0  0  0  0  0  0  0  0  0
  -19.2299   10.8435   27.3957 C   0  0  0  0  0  0  0  0  0  0  0  0
  -26.0828   13.0780   29.1500 C   0  0  0  0  0  0  0  0  0  0  0  0
  -24.3071   12.0879   28.3976 C   0  0  0  0  0  0  0  0  0  0  0  0
  -25.4385   12.6712   28.0668 N   0  0  0  0  0  0  0  0  0  0  0  0
  -25.3814   12.7625   30.2025 N   0  0  0  0  0  0  0  0  0  0  0  0
  -24.2202   12.1106   29.7568 N   0  0  0  0  0  0  0  0  0  0  0  0
  -23.1659   11.6026   30.6501 C   0  0  0  0  0  0  0  0  0  0  0  0
  -23.4453   10.1419   31.0081 C   0  0  0  0  0  0  0  0  0  0  0  0
  -23.1740   12.4343   31.9329 C   0  0  0  0  0  0  0  0  0  0  0  0
  -15.9472    9.6704   26.1642 O   0  0  0  0  0  0  0  0  0  0  0  0
  -15.0094   10.5035   25.4528 C   0  0  0  0  0  0  0  0  0  0  0  0
  -14.4300   11.5600   26.3989 C   0  0  0  0  0  0  0  0  0  0  0  0
  -13.8897    9.6722   24.8656 C   0  0  0  0  0  0  0  0  0  0  0  0
  -14.1325    8.4297   24.4043 N   0  0  0  0  0  0  0  0  0  0  0  0
  -12.7729   10.1402   24.7747 O   0  0  0  0  0  0  0  0  0  0  0  0
  -13.3996    7.8941   24.0233 H   0  0  0  0  0  0  0  0  0  0  0  0
  -15.0429    8.0576   24.4481 H   0  0  0  0  0  0  0  0  0  0  0  0
 15 17  1  0  0  0
 15 18  2  0  0  0
 17 16  2  0  0  0
 18 19  1  0  0  0
 16 19  1  0  0  0
 16  4  1  0  0  0
 19 20  1  0  0  0
 22 20  1  0  0  0
  3  4  2  0  0  0
  3 12  1  0  0  0
  4 13  1  0  0  0
 20 21  1  0  0  0
 12 11  1  0  0  0
 12  5  1  0  0  0
 13  5  2  0  0  0
 11  2  1  0  0  0
  2 10  1  0  0  0
  5  6  1  0  0  0
  6 14  2  0  0  0
  6  9  1  0  0  0
 10  9  1  0  0  0
 14  7  1  0  0  0
  9  8  2  0  0  0
 27 26  1  0  0  0
  7  1  2  0  0  0
  8  1  1  0  0  0
  1 23  1  0  0  0
 26 28  2  0  0  0
 26 24  1  0  0  0
 23 24  1  0  0  0
 24 25  1  0  0  0
 27 29  1  0  0  0
 27 30  1  0  0  0
M  END
> <minimizedAffinity>
-7.42464

$$$$
