1T7J_478_A_200


 39 41  0  0  0  0  0  0  0  0999 V2000
    5.2376   -0.5890   15.4107 C   0  0  0  0  0  0  0  0  0  0  0  0
    5.2502    0.4661   16.3114 O   0  0  0  0  0  0  0  0  0  0  0  0
    6.1659    0.7424   16.4729 H   0  0  0  0  0  0  0  0  0  0  0  0
    5.6828   -0.0307   13.9810 C   0  0  0  0  0  0  0  0  0  0  0  0
    3.6164    0.3358   12.6110 C   0  0  0  0  0  0  0  0  0  0  0  0
    4.5683    0.7284   13.4344 N   0  0  0  0  0  0  0  0  0  0  0  0
    3.3710   -0.7590   12.2669 O   0  0  0  0  0  0  0  0  0  0  0  0
    4.5179    1.6692   13.7201 H   0  0  0  0  0  0  0  0  0  0  0  0
    2.9325    1.4991   12.2416 O   0  0  0  0  0  0  0  0  0  0  0  0
    2.0134    3.1900   10.7383 C   0  0  0  0  0  0  0  0  0  0  0  0
    0.7544    1.1963   11.2696 C   0  0  0  0  0  0  0  0  0  0  0  0
    2.1845    1.6905   11.0313 C   0  0  0  0  0  0  0  0  0  0  0  0
   -0.1453    2.4247   11.1075 C   0  0  0  0  0  0  0  0  0  0  0  0
    0.6693    3.5792   11.1129 O   0  0  0  0  0  0  0  0  0  0  0  0
    6.9836    0.9067   13.8761 C   0  0  0  0  0  0  0  0  0  0  0  0
    7.7534    0.6485   12.6077 C   0  0  0  0  0  0  0  0  0  0  0  0
    7.3505    1.3584   11.3943 C   0  0  0  0  0  0  0  0  0  0  0  0
    8.8712   -0.2957   12.5603 C   0  0  0  0  0  0  0  0  0  0  0  0
    8.0333    1.1475   10.1285 C   0  0  0  0  0  0  0  0  0  0  0  0
    9.5621   -0.5019   11.2776 C   0  0  0  0  0  0  0  0  0  0  0  0
    9.1439    0.2212   10.0499 C   0  0  0  0  0  0  0  0  0  0  0  0
    5.9752   -1.7661   16.2354 C   0  0  0  0  0  0  0  0  0  0  0  0
    7.0452   -2.7159   15.7128 N   0  0  0  0  0  0  0  0  0  0  0  0
    6.7800   -5.0975   17.0412 O   0  0  0  0  0  0  0  0  0  0  0  0
    7.0744   -5.2380   14.6483 O   0  0  0  0  0  0  0  0  0  0  0  0
    6.6022   -4.4539   15.7485 S   0  0  0  0  0  0  0  0  0  0  0  0
    4.9119   -4.3777   15.4967 C   0  0  0  0  0  0  0  0  0  0  0  0
    4.3187   -3.8954   14.2566 C   0  0  0  0  0  0  0  0  0  0  0  0
    2.8762   -3.9063   14.1098 C   0  0  0  0  0  0  0  0  0  0  0  0
    2.0687   -4.4001   15.2023 C   0  0  0  0  0  0  0  0  0  0  0  0
    2.6540   -4.8644   16.4055 C   0  0  0  0  0  0  0  0  0  0  0  0
    4.0759   -4.8532   16.5475 C   0  0  0  0  0  0  0  0  0  0  0  0
    0.7735   -4.4276   15.0944 N   0  0  0  0  0  0  0  0  0  0  0  0
    0.3416   -4.1106   14.2685 H   0  0  0  0  0  0  0  0  0  0  0  0
    0.2246   -4.7655   15.8386 H   0  0  0  0  0  0  0  0  0  0  0  0
    8.5927   -2.4336   16.0017 C   0  0  0  0  0  0  0  0  0  0  0  0
    9.6984   -3.2835   15.4059 C   0  0  0  0  0  0  0  0  0  0  0  0
   10.8380   -2.4750   14.7999 C   0  0  0  0  0  0  0  0  0  0  0  0
   10.2140   -4.4230   16.3227 C   0  0  0  0  0  0  0  0  0  0  0  0
 10 12  1  0  0  0
 10 14  1  0  0  0
 11 12  1  0  0  0
 11 13  1  0  0  0
  5  6  1  0  0  0
  5  9  1  0  0  0
  5  7  2  0  0  0
 12  9  1  0  0  0
  4  1  1  0  0  0
  4 15  1  0  0  0
  4  6  1  0  0  0
  1 22  1  0  0  0
  1  2  1  0  0  0
 15 16  1  0  0  0
 16 17  2  0  0  0
 16 18  1  0  0  0
 17 19  1  0  0  0
 18 20  2  0  0  0
 19 21  2  0  0  0
 20 21  1  0  0  0
 22 23  1  0  0  0
 36 37  1  0  0  0
 36 23  1  0  0  0
 37 38  1  0  0  0
 37 39  1  0  0  0
 27 28  2  0  0  0
 27 32  1  0  0  0
 27 26  1  0  0  0
 28 29  1  0  0  0
 29 30  2  0  0  0
 30 31  1  0  0  0
 30 33  1  0  0  0
 31 32  2  0  0  0
 13 14  1  0  0  0
 23 26  1  0  0  0
 24 26  2  0  0  0
 25 26  2  0  0  0
  6  8  1  0  0  0
 33 34  1  0  0  0
 33 35  1  0  0  0
  2  3  1  0  0  0
M  END
> <minimizedAffinity>
-9.29037

$$$$
1T7J_478_A_200


 39 41  0  0  0  0  0  0  0  0999 V2000
    4.3514   -0.2301   12.9329 C   0  0  0  0  0  0  0  0  0  0  0  0
    4.2053   -0.8635   11.7072 O   0  0  0  0  0  0  0  0  0  0  0  0
    5.0102   -0.7384   11.1806 H   0  0  0  0  0  0  0  0  0  0  0  0
    5.4427   -1.0311   13.7822 C   0  0  0  0  0  0  0  0  0  0  0  0
    3.9894   -3.0099   14.2854 C   0  0  0  0  0  0  0  0  0  0  0  0
    4.7365   -1.9797   14.6299 N   0  0  0  0  0  0  0  0  0  0  0  0
    3.8638   -3.4809   13.2179 O   0  0  0  0  0  0  0  0  0  0  0  0
    4.8298   -1.8310   15.5986 H   0  0  0  0  0  0  0  0  0  0  0  0
    3.3850   -3.4507   15.4677 O   0  0  0  0  0  0  0  0  0  0  0  0
    4.9619   -4.7894   16.7658 C   0  0  0  0  0  0  0  0  0  0  0  0
    2.9514   -3.9182   17.7860 C   0  0  0  0  0  0  0  0  0  0  0  0
    4.0232   -3.5720   16.7480 C   0  0  0  0  0  0  0  0  0  0  0  0
    3.3268   -5.2991   18.3306 C   0  0  0  0  0  0  0  0  0  0  0  0
    4.3045   -5.8639   17.4811 O   0  0  0  0  0  0  0  0  0  0  0  0
    6.5865   -1.8545   13.0106 C   0  0  0  0  0  0  0  0  0  0  0  0
    7.6182   -2.3982   13.9636 C   0  0  0  0  0  0  0  0  0  0  0  0
    7.5722   -3.8210   14.2988 C   0  0  0  0  0  0  0  0  0  0  0  0
    8.6424   -1.5424   14.5650 C   0  0  0  0  0  0  0  0  0  0  0  0
    8.5224   -4.4144   15.2251 C   0  0  0  0  0  0  0  0  0  0  0  0
    9.6049   -2.1490   15.4981 C   0  0  0  0  0  0  0  0  0  0  0  0
    9.5486   -3.5942   15.8348 C   0  0  0  0  0  0  0  0  0  0  0  0
    4.4375    1.3286   12.5167 C   0  0  0  0  0  0  0  0  0  0  0  0
    4.2382    1.9151   11.1253 N   0  0  0  0  0  0  0  0  0  0  0  0
    5.8551    4.1197   11.3066 O   0  0  0  0  0  0  0  0  0  0  0  0
    5.6242    3.1441    9.1094 O   0  0  0  0  0  0  0  0  0  0  0  0
    5.5956    2.9216   10.5229 S   0  0  0  0  0  0  0  0  0  0  0  0
    6.9311    1.8888   10.7984 C   0  0  0  0  0  0  0  0  0  0  0  0
    7.3109    0.8256    9.8776 C   0  0  0  0  0  0  0  0  0  0  0  0
    8.4847    0.0244   10.1654 C   0  0  0  0  0  0  0  0  0  0  0  0
    9.2461    0.3090   11.3608 C   0  0  0  0  0  0  0  0  0  0  0  0
    8.8678    1.3428   12.2517 C   0  0  0  0  0  0  0  0  0  0  0  0
    7.7109    2.1313   11.9656 C   0  0  0  0  0  0  0  0  0  0  0  0
   10.3067   -0.3892   11.6391 N   0  0  0  0  0  0  0  0  0  0  0  0
   10.5914   -1.1136   11.0362 H   0  0  0  0  0  0  0  0  0  0  0  0
   10.8253   -0.1935   12.4527 H   0  0  0  0  0  0  0  0  0  0  0  0
    2.7955    2.4223   10.6569 C   0  0  0  0  0  0  0  0  0  0  0  0
    1.5178    1.6974   11.0340 C   0  0  0  0  0  0  0  0  0  0  0  0
    0.3486    2.6260   11.3342 C   0  0  0  0  0  0  0  0  0  0  0  0
    1.1160    0.5414   10.0817 C   0  0  0  0  0  0  0  0  0  0  0  0
 10 12  1  0  0  0
 10 14  1  0  0  0
 11 12  1  0  0  0
 11 13  1  0  0  0
  5  6  1  0  0  0
  5  9  1  0  0  0
  5  7  2  0  0  0
 12  9  1  0  0  0
  4  1  1  0  0  0
  4 15  1  0  0  0
  4  6  1  0  0  0
  1 22  1  0  0  0
  1  2  1  0  0  0
 15 16  1  0  0  0
 16 17  2  0  0  0
 16 18  1  0  0  0
 17 19  1  0  0  0
 18 20  2  0  0  0
 19 21  2  0  0  0
 20 21  1  0  0  0
 22 23  1  0  0  0
 36 37  1  0  0  0
 36 23  1  0  0  0
 37 38  1  0  0  0
 37 39  1  0  0  0
 27 28  2  0  0  0
 27 32  1  0  0  0
 27 26  1  0  0  0
 28 29  1  0  0  0
 29 30  2  0  0  0
 30 31  1  0  0  0
 30 33  1  0  0  0
 31 32  2  0  0  0
 13 14  1  0  0  0
 23 26  1  0  0  0
 24 26  2  0  0  0
 25 26  2  0  0  0
  6  8  1  0  0  0
 33 34  1  0  0  0
 33 35  1  0  0  0
  2  3  1  0  0  0
M  END
> <minimizedAffinity>
-9.28710

$$$$
1T7J_478_A_200


 39 41  0  0  0  0  0  0  0  0999 V2000
    5.3493   -2.9008   12.9508 C   0  0  0  0  0  0  0  0  0  0  0  0
    4.8391   -3.2852   11.7192 O   0  0  0  0  0  0  0  0  0  0  0  0
    4.0252   -2.7896   11.5375 H   0  0  0  0  0  0  0  0  0  0  0  0
    5.8845   -1.4004   12.8236 C   0  0  0  0  0  0  0  0  0  0  0  0
    4.6412    0.4298   11.6464 C   0  0  0  0  0  0  0  0  0  0  0  0
    4.7445   -0.5464   12.5266 N   0  0  0  0  0  0  0  0  0  0  0  0
    5.3999    0.7149   10.7978 O   0  0  0  0  0  0  0  0  0  0  0  0
    3.9351   -0.7226   13.0586 H   0  0  0  0  0  0  0  0  0  0  0  0
    3.4177    1.0531   11.9151 O   0  0  0  0  0  0  0  0  0  0  0  0
    2.2929    2.9614   10.8871 C   0  0  0  0  0  0  0  0  0  0  0  0
    1.0628    0.9556   11.4400 C   0  0  0  0  0  0  0  0  0  0  0  0
    2.4313    1.4313   10.9430 C   0  0  0  0  0  0  0  0  0  0  0  0
    0.2280    2.2229   11.6441 C   0  0  0  0  0  0  0  0  0  0  0  0
    1.0936    3.3391   11.6065 O   0  0  0  0  0  0  0  0  0  0  0  0
    6.6560   -0.7354   14.0663 C   0  0  0  0  0  0  0  0  0  0  0  0
    8.0694   -1.2432   14.1786 C   0  0  0  0  0  0  0  0  0  0  0  0
    8.4815   -1.8783   15.4298 C   0  0  0  0  0  0  0  0  0  0  0  0
    9.0307   -1.1032   13.0833 C   0  0  0  0  0  0  0  0  0  0  0  0
    9.8340   -2.3761   15.6197 C   0  0  0  0  0  0  0  0  0  0  0  0
   10.3970   -1.6131   13.2789 C   0  0  0  0  0  0  0  0  0  0  0  0
   10.8073   -2.2540   14.5540 C   0  0  0  0  0  0  0  0  0  0  0  0
    4.2135   -3.4135   13.9790 C   0  0  0  0  0  0  0  0  0  0  0  0
    4.4358   -4.1602   15.2878 N   0  0  0  0  0  0  0  0  0  0  0  0
    1.7588   -4.6029   15.6685 O   0  0  0  0  0  0  0  0  0  0  0  0
    2.8555   -3.2175   17.3149 O   0  0  0  0  0  0  0  0  0  0  0  0
    2.9977   -4.2692   16.3546 S   0  0  0  0  0  0  0  0  0  0  0  0
    3.3843   -5.6376   17.3055 C   0  0  0  0  0  0  0  0  0  0  0  0
    3.4705   -5.5908   18.7591 C   0  0  0  0  0  0  0  0  0  0  0  0
    3.7600   -6.8084   19.4914 C   0  0  0  0  0  0  0  0  0  0  0  0
    3.9523   -8.0362   18.7530 C   0  0  0  0  0  0  0  0  0  0  0  0
    3.8696   -8.0716   17.3397 C   0  0  0  0  0  0  0  0  0  0  0  0
    3.5836   -6.8704   16.6203 C   0  0  0  0  0  0  0  0  0  0  0  0
    4.2061   -9.1434   19.3851 N   0  0  0  0  0  0  0  0  0  0  0  0
    4.2688   -9.1461   20.3676 H   0  0  0  0  0  0  0  0  0  0  0  0
    4.3354   -9.9793   18.8813 H   0  0  0  0  0  0  0  0  0  0  0  0
    5.8207   -4.0228   16.0760 C   0  0  0  0  0  0  0  0  0  0  0  0
    6.8409   -5.1438   16.1269 C   0  0  0  0  0  0  0  0  0  0  0  0
    7.6255   -5.3216   14.8338 C   0  0  0  0  0  0  0  0  0  0  0  0
    7.7638   -5.1323   17.3731 C   0  0  0  0  0  0  0  0  0  0  0  0
 10 12  1  0  0  0
 10 14  1  0  0  0
 11 12  1  0  0  0
 11 13  1  0  0  0
  5  6  1  0  0  0
  5  9  1  0  0  0
  5  7  2  0  0  0
 12  9  1  0  0  0
  4  1  1  0  0  0
  4 15  1  0  0  0
  4  6  1  0  0  0
  1 22  1  0  0  0
  1  2  1  0  0  0
 15 16  1  0  0  0
 16 17  2  0  0  0
 16 18  1  0  0  0
 17 19  1  0  0  0
 18 20  2  0  0  0
 19 21  2  0  0  0
 20 21  1  0  0  0
 22 23  1  0  0  0
 36 37  1  0  0  0
 36 23  1  0  0  0
 37 38  1  0  0  0
 37 39  1  0  0  0
 27 28  2  0  0  0
 27 32  1  0  0  0
 27 26  1  0  0  0
 28 29  1  0  0  0
 29 30  2  0  0  0
 30 31  1  0  0  0
 30 33  1  0  0  0
 31 32  2  0  0  0
 13 14  1  0  0  0
 23 26  1  0  0  0
 24 26  2  0  0  0
 25 26  2  0  0  0
  6  8  1  0  0  0
 33 34  1  0  0  0
 33 35  1  0  0  0
  2  3  1  0  0  0
M  END
> <minimizedAffinity>
-9.25474

$$$$
1T7J_478_A_200


 39 41  0  0  0  0  0  0  0  0999 V2000
    6.2682   -2.3763   16.1386 C   0  0  0  0  0  0  0  0  0  0  0  0
    6.2332   -1.5601   17.2600 O   0  0  0  0  0  0  0  0  0  0  0  0
    6.7579   -1.9627   17.9695 H   0  0  0  0  0  0  0  0  0  0  0  0
    7.7475   -2.3335   15.5355 C   0  0  0  0  0  0  0  0  0  0  0  0
    9.7868   -3.6366   16.1868 C   0  0  0  0  0  0  0  0  0  0  0  0
    8.4840   -3.4610   16.0863 N   0  0  0  0  0  0  0  0  0  0  0  0
   10.6345   -2.8472   15.9985 O   0  0  0  0  0  0  0  0  0  0  0  0
    7.9307   -4.1976   16.4334 H   0  0  0  0  0  0  0  0  0  0  0  0
    9.9591   -4.9650   16.5908 O   0  0  0  0  0  0  0  0  0  0  0  0
   11.1858   -6.5175   18.0221 C   0  0  0  0  0  0  0  0  0  0  0  0
    8.8198   -6.1460   18.3481 C   0  0  0  0  0  0  0  0  0  0  0  0
   10.1084   -5.4237   17.9430 C   0  0  0  0  0  0  0  0  0  0  0  0
    9.2234   -7.5962   18.6283 C   0  0  0  0  0  0  0  0  0  0  0  0
   10.5262   -7.8034   18.1220 O   0  0  0  0  0  0  0  0  0  0  0  0
    7.9456   -2.3789   13.9416 C   0  0  0  0  0  0  0  0  0  0  0  0
    8.1236   -0.9993   13.3645 C   0  0  0  0  0  0  0  0  0  0  0  0
    7.3664    0.1034   13.9554 C   0  0  0  0  0  0  0  0  0  0  0  0
    9.0144   -0.7443   12.2310 C   0  0  0  0  0  0  0  0  0  0  0  0
    7.4714    1.4589   13.4408 C   0  0  0  0  0  0  0  0  0  0  0  0
    9.1208    0.6303   11.7171 C   0  0  0  0  0  0  0  0  0  0  0  0
    8.3456    1.7433   12.3217 C   0  0  0  0  0  0  0  0  0  0  0  0
    5.4924   -3.7010   16.6419 C   0  0  0  0  0  0  0  0  0  0  0  0
    4.5393   -4.5665   15.8279 N   0  0  0  0  0  0  0  0  0  0  0  0
    2.3848   -2.9965   16.4607 O   0  0  0  0  0  0  0  0  0  0  0  0
    2.0471   -4.6099   14.6956 O   0  0  0  0  0  0  0  0  0  0  0  0
    2.9843   -3.7842   15.3943 S   0  0  0  0  0  0  0  0  0  0  0  0
    3.4908   -2.6557   14.2127 C   0  0  0  0  0  0  0  0  0  0  0  0
    4.3593   -3.0138   13.0992 C   0  0  0  0  0  0  0  0  0  0  0  0
    4.7043   -2.0048   12.1166 C   0  0  0  0  0  0  0  0  0  0  0  0
    4.1711   -0.6702   12.2720 C   0  0  0  0  0  0  0  0  0  0  0  0
    3.3298   -0.3304   13.3594 C   0  0  0  0  0  0  0  0  0  0  0  0
    2.9907   -1.3267   14.3261 C   0  0  0  0  0  0  0  0  0  0  0  0
    4.4587    0.2516   11.4017 N   0  0  0  0  0  0  0  0  0  0  0  0
    5.0414    0.0414   10.6365 H   0  0  0  0  0  0  0  0  0  0  0  0
    4.0938    1.1598   11.5078 H   0  0  0  0  0  0  0  0  0  0  0  0
    4.4195   -6.1350   16.1166 C   0  0  0  0  0  0  0  0  0  0  0  0
    3.4378   -6.7028   17.1235 C   0  0  0  0  0  0  0  0  0  0  0  0
    3.4539   -8.2233   17.2093 C   0  0  0  0  0  0  0  0  0  0  0  0
    3.4794   -6.0384   18.5241 C   0  0  0  0  0  0  0  0  0  0  0  0
 10 12  1  0  0  0
 10 14  1  0  0  0
 11 12  1  0  0  0
 11 13  1  0  0  0
  5  6  1  0  0  0
  5  9  1  0  0  0
  5  7  2  0  0  0
 12  9  1  0  0  0
  4  1  1  0  0  0
  4 15  1  0  0  0
  4  6  1  0  0  0
  1 22  1  0  0  0
  1  2  1  0  0  0
 15 16  1  0  0  0
 16 17  2  0  0  0
 16 18  1  0  0  0
 17 19  1  0  0  0
 18 20  2  0  0  0
 19 21  2  0  0  0
 20 21  1  0  0  0
 22 23  1  0  0  0
 36 37  1  0  0  0
 36 23  1  0  0  0
 37 38  1  0  0  0
 37 39  1  0  0  0
 27 28  2  0  0  0
 27 32  1  0  0  0
 27 26  1  0  0  0
 28 29  1  0  0  0
 29 30  2  0  0  0
 30 31  1  0  0  0
 30 33  1  0  0  0
 31 32  2  0  0  0
 13 14  1  0  0  0
 23 26  1  0  0  0
 24 26  2  0  0  0
 25 26  2  0  0  0
  6  8  1  0  0  0
 33 34  1  0  0  0
 33 35  1  0  0  0
  2  3  1  0  0  0
M  END
> <minimizedAffinity>
-9.04411

$$$$
1T7J_478_A_200


 39 41  0  0  0  0  0  0  0  0999 V2000
    6.5650   -2.5803   15.5955 C   0  0  0  0  0  0  0  0  0  0  0  0
    7.1498   -1.8894   16.6469 O   0  0  0  0  0  0  0  0  0  0  0  0
    7.6111   -2.5145   17.2278 H   0  0  0  0  0  0  0  0  0  0  0  0
    7.7299   -3.1294   14.6493 C   0  0  0  0  0  0  0  0  0  0  0  0
    7.9146   -0.9219   13.4771 C   0  0  0  0  0  0  0  0  0  0  0  0
    7.8289   -2.2373   13.5041 N   0  0  0  0  0  0  0  0  0  0  0  0
    8.0917   -0.1951   14.3812 O   0  0  0  0  0  0  0  0  0  0  0  0
    7.8324   -2.6787   12.6241 H   0  0  0  0  0  0  0  0  0  0  0  0
    7.7730   -0.5614   12.1326 O   0  0  0  0  0  0  0  0  0  0  0  0
    7.7979    1.8080   11.5419 C   0  0  0  0  0  0  0  0  0  0  0  0
    8.5056    0.1323    9.9503 C   0  0  0  0  0  0  0  0  0  0  0  0
    8.5210    0.4546   11.4476 C   0  0  0  0  0  0  0  0  0  0  0  0
    7.7794    1.3009    9.2782 C   0  0  0  0  0  0  0  0  0  0  0  0
    7.1347    2.0616   10.2792 O   0  0  0  0  0  0  0  0  0  0  0  0
    9.2131   -3.2916   15.2456 C   0  0  0  0  0  0  0  0  0  0  0  0
    9.3961   -4.6232   15.9249 C   0  0  0  0  0  0  0  0  0  0  0  0
   10.3079   -4.7011   17.0656 C   0  0  0  0  0  0  0  0  0  0  0  0
    8.7021   -5.8275   15.4653 C   0  0  0  0  0  0  0  0  0  0  0  0
   10.5501   -5.9548   17.7604 C   0  0  0  0  0  0  0  0  0  0  0  0
    8.9471   -7.0929   16.1751 C   0  0  0  0  0  0  0  0  0  0  0  0
    9.8771   -7.1631   17.3306 C   0  0  0  0  0  0  0  0  0  0  0  0
    5.4515   -3.4822   16.3417 C   0  0  0  0  0  0  0  0  0  0  0  0
    4.4595   -4.4352   15.6877 N   0  0  0  0  0  0  0  0  0  0  0  0
    2.2273   -2.9903   16.3487 O   0  0  0  0  0  0  0  0  0  0  0  0
    1.9856   -4.5501   14.5208 O   0  0  0  0  0  0  0  0  0  0  0  0
    2.8752   -3.7092   15.2622 S   0  0  0  0  0  0  0  0  0  0  0  0
    3.3430   -2.5151   14.1300 C   0  0  0  0  0  0  0  0  0  0  0  0
    3.0249   -1.1029   14.2942 C   0  0  0  0  0  0  0  0  0  0  0  0
    3.4988   -0.1505   13.3089 C   0  0  0  0  0  0  0  0  0  0  0  0
    4.2776   -0.6340   12.1912 C   0  0  0  0  0  0  0  0  0  0  0  0
    4.5795   -2.0092   12.0382 C   0  0  0  0  0  0  0  0  0  0  0  0
    4.1118   -2.9458   13.0109 C   0  0  0  0  0  0  0  0  0  0  0  0
    4.7209    0.1991   11.2973 N   0  0  0  0  0  0  0  0  0  0  0  0
    4.5251    1.1604   11.3802 H   0  0  0  0  0  0  0  0  0  0  0  0
    5.2524   -0.1311   10.5372 H   0  0  0  0  0  0  0  0  0  0  0  0
    4.3698   -5.9616   16.1569 C   0  0  0  0  0  0  0  0  0  0  0  0
    3.3973   -6.4277   17.2231 C   0  0  0  0  0  0  0  0  0  0  0  0
    3.3142   -7.9422   17.3611 C   0  0  0  0  0  0  0  0  0  0  0  0
    3.5453   -5.7234   18.5967 C   0  0  0  0  0  0  0  0  0  0  0  0
 10 12  1  0  0  0
 10 14  1  0  0  0
 11 12  1  0  0  0
 11 13  1  0  0  0
  5  6  1  0  0  0
  5  9  1  0  0  0
  5  7  2  0  0  0
 12  9  1  0  0  0
  4  1  1  0  0  0
  4 15  1  0  0  0
  4  6  1  0  0  0
  1 22  1  0  0  0
  1  2  1  0  0  0
 15 16  1  0  0  0
 16 17  2  0  0  0
 16 18  1  0  0  0
 17 19  1  0  0  0
 18 20  2  0  0  0
 19 21  2  0  0  0
 20 21  1  0  0  0
 22 23  1  0  0  0
 36 37  1  0  0  0
 36 23  1  0  0  0
 37 38  1  0  0  0
 37 39  1  0  0  0
 27 28  2  0  0  0
 27 32  1  0  0  0
 27 26  1  0  0  0
 28 29  1  0  0  0
 29 30  2  0  0  0
 30 31  1  0  0  0
 30 33  1  0  0  0
 31 32  2  0  0  0
 13 14  1  0  0  0
 23 26  1  0  0  0
 24 26  2  0  0  0
 25 26  2  0  0  0
  6  8  1  0  0  0
 33 34  1  0  0  0
 33 35  1  0  0  0
  2  3  1  0  0  0
M  END
> <minimizedAffinity>
-9.01310

$$$$
1T7J_478_A_200


 39 41  0  0  0  0  0  0  0  0999 V2000
    5.5107   -1.0720   15.6151 C   0  0  0  0  0  0  0  0  0  0  0  0
    5.2830   -0.0441   16.5187 O   0  0  0  0  0  0  0  0  0  0  0  0
    6.1068    0.4471   16.6639 H   0  0  0  0  0  0  0  0  0  0  0  0
    5.7795   -0.4242   14.1791 C   0  0  0  0  0  0  0  0  0  0  0  0
    3.6412   -0.2290   12.8864 C   0  0  0  0  0  0  0  0  0  0  0  0
    4.5454    0.2093   13.7401 N   0  0  0  0  0  0  0  0  0  0  0  0
    3.5575   -1.3011   12.4164 O   0  0  0  0  0  0  0  0  0  0  0  0
    4.3589    1.0907   14.1370 H   0  0  0  0  0  0  0  0  0  0  0  0
    2.7753    0.8478   12.6669 O   0  0  0  0  0  0  0  0  0  0  0  0
    2.3992    2.8141   11.2684 C   0  0  0  0  0  0  0  0  0  0  0  0
    0.7699    1.0308   11.3531 C   0  0  0  0  0  0  0  0  0  0  0  0
    2.2796    1.2865   11.3929 C   0  0  0  0  0  0  0  0  0  0  0  0
    0.1157    2.4083   11.2152 C   0  0  0  0  0  0  0  0  0  0  0  0
    1.0901    3.3950   11.4860 O   0  0  0  0  0  0  0  0  0  0  0  0
    6.9484    0.6664   14.0176 C   0  0  0  0  0  0  0  0  0  0  0  0
    7.6143    0.5714   12.6701 C   0  0  0  0  0  0  0  0  0  0  0  0
    8.7911   -0.2864   12.5363 C   0  0  0  0  0  0  0  0  0  0  0  0
    7.1249    1.3203   11.5112 C   0  0  0  0  0  0  0  0  0  0  0  0
    9.4983   -0.4143   11.2727 C   0  0  0  0  0  0  0  0  0  0  0  0
    7.8414    1.1835   10.2334 C   0  0  0  0  0  0  0  0  0  0  0  0
    9.0374    0.3123   10.1077 C   0  0  0  0  0  0  0  0  0  0  0  0
    6.5283   -2.0327   16.4222 C   0  0  0  0  0  0  0  0  0  0  0  0
    6.5373   -3.5559   16.4266 N   0  0  0  0  0  0  0  0  0  0  0  0
    8.3466   -3.3793   14.3766 O   0  0  0  0  0  0  0  0  0  0  0  0
    6.8818   -5.2992   14.3440 O   0  0  0  0  0  0  0  0  0  0  0  0
    7.5399   -4.3139   15.1467 S   0  0  0  0  0  0  0  0  0  0  0  0
    8.6481   -5.2242   16.0792 C   0  0  0  0  0  0  0  0  0  0  0  0
    9.7698   -4.6198   16.7856 C   0  0  0  0  0  0  0  0  0  0  0  0
   10.6357   -5.4593   17.5906 C   0  0  0  0  0  0  0  0  0  0  0  0
   10.3558   -6.8753   17.6693 C   0  0  0  0  0  0  0  0  0  0  0  0
    9.2648   -7.4546   16.9768 C   0  0  0  0  0  0  0  0  0  0  0  0
    8.4125   -6.6251   16.1846 C   0  0  0  0  0  0  0  0  0  0  0  0
   11.1119   -7.6496   18.3895 N   0  0  0  0  0  0  0  0  0  0  0  0
   11.8769   -7.2720   18.8809 H   0  0  0  0  0  0  0  0  0  0  0  0
   10.9195   -8.6136   18.4436 H   0  0  0  0  0  0  0  0  0  0  0  0
    5.2104   -4.3747   16.7829 C   0  0  0  0  0  0  0  0  0  0  0  0
    3.8324   -3.9199   16.3422 C   0  0  0  0  0  0  0  0  0  0  0  0
    3.2672   -4.7135   15.1716 C   0  0  0  0  0  0  0  0  0  0  0  0
    2.8006   -3.7543   17.4879 C   0  0  0  0  0  0  0  0  0  0  0  0
 10 12  1  0  0  0
 10 14  1  0  0  0
 11 12  1  0  0  0
 11 13  1  0  0  0
  5  6  1  0  0  0
  5  9  1  0  0  0
  5  7  2  0  0  0
 12  9  1  0  0  0
  4  1  1  0  0  0
  4 15  1  0  0  0
  4  6  1  0  0  0
  1 22  1  0  0  0
  1  2  1  0  0  0
 15 16  1  0  0  0
 16 17  2  0  0  0
 16 18  1  0  0  0
 17 19  1  0  0  0
 18 20  2  0  0  0
 19 21  2  0  0  0
 20 21  1  0  0  0
 22 23  1  0  0  0
 36 37  1  0  0  0
 36 23  1  0  0  0
 37 38  1  0  0  0
 37 39  1  0  0  0
 27 28  2  0  0  0
 27 32  1  0  0  0
 27 26  1  0  0  0
 28 29  1  0  0  0
 29 30  2  0  0  0
 30 31  1  0  0  0
 30 33  1  0  0  0
 31 32  2  0  0  0
 13 14  1  0  0  0
 23 26  1  0  0  0
 24 26  2  0  0  0
 25 26  2  0  0  0
  6  8  1  0  0  0
 33 34  1  0  0  0
 33 35  1  0  0  0
  2  3  1  0  0  0
M  END
> <minimizedAffinity>
-8.90764

$$$$
1T7J_478_A_200


 39 41  0  0  0  0  0  0  0  0999 V2000
    5.7765   -1.8403   16.1240 C   0  0  0  0  0  0  0  0  0  0  0  0
    5.3478   -1.0234   17.1602 O   0  0  0  0  0  0  0  0  0  0  0  0
    4.3783   -0.9931   17.1681 H   0  0  0  0  0  0  0  0  0  0  0  0
    5.3908   -3.3486   16.4847 C   0  0  0  0  0  0  0  0  0  0  0  0
    7.3917   -4.7739   16.9810 C   0  0  0  0  0  0  0  0  0  0  0  0
    6.4616   -3.8967   17.3033 N   0  0  0  0  0  0  0  0  0  0  0  0
    7.6543   -5.1823   15.9126 O   0  0  0  0  0  0  0  0  0  0  0  0
    6.4966   -3.5655   18.2297 H   0  0  0  0  0  0  0  0  0  0  0  0
    8.0278   -5.1086   18.1813 O   0  0  0  0  0  0  0  0  0  0  0  0
    9.2897   -7.1924   18.0115 C   0  0  0  0  0  0  0  0  0  0  0  0
    6.9001   -7.2233   18.3729 C   0  0  0  0  0  0  0  0  0  0  0  0
    8.1619   -6.4301   18.7260 C   0  0  0  0  0  0  0  0  0  0  0  0
    7.3673   -8.3784   17.4828 C   0  0  0  0  0  0  0  0  0  0  0  0
    8.6924   -8.1157   17.0686 O   0  0  0  0  0  0  0  0  0  0  0  0
    4.0135   -3.6418   17.2585 C   0  0  0  0  0  0  0  0  0  0  0  0
    3.7763   -5.1191   17.4299 C   0  0  0  0  0  0  0  0  0  0  0  0
    3.4468   -5.6192   18.7641 C   0  0  0  0  0  0  0  0  0  0  0  0
    3.8817   -6.0544   16.3085 C   0  0  0  0  0  0  0  0  0  0  0  0
    3.2227   -7.0340   19.0112 C   0  0  0  0  0  0  0  0  0  0  0  0
    3.6491   -7.4848   16.5631 C   0  0  0  0  0  0  0  0  0  0  0  0
    3.3179   -7.9838   17.9219 C   0  0  0  0  0  0  0  0  0  0  0  0
    5.2925   -1.0304   14.8126 C   0  0  0  0  0  0  0  0  0  0  0  0
    6.1813   -0.3698   13.7669 N   0  0  0  0  0  0  0  0  0  0  0  0
    5.1310   -2.0021   11.8331 O   0  0  0  0  0  0  0  0  0  0  0  0
    6.6847   -0.3151   11.0764 O   0  0  0  0  0  0  0  0  0  0  0  0
    5.7193   -0.6915   12.0636 S   0  0  0  0  0  0  0  0  0  0  0  0
    4.4497    0.4328   11.8390 C   0  0  0  0  0  0  0  0  0  0  0  0
    4.6826    1.8540   11.6192 C   0  0  0  0  0  0  0  0  0  0  0  0
    3.5503    2.7311   11.3929 C   0  0  0  0  0  0  0  0  0  0  0  0
    2.2204    2.1647   11.3899 C   0  0  0  0  0  0  0  0  0  0  0  0
    2.0032    0.7822   11.6074 C   0  0  0  0  0  0  0  0  0  0  0  0
    3.1208   -0.0802   11.8296 C   0  0  0  0  0  0  0  0  0  0  0  0
    1.1881    2.9271   11.1825 N   0  0  0  0  0  0  0  0  0  0  0  0
    1.3116    3.8917   11.0286 H   0  0  0  0  0  0  0  0  0  0  0  0
    0.2829    2.5401   11.1792 H   0  0  0  0  0  0  0  0  0  0  0  0
    7.7590   -0.2503   14.0008 C   0  0  0  0  0  0  0  0  0  0  0  0
    8.7142   -1.3874   13.6931 C   0  0  0  0  0  0  0  0  0  0  0  0
    9.7840   -1.0328   12.6688 C   0  0  0  0  0  0  0  0  0  0  0  0
    9.3090   -2.0970   14.9371 C   0  0  0  0  0  0  0  0  0  0  0  0
 10 12  1  0  0  0
 10 14  1  0  0  0
 11 12  1  0  0  0
 11 13  1  0  0  0
  5  6  1  0  0  0
  5  9  1  0  0  0
  5  7  2  0  0  0
 12  9  1  0  0  0
  4  1  1  0  0  0
  4 15  1  0  0  0
  4  6  1  0  0  0
  1 22  1  0  0  0
  1  2  1  0  0  0
 15 16  1  0  0  0
 16 17  2  0  0  0
 16 18  1  0  0  0
 17 19  1  0  0  0
 18 20  2  0  0  0
 19 21  2  0  0  0
 20 21  1  0  0  0
 22 23  1  0  0  0
 36 37  1  0  0  0
 36 23  1  0  0  0
 37 38  1  0  0  0
 37 39  1  0  0  0
 27 28  2  0  0  0
 27 32  1  0  0  0
 27 26  1  0  0  0
 28 29  1  0  0  0
 29 30  2  0  0  0
 30 31  1  0  0  0
 30 33  1  0  0  0
 31 32  2  0  0  0
 13 14  1  0  0  0
 23 26  1  0  0  0
 24 26  2  0  0  0
 25 26  2  0  0  0
  6  8  1  0  0  0
 33 34  1  0  0  0
 33 35  1  0  0  0
  2  3  1  0  0  0
M  END
> <minimizedAffinity>
-8.76423

$$$$
1T7J_478_A_200


 39 41  0  0  0  0  0  0  0  0999 V2000
    5.1458   -0.6576   15.4488 C   0  0  0  0  0  0  0  0  0  0  0  0
    5.2405    0.3868   16.3572 O   0  0  0  0  0  0  0  0  0  0  0  0
    6.1749    0.5827   16.5284 H   0  0  0  0  0  0  0  0  0  0  0  0
    5.6501   -0.1303   14.0270 C   0  0  0  0  0  0  0  0  0  0  0  0
    3.7330    0.3127   12.4746 C   0  0  0  0  0  0  0  0  0  0  0  0
    4.5724    0.6475   13.4345 N   0  0  0  0  0  0  0  0  0  0  0  0
    3.5711   -0.7484   12.0000 O   0  0  0  0  0  0  0  0  0  0  0  0
    4.4531    1.5526   13.8029 H   0  0  0  0  0  0  0  0  0  0  0  0
    3.0473    1.4870   12.1454 O   0  0  0  0  0  0  0  0  0  0  0  0
    2.0124    3.1897   10.7336 C   0  0  0  0  0  0  0  0  0  0  0  0
    0.8214    1.1632   11.2963 C   0  0  0  0  0  0  0  0  0  0  0  0
    2.2262    1.6882   10.9850 C   0  0  0  0  0  0  0  0  0  0  0  0
   -0.1074    2.3777   11.2124 C   0  0  0  0  0  0  0  0  0  0  0  0
    0.6861    3.5467   11.1941 O   0  0  0  0  0  0  0  0  0  0  0  0
    6.9759    0.7743   13.9517 C   0  0  0  0  0  0  0  0  0  0  0  0
    7.6620    0.6442   12.6174 C   0  0  0  0  0  0  0  0  0  0  0  0
    8.7199   -0.3554   12.4752 C   0  0  0  0  0  0  0  0  0  0  0  0
    7.3081    1.4952   11.4798 C   0  0  0  0  0  0  0  0  0  0  0  0
    9.4401   -0.5267   11.2241 C   0  0  0  0  0  0  0  0  0  0  0  0
    8.0368    1.3143   10.2144 C   0  0  0  0  0  0  0  0  0  0  0  0
    9.1117    0.2986   10.0802 C   0  0  0  0  0  0  0  0  0  0  0  0
    5.7725   -1.8988   16.2713 C   0  0  0  0  0  0  0  0  0  0  0  0
    6.6834   -2.9903   15.7247 N   0  0  0  0  0  0  0  0  0  0  0  0
    6.6777   -5.4003   14.4212 O   0  0  0  0  0  0  0  0  0  0  0  0
    4.5448   -4.2825   14.6060 O   0  0  0  0  0  0  0  0  0  0  0  0
    5.8434   -4.4771   15.1753 S   0  0  0  0  0  0  0  0  0  0  0  0
    5.5212   -5.2540   16.6649 C   0  0  0  0  0  0  0  0  0  0  0  0
    6.5293   -6.0104   17.3958 C   0  0  0  0  0  0  0  0  0  0  0  0
    6.1838   -6.6004   18.6746 C   0  0  0  0  0  0  0  0  0  0  0  0
    4.8449   -6.4163   19.1874 C   0  0  0  0  0  0  0  0  0  0  0  0
    3.8705   -5.6818   18.4686 C   0  0  0  0  0  0  0  0  0  0  0  0
    4.2136   -5.1009   17.2088 C   0  0  0  0  0  0  0  0  0  0  0  0
    4.5107   -6.9284   20.3345 N   0  0  0  0  0  0  0  0  0  0  0  0
    5.1693   -7.4435   20.8543 H   0  0  0  0  0  0  0  0  0  0  0  0
    3.5989   -6.8012   20.6835 H   0  0  0  0  0  0  0  0  0  0  0  0
    8.1152   -3.2591   16.3849 C   0  0  0  0  0  0  0  0  0  0  0  0
    9.3448   -3.5777   15.5562 C   0  0  0  0  0  0  0  0  0  0  0  0
   10.0629   -2.3458   15.0212 C   0  0  0  0  0  0  0  0  0  0  0  0
   10.3252   -4.5903   16.2029 C   0  0  0  0  0  0  0  0  0  0  0  0
 10 12  1  0  0  0
 10 14  1  0  0  0
 11 12  1  0  0  0
 11 13  1  0  0  0
  5  6  1  0  0  0
  5  9  1  0  0  0
  5  7  2  0  0  0
 12  9  1  0  0  0
  4  1  1  0  0  0
  4 15  1  0  0  0
  4  6  1  0  0  0
  1 22  1  0  0  0
  1  2  1  0  0  0
 15 16  1  0  0  0
 16 17  2  0  0  0
 16 18  1  0  0  0
 17 19  1  0  0  0
 18 20  2  0  0  0
 19 21  2  0  0  0
 20 21  1  0  0  0
 22 23  1  0  0  0
 36 37  1  0  0  0
 36 23  1  0  0  0
 37 38  1  0  0  0
 37 39  1  0  0  0
 27 28  2  0  0  0
 27 32  1  0  0  0
 27 26  1  0  0  0
 28 29  1  0  0  0
 29 30  2  0  0  0
 30 31  1  0  0  0
 30 33  1  0  0  0
 31 32  2  0  0  0
 13 14  1  0  0  0
 23 26  1  0  0  0
 24 26  2  0  0  0
 25 26  2  0  0  0
  6  8  1  0  0  0
 33 34  1  0  0  0
 33 35  1  0  0  0
  2  3  1  0  0  0
M  END
> <minimizedAffinity>
-8.75247

$$$$
1T7J_478_A_200


 39 41  0  0  0  0  0  0  0  0999 V2000
    5.3015   -1.1230   15.7937 C   0  0  0  0  0  0  0  0  0  0  0  0
    4.0487   -1.7189   15.7866 O   0  0  0  0  0  0  0  0  0  0  0  0
    3.7930   -1.9232   14.8734 H   0  0  0  0  0  0  0  0  0  0  0  0
    6.3811   -2.2246   15.3754 C   0  0  0  0  0  0  0  0  0  0  0  0
    6.1595   -4.5348   16.3217 C   0  0  0  0  0  0  0  0  0  0  0  0
    5.7721   -3.5337   15.5562 N   0  0  0  0  0  0  0  0  0  0  0  0
    6.9935   -4.5265   17.1473 O   0  0  0  0  0  0  0  0  0  0  0  0
    4.9542   -3.6948   15.0323 H   0  0  0  0  0  0  0  0  0  0  0  0
    5.3507   -5.6190   15.9642 O   0  0  0  0  0  0  0  0  0  0  0  0
    2.9805   -5.1153   15.6608 C   0  0  0  0  0  0  0  0  0  0  0  0
    3.9282   -5.3019   17.8764 C   0  0  0  0  0  0  0  0  0  0  0  0
    4.0340   -5.8922   16.4670 C   0  0  0  0  0  0  0  0  0  0  0  0
    2.8379   -4.2296   17.8002 C   0  0  0  0  0  0  0  0  0  0  0  0
    2.5637   -3.9669   16.4392 O   0  0  0  0  0  0  0  0  0  0  0  0
    6.9958   -2.1956   13.8911 C   0  0  0  0  0  0  0  0  0  0  0  0
    8.4966   -2.0724   13.9139 C   0  0  0  0  0  0  0  0  0  0  0  0
    9.2307   -2.7286   14.9950 C   0  0  0  0  0  0  0  0  0  0  0  0
    9.2251   -1.3080   12.8998 C   0  0  0  0  0  0  0  0  0  0  0  0
   10.6782   -2.6390   15.0942 C   0  0  0  0  0  0  0  0  0  0  0  0
   10.6906   -1.2245   13.0020 C   0  0  0  0  0  0  0  0  0  0  0  0
   11.4273   -1.8917   14.1052 C   0  0  0  0  0  0  0  0  0  0  0  0
    5.0327    0.2735   15.0272 C   0  0  0  0  0  0  0  0  0  0  0  0
    4.7993    0.4661   13.5344 N   0  0  0  0  0  0  0  0  0  0  0  0
    2.3732   -0.7542   13.8972 O   0  0  0  0  0  0  0  0  0  0  0  0
    3.5538   -1.3107   11.8651 O   0  0  0  0  0  0  0  0  0  0  0  0
    3.3299   -0.3323   12.8854 S   0  0  0  0  0  0  0  0  0  0  0  0
    2.5826    0.9605   12.0509 C   0  0  0  0  0  0  0  0  0  0  0  0
    1.1399    1.0567   11.8721 C   0  0  0  0  0  0  0  0  0  0  0  0
    0.5855    2.2101   11.1902 C   0  0  0  0  0  0  0  0  0  0  0  0
    1.4856    3.2340   10.7096 C   0  0  0  0  0  0  0  0  0  0  0  0
    2.8870    3.1307   10.8853 C   0  0  0  0  0  0  0  0  0  0  0  0
    3.4309    1.9934   11.5581 C   0  0  0  0  0  0  0  0  0  0  0  0
    1.0147    4.2819   10.1012 N   0  0  0  0  0  0  0  0  0  0  0  0
    0.0442    4.3780    9.9662 H   0  0  0  0  0  0  0  0  0  0  0  0
    1.6285    4.9793    9.7756 H   0  0  0  0  0  0  0  0  0  0  0  0
    6.0322    0.4854   12.5156 C   0  0  0  0  0  0  0  0  0  0  0  0
    6.9466    1.6865   12.3698 C   0  0  0  0  0  0  0  0  0  0  0  0
    7.8850    1.8931   13.5513 C   0  0  0  0  0  0  0  0  0  0  0  0
    7.6881    1.7831   11.0112 C   0  0  0  0  0  0  0  0  0  0  0  0
 10 12  1  0  0  0
 10 14  1  0  0  0
 11 12  1  0  0  0
 11 13  1  0  0  0
  5  6  1  0  0  0
  5  9  1  0  0  0
  5  7  2  0  0  0
 12  9  1  0  0  0
  4  1  1  0  0  0
  4 15  1  0  0  0
  4  6  1  0  0  0
  1 22  1  0  0  0
  1  2  1  0  0  0
 15 16  1  0  0  0
 16 17  2  0  0  0
 16 18  1  0  0  0
 17 19  1  0  0  0
 18 20  2  0  0  0
 19 21  2  0  0  0
 20 21  1  0  0  0
 22 23  1  0  0  0
 36 37  1  0  0  0
 36 23  1  0  0  0
 37 38  1  0  0  0
 37 39  1  0  0  0
 27 28  2  0  0  0
 27 32  1  0  0  0
 27 26  1  0  0  0
 28 29  1  0  0  0
 29 30  2  0  0  0
 30 31  1  0  0  0
 30 33  1  0  0  0
 31 32  2  0  0  0
 13 14  1  0  0  0
 23 26  1  0  0  0
 24 26  2  0  0  0
 25 26  2  0  0  0
  6  8  1  0  0  0
 33 34  1  0  0  0
 33 35  1  0  0  0
  2  3  1  0  0  0
M  END
> <minimizedAffinity>
-8.74884

$$$$
1T7J_478_A_200


 39 41  0  0  0  0  0  0  0  0999 V2000
    4.0471   -0.8738   13.9913 C   0  0  0  0  0  0  0  0  0  0  0  0
    2.9261   -0.9015   14.8082 O   0  0  0  0  0  0  0  0  0  0  0  0
    2.9351   -0.1299   15.3959 H   0  0  0  0  0  0  0  0  0  0  0  0
    3.8866    0.3397   12.9639 C   0  0  0  0  0  0  0  0  0  0  0  0
    6.2489    0.3318   12.1268 C   0  0  0  0  0  0  0  0  0  0  0  0
    5.2107    0.8902   12.7172 N   0  0  0  0  0  0  0  0  0  0  0  0
    6.2777   -0.6770   11.5278 O   0  0  0  0  0  0  0  0  0  0  0  0
    5.3514    1.8108   13.0365 H   0  0  0  0  0  0  0  0  0  0  0  0
    7.3205    1.2057   12.3404 O   0  0  0  0  0  0  0  0  0  0  0  0
    7.3343    3.5711   11.7336 C   0  0  0  0  0  0  0  0  0  0  0  0
    7.2100    1.8613   10.0298 C   0  0  0  0  0  0  0  0  0  0  0  0
    7.8350    2.1572   11.3965 C   0  0  0  0  0  0  0  0  0  0  0  0
    6.3919    3.1034    9.6660 C   0  0  0  0  0  0  0  0  0  0  0  0
    6.2598    3.9058   10.8215 O   0  0  0  0  0  0  0  0  0  0  0  0
    3.2180    0.0680   11.5283 C   0  0  0  0  0  0  0  0  0  0  0  0
    2.2323    1.1460   11.1617 C   0  0  0  0  0  0  0  0  0  0  0  0
    2.7380    2.3624   10.5267 C   0  0  0  0  0  0  0  0  0  0  0  0
    0.8008    1.0108   11.4370 C   0  0  0  0  0  0  0  0  0  0  0  0
    1.8504    3.4540   10.1612 C   0  0  0  0  0  0  0  0  0  0  0  0
   -0.0940    2.1166   11.0605 C   0  0  0  0  0  0  0  0  0  0  0  0
    0.4291    3.3493   10.4188 C   0  0  0  0  0  0  0  0  0  0  0  0
    5.2567   -1.0641   15.0452 C   0  0  0  0  0  0  0  0  0  0  0  0
    6.4808   -1.9553   14.8799 N   0  0  0  0  0  0  0  0  0  0  0  0
    6.7545   -3.5273   17.1073 O   0  0  0  0  0  0  0  0  0  0  0  0
    6.9239   -4.6551   14.9784 O   0  0  0  0  0  0  0  0  0  0  0  0
    6.3792   -3.5467   15.7016 S   0  0  0  0  0  0  0  0  0  0  0  0
    4.6931   -3.8342   15.6756 C   0  0  0  0  0  0  0  0  0  0  0  0
    3.8410   -3.6430   16.8417 C   0  0  0  0  0  0  0  0  0  0  0  0
    2.4134   -3.8667   16.7206 C   0  0  0  0  0  0  0  0  0  0  0  0
    1.8781   -4.2716   15.4403 C   0  0  0  0  0  0  0  0  0  0  0  0
    2.7146   -4.4579   14.3128 C   0  0  0  0  0  0  0  0  0  0  0  0
    4.1210   -4.2362   14.4346 C   0  0  0  0  0  0  0  0  0  0  0  0
    0.6012   -4.4720   15.3022 N   0  0  0  0  0  0  0  0  0  0  0  0
   -0.0023   -4.3495   16.0704 H   0  0  0  0  0  0  0  0  0  0  0  0
    0.2375   -4.7464   14.4295 H   0  0  0  0  0  0  0  0  0  0  0  0
    7.9499   -1.3229   14.8676 C   0  0  0  0  0  0  0  0  0  0  0  0
    9.1195   -1.9991   14.1787 C   0  0  0  0  0  0  0  0  0  0  0  0
    9.6696   -1.2194   12.9917 C   0  0  0  0  0  0  0  0  0  0  0  0
   10.2441   -2.4882   15.1279 C   0  0  0  0  0  0  0  0  0  0  0  0
 10 12  1  0  0  0
 10 14  1  0  0  0
 11 12  1  0  0  0
 11 13  1  0  0  0
  5  6  1  0  0  0
  5  9  1  0  0  0
  5  7  2  0  0  0
 12  9  1  0  0  0
  4  1  1  0  0  0
  4 15  1  0  0  0
  4  6  1  0  0  0
  1 22  1  0  0  0
  1  2  1  0  0  0
 15 16  1  0  0  0
 16 17  2  0  0  0
 16 18  1  0  0  0
 17 19  1  0  0  0
 18 20  2  0  0  0
 19 21  2  0  0  0
 20 21  1  0  0  0
 22 23  1  0  0  0
 36 37  1  0  0  0
 36 23  1  0  0  0
 37 38  1  0  0  0
 37 39  1  0  0  0
 27 28  2  0  0  0
 27 32  1  0  0  0
 27 26  1  0  0  0
 28 29  1  0  0  0
 29 30  2  0  0  0
 30 31  1  0  0  0
 30 33  1  0  0  0
 31 32  2  0  0  0
 13 14  1  0  0  0
 23 26  1  0  0  0
 24 26  2  0  0  0
 25 26  2  0  0  0
  6  8  1  0  0  0
 33 34  1  0  0  0
 33 35  1  0  0  0
  2  3  1  0  0  0
M  END
> <minimizedAffinity>
-8.72840

$$$$
