1BJU_GP6_A_910


 25 26  0  0  0  0  0  0  0  0999 V2000
   -0.0183   16.6155   19.8711 N   0  0  0  0  0  0  0  0  0  0  0  0
    0.5247   17.8299   19.6730 C   0  0  0  0  0  0  0  0  0  0  0  0
    0.5396   18.4029   18.5729 O   0  0  0  0  0  0  0  0  0  0  0  0
    1.0560   18.3796   20.7715 N   0  0  0  0  0  0  0  0  0  0  0  0
   -0.0272   16.2673   20.7920 H   0  0  0  0  0  0  0  0  0  0  0  0
    0.8367   17.9429   21.6262 H   0  0  0  0  0  0  0  0  0  0  0  0
    1.8539   19.4579   20.8433 C   0  0  0  0  0  0  0  0  0  0  0  0
    1.3231   20.6610   21.3170 C   0  0  0  0  0  0  0  0  0  0  0  0
    2.1314   21.7943   21.4339 C   0  0  0  0  0  0  0  0  0  0  0  0
    3.4745   21.7331   21.0635 C   0  0  0  0  0  0  0  0  0  0  0  0
    4.0089   20.5444   20.5814 C   0  0  0  0  0  0  0  0  0  0  0  0
    3.2017   19.4112   20.4692 C   0  0  0  0  0  0  0  0  0  0  0  0
    4.5015   23.1029   21.1893 Cl  0  0  0  0  0  0  0  0  0  0  0  0
   -1.7307   14.2530   16.8531 C   0  0  0  0  0  0  0  0  0  0  0  0
   -0.9693   13.6681   17.8702 C   0  0  0  0  0  0  0  0  0  0  0  0
   -0.3875   14.4396   18.8806 C   0  0  0  0  0  0  0  0  0  0  0  0
   -0.5550   15.8325   18.9013 C   0  0  0  0  0  0  0  0  0  0  0  0
   -1.3119   16.4237   17.8888 C   0  0  0  0  0  0  0  0  0  0  0  0
   -1.8878   15.6390   16.8868 C   0  0  0  0  0  0  0  0  0  0  0  0
   -3.1082   14.0517   14.9318 N   0  0  0  0  0  0  0  0  0  0  0  0
   -1.8701   12.2514   15.6192 N   0  0  0  0  0  0  0  0  0  0  0  0
   -2.3006   13.4940   15.8235 C   0  0  0  0  0  0  0  0  0  0  0  0
   -3.5012   13.5049   14.2137 H   0  0  0  0  0  0  0  0  0  0  0  0
   -2.2622   11.7068   14.8987 H   0  0  0  0  0  0  0  0  0  0  0  0
   -1.1597   11.8767   16.1885 H   0  0  0  0  0  0  0  0  0  0  0  0
 20 22  2  0  0  0
 21 22  1  0  0  0
 22 14  1  0  0  0
 14 15  2  0  0  0
 14 19  1  0  0  0
 15 16  1  0  0  0
 16 17  2  0  0  0
 17 18  1  0  0  0
 17  1  1  0  0  0
 18 19  2  0  0  0
  1  2  1  0  0  0
  2  3  2  0  0  0
  2  4  1  0  0  0
  4  7  1  0  0  0
  7  8  2  0  0  0
  7 12  1  0  0  0
  8  9  1  0  0  0
  9 10  2  0  0  0
 10 11  1  0  0  0
 10 13  1  0  0  0
 11 12  2  0  0  0
 20 23  1  0  0  0
 21 24  1  0  0  0
 21 25  1  0  0  0
  1  5  1  0  0  0
  4  6  1  0  0  0
M  END
> <minimizedAffinity>
-8.53090

$$$$
1BJU_GP6_A_910


 25 26  0  0  0  0  0  0  0  0999 V2000
   -0.1292   16.6361   19.9543 N   0  0  0  0  0  0  0  0  0  0  0  0
   -0.7866   16.9404   21.0875 C   0  0  0  0  0  0  0  0  0  0  0  0
   -1.9026   16.4826   21.3766 O   0  0  0  0  0  0  0  0  0  0  0  0
   -0.1332   17.7888   21.8903 N   0  0  0  0  0  0  0  0  0  0  0  0
    0.7745   17.0096   19.8398 H   0  0  0  0  0  0  0  0  0  0  0  0
    0.8130   17.9523   21.6727 H   0  0  0  0  0  0  0  0  0  0  0  0
   -0.6184   18.4431   22.9585 C   0  0  0  0  0  0  0  0  0  0  0  0
   -1.0950   19.7466   22.7935 C   0  0  0  0  0  0  0  0  0  0  0  0
   -1.6347   20.4456   23.8759 C   0  0  0  0  0  0  0  0  0  0  0  0
   -1.6873   19.8477   25.1347 C   0  0  0  0  0  0  0  0  0  0  0  0
   -1.2062   18.5560   25.3112 C   0  0  0  0  0  0  0  0  0  0  0  0
   -0.6714   17.8566   24.2281 C   0  0  0  0  0  0  0  0  0  0  0  0
   -2.3403   20.6725   26.4912 Cl  0  0  0  0  0  0  0  0  0  0  0  0
   -1.6759   14.2802   16.8431 C   0  0  0  0  0  0  0  0  0  0  0  0
   -1.0375   13.6865   17.9368 C   0  0  0  0  0  0  0  0  0  0  0  0
   -0.5122   14.4554   18.9797 C   0  0  0  0  0  0  0  0  0  0  0  0
   -0.6138   15.8546   18.9563 C   0  0  0  0  0  0  0  0  0  0  0  0
   -1.2478   16.4545   17.8673 C   0  0  0  0  0  0  0  0  0  0  0  0
   -1.7687   15.6724   16.8338 C   0  0  0  0  0  0  0  0  0  0  0  0
   -1.8295   12.2571   15.6133 N   0  0  0  0  0  0  0  0  0  0  0  0
   -3.1906   14.0139   15.0589 N   0  0  0  0  0  0  0  0  0  0  0  0
   -2.1871   13.5227   15.7820 C   0  0  0  0  0  0  0  0  0  0  0  0
   -2.1975   11.7375   14.8624 H   0  0  0  0  0  0  0  0  0  0  0  0
   -3.5594   13.4918   14.3102 H   0  0  0  0  0  0  0  0  0  0  0  0
   -3.5642   14.8993   15.2727 H   0  0  0  0  0  0  0  0  0  0  0  0
 20 22  2  0  0  0
 21 22  1  0  0  0
 22 14  1  0  0  0
 14 15  2  0  0  0
 14 19  1  0  0  0
 15 16  1  0  0  0
 16 17  2  0  0  0
 17 18  1  0  0  0
 17  1  1  0  0  0
 18 19  2  0  0  0
  1  2  1  0  0  0
  2  3  2  0  0  0
  2  4  1  0  0  0
  4  7  1  0  0  0
  7  8  2  0  0  0
  7 12  1  0  0  0
  8  9  1  0  0  0
  9 10  2  0  0  0
 10 11  1  0  0  0
 10 13  1  0  0  0
 11 12  2  0  0  0
 20 23  1  0  0  0
 21 24  1  0  0  0
 21 25  1  0  0  0
  1  5  1  0  0  0
  4  6  1  0  0  0
M  END
> <minimizedAffinity>
-8.39295

$$$$
1BJU_GP6_A_910


 25 26  0  0  0  0  0  0  0  0999 V2000
    0.0696   16.4318   19.9695 N   0  0  0  0  0  0  0  0  0  0  0  0
   -0.4656   17.4899   20.6042 C   0  0  0  0  0  0  0  0  0  0  0  0
   -1.6031   17.9260   20.3705 O   0  0  0  0  0  0  0  0  0  0  0  0
    0.3371   18.0440   21.5207 N   0  0  0  0  0  0  0  0  0  0  0  0
    0.9597   16.1296   20.2624 H   0  0  0  0  0  0  0  0  0  0  0  0
    1.1372   17.5265   21.7681 H   0  0  0  0  0  0  0  0  0  0  0  0
    0.1777   19.2242   22.1421 C   0  0  0  0  0  0  0  0  0  0  0  0
    0.7607   20.3656   21.5848 C   0  0  0  0  0  0  0  0  0  0  0  0
    0.5899   21.6143   22.1874 C   0  0  0  0  0  0  0  0  0  0  0  0
   -0.1551   21.7251   23.3611 C   0  0  0  0  0  0  0  0  0  0  0  0
   -0.7298   20.5944   23.9288 C   0  0  0  0  0  0  0  0  0  0  0  0
   -0.5625   19.3479   23.3235 C   0  0  0  0  0  0  0  0  0  0  0  0
   -0.3873   23.2399   24.1347 Cl  0  0  0  0  0  0  0  0  0  0  0  0
   -1.7149   14.2502   16.8584 C   0  0  0  0  0  0  0  0  0  0  0  0
   -1.7171   15.6489   16.8406 C   0  0  0  0  0  0  0  0  0  0  0  0
   -1.1319   16.3918   17.8703 C   0  0  0  0  0  0  0  0  0  0  0  0
   -0.5209   15.7480   18.9569 C   0  0  0  0  0  0  0  0  0  0  0  0
   -0.5163   14.3526   18.9828 C   0  0  0  0  0  0  0  0  0  0  0  0
   -1.1042   13.6244   17.9457 C   0  0  0  0  0  0  0  0  0  0  0  0
   -3.1644   14.0519   14.9907 N   0  0  0  0  0  0  0  0  0  0  0  0
   -1.8807   12.2592   15.6108 N   0  0  0  0  0  0  0  0  0  0  0  0
   -2.3164   13.4948   15.8443 C   0  0  0  0  0  0  0  0  0  0  0  0
   -3.5793   13.5076   14.2829 H   0  0  0  0  0  0  0  0  0  0  0  0
   -2.2947   11.7172   14.9008 H   0  0  0  0  0  0  0  0  0  0  0  0
   -1.1444   11.8871   16.1480 H   0  0  0  0  0  0  0  0  0  0  0  0
 20 22  2  0  0  0
 21 22  1  0  0  0
 22 14  1  0  0  0
 14 15  2  0  0  0
 14 19  1  0  0  0
 15 16  1  0  0  0
 16 17  2  0  0  0
 17 18  1  0  0  0
 17  1  1  0  0  0
 18 19  2  0  0  0
  1  2  1  0  0  0
  2  3  2  0  0  0
  2  4  1  0  0  0
  4  7  1  0  0  0
  7  8  2  0  0  0
  7 12  1  0  0  0
  8  9  1  0  0  0
  9 10  2  0  0  0
 10 11  1  0  0  0
 10 13  1  0  0  0
 11 12  2  0  0  0
 20 23  1  0  0  0
 21 24  1  0  0  0
 21 25  1  0  0  0
  1  5  1  0  0  0
  4  6  1  0  0  0
M  END
> <minimizedAffinity>
-7.82448

$$$$
1BJU_GP6_A_910


 25 26  0  0  0  0  0  0  0  0999 V2000
   -0.2146   18.7648   19.4471 N   0  0  0  0  0  0  0  0  0  0  0  0
    1.0850   19.0810   19.5886 C   0  0  0  0  0  0  0  0  0  0  0  0
    2.0124   18.3764   19.1619 O   0  0  0  0  0  0  0  0  0  0  0  0
    1.3025   20.2320   20.2360 N   0  0  0  0  0  0  0  0  0  0  0  0
   -0.8778   19.4146   19.7741 H   0  0  0  0  0  0  0  0  0  0  0  0
    0.5171   20.8097   20.3723 H   0  0  0  0  0  0  0  0  0  0  0  0
    2.4682   20.6906   20.7213 C   0  0  0  0  0  0  0  0  0  0  0  0
    3.4163   21.2026   19.8311 C   0  0  0  0  0  0  0  0  0  0  0  0
    4.6265   21.7160   20.3034 C   0  0  0  0  0  0  0  0  0  0  0  0
    4.9007   21.7069   21.6708 C   0  0  0  0  0  0  0  0  0  0  0  0
    3.9689   21.1903   22.5629 C   0  0  0  0  0  0  0  0  0  0  0  0
    2.7579   20.6817   22.0905 C   0  0  0  0  0  0  0  0  0  0  0  0
    6.3763   22.3259   22.2924 Cl  0  0  0  0  0  0  0  0  0  0  0  0
   -1.6877   15.2663   17.6547 C   0  0  0  0  0  0  0  0  0  0  0  0
   -1.4660   15.3210   19.0347 C   0  0  0  0  0  0  0  0  0  0  0  0
   -0.9713   16.4759   19.6481 C   0  0  0  0  0  0  0  0  0  0  0  0
   -0.6833   17.6201   18.8888 C   0  0  0  0  0  0  0  0  0  0  0  0
   -0.9001   17.5725   17.5110 C   0  0  0  0  0  0  0  0  0  0  0  0
   -1.3960   16.4115   16.9131 C   0  0  0  0  0  0  0  0  0  0  0  0
   -1.9832   12.9137   17.5709 N   0  0  0  0  0  0  0  0  0  0  0  0
   -2.9729   14.2269   15.9765 N   0  0  0  0  0  0  0  0  0  0  0  0
   -2.1623   14.1089   17.0253 C   0  0  0  0  0  0  0  0  0  0  0  0
   -2.3227   12.1091   17.1163 H   0  0  0  0  0  0  0  0  0  0  0  0
   -3.3138   13.4213   15.5247 H   0  0  0  0  0  0  0  0  0  0  0  0
   -3.2318   15.1198   15.6524 H   0  0  0  0  0  0  0  0  0  0  0  0
 20 22  2  0  0  0
 21 22  1  0  0  0
 22 14  1  0  0  0
 14 15  2  0  0  0
 14 19  1  0  0  0
 15 16  1  0  0  0
 16 17  2  0  0  0
 17 18  1  0  0  0
 17  1  1  0  0  0
 18 19  2  0  0  0
  1  2  1  0  0  0
  2  3  2  0  0  0
  2  4  1  0  0  0
  4  7  1  0  0  0
  7  8  2  0  0  0
  7 12  1  0  0  0
  8  9  1  0  0  0
  9 10  2  0  0  0
 10 11  1  0  0  0
 10 13  1  0  0  0
 11 12  2  0  0  0
 20 23  1  0  0  0
 21 24  1  0  0  0
 21 25  1  0  0  0
  1  5  1  0  0  0
  4  6  1  0  0  0
M  END
> <minimizedAffinity>
-7.21624

$$$$
1BJU_GP6_A_910


 25 26  0  0  0  0  0  0  0  0999 V2000
    1.2544   18.5730   20.8360 N   0  0  0  0  0  0  0  0  0  0  0  0
    0.9780   17.9193   19.6935 C   0  0  0  0  0  0  0  0  0  0  0  0
    1.4214   18.2577   18.5856 O   0  0  0  0  0  0  0  0  0  0  0  0
    0.1747   16.8600   19.8477 N   0  0  0  0  0  0  0  0  0  0  0  0
    0.8969   18.1959   21.6723 H   0  0  0  0  0  0  0  0  0  0  0  0
    0.0241   16.5591   20.7729 H   0  0  0  0  0  0  0  0  0  0  0  0
   -0.4500   16.1595   18.8866 C   0  0  0  0  0  0  0  0  0  0  0  0
   -0.4618   14.7642   18.9665 C   0  0  0  0  0  0  0  0  0  0  0  0
   -1.1279   14.0052   18.0012 C   0  0  0  0  0  0  0  0  0  0  0  0
   -1.7750   14.6394   16.9411 C   0  0  0  0  0  0  0  0  0  0  0  0
   -1.7599   16.0258   16.8471 C   0  0  0  0  0  0  0  0  0  0  0  0
   -1.0981   16.7836   17.8145 C   0  0  0  0  0  0  0  0  0  0  0  0
   -2.6030   13.7441   15.7329 Cl  0  0  0  0  0  0  0  0  0  0  0  0
    3.5882   22.0500   21.1284 C   0  0  0  0  0  0  0  0  0  0  0  0
    2.2000   22.1078   21.2896 C   0  0  0  0  0  0  0  0  0  0  0  0
    1.4064   20.9611   21.1908 C   0  0  0  0  0  0  0  0  0  0  0  0
    1.9873   19.7115   20.9265 C   0  0  0  0  0  0  0  0  0  0  0  0
    3.3717   19.6460   20.7626 C   0  0  0  0  0  0  0  0  0  0  0  0
    4.1511   20.8007   20.8655 C   0  0  0  0  0  0  0  0  0  0  0  0
    3.9904   24.2667   21.8723 N   0  0  0  0  0  0  0  0  0  0  0  0
    5.6494   23.1332   20.7726 N   0  0  0  0  0  0  0  0  0  0  0  0
    4.3918   23.1944   21.2035 C   0  0  0  0  0  0  0  0  0  0  0  0
    4.5666   25.0638   21.9161 H   0  0  0  0  0  0  0  0  0  0  0  0
    6.2252   23.9304   20.8197 H   0  0  0  0  0  0  0  0  0  0  0  0
    6.0040   22.2908   20.4068 H   0  0  0  0  0  0  0  0  0  0  0  0
 20 22  2  0  0  0
 21 22  1  0  0  0
 22 14  1  0  0  0
 14 15  2  0  0  0
 14 19  1  0  0  0
 15 16  1  0  0  0
 16 17  2  0  0  0
 17 18  1  0  0  0
 17  1  1  0  0  0
 18 19  2  0  0  0
  1  2  1  0  0  0
  2  3  2  0  0  0
  2  4  1  0  0  0
  4  7  1  0  0  0
  7  8  2  0  0  0
  7 12  1  0  0  0
  8  9  1  0  0  0
  9 10  2  0  0  0
 10 11  1  0  0  0
 10 13  1  0  0  0
 11 12  2  0  0  0
 20 23  1  0  0  0
 21 24  1  0  0  0
 21 25  1  0  0  0
  1  5  1  0  0  0
  4  6  1  0  0  0
M  END
> <minimizedAffinity>
-6.77869

$$$$
1BJU_GP6_A_910


 25 26  0  0  0  0  0  0  0  0999 V2000
   -1.2621   18.1850   18.7056 N   0  0  0  0  0  0  0  0  0  0  0  0
   -0.2272   19.0440   18.6950 C   0  0  0  0  0  0  0  0  0  0  0  0
    0.8629   18.7972   18.1572 O   0  0  0  0  0  0  0  0  0  0  0  0
   -0.4690   20.2027   19.3197 N   0  0  0  0  0  0  0  0  0  0  0  0
   -2.1036   18.4936   19.1129 H   0  0  0  0  0  0  0  0  0  0  0  0
   -1.4085   20.3842   19.5516 H   0  0  0  0  0  0  0  0  0  0  0  0
    0.4213   21.1467   19.6672 C   0  0  0  0  0  0  0  0  0  0  0  0
    1.2293   20.9340   20.7876 C   0  0  0  0  0  0  0  0  0  0  0  0
    2.1869   21.8804   21.1600 C   0  0  0  0  0  0  0  0  0  0  0  0
    2.3316   23.0534   20.4198 C   0  0  0  0  0  0  0  0  0  0  0  0
    1.5256   23.2789   19.3104 C   0  0  0  0  0  0  0  0  0  0  0  0
    0.5722   22.3307   18.9362 C   0  0  0  0  0  0  0  0  0  0  0  0
    3.4943   24.2428   20.8446 Cl  0  0  0  0  0  0  0  0  0  0  0  0
   -1.2441   14.3122   17.0860 C   0  0  0  0  0  0  0  0  0  0  0  0
   -0.6986   14.5586   18.3502 C   0  0  0  0  0  0  0  0  0  0  0  0
   -0.6916   15.8426   18.9034 C   0  0  0  0  0  0  0  0  0  0  0  0
   -1.2373   16.9263   18.1990 C   0  0  0  0  0  0  0  0  0  0  0  0
   -1.7818   16.6889   16.9361 C   0  0  0  0  0  0  0  0  0  0  0  0
   -1.7825   15.3999   16.3976 C   0  0  0  0  0  0  0  0  0  0  0  0
   -0.2365   12.1939   16.7305 N   0  0  0  0  0  0  0  0  0  0  0  0
   -2.3376   12.5897   15.9088 N   0  0  0  0  0  0  0  0  0  0  0  0
   -1.2380   13.0350   16.5118 C   0  0  0  0  0  0  0  0  0  0  0  0
   -0.2465   11.2992   16.3197 H   0  0  0  0  0  0  0  0  0  0  0  0
   -2.3469   11.6937   15.5010 H   0  0  0  0  0  0  0  0  0  0  0  0
   -3.1418   13.1563   15.8706 H   0  0  0  0  0  0  0  0  0  0  0  0
 20 22  2  0  0  0
 21 22  1  0  0  0
 22 14  1  0  0  0
 14 15  2  0  0  0
 14 19  1  0  0  0
 15 16  1  0  0  0
 16 17  2  0  0  0
 17 18  1  0  0  0
 17  1  1  0  0  0
 18 19  2  0  0  0
  1  2  1  0  0  0
  2  3  2  0  0  0
  2  4  1  0  0  0
  4  7  1  0  0  0
  7  8  2  0  0  0
  7 12  1  0  0  0
  8  9  1  0  0  0
  9 10  2  0  0  0
 10 11  1  0  0  0
 10 13  1  0  0  0
 11 12  2  0  0  0
 20 23  1  0  0  0
 21 24  1  0  0  0
 21 25  1  0  0  0
  1  5  1  0  0  0
  4  6  1  0  0  0
M  END
> <minimizedAffinity>
-6.38585

$$$$
1BJU_GP6_A_910


 25 26  0  0  0  0  0  0  0  0999 V2000
    0.6516   19.9085   20.3153 N   0  0  0  0  0  0  0  0  0  0  0  0
    1.9204   19.9528   20.7593 C   0  0  0  0  0  0  0  0  0  0  0  0
    2.7441   19.0444   20.5726 O   0  0  0  0  0  0  0  0  0  0  0  0
    2.2291   21.0699   21.4288 N   0  0  0  0  0  0  0  0  0  0  0  0
    0.0894   20.7020   20.4687 H   0  0  0  0  0  0  0  0  0  0  0  0
    1.5791   21.8069   21.3686 H   0  0  0  0  0  0  0  0  0  0  0  0
    3.3228   21.3022   22.1734 C   0  0  0  0  0  0  0  0  0  0  0  0
    4.5446   21.5188   21.5303 C   0  0  0  0  0  0  0  0  0  0  0  0
    5.6962   21.7936   22.2718 C   0  0  0  0  0  0  0  0  0  0  0  0
    5.6337   21.8392   23.6643 C   0  0  0  0  0  0  0  0  0  0  0  0
    4.4256   21.6147   24.3134 C   0  0  0  0  0  0  0  0  0  0  0  0
    3.2745   21.3447   23.5715 C   0  0  0  0  0  0  0  0  0  0  0  0
    7.0254   22.1713   24.6128 Cl  0  0  0  0  0  0  0  0  0  0  0  0
   -1.1079   16.6986   18.2603 C   0  0  0  0  0  0  0  0  0  0  0  0
   -1.0454   16.7018   19.6577 C   0  0  0  0  0  0  0  0  0  0  0  0
   -0.4589   17.7599   20.3586 C   0  0  0  0  0  0  0  0  0  0  0  0
    0.0857   18.8559   19.6724 C   0  0  0  0  0  0  0  0  0  0  0  0
    0.0288   18.8591   18.2780 C   0  0  0  0  0  0  0  0  0  0  0  0
   -0.5616   17.7950   17.5922 C   0  0  0  0  0  0  0  0  0  0  0  0
   -1.5939   14.3912   17.9981 N   0  0  0  0  0  0  0  0  0  0  0  0
   -2.4680   15.8987   16.5114 N   0  0  0  0  0  0  0  0  0  0  0  0
   -1.6731   15.6352   17.5458 C   0  0  0  0  0  0  0  0  0  0  0  0
   -1.9963   13.6541   17.4843 H   0  0  0  0  0  0  0  0  0  0  0  0
   -2.8719   15.1604   16.0004 H   0  0  0  0  0  0  0  0  0  0  0  0
   -2.6521   16.8318   16.2572 H   0  0  0  0  0  0  0  0  0  0  0  0
 20 22  2  0  0  0
 21 22  1  0  0  0
 22 14  1  0  0  0
 14 15  2  0  0  0
 14 19  1  0  0  0
 15 16  1  0  0  0
 16 17  2  0  0  0
 17 18  1  0  0  0
 17  1  1  0  0  0
 18 19  2  0  0  0
  1  2  1  0  0  0
  2  3  2  0  0  0
  2  4  1  0  0  0
  4  7  1  0  0  0
  7  8  2  0  0  0
  7 12  1  0  0  0
  8  9  1  0  0  0
  9 10  2  0  0  0
 10 11  1  0  0  0
 10 13  1  0  0  0
 11 12  2  0  0  0
 20 23  1  0  0  0
 21 24  1  0  0  0
 21 25  1  0  0  0
  1  5  1  0  0  0
  4  6  1  0  0  0
M  END
> <minimizedAffinity>
-6.36128

$$$$
1BJU_GP6_A_910


 25 26  0  0  0  0  0  0  0  0999 V2000
    2.3755   20.2107   17.7689 N   0  0  0  0  0  0  0  0  0  0  0  0
    2.8857   20.3591   16.5333 C   0  0  0  0  0  0  0  0  0  0  0  0
    2.4945   19.7148   15.5482 O   0  0  0  0  0  0  0  0  0  0  0  0
    3.8634   21.2692   16.4488 N   0  0  0  0  0  0  0  0  0  0  0  0
    2.7169   20.8056   18.4751 H   0  0  0  0  0  0  0  0  0  0  0  0
    3.9793   21.8571   17.2299 H   0  0  0  0  0  0  0  0  0  0  0  0
    4.7049   21.4736   15.4218 C   0  0  0  0  0  0  0  0  0  0  0  0
    4.7848   22.7496   14.8572 C   0  0  0  0  0  0  0  0  0  0  0  0
    5.6711   23.0058   13.8083 C   0  0  0  0  0  0  0  0  0  0  0  0
    6.4737   21.9805   13.3086 C   0  0  0  0  0  0  0  0  0  0  0  0
    6.3939   20.7058   13.8562 C   0  0  0  0  0  0  0  0  0  0  0  0
    5.5113   20.4519   14.9073 C   0  0  0  0  0  0  0  0  0  0  0  0
    7.5742   22.2523   12.0194 Cl  0  0  0  0  0  0  0  0  0  0  0  0
   -0.5035   17.3706   18.8947 C   0  0  0  0  0  0  0  0  0  0  0  0
   -0.7015   18.1791   17.7706 C   0  0  0  0  0  0  0  0  0  0  0  0
    0.2440   19.1335   17.3836 C   0  0  0  0  0  0  0  0  0  0  0  0
    1.4269   19.3054   18.1184 C   0  0  0  0  0  0  0  0  0  0  0  0
    1.6308   18.5036   19.2423 C   0  0  0  0  0  0  0  0  0  0  0  0
    0.6771   17.5536   19.6154 C   0  0  0  0  0  0  0  0  0  0  0  0
   -2.2750   15.8618   18.4317 N   0  0  0  0  0  0  0  0  0  0  0  0
   -1.3931   15.9435   20.5441 N   0  0  0  0  0  0  0  0  0  0  0  0
   -1.4524   16.4262   19.3053 C   0  0  0  0  0  0  0  0  0  0  0  0
   -2.9369   15.1994   18.7357 H   0  0  0  0  0  0  0  0  0  0  0  0
   -2.0541   15.2791   20.8456 H   0  0  0  0  0  0  0  0  0  0  0  0
   -0.6884   16.2509   21.1589 H   0  0  0  0  0  0  0  0  0  0  0  0
 20 22  2  0  0  0
 21 22  1  0  0  0
 22 14  1  0  0  0
 14 15  2  0  0  0
 14 19  1  0  0  0
 15 16  1  0  0  0
 16 17  2  0  0  0
 17 18  1  0  0  0
 17  1  1  0  0  0
 18 19  2  0  0  0
  1  2  1  0  0  0
  2  3  2  0  0  0
  2  4  1  0  0  0
  4  7  1  0  0  0
  7  8  2  0  0  0
  7 12  1  0  0  0
  8  9  1  0  0  0
  9 10  2  0  0  0
 10 11  1  0  0  0
 10 13  1  0  0  0
 11 12  2  0  0  0
 20 23  1  0  0  0
 21 24  1  0  0  0
 21 25  1  0  0  0
  1  5  1  0  0  0
  4  6  1  0  0  0
M  END
> <minimizedAffinity>
-6.33258

$$$$
1BJU_GP6_A_910


 25 26  0  0  0  0  0  0  0  0999 V2000
   -0.8028   18.6300   20.7655 N   0  0  0  0  0  0  0  0  0  0  0  0
   -0.5689   17.4606   20.1436 C   0  0  0  0  0  0  0  0  0  0  0  0
    0.5087   16.8503   20.2139 O   0  0  0  0  0  0  0  0  0  0  0  0
   -1.6048   17.0006   19.4318 N   0  0  0  0  0  0  0  0  0  0  0  0
   -1.7079   19.0103   20.6911 H   0  0  0  0  0  0  0  0  0  0  0  0
   -2.4687   17.4483   19.5816 H   0  0  0  0  0  0  0  0  0  0  0  0
   -1.6026   15.9989   18.5367 C   0  0  0  0  0  0  0  0  0  0  0  0
   -1.3198   14.7020   18.9745 C   0  0  0  0  0  0  0  0  0  0  0  0
   -1.3388   13.6317   18.0770 C   0  0  0  0  0  0  0  0  0  0  0  0
   -1.6277   13.8562   16.7313 C   0  0  0  0  0  0  0  0  0  0  0  0
   -1.8997   15.1436   16.2843 C   0  0  0  0  0  0  0  0  0  0  0  0
   -1.8850   16.2118   17.1826 C   0  0  0  0  0  0  0  0  0  0  0  0
   -1.6592   12.5695   15.5953 Cl  0  0  0  0  0  0  0  0  0  0  0  0
    1.9666   20.7995   23.0558 C   0  0  0  0  0  0  0  0  0  0  0  0
    2.1942   20.5660   21.6956 C   0  0  0  0  0  0  0  0  0  0  0  0
    1.2854   19.8415   20.9185 C   0  0  0  0  0  0  0  0  0  0  0  0
    0.1108   19.3267   21.4876 C   0  0  0  0  0  0  0  0  0  0  0  0
   -0.1224   19.5540   22.8447 C   0  0  0  0  0  0  0  0  0  0  0  0
    0.7948   20.2809   23.6075 C   0  0  0  0  0  0  0  0  0  0  0  0
    3.2180   22.7525   23.5548 N   0  0  0  0  0  0  0  0  0  0  0  0
    3.2536   20.9917   25.0193 N   0  0  0  0  0  0  0  0  0  0  0  0
    2.8792   21.5049   23.8499 C   0  0  0  0  0  0  0  0  0  0  0  0
    3.8610   23.2354   24.1227 H   0  0  0  0  0  0  0  0  0  0  0  0
    3.8945   21.4772   25.5874 H   0  0  0  0  0  0  0  0  0  0  0  0
    2.8896   20.1265   25.3163 H   0  0  0  0  0  0  0  0  0  0  0  0
 20 22  2  0  0  0
 21 22  1  0  0  0
 22 14  1  0  0  0
 14 15  2  0  0  0
 14 19  1  0  0  0
 15 16  1  0  0  0
 16 17  2  0  0  0
 17 18  1  0  0  0
 17  1  1  0  0  0
 18 19  2  0  0  0
  1  2  1  0  0  0
  2  3  2  0  0  0
  2  4  1  0  0  0
  4  7  1  0  0  0
  7  8  2  0  0  0
  7 12  1  0  0  0
  8  9  1  0  0  0
  9 10  2  0  0  0
 10 11  1  0  0  0
 10 13  1  0  0  0
 11 12  2  0  0  0
 20 23  1  0  0  0
 21 24  1  0  0  0
 21 25  1  0  0  0
  1  5  1  0  0  0
  4  6  1  0  0  0
M  END
> <minimizedAffinity>
-6.21457

$$$$
1BJU_GP6_A_910


 25 26  0  0  0  0  0  0  0  0999 V2000
    1.9388   19.9774   15.2853 N   0  0  0  0  0  0  0  0  0  0  0  0
    1.6532   19.9700   16.5996 C   0  0  0  0  0  0  0  0  0  0  0  0
    2.3581   20.5232   17.4573 O   0  0  0  0  0  0  0  0  0  0  0  0
    0.5329   19.3089   16.9142 N   0  0  0  0  0  0  0  0  0  0  0  0
    1.2896   19.5547   14.6776 H   0  0  0  0  0  0  0  0  0  0  0  0
   -0.0539   19.0646   16.1624 H   0  0  0  0  0  0  0  0  0  0  0  0
    0.1161   18.9399   18.1368 C   0  0  0  0  0  0  0  0  0  0  0  0
   -0.7734   19.7688   18.8263 C   0  0  0  0  0  0  0  0  0  0  0  0
   -1.2513   19.4017   20.0866 C   0  0  0  0  0  0  0  0  0  0  0  0
   -0.8299   18.2074   20.6706 C   0  0  0  0  0  0  0  0  0  0  0  0
    0.0625   17.3817   19.9976 C   0  0  0  0  0  0  0  0  0  0  0  0
    0.5360   17.7471   18.7364 C   0  0  0  0  0  0  0  0  0  0  0  0
   -1.3912   17.7204   22.2180 Cl  0  0  0  0  0  0  0  0  0  0  0  0
    5.3399   21.6720   13.5012 C   0  0  0  0  0  0  0  0  0  0  0  0
    5.4556   20.8872   14.6533 C   0  0  0  0  0  0  0  0  0  0  0  0
    4.3335   20.3189   15.2637 C   0  0  0  0  0  0  0  0  0  0  0  0
    3.0514   20.5219   14.7311 C   0  0  0  0  0  0  0  0  0  0  0  0
    2.9277   21.3053   13.5827 C   0  0  0  0  0  0  0  0  0  0  0  0
    4.0587   21.8652   12.9838 C   0  0  0  0  0  0  0  0  0  0  0  0
    6.3538   22.8414   11.7030 N   0  0  0  0  0  0  0  0  0  0  0  0
    7.5689   22.4273   13.6000 N   0  0  0  0  0  0  0  0  0  0  0  0
    6.4533   22.2645   12.8928 C   0  0  0  0  0  0  0  0  0  0  0  0
    7.1456   23.2538   11.2881 H   0  0  0  0  0  0  0  0  0  0  0  0
    8.3590   22.8424   13.1844 H   0  0  0  0  0  0  0  0  0  0  0  0
    7.6041   22.1326   14.5387 H   0  0  0  0  0  0  0  0  0  0  0  0
 20 22  2  0  0  0
 21 22  1  0  0  0
 22 14  1  0  0  0
 14 15  2  0  0  0
 14 19  1  0  0  0
 15 16  1  0  0  0
 16 17  2  0  0  0
 17 18  1  0  0  0
 17  1  1  0  0  0
 18 19  2  0  0  0
  1  2  1  0  0  0
  2  3  2  0  0  0
  2  4  1  0  0  0
  4  7  1  0  0  0
  7  8  2  0  0  0
  7 12  1  0  0  0
  8  9  1  0  0  0
  9 10  2  0  0  0
 10 11  1  0  0  0
 10 13  1  0  0  0
 11 12  2  0  0  0
 20 23  1  0  0  0
 21 24  1  0  0  0
 21 25  1  0  0  0
  1  5  1  0  0  0
  4  6  1  0  0  0
M  END
> <minimizedAffinity>
-6.08817

$$$$
