3FFG_FFG_A_1


 48 54  0  0  0  0  0  0  0  0999 V2000
   33.4624   28.5161   15.2405 C   0  0  0  0  0  0  0  0  0  0  0  0
   34.8325   28.6267   15.4401 C   0  0  0  0  0  0  0  0  0  0  0  0
   33.2575   27.5885   14.1933 C   0  0  0  0  0  0  0  0  0  0  0  0
   35.4516   29.4767   16.3645 C   0  0  0  0  0  0  0  0  0  0  0  0
   33.2532   30.6105   16.4937 C   0  0  0  0  0  0  0  0  0  0  0  0
   32.5205   29.3243   16.1058 C   0  0  0  0  0  0  0  0  0  0  0  0
   34.4532   27.1521   13.7950 N   0  0  0  0  0  0  0  0  0  0  0  0
   35.4058   27.7807   14.5399 N   0  0  0  0  0  0  0  0  0  0  0  0
   34.6772   30.4588   16.8954 N   0  0  0  0  0  0  0  0  0  0  0  0
   36.6407   29.3484   16.6627 O   0  0  0  0  0  0  0  0  0  0  0  0
   36.3393   33.3040   19.5959 C   0  0  0  0  0  0  0  0  0  0  0  0
   35.2134   31.3430   17.7907 C   0  0  0  0  0  0  0  0  0  0  0  0
   35.1431   32.7634   17.4372 C   0  0  0  0  0  0  0  0  0  0  0  0
   36.4019   31.8771   19.9384 C   0  0  0  0  0  0  0  0  0  0  0  0
   35.7061   33.7439   18.3413 C   0  0  0  0  0  0  0  0  0  0  0  0
   35.8372   30.8885   19.0346 C   0  0  0  0  0  0  0  0  0  0  0  0
   36.1608   35.1241   21.4875 C   0  0  0  0  0  0  0  0  0  0  0  0
   38.9814   35.5415   21.4287 C   0  0  0  0  0  0  0  0  0  0  0  0
   38.1952   36.3347   22.3616 C   0  0  0  0  0  0  0  0  0  0  0  0
   38.3956   34.5547   20.5319 C   0  0  0  0  0  0  0  0  0  0  0  0
   36.7668   36.1200   22.3889 C   0  0  0  0  0  0  0  0  0  0  0  0
   36.9426   34.3235   20.5431 C   0  0  0  0  0  0  0  0  0  0  0  0
   34.6475   34.9564   21.5938 C   0  0  0  0  0  0  0  0  0  0  0  0
   32.6851   32.6720   23.4239 C   0  0  0  0  0  0  0  0  0  0  0  0
   32.7596   33.3925   22.0979 C   0  0  0  0  0  0  0  0  0  0  0  0
   34.8486   33.2249   23.3965 C   0  0  0  0  0  0  0  0  0  0  0  0
   33.7033   33.2285   24.4089 C   0  0  0  0  0  0  0  0  0  0  0  0
   34.2257   33.6452   22.1088 N   0  0  0  0  0  0  0  0  0  0  0  0
   33.9837   32.2891   25.4545 O   0  0  0  0  0  0  0  0  0  0  0  0
   34.2164   31.4318   25.0650 H   0  0  0  0  0  0  0  0  0  0  0  0
   36.7398   27.6114   14.3098 C   0  0  0  0  0  0  0  0  0  0  0  0
   38.6490   28.2407   12.8190 C   0  0  0  0  0  0  0  0  0  0  0  0
   37.2463   28.3299   13.1715 C   0  0  0  0  0  0  0  0  0  0  0  0
   39.0647   26.6987   14.7562 C   0  0  0  0  0  0  0  0  0  0  0  0
   39.5833   27.4228   13.6073 C   0  0  0  0  0  0  0  0  0  0  0  0
   37.6480   26.7969   15.0986 C   0  0  0  0  0  0  0  0  0  0  0  0
   39.0657   28.9956   11.6321 C   0  0  0  0  0  0  0  0  0  0  0  0
   38.9893   30.2357    9.9039 C   0  0  0  0  0  0  0  0  0  0  0  0
   40.2810   28.9895   11.0801 N   0  0  0  0  0  0  0  0  0  0  0  0
   38.2536   29.8087   10.9133 N   0  0  0  0  0  0  0  0  0  0  0  0
   40.2292   29.7262   10.0705 N   0  0  0  0  0  0  0  0  0  0  0  0
   38.6006   30.9586    8.9852 O   0  0  0  0  0  0  0  0  0  0  0  0
   37.3141   30.0332   11.1038 H   0  0  0  0  0  0  0  0  0  0  0  0
   40.9917   29.9105    9.4757 H   0  0  0  0  0  0  0  0  0  0  0  0
   31.9643   27.2024   13.5530 C   0  0  0  0  0  0  0  0  0  0  0  0
   31.0923   26.9426   14.4901 F   0  0  0  0  0  0  0  0  0  0  0  0
   31.6115   28.2238   12.7827 F   0  0  0  0  0  0  0  0  0  0  0  0
   32.1844   26.1637   12.7782 F   0  0  0  0  0  0  0  0  0  0  0  0
 11 14  2  0  0  0
 11 15  1  0  0  0
 11 22  1  0  0  0
 31 33  2  0  0  0
 31 36  1  0  0  0
 31  8  1  0  0  0
 17 21  2  0  0  0
 17 22  1  0  0  0
 17 23  1  0  0  0
  1  2  2  0  0  0
  1  3  1  0  0  0
  1  6  1  0  0  0
 32 37  1  0  0  0
 32 33  1  0  0  0
 32 35  2  0  0  0
 12 13  1  0  0  0
 12 16  2  0  0  0
 12  9  1  0  0  0
  2  4  1  0  0  0
  2  8  1  0  0  0
  3 45  1  0  0  0
  3  7  2  0  0  0
 37 39  2  0  0  0
 37 40  1  0  0  0
  4  9  1  0  0  0
  4 10  2  0  0  0
 38 40  1  0  0  0
 38 41  1  0  0  0
 38 42  2  0  0  0
 13 15  2  0  0  0
  5  6  1  0  0  0
  5  9  1  0  0  0
 18 19  2  0  0  0
 18 20  1  0  0  0
 19 21  1  0  0  0
 34 35  1  0  0  0
 34 36  2  0  0  0
 20 22  2  0  0  0
 14 16  1  0  0  0
 24 25  1  0  0  0
 24 27  1  0  0  0
 25 28  1  0  0  0
 26 27  1  0  0  0
 26 28  1  0  0  0
 27 29  1  0  0  0
 23 28  1  0  0  0
 45 46  1  0  0  0
 45 47  1  0  0  0
 45 48  1  0  0  0
  7  8  1  0  0  0
 39 41  1  0  0  0
 40 43  1  0  0  0
 41 44  1  0  0  0
 29 30  1  0  0  0
M  END
> <minimizedAffinity>
-13.79340

$$$$
3FFG_FFG_A_1


 48 54  0  0  0  0  0  0  0  0999 V2000
   32.4928   29.7555   15.3776 C   0  0  0  0  0  0  0  0  0  0  0  0
   33.7629   29.4287   15.8351 C   0  0  0  0  0  0  0  0  0  0  0  0
   32.1228   28.7857   14.4176 C   0  0  0  0  0  0  0  0  0  0  0  0
   34.5038   30.1655   16.7672 C   0  0  0  0  0  0  0  0  0  0  0  0
   32.8762   31.9803   16.3283 C   0  0  0  0  0  0  0  0  0  0  0  0
   31.7922   30.9713   15.9431 C   0  0  0  0  0  0  0  0  0  0  0  0
   33.1225   27.9086   14.3173 N   0  0  0  0  0  0  0  0  0  0  0  0
   34.1162   28.2966   15.1657 N   0  0  0  0  0  0  0  0  0  0  0  0
   34.0703   31.4276   17.0219 N   0  0  0  0  0  0  0  0  0  0  0  0
   35.5059   29.6960   17.3103 O   0  0  0  0  0  0  0  0  0  0  0  0
   36.1040   33.9821   19.7586 C   0  0  0  0  0  0  0  0  0  0  0  0
   34.7517   32.2190   17.9052 C   0  0  0  0  0  0  0  0  0  0  0  0
   34.0492   33.4028   18.4076 C   0  0  0  0  0  0  0  0  0  0  0  0
   36.7962   32.7914   19.2482 C   0  0  0  0  0  0  0  0  0  0  0  0
   34.7263   34.2840   19.3354 C   0  0  0  0  0  0  0  0  0  0  0  0
   36.1205   31.9027   18.3171 C   0  0  0  0  0  0  0  0  0  0  0  0
   36.2149   35.4667   21.9281 C   0  0  0  0  0  0  0  0  0  0  0  0
   38.9148   36.1899   21.3620 C   0  0  0  0  0  0  0  0  0  0  0  0
   38.2981   36.7442   22.5578 C   0  0  0  0  0  0  0  0  0  0  0  0
   38.2193   35.2920   20.4504 C   0  0  0  0  0  0  0  0  0  0  0  0
   36.9304   36.3750   22.8415 C   0  0  0  0  0  0  0  0  0  0  0  0
   36.8253   34.9064   20.7209 C   0  0  0  0  0  0  0  0  0  0  0  0
   34.7786   35.1226   22.3134 C   0  0  0  0  0  0  0  0  0  0  0  0
   32.8547   35.6692   25.2149 C   0  0  0  0  0  0  0  0  0  0  0  0
   34.1445   35.0466   24.7334 C   0  0  0  0  0  0  0  0  0  0  0  0
   33.0950   36.7218   23.2601 C   0  0  0  0  0  0  0  0  0  0  0  0
   31.9629   36.0589   24.0446 C   0  0  0  0  0  0  0  0  0  0  0  0
   34.2839   35.8523   23.4904 N   0  0  0  0  0  0  0  0  0  0  0  0
   31.0015   37.0495   24.4300 O   0  0  0  0  0  0  0  0  0  0  0  0
   31.4553   37.7892   24.8634 H   0  0  0  0  0  0  0  0  0  0  0  0
   35.3151   27.6488   15.2280 C   0  0  0  0  0  0  0  0  0  0  0  0
   37.6004   27.4853   14.2209 C   0  0  0  0  0  0  0  0  0  0  0  0
   36.2833   28.0882   14.2594 C   0  0  0  0  0  0  0  0  0  0  0  0
   36.9962   25.9801   16.1372 C   0  0  0  0  0  0  0  0  0  0  0  0
   37.9797   26.4198   15.1612 C   0  0  0  0  0  0  0  0  0  0  0  0
   35.6719   26.5960   16.1633 C   0  0  0  0  0  0  0  0  0  0  0  0
   38.5110   27.9889   13.1866 C   0  0  0  0  0  0  0  0  0  0  0  0
   40.2998   28.5054   12.1552 C   0  0  0  0  0  0  0  0  0  0  0  0
   38.1595   28.6389   12.0750 N   0  0  0  0  0  0  0  0  0  0  0  0
   39.8607   27.8707   13.2262 N   0  0  0  0  0  0  0  0  0  0  0  0
   39.2154   28.9316   11.4717 N   0  0  0  0  0  0  0  0  0  0  0  0
   41.4820   28.6746   11.8530 O   0  0  0  0  0  0  0  0  0  0  0  0
   40.3994   27.4093   13.9089 H   0  0  0  0  0  0  0  0  0  0  0  0
   39.2515   29.4097   10.6118 H   0  0  0  0  0  0  0  0  0  0  0  0
   30.8888   28.7553   13.5764 C   0  0  0  0  0  0  0  0  0  0  0  0
   30.8261   27.6037   12.9633 F   0  0  0  0  0  0  0  0  0  0  0  0
   29.8707   28.9611   14.4025 F   0  0  0  0  0  0  0  0  0  0  0  0
   30.9414   29.7635   12.7345 F   0  0  0  0  0  0  0  0  0  0  0  0
 11 14  2  0  0  0
 11 15  1  0  0  0
 11 22  1  0  0  0
 31 33  2  0  0  0
 31 36  1  0  0  0
 31  8  1  0  0  0
 17 21  2  0  0  0
 17 22  1  0  0  0
 17 23  1  0  0  0
  1  2  2  0  0  0
  1  3  1  0  0  0
  1  6  1  0  0  0
 32 37  1  0  0  0
 32 33  1  0  0  0
 32 35  2  0  0  0
 12 13  1  0  0  0
 12 16  2  0  0  0
 12  9  1  0  0  0
  2  4  1  0  0  0
  2  8  1  0  0  0
  3 45  1  0  0  0
  3  7  2  0  0  0
 37 39  2  0  0  0
 37 40  1  0  0  0
  4  9  1  0  0  0
  4 10  2  0  0  0
 38 40  1  0  0  0
 38 41  1  0  0  0
 38 42  2  0  0  0
 13 15  2  0  0  0
  5  6  1  0  0  0
  5  9  1  0  0  0
 18 19  2  0  0  0
 18 20  1  0  0  0
 19 21  1  0  0  0
 34 35  1  0  0  0
 34 36  2  0  0  0
 20 22  2  0  0  0
 14 16  1  0  0  0
 24 25  1  0  0  0
 24 27  1  0  0  0
 25 28  1  0  0  0
 26 27  1  0  0  0
 26 28  1  0  0  0
 27 29  1  0  0  0
 23 28  1  0  0  0
 45 46  1  0  0  0
 45 47  1  0  0  0
 45 48  1  0  0  0
  7  8  1  0  0  0
 39 41  1  0  0  0
 40 43  1  0  0  0
 41 44  1  0  0  0
 29 30  1  0  0  0
M  END
> <minimizedAffinity>
-11.21668

$$$$
