3HMO_STU_A_1


 37 44  0  0  0  0  0  0  0  0999 V2000
  -38.0001  -13.0506  -11.1861 O   0  0  0  0  0  0  0  0  0  0  0  0
  -36.7433  -13.0666  -10.5693 C   0  0  0  0  0  0  0  0  0  0  0  0
  -35.7111  -12.1202  -11.1846 C   0  0  0  0  0  0  0  0  0  0  0  0
  -36.3789  -11.3453  -12.3373 C   0  0  0  0  0  0  0  0  0  0  0  0
  -37.0580  -12.3176  -13.3421 C   0  0  0  0  0  0  0  0  0  0  0  0
  -38.0551  -13.2108  -12.5723 C   0  0  0  0  0  0  0  0  0  0  0  0
  -39.4356  -12.6199  -12.8683 C   0  0  0  0  0  0  0  0  0  0  0  0
  -38.0967  -14.6300  -12.9641 N   0  0  0  0  0  0  0  0  0  0  0  0
  -37.4541  -15.6231  -12.2249 C   0  0  0  0  0  0  0  0  0  0  0  0
  -36.6704  -15.5384  -11.0572 C   0  0  0  0  0  0  0  0  0  0  0  0
  -36.1114  -16.6945  -10.4949 C   0  0  0  0  0  0  0  0  0  0  0  0
  -36.3473  -17.9492  -11.1256 C   0  0  0  0  0  0  0  0  0  0  0  0
  -37.1198  -18.0151  -12.2855 C   0  0  0  0  0  0  0  0  0  0  0  0
  -37.6672  -16.8714  -12.8312 C   0  0  0  0  0  0  0  0  0  0  0  0
  -38.4954  -16.6306  -13.9987 C   0  0  0  0  0  0  0  0  0  0  0  0
  -38.7363  -15.2327  -14.0441 C   0  0  0  0  0  0  0  0  0  0  0  0
  -39.5184  -14.7216  -15.0908 C   0  0  0  0  0  0  0  0  0  0  0  0
  -40.0188  -15.6177  -16.0314 C   0  0  0  0  0  0  0  0  0  0  0  0
  -39.7685  -16.9796  -15.9685 C   0  0  0  0  0  0  0  0  0  0  0  0
  -39.0017  -17.5212  -14.9507 C   0  0  0  0  0  0  0  0  0  0  0  0
  -37.1894  -19.4560  -12.7163 C   0  0  0  0  0  0  0  0  0  0  0  0
  -36.4092  -20.1864  -11.7206 N   0  0  0  0  0  0  0  0  0  0  0  0
  -35.9280  -19.3182  -10.8127 C   0  0  0  0  0  0  0  0  0  0  0  0
  -35.2383  -19.6266   -9.8699 O   0  0  0  0  0  0  0  0  0  0  0  0
  -35.3744  -16.2395   -9.3096 C   0  0  0  0  0  0  0  0  0  0  0  0
  -35.5412  -14.8304   -9.2363 C   0  0  0  0  0  0  0  0  0  0  0  0
  -34.9591  -14.0857   -8.2055 C   0  0  0  0  0  0  0  0  0  0  0  0
  -34.2180  -14.7797   -7.2610 C   0  0  0  0  0  0  0  0  0  0  0  0
  -34.0523  -16.1550   -7.3298 C   0  0  0  0  0  0  0  0  0  0  0  0
  -34.6199  -16.9152   -8.3433 C   0  0  0  0  0  0  0  0  0  0  0  0
  -36.3211  -14.4482  -10.3241 N   0  0  0  0  0  0  0  0  0  0  0  0
  -36.2593  -21.1594  -11.7149 H   0  0  0  0  0  0  0  0  0  0  0  0
  -35.4069  -10.4954  -13.0427 N   0  0  0  0  0  0  0  0  0  0  0  0
  -35.0903   -9.1634  -12.5108 C   0  0  0  0  0  0  0  0  0  0  0  0
  -35.7630  -10.3600  -13.9889 H   0  0  0  0  0  0  0  0  0  0  0  0
  -36.0715  -13.0153  -14.1505 O   0  0  0  0  0  0  0  0  0  0  0  0
  -36.2320  -12.9100  -15.5683 C   0  0  0  0  0  0  0  0  0  0  0  0
  1  2  1  0  0  0
  1  6  1  0  0  0
  2  3  1  0  0  0
  2 31  1  0  0  0
  3  4  1  0  0  0
  4  5  1  0  0  0
  4 33  1  0  0  0
  5  6  1  0  0  0
  5 36  1  0  0  0
  6  7  1  0  0  0
  6  8  1  0  0  0
  8  9  1  0  0  0
  8 16  1  0  0  0
  9 10  2  0  0  0
  9 14  1  0  0  0
 10 11  1  0  0  0
 10 31  1  0  0  0
 11 12  2  0  0  0
 11 25  1  0  0  0
 12 13  1  0  0  0
 12 23  1  0  0  0
 13 14  2  0  0  0
 13 21  1  0  0  0
 14 15  1  0  0  0
 15 16  2  0  0  0
 15 20  1  0  0  0
 16 17  1  0  0  0
 17 18  2  0  0  0
 18 19  1  0  0  0
 19 20  2  0  0  0
 21 22  1  0  0  0
 22 23  1  0  0  0
 23 24  2  0  0  0
 25 26  2  0  0  0
 25 30  1  0  0  0
 26 27  1  0  0  0
 26 31  1  0  0  0
 27 28  2  0  0  0
 28 29  1  0  0  0
 29 30  2  0  0  0
 36 37  1  0  0  0
 33 34  1  0  0  0
 22 32  1  0  0  0
 33 35  1  0  0  0
M  END
> <minimizedAffinity>
-10.79363

$$$$
3HMO_STU_A_1


 37 44  0  0  0  0  0  0  0  0999 V2000
  -38.2479  -12.1174  -11.4761 O   0  0  0  0  0  0  0  0  0  0  0  0
  -36.9799  -11.9502  -10.9065 C   0  0  0  0  0  0  0  0  0  0  0  0
  -36.0285  -11.0552  -11.7023 C   0  0  0  0  0  0  0  0  0  0  0  0
  -36.7726  -10.5269  -12.9442 C   0  0  0  0  0  0  0  0  0  0  0  0
  -37.4051  -11.6941  -13.7529 C   0  0  0  0  0  0  0  0  0  0  0  0
  -38.3218  -12.5089  -12.8146 C   0  0  0  0  0  0  0  0  0  0  0  0
  -39.7456  -12.0649  -13.1584 C   0  0  0  0  0  0  0  0  0  0  0  0
  -38.2745  -13.9731  -12.9662 N   0  0  0  0  0  0  0  0  0  0  0  0
  -37.5496  -14.7864  -12.0952 C   0  0  0  0  0  0  0  0  0  0  0  0
  -36.7485  -14.4589  -10.9836 C   0  0  0  0  0  0  0  0  0  0  0  0
  -36.0995  -15.4673  -10.2575 C   0  0  0  0  0  0  0  0  0  0  0  0
  -36.2625  -16.8218  -10.6653 C   0  0  0  0  0  0  0  0  0  0  0  0
  -37.0536  -17.1289  -11.7728 C   0  0  0  0  0  0  0  0  0  0  0  0
  -37.6897  -16.1292  -12.4808 C   0  0  0  0  0  0  0  0  0  0  0  0
  -38.5575  -16.1392  -13.6444 C   0  0  0  0  0  0  0  0  0  0  0  0
  -38.8945  -14.7866  -13.9110 C   0  0  0  0  0  0  0  0  0  0  0  0
  -39.7323  -14.5076  -15.0013 C   0  0  0  0  0  0  0  0  0  0  0  0
  -40.1903  -15.5776  -15.7650 C   0  0  0  0  0  0  0  0  0  0  0  0
  -39.8460  -16.8913  -15.4874 C   0  0  0  0  0  0  0  0  0  0  0  0
  -39.0221  -17.2061  -14.4200 C   0  0  0  0  0  0  0  0  0  0  0  0
  -37.0337  -18.6228  -11.9583 C   0  0  0  0  0  0  0  0  0  0  0  0
  -36.1839  -19.1262  -10.8822 N   0  0  0  0  0  0  0  0  0  0  0  0
  -35.7438  -18.0902  -10.1455 C   0  0  0  0  0  0  0  0  0  0  0  0
  -35.0143  -18.1929   -9.1879 O   0  0  0  0  0  0  0  0  0  0  0  0
  -35.3700  -14.7755   -9.1877 C   0  0  0  0  0  0  0  0  0  0  0  0
  -35.6313  -13.3874   -9.3416 C   0  0  0  0  0  0  0  0  0  0  0  0
  -35.0794  -12.4461   -8.4669 C   0  0  0  0  0  0  0  0  0  0  0  0
  -34.2722  -12.9246   -7.4458 C   0  0  0  0  0  0  0  0  0  0  0  0
  -34.0143  -14.2787   -7.2931 C   0  0  0  0  0  0  0  0  0  0  0  0
  -34.5503  -15.2316   -8.1487 C   0  0  0  0  0  0  0  0  0  0  0  0
  -36.4589  -13.2419  -10.4514 N   0  0  0  0  0  0  0  0  0  0  0  0
  -35.9676  -20.0731  -10.7216 H   0  0  0  0  0  0  0  0  0  0  0  0
  -35.8765   -9.7456  -13.8111 N   0  0  0  0  0  0  0  0  0  0  0  0
  -34.8252   -8.9173  -13.2060 C   0  0  0  0  0  0  0  0  0  0  0  0
  -36.4662   -9.1211  -14.3613 H   0  0  0  0  0  0  0  0  0  0  0  0
  -36.3908  -12.4518  -14.4674 O   0  0  0  0  0  0  0  0  0  0  0  0
  -36.6643  -12.7259  -15.8447 C   0  0  0  0  0  0  0  0  0  0  0  0
  1  2  1  0  0  0
  1  6  1  0  0  0
  2  3  1  0  0  0
  2 31  1  0  0  0
  3  4  1  0  0  0
  4  5  1  0  0  0
  4 33  1  0  0  0
  5  6  1  0  0  0
  5 36  1  0  0  0
  6  7  1  0  0  0
  6  8  1  0  0  0
  8  9  1  0  0  0
  8 16  1  0  0  0
  9 10  2  0  0  0
  9 14  1  0  0  0
 10 11  1  0  0  0
 10 31  1  0  0  0
 11 12  2  0  0  0
 11 25  1  0  0  0
 12 13  1  0  0  0
 12 23  1  0  0  0
 13 14  2  0  0  0
 13 21  1  0  0  0
 14 15  1  0  0  0
 15 16  2  0  0  0
 15 20  1  0  0  0
 16 17  1  0  0  0
 17 18  2  0  0  0
 18 19  1  0  0  0
 19 20  2  0  0  0
 21 22  1  0  0  0
 22 23  1  0  0  0
 23 24  2  0  0  0
 25 26  2  0  0  0
 25 30  1  0  0  0
 26 27  1  0  0  0
 26 31  1  0  0  0
 27 28  2  0  0  0
 28 29  1  0  0  0
 29 30  2  0  0  0
 36 37  1  0  0  0
 33 34  1  0  0  0
 22 32  1  0  0  0
 33 35  1  0  0  0
M  END
> <minimizedAffinity>
-10.00116

$$$$
3HMO_STU_A_1


 37 44  0  0  0  0  0  0  0  0999 V2000
  -35.9865  -13.8012  -14.0281 O   0  0  0  0  0  0  0  0  0  0  0  0
  -36.8347  -14.9135  -14.0877 C   0  0  0  0  0  0  0  0  0  0  0  0
  -38.3094  -14.5877  -14.3292 C   0  0  0  0  0  0  0  0  0  0  0  0
  -38.4568  -13.0619  -14.4891 C   0  0  0  0  0  0  0  0  0  0  0  0
  -37.8068  -12.3112  -13.2933 C   0  0  0  0  0  0  0  0  0  0  0  0
  -36.3327  -12.7547  -13.1706 C   0  0  0  0  0  0  0  0  0  0  0  0
  -35.5170  -11.6118  -13.7793 C   0  0  0  0  0  0  0  0  0  0  0  0
  -35.8276  -12.9693  -11.8038 N   0  0  0  0  0  0  0  0  0  0  0  0
  -35.7040  -14.2434  -11.2497 C   0  0  0  0  0  0  0  0  0  0  0  0
  -36.0128  -15.5111  -11.7810 C   0  0  0  0  0  0  0  0  0  0  0  0
  -35.8086  -16.6678  -11.0159 C   0  0  0  0  0  0  0  0  0  0  0  0
  -35.2885  -16.5368   -9.6968 C   0  0  0  0  0  0  0  0  0  0  0  0
  -34.9944  -15.2736   -9.1827 C   0  0  0  0  0  0  0  0  0  0  0  0
  -35.1978  -14.1403   -9.9441 C   0  0  0  0  0  0  0  0  0  0  0  0
  -34.9891  -12.7265   -9.6896 C   0  0  0  0  0  0  0  0  0  0  0  0
  -35.3921  -12.0389  -10.8639 C   0  0  0  0  0  0  0  0  0  0  0  0
  -35.2964  -10.6393  -10.8864 C   0  0  0  0  0  0  0  0  0  0  0  0
  -34.8080   -9.9986   -9.7511 C   0  0  0  0  0  0  0  0  0  0  0  0
  -34.4222  -10.6909   -8.6139 C   0  0  0  0  0  0  0  0  0  0  0  0
  -34.5017  -12.0719   -8.5539 C   0  0  0  0  0  0  0  0  0  0  0  0
  -34.4694  -15.4521   -7.7830 C   0  0  0  0  0  0  0  0  0  0  0  0
  -34.4878  -16.8944   -7.5534 N   0  0  0  0  0  0  0  0  0  0  0  0
  -34.9591  -17.5107   -8.6523 C   0  0  0  0  0  0  0  0  0  0  0  0
  -35.0972  -18.7062   -8.7599 O   0  0  0  0  0  0  0  0  0  0  0  0
  -36.2287  -17.7850  -11.8706 C   0  0  0  0  0  0  0  0  0  0  0  0
  -36.6596  -17.2224  -13.1021 C   0  0  0  0  0  0  0  0  0  0  0  0
  -37.1231  -18.0318  -14.1442 C   0  0  0  0  0  0  0  0  0  0  0  0
  -37.1408  -19.4010  -13.9253 C   0  0  0  0  0  0  0  0  0  0  0  0
  -36.7218  -19.9536  -12.7242 C   0  0  0  0  0  0  0  0  0  0  0  0
  -36.2582  -19.1709  -11.6755 C   0  0  0  0  0  0  0  0  0  0  0  0
  -36.5249  -15.8410  -12.9964 N   0  0  0  0  0  0  0  0  0  0  0  0
  -34.2008  -17.3441   -6.7259 H   0  0  0  0  0  0  0  0  0  0  0  0
  -39.8701  -12.6726  -14.6156 N   0  0  0  0  0  0  0  0  0  0  0  0
  -40.8461  -13.6457  -15.1236 C   0  0  0  0  0  0  0  0  0  0  0  0
  -39.9011  -11.8673  -15.2409 H   0  0  0  0  0  0  0  0  0  0  0  0
  -38.6120  -12.4383  -12.0895 O   0  0  0  0  0  0  0  0  0  0  0  0
  -38.8871  -11.2233  -11.3857 C   0  0  0  0  0  0  0  0  0  0  0  0
  1  2  1  0  0  0
  1  6  1  0  0  0
  2  3  1  0  0  0
  2 31  1  0  0  0
  3  4  1  0  0  0
  4  5  1  0  0  0
  4 33  1  0  0  0
  5  6  1  0  0  0
  5 36  1  0  0  0
  6  7  1  0  0  0
  6  8  1  0  0  0
  8  9  1  0  0  0
  8 16  1  0  0  0
  9 10  2  0  0  0
  9 14  1  0  0  0
 10 11  1  0  0  0
 10 31  1  0  0  0
 11 12  2  0  0  0
 11 25  1  0  0  0
 12 13  1  0  0  0
 12 23  1  0  0  0
 13 14  2  0  0  0
 13 21  1  0  0  0
 14 15  1  0  0  0
 15 16  2  0  0  0
 15 20  1  0  0  0
 16 17  1  0  0  0
 17 18  2  0  0  0
 18 19  1  0  0  0
 19 20  2  0  0  0
 21 22  1  0  0  0
 22 23  1  0  0  0
 23 24  2  0  0  0
 25 26  2  0  0  0
 25 30  1  0  0  0
 26 27  1  0  0  0
 26 31  1  0  0  0
 27 28  2  0  0  0
 28 29  1  0  0  0
 29 30  2  0  0  0
 36 37  1  0  0  0
 33 34  1  0  0  0
 22 32  1  0  0  0
 33 35  1  0  0  0
M  END
> <minimizedAffinity>
-9.25254

$$$$
3HMO_STU_A_1


 37 44  0  0  0  0  0  0  0  0999 V2000
  -35.8987  -14.1907  -13.9069 O   0  0  0  0  0  0  0  0  0  0  0  0
  -36.5578  -15.3483  -13.4758 C   0  0  0  0  0  0  0  0  0  0  0  0
  -38.0367  -15.4283  -13.8578 C   0  0  0  0  0  0  0  0  0  0  0  0
  -38.4003  -14.1789  -14.6836 C   0  0  0  0  0  0  0  0  0  0  0  0
  -37.9848  -12.8791  -13.9393 C   0  0  0  0  0  0  0  0  0  0  0  0
  -36.4777  -12.9548  -13.6112 C   0  0  0  0  0  0  0  0  0  0  0  0
  -35.7941  -12.0680  -14.6545 C   0  0  0  0  0  0  0  0  0  0  0  0
  -36.0729  -12.4572  -12.2854 N   0  0  0  0  0  0  0  0  0  0  0  0
  -35.8072  -13.3167  -11.2195 C   0  0  0  0  0  0  0  0  0  0  0  0
  -35.8687  -14.7216  -11.1337 C   0  0  0  0  0  0  0  0  0  0  0  0
  -35.5609  -15.3711   -9.9301 C   0  0  0  0  0  0  0  0  0  0  0  0
  -35.1898  -14.5869   -8.8009 C   0  0  0  0  0  0  0  0  0  0  0  0
  -35.1406  -13.1962   -8.9003 C   0  0  0  0  0  0  0  0  0  0  0  0
  -35.4442  -12.5656  -10.0901 C   0  0  0  0  0  0  0  0  0  0  0  0
  -35.4782  -11.1706  -10.4901 C   0  0  0  0  0  0  0  0  0  0  0  0
  -35.8726  -11.1488  -11.8533 C   0  0  0  0  0  0  0  0  0  0  0  0
  -35.9903   -9.9075  -12.4966 C   0  0  0  0  0  0  0  0  0  0  0  0
  -35.7114   -8.7598  -11.7596 C   0  0  0  0  0  0  0  0  0  0  0  0
  -35.3300   -8.8049  -10.4278 C   0  0  0  0  0  0  0  0  0  0  0  0
  -35.2026  -10.0107   -9.7591 C   0  0  0  0  0  0  0  0  0  0  0  0
  -34.7247  -12.6489   -7.5609 C   0  0  0  0  0  0  0  0  0  0  0  0
  -34.5433  -13.8237   -6.7122 N   0  0  0  0  0  0  0  0  0  0  0  0
  -34.8124  -14.9310   -7.4272 C   0  0  0  0  0  0  0  0  0  0  0  0
  -34.7557  -16.0567   -6.9921 O   0  0  0  0  0  0  0  0  0  0  0  0
  -35.7253  -16.8043  -10.2023 C   0  0  0  0  0  0  0  0  0  0  0  0
  -36.1227  -16.9227  -11.5613 C   0  0  0  0  0  0  0  0  0  0  0  0
  -36.3598  -18.1739  -12.1393 C   0  0  0  0  0  0  0  0  0  0  0  0
  -36.1879  -19.2889  -11.3329 C   0  0  0  0  0  0  0  0  0  0  0  0
  -35.8010  -19.1771  -10.0057 C   0  0  0  0  0  0  0  0  0  0  0  0
  -35.5604  -17.9464   -9.4099 C   0  0  0  0  0  0  0  0  0  0  0  0
  -36.2110  -15.6344  -12.0811 N   0  0  0  0  0  0  0  0  0  0  0  0
  -34.2679  -13.8078   -5.7671 H   0  0  0  0  0  0  0  0  0  0  0  0
  -39.8389  -14.1418  -14.9901 N   0  0  0  0  0  0  0  0  0  0  0  0
  -40.4632  -15.2834  -15.6717 C   0  0  0  0  0  0  0  0  0  0  0  0
  -39.9959  -13.3233  -15.5781 H   0  0  0  0  0  0  0  0  0  0  0  0
  -38.8678  -12.6082  -12.8167 O   0  0  0  0  0  0  0  0  0  0  0  0
  -39.4726  -11.3118  -12.7906 C   0  0  0  0  0  0  0  0  0  0  0  0
  1  2  1  0  0  0
  1  6  1  0  0  0
  2  3  1  0  0  0
  2 31  1  0  0  0
  3  4  1  0  0  0
  4  5  1  0  0  0
  4 33  1  0  0  0
  5  6  1  0  0  0
  5 36  1  0  0  0
  6  7  1  0  0  0
  6  8  1  0  0  0
  8  9  1  0  0  0
  8 16  1  0  0  0
  9 10  2  0  0  0
  9 14  1  0  0  0
 10 11  1  0  0  0
 10 31  1  0  0  0
 11 12  2  0  0  0
 11 25  1  0  0  0
 12 13  1  0  0  0
 12 23  1  0  0  0
 13 14  2  0  0  0
 13 21  1  0  0  0
 14 15  1  0  0  0
 15 16  2  0  0  0
 15 20  1  0  0  0
 16 17  1  0  0  0
 17 18  2  0  0  0
 18 19  1  0  0  0
 19 20  2  0  0  0
 21 22  1  0  0  0
 22 23  1  0  0  0
 23 24  2  0  0  0
 25 26  2  0  0  0
 25 30  1  0  0  0
 26 27  1  0  0  0
 26 31  1  0  0  0
 27 28  2  0  0  0
 28 29  1  0  0  0
 29 30  2  0  0  0
 36 37  1  0  0  0
 33 34  1  0  0  0
 22 32  1  0  0  0
 33 35  1  0  0  0
M  END
> <minimizedAffinity>
-9.21845

$$$$
3HMO_STU_A_1


 37 44  0  0  0  0  0  0  0  0999 V2000
  -37.8883  -14.5035  -11.1730 O   0  0  0  0  0  0  0  0  0  0  0  0
  -36.9650  -15.5559  -11.1904 C   0  0  0  0  0  0  0  0  0  0  0  0
  -35.5169  -15.1478  -10.9145 C   0  0  0  0  0  0  0  0  0  0  0  0
  -35.4763  -13.6319  -10.6400 C   0  0  0  0  0  0  0  0  0  0  0  0
  -36.1743  -12.8403  -11.7812 C   0  0  0  0  0  0  0  0  0  0  0  0
  -37.6138  -13.3743  -11.9475 C   0  0  0  0  0  0  0  0  0  0  0  0
  -38.5083  -12.3393  -11.2611 C   0  0  0  0  0  0  0  0  0  0  0  0
  -38.0998  -13.5201  -13.3302 N   0  0  0  0  0  0  0  0  0  0  0  0
  -38.1335  -14.7546  -13.9787 C   0  0  0  0  0  0  0  0  0  0  0  0
  -37.7384  -16.0342  -13.5412 C   0  0  0  0  0  0  0  0  0  0  0  0
  -37.8602  -17.1416  -14.3920 C   0  0  0  0  0  0  0  0  0  0  0  0
  -38.3853  -16.9483  -15.7015 C   0  0  0  0  0  0  0  0  0  0  0  0
  -38.7653  -15.6734  -16.1220 C   0  0  0  0  0  0  0  0  0  0  0  0
  -38.6428  -14.5892  -15.2766 C   0  0  0  0  0  0  0  0  0  0  0  0
  -38.9487  -13.1781  -15.4264 C   0  0  0  0  0  0  0  0  0  0  0  0
  -38.5969  -12.5542  -14.2012 C   0  0  0  0  0  0  0  0  0  0  0  0
  -38.7897  -11.1702  -14.0749 C   0  0  0  0  0  0  0  0  0  0  0  0
  -39.3190  -10.4815  -15.1628 C   0  0  0  0  0  0  0  0  0  0  0  0
  -39.6534  -11.1116  -16.3513 C   0  0  0  0  0  0  0  0  0  0  0  0
  -39.4779  -12.4754  -16.5136 C   0  0  0  0  0  0  0  0  0  0  0  0
  -39.2736  -15.7824  -17.5349 C   0  0  0  0  0  0  0  0  0  0  0  0
  -39.1546  -17.1987  -17.8714 N   0  0  0  0  0  0  0  0  0  0  0  0
  -38.6439  -17.8616  -16.8181 C   0  0  0  0  0  0  0  0  0  0  0  0
  -38.4233  -19.0494  -16.7991 O   0  0  0  0  0  0  0  0  0  0  0  0
  -37.3653  -18.2880  -13.6201 C   0  0  0  0  0  0  0  0  0  0  0  0
  -36.9771  -17.7909  -12.3469 C   0  0  0  0  0  0  0  0  0  0  0  0
  -36.4607  -18.6421  -11.3647 C   0  0  0  0  0  0  0  0  0  0  0  0
  -36.3475  -19.9866  -11.6851 C   0  0  0  0  0  0  0  0  0  0  0  0
  -36.7245  -20.4752  -12.9271 C   0  0  0  0  0  0  0  0  0  0  0  0
  -37.2391  -19.6501  -13.9179 C   0  0  0  0  0  0  0  0  0  0  0  0
  -37.2072  -16.4181  -12.3502 N   0  0  0  0  0  0  0  0  0  0  0  0
  -39.4078  -17.6038  -18.7322 H   0  0  0  0  0  0  0  0  0  0  0  0
  -34.0937  -13.1563  -10.4744 N   0  0  0  0  0  0  0  0  0  0  0  0
  -33.5804  -12.8794   -9.1264 C   0  0  0  0  0  0  0  0  0  0  0  0
  -34.0123  -12.2900  -11.0066 H   0  0  0  0  0  0  0  0  0  0  0  0
  -35.3597  -12.8208  -12.9851 O   0  0  0  0  0  0  0  0  0  0  0  0
  -35.2241  -11.5520  -13.6323 C   0  0  0  0  0  0  0  0  0  0  0  0
  1  2  1  0  0  0
  1  6  1  0  0  0
  2  3  1  0  0  0
  2 31  1  0  0  0
  3  4  1  0  0  0
  4  5  1  0  0  0
  4 33  1  0  0  0
  5  6  1  0  0  0
  5 36  1  0  0  0
  6  7  1  0  0  0
  6  8  1  0  0  0
  8  9  1  0  0  0
  8 16  1  0  0  0
  9 10  2  0  0  0
  9 14  1  0  0  0
 10 11  1  0  0  0
 10 31  1  0  0  0
 11 12  2  0  0  0
 11 25  1  0  0  0
 12 13  1  0  0  0
 12 23  1  0  0  0
 13 14  2  0  0  0
 13 21  1  0  0  0
 14 15  1  0  0  0
 15 16  2  0  0  0
 15 20  1  0  0  0
 16 17  1  0  0  0
 17 18  2  0  0  0
 18 19  1  0  0  0
 19 20  2  0  0  0
 21 22  1  0  0  0
 22 23  1  0  0  0
 23 24  2  0  0  0
 25 26  2  0  0  0
 25 30  1  0  0  0
 26 27  1  0  0  0
 26 31  1  0  0  0
 27 28  2  0  0  0
 28 29  1  0  0  0
 29 30  2  0  0  0
 36 37  1  0  0  0
 33 34  1  0  0  0
 22 32  1  0  0  0
 33 35  1  0  0  0
M  END
> <minimizedAffinity>
-9.13460

$$$$
3HMO_STU_A_1


 37 44  0  0  0  0  0  0  0  0999 V2000
  -38.4690  -12.8526  -12.0486 O   0  0  0  0  0  0  0  0  0  0  0  0
  -37.3243  -13.4938  -11.5602 C   0  0  0  0  0  0  0  0  0  0  0  0
  -36.0503  -12.6478  -11.5872 C   0  0  0  0  0  0  0  0  0  0  0  0
  -36.4002  -11.2480  -12.1287 C   0  0  0  0  0  0  0  0  0  0  0  0
  -37.1500  -11.3475  -13.4867 C   0  0  0  0  0  0  0  0  0  0  0  0
  -38.3964  -12.2401  -13.3015 C   0  0  0  0  0  0  0  0  0  0  0  0
  -39.5759  -11.2692  -13.2077 C   0  0  0  0  0  0  0  0  0  0  0  0
  -38.6937  -13.1806  -14.3953 N   0  0  0  0  0  0  0  0  0  0  0  0
  -38.3670  -14.5345  -14.3191 C   0  0  0  0  0  0  0  0  0  0  0  0
  -37.7234  -15.2695  -13.3041 C   0  0  0  0  0  0  0  0  0  0  0  0
  -37.4920  -16.6430  -13.4632 C   0  0  0  0  0  0  0  0  0  0  0  0
  -37.9152  -17.2767  -14.6661 C   0  0  0  0  0  0  0  0  0  0  0  0
  -38.5448  -16.5333  -15.6648 C   0  0  0  0  0  0  0  0  0  0  0  0
  -38.7694  -15.1815  -15.4985 C   0  0  0  0  0  0  0  0  0  0  0  0
  -39.3869  -14.1704  -16.3373 C   0  0  0  0  0  0  0  0  0  0  0  0
  -39.3178  -12.9489  -15.6181 C   0  0  0  0  0  0  0  0  0  0  0  0
  -39.8470  -11.7923  -16.2104 C   0  0  0  0  0  0  0  0  0  0  0  0
  -40.4145  -11.9067  -17.4764 C   0  0  0  0  0  0  0  0  0  0  0  0
  -40.4689  -13.1104  -18.1616 C   0  0  0  0  0  0  0  0  0  0  0  0
  -39.9577  -14.2729  -17.6099 C   0  0  0  0  0  0  0  0  0  0  0  0
  -38.8693  -17.4642  -16.8026 C   0  0  0  0  0  0  0  0  0  0  0  0
  -38.3828  -18.7722  -16.3714 N   0  0  0  0  0  0  0  0  0  0  0  0
  -37.8360  -18.6587  -15.1476 C   0  0  0  0  0  0  0  0  0  0  0  0
  -37.3413  -19.5731  -14.5320 O   0  0  0  0  0  0  0  0  0  0  0  0
  -36.8170  -17.0742  -12.2329 C   0  0  0  0  0  0  0  0  0  0  0  0
  -36.6874  -15.9238  -11.4091 C   0  0  0  0  0  0  0  0  0  0  0  0
  -36.0830  -16.0000  -10.1502 C   0  0  0  0  0  0  0  0  0  0  0  0
  -35.6208  -17.2420   -9.7417 C   0  0  0  0  0  0  0  0  0  0  0  0
  -35.7449  -18.3668  -10.5435 C   0  0  0  0  0  0  0  0  0  0  0  0
  -36.3404  -18.3160  -11.7965 C   0  0  0  0  0  0  0  0  0  0  0  0
  -37.2371  -14.8512  -12.1055 N   0  0  0  0  0  0  0  0  0  0  0  0
  -38.4451  -19.6046  -16.8935 H   0  0  0  0  0  0  0  0  0  0  0  0
  -35.1947  -10.4185  -12.2825 N   0  0  0  0  0  0  0  0  0  0  0  0
  -35.2128   -9.0234  -11.8232 C   0  0  0  0  0  0  0  0  0  0  0  0
  -34.9722  -10.4002  -13.2777 H   0  0  0  0  0  0  0  0  0  0  0  0
  -36.2480  -11.7289  -14.5611 O   0  0  0  0  0  0  0  0  0  0  0  0
  -36.2295  -10.8666  -15.7027 C   0  0  0  0  0  0  0  0  0  0  0  0
  1  2  1  0  0  0
  1  6  1  0  0  0
  2  3  1  0  0  0
  2 31  1  0  0  0
  3  4  1  0  0  0
  4  5  1  0  0  0
  4 33  1  0  0  0
  5  6  1  0  0  0
  5 36  1  0  0  0
  6  7  1  0  0  0
  6  8  1  0  0  0
  8  9  1  0  0  0
  8 16  1  0  0  0
  9 10  2  0  0  0
  9 14  1  0  0  0
 10 11  1  0  0  0
 10 31  1  0  0  0
 11 12  2  0  0  0
 11 25  1  0  0  0
 12 13  1  0  0  0
 12 23  1  0  0  0
 13 14  2  0  0  0
 13 21  1  0  0  0
 14 15  1  0  0  0
 15 16  2  0  0  0
 15 20  1  0  0  0
 16 17  1  0  0  0
 17 18  2  0  0  0
 18 19  1  0  0  0
 19 20  2  0  0  0
 21 22  1  0  0  0
 22 23  1  0  0  0
 23 24  2  0  0  0
 25 26  2  0  0  0
 25 30  1  0  0  0
 26 27  1  0  0  0
 26 31  1  0  0  0
 27 28  2  0  0  0
 28 29  1  0  0  0
 29 30  2  0  0  0
 36 37  1  0  0  0
 33 34  1  0  0  0
 22 32  1  0  0  0
 33 35  1  0  0  0
M  END
> <minimizedAffinity>
-9.02410

$$$$
3HMO_STU_A_1


 37 44  0  0  0  0  0  0  0  0999 V2000
  -37.7004  -11.7984  -10.9809 O   0  0  0  0  0  0  0  0  0  0  0  0
  -36.7263  -10.8769  -10.5782 C   0  0  0  0  0  0  0  0  0  0  0  0
  -35.9411  -10.2286  -11.7195 C   0  0  0  0  0  0  0  0  0  0  0  0
  -36.4898  -10.7592  -13.0584 C   0  0  0  0  0  0  0  0  0  0  0  0
  -36.5088  -12.3134  -13.0757 C   0  0  0  0  0  0  0  0  0  0  0  0
  -37.3218  -12.8137  -11.8618 C   0  0  0  0  0  0  0  0  0  0  0  0
  -38.6853  -13.2155  -12.4292 C   0  0  0  0  0  0  0  0  0  0  0  0
  -36.7824  -13.9874  -11.1544 N   0  0  0  0  0  0  0  0  0  0  0  0
  -36.0722  -13.8720   -9.9594 C   0  0  0  0  0  0  0  0  0  0  0  0
  -35.7081  -12.7345   -9.2123 C   0  0  0  0  0  0  0  0  0  0  0  0
  -34.9714  -12.8721   -8.0276 C   0  0  0  0  0  0  0  0  0  0  0  0
  -34.5975  -14.1772   -7.5980 C   0  0  0  0  0  0  0  0  0  0  0  0
  -34.9598  -15.2931   -8.3530 C   0  0  0  0  0  0  0  0  0  0  0  0
  -35.6863  -15.1477   -9.5177 C   0  0  0  0  0  0  0  0  0  0  0  0
  -36.1987  -16.0967  -10.4893 C   0  0  0  0  0  0  0  0  0  0  0  0
  -36.8681  -15.3375  -11.4842 C   0  0  0  0  0  0  0  0  0  0  0  0
  -37.4612  -16.0169  -12.5589 C   0  0  0  0  0  0  0  0  0  0  0  0
  -37.3614  -17.4051  -12.5904 C   0  0  0  0  0  0  0  0  0  0  0  0
  -36.7003  -18.1262  -11.6083 C   0  0  0  0  0  0  0  0  0  0  0  0
  -36.1030  -17.4912  -10.5325 C   0  0  0  0  0  0  0  0  0  0  0  0
  -34.4279  -16.5177   -7.6572 C   0  0  0  0  0  0  0  0  0  0  0  0
  -33.7499  -16.0116   -6.4666 N   0  0  0  0  0  0  0  0  0  0  0  0
  -33.8490  -14.6703   -6.4384 C   0  0  0  0  0  0  0  0  0  0  0  0
  -33.3785  -13.9677   -5.5755 O   0  0  0  0  0  0  0  0  0  0  0  0
  -34.7772  -11.5071   -7.5233 C   0  0  0  0  0  0  0  0  0  0  0  0
  -35.4154  -10.6330   -8.4439 C   0  0  0  0  0  0  0  0  0  0  0  0
  -35.4155   -9.2486   -8.2458 C   0  0  0  0  0  0  0  0  0  0  0  0
  -34.7711   -8.7687   -7.1155 C   0  0  0  0  0  0  0  0  0  0  0  0
  -34.1463   -9.6189   -6.2153 C   0  0  0  0  0  0  0  0  0  0  0  0
  -34.1327  -10.9959   -6.3907 C   0  0  0  0  0  0  0  0  0  0  0  0
  -35.9526  -11.4201   -9.4586 N   0  0  0  0  0  0  0  0  0  0  0  0
  -33.2931  -16.5642   -5.7920 H   0  0  0  0  0  0  0  0  0  0  0  0
  -35.7025  -10.2558  -14.1949 N   0  0  0  0  0  0  0  0  0  0  0  0
  -34.6652   -9.2419  -13.9641 C   0  0  0  0  0  0  0  0  0  0  0  0
  -36.3644   -9.8568  -14.8607 H   0  0  0  0  0  0  0  0  0  0  0  0
  -35.1670  -12.8564  -13.2105 O   0  0  0  0  0  0  0  0  0  0  0  0
  -34.9764  -13.8083  -14.2615 C   0  0  0  0  0  0  0  0  0  0  0  0
  1  2  1  0  0  0
  1  6  1  0  0  0
  2  3  1  0  0  0
  2 31  1  0  0  0
  3  4  1  0  0  0
  4  5  1  0  0  0
  4 33  1  0  0  0
  5  6  1  0  0  0
  5 36  1  0  0  0
  6  7  1  0  0  0
  6  8  1  0  0  0
  8  9  1  0  0  0
  8 16  1  0  0  0
  9 10  2  0  0  0
  9 14  1  0  0  0
 10 11  1  0  0  0
 10 31  1  0  0  0
 11 12  2  0  0  0
 11 25  1  0  0  0
 12 13  1  0  0  0
 12 23  1  0  0  0
 13 14  2  0  0  0
 13 21  1  0  0  0
 14 15  1  0  0  0
 15 16  2  0  0  0
 15 20  1  0  0  0
 16 17  1  0  0  0
 17 18  2  0  0  0
 18 19  1  0  0  0
 19 20  2  0  0  0
 21 22  1  0  0  0
 22 23  1  0  0  0
 23 24  2  0  0  0
 25 26  2  0  0  0
 25 30  1  0  0  0
 26 27  1  0  0  0
 26 31  1  0  0  0
 27 28  2  0  0  0
 28 29  1  0  0  0
 29 30  2  0  0  0
 36 37  1  0  0  0
 33 34  1  0  0  0
 22 32  1  0  0  0
 33 35  1  0  0  0
M  END
> <minimizedAffinity>
-8.83497

$$$$
3HMO_STU_A_1


 37 44  0  0  0  0  0  0  0  0999 V2000
  -37.0166  -13.0141  -16.0368 O   0  0  0  0  0  0  0  0  0  0  0  0
  -38.0940  -13.7622  -16.5266 C   0  0  0  0  0  0  0  0  0  0  0  0
  -39.3977  -12.9805  -16.6957 C   0  0  0  0  0  0  0  0  0  0  0  0
  -39.1456  -11.5116  -16.3035 C   0  0  0  0  0  0  0  0  0  0  0  0
  -38.5015  -11.4147  -14.8922 C   0  0  0  0  0  0  0  0  0  0  0  0
  -37.2108  -12.2625  -14.8760 C   0  0  0  0  0  0  0  0  0  0  0  0
  -36.0660  -11.2543  -14.9999 C   0  0  0  0  0  0  0  0  0  0  0  0
  -36.9644  -13.0524  -13.6576 N   0  0  0  0  0  0  0  0  0  0  0  0
  -37.2317  -14.4199  -13.5930 C   0  0  0  0  0  0  0  0  0  0  0  0
  -37.7648  -15.2991  -14.5561 C   0  0  0  0  0  0  0  0  0  0  0  0
  -37.9549  -16.6537  -14.2492 C   0  0  0  0  0  0  0  0  0  0  0  0
  -37.6034  -17.1205  -12.9507 C   0  0  0  0  0  0  0  0  0  0  0  0
  -37.0832  -16.2354  -12.0059 C   0  0  0  0  0  0  0  0  0  0  0  0
  -36.8985  -14.9035  -12.3177 C   0  0  0  0  0  0  0  0  0  0  0  0
  -36.3882  -13.7724  -11.5645 C   0  0  0  0  0  0  0  0  0  0  0  0
  -36.4476  -12.6487  -12.4293 C   0  0  0  0  0  0  0  0  0  0  0  0
  -36.0115  -11.4066  -11.9443 C   0  0  0  0  0  0  0  0  0  0  0  0
  -35.5410  -11.3439  -10.6355 C   0  0  0  0  0  0  0  0  0  0  0  0
  -35.4943  -12.4546   -9.8075 C   0  0  0  0  0  0  0  0  0  0  0  0
  -35.9154  -13.6970  -10.2504 C   0  0  0  0  0  0  0  0  0  0  0  0
  -36.8134  -17.0094  -10.7430 C   0  0  0  0  0  0  0  0  0  0  0  0
  -37.2138  -18.3807  -11.0472 N   0  0  0  0  0  0  0  0  0  0  0  0
  -37.6668  -18.4383  -12.3125 C   0  0  0  0  0  0  0  0  0  0  0  0
  -38.0761  -19.4413  -12.8475 O   0  0  0  0  0  0  0  0  0  0  0  0
  -38.5141  -17.2585  -15.4644 C   0  0  0  0  0  0  0  0  0  0  0  0
  -38.6229  -16.2206  -16.4287 C   0  0  0  0  0  0  0  0  0  0  0  0
  -39.1232  -16.4733  -17.7100 C   0  0  0  0  0  0  0  0  0  0  0  0
  -39.5037  -17.7753  -17.9979 C   0  0  0  0  0  0  0  0  0  0  0  0
  -39.3998  -18.7907  -17.0589 C   0  0  0  0  0  0  0  0  0  0  0  0
  -38.9068  -18.5643  -15.7810 C   0  0  0  0  0  0  0  0  0  0  0  0
  -38.1713  -15.0485  -15.8289 N   0  0  0  0  0  0  0  0  0  0  0  0
  -37.1607  -19.1419  -10.4251 H   0  0  0  0  0  0  0  0  0  0  0  0
  -40.3905  -10.7282  -16.3401 N   0  0  0  0  0  0  0  0  0  0  0  0
  -41.6621  -11.4034  -16.6309 C   0  0  0  0  0  0  0  0  0  0  0  0
  -40.2672  -10.0084  -17.0523 H   0  0  0  0  0  0  0  0  0  0  0  0
  -39.4696  -11.7094  -13.8485 O   0  0  0  0  0  0  0  0  0  0  0  0
  -39.5606  -10.7543  -12.7871 C   0  0  0  0  0  0  0  0  0  0  0  0
  1  2  1  0  0  0
  1  6  1  0  0  0
  2  3  1  0  0  0
  2 31  1  0  0  0
  3  4  1  0  0  0
  4  5  1  0  0  0
  4 33  1  0  0  0
  5  6  1  0  0  0
  5 36  1  0  0  0
  6  7  1  0  0  0
  6  8  1  0  0  0
  8  9  1  0  0  0
  8 16  1  0  0  0
  9 10  2  0  0  0
  9 14  1  0  0  0
 10 11  1  0  0  0
 10 31  1  0  0  0
 11 12  2  0  0  0
 11 25  1  0  0  0
 12 13  1  0  0  0
 12 23  1  0  0  0
 13 14  2  0  0  0
 13 21  1  0  0  0
 14 15  1  0  0  0
 15 16  2  0  0  0
 15 20  1  0  0  0
 16 17  1  0  0  0
 17 18  2  0  0  0
 18 19  1  0  0  0
 19 20  2  0  0  0
 21 22  1  0  0  0
 22 23  1  0  0  0
 23 24  2  0  0  0
 25 26  2  0  0  0
 25 30  1  0  0  0
 26 27  1  0  0  0
 26 31  1  0  0  0
 27 28  2  0  0  0
 28 29  1  0  0  0
 29 30  2  0  0  0
 36 37  1  0  0  0
 33 34  1  0  0  0
 22 32  1  0  0  0
 33 35  1  0  0  0
M  END
> <minimizedAffinity>
-8.72861

$$$$
3HMO_STU_A_1


 37 44  0  0  0  0  0  0  0  0999 V2000
  -34.9947  -14.4683  -12.4791 O   0  0  0  0  0  0  0  0  0  0  0  0
  -35.4259  -15.3143  -11.4502 C   0  0  0  0  0  0  0  0  0  0  0  0
  -36.7433  -16.0420  -11.7232 C   0  0  0  0  0  0  0  0  0  0  0  0
  -37.2337  -15.6600  -13.1334 C   0  0  0  0  0  0  0  0  0  0  0  0
  -37.2899  -14.1160  -13.3042 C   0  0  0  0  0  0  0  0  0  0  0  0
  -35.8983  -13.5296  -12.9816 C   0  0  0  0  0  0  0  0  0  0  0  0
  -35.2634  -13.2293  -14.3414 C   0  0  0  0  0  0  0  0  0  0  0  0
  -35.8818  -12.2764  -12.2079 N   0  0  0  0  0  0  0  0  0  0  0  0
  -35.6233  -12.2537  -10.8374 C   0  0  0  0  0  0  0  0  0  0  0  0
  -35.3610  -13.3021   -9.9336 C   0  0  0  0  0  0  0  0  0  0  0  0
  -35.1387  -13.0277   -8.5769 C   0  0  0  0  0  0  0  0  0  0  0  0
  -35.1861  -11.6759   -8.1320 C   0  0  0  0  0  0  0  0  0  0  0  0
  -35.4541  -10.6497   -9.0386 C   0  0  0  0  0  0  0  0  0  0  0  0
  -35.6704  -10.9296  -10.3728 C   0  0  0  0  0  0  0  0  0  0  0  0
  -35.9621  -10.0952  -11.5242 C   0  0  0  0  0  0  0  0  0  0  0  0
  -36.0862  -10.9676  -12.6367 C   0  0  0  0  0  0  0  0  0  0  0  0
  -36.3749  -10.4138  -13.8931 C   0  0  0  0  0  0  0  0  0  0  0  0
  -36.5234   -9.0324  -13.9806 C   0  0  0  0  0  0  0  0  0  0  0  0
  -36.4001   -8.1994  -12.8796 C   0  0  0  0  0  0  0  0  0  0  0  0
  -36.1155   -8.7087  -11.6238 C   0  0  0  0  0  0  0  0  0  0  0  0
  -35.4415   -9.3474   -8.2834 C   0  0  0  0  0  0  0  0  0  0  0  0
  -35.1468   -9.7148   -6.9008 N   0  0  0  0  0  0  0  0  0  0  0  0
  -35.0028  -11.0499   -6.8196 C   0  0  0  0  0  0  0  0  0  0  0  0
  -34.7607  -11.6509   -5.7999 O   0  0  0  0  0  0  0  0  0  0  0  0
  -34.9003  -14.3312   -7.9451 C   0  0  0  0  0  0  0  0  0  0  0  0
  -34.9945  -15.3098   -8.9709 C   0  0  0  0  0  0  0  0  0  0  0  0
  -34.8112  -16.6683   -8.6936 C   0  0  0  0  0  0  0  0  0  0  0  0
  -34.5320  -17.0165   -7.3807 C   0  0  0  0  0  0  0  0  0  0  0  0
  -34.4402  -16.0641   -6.3767 C   0  0  0  0  0  0  0  0  0  0  0  0
  -34.6185  -14.7103   -6.6273 C   0  0  0  0  0  0  0  0  0  0  0  0
  -35.2897  -14.6414  -10.1556 N   0  0  0  0  0  0  0  0  0  0  0  0
  -35.0663   -9.0855   -6.1480 H   0  0  0  0  0  0  0  0  0  0  0  0
  -38.5550  -16.2429  -13.4151 N   0  0  0  0  0  0  0  0  0  0  0  0
  -38.6919  -17.7003  -13.5368 C   0  0  0  0  0  0  0  0  0  0  0  0
  -38.8751  -15.8404  -14.2960 H   0  0  0  0  0  0  0  0  0  0  0  0
  -38.4073  -13.5440  -12.5709 O   0  0  0  0  0  0  0  0  0  0  0  0
  -39.3217  -12.7521  -13.3349 C   0  0  0  0  0  0  0  0  0  0  0  0
  1  2  1  0  0  0
  1  6  1  0  0  0
  2  3  1  0  0  0
  2 31  1  0  0  0
  3  4  1  0  0  0
  4  5  1  0  0  0
  4 33  1  0  0  0
  5  6  1  0  0  0
  5 36  1  0  0  0
  6  7  1  0  0  0
  6  8  1  0  0  0
  8  9  1  0  0  0
  8 16  1  0  0  0
  9 10  2  0  0  0
  9 14  1  0  0  0
 10 11  1  0  0  0
 10 31  1  0  0  0
 11 12  2  0  0  0
 11 25  1  0  0  0
 12 13  1  0  0  0
 12 23  1  0  0  0
 13 14  2  0  0  0
 13 21  1  0  0  0
 14 15  1  0  0  0
 15 16  2  0  0  0
 15 20  1  0  0  0
 16 17  1  0  0  0
 17 18  2  0  0  0
 18 19  1  0  0  0
 19 20  2  0  0  0
 21 22  1  0  0  0
 22 23  1  0  0  0
 23 24  2  0  0  0
 25 26  2  0  0  0
 25 30  1  0  0  0
 26 27  1  0  0  0
 26 31  1  0  0  0
 27 28  2  0  0  0
 28 29  1  0  0  0
 29 30  2  0  0  0
 36 37  1  0  0  0
 33 34  1  0  0  0
 22 32  1  0  0  0
 33 35  1  0  0  0
M  END
> <minimizedAffinity>
-8.21556

$$$$
3HMO_STU_A_1


 37 44  0  0  0  0  0  0  0  0999 V2000
  -35.7940  -13.1938  -14.2196 O   0  0  0  0  0  0  0  0  0  0  0  0
  -36.7503  -12.4327  -14.9027 C   0  0  0  0  0  0  0  0  0  0  0  0
  -37.5852  -11.5036  -14.0200 C   0  0  0  0  0  0  0  0  0  0  0  0
  -37.0953  -11.6350  -12.5648 C   0  0  0  0  0  0  0  0  0  0  0  0
  -37.0758  -13.1231  -12.1159 C   0  0  0  0  0  0  0  0  0  0  0  0
  -36.2100  -13.9298  -13.1081 C   0  0  0  0  0  0  0  0  0  0  0  0
  -34.8724  -14.1409  -12.3949 C   0  0  0  0  0  0  0  0  0  0  0  0
  -36.7170  -15.2606  -13.4839 N   0  0  0  0  0  0  0  0  0  0  0  0
  -37.3743  -15.4902  -14.6925 C   0  0  0  0  0  0  0  0  0  0  0  0
  -37.7062  -14.6093  -15.7406 C   0  0  0  0  0  0  0  0  0  0  0  0
  -38.3902  -15.0795  -16.8703 C   0  0  0  0  0  0  0  0  0  0  0  0
  -38.7439  -16.4573  -16.9360 C   0  0  0  0  0  0  0  0  0  0  0  0
  -38.4141  -17.3153  -15.8863 C   0  0  0  0  0  0  0  0  0  0  0  0
  -37.7394  -16.8432  -14.7785 C   0  0  0  0  0  0  0  0  0  0  0  0
  -37.2693  -17.4788  -13.5611 C   0  0  0  0  0  0  0  0  0  0  0  0
  -36.6448  -16.4650  -12.7889 C   0  0  0  0  0  0  0  0  0  0  0  0
  -36.0988  -16.8120  -11.5440 C   0  0  0  0  0  0  0  0  0  0  0  0
  -36.1987  -18.1383  -11.1326 C   0  0  0  0  0  0  0  0  0  0  0  0
  -36.8156  -19.1118  -11.9027 C   0  0  0  0  0  0  0  0  0  0  0  0
  -37.3657  -18.8079  -13.1365 C   0  0  0  0  0  0  0  0  0  0  0  0
  -38.9140  -18.6915  -16.2365 C   0  0  0  0  0  0  0  0  0  0  0  0
  -39.5397  -18.5442  -17.5481 N   0  0  0  0  0  0  0  0  0  0  0  0
  -39.4405  -17.2622  -17.9433 C   0  0  0  0  0  0  0  0  0  0  0  0
  -39.8734  -16.8326  -18.9863 O   0  0  0  0  0  0  0  0  0  0  0  0
  -38.5632  -13.9105  -17.7413 C   0  0  0  0  0  0  0  0  0  0  0  0
  -37.9666  -12.8073  -17.0737 C   0  0  0  0  0  0  0  0  0  0  0  0
  -37.9590  -11.5322  -17.6481 C   0  0  0  0  0  0  0  0  0  0  0  0
  -38.5537  -11.3929  -18.8931 C   0  0  0  0  0  0  0  0  0  0  0  0
  -39.1378  -12.4673  -19.5473 C   0  0  0  0  0  0  0  0  0  0  0  0
  -39.1580  -13.7418  -18.9973 C   0  0  0  0  0  0  0  0  0  0  0  0
  -37.4737  -13.2751  -15.8589 N   0  0  0  0  0  0  0  0  0  0  0  0
  -39.9661  -19.2681  -18.0613 H   0  0  0  0  0  0  0  0  0  0  0  0
  -37.9319  -10.8464  -11.6466 N   0  0  0  0  0  0  0  0  0  0  0  0
  -39.0675  -10.0816  -12.1786 C   0  0  0  0  0  0  0  0  0  0  0  0
  -37.3157  -10.1787  -11.1832 H   0  0  0  0  0  0  0  0  0  0  0  0
  -38.4218  -13.6247  -11.8920 O   0  0  0  0  0  0  0  0  0  0  0  0
  -38.6402  -14.3088  -10.6545 C   0  0  0  0  0  0  0  0  0  0  0  0
  1  2  1  0  0  0
  1  6  1  0  0  0
  2  3  1  0  0  0
  2 31  1  0  0  0
  3  4  1  0  0  0
  4  5  1  0  0  0
  4 33  1  0  0  0
  5  6  1  0  0  0
  5 36  1  0  0  0
  6  7  1  0  0  0
  6  8  1  0  0  0
  8  9  1  0  0  0
  8 16  1  0  0  0
  9 10  2  0  0  0
  9 14  1  0  0  0
 10 11  1  0  0  0
 10 31  1  0  0  0
 11 12  2  0  0  0
 11 25  1  0  0  0
 12 13  1  0  0  0
 12 23  1  0  0  0
 13 14  2  0  0  0
 13 21  1  0  0  0
 14 15  1  0  0  0
 15 16  2  0  0  0
 15 20  1  0  0  0
 16 17  1  0  0  0
 17 18  2  0  0  0
 18 19  1  0  0  0
 19 20  2  0  0  0
 21 22  1  0  0  0
 22 23  1  0  0  0
 23 24  2  0  0  0
 25 26  2  0  0  0
 25 30  1  0  0  0
 26 27  1  0  0  0
 26 31  1  0  0  0
 27 28  2  0  0  0
 28 29  1  0  0  0
 29 30  2  0  0  0
 36 37  1  0  0  0
 33 34  1  0  0  0
 22 32  1  0  0  0
 33 35  1  0  0  0
M  END
> <minimizedAffinity>
-8.11880

$$$$
