2ZDM_46U_A_501


 32 34  0  0  0  0  0  0  0  0999 V2000
  -26.4317    1.4761   14.0918 C   0  0  0  0  0  0  0  0  0  0  0  0
  -26.6495    2.6561   13.8145 O   0  0  0  0  0  0  0  0  0  0  0  0
  -25.1438    1.0627   13.9675 N   0  0  0  0  0  0  0  0  0  0  0  0
  -24.9580    0.1171   14.1690 H   0  0  0  0  0  0  0  0  0  0  0  0
  -26.4904    1.0041   16.9482 O   0  0  0  0  0  0  0  0  0  0  0  0
  -27.6943    1.1375   16.7993 C   0  0  0  0  0  0  0  0  0  0  0  0
  -28.3265    0.9537   15.7012 N   0  0  0  0  0  0  0  0  0  0  0  0
  -27.5244    0.5158   14.5625 C   0  0  0  0  0  0  0  0  0  0  0  0
  -28.4079    0.3916   13.3172 C   0  0  0  0  0  0  0  0  0  0  0  0
  -29.7243    0.9942   13.7838 C   0  0  0  0  0  0  0  0  0  0  0  0
  -29.7733    0.9498   15.3106 C   0  0  0  0  0  0  0  0  0  0  0  0
  -28.3968    1.5906   18.0888 C   0  0  0  0  0  0  0  0  0  0  0  0
  -29.6251    1.0397   18.4771 O   0  0  0  0  0  0  0  0  0  0  0  0
  -29.8250   -0.1223   19.2104 C   0  0  0  0  0  0  0  0  0  0  0  0
  -28.5674   -0.6711   19.8635 C   0  0  0  0  0  0  0  0  0  0  0  0
  -28.6796   -1.9839   20.5975 C   0  0  0  0  0  0  0  0  0  0  0  0
  -29.0984   -2.9196   19.5356 C   0  0  0  0  0  0  0  0  0  0  0  0
  -30.3817   -2.5157   18.8778 C   0  0  0  0  0  0  0  0  0  0  0  0
  -30.2361   -1.1669   18.2637 C   0  0  0  0  0  0  0  0  0  0  0  0
  -23.9987    1.8951   13.5598 C   0  0  0  0  0  0  0  0  0  0  0  0
  -22.7918    1.6770   14.4578 C   0  0  0  0  0  0  0  0  0  0  0  0
  -21.6292    0.9962   14.0656 C   0  0  0  0  0  0  0  0  0  0  0  0
  -20.5433    0.8196   14.9243 C   0  0  0  0  0  0  0  0  0  0  0  0
  -20.6126    1.3251   16.1883 C   0  0  0  0  0  0  0  0  0  0  0  0
  -21.7515    2.0028   16.6016 C   0  0  0  0  0  0  0  0  0  0  0  0
  -22.8408    2.1864   15.7573 C   0  0  0  0  0  0  0  0  0  0  0  0
  -19.4626    1.1504   17.1327 C   0  0  0  0  0  0  0  0  0  0  0  0
  -19.3387    2.0007   18.1325 N   0  0  0  0  0  0  0  0  0  0  0  0
  -18.5812    0.1758   16.9875 N   0  0  0  0  0  0  0  0  0  0  0  0
  -19.9929    2.7278   18.2441 H   0  0  0  0  0  0  0  0  0  0  0  0
  -18.6700   -0.4613   16.2423 H   0  0  0  0  0  0  0  0  0  0  0  0
  -17.8359    0.0871   17.6247 H   0  0  0  0  0  0  0  0  0  0  0  0
  5  6  2  0  0  0
  6 12  1  0  0  0
  6  7  1  0  0  0
 12 13  1  0  0  0
 13 14  1  0  0  0
 14 15  1  0  0  0
 14 19  1  0  0  0
 15 16  1  0  0  0
 16 17  1  0  0  0
 17 18  1  0  0  0
 18 19  1  0  0  0
  7  8  1  0  0  0
  7 11  1  0  0  0
  8  9  1  0  0  0
  8  1  1  0  0  0
  9 10  1  0  0  0
 10 11  1  0  0  0
  1  2  2  0  0  0
  1  3  1  0  0  0
  3 20  1  0  0  0
 20 21  1  0  0  0
 21 26  2  0  0  0
 21 22  1  0  0  0
 26 25  1  0  0  0
 25 24  2  0  0  0
 24 27  1  0  0  0
 24 23  1  0  0  0
 27 28  2  0  0  0
 27 29  1  0  0  0
 23 22  2  0  0  0
  3  4  1  0  0  0
 28 30  1  0  0  0
 29 31  1  0  0  0
 29 32  1  0  0  0
M  END
> <minimizedAffinity>
-9.05504

$$$$
2ZDM_46U_A_501


 32 34  0  0  0  0  0  0  0  0999 V2000
  -26.6364    2.5187   14.3204 C   0  0  0  0  0  0  0  0  0  0  0  0
  -26.8135    2.4981   13.1018 O   0  0  0  0  0  0  0  0  0  0  0  0
  -25.4001    2.1541   14.7491 N   0  0  0  0  0  0  0  0  0  0  0  0
  -25.2494    2.1490   15.7220 H   0  0  0  0  0  0  0  0  0  0  0  0
  -27.3851    0.4822   16.2381 O   0  0  0  0  0  0  0  0  0  0  0  0
  -27.3340    1.4117   17.0273 C   0  0  0  0  0  0  0  0  0  0  0  0
  -27.4606    2.6481   16.7199 N   0  0  0  0  0  0  0  0  0  0  0  0
  -27.7214    2.9378   15.3128 C   0  0  0  0  0  0  0  0  0  0  0  0
  -27.7947    4.4524   15.0954 C   0  0  0  0  0  0  0  0  0  0  0  0
  -27.3464    5.0020   16.4410 C   0  0  0  0  0  0  0  0  0  0  0  0
  -27.5418    3.9223   17.5046 C   0  0  0  0  0  0  0  0  0  0  0  0
  -27.0648    0.9436   18.4661 C   0  0  0  0  0  0  0  0  0  0  0  0
  -28.0690    0.3347   19.2301 O   0  0  0  0  0  0  0  0  0  0  0  0
  -28.4934   -0.9851   19.1522 C   0  0  0  0  0  0  0  0  0  0  0  0
  -29.9177   -1.1531   18.6497 C   0  0  0  0  0  0  0  0  0  0  0  0
  -30.4887   -2.5488   18.6278 C   0  0  0  0  0  0  0  0  0  0  0  0
  -30.4478   -2.9431   20.0495 C   0  0  0  0  0  0  0  0  0  0  0  0
  -29.0667   -2.8946   20.6267 C   0  0  0  0  0  0  0  0  0  0  0  0
  -28.5199   -1.5134   20.5221 C   0  0  0  0  0  0  0  0  0  0  0  0
  -24.2634    1.7656   13.8962 C   0  0  0  0  0  0  0  0  0  0  0  0
  -22.9898    1.5727   14.7033 C   0  0  0  0  0  0  0  0  0  0  0  0
  -21.9037    0.7875   14.2877 C   0  0  0  0  0  0  0  0  0  0  0  0
  -20.7521    0.6386   15.0620 C   0  0  0  0  0  0  0  0  0  0  0  0
  -20.6780    1.2773   16.2639 C   0  0  0  0  0  0  0  0  0  0  0  0
  -21.7388    2.0603   16.6986 C   0  0  0  0  0  0  0  0  0  0  0  0
  -22.8920    2.2178   15.9381 C   0  0  0  0  0  0  0  0  0  0  0  0
  -19.4545    1.1356   17.1172 C   0  0  0  0  0  0  0  0  0  0  0  0
  -19.2711    1.9985   18.0968 N   0  0  0  0  0  0  0  0  0  0  0  0
  -18.5669    0.1776   16.9121 N   0  0  0  0  0  0  0  0  0  0  0  0
  -19.9297    2.7134   18.2529 H   0  0  0  0  0  0  0  0  0  0  0  0
  -18.7001   -0.4688   16.1816 H   0  0  0  0  0  0  0  0  0  0  0  0
  -17.7726    0.1106   17.4899 H   0  0  0  0  0  0  0  0  0  0  0  0
  5  6  2  0  0  0
  6 12  1  0  0  0
  6  7  1  0  0  0
 12 13  1  0  0  0
 13 14  1  0  0  0
 14 15  1  0  0  0
 14 19  1  0  0  0
 15 16  1  0  0  0
 16 17  1  0  0  0
 17 18  1  0  0  0
 18 19  1  0  0  0
  7  8  1  0  0  0
  7 11  1  0  0  0
  8  9  1  0  0  0
  8  1  1  0  0  0
  9 10  1  0  0  0
 10 11  1  0  0  0
  1  2  2  0  0  0
  1  3  1  0  0  0
  3 20  1  0  0  0
 20 21  1  0  0  0
 21 26  2  0  0  0
 21 22  1  0  0  0
 26 25  1  0  0  0
 25 24  2  0  0  0
 24 27  1  0  0  0
 24 23  1  0  0  0
 27 28  2  0  0  0
 27 29  1  0  0  0
 23 22  2  0  0  0
  3  4  1  0  0  0
 28 30  1  0  0  0
 29 31  1  0  0  0
 29 32  1  0  0  0
M  END
> <minimizedAffinity>
-8.37437

$$$$
2ZDM_46U_A_501


 32 34  0  0  0  0  0  0  0  0999 V2000
  -26.4058    1.4722   14.2757 C   0  0  0  0  0  0  0  0  0  0  0  0
  -26.5551    2.6423   13.9215 O   0  0  0  0  0  0  0  0  0  0  0  0
  -25.1501    0.9686   14.1543 N   0  0  0  0  0  0  0  0  0  0  0  0
  -25.0196    0.0289   14.4173 H   0  0  0  0  0  0  0  0  0  0  0  0
  -26.3828    1.1426   17.1525 O   0  0  0  0  0  0  0  0  0  0  0  0
  -27.5790    1.3578   17.0416 C   0  0  0  0  0  0  0  0  0  0  0  0
  -28.2667    1.1693   15.9782 N   0  0  0  0  0  0  0  0  0  0  0  0
  -27.5451    0.6192   14.8343 C   0  0  0  0  0  0  0  0  0  0  0  0
  -28.4850    0.5018   13.6303 C   0  0  0  0  0  0  0  0  0  0  0  0
  -29.7343    1.2220   14.1141 C   0  0  0  0  0  0  0  0  0  0  0  0
  -29.7246    1.2541   15.6419 C   0  0  0  0  0  0  0  0  0  0  0  0
  -28.1941    1.9226   18.3316 C   0  0  0  0  0  0  0  0  0  0  0  0
  -27.4186    2.1081   19.4836 O   0  0  0  0  0  0  0  0  0  0  0  0
  -27.7562    1.7558   20.7836 C   0  0  0  0  0  0  0  0  0  0  0  0
  -26.8221    2.3157   21.8435 C   0  0  0  0  0  0  0  0  0  0  0  0
  -27.0620    1.9000   23.2734 C   0  0  0  0  0  0  0  0  0  0  0  0
  -26.8849    0.4356   23.2242 C   0  0  0  0  0  0  0  0  0  0  0  0
  -27.8221   -0.2315   22.2652 C   0  0  0  0  0  0  0  0  0  0  0  0
  -27.6059    0.2989   20.8906 C   0  0  0  0  0  0  0  0  0  0  0  0
  -23.9650    1.6952   13.6664 C   0  0  0  0  0  0  0  0  0  0  0  0
  -22.8026    1.6024   14.6414 C   0  0  0  0  0  0  0  0  0  0  0  0
  -22.7643    2.2469   15.8872 C   0  0  0  0  0  0  0  0  0  0  0  0
  -21.6748    2.1332   16.7521 C   0  0  0  0  0  0  0  0  0  0  0  0
  -20.6101    1.3700   16.3753 C   0  0  0  0  0  0  0  0  0  0  0  0
  -20.6227    0.7217   15.1478 C   0  0  0  0  0  0  0  0  0  0  0  0
  -21.7008    0.8257   14.2761 C   0  0  0  0  0  0  0  0  0  0  0  0
  -19.4261    1.2298   17.2828 C   0  0  0  0  0  0  0  0  0  0  0  0
  -19.3108    2.0662   18.2952 N   0  0  0  0  0  0  0  0  0  0  0  0
  -18.5068    0.2989   17.0931 N   0  0  0  0  0  0  0  0  0  0  0  0
  -19.9932    2.7610   18.4400 H   0  0  0  0  0  0  0  0  0  0  0  0
  -18.5892   -0.3277   16.3382 H   0  0  0  0  0  0  0  0  0  0  0  0
  -17.7399    0.2322   17.7068 H   0  0  0  0  0  0  0  0  0  0  0  0
  5  6  2  0  0  0
  6 12  1  0  0  0
  6  7  1  0  0  0
 12 13  1  0  0  0
 13 14  1  0  0  0
 14 15  1  0  0  0
 14 19  1  0  0  0
 15 16  1  0  0  0
 16 17  1  0  0  0
 17 18  1  0  0  0
 18 19  1  0  0  0
  7  8  1  0  0  0
  7 11  1  0  0  0
  8  9  1  0  0  0
  8  1  1  0  0  0
  9 10  1  0  0  0
 10 11  1  0  0  0
  1  2  2  0  0  0
  1  3  1  0  0  0
  3 20  1  0  0  0
 20 21  1  0  0  0
 21 26  2  0  0  0
 21 22  1  0  0  0
 26 25  1  0  0  0
 25 24  2  0  0  0
 24 27  1  0  0  0
 24 23  1  0  0  0
 27 28  2  0  0  0
 27 29  1  0  0  0
 23 22  2  0  0  0
  3  4  1  0  0  0
 28 30  1  0  0  0
 29 31  1  0  0  0
 29 32  1  0  0  0
M  END
> <minimizedAffinity>
-8.35472

$$$$
2ZDM_46U_A_501


 32 34  0  0  0  0  0  0  0  0999 V2000
  -26.6671    1.1899   13.9194 C   0  0  0  0  0  0  0  0  0  0  0  0
  -26.8747    2.0940   13.1092 O   0  0  0  0  0  0  0  0  0  0  0  0
  -25.3641    0.9329   14.2043 N   0  0  0  0  0  0  0  0  0  0  0  0
  -25.1824    0.2009   14.8372 H   0  0  0  0  0  0  0  0  0  0  0  0
  -26.5956    1.1848   16.8142 O   0  0  0  0  0  0  0  0  0  0  0  0
  -27.7952    1.3783   16.6999 C   0  0  0  0  0  0  0  0  0  0  0  0
  -28.4981    1.0673   15.6761 N   0  0  0  0  0  0  0  0  0  0  0  0
  -27.7901    0.3973   14.5889 C   0  0  0  0  0  0  0  0  0  0  0  0
  -28.7480    0.1394   13.4216 C   0  0  0  0  0  0  0  0  0  0  0  0
  -29.9956    0.9010   13.8426 C   0  0  0  0  0  0  0  0  0  0  0  0
  -29.9619    1.1042   15.3568 C   0  0  0  0  0  0  0  0  0  0  0  0
  -28.3944    2.0801   17.9288 C   0  0  0  0  0  0  0  0  0  0  0  0
  -28.4972    3.4761   17.9879 O   0  0  0  0  0  0  0  0  0  0  0  0
  -27.9180    4.3172   18.9287 C   0  0  0  0  0  0  0  0  0  0  0  0
  -28.0714    5.7972   18.6197 C   0  0  0  0  0  0  0  0  0  0  0  0
  -27.3868    6.7758   19.5407 C   0  0  0  0  0  0  0  0  0  0  0  0
  -25.9620    6.4170   19.4013 C   0  0  0  0  0  0  0  0  0  0  0  0
  -25.6831    4.9913   19.7654 C   0  0  0  0  0  0  0  0  0  0  0  0
  -26.4694    4.0795   18.8891 C   0  0  0  0  0  0  0  0  0  0  0  0
  -24.1970    1.6455   13.6562 C   0  0  0  0  0  0  0  0  0  0  0  0
  -22.9993    1.5727   14.5893 C   0  0  0  0  0  0  0  0  0  0  0  0
  -22.9648    2.1351   15.8744 C   0  0  0  0  0  0  0  0  0  0  0  0
  -21.8421    2.0434   16.6983 C   0  0  0  0  0  0  0  0  0  0  0  0
  -20.7397    1.3852   16.2406 C   0  0  0  0  0  0  0  0  0  0  0  0
  -20.7476    0.8196   14.9728 C   0  0  0  0  0  0  0  0  0  0  0  0
  -21.8586    0.9029   14.1410 C   0  0  0  0  0  0  0  0  0  0  0  0
  -19.5194    1.2713   17.1025 C   0  0  0  0  0  0  0  0  0  0  0  0
  -18.6979    0.2615   16.8942 N   0  0  0  0  0  0  0  0  0  0  0  0
  -19.2520    2.1488   18.0544 N   0  0  0  0  0  0  0  0  0  0  0  0
  -18.8934   -0.3942   16.1863 H   0  0  0  0  0  0  0  0  0  0  0  0
  -19.8629    2.9043   18.2132 H   0  0  0  0  0  0  0  0  0  0  0  0
  -18.4419    2.0468   18.6045 H   0  0  0  0  0  0  0  0  0  0  0  0
  5  6  2  0  0  0
  6 12  1  0  0  0
  6  7  1  0  0  0
 12 13  1  0  0  0
 13 14  1  0  0  0
 14 15  1  0  0  0
 14 19  1  0  0  0
 15 16  1  0  0  0
 16 17  1  0  0  0
 17 18  1  0  0  0
 18 19  1  0  0  0
  7  8  1  0  0  0
  7 11  1  0  0  0
  8  9  1  0  0  0
  8  1  1  0  0  0
  9 10  1  0  0  0
 10 11  1  0  0  0
  1  2  2  0  0  0
  1  3  1  0  0  0
  3 20  1  0  0  0
 20 21  1  0  0  0
 21 26  2  0  0  0
 21 22  1  0  0  0
 26 25  1  0  0  0
 25 24  2  0  0  0
 24 27  1  0  0  0
 24 23  1  0  0  0
 27 28  2  0  0  0
 27 29  1  0  0  0
 23 22  2  0  0  0
  3  4  1  0  0  0
 28 30  1  0  0  0
 29 31  1  0  0  0
 29 32  1  0  0  0
M  END
> <minimizedAffinity>
-7.46718

$$$$
2ZDM_46U_A_501


 32 34  0  0  0  0  0  0  0  0999 V2000
  -26.7031    2.4880   15.6777 C   0  0  0  0  0  0  0  0  0  0  0  0
  -26.6168    3.5730   15.1013 O   0  0  0  0  0  0  0  0  0  0  0  0
  -25.7738    1.5574   15.3382 N   0  0  0  0  0  0  0  0  0  0  0  0
  -25.8412    0.6793   15.7781 H   0  0  0  0  0  0  0  0  0  0  0  0
  -29.4021    2.3070   14.6441 O   0  0  0  0  0  0  0  0  0  0  0  0
  -29.4588    1.3262   15.3682 C   0  0  0  0  0  0  0  0  0  0  0  0
  -28.7227    1.1248   16.3962 N   0  0  0  0  0  0  0  0  0  0  0  0
  -27.7741    2.1847   16.7259 C   0  0  0  0  0  0  0  0  0  0  0  0
  -26.9349    1.7762   17.9406 C   0  0  0  0  0  0  0  0  0  0  0  0
  -27.3321    0.3220   18.1436 C   0  0  0  0  0  0  0  0  0  0  0  0
  -28.6831    0.0813   17.4711 C   0  0  0  0  0  0  0  0  0  0  0  0
  -30.5106    0.3102   14.8958 C   0  0  0  0  0  0  0  0  0  0  0  0
  -30.3459   -0.4007   13.6999 O   0  0  0  0  0  0  0  0  0  0  0  0
  -31.1137   -0.2879   12.5484 C   0  0  0  0  0  0  0  0  0  0  0  0
  -31.6277    1.1162   12.2773 C   0  0  0  0  0  0  0  0  0  0  0  0
  -32.5502    1.3051   11.0991 C   0  0  0  0  0  0  0  0  0  0  0  0
  -33.7009    0.4467   11.4417 C   0  0  0  0  0  0  0  0  0  0  0  0
  -33.3165   -0.9859   11.6486 C   0  0  0  0  0  0  0  0  0  0  0  0
  -32.3251   -1.0917   12.7549 C   0  0  0  0  0  0  0  0  0  0  0  0
  -24.6745    1.7374   14.3740 C   0  0  0  0  0  0  0  0  0  0  0  0
  -23.3129    1.5924   15.0338 C   0  0  0  0  0  0  0  0  0  0  0  0
  -22.2547    0.8394   14.5026 C   0  0  0  0  0  0  0  0  0  0  0  0
  -21.0194    0.7342   15.1434 C   0  0  0  0  0  0  0  0  0  0  0  0
  -20.8323    1.3847   16.3266 C   0  0  0  0  0  0  0  0  0  0  0  0
  -21.8630    2.1365   16.8740 C   0  0  0  0  0  0  0  0  0  0  0  0
  -23.0988    2.2504   16.2471 C   0  0  0  0  0  0  0  0  0  0  0  0
  -19.5169    1.2897   17.0378 C   0  0  0  0  0  0  0  0  0  0  0  0
  -19.2023    2.2349   17.9012 N   0  0  0  0  0  0  0  0  0  0  0  0
  -18.6762    0.2926   16.8214 N   0  0  0  0  0  0  0  0  0  0  0  0
  -19.8256    2.9791   18.0652 H   0  0  0  0  0  0  0  0  0  0  0  0
  -18.9073   -0.4152   16.1774 H   0  0  0  0  0  0  0  0  0  0  0  0
  -17.8189    0.2581   17.3043 H   0  0  0  0  0  0  0  0  0  0  0  0
  5  6  2  0  0  0
  6 12  1  0  0  0
  6  7  1  0  0  0
 12 13  1  0  0  0
 13 14  1  0  0  0
 14 15  1  0  0  0
 14 19  1  0  0  0
 15 16  1  0  0  0
 16 17  1  0  0  0
 17 18  1  0  0  0
 18 19  1  0  0  0
  7  8  1  0  0  0
  7 11  1  0  0  0
  8  9  1  0  0  0
  8  1  1  0  0  0
  9 10  1  0  0  0
 10 11  1  0  0  0
  1  2  2  0  0  0
  1  3  1  0  0  0
  3 20  1  0  0  0
 20 21  1  0  0  0
 21 26  2  0  0  0
 21 22  1  0  0  0
 26 25  1  0  0  0
 25 24  2  0  0  0
 24 27  1  0  0  0
 24 23  1  0  0  0
 27 28  2  0  0  0
 27 29  1  0  0  0
 23 22  2  0  0  0
  3  4  1  0  0  0
 28 30  1  0  0  0
 29 31  1  0  0  0
 29 32  1  0  0  0
M  END
> <minimizedAffinity>
-7.28698

$$$$
2ZDM_46U_A_501


 32 34  0  0  0  0  0  0  0  0999 V2000
  -29.1749    1.4079   13.2976 C   0  0  0  0  0  0  0  0  0  0  0  0
  -29.3925    0.4927   12.5027 O   0  0  0  0  0  0  0  0  0  0  0  0
  -29.7407    1.2776   14.5256 N   0  0  0  0  0  0  0  0  0  0  0  0
  -29.5897    2.0102   15.1657 H   0  0  0  0  0  0  0  0  0  0  0  0
  -26.6902    1.5953   14.7728 O   0  0  0  0  0  0  0  0  0  0  0  0
  -26.2299    1.8782   13.6785 C   0  0  0  0  0  0  0  0  0  0  0  0
  -26.8983    2.3638   12.7004 N   0  0  0  0  0  0  0  0  0  0  0  0
  -28.3128    2.6227   12.9533 C   0  0  0  0  0  0  0  0  0  0  0  0
  -28.9839    3.1487   11.6807 C   0  0  0  0  0  0  0  0  0  0  0  0
  -27.8956    2.9680   10.6335 C   0  0  0  0  0  0  0  0  0  0  0  0
  -26.5428    2.8786   11.3386 C   0  0  0  0  0  0  0  0  0  0  0  0
  -24.7305    1.5579   13.5737 C   0  0  0  0  0  0  0  0  0  0  0  0
  -23.8014    2.1454   14.4423 O   0  0  0  0  0  0  0  0  0  0  0  0
  -22.8677    1.4902   15.2342 C   0  0  0  0  0  0  0  0  0  0  0  0
  -21.9557    2.4181   16.0194 C   0  0  0  0  0  0  0  0  0  0  0  0
  -20.8503    1.7877   16.8288 C   0  0  0  0  0  0  0  0  0  0  0  0
  -20.0422    1.1004   15.8027 C   0  0  0  0  0  0  0  0  0  0  0  0
  -20.8292    0.0945   15.0204 C   0  0  0  0  0  0  0  0  0  0  0  0
  -21.9666    0.7637   14.3304 C   0  0  0  0  0  0  0  0  0  0  0  0
  -30.5588    0.1441   14.9905 C   0  0  0  0  0  0  0  0  0  0  0  0
  -30.1462   -0.3210   16.3775 C   0  0  0  0  0  0  0  0  0  0  0  0
  -30.9522   -1.1014   17.2203 C   0  0  0  0  0  0  0  0  0  0  0  0
  -30.5319   -1.5067   18.4880 C   0  0  0  0  0  0  0  0  0  0  0  0
  -29.2959   -1.1324   18.9243 C   0  0  0  0  0  0  0  0  0  0  0  0
  -28.4786   -0.3602   18.1101 C   0  0  0  0  0  0  0  0  0  0  0  0
  -28.8838    0.0508   16.8452 C   0  0  0  0  0  0  0  0  0  0  0  0
  -28.8179   -1.5521   20.2809 C   0  0  0  0  0  0  0  0  0  0  0  0
  -28.3735   -0.6225   21.1033 N   0  0  0  0  0  0  0  0  0  0  0  0
  -28.8314   -2.8166   20.6661 N   0  0  0  0  0  0  0  0  0  0  0  0
  -28.3618    0.3204   20.8204 H   0  0  0  0  0  0  0  0  0  0  0  0
  -29.1624   -3.5139   20.0550 H   0  0  0  0  0  0  0  0  0  0  0  0
  -28.5104   -3.0611   21.5642 H   0  0  0  0  0  0  0  0  0  0  0  0
  5  6  2  0  0  0
  6 12  1  0  0  0
  6  7  1  0  0  0
 12 13  1  0  0  0
 13 14  1  0  0  0
 14 15  1  0  0  0
 14 19  1  0  0  0
 15 16  1  0  0  0
 16 17  1  0  0  0
 17 18  1  0  0  0
 18 19  1  0  0  0
  7  8  1  0  0  0
  7 11  1  0  0  0
  8  9  1  0  0  0
  8  1  1  0  0  0
  9 10  1  0  0  0
 10 11  1  0  0  0
  1  2  2  0  0  0
  1  3  1  0  0  0
  3 20  1  0  0  0
 20 21  1  0  0  0
 21 26  2  0  0  0
 21 22  1  0  0  0
 26 25  1  0  0  0
 25 24  2  0  0  0
 24 27  1  0  0  0
 24 23  1  0  0  0
 27 28  2  0  0  0
 27 29  1  0  0  0
 23 22  2  0  0  0
  3  4  1  0  0  0
 28 30  1  0  0  0
 29 31  1  0  0  0
 29 32  1  0  0  0
M  END
> <minimizedAffinity>
-7.15520

$$$$
2ZDM_46U_A_501


 32 34  0  0  0  0  0  0  0  0999 V2000
  -26.5375    1.6645   14.7693 C   0  0  0  0  0  0  0  0  0  0  0  0
  -26.6105    0.4429   14.6316 O   0  0  0  0  0  0  0  0  0  0  0  0
  -25.3857    2.2444   14.3427 N   0  0  0  0  0  0  0  0  0  0  0  0
  -25.3061    3.2183   14.4626 H   0  0  0  0  0  0  0  0  0  0  0  0
  -26.1889    2.3571   17.5593 O   0  0  0  0  0  0  0  0  0  0  0  0
  -26.5609    3.4569   17.1831 C   0  0  0  0  0  0  0  0  0  0  0  0
  -27.2627    3.6796   16.1357 N   0  0  0  0  0  0  0  0  0  0  0  0
  -27.6658    2.5040   15.3693 C   0  0  0  0  0  0  0  0  0  0  0  0
  -28.4492    2.9341   14.1251 C   0  0  0  0  0  0  0  0  0  0  0  0
  -28.2776    4.4455   14.1320 C   0  0  0  0  0  0  0  0  0  0  0  0
  -27.9138    4.8941   15.5468 C   0  0  0  0  0  0  0  0  0  0  0  0
  -26.0657    4.5871   18.0991 C   0  0  0  0  0  0  0  0  0  0  0  0
  -25.8004    4.3572   19.4555 O   0  0  0  0  0  0  0  0  0  0  0  0
  -26.6990    4.4510   20.5099 C   0  0  0  0  0  0  0  0  0  0  0  0
  -26.1541    5.1741   21.7305 C   0  0  0  0  0  0  0  0  0  0  0  0
  -27.0328    5.2338   22.9548 C   0  0  0  0  0  0  0  0  0  0  0  0
  -27.2132    3.8102   23.2998 C   0  0  0  0  0  0  0  0  0  0  0  0
  -27.8268    3.0158   22.1884 C   0  0  0  0  0  0  0  0  0  0  0  0
  -26.9630    3.0842   20.9772 C   0  0  0  0  0  0  0  0  0  0  0  0
  -24.2440    1.5542   13.7175 C   0  0  0  0  0  0  0  0  0  0  0  0
  -23.0371    1.5056   14.6403 C   0  0  0  0  0  0  0  0  0  0  0  0
  -22.9760    2.1343   15.8933 C   0  0  0  0  0  0  0  0  0  0  0  0
  -21.8457    2.0627   16.7088 C   0  0  0  0  0  0  0  0  0  0  0  0
  -20.7625    1.3582   16.2748 C   0  0  0  0  0  0  0  0  0  0  0  0
  -20.7969    0.7268   15.0390 C   0  0  0  0  0  0  0  0  0  0  0  0
  -21.9157    0.7893   14.2160 C   0  0  0  0  0  0  0  0  0  0  0  0
  -19.5346    1.2644   17.1284 C   0  0  0  0  0  0  0  0  0  0  0  0
  -18.6941    0.2727   16.9093 N   0  0  0  0  0  0  0  0  0  0  0  0
  -19.2790    2.1420   18.0835 N   0  0  0  0  0  0  0  0  0  0  0  0
  -18.8808   -0.3829   16.1990 H   0  0  0  0  0  0  0  0  0  0  0  0
  -19.9041    2.8840   18.2504 H   0  0  0  0  0  0  0  0  0  0  0  0
  -18.4636    2.0534   18.6280 H   0  0  0  0  0  0  0  0  0  0  0  0
  5  6  2  0  0  0
  6 12  1  0  0  0
  6  7  1  0  0  0
 12 13  1  0  0  0
 13 14  1  0  0  0
 14 15  1  0  0  0
 14 19  1  0  0  0
 15 16  1  0  0  0
 16 17  1  0  0  0
 17 18  1  0  0  0
 18 19  1  0  0  0
  7  8  1  0  0  0
  7 11  1  0  0  0
  8  9  1  0  0  0
  8  1  1  0  0  0
  9 10  1  0  0  0
 10 11  1  0  0  0
  1  2  2  0  0  0
  1  3  1  0  0  0
  3 20  1  0  0  0
 20 21  1  0  0  0
 21 26  2  0  0  0
 21 22  1  0  0  0
 26 25  1  0  0  0
 25 24  2  0  0  0
 24 27  1  0  0  0
 24 23  1  0  0  0
 27 28  2  0  0  0
 27 29  1  0  0  0
 23 22  2  0  0  0
  3  4  1  0  0  0
 28 30  1  0  0  0
 29 31  1  0  0  0
 29 32  1  0  0  0
M  END
> <minimizedAffinity>
-7.06164

$$$$
2ZDM_46U_A_501


 32 34  0  0  0  0  0  0  0  0999 V2000
  -29.0723    0.8061   20.0100 C   0  0  0  0  0  0  0  0  0  0  0  0
  -28.4800    1.4268   20.8936 O   0  0  0  0  0  0  0  0  0  0  0  0
  -28.9704    1.3141   18.7543 N   0  0  0  0  0  0  0  0  0  0  0  0
  -29.4532    0.8381   18.0405 H   0  0  0  0  0  0  0  0  0  0  0  0
  -31.8813    0.9590   19.3236 O   0  0  0  0  0  0  0  0  0  0  0  0
  -31.6764   -0.1460   18.8475 C   0  0  0  0  0  0  0  0  0  0  0  0
  -30.7327   -0.9368   19.1985 N   0  0  0  0  0  0  0  0  0  0  0  0
  -29.8705   -0.4696   20.2802 C   0  0  0  0  0  0  0  0  0  0  0  0
  -28.7649   -1.4955   20.5481 C   0  0  0  0  0  0  0  0  0  0  0  0
  -28.9382   -2.4767   19.3987 C   0  0  0  0  0  0  0  0  0  0  0  0
  -30.3571   -2.3444   18.8471 C   0  0  0  0  0  0  0  0  0  0  0  0
  -32.6724   -0.4958   17.7307 C   0  0  0  0  0  0  0  0  0  0  0  0
  -32.5090    0.0024   16.4315 O   0  0  0  0  0  0  0  0  0  0  0  0
  -31.5916   -0.4266   15.4815 C   0  0  0  0  0  0  0  0  0  0  0  0
  -30.2827    0.3456   15.4861 C   0  0  0  0  0  0  0  0  0  0  0  0
  -29.2701    0.0066   14.4210 C   0  0  0  0  0  0  0  0  0  0  0  0
  -29.9902    0.3196   13.1713 C   0  0  0  0  0  0  0  0  0  0  0  0
  -31.2630   -0.4558   13.0239 C   0  0  0  0  0  0  0  0  0  0  0  0
  -32.1758   -0.1561   14.1617 C   0  0  0  0  0  0  0  0  0  0  0  0
  -28.2059    2.5100   18.3593 C   0  0  0  0  0  0  0  0  0  0  0  0
  -27.4292    2.2860   17.0720 C   0  0  0  0  0  0  0  0  0  0  0  0
  -26.3888    1.3554   16.9300 C   0  0  0  0  0  0  0  0  0  0  0  0
  -25.7023    1.1826   15.7272 C   0  0  0  0  0  0  0  0  0  0  0  0
  -26.0531    1.9435   14.6520 C   0  0  0  0  0  0  0  0  0  0  0  0
  -27.0791    2.8717   14.7658 C   0  0  0  0  0  0  0  0  0  0  0  0
  -27.7718    3.0547   15.9574 C   0  0  0  0  0  0  0  0  0  0  0  0
  -25.3336    1.7806   13.3479 C   0  0  0  0  0  0  0  0  0  0  0  0
  -25.8954    2.2650   12.2581 N   0  0  0  0  0  0  0  0  0  0  0  0
  -24.1638    1.1701   13.2669 N   0  0  0  0  0  0  0  0  0  0  0  0
  -26.7664    2.7203   12.3141 H   0  0  0  0  0  0  0  0  0  0  0  0
  -23.7408    0.8070   14.0784 H   0  0  0  0  0  0  0  0  0  0  0  0
  -23.7156    1.0785   12.3951 H   0  0  0  0  0  0  0  0  0  0  0  0
  5  6  2  0  0  0
  6 12  1  0  0  0
  6  7  1  0  0  0
 12 13  1  0  0  0
 13 14  1  0  0  0
 14 15  1  0  0  0
 14 19  1  0  0  0
 15 16  1  0  0  0
 16 17  1  0  0  0
 17 18  1  0  0  0
 18 19  1  0  0  0
  7  8  1  0  0  0
  7 11  1  0  0  0
  8  9  1  0  0  0
  8  1  1  0  0  0
  9 10  1  0  0  0
 10 11  1  0  0  0
  1  2  2  0  0  0
  1  3  1  0  0  0
  3 20  1  0  0  0
 20 21  1  0  0  0
 21 26  2  0  0  0
 21 22  1  0  0  0
 26 25  1  0  0  0
 25 24  2  0  0  0
 24 27  1  0  0  0
 24 23  1  0  0  0
 27 28  2  0  0  0
 27 29  1  0  0  0
 23 22  2  0  0  0
  3  4  1  0  0  0
 28 30  1  0  0  0
 29 31  1  0  0  0
 29 32  1  0  0  0
M  END
> <minimizedAffinity>
-6.98648

$$$$
2ZDM_46U_A_501


 32 34  0  0  0  0  0  0  0  0999 V2000
  -28.8643    1.2272   17.4002 C   0  0  0  0  0  0  0  0  0  0  0  0
  -29.7163    2.1162   17.4260 O   0  0  0  0  0  0  0  0  0  0  0  0
  -29.2636    0.0341   16.8881 N   0  0  0  0  0  0  0  0  0  0  0  0
  -28.5981   -0.6912   16.8772 H   0  0  0  0  0  0  0  0  0  0  0  0
  -26.8028    0.4133   15.5366 O   0  0  0  0  0  0  0  0  0  0  0  0
  -26.2880    1.4686   15.8693 C   0  0  0  0  0  0  0  0  0  0  0  0
  -26.5118    2.0838   16.9696 N   0  0  0  0  0  0  0  0  0  0  0  0
  -27.4325    1.4310   17.8960 C   0  0  0  0  0  0  0  0  0  0  0  0
  -27.6381    2.3088   19.1345 C   0  0  0  0  0  0  0  0  0  0  0  0
  -26.9336    3.5997   18.7461 C   0  0  0  0  0  0  0  0  0  0  0  0
  -25.9349    3.2996   17.6291 C   0  0  0  0  0  0  0  0  0  0  0  0
  -25.3383    2.0209   14.7948 C   0  0  0  0  0  0  0  0  0  0  0  0
  -24.1630    1.3418   14.4478 O   0  0  0  0  0  0  0  0  0  0  0  0
  -22.8587    1.7513   14.6911 C   0  0  0  0  0  0  0  0  0  0  0  0
  -21.8132    0.6738   14.4564 C   0  0  0  0  0  0  0  0  0  0  0  0
  -20.3811    1.0079   14.7913 C   0  0  0  0  0  0  0  0  0  0  0  0
  -20.4394    1.2917   16.2385 C   0  0  0  0  0  0  0  0  0  0  0  0
  -21.3844    2.4037   16.5752 C   0  0  0  0  0  0  0  0  0  0  0  0
  -22.7604    2.0560   16.1243 C   0  0  0  0  0  0  0  0  0  0  0  0
  -30.5982   -0.2774   16.3474 C   0  0  0  0  0  0  0  0  0  0  0  0
  -30.6644   -0.0632   14.8440 C   0  0  0  0  0  0  0  0  0  0  0  0
  -29.5753    0.3380   14.0554 C   0  0  0  0  0  0  0  0  0  0  0  0
  -29.6815    0.5222   12.6761 C   0  0  0  0  0  0  0  0  0  0  0  0
  -30.8842    0.3055   12.0721 C   0  0  0  0  0  0  0  0  0  0  0  0
  -31.9777   -0.0920   12.8294 C   0  0  0  0  0  0  0  0  0  0  0  0
  -31.8868   -0.2795   14.2040 C   0  0  0  0  0  0  0  0  0  0  0  0
  -31.0286    0.4960   10.5930 C   0  0  0  0  0  0  0  0  0  0  0  0
  -31.9480   -0.2039    9.9585 N   0  0  0  0  0  0  0  0  0  0  0  0
  -30.2646    1.3386    9.9192 N   0  0  0  0  0  0  0  0  0  0  0  0
  -32.5190   -0.8325   10.4565 H   0  0  0  0  0  0  0  0  0  0  0  0
  -29.5767    1.8632   10.3893 H   0  0  0  0  0  0  0  0  0  0  0  0
  -30.3835    1.4416    8.9473 H   0  0  0  0  0  0  0  0  0  0  0  0
  5  6  2  0  0  0
  6 12  1  0  0  0
  6  7  1  0  0  0
 12 13  1  0  0  0
 13 14  1  0  0  0
 14 15  1  0  0  0
 14 19  1  0  0  0
 15 16  1  0  0  0
 16 17  1  0  0  0
 17 18  1  0  0  0
 18 19  1  0  0  0
  7  8  1  0  0  0
  7 11  1  0  0  0
  8  9  1  0  0  0
  8  1  1  0  0  0
  9 10  1  0  0  0
 10 11  1  0  0  0
  1  2  2  0  0  0
  1  3  1  0  0  0
  3 20  1  0  0  0
 20 21  1  0  0  0
 21 26  2  0  0  0
 21 22  1  0  0  0
 26 25  1  0  0  0
 25 24  2  0  0  0
 24 27  1  0  0  0
 24 23  1  0  0  0
 27 28  2  0  0  0
 27 29  1  0  0  0
 23 22  2  0  0  0
  3  4  1  0  0  0
 28 30  1  0  0  0
 29 31  1  0  0  0
 29 32  1  0  0  0
M  END
> <minimizedAffinity>
-6.73060

$$$$
2ZDM_46U_A_501


 32 34  0  0  0  0  0  0  0  0999 V2000
  -29.7591    1.0916   13.5495 C   0  0  0  0  0  0  0  0  0  0  0  0
  -29.8662    0.1928   12.7142 O   0  0  0  0  0  0  0  0  0  0  0  0
  -28.5080    1.3121   14.0302 N   0  0  0  0  0  0  0  0  0  0  0  0
  -28.4101    2.0160   14.7116 H   0  0  0  0  0  0  0  0  0  0  0  0
  -31.6656   -0.3197   15.2104 O   0  0  0  0  0  0  0  0  0  0  0  0
  -31.6167    0.6990   15.8807 C   0  0  0  0  0  0  0  0  0  0  0  0
  -31.2686    1.8518   15.4460 N   0  0  0  0  0  0  0  0  0  0  0  0
  -30.9442    1.9326   14.0247 C   0  0  0  0  0  0  0  0  0  0  0  0
  -30.4981    3.3545   13.6700 C   0  0  0  0  0  0  0  0  0  0  0  0
  -30.3908    4.0179   15.0345 C   0  0  0  0  0  0  0  0  0  0  0  0
  -31.2369    3.2300   16.0338 C   0  0  0  0  0  0  0  0  0  0  0  0
  -31.9959    0.4519   17.3493 C   0  0  0  0  0  0  0  0  0  0  0  0
  -31.6469   -0.7403   17.9973 O   0  0  0  0  0  0  0  0  0  0  0  0
  -30.3765   -1.1326   18.3975 C   0  0  0  0  0  0  0  0  0  0  0  0
  -30.2898   -2.5738   18.8717 C   0  0  0  0  0  0  0  0  0  0  0  0
  -28.9660   -3.0499   19.4152 C   0  0  0  0  0  0  0  0  0  0  0  0
  -28.7495   -2.1646   20.5761 C   0  0  0  0  0  0  0  0  0  0  0  0
  -28.7318   -0.7137   20.2055 C   0  0  0  0  0  0  0  0  0  0  0  0
  -30.0281   -0.3330   19.5789 C   0  0  0  0  0  0  0  0  0  0  0  0
  -27.2835    0.5980   13.6287 C   0  0  0  0  0  0  0  0  0  0  0  0
  -26.0662    1.0839   14.3985 C   0  0  0  0  0  0  0  0  0  0  0  0
  -24.7988    1.2796   13.8290 C   0  0  0  0  0  0  0  0  0  0  0  0
  -23.7078    1.7282   14.5747 C   0  0  0  0  0  0  0  0  0  0  0  0
  -23.8771    1.9857   15.9025 C   0  0  0  0  0  0  0  0  0  0  0  0
  -25.1208    1.8002   16.4907 C   0  0  0  0  0  0  0  0  0  0  0  0
  -26.2166    1.3539   15.7605 C   0  0  0  0  0  0  0  0  0  0  0  0
  -22.7238    2.4677   16.7286 C   0  0  0  0  0  0  0  0  0  0  0  0
  -21.5783    1.8210   16.6423 N   0  0  0  0  0  0  0  0  0  0  0  0
  -22.8280    3.5129   17.5314 N   0  0  0  0  0  0  0  0  0  0  0  0
  -21.4965    1.0421   16.0457 H   0  0  0  0  0  0  0  0  0  0  0  0
  -23.6817    3.9987   17.5987 H   0  0  0  0  0  0  0  0  0  0  0  0
  -22.0520    3.8055   18.0618 H   0  0  0  0  0  0  0  0  0  0  0  0
  5  6  2  0  0  0
  6 12  1  0  0  0
  6  7  1  0  0  0
 12 13  1  0  0  0
 13 14  1  0  0  0
 14 15  1  0  0  0
 14 19  1  0  0  0
 15 16  1  0  0  0
 16 17  1  0  0  0
 17 18  1  0  0  0
 18 19  1  0  0  0
  7  8  1  0  0  0
  7 11  1  0  0  0
  8  9  1  0  0  0
  8  1  1  0  0  0
  9 10  1  0  0  0
 10 11  1  0  0  0
  1  2  2  0  0  0
  1  3  1  0  0  0
  3 20  1  0  0  0
 20 21  1  0  0  0
 21 26  2  0  0  0
 21 22  1  0  0  0
 26 25  1  0  0  0
 25 24  2  0  0  0
 24 27  1  0  0  0
 24 23  1  0  0  0
 27 28  2  0  0  0
 27 29  1  0  0  0
 23 22  2  0  0  0
  3  4  1  0  0  0
 28 30  1  0  0  0
 29 31  1  0  0  0
 29 32  1  0  0  0
M  END
> <minimizedAffinity>
-6.49990

$$$$
