5E7N_5KR_A_201


 33 35  0  0  0  0  0  0  0  0999 V2000
  -15.1119  -10.3803   22.3367 C   0  0  0  0  0  0  0  0  0  0  0  0
  -17.1808  -10.1283   20.5059 C   0  0  0  0  0  0  0  0  0  0  0  0
  -16.7711   -9.0298   21.2433 C   0  0  0  0  0  0  0  0  0  0  0  0
  -18.3136   -9.9868   19.4924 C   0  0  0  0  0  0  0  0  0  0  0  0
  -16.5571  -11.3503   20.6901 C   0  0  0  0  0  0  0  0  0  0  0  0
  -15.5253  -11.4804   21.6070 C   0  0  0  0  0  0  0  0  0  0  0  0
  -15.7415   -9.1590   22.1621 C   0  0  0  0  0  0  0  0  0  0  0  0
  -13.9898  -10.5117   23.3673 C   0  0  0  0  0  0  0  0  0  0  0  0
  -12.7771  -11.1958   22.9349 N   0  0  0  0  0  0  0  0  0  0  0  0
  -14.1179  -10.0559   24.4566 O   0  0  0  0  0  0  0  0  0  0  0  0
  -12.7731  -11.5549   22.0182 H   0  0  0  0  0  0  0  0  0  0  0  0
  -10.2355  -12.8546   25.0938 C   0  0  0  0  0  0  0  0  0  0  0  0
  -11.3857  -12.6191   24.3579 C   0  0  0  0  0  0  0  0  0  0  0  0
  -11.5716  -11.4004   23.7248 C   0  0  0  0  0  0  0  0  0  0  0  0
  -10.5882  -10.4237   23.8018 C   0  0  0  0  0  0  0  0  0  0  0  0
   -9.2622  -11.8726   25.1817 C   0  0  0  0  0  0  0  0  0  0  0  0
   -9.4391  -10.6592   24.5385 C   0  0  0  0  0  0  0  0  0  0  0  0
  -12.4543  -13.7064   24.2604 C   0  0  0  0  0  0  0  0  0  0  0  0
  -12.8288  -14.1303   23.1339 O   0  0  0  0  0  0  0  0  0  0  0  0
  -12.9605  -14.1785   25.3122 O   0  0  0  0  0  0  0  0  0  0  0  0
  -12.4515  -13.7784   22.3518 H   0  0  0  0  0  0  0  0  0  0  0  0
  -17.0801  -12.7995   19.7338 S   0  0  0  0  0  0  0  0  0  0  0  0
  -16.6351  -14.0391   20.3719 O   0  0  0  0  0  0  0  0  0  0  0  0
  -16.3638  -12.8631   18.4568 O   0  0  0  0  0  0  0  0  0  0  0  0
  -18.7772  -12.8051   19.5086 N   0  0  0  0  0  0  0  0  0  0  0  0
  -19.3406  -12.1159   19.9291 H   0  0  0  0  0  0  0  0  0  0  0  0
  -20.4982  -15.8330   17.1542 C   0  0  0  0  0  0  0  0  0  0  0  0
  -19.3817  -13.7201   17.3100 C   0  0  0  0  0  0  0  0  0  0  0  0
  -20.4800  -15.9495   18.5301 C   0  0  0  0  0  0  0  0  0  0  0  0
  -19.3694  -13.8413   18.6889 C   0  0  0  0  0  0  0  0  0  0  0  0
  -21.2944  -17.2516   16.1027 Br  0  0  0  0  0  0  0  0  0  0  0  0
  -19.9169  -14.9531   19.3037 C   0  0  0  0  0  0  0  0  0  0  0  0
  -19.9475  -14.7200   16.5369 C   0  0  0  0  0  0  0  0  0  0  0  0
 20 18  2  0  0  0
 18 19  1  0  0  0
 18 13  1  0  0  0
 31 27  1  0  0  0
 12 13  2  0  0  0
 12 16  1  0  0  0
 13 14  1  0  0  0
 16 17  2  0  0  0
 27 33  2  0  0  0
 27 29  1  0  0  0
 14  9  1  0  0  0
 14 15  2  0  0  0
 17 15  1  0  0  0
 33 28  1  0  0  0
  9  8  1  0  0  0
 29 32  2  0  0  0
  7  3  2  0  0  0
  7  1  1  0  0  0
  8  1  1  0  0  0
  8 10  2  0  0  0
  3  2  1  0  0  0
 28 30  2  0  0  0
  1  6  2  0  0  0
 32 30  1  0  0  0
  2  4  1  0  0  0
  2  5  2  0  0  0
 30 25  1  0  0  0
  6  5  1  0  0  0
  5 22  1  0  0  0
 25 22  1  0  0  0
 22 24  2  0  0  0
 22 23  2  0  0  0
  9 11  1  0  0  0
 25 26  1  0  0  0
 19 21  1  0  0  0
M  END
> <minimizedAffinity>
-6.73649

$$$$
5E7N_5KR_A_201


 33 35  0  0  0  0  0  0  0  0999 V2000
  -12.9948  -11.0222   24.9797 C   0  0  0  0  0  0  0  0  0  0  0  0
  -11.6597  -12.2007   27.1068 C   0  0  0  0  0  0  0  0  0  0  0  0
  -12.5460  -11.1614   27.3360 C   0  0  0  0  0  0  0  0  0  0  0  0
  -10.9319  -12.8545   28.2787 C   0  0  0  0  0  0  0  0  0  0  0  0
  -11.4408  -12.6441   25.8138 C   0  0  0  0  0  0  0  0  0  0  0  0
  -12.1037  -12.0546   24.7482 C   0  0  0  0  0  0  0  0  0  0  0  0
  -13.2075  -10.5695   26.2714 C   0  0  0  0  0  0  0  0  0  0  0  0
  -13.7179  -10.3471   23.8137 C   0  0  0  0  0  0  0  0  0  0  0  0
  -15.0630  -10.8214   23.5113 N   0  0  0  0  0  0  0  0  0  0  0  0
  -13.1937   -9.4697   23.2085 O   0  0  0  0  0  0  0  0  0  0  0  0
  -15.4043  -11.5656   24.0580 H   0  0  0  0  0  0  0  0  0  0  0  0
  -17.0024  -10.5933   20.3398 C   0  0  0  0  0  0  0  0  0  0  0  0
  -16.1415  -11.0460   21.3266 C   0  0  0  0  0  0  0  0  0  0  0  0
  -15.9512  -10.3032   22.4810 C   0  0  0  0  0  0  0  0  0  0  0  0
  -16.6492   -9.1173   22.6634 C   0  0  0  0  0  0  0  0  0  0  0  0
  -17.6865   -9.4017   20.5176 C   0  0  0  0  0  0  0  0  0  0  0  0
  -17.5088   -8.6646   21.6761 C   0  0  0  0  0  0  0  0  0  0  0  0
  -15.3925  -12.3625   21.1280 C   0  0  0  0  0  0  0  0  0  0  0  0
  -16.0279  -13.4467   21.0293 O   0  0  0  0  0  0  0  0  0  0  0  0
  -14.1350  -12.3602   21.0629 O   0  0  0  0  0  0  0  0  0  0  0  0
  -16.9637  -13.4474   21.0779 H   0  0  0  0  0  0  0  0  0  0  0  0
  -10.2840  -14.0035   25.4947 S   0  0  0  0  0  0  0  0  0  0  0  0
  -10.3843  -14.4650   24.1094 O   0  0  0  0  0  0  0  0  0  0  0  0
  -10.6860  -15.2080   26.2263 O   0  0  0  0  0  0  0  0  0  0  0  0
   -8.6783  -13.5422   25.8685 N   0  0  0  0  0  0  0  0  0  0  0  0
   -8.2748  -13.7877   26.7323 H   0  0  0  0  0  0  0  0  0  0  0  0
   -6.5084  -11.3177   23.0372 C   0  0  0  0  0  0  0  0  0  0  0  0
   -6.9731  -13.4105   24.1047 C   0  0  0  0  0  0  0  0  0  0  0  0
   -7.4607  -10.6997   23.8235 C   0  0  0  0  0  0  0  0  0  0  0  0
   -7.9241  -12.7846   24.8920 C   0  0  0  0  0  0  0  0  0  0  0  0
   -5.5334  -10.2608   21.7394 Br  0  0  0  0  0  0  0  0  0  0  0  0
   -8.1717  -11.4303   24.7557 C   0  0  0  0  0  0  0  0  0  0  0  0
   -6.2613  -12.6756   23.1714 C   0  0  0  0  0  0  0  0  0  0  0  0
 20 18  2  0  0  0
 18 19  1  0  0  0
 18 13  1  0  0  0
 31 27  1  0  0  0
 12 13  2  0  0  0
 12 16  1  0  0  0
 13 14  1  0  0  0
 16 17  2  0  0  0
 27 33  2  0  0  0
 27 29  1  0  0  0
 14  9  1  0  0  0
 14 15  2  0  0  0
 17 15  1  0  0  0
 33 28  1  0  0  0
  9  8  1  0  0  0
 29 32  2  0  0  0
  7  3  2  0  0  0
  7  1  1  0  0  0
  8  1  1  0  0  0
  8 10  2  0  0  0
  3  2  1  0  0  0
 28 30  2  0  0  0
  1  6  2  0  0  0
 32 30  1  0  0  0
  2  4  1  0  0  0
  2  5  2  0  0  0
 30 25  1  0  0  0
  6  5  1  0  0  0
  5 22  1  0  0  0
 25 22  1  0  0  0
 22 24  2  0  0  0
 22 23  2  0  0  0
  9 11  1  0  0  0
 25 26  1  0  0  0
 19 21  1  0  0  0
M  END
> <minimizedAffinity>
-6.54759

$$$$
5E7N_5KR_A_201


 33 35  0  0  0  0  0  0  0  0999 V2000
   -8.2202  -13.3291   24.7272 C   0  0  0  0  0  0  0  0  0  0  0  0
  -10.3056  -15.1469   24.9316 C   0  0  0  0  0  0  0  0  0  0  0  0
   -9.0153  -15.5346   25.2525 C   0  0  0  0  0  0  0  0  0  0  0  0
  -11.4541  -16.1454   25.0526 C   0  0  0  0  0  0  0  0  0  0  0  0
  -10.5478  -13.8525   24.5052 C   0  0  0  0  0  0  0  0  0  0  0  0
   -9.5070  -12.9426   24.3985 C   0  0  0  0  0  0  0  0  0  0  0  0
   -7.9736  -14.6268   25.1438 C   0  0  0  0  0  0  0  0  0  0  0  0
   -7.0579  -12.3442   24.5946 C   0  0  0  0  0  0  0  0  0  0  0  0
   -7.1865  -11.3092   23.5758 N   0  0  0  0  0  0  0  0  0  0  0  0
   -6.1135  -12.4293   25.3098 O   0  0  0  0  0  0  0  0  0  0  0  0
   -7.9990  -11.3321   23.0203 H   0  0  0  0  0  0  0  0  0  0  0  0
   -4.8708   -9.0715   21.7044 C   0  0  0  0  0  0  0  0  0  0  0  0
   -5.7583  -10.0921   22.0057 C   0  0  0  0  0  0  0  0  0  0  0  0
   -6.2322  -10.2454   23.2989 C   0  0  0  0  0  0  0  0  0  0  0  0
   -5.8413   -9.3546   24.2891 C   0  0  0  0  0  0  0  0  0  0  0  0
   -4.4703   -8.1928   22.6978 C   0  0  0  0  0  0  0  0  0  0  0  0
   -4.9532   -8.3352   23.9877 C   0  0  0  0  0  0  0  0  0  0  0  0
   -6.2003  -11.0561   20.9061 C   0  0  0  0  0  0  0  0  0  0  0  0
   -6.6995  -10.6142   19.8363 O   0  0  0  0  0  0  0  0  0  0  0  0
   -6.0635  -12.2966   21.0732 O   0  0  0  0  0  0  0  0  0  0  0  0
   -6.8009   -9.6909   19.7129 H   0  0  0  0  0  0  0  0  0  0  0  0
  -12.2306  -13.3271   24.0806 S   0  0  0  0  0  0  0  0  0  0  0  0
  -13.0855  -13.2911   25.2679 O   0  0  0  0  0  0  0  0  0  0  0  0
  -12.9043  -14.3493   23.2750 O   0  0  0  0  0  0  0  0  0  0  0  0
  -12.2175  -11.8073   23.2927 N   0  0  0  0  0  0  0  0  0  0  0  0
  -11.3895  -11.2773   23.2403 H   0  0  0  0  0  0  0  0  0  0  0  0
  -15.7807  -10.3993   21.5622 C   0  0  0  0  0  0  0  0  0  0  0  0
  -14.0157  -10.1384   23.1598 C   0  0  0  0  0  0  0  0  0  0  0  0
  -15.2054  -11.5708   21.1108 C   0  0  0  0  0  0  0  0  0  0  0  0
  -13.4457  -11.3149   22.7049 C   0  0  0  0  0  0  0  0  0  0  0  0
  -17.4192   -9.7792   20.7358 Br  0  0  0  0  0  0  0  0  0  0  0  0
  -14.0360  -12.0347   21.6814 C   0  0  0  0  0  0  0  0  0  0  0  0
  -15.1884   -9.6760   22.5864 C   0  0  0  0  0  0  0  0  0  0  0  0
 20 18  2  0  0  0
 18 19  1  0  0  0
 18 13  1  0  0  0
 31 27  1  0  0  0
 12 13  2  0  0  0
 12 16  1  0  0  0
 13 14  1  0  0  0
 16 17  2  0  0  0
 27 33  2  0  0  0
 27 29  1  0  0  0
 14  9  1  0  0  0
 14 15  2  0  0  0
 17 15  1  0  0  0
 33 28  1  0  0  0
  9  8  1  0  0  0
 29 32  2  0  0  0
  7  3  2  0  0  0
  7  1  1  0  0  0
  8  1  1  0  0  0
  8 10  2  0  0  0
  3  2  1  0  0  0
 28 30  2  0  0  0
  1  6  2  0  0  0
 32 30  1  0  0  0
  2  4  1  0  0  0
  2  5  2  0  0  0
 30 25  1  0  0  0
  6  5  1  0  0  0
  5 22  1  0  0  0
 25 22  1  0  0  0
 22 24  2  0  0  0
 22 23  2  0  0  0
  9 11  1  0  0  0
 25 26  1  0  0  0
 19 21  1  0  0  0
M  END
> <minimizedAffinity>
-6.50464

$$$$
5E7N_5KR_A_201


 33 35  0  0  0  0  0  0  0  0999 V2000
  -15.4273  -10.2155   22.2363 C   0  0  0  0  0  0  0  0  0  0  0  0
  -17.5360   -9.8521   20.4709 C   0  0  0  0  0  0  0  0  0  0  0  0
  -17.1270   -8.8089   21.2849 C   0  0  0  0  0  0  0  0  0  0  0  0
  -18.6910   -9.6487   19.4934 C   0  0  0  0  0  0  0  0  0  0  0  0
  -16.8918  -11.0750   20.5458 C   0  0  0  0  0  0  0  0  0  0  0  0
  -15.8399  -11.2609   21.4298 C   0  0  0  0  0  0  0  0  0  0  0  0
  -16.0773   -8.9941   22.1709 C   0  0  0  0  0  0  0  0  0  0  0  0
  -14.2830  -10.4102   23.2317 C   0  0  0  0  0  0  0  0  0  0  0  0
  -13.1202  -11.1522   22.7594 N   0  0  0  0  0  0  0  0  0  0  0  0
  -14.3549   -9.9554   24.3266 O   0  0  0  0  0  0  0  0  0  0  0  0
  -13.1621  -11.5052   21.8413 H   0  0  0  0  0  0  0  0  0  0  0  0
  -10.5477  -12.9883   24.7301 C   0  0  0  0  0  0  0  0  0  0  0  0
  -11.7083  -12.6915   24.0338 C   0  0  0  0  0  0  0  0  0  0  0  0
  -11.9035  -11.4228   23.5114 C   0  0  0  0  0  0  0  0  0  0  0  0
  -10.9193  -10.4551   23.6588 C   0  0  0  0  0  0  0  0  0  0  0  0
   -9.5734  -12.0162   24.8890 C   0  0  0  0  0  0  0  0  0  0  0  0
   -9.7597  -10.7519   24.3560 C   0  0  0  0  0  0  0  0  0  0  0  0
  -12.7780  -13.7678   23.8576 C   0  0  0  0  0  0  0  0  0  0  0  0
  -12.5496  -14.7797   23.1415 O   0  0  0  0  0  0  0  0  0  0  0  0
  -13.8912  -13.6397   24.4319 O   0  0  0  0  0  0  0  0  0  0  0  0
  -11.7209  -14.8741   22.7145 H   0  0  0  0  0  0  0  0  0  0  0  0
  -17.4136  -12.4521   19.4880 S   0  0  0  0  0  0  0  0  0  0  0  0
  -16.2773  -13.3048   19.1361 O   0  0  0  0  0  0  0  0  0  0  0  0
  -17.8237  -11.9646   18.1681 O   0  0  0  0  0  0  0  0  0  0  0  0
  -18.6519  -13.3659   20.2380 N   0  0  0  0  0  0  0  0  0  0  0  0
  -19.5793  -13.0359   20.2521 H   0  0  0  0  0  0  0  0  0  0  0  0
  -17.6443  -17.0279   22.0402 C   0  0  0  0  0  0  0  0  0  0  0  0
  -18.6284  -15.8226   20.2197 C   0  0  0  0  0  0  0  0  0  0  0  0
  -17.3278  -15.8371   22.6638 C   0  0  0  0  0  0  0  0  0  0  0  0
  -18.3112  -14.6324   20.8513 C   0  0  0  0  0  0  0  0  0  0  0  0
  -17.1583  -18.6949   22.8986 Br  0  0  0  0  0  0  0  0  0  0  0  0
  -17.6615  -14.6339   22.0728 C   0  0  0  0  0  0  0  0  0  0  0  0
  -18.2935  -17.0273   20.8147 C   0  0  0  0  0  0  0  0  0  0  0  0
 20 18  2  0  0  0
 18 19  1  0  0  0
 18 13  1  0  0  0
 31 27  1  0  0  0
 12 13  2  0  0  0
 12 16  1  0  0  0
 13 14  1  0  0  0
 16 17  2  0  0  0
 27 33  2  0  0  0
 27 29  1  0  0  0
 14  9  1  0  0  0
 14 15  2  0  0  0
 17 15  1  0  0  0
 33 28  1  0  0  0
  9  8  1  0  0  0
 29 32  2  0  0  0
  7  3  2  0  0  0
  7  1  1  0  0  0
  8  1  1  0  0  0
  8 10  2  0  0  0
  3  2  1  0  0  0
 28 30  2  0  0  0
  1  6  2  0  0  0
 32 30  1  0  0  0
  2  4  1  0  0  0
  2  5  2  0  0  0
 30 25  1  0  0  0
  6  5  1  0  0  0
  5 22  1  0  0  0
 25 22  1  0  0  0
 22 24  2  0  0  0
 22 23  2  0  0  0
  9 11  1  0  0  0
 25 26  1  0  0  0
 19 21  1  0  0  0
M  END
> <minimizedAffinity>
-6.43494

$$$$
5E7N_5KR_A_201


 33 35  0  0  0  0  0  0  0  0999 V2000
  -12.3311  -11.1446   24.1664 C   0  0  0  0  0  0  0  0  0  0  0  0
   -9.6260  -11.5770   24.6035 C   0  0  0  0  0  0  0  0  0  0  0  0
  -10.0552  -10.3840   24.0461 C   0  0  0  0  0  0  0  0  0  0  0  0
   -8.1380  -11.8109   24.8517 C   0  0  0  0  0  0  0  0  0  0  0  0
  -10.5510  -12.5516   24.9363 C   0  0  0  0  0  0  0  0  0  0  0  0
  -11.9034  -12.3399   24.7156 C   0  0  0  0  0  0  0  0  0  0  0  0
  -11.4066  -10.1721   23.8226 C   0  0  0  0  0  0  0  0  0  0  0  0
  -13.8169  -10.9038   23.8968 C   0  0  0  0  0  0  0  0  0  0  0  0
  -14.1605  -10.2670   22.6310 N   0  0  0  0  0  0  0  0  0  0  0  0
  -14.6341  -11.2426   24.6893 O   0  0  0  0  0  0  0  0  0  0  0  0
  -13.4113  -10.0064   22.0478 H   0  0  0  0  0  0  0  0  0  0  0  0
  -17.3999  -10.6520   20.8338 C   0  0  0  0  0  0  0  0  0  0  0  0
  -16.1130  -10.8842   21.2917 C   0  0  0  0  0  0  0  0  0  0  0  0
  -15.5017   -9.9786   22.1444 C   0  0  0  0  0  0  0  0  0  0  0  0
  -16.1926   -8.8509   22.5662 C   0  0  0  0  0  0  0  0  0  0  0  0
  -18.0818   -9.5180   21.2443 C   0  0  0  0  0  0  0  0  0  0  0  0
  -17.4787   -8.6187   22.1072 C   0  0  0  0  0  0  0  0  0  0  0  0
  -15.3665  -12.1381   20.8396 C   0  0  0  0  0  0  0  0  0  0  0  0
  -14.1922  -12.0511   20.3897 O   0  0  0  0  0  0  0  0  0  0  0  0
  -15.9302  -13.2612   20.9185 O   0  0  0  0  0  0  0  0  0  0  0  0
  -13.7735  -11.2148   20.3314 H   0  0  0  0  0  0  0  0  0  0  0  0
  -10.0076  -14.1197   25.6668 S   0  0  0  0  0  0  0  0  0  0  0  0
   -8.9202  -14.7138   24.8879 O   0  0  0  0  0  0  0  0  0  0  0  0
  -11.0481  -15.1426   25.5301 O   0  0  0  0  0  0  0  0  0  0  0  0
   -9.5410  -13.9057   27.3000 N   0  0  0  0  0  0  0  0  0  0  0  0
   -8.9735  -14.5724   27.7503 H   0  0  0  0  0  0  0  0  0  0  0  0
  -10.8305  -10.4745   29.3584 C   0  0  0  0  0  0  0  0  0  0  0  0
  -11.3221  -12.6062   28.3841 C   0  0  0  0  0  0  0  0  0  0  0  0
   -9.5079  -10.6023   28.9826 C   0  0  0  0  0  0  0  0  0  0  0  0
   -9.9957  -12.7270   28.0074 C   0  0  0  0  0  0  0  0  0  0  0  0
  -11.3857   -8.8818   30.3109 Br  0  0  0  0  0  0  0  0  0  0  0  0
   -9.0849  -11.7287   28.3037 C   0  0  0  0  0  0  0  0  0  0  0  0
  -11.7436  -11.4758   29.0638 C   0  0  0  0  0  0  0  0  0  0  0  0
 20 18  2  0  0  0
 18 19  1  0  0  0
 18 13  1  0  0  0
 31 27  1  0  0  0
 12 13  2  0  0  0
 12 16  1  0  0  0
 13 14  1  0  0  0
 16 17  2  0  0  0
 27 33  2  0  0  0
 27 29  1  0  0  0
 14  9  1  0  0  0
 14 15  2  0  0  0
 17 15  1  0  0  0
 33 28  1  0  0  0
  9  8  1  0  0  0
 29 32  2  0  0  0
  7  3  2  0  0  0
  7  1  1  0  0  0
  8  1  1  0  0  0
  8 10  2  0  0  0
  3  2  1  0  0  0
 28 30  2  0  0  0
  1  6  2  0  0  0
 32 30  1  0  0  0
  2  4  1  0  0  0
  2  5  2  0  0  0
 30 25  1  0  0  0
  6  5  1  0  0  0
  5 22  1  0  0  0
 25 22  1  0  0  0
 22 24  2  0  0  0
 22 23  2  0  0  0
  9 11  1  0  0  0
 25 26  1  0  0  0
 19 21  1  0  0  0
M  END
> <minimizedAffinity>
-6.36715

$$$$
5E7N_5KR_A_201


 33 35  0  0  0  0  0  0  0  0999 V2000
  -12.5145  -10.5981   24.3429 C   0  0  0  0  0  0  0  0  0  0  0  0
   -9.8408  -11.0840   24.9006 C   0  0  0  0  0  0  0  0  0  0  0  0
  -10.2081  -10.5645   23.6704 C   0  0  0  0  0  0  0  0  0  0  0  0
   -8.3685  -11.3430   25.2099 C   0  0  0  0  0  0  0  0  0  0  0  0
  -10.8126  -11.3629   25.8462 C   0  0  0  0  0  0  0  0  0  0  0  0
  -12.1501  -11.1246   25.5691 C   0  0  0  0  0  0  0  0  0  0  0  0
  -11.5451  -10.3282   23.3911 C   0  0  0  0  0  0  0  0  0  0  0  0
  -13.9869  -10.3494   24.0136 C   0  0  0  0  0  0  0  0  0  0  0  0
  -14.3179  -10.1248   22.6115 N   0  0  0  0  0  0  0  0  0  0  0  0
  -14.8053  -10.3595   24.8743 O   0  0  0  0  0  0  0  0  0  0  0  0
  -13.5675  -10.1173   21.9742 H   0  0  0  0  0  0  0  0  0  0  0  0
  -17.4785  -10.7274   20.7355 C   0  0  0  0  0  0  0  0  0  0  0  0
  -16.2029  -10.8893   21.2517 C   0  0  0  0  0  0  0  0  0  0  0  0
  -15.6483   -9.9104   22.0610 C   0  0  0  0  0  0  0  0  0  0  0  0
  -16.3851   -8.7784   22.3813 C   0  0  0  0  0  0  0  0  0  0  0  0
  -18.2061   -9.5896   21.0443 C   0  0  0  0  0  0  0  0  0  0  0  0
  -17.6598   -8.6165   21.8639 C   0  0  0  0  0  0  0  0  0  0  0  0
  -15.4059  -12.1475   20.9118 C   0  0  0  0  0  0  0  0  0  0  0  0
  -15.9525  -13.2817   20.9720 O   0  0  0  0  0  0  0  0  0  0  0  0
  -14.1981  -12.0466   20.5704 O   0  0  0  0  0  0  0  0  0  0  0  0
  -16.8513  -13.3557   21.2262 H   0  0  0  0  0  0  0  0  0  0  0  0
  -10.3504  -12.0435   27.4621 S   0  0  0  0  0  0  0  0  0  0  0  0
  -11.5067  -12.1045   28.3571 O   0  0  0  0  0  0  0  0  0  0  0  0
   -9.4787  -11.1135   28.1854 O   0  0  0  0  0  0  0  0  0  0  0  0
   -9.6284  -13.5865   27.2933 N   0  0  0  0  0  0  0  0  0  0  0  0
   -8.7512  -13.7761   27.6981 H   0  0  0  0  0  0  0  0  0  0  0  0
  -11.6798  -16.5626   25.1467 C   0  0  0  0  0  0  0  0  0  0  0  0
  -10.0048  -14.8526   25.2216 C   0  0  0  0  0  0  0  0  0  0  0  0
  -11.9979  -16.3157   26.4676 C   0  0  0  0  0  0  0  0  0  0  0  0
  -10.3304  -14.6078   26.5446 C   0  0  0  0  0  0  0  0  0  0  0  0
  -12.6428  -17.9460   24.1924 Br  0  0  0  0  0  0  0  0  0  0  0  0
  -11.3255  -15.3358   27.1720 C   0  0  0  0  0  0  0  0  0  0  0  0
  -10.6809  -15.8349   24.5176 C   0  0  0  0  0  0  0  0  0  0  0  0
 20 18  2  0  0  0
 18 19  1  0  0  0
 18 13  1  0  0  0
 31 27  1  0  0  0
 12 13  2  0  0  0
 12 16  1  0  0  0
 13 14  1  0  0  0
 16 17  2  0  0  0
 27 33  2  0  0  0
 27 29  1  0  0  0
 14  9  1  0  0  0
 14 15  2  0  0  0
 17 15  1  0  0  0
 33 28  1  0  0  0
  9  8  1  0  0  0
 29 32  2  0  0  0
  7  3  2  0  0  0
  7  1  1  0  0  0
  8  1  1  0  0  0
  8 10  2  0  0  0
  3  2  1  0  0  0
 28 30  2  0  0  0
  1  6  2  0  0  0
 32 30  1  0  0  0
  2  4  1  0  0  0
  2  5  2  0  0  0
 30 25  1  0  0  0
  6  5  1  0  0  0
  5 22  1  0  0  0
 25 22  1  0  0  0
 22 24  2  0  0  0
 22 23  2  0  0  0
  9 11  1  0  0  0
 25 26  1  0  0  0
 19 21  1  0  0  0
M  END
> <minimizedAffinity>
-6.27856

$$$$
5E7N_5KR_A_201


 33 35  0  0  0  0  0  0  0  0999 V2000
  -12.3042  -14.0027   23.9396 C   0  0  0  0  0  0  0  0  0  0  0  0
   -9.9644  -15.3220   24.6326 C   0  0  0  0  0  0  0  0  0  0  0  0
  -10.7875  -15.8431   23.6482 C   0  0  0  0  0  0  0  0  0  0  0  0
   -8.6725  -16.0440   25.0073 C   0  0  0  0  0  0  0  0  0  0  0  0
  -10.3167  -14.1449   25.2703 C   0  0  0  0  0  0  0  0  0  0  0  0
  -11.4874  -13.4852   24.9288 C   0  0  0  0  0  0  0  0  0  0  0  0
  -11.9593  -15.1860   23.3076 C   0  0  0  0  0  0  0  0  0  0  0  0
  -13.6093  -13.2989   23.5660 C   0  0  0  0  0  0  0  0  0  0  0  0
  -13.5723  -12.4192   22.4039 N   0  0  0  0  0  0  0  0  0  0  0  0
  -14.5967  -13.4884   24.1985 O   0  0  0  0  0  0  0  0  0  0  0  0
  -12.7023  -12.3128   21.9556 H   0  0  0  0  0  0  0  0  0  0  0  0
  -16.0881   -9.7253   21.8693 C   0  0  0  0  0  0  0  0  0  0  0  0
  -15.0425  -10.4634   22.4002 C   0  0  0  0  0  0  0  0  0  0  0  0
  -14.6948  -11.6828   21.8410 C   0  0  0  0  0  0  0  0  0  0  0  0
  -15.3756  -12.1517   20.7259 C   0  0  0  0  0  0  0  0  0  0  0  0
  -16.7760  -10.2026   20.7655 C   0  0  0  0  0  0  0  0  0  0  0  0
  -16.4216  -11.4141   20.1963 C   0  0  0  0  0  0  0  0  0  0  0  0
  -14.2842   -9.9311   23.6148 C   0  0  0  0  0  0  0  0  0  0  0  0
  -13.1145   -9.4792   23.4860 O   0  0  0  0  0  0  0  0  0  0  0  0
  -14.8336   -9.9455   24.7477 O   0  0  0  0  0  0  0  0  0  0  0  0
  -12.7065   -9.4689   22.6425 H   0  0  0  0  0  0  0  0  0  0  0  0
   -9.2515  -13.4479   26.5615 S   0  0  0  0  0  0  0  0  0  0  0  0
   -9.4060  -14.1770   27.8210 O   0  0  0  0  0  0  0  0  0  0  0  0
   -9.7126  -12.1113   26.9474 O   0  0  0  0  0  0  0  0  0  0  0  0
   -7.6138  -13.4330   26.0630 N   0  0  0  0  0  0  0  0  0  0  0  0
   -6.9333  -13.9391   26.5631 H   0  0  0  0  0  0  0  0  0  0  0  0
   -6.5282  -11.2207   22.6571 C   0  0  0  0  0  0  0  0  0  0  0  0
   -7.6541  -11.3461   24.7671 C   0  0  0  0  0  0  0  0  0  0  0  0
   -6.1226  -12.5340   22.7900 C   0  0  0  0  0  0  0  0  0  0  0  0
   -7.2470  -12.6631   24.8929 C   0  0  0  0  0  0  0  0  0  0  0  0
   -6.0031  -10.2317   21.0765 Br  0  0  0  0  0  0  0  0  0  0  0  0
   -6.4818  -13.2617   23.9080 C   0  0  0  0  0  0  0  0  0  0  0  0
   -7.2933  -10.6192   23.6450 C   0  0  0  0  0  0  0  0  0  0  0  0
 20 18  2  0  0  0
 18 19  1  0  0  0
 18 13  1  0  0  0
 31 27  1  0  0  0
 12 13  2  0  0  0
 12 16  1  0  0  0
 13 14  1  0  0  0
 16 17  2  0  0  0
 27 33  2  0  0  0
 27 29  1  0  0  0
 14  9  1  0  0  0
 14 15  2  0  0  0
 17 15  1  0  0  0
 33 28  1  0  0  0
  9  8  1  0  0  0
 29 32  2  0  0  0
  7  3  2  0  0  0
  7  1  1  0  0  0
  8  1  1  0  0  0
  8 10  2  0  0  0
  3  2  1  0  0  0
 28 30  2  0  0  0
  1  6  2  0  0  0
 32 30  1  0  0  0
  2  4  1  0  0  0
  2  5  2  0  0  0
 30 25  1  0  0  0
  6  5  1  0  0  0
  5 22  1  0  0  0
 25 22  1  0  0  0
 22 24  2  0  0  0
 22 23  2  0  0  0
  9 11  1  0  0  0
 25 26  1  0  0  0
 19 21  1  0  0  0
M  END
> <minimizedAffinity>
-6.16912

$$$$
5E7N_5KR_A_201


 33 35  0  0  0  0  0  0  0  0999 V2000
   -8.6770  -12.1120   25.5518 C   0  0  0  0  0  0  0  0  0  0  0  0
   -9.7510  -14.1172   27.1396 C   0  0  0  0  0  0  0  0  0  0  0  0
  -10.4929  -12.9807   26.8634 C   0  0  0  0  0  0  0  0  0  0  0  0
  -10.3460  -15.2241   28.0063 C   0  0  0  0  0  0  0  0  0  0  0  0
   -8.4726  -14.2449   26.6243 C   0  0  0  0  0  0  0  0  0  0  0  0
   -7.9316  -13.2427   25.8334 C   0  0  0  0  0  0  0  0  0  0  0  0
   -9.9524  -11.9770   26.0751 C   0  0  0  0  0  0  0  0  0  0  0  0
   -8.0872  -10.9881   24.6990 C   0  0  0  0  0  0  0  0  0  0  0  0
   -6.6403  -10.8154   24.7487 N   0  0  0  0  0  0  0  0  0  0  0  0
   -8.7931  -10.3118   24.0244 O   0  0  0  0  0  0  0  0  0  0  0  0
   -6.1426  -11.4137   25.3517 H   0  0  0  0  0  0  0  0  0  0  0  0
   -4.7626   -9.2406   21.9441 C   0  0  0  0  0  0  0  0  0  0  0  0
   -5.4824  -10.1541   22.6972 C   0  0  0  0  0  0  0  0  0  0  0  0
   -5.8590   -9.8458   23.9949 C   0  0  0  0  0  0  0  0  0  0  0  0
   -5.5414   -8.6054   24.5311 C   0  0  0  0  0  0  0  0  0  0  0  0
   -4.4336   -8.0091   22.4869 C   0  0  0  0  0  0  0  0  0  0  0  0
   -4.8207   -7.6931   23.7782 C   0  0  0  0  0  0  0  0  0  0  0  0
   -5.8464  -11.5092   22.0931 C   0  0  0  0  0  0  0  0  0  0  0  0
   -5.6920  -12.5658   22.7629 O   0  0  0  0  0  0  0  0  0  0  0  0
   -6.3024  -11.5664   20.9208 O   0  0  0  0  0  0  0  0  0  0  0  0
   -5.3526  -12.5222   23.6352 H   0  0  0  0  0  0  0  0  0  0  0  0
   -7.4866  -15.7256   26.9753 S   0  0  0  0  0  0  0  0  0  0  0  0
   -7.7933  -16.2589   28.3033 O   0  0  0  0  0  0  0  0  0  0  0  0
   -6.0704  -15.3805   27.1268 O   0  0  0  0  0  0  0  0  0  0  0  0
   -7.7222  -16.9185   25.7703 N   0  0  0  0  0  0  0  0  0  0  0  0
   -6.9516  -17.3506   25.3358 H   0  0  0  0  0  0  0  0  0  0  0  0
  -11.6509  -17.9439   24.6808 C   0  0  0  0  0  0  0  0  0  0  0  0
   -9.7307  -18.3021   26.0664 C   0  0  0  0  0  0  0  0  0  0  0  0
  -10.9920  -16.9239   24.0231 C   0  0  0  0  0  0  0  0  0  0  0  0
   -9.0745  -17.2808   25.4013 C   0  0  0  0  0  0  0  0  0  0  0  0
  -13.4626  -18.3833   24.1547 Br  0  0  0  0  0  0  0  0  0  0  0  0
   -9.7000  -16.5890   24.3794 C   0  0  0  0  0  0  0  0  0  0  0  0
  -11.0255  -18.6363   25.7067 C   0  0  0  0  0  0  0  0  0  0  0  0
 20 18  2  0  0  0
 18 19  1  0  0  0
 18 13  1  0  0  0
 31 27  1  0  0  0
 12 13  2  0  0  0
 12 16  1  0  0  0
 13 14  1  0  0  0
 16 17  2  0  0  0
 27 33  2  0  0  0
 27 29  1  0  0  0
 14  9  1  0  0  0
 14 15  2  0  0  0
 17 15  1  0  0  0
 33 28  1  0  0  0
  9  8  1  0  0  0
 29 32  2  0  0  0
  7  3  2  0  0  0
  7  1  1  0  0  0
  8  1  1  0  0  0
  8 10  2  0  0  0
  3  2  1  0  0  0
 28 30  2  0  0  0
  1  6  2  0  0  0
 32 30  1  0  0  0
  2  4  1  0  0  0
  2  5  2  0  0  0
 30 25  1  0  0  0
  6  5  1  0  0  0
  5 22  1  0  0  0
 25 22  1  0  0  0
 22 24  2  0  0  0
 22 23  2  0  0  0
  9 11  1  0  0  0
 25 26  1  0  0  0
 19 21  1  0  0  0
M  END
> <minimizedAffinity>
-6.03239

$$$$
5E7N_5KR_A_201


 33 35  0  0  0  0  0  0  0  0999 V2000
   -8.6227  -14.0657   25.2352 C   0  0  0  0  0  0  0  0  0  0  0  0
   -7.0141  -12.1163   26.3786 C   0  0  0  0  0  0  0  0  0  0  0  0
   -8.3774  -11.9050   26.2569 C   0  0  0  0  0  0  0  0  0  0  0  0
   -6.1307  -11.0466   27.0159 C   0  0  0  0  0  0  0  0  0  0  0  0
   -6.4592  -13.3001   25.9239 C   0  0  0  0  0  0  0  0  0  0  0  0
   -7.2600  -14.2749   25.3485 C   0  0  0  0  0  0  0  0  0  0  0  0
   -9.1788  -12.8775   25.6796 C   0  0  0  0  0  0  0  0  0  0  0  0
   -9.5168  -15.1214   24.5838 C   0  0  0  0  0  0  0  0  0  0  0  0
  -10.6065  -15.6510   25.3948 N   0  0  0  0  0  0  0  0  0  0  0  0
   -9.3222  -15.4656   23.4637 O   0  0  0  0  0  0  0  0  0  0  0  0
  -10.6753  -15.3165   26.3182 H   0  0  0  0  0  0  0  0  0  0  0  0
  -12.4235  -18.8829   25.0409 C   0  0  0  0  0  0  0  0  0  0  0  0
  -11.4762  -17.9380   25.4011 C   0  0  0  0  0  0  0  0  0  0  0  0
  -11.6026  -16.6255   24.9742 C   0  0  0  0  0  0  0  0  0  0  0  0
  -12.6984  -16.2493   24.2096 C   0  0  0  0  0  0  0  0  0  0  0  0
  -13.5084  -18.5082   24.2650 C   0  0  0  0  0  0  0  0  0  0  0  0
  -13.6445  -17.1946   23.8489 C   0  0  0  0  0  0  0  0  0  0  0  0
  -10.2838  -18.3550   26.2601 C   0  0  0  0  0  0  0  0  0  0  0  0
   -9.1281  -18.4096   25.7597 O   0  0  0  0  0  0  0  0  0  0  0  0
  -10.4605  -18.6444   27.4727 O   0  0  0  0  0  0  0  0  0  0  0  0
   -8.9977  -18.1940   24.8572 H   0  0  0  0  0  0  0  0  0  0  0  0
   -4.6763  -13.5941   26.0747 S   0  0  0  0  0  0  0  0  0  0  0  0
   -4.3665  -15.0195   25.9563 O   0  0  0  0  0  0  0  0  0  0  0  0
   -4.2193  -13.3154   27.4390 O   0  0  0  0  0  0  0  0  0  0  0  0
   -3.8049  -12.6828   24.9167 N   0  0  0  0  0  0  0  0  0  0  0  0
   -2.8355  -12.5427   25.0160 H   0  0  0  0  0  0  0  0  0  0  0  0
   -5.8797  -11.0260   21.6574 C   0  0  0  0  0  0  0  0  0  0  0  0
   -4.9740  -12.9427   22.7715 C   0  0  0  0  0  0  0  0  0  0  0  0
   -5.4256  -10.2128   22.6769 C   0  0  0  0  0  0  0  0  0  0  0  0
   -4.5186  -12.1218   23.7888 C   0  0  0  0  0  0  0  0  0  0  0  0
   -6.8372  -10.2268   20.1753 Br  0  0  0  0  0  0  0  0  0  0  0  0
   -4.7414  -10.7571   23.7465 C   0  0  0  0  0  0  0  0  0  0  0  0
   -5.6589  -12.3944   21.7001 C   0  0  0  0  0  0  0  0  0  0  0  0
 20 18  2  0  0  0
 18 19  1  0  0  0
 18 13  1  0  0  0
 31 27  1  0  0  0
 12 13  2  0  0  0
 12 16  1  0  0  0
 13 14  1  0  0  0
 16 17  2  0  0  0
 27 33  2  0  0  0
 27 29  1  0  0  0
 14  9  1  0  0  0
 14 15  2  0  0  0
 17 15  1  0  0  0
 33 28  1  0  0  0
  9  8  1  0  0  0
 29 32  2  0  0  0
  7  3  2  0  0  0
  7  1  1  0  0  0
  8  1  1  0  0  0
  8 10  2  0  0  0
  3  2  1  0  0  0
 28 30  2  0  0  0
  1  6  2  0  0  0
 32 30  1  0  0  0
  2  4  1  0  0  0
  2  5  2  0  0  0
 30 25  1  0  0  0
  6  5  1  0  0  0
  5 22  1  0  0  0
 25 22  1  0  0  0
 22 24  2  0  0  0
 22 23  2  0  0  0
  9 11  1  0  0  0
 25 26  1  0  0  0
 19 21  1  0  0  0
M  END
> <minimizedAffinity>
-6.03150

$$$$
5E7N_5KR_A_201


 33 35  0  0  0  0  0  0  0  0999 V2000
  -13.5035  -10.7214   24.7664 C   0  0  0  0  0  0  0  0  0  0  0  0
  -12.2751  -11.7189   27.0448 C   0  0  0  0  0  0  0  0  0  0  0  0
  -13.6321  -11.4422   27.0547 C   0  0  0  0  0  0  0  0  0  0  0  0
  -11.6014  -12.2759   28.2964 C   0  0  0  0  0  0  0  0  0  0  0  0
  -11.5361  -11.4914   25.8966 C   0  0  0  0  0  0  0  0  0  0  0  0
  -12.1465  -10.9894   24.7573 C   0  0  0  0  0  0  0  0  0  0  0  0
  -14.2431  -10.9380   25.9173 C   0  0  0  0  0  0  0  0  0  0  0  0
  -14.1879  -10.1474   23.5252 C   0  0  0  0  0  0  0  0  0  0  0  0
  -15.4690  -10.7341   23.1505 N   0  0  0  0  0  0  0  0  0  0  0  0
  -13.6873   -9.2556   22.9211 O   0  0  0  0  0  0  0  0  0  0  0  0
  -15.7933  -11.4813   23.7033 H   0  0  0  0  0  0  0  0  0  0  0  0
  -17.2499  -10.8119   19.8803 C   0  0  0  0  0  0  0  0  0  0  0  0
  -16.4296  -11.1609   20.9411 C   0  0  0  0  0  0  0  0  0  0  0  0
  -16.3158  -10.3239   22.0398 C   0  0  0  0  0  0  0  0  0  0  0  0
  -17.0502   -9.1472   22.0919 C   0  0  0  0  0  0  0  0  0  0  0  0
  -17.9702   -9.6294   19.9280 C   0  0  0  0  0  0  0  0  0  0  0  0
  -17.8691   -8.7981   21.0307 C   0  0  0  0  0  0  0  0  0  0  0  0
  -15.6404  -12.4678   20.8858 C   0  0  0  0  0  0  0  0  0  0  0  0
  -16.2368  -13.5631   20.7027 O   0  0  0  0  0  0  0  0  0  0  0  0
  -14.3891  -12.4462   21.0240 O   0  0  0  0  0  0  0  0  0  0  0  0
  -17.1680  -13.5781   20.5999 H   0  0  0  0  0  0  0  0  0  0  0  0
   -9.7585  -11.8476   25.8652 S   0  0  0  0  0  0  0  0  0  0  0  0
   -9.0726  -11.1997   26.9840 O   0  0  0  0  0  0  0  0  0  0  0  0
   -9.1193  -11.1922   24.7208 O   0  0  0  0  0  0  0  0  0  0  0  0
   -9.4715  -13.5353   25.8696 N   0  0  0  0  0  0  0  0  0  0  0  0
   -8.6051  -13.8953   26.1679 H   0  0  0  0  0  0  0  0  0  0  0  0
  -12.5312  -16.1299   24.6126 C   0  0  0  0  0  0  0  0  0  0  0  0
  -10.8810  -14.4748   24.0900 C   0  0  0  0  0  0  0  0  0  0  0  0
  -12.1696  -16.0768   25.9444 C   0  0  0  0  0  0  0  0  0  0  0  0
  -10.5254  -14.4239   25.4268 C   0  0  0  0  0  0  0  0  0  0  0  0
  -13.9412  -17.3423   24.0707 Br  0  0  0  0  0  0  0  0  0  0  0  0
  -11.1661  -15.2221   26.3576 C   0  0  0  0  0  0  0  0  0  0  0  0
  -11.8879  -15.3319   23.6786 C   0  0  0  0  0  0  0  0  0  0  0  0
 20 18  2  0  0  0
 18 19  1  0  0  0
 18 13  1  0  0  0
 31 27  1  0  0  0
 12 13  2  0  0  0
 12 16  1  0  0  0
 13 14  1  0  0  0
 16 17  2  0  0  0
 27 33  2  0  0  0
 27 29  1  0  0  0
 14  9  1  0  0  0
 14 15  2  0  0  0
 17 15  1  0  0  0
 33 28  1  0  0  0
  9  8  1  0  0  0
 29 32  2  0  0  0
  7  3  2  0  0  0
  7  1  1  0  0  0
  8  1  1  0  0  0
  8 10  2  0  0  0
  3  2  1  0  0  0
 28 30  2  0  0  0
  1  6  2  0  0  0
 32 30  1  0  0  0
  2  4  1  0  0  0
  2  5  2  0  0  0
 30 25  1  0  0  0
  6  5  1  0  0  0
  5 22  1  0  0  0
 25 22  1  0  0  0
 22 24  2  0  0  0
 22 23  2  0  0  0
  9 11  1  0  0  0
 25 26  1  0  0  0
 19 21  1  0  0  0
M  END
> <minimizedAffinity>
-5.97129

$$$$
