4U43_3D8_A_401


 17 19  0  0  0  0  0  0  0  0999 V2000
   26.5381   21.3048  -10.8796 C   0  0  0  0  0  0  0  0  0  0  0  0
   27.0127   24.2600   -8.6975 C   0  0  0  0  0  0  0  0  0  0  0  0
   26.9793   23.1573   -9.5890 C   0  0  0  0  0  0  0  0  0  0  0  0
   26.0378   22.1721   -9.8632 C   0  0  0  0  0  0  0  0  0  0  0  0
   27.8210   21.8487  -11.1762 C   0  0  0  0  0  0  0  0  0  0  0  0
   28.0898   22.9018  -10.4505 N   0  0  0  0  0  0  0  0  0  0  0  0
   29.2561   23.7207  -10.4427 N   0  0  0  0  0  0  0  0  0  0  0  0
   29.3523   24.7658   -9.5950 C   0  0  0  0  0  0  0  0  0  0  0  0
   28.2163   25.0644   -8.7682 N   0  0  0  0  0  0  0  0  0  0  0  0
   25.9760   24.5240   -7.7362 N   0  0  0  0  0  0  0  0  0  0  0  0
   25.1283   24.0325   -7.8317 H   0  0  0  0  0  0  0  0  0  0  0  0
   24.8332   25.8349   -6.0345 C   0  0  0  0  0  0  0  0  0  0  0  0
   26.0909   27.3758   -4.4489 C   0  0  0  0  0  0  0  0  0  0  0  0
   26.0897   25.4583   -6.6410 C   0  0  0  0  0  0  0  0  0  0  0  0
   27.3475   27.0636   -5.0301 C   0  0  0  0  0  0  0  0  0  0  0  0
   27.3532   26.0971   -6.1046 C   0  0  0  0  0  0  0  0  0  0  0  0
   24.8975   26.7598   -4.9507 N   0  0  0  0  0  0  0  0  0  0  0  0
 13 15  2  0  0  0
 13 17  1  0  0  0
 15 16  1  0  0  0
 17 12  2  0  0  0
 16 14  2  0  0  0
 12 14  1  0  0  0
 14 10  1  0  0  0
  9  8  1  0  0  0
  9  2  2  0  0  0
 10  2  1  0  0  0
  8  7  2  0  0  0
  2  3  1  0  0  0
  7  6  1  0  0  0
  3  6  1  0  0  0
  3  4  2  0  0  0
  6  5  1  0  0  0
  4  1  1  0  0  0
  5  1  2  0  0  0
 10 11  1  0  0  0
M  END
> <minimizedAffinity>
-7.63753

$$$$
4U43_3D8_A_401


 17 19  0  0  0  0  0  0  0  0999 V2000
   26.5223   27.5843   -4.2608 C   0  0  0  0  0  0  0  0  0  0  0  0
   26.3114   25.3039   -7.1721 C   0  0  0  0  0  0  0  0  0  0  0  0
   26.2335   26.1550   -6.0400 C   0  0  0  0  0  0  0  0  0  0  0  0
   27.1724   26.8864   -5.3219 C   0  0  0  0  0  0  0  0  0  0  0  0
   25.1548   27.2142   -4.4107 C   0  0  0  0  0  0  0  0  0  0  0  0
   24.9718   26.4001   -5.4165 N   0  0  0  0  0  0  0  0  0  0  0  0
   23.7668   25.8043   -5.8898 N   0  0  0  0  0  0  0  0  0  0  0  0
   23.7877   24.9648   -6.9458 C   0  0  0  0  0  0  0  0  0  0  0  0
   25.0427   24.7604   -7.6141 N   0  0  0  0  0  0  0  0  0  0  0  0
   27.5552   24.9357   -7.7932 N   0  0  0  0  0  0  0  0  0  0  0  0
   28.3831   25.3140   -7.4180 H   0  0  0  0  0  0  0  0  0  0  0  0
   28.8823   24.2259   -9.7052 C   0  0  0  0  0  0  0  0  0  0  0  0
   28.0923   22.4017  -11.2921 C   0  0  0  0  0  0  0  0  0  0  0  0
   27.6766   24.0508   -8.9280 C   0  0  0  0  0  0  0  0  0  0  0  0
   26.8782   22.2121  -10.5820 C   0  0  0  0  0  0  0  0  0  0  0  0
   26.6775   23.0143   -9.3967 C   0  0  0  0  0  0  0  0  0  0  0  0
   29.0423   23.3751  -10.8387 N   0  0  0  0  0  0  0  0  0  0  0  0
 13 15  2  0  0  0
 13 17  1  0  0  0
 15 16  1  0  0  0
 17 12  2  0  0  0
 16 14  2  0  0  0
 12 14  1  0  0  0
 14 10  1  0  0  0
  9  8  1  0  0  0
  9  2  2  0  0  0
 10  2  1  0  0  0
  8  7  2  0  0  0
  2  3  1  0  0  0
  7  6  1  0  0  0
  3  6  1  0  0  0
  3  4  2  0  0  0
  6  5  1  0  0  0
  4  1  1  0  0  0
  5  1  2  0  0  0
 10 11  1  0  0  0
M  END
> <minimizedAffinity>
-7.42294

$$$$
4U43_3D8_A_401


 17 19  0  0  0  0  0  0  0  0999 V2000
   27.9903   27.1084   -5.9604 C   0  0  0  0  0  0  0  0  0  0  0  0
   24.8342   25.1821   -6.1816 C   0  0  0  0  0  0  0  0  0  0  0  0
   25.9531   26.0430   -6.0446 C   0  0  0  0  0  0  0  0  0  0  0  0
   27.3185   25.8838   -6.2515 C   0  0  0  0  0  0  0  0  0  0  0  0
   26.9329   27.9823   -5.5760 C   0  0  0  0  0  0  0  0  0  0  0  0
   25.7671   27.3931   -5.6161 N   0  0  0  0  0  0  0  0  0  0  0  0
   24.4784   27.9163   -5.3055 N   0  0  0  0  0  0  0  0  0  0  0  0
   23.3833   27.1330   -5.3917 C   0  0  0  0  0  0  0  0  0  0  0  0
   23.5551   25.7926   -5.8786 N   0  0  0  0  0  0  0  0  0  0  0  0
   24.9525   23.7882   -6.5154 N   0  0  0  0  0  0  0  0  0  0  0  0
   25.0447   23.1469   -5.7741 H   0  0  0  0  0  0  0  0  0  0  0  0
   23.6936   22.6685   -8.2710 C   0  0  0  0  0  0  0  0  0  0  0  0
   24.7351   22.0918  -10.5188 C   0  0  0  0  0  0  0  0  0  0  0  0
   24.9456   23.2619   -7.8602 C   0  0  0  0  0  0  0  0  0  0  0  0
   25.9949   22.6335  -10.1532 C   0  0  0  0  0  0  0  0  0  0  0  0
   26.0975   23.2332   -8.8423 C   0  0  0  0  0  0  0  0  0  0  0  0
   23.6425   22.1318   -9.5914 N   0  0  0  0  0  0  0  0  0  0  0  0
 13 15  2  0  0  0
 13 17  1  0  0  0
 15 16  1  0  0  0
 17 12  2  0  0  0
 16 14  2  0  0  0
 12 14  1  0  0  0
 14 10  1  0  0  0
  9  8  1  0  0  0
  9  2  2  0  0  0
 10  2  1  0  0  0
  8  7  2  0  0  0
  2  3  1  0  0  0
  7  6  1  0  0  0
  3  6  1  0  0  0
  3  4  2  0  0  0
  6  5  1  0  0  0
  4  1  1  0  0  0
  5  1  2  0  0  0
 10 11  1  0  0  0
M  END
> <minimizedAffinity>
-7.39055

$$$$
4U43_3D8_A_401


 17 19  0  0  0  0  0  0  0  0999 V2000
   27.9513   21.6241  -10.9055 C   0  0  0  0  0  0  0  0  0  0  0  0
   26.3619   23.9282   -8.4797 C   0  0  0  0  0  0  0  0  0  0  0  0
   26.8216   22.9973   -9.4461 C   0  0  0  0  0  0  0  0  0  0  0  0
   28.0805   22.6489   -9.9213 C   0  0  0  0  0  0  0  0  0  0  0  0
   26.5456   21.4010  -10.9679 C   0  0  0  0  0  0  0  0  0  0  0  0
   25.8867   22.1745  -10.1461 N   0  0  0  0  0  0  0  0  0  0  0  0
   24.4832   22.2605   -9.9145 N   0  0  0  0  0  0  0  0  0  0  0  0
   23.9896   23.1483   -9.0266 C   0  0  0  0  0  0  0  0  0  0  0  0
   24.9269   23.9368   -8.2763 N   0  0  0  0  0  0  0  0  0  0  0  0
   27.2319   24.8540   -7.8056 N   0  0  0  0  0  0  0  0  0  0  0  0
   28.1651   24.9115   -8.1138 H   0  0  0  0  0  0  0  0  0  0  0  0
   27.8409   26.6501   -6.2811 C   0  0  0  0  0  0  0  0  0  0  0  0
   26.2551   27.4807   -4.4740 C   0  0  0  0  0  0  0  0  0  0  0  0
   26.8344   25.7054   -6.7088 C   0  0  0  0  0  0  0  0  0  0  0  0
   25.2453   26.5507   -4.8343 C   0  0  0  0  0  0  0  0  0  0  0  0
   25.5211   25.6820   -5.9558 C   0  0  0  0  0  0  0  0  0  0  0  0
   27.4928   27.5091   -5.1970 N   0  0  0  0  0  0  0  0  0  0  0  0
 13 15  2  0  0  0
 13 17  1  0  0  0
 15 16  1  0  0  0
 17 12  2  0  0  0
 16 14  2  0  0  0
 12 14  1  0  0  0
 14 10  1  0  0  0
  9  8  1  0  0  0
  9  2  2  0  0  0
 10  2  1  0  0  0
  8  7  2  0  0  0
  2  3  1  0  0  0
  7  6  1  0  0  0
  3  6  1  0  0  0
  3  4  2  0  0  0
  6  5  1  0  0  0
  4  1  1  0  0  0
  5  1  2  0  0  0
 10 11  1  0  0  0
M  END
> <minimizedAffinity>
-7.34826

$$$$
4U43_3D8_A_401


 17 19  0  0  0  0  0  0  0  0999 V2000
   23.2171   27.0555   -4.7178 C   0  0  0  0  0  0  0  0  0  0  0  0
   26.0128   25.6331   -6.6877 C   0  0  0  0  0  0  0  0  0  0  0  0
   25.0544   26.2541   -5.8465 C   0  0  0  0  0  0  0  0  0  0  0  0
   23.6652   26.2409   -5.8000 C   0  0  0  0  0  0  0  0  0  0  0  0
   24.4283   27.5368   -4.1426 C   0  0  0  0  0  0  0  0  0  0  0  0
   25.4837   27.0928   -4.7726 N   0  0  0  0  0  0  0  0  0  0  0  0
   26.8627   27.3429   -4.5143 N   0  0  0  0  0  0  0  0  0  0  0  0
   27.8153   26.8001   -5.3006 C   0  0  0  0  0  0  0  0  0  0  0  0
   27.3938   25.9086   -6.3450 N   0  0  0  0  0  0  0  0  0  0  0  0
   25.6559   24.8544   -7.8430 N   0  0  0  0  0  0  0  0  0  0  0  0
   24.7014   24.7942   -8.0765 H   0  0  0  0  0  0  0  0  0  0  0  0
   26.0896   22.9398   -9.2806 C   0  0  0  0  0  0  0  0  0  0  0  0
   28.3539   22.5617  -10.3761 C   0  0  0  0  0  0  0  0  0  0  0  0
   26.5976   24.1546   -8.6851 C   0  0  0  0  0  0  0  0  0  0  0  0
   28.9106   23.7285   -9.7905 C   0  0  0  0  0  0  0  0  0  0  0  0
   28.0363   24.5324   -8.9672 C   0  0  0  0  0  0  0  0  0  0  0  0
   26.9875   22.2132  -10.1173 N   0  0  0  0  0  0  0  0  0  0  0  0
 13 15  2  0  0  0
 13 17  1  0  0  0
 15 16  1  0  0  0
 17 12  2  0  0  0
 16 14  2  0  0  0
 12 14  1  0  0  0
 14 10  1  0  0  0
  9  8  1  0  0  0
  9  2  2  0  0  0
 10  2  1  0  0  0
  8  7  2  0  0  0
  2  3  1  0  0  0
  7  6  1  0  0  0
  3  6  1  0  0  0
  3  4  2  0  0  0
  6  5  1  0  0  0
  4  1  1  0  0  0
  5  1  2  0  0  0
 10 11  1  0  0  0
M  END
> <minimizedAffinity>
-7.28824

$$$$
4U43_3D8_A_401


 17 19  0  0  0  0  0  0  0  0999 V2000
   26.3102   21.2656  -10.7747 C   0  0  0  0  0  0  0  0  0  0  0  0
   26.9665   24.2536   -8.6864 C   0  0  0  0  0  0  0  0  0  0  0  0
   26.8625   23.1314   -9.5475 C   0  0  0  0  0  0  0  0  0  0  0  0
   25.8768   22.1757   -9.7651 C   0  0  0  0  0  0  0  0  0  0  0  0
   27.6014   21.7536  -11.1274 C   0  0  0  0  0  0  0  0  0  0  0  0
   27.9331   22.8133  -10.4383 N   0  0  0  0  0  0  0  0  0  0  0  0
   29.1282   23.5879  -10.4900 N   0  0  0  0  0  0  0  0  0  0  0  0
   29.2913   24.6492   -9.6732 C   0  0  0  0  0  0  0  0  0  0  0  0
   28.1956   25.0103   -8.8174 N   0  0  0  0  0  0  0  0  0  0  0  0
   25.9734   24.5797   -7.6985 N   0  0  0  0  0  0  0  0  0  0  0  0
   25.1065   24.1161   -7.7516 H   0  0  0  0  0  0  0  0  0  0  0  0
   27.5293   25.7330   -6.2256 C   0  0  0  0  0  0  0  0  0  0  0  0
   26.7419   27.3909   -4.4644 C   0  0  0  0  0  0  0  0  0  0  0  0
   26.1569   25.5386   -6.6343 C   0  0  0  0  0  0  0  0  0  0  0  0
   25.3760   27.2125   -4.8062 C   0  0  0  0  0  0  0  0  0  0  0  0
   25.0833   26.3096   -5.8961 C   0  0  0  0  0  0  0  0  0  0  0  0
   27.7574   26.6688   -5.1737 N   0  0  0  0  0  0  0  0  0  0  0  0
 13 15  2  0  0  0
 13 17  1  0  0  0
 15 16  1  0  0  0
 17 12  2  0  0  0
 16 14  2  0  0  0
 12 14  1  0  0  0
 14 10  1  0  0  0
  9  8  1  0  0  0
  9  2  2  0  0  0
 10  2  1  0  0  0
  8  7  2  0  0  0
  2  3  1  0  0  0
  7  6  1  0  0  0
  3  6  1  0  0  0
  3  4  2  0  0  0
  6  5  1  0  0  0
  4  1  1  0  0  0
  5  1  2  0  0  0
 10 11  1  0  0  0
M  END
> <minimizedAffinity>
-7.21699

$$$$
4U43_3D8_A_401


 17 19  0  0  0  0  0  0  0  0999 V2000
   23.5819   22.0578   -9.6066 C   0  0  0  0  0  0  0  0  0  0  0  0
   25.4685   24.6548   -7.7583 C   0  0  0  0  0  0  0  0  0  0  0  0
   24.8861   23.6210   -8.5354 C   0  0  0  0  0  0  0  0  0  0  0  0
   23.5979   23.1099   -8.6430 C   0  0  0  0  0  0  0  0  0  0  0  0
   24.9345   21.9941  -10.0490 C   0  0  0  0  0  0  0  0  0  0  0  0
   25.6914   22.8746   -9.4493 N   0  0  0  0  0  0  0  0  0  0  0  0
   27.0853   23.1258   -9.6070 N   0  0  0  0  0  0  0  0  0  0  0  0
   27.6960   24.0786   -8.8725 C   0  0  0  0  0  0  0  0  0  0  0  0
   26.8817   24.8727   -7.9953 N   0  0  0  0  0  0  0  0  0  0  0  0
   24.7443   25.3832   -6.7517 N   0  0  0  0  0  0  0  0  0  0  0  0
   23.7652   25.2818   -6.7297 H   0  0  0  0  0  0  0  0  0  0  0  0
   24.4263   26.8318   -4.8227 C   0  0  0  0  0  0  0  0  0  0  0  0
   26.3604   28.0801   -3.7405 C   0  0  0  0  0  0  0  0  0  0  0  0
   25.3504   26.2527   -5.7708 C   0  0  0  0  0  0  0  0  0  0  0  0
   27.3038   27.5636   -4.6665 C   0  0  0  0  0  0  0  0  0  0  0  0
   26.8099   26.6406   -5.6628 C   0  0  0  0  0  0  0  0  0  0  0  0
   24.9810   27.7012   -3.8375 N   0  0  0  0  0  0  0  0  0  0  0  0
 13 15  2  0  0  0
 13 17  1  0  0  0
 15 16  1  0  0  0
 17 12  2  0  0  0
 16 14  2  0  0  0
 12 14  1  0  0  0
 14 10  1  0  0  0
  9  8  1  0  0  0
  9  2  2  0  0  0
 10  2  1  0  0  0
  8  7  2  0  0  0
  2  3  1  0  0  0
  7  6  1  0  0  0
  3  6  1  0  0  0
  3  4  2  0  0  0
  6  5  1  0  0  0
  4  1  1  0  0  0
  5  1  2  0  0  0
 10 11  1  0  0  0
M  END
> <minimizedAffinity>
-7.10663

$$$$
4U43_3D8_A_401


 17 19  0  0  0  0  0  0  0  0999 V2000
   26.5080   21.1806  -10.9244 C   0  0  0  0  0  0  0  0  0  0  0  0
   26.0899   23.8644   -8.4060 C   0  0  0  0  0  0  0  0  0  0  0  0
   26.3958   22.8990   -9.3990 C   0  0  0  0  0  0  0  0  0  0  0  0
   25.7136   21.8039   -9.9164 C   0  0  0  0  0  0  0  0  0  0  0  0
   27.6859   21.9812  -10.9590 C   0  0  0  0  0  0  0  0  0  0  0  0
   27.6408   22.9623  -10.0969 N   0  0  0  0  0  0  0  0  0  0  0  0
   28.6100   23.9704   -9.8228 N   0  0  0  0  0  0  0  0  0  0  0  0
   28.3824   24.8967   -8.8687 C   0  0  0  0  0  0  0  0  0  0  0  0
   27.1089   24.8752   -8.2046 N   0  0  0  0  0  0  0  0  0  0  0  0
   24.9017   23.8097   -7.5976 N   0  0  0  0  0  0  0  0  0  0  0  0
   24.3553   22.9920   -7.6429 H   0  0  0  0  0  0  0  0  0  0  0  0
   25.4486   25.3477   -5.7931 C   0  0  0  0  0  0  0  0  0  0  0  0
   23.7360   26.9661   -4.8352 C   0  0  0  0  0  0  0  0  0  0  0  0
   24.4526   24.8685   -6.7242 C   0  0  0  0  0  0  0  0  0  0  0  0
   22.7130   26.5093   -5.7065 C   0  0  0  0  0  0  0  0  0  0  0  0
   23.0704   25.4828   -6.6591 C   0  0  0  0  0  0  0  0  0  0  0  0
   25.0474   26.3912   -4.9076 N   0  0  0  0  0  0  0  0  0  0  0  0
 13 15  2  0  0  0
 13 17  1  0  0  0
 15 16  1  0  0  0
 17 12  2  0  0  0
 16 14  2  0  0  0
 12 14  1  0  0  0
 14 10  1  0  0  0
  9  8  1  0  0  0
  9  2  2  0  0  0
 10  2  1  0  0  0
  8  7  2  0  0  0
  2  3  1  0  0  0
  7  6  1  0  0  0
  3  6  1  0  0  0
  3  4  2  0  0  0
  6  5  1  0  0  0
  4  1  1  0  0  0
  5  1  2  0  0  0
 10 11  1  0  0  0
M  END
> <minimizedAffinity>
-7.02610

$$$$
4U43_3D8_A_401


 17 19  0  0  0  0  0  0  0  0999 V2000
   27.1874   26.8009   -5.2548 C   0  0  0  0  0  0  0  0  0  0  0  0
   24.5646   24.7175   -6.8359 C   0  0  0  0  0  0  0  0  0  0  0  0
   25.4497   25.6116   -6.1809 C   0  0  0  0  0  0  0  0  0  0  0  0
   26.8278   25.6394   -6.0011 C   0  0  0  0  0  0  0  0  0  0  0  0
   25.9373   27.4414   -5.0172 C   0  0  0  0  0  0  0  0  0  0  0  0
   24.9373   26.7783   -5.5350 N   0  0  0  0  0  0  0  0  0  0  0  0
   23.5447   27.0800   -5.5139 N   0  0  0  0  0  0  0  0  0  0  0  0
   22.6559   26.2493   -6.0972 C   0  0  0  0  0  0  0  0  0  0  0  0
   23.1688   25.1059   -6.7993 N   0  0  0  0  0  0  0  0  0  0  0  0
   24.9946   23.4775   -7.4241 N   0  0  0  0  0  0  0  0  0  0  0  0
   24.6109   22.6445   -7.0660 H   0  0  0  0  0  0  0  0  0  0  0  0
   25.5620   22.4637   -9.5620 C   0  0  0  0  0  0  0  0  0  0  0  0
   27.7576   22.9570  -10.7478 C   0  0  0  0  0  0  0  0  0  0  0  0
   25.9489   23.3669   -8.5023 C   0  0  0  0  0  0  0  0  0  0  0  0
   28.1983   23.8295   -9.7188 C   0  0  0  0  0  0  0  0  0  0  0  0
   27.2948   24.0513   -8.6129 C   0  0  0  0  0  0  0  0  0  0  0  0
   26.4771   22.3201  -10.6465 N   0  0  0  0  0  0  0  0  0  0  0  0
 13 15  2  0  0  0
 13 17  1  0  0  0
 15 16  1  0  0  0
 17 12  2  0  0  0
 16 14  2  0  0  0
 12 14  1  0  0  0
 14 10  1  0  0  0
  9  8  1  0  0  0
  9  2  2  0  0  0
 10  2  1  0  0  0
  8  7  2  0  0  0
  2  3  1  0  0  0
  7  6  1  0  0  0
  3  6  1  0  0  0
  3  4  2  0  0  0
  6  5  1  0  0  0
  4  1  1  0  0  0
  5  1  2  0  0  0
 10 11  1  0  0  0
M  END
> <minimizedAffinity>
-6.67530

$$$$
4U43_3D8_A_401


 17 19  0  0  0  0  0  0  0  0999 V2000
   24.2824   24.3218   -7.9517 C   0  0  0  0  0  0  0  0  0  0  0  0
   25.4080   26.4734   -5.1547 C   0  0  0  0  0  0  0  0  0  0  0  0
   25.1320   25.6399   -6.2686 C   0  0  0  0  0  0  0  0  0  0  0  0
   23.9684   25.0835   -6.7869 C   0  0  0  0  0  0  0  0  0  0  0  0
   25.6936   24.4734   -8.0753 C   0  0  0  0  0  0  0  0  0  0  0  0
   26.1945   25.2184   -7.1256 N   0  0  0  0  0  0  0  0  0  0  0  0
   27.5477   25.6015   -6.8957 N   0  0  0  0  0  0  0  0  0  0  0  0
   27.8701   26.3703   -5.8349 C   0  0  0  0  0  0  0  0  0  0  0  0
   26.8003   26.8467   -5.0032 N   0  0  0  0  0  0  0  0  0  0  0  0
   24.4078   26.8591   -4.1959 N   0  0  0  0  0  0  0  0  0  0  0  0
   23.4792   26.5805   -4.3670 H   0  0  0  0  0  0  0  0  0  0  0  0
   23.6828   27.4694   -1.9548 C   0  0  0  0  0  0  0  0  0  0  0  0
   24.9763   29.1275   -0.5239 C   0  0  0  0  0  0  0  0  0  0  0  0
   24.6682   27.6259   -3.0002 C   0  0  0  0  0  0  0  0  0  0  0  0
   25.9540   29.3407   -1.5304 C   0  0  0  0  0  0  0  0  0  0  0  0
   25.8158   28.5820   -2.7527 C   0  0  0  0  0  0  0  0  0  0  0  0
   23.8977   28.2120   -0.7563 N   0  0  0  0  0  0  0  0  0  0  0  0
 13 15  2  0  0  0
 13 17  1  0  0  0
 15 16  1  0  0  0
 17 12  2  0  0  0
 16 14  2  0  0  0
 12 14  1  0  0  0
 14 10  1  0  0  0
  9  8  1  0  0  0
  9  2  2  0  0  0
 10  2  1  0  0  0
  8  7  2  0  0  0
  2  3  1  0  0  0
  7  6  1  0  0  0
  3  6  1  0  0  0
  3  4  2  0  0  0
  6  5  1  0  0  0
  4  1  1  0  0  0
  5  1  2  0  0  0
 10 11  1  0  0  0
M  END
> <minimizedAffinity>
-6.65454

$$$$
