4EHZ_JAK_A_1201


 21 24  0  0  0  0  0  0  0  0999 V2000
    8.9889   57.0464   -1.1116 C   0  0  0  0  0  0  0  0  0  0  0  0
    7.8146   57.9298   -0.7161 C   0  0  0  0  0  0  0  0  0  0  0  0
    7.7634   59.1933   -0.9650 N   0  0  0  0  0  0  0  0  0  0  0  0
    6.6168   59.7138   -0.4991 C   0  0  0  0  0  0  0  0  0  0  0  0
    6.1052   61.0087   -0.5285 C   0  0  0  0  0  0  0  0  0  0  0  0
    4.9480   61.2670    0.0125 N   0  0  0  0  0  0  0  0  0  0  0  0
    4.1909   60.3362    0.5984 C   0  0  0  0  0  0  0  0  0  0  0  0
    4.6391   58.9997    0.6641 C   0  0  0  0  0  0  0  0  0  0  0  0
    5.8933   58.6633    0.1046 C   0  0  0  0  0  0  0  0  0  0  0  0
    6.6822   57.5358   -0.0613 N   0  0  0  0  0  0  0  0  0  0  0  0
    3.5676   58.2806    1.3602 C   0  0  0  0  0  0  0  0  0  0  0  0
    2.6000   59.1655    1.6588 C   0  0  0  0  0  0  0  0  0  0  0  0
    2.9521   60.4054    1.2131 N   0  0  0  0  0  0  0  0  0  0  0  0
    2.4105   61.2215    1.3128 H   0  0  0  0  0  0  0  0  0  0  0  0
    6.4565   56.1447    0.3871 C   0  0  0  0  0  0  0  0  0  0  0  0
    6.4329   56.1139    1.9167 C   0  0  0  0  0  0  0  0  0  0  0  0
    6.3473   54.6607    2.3828 C   0  0  0  0  0  0  0  0  0  0  0  0
    5.1620   53.9933    1.8166 N   0  0  0  0  0  0  0  0  0  0  0  0
    5.1111   54.0538    0.3539 C   0  0  0  0  0  0  0  0  0  0  0  0
    5.1636   55.5032   -0.1356 C   0  0  0  0  0  0  0  0  0  0  0  0
    4.3266   54.4446    2.1893 H   0  0  0  0  0  0  0  0  0  0  0  0
  1  2  1  0  0  0
  2 10  1  0  0  0
  3  2  2  0  0  0
  3  4  1  0  0  0
  4  9  1  0  0  0
  5  4  2  0  0  0
  5  6  1  0  0  0
  6  7  2  0  0  0
  7  8  1  0  0  0
  7 13  1  0  0  0
  8 11  1  0  0  0
  9  8  2  0  0  0
  9 10  1  0  0  0
 10 15  1  0  0  0
 15 16  1  0  0  0
 16 17  1  0  0  0
 18 17  1  0  0  0
 19 18  1  0  0  0
 20 15  1  0  0  0
 20 19  1  0  0  0
 11 12  2  0  0  0
 13 12  1  0  0  0
 18 21  1  0  0  0
 13 14  1  0  0  0
M  END
> <minimizedAffinity>
-8.49610

$$$$
4EHZ_JAK_A_1201


 21 24  0  0  0  0  0  0  0  0999 V2000
    9.4838   54.8838    0.5187 C   0  0  0  0  0  0  0  0  0  0  0  0
    8.7045   56.1491    0.1903 C   0  0  0  0  0  0  0  0  0  0  0  0
    9.2112   57.1474   -0.4481 N   0  0  0  0  0  0  0  0  0  0  0  0
    8.2983   58.1217   -0.5896 C   0  0  0  0  0  0  0  0  0  0  0  0
    8.3613   59.3719   -1.1998 C   0  0  0  0  0  0  0  0  0  0  0  0
    7.3194   60.1550   -1.1953 N   0  0  0  0  0  0  0  0  0  0  0  0
    6.1539   59.8175   -0.6382 C   0  0  0  0  0  0  0  0  0  0  0  0
    6.0102   58.5650   -0.0043 C   0  0  0  0  0  0  0  0  0  0  0  0
    7.1116   57.6789    0.0326 C   0  0  0  0  0  0  0  0  0  0  0  0
    7.4026   56.4110    0.5108 N   0  0  0  0  0  0  0  0  0  0  0  0
    4.6253   58.5466    0.4766 C   0  0  0  0  0  0  0  0  0  0  0  0
    4.0511   59.7129    0.1321 C   0  0  0  0  0  0  0  0  0  0  0  0
    4.9489   60.4921   -0.5362 N   0  0  0  0  0  0  0  0  0  0  0  0
    4.7687   61.3928   -0.8905 H   0  0  0  0  0  0  0  0  0  0  0  0
    6.5572   55.4663    1.2723 C   0  0  0  0  0  0  0  0  0  0  0  0
    6.0393   56.1668    2.5302 C   0  0  0  0  0  0  0  0  0  0  0  0
    5.2883   55.1509    3.3908 C   0  0  0  0  0  0  0  0  0  0  0  0
    4.1877   54.5287    2.6342 N   0  0  0  0  0  0  0  0  0  0  0  0
    4.6299   53.8992    1.3876 C   0  0  0  0  0  0  0  0  0  0  0  0
    5.3579   54.9069    0.4944 C   0  0  0  0  0  0  0  0  0  0  0  0
    3.5015   55.2488    2.4083 H   0  0  0  0  0  0  0  0  0  0  0  0
  1  2  1  0  0  0
  2 10  1  0  0  0
  3  2  2  0  0  0
  3  4  1  0  0  0
  4  9  1  0  0  0
  5  4  2  0  0  0
  5  6  1  0  0  0
  6  7  2  0  0  0
  7  8  1  0  0  0
  7 13  1  0  0  0
  8 11  1  0  0  0
  9  8  2  0  0  0
  9 10  1  0  0  0
 10 15  1  0  0  0
 15 16  1  0  0  0
 16 17  1  0  0  0
 18 17  1  0  0  0
 19 18  1  0  0  0
 20 15  1  0  0  0
 20 19  1  0  0  0
 11 12  2  0  0  0
 13 12  1  0  0  0
 18 21  1  0  0  0
 13 14  1  0  0  0
M  END
> <minimizedAffinity>
-8.10564

$$$$
4EHZ_JAK_A_1201


 21 24  0  0  0  0  0  0  0  0999 V2000
    2.7303   59.0858    1.5655 C   0  0  0  0  0  0  0  0  0  0  0  0
    4.1024   58.9454    0.9223 C   0  0  0  0  0  0  0  0  0  0  0  0
    4.5950   59.8141    0.1076 N   0  0  0  0  0  0  0  0  0  0  0  0
    5.8134   59.4284   -0.3040 C   0  0  0  0  0  0  0  0  0  0  0  0
    6.7329   60.0203   -1.1662 C   0  0  0  0  0  0  0  0  0  0  0  0
    7.8673   59.4300   -1.4178 N   0  0  0  0  0  0  0  0  0  0  0  0
    8.2213   58.2639   -0.8720 C   0  0  0  0  0  0  0  0  0  0  0  0
    7.3447   57.6043    0.0154 C   0  0  0  0  0  0  0  0  0  0  0  0
    6.0941   58.1920    0.3157 C   0  0  0  0  0  0  0  0  0  0  0  0
    4.9850   57.9180    1.1003 N   0  0  0  0  0  0  0  0  0  0  0  0
    8.0573   56.3837    0.4056 C   0  0  0  0  0  0  0  0  0  0  0  0
    9.2427   56.3746   -0.2293 C   0  0  0  0  0  0  0  0  0  0  0  0
    9.3631   57.4915   -1.0026 N   0  0  0  0  0  0  0  0  0  0  0  0
   10.1399   57.7137   -1.5652 H   0  0  0  0  0  0  0  0  0  0  0  0
    4.6948   56.7496    1.9592 C   0  0  0  0  0  0  0  0  0  0  0  0
    4.5804   55.5030    1.0794 C   0  0  0  0  0  0  0  0  0  0  0  0
    4.1365   54.3235    1.9446 C   0  0  0  0  0  0  0  0  0  0  0  0
    5.0729   54.1055    3.0611 N   0  0  0  0  0  0  0  0  0  0  0  0
    5.2615   55.2950    3.8948 C   0  0  0  0  0  0  0  0  0  0  0  0
    5.7372   56.4823    3.0539 C   0  0  0  0  0  0  0  0  0  0  0  0
    5.9773   53.8316    2.6772 H   0  0  0  0  0  0  0  0  0  0  0  0
  1  2  1  0  0  0
  2 10  1  0  0  0
  3  2  2  0  0  0
  3  4  1  0  0  0
  4  9  1  0  0  0
  5  4  2  0  0  0
  5  6  1  0  0  0
  6  7  2  0  0  0
  7  8  1  0  0  0
  7 13  1  0  0  0
  8 11  1  0  0  0
  9  8  2  0  0  0
  9 10  1  0  0  0
 10 15  1  0  0  0
 15 16  1  0  0  0
 16 17  1  0  0  0
 18 17  1  0  0  0
 19 18  1  0  0  0
 20 15  1  0  0  0
 20 19  1  0  0  0
 11 12  2  0  0  0
 13 12  1  0  0  0
 18 21  1  0  0  0
 13 14  1  0  0  0
M  END
> <minimizedAffinity>
-7.90241

$$$$
4EHZ_JAK_A_1201


 21 24  0  0  0  0  0  0  0  0999 V2000
    3.1788   56.8188    1.4330 C   0  0  0  0  0  0  0  0  0  0  0  0
    4.6760   56.6185    1.2472 C   0  0  0  0  0  0  0  0  0  0  0  0
    5.4809   57.5668    0.9097 N   0  0  0  0  0  0  0  0  0  0  0  0
    6.7365   57.1008    0.8160 C   0  0  0  0  0  0  0  0  0  0  0  0
    7.9379   57.7269    0.4935 C   0  0  0  0  0  0  0  0  0  0  0  0
    9.0451   57.0401    0.4606 N   0  0  0  0  0  0  0  0  0  0  0  0
    9.1047   55.7359    0.7403 C   0  0  0  0  0  0  0  0  0  0  0  0
    7.9299   55.0319    1.0804 C   0  0  0  0  0  0  0  0  0  0  0  0
    6.6970   55.7232    1.1196 C   0  0  0  0  0  0  0  0  0  0  0  0
    5.3675   55.4504    1.4008 N   0  0  0  0  0  0  0  0  0  0  0  0
    8.3752   53.6553    1.3178 C   0  0  0  0  0  0  0  0  0  0  0  0
    9.7041   53.6087    1.1171 C   0  0  0  0  0  0  0  0  0  0  0  0
   10.1639   54.8444    0.7684 N   0  0  0  0  0  0  0  0  0  0  0  0
   11.1016   55.0676    0.5680 H   0  0  0  0  0  0  0  0  0  0  0  0
    4.7157   54.1721    1.7587 C   0  0  0  0  0  0  0  0  0  0  0  0
    4.7746   53.2307    0.5540 C   0  0  0  0  0  0  0  0  0  0  0  0
    3.9746   51.9674    0.8714 C   0  0  0  0  0  0  0  0  0  0  0  0
    4.4844   51.3110    2.0881 N   0  0  0  0  0  0  0  0  0  0  0  0
    4.5051   52.1969    3.2545 C   0  0  0  0  0  0  0  0  0  0  0  0
    5.3281   53.4559    2.9704 C   0  0  0  0  0  0  0  0  0  0  0  0
    5.4354   50.9887    1.9086 H   0  0  0  0  0  0  0  0  0  0  0  0
  1  2  1  0  0  0
  2 10  1  0  0  0
  3  2  2  0  0  0
  3  4  1  0  0  0
  4  9  1  0  0  0
  5  4  2  0  0  0
  5  6  1  0  0  0
  6  7  2  0  0  0
  7  8  1  0  0  0
  7 13  1  0  0  0
  8 11  1  0  0  0
  9  8  2  0  0  0
  9 10  1  0  0  0
 10 15  1  0  0  0
 15 16  1  0  0  0
 16 17  1  0  0  0
 18 17  1  0  0  0
 19 18  1  0  0  0
 20 15  1  0  0  0
 20 19  1  0  0  0
 11 12  2  0  0  0
 13 12  1  0  0  0
 18 21  1  0  0  0
 13 14  1  0  0  0
M  END
> <minimizedAffinity>
-7.43860

$$$$
4EHZ_JAK_A_1201


 21 24  0  0  0  0  0  0  0  0999 V2000
    2.7064   56.2347    2.0988 C   0  0  0  0  0  0  0  0  0  0  0  0
    3.5509   57.3217    1.4499 C   0  0  0  0  0  0  0  0  0  0  0  0
    3.1940   58.5590    1.3969 N   0  0  0  0  0  0  0  0  0  0  0  0
    4.1286   59.2868    0.7650 C   0  0  0  0  0  0  0  0  0  0  0  0
    4.2039   60.6453    0.4678 C   0  0  0  0  0  0  0  0  0  0  0  0
    5.2334   61.1175   -0.1771 N   0  0  0  0  0  0  0  0  0  0  0  0
    6.2602   60.3597   -0.5700 C   0  0  0  0  0  0  0  0  0  0  0  0
    6.2591   58.9743   -0.3017 C   0  0  0  0  0  0  0  0  0  0  0  0
    5.1618   58.4042    0.3841 C   0  0  0  0  0  0  0  0  0  0  0  0
    4.7658   57.1591    0.8466 N   0  0  0  0  0  0  0  0  0  0  0  0
    7.5199   58.4837   -0.8668 C   0  0  0  0  0  0  0  0  0  0  0  0
    8.1655   59.5303   -1.4113 C   0  0  0  0  0  0  0  0  0  0  0  0
    7.4287   60.6661   -1.2469 N   0  0  0  0  0  0  0  0  0  0  0  0
    7.6870   61.5629   -1.5603 H   0  0  0  0  0  0  0  0  0  0  0  0
    5.4306   55.8441    0.7210 C   0  0  0  0  0  0  0  0  0  0  0  0
    6.6867   55.8376    1.5946 C   0  0  0  0  0  0  0  0  0  0  0  0
    7.4527   54.5369    1.3534 C   0  0  0  0  0  0  0  0  0  0  0  0
    6.6036   53.3649    1.6296 N   0  0  0  0  0  0  0  0  0  0  0  0
    5.3575   53.3624    0.8595 C   0  0  0  0  0  0  0  0  0  0  0  0
    4.5574   54.6431    1.1100 C   0  0  0  0  0  0  0  0  0  0  0  0
    6.3712   53.3595    2.6228 H   0  0  0  0  0  0  0  0  0  0  0  0
  1  2  1  0  0  0
  2 10  1  0  0  0
  3  2  2  0  0  0
  3  4  1  0  0  0
  4  9  1  0  0  0
  5  4  2  0  0  0
  5  6  1  0  0  0
  6  7  2  0  0  0
  7  8  1  0  0  0
  7 13  1  0  0  0
  8 11  1  0  0  0
  9  8  2  0  0  0
  9 10  1  0  0  0
 10 15  1  0  0  0
 15 16  1  0  0  0
 16 17  1  0  0  0
 18 17  1  0  0  0
 19 18  1  0  0  0
 20 15  1  0  0  0
 20 19  1  0  0  0
 11 12  2  0  0  0
 13 12  1  0  0  0
 18 21  1  0  0  0
 13 14  1  0  0  0
M  END
> <minimizedAffinity>
-7.37013

$$$$
4EHZ_JAK_A_1201


 21 24  0  0  0  0  0  0  0  0999 V2000
    9.1778   52.6930    1.3719 C   0  0  0  0  0  0  0  0  0  0  0  0
    8.6264   54.0588    0.9889 C   0  0  0  0  0  0  0  0  0  0  0  0
    9.3727   55.0593    0.6679 N   0  0  0  0  0  0  0  0  0  0  0  0
    8.6169   56.1319    0.3834 C   0  0  0  0  0  0  0  0  0  0  0  0
    8.9507   57.4245   -0.0129 C   0  0  0  0  0  0  0  0  0  0  0  0
    8.0143   58.3063   -0.2231 N   0  0  0  0  0  0  0  0  0  0  0  0
    6.7133   58.0360   -0.0933 C   0  0  0  0  0  0  0  0  0  0  0  0
    6.2955   56.7470    0.3007 C   0  0  0  0  0  0  0  0  0  0  0  0
    7.2684   55.7529    0.5548 C   0  0  0  0  0  0  0  0  0  0  0  0
    7.3101   54.4196    0.9312 N   0  0  0  0  0  0  0  0  0  0  0  0
    4.8316   56.8227    0.3332 C   0  0  0  0  0  0  0  0  0  0  0  0
    4.4730   58.0710   -0.0157 C   0  0  0  0  0  0  0  0  0  0  0  0
    5.5846   58.8174   -0.2748 N   0  0  0  0  0  0  0  0  0  0  0  0
    5.5846   59.7633   -0.5479 H   0  0  0  0  0  0  0  0  0  0  0  0
    6.2080   53.4946    1.2729 C   0  0  0  0  0  0  0  0  0  0  0  0
    5.6833   53.8414    2.6677 C   0  0  0  0  0  0  0  0  0  0  0  0
    4.6467   52.7972    3.0821 C   0  0  0  0  0  0  0  0  0  0  0  0
    3.5495   52.7239    2.1014 N   0  0  0  0  0  0  0  0  0  0  0  0
    4.0130   52.4556    0.7380 C   0  0  0  0  0  0  0  0  0  0  0  0
    5.0297   53.5082    0.2891 C   0  0  0  0  0  0  0  0  0  0  0  0
    3.0508   53.6136    2.1054 H   0  0  0  0  0  0  0  0  0  0  0  0
  1  2  1  0  0  0
  2 10  1  0  0  0
  3  2  2  0  0  0
  3  4  1  0  0  0
  4  9  1  0  0  0
  5  4  2  0  0  0
  5  6  1  0  0  0
  6  7  2  0  0  0
  7  8  1  0  0  0
  7 13  1  0  0  0
  8 11  1  0  0  0
  9  8  2  0  0  0
  9 10  1  0  0  0
 10 15  1  0  0  0
 15 16  1  0  0  0
 16 17  1  0  0  0
 18 17  1  0  0  0
 19 18  1  0  0  0
 20 15  1  0  0  0
 20 19  1  0  0  0
 11 12  2  0  0  0
 13 12  1  0  0  0
 18 21  1  0  0  0
 13 14  1  0  0  0
M  END
> <minimizedAffinity>
-6.94178

$$$$
4EHZ_JAK_A_1201


 21 24  0  0  0  0  0  0  0  0999 V2000
    9.3182   55.5785    0.6074 C   0  0  0  0  0  0  0  0  0  0  0  0
    8.4161   54.3730    0.8284 C   0  0  0  0  0  0  0  0  0  0  0  0
    8.8417   53.1566    0.8082 N   0  0  0  0  0  0  0  0  0  0  0  0
    7.8277   52.3045    1.0281 C   0  0  0  0  0  0  0  0  0  0  0  0
    7.7826   50.9148    1.1053 C   0  0  0  0  0  0  0  0  0  0  0  0
    6.6498   50.3084    1.3237 N   0  0  0  0  0  0  0  0  0  0  0  0
    5.4957   50.9566    1.4988 C   0  0  0  0  0  0  0  0  0  0  0  0
    5.4610   52.3661    1.4392 C   0  0  0  0  0  0  0  0  0  0  0  0
    6.6581   53.0769    1.1924 C   0  0  0  0  0  0  0  0  0  0  0  0
    7.0716   54.3941    1.0696 N   0  0  0  0  0  0  0  0  0  0  0  0
    4.0566   52.7151    1.6749 C   0  0  0  0  0  0  0  0  0  0  0  0
    3.3686   51.5727    1.8478 C   0  0  0  0  0  0  0  0  0  0  0  0
    4.2103   50.5045    1.7451 N   0  0  0  0  0  0  0  0  0  0  0  0
    3.9455   49.5603    1.8323 H   0  0  0  0  0  0  0  0  0  0  0  0
    6.2849   55.6452    1.1242 C   0  0  0  0  0  0  0  0  0  0  0  0
    5.3604   55.7037   -0.0936 C   0  0  0  0  0  0  0  0  0  0  0  0
    4.6554   57.0597   -0.1172 C   0  0  0  0  0  0  0  0  0  0  0  0
    3.9086   57.2886    1.1322 N   0  0  0  0  0  0  0  0  0  0  0  0
    4.7440   57.1794    2.3304 C   0  0  0  0  0  0  0  0  0  0  0  0
    5.4363   55.8156    2.3919 C   0  0  0  0  0  0  0  0  0  0  0  0
    3.1605   56.5980    1.1941 H   0  0  0  0  0  0  0  0  0  0  0  0
  1  2  1  0  0  0
  2 10  1  0  0  0
  3  2  2  0  0  0
  3  4  1  0  0  0
  4  9  1  0  0  0
  5  4  2  0  0  0
  5  6  1  0  0  0
  6  7  2  0  0  0
  7  8  1  0  0  0
  7 13  1  0  0  0
  8 11  1  0  0  0
  9  8  2  0  0  0
  9 10  1  0  0  0
 10 15  1  0  0  0
 15 16  1  0  0  0
 16 17  1  0  0  0
 18 17  1  0  0  0
 19 18  1  0  0  0
 20 15  1  0  0  0
 20 19  1  0  0  0
 11 12  2  0  0  0
 13 12  1  0  0  0
 18 21  1  0  0  0
 13 14  1  0  0  0
M  END
> <minimizedAffinity>
-6.83613

$$$$
4EHZ_JAK_A_1201


 21 24  0  0  0  0  0  0  0  0999 V2000
    3.0878   51.8328    1.3067 C   0  0  0  0  0  0  0  0  0  0  0  0
    4.6093   51.8049    1.2892 C   0  0  0  0  0  0  0  0  0  0  0  0
    5.2980   50.7156    1.3010 N   0  0  0  0  0  0  0  0  0  0  0  0
    6.6112   50.9944    1.2851 C   0  0  0  0  0  0  0  0  0  0  0  0
    7.7353   50.1723    1.2834 C   0  0  0  0  0  0  0  0  0  0  0  0
    8.9286   50.6962    1.2756 N   0  0  0  0  0  0  0  0  0  0  0  0
    9.1486   52.0130    1.2531 C   0  0  0  0  0  0  0  0  0  0  0  0
    8.0602   52.9111    1.2490 C   0  0  0  0  0  0  0  0  0  0  0  0
    6.7421   52.3995    1.2696 C   0  0  0  0  0  0  0  0  0  0  0  0
    5.4443   52.8858    1.2618 N   0  0  0  0  0  0  0  0  0  0  0  0
    8.6746   54.2420    1.2207 C   0  0  0  0  0  0  0  0  0  0  0  0
   10.0098   54.0825    1.2138 C   0  0  0  0  0  0  0  0  0  0  0  0
   10.3181   52.7541    1.2344 N   0  0  0  0  0  0  0  0  0  0  0  0
   11.2291   52.3808    1.2358 H   0  0  0  0  0  0  0  0  0  0  0  0
    4.9530   54.2807    1.2711 C   0  0  0  0  0  0  0  0  0  0  0  0
    5.4458   54.9719    2.5441 C   0  0  0  0  0  0  0  0  0  0  0  0
    4.8194   56.3638    2.6277 C   0  0  0  0  0  0  0  0  0  0  0  0
    5.1388   57.1597    1.4295 N   0  0  0  0  0  0  0  0  0  0  0  0
    4.7404   56.5054    0.1809 C   0  0  0  0  0  0  0  0  0  0  0  0
    5.3819   55.1209    0.0602 C   0  0  0  0  0  0  0  0  0  0  0  0
    6.1459   57.3194    1.4051 H   0  0  0  0  0  0  0  0  0  0  0  0
  1  2  1  0  0  0
  2 10  1  0  0  0
  3  2  2  0  0  0
  3  4  1  0  0  0
  4  9  1  0  0  0
  5  4  2  0  0  0
  5  6  1  0  0  0
  6  7  2  0  0  0
  7  8  1  0  0  0
  7 13  1  0  0  0
  8 11  1  0  0  0
  9  8  2  0  0  0
  9 10  1  0  0  0
 10 15  1  0  0  0
 15 16  1  0  0  0
 16 17  1  0  0  0
 18 17  1  0  0  0
 19 18  1  0  0  0
 20 15  1  0  0  0
 20 19  1  0  0  0
 11 12  2  0  0  0
 13 12  1  0  0  0
 18 21  1  0  0  0
 13 14  1  0  0  0
M  END
> <minimizedAffinity>
-6.74743

$$$$
4EHZ_JAK_A_1201


 21 24  0  0  0  0  0  0  0  0999 V2000
    8.9233   58.0745   -1.4022 C   0  0  0  0  0  0  0  0  0  0  0  0
    7.5501   58.0316   -0.7475 C   0  0  0  0  0  0  0  0  0  0  0  0
    6.7181   59.0153   -0.7817 N   0  0  0  0  0  0  0  0  0  0  0  0
    5.5940   58.6979   -0.1197 C   0  0  0  0  0  0  0  0  0  0  0  0
    4.4215   59.4117    0.1150 C   0  0  0  0  0  0  0  0  0  0  0  0
    3.4576   58.8757    0.8094 N   0  0  0  0  0  0  0  0  0  0  0  0
    3.5190   57.6406    1.3131 C   0  0  0  0  0  0  0  0  0  0  0  0
    4.6728   56.8530    1.1139 C   0  0  0  0  0  0  0  0  0  0  0  0
    5.7558   57.3876    0.3786 C   0  0  0  0  0  0  0  0  0  0  0  0
    7.0118   56.9878   -0.0498 N   0  0  0  0  0  0  0  0  0  0  0  0
    4.3820   55.5866    1.7931 C   0  0  0  0  0  0  0  0  0  0  0  0
    3.1529   55.6771    2.3312 C   0  0  0  0  0  0  0  0  0  0  0  0
    2.6160   56.9006    2.0578 N   0  0  0  0  0  0  0  0  0  0  0  0
    1.7263   57.2092    2.3447 H   0  0  0  0  0  0  0  0  0  0  0  0
    7.7378   55.7216    0.1886 C   0  0  0  0  0  0  0  0  0  0  0  0
    8.7936   55.9512    1.2719 C   0  0  0  0  0  0  0  0  0  0  0  0
    9.6411   54.6871    1.4153 C   0  0  0  0  0  0  0  0  0  0  0  0
    8.7990   53.5194    1.7287 N   0  0  0  0  0  0  0  0  0  0  0  0
    7.7328   53.2989    0.7489 C   0  0  0  0  0  0  0  0  0  0  0  0
    6.8507   54.5424    0.6115 C   0  0  0  0  0  0  0  0  0  0  0  0
    8.3735   53.6627    2.6446 H   0  0  0  0  0  0  0  0  0  0  0  0
  1  2  1  0  0  0
  2 10  1  0  0  0
  3  2  2  0  0  0
  3  4  1  0  0  0
  4  9  1  0  0  0
  5  4  2  0  0  0
  5  6  1  0  0  0
  6  7  2  0  0  0
  7  8  1  0  0  0
  7 13  1  0  0  0
  8 11  1  0  0  0
  9  8  2  0  0  0
  9 10  1  0  0  0
 10 15  1  0  0  0
 15 16  1  0  0  0
 16 17  1  0  0  0
 18 17  1  0  0  0
 19 18  1  0  0  0
 20 15  1  0  0  0
 20 19  1  0  0  0
 11 12  2  0  0  0
 13 12  1  0  0  0
 18 21  1  0  0  0
 13 14  1  0  0  0
M  END
> <minimizedAffinity>
-6.68714

$$$$
4EHZ_JAK_A_1201


 21 24  0  0  0  0  0  0  0  0999 V2000
    8.3115   57.1753    0.7543 C   0  0  0  0  0  0  0  0  0  0  0  0
    7.9014   55.7266    0.9757 C   0  0  0  0  0  0  0  0  0  0  0  0
    8.7410   54.7854    1.2413 N   0  0  0  0  0  0  0  0  0  0  0  0
    8.0992   53.6145    1.3813 C   0  0  0  0  0  0  0  0  0  0  0  0
    8.5590   52.3323    1.6714 C   0  0  0  0  0  0  0  0  0  0  0  0
    7.7198   51.3379    1.7455 N   0  0  0  0  0  0  0  0  0  0  0  0
    6.4035   51.4778    1.5705 C   0  0  0  0  0  0  0  0  0  0  0  0
    5.8607   52.7470    1.2777 C   0  0  0  0  0  0  0  0  0  0  0  0
    6.7254   53.8608    1.1725 C   0  0  0  0  0  0  0  0  0  0  0  0
    6.6330   55.2217    0.9265 N   0  0  0  0  0  0  0  0  0  0  0  0
    4.4176   52.5171    1.1576 C   0  0  0  0  0  0  0  0  0  0  0  0
    4.1871   51.2089    1.3668 C   0  0  0  0  0  0  0  0  0  0  0  0
    5.3634   50.5648    1.6150 N   0  0  0  0  0  0  0  0  0  0  0  0
    5.4581   49.6019    1.7971 H   0  0  0  0  0  0  0  0  0  0  0  0
    5.4496   56.0517    0.6137 C   0  0  0  0  0  0  0  0  0  0  0  0
    4.6137   56.2229    1.8838 C   0  0  0  0  0  0  0  0  0  0  0  0
    3.3186   56.9544    1.5310 C   0  0  0  0  0  0  0  0  0  0  0  0
    3.6018   58.2546    0.8983 N   0  0  0  0  0  0  0  0  0  0  0  0
    4.4536   58.1439   -0.2883 C   0  0  0  0  0  0  0  0  0  0  0  0
    5.7716   57.4420    0.0482 C   0  0  0  0  0  0  0  0  0  0  0  0
    4.0705   58.8517    1.5796 H   0  0  0  0  0  0  0  0  0  0  0  0
  1  2  1  0  0  0
  2 10  1  0  0  0
  3  2  2  0  0  0
  3  4  1  0  0  0
  4  9  1  0  0  0
  5  4  2  0  0  0
  5  6  1  0  0  0
  6  7  2  0  0  0
  7  8  1  0  0  0
  7 13  1  0  0  0
  8 11  1  0  0  0
  9  8  2  0  0  0
  9 10  1  0  0  0
 10 15  1  0  0  0
 15 16  1  0  0  0
 16 17  1  0  0  0
 18 17  1  0  0  0
 19 18  1  0  0  0
 20 15  1  0  0  0
 20 19  1  0  0  0
 11 12  2  0  0  0
 13 12  1  0  0  0
 18 21  1  0  0  0
 13 14  1  0  0  0
M  END
> <minimizedAffinity>
-6.57236

$$$$
