3KJD_78P_A_1


 22 24  0  0  0  0  0  0  0  0999 V2000
   -2.7480   34.5085   40.0628 C   0  0  0  0  0  0  0  0  0  0  0  0
   -3.9239   34.1810   40.7319 C   0  0  0  0  0  0  0  0  0  0  0  0
   -5.1367   34.1766   40.0369 C   0  0  0  0  0  0  0  0  0  0  0  0
   -0.7821   34.9442   39.3446 C   0  0  0  0  0  0  0  0  0  0  0  0
   -5.2007   34.5162   38.6861 C   0  0  0  0  0  0  0  0  0  0  0  0
   -4.0298   34.8425   38.0438 C   0  0  0  0  0  0  0  0  0  0  0  0
   -2.8139   34.8289   38.7141 C   0  0  0  0  0  0  0  0  0  0  0  0
   -1.5718   35.0713   38.3038 N   0  0  0  0  0  0  0  0  0  0  0  0
   -1.4480   34.6238   40.4329 N   0  0  0  0  0  0  0  0  0  0  0  0
   -1.0770   34.4936   41.3355 H   0  0  0  0  0  0  0  0  0  0  0  0
    0.7142   35.2266   39.2985 C   0  0  0  0  0  0  0  0  0  0  0  0
    0.9388   37.4344   40.1557 C   0  0  0  0  0  0  0  0  0  0  0  0
    0.9786   36.1264   38.1107 C   0  0  0  0  0  0  0  0  0  0  0  0
    1.1191   36.0061   40.4909 N   0  0  0  0  0  0  0  0  0  0  0  0
    0.7569   37.5292   38.6317 C   0  0  0  0  0  0  0  0  0  0  0  0
    1.5311   33.9585   39.0950 C   0  0  0  0  0  0  0  0  0  0  0  0
    2.0964   35.8198   40.7158 H   0  0  0  0  0  0  0  0  0  0  0  0
   -3.9370   33.7901   42.2134 C   0  0  0  0  0  0  0  0  0  0  0  0
   -4.7912   34.4311   42.9862 N   0  0  0  0  0  0  0  0  0  0  0  0
   -3.1181   32.9975   42.6700 O   0  0  0  0  0  0  0  0  0  0  0  0
   -5.4363   35.0608   42.5905 H   0  0  0  0  0  0  0  0  0  0  0  0
   -4.7840   34.2801   43.9590 H   0  0  0  0  0  0  0  0  0  0  0  0
 16 11  1  0  0  0
 11 13  1  0  0  0
 11 14  1  0  0  0
 11  4  1  0  0  0
 13 15  1  0  0  0
 14 12  1  0  0  0
  8  4  2  0  0  0
  8  7  1  0  0  0
  4  9  1  0  0  0
 12 15  1  0  0  0
  9  1  1  0  0  0
  7  6  2  0  0  0
  7  1  1  0  0  0
  6  5  1  0  0  0
  1  2  2  0  0  0
  5  3  2  0  0  0
  2  3  1  0  0  0
  2 18  1  0  0  0
 19 18  1  0  0  0
 18 20  2  0  0  0
  9 10  1  0  0  0
 19 21  1  0  0  0
 19 22  1  0  0  0
 14 17  1  0  0  0
M  END
> <minimizedAffinity>
-9.36466

$$$$
3KJD_78P_A_1


 22 24  0  0  0  0  0  0  0  0999 V2000
   -4.5514   34.3879   39.7631 C   0  0  0  0  0  0  0  0  0  0  0  0
   -4.9793   33.9422   41.0104 C   0  0  0  0  0  0  0  0  0  0  0  0
   -6.2697   33.4244   41.1543 C   0  0  0  0  0  0  0  0  0  0  0  0
   -3.5847   35.1354   38.0089 C   0  0  0  0  0  0  0  0  0  0  0  0
   -7.1522   33.3637   40.0765 C   0  0  0  0  0  0  0  0  0  0  0  0
   -6.7136   33.8140   38.8539 C   0  0  0  0  0  0  0  0  0  0  0  0
   -5.4269   34.3094   38.6892 C   0  0  0  0  0  0  0  0  0  0  0  0
   -4.7811   34.7628   37.6181 N   0  0  0  0  0  0  0  0  0  0  0  0
   -3.4055   34.9459   39.2983 N   0  0  0  0  0  0  0  0  0  0  0  0
   -2.6008   35.1652   39.8214 H   0  0  0  0  0  0  0  0  0  0  0  0
   -2.5687   35.7913   37.0824 C   0  0  0  0  0  0  0  0  0  0  0  0
   -2.7711   38.1215   37.5170 C   0  0  0  0  0  0  0  0  0  0  0  0
   -3.3246   36.3847   35.9133 C   0  0  0  0  0  0  0  0  0  0  0  0
   -1.9245   36.9358   37.7668 N   0  0  0  0  0  0  0  0  0  0  0  0
   -3.7446   37.7601   36.3829 C   0  0  0  0  0  0  0  0  0  0  0  0
   -1.5769   34.7856   36.5151 C   0  0  0  0  0  0  0  0  0  0  0  0
   -0.9890   37.0878   37.3900 H   0  0  0  0  0  0  0  0  0  0  0  0
   -4.0685   33.9690   42.2423 C   0  0  0  0  0  0  0  0  0  0  0  0
   -4.6019   34.4151   43.3621 N   0  0  0  0  0  0  0  0  0  0  0  0
   -2.8759   33.6897   42.1584 O   0  0  0  0  0  0  0  0  0  0  0  0
   -5.5619   34.6306   43.3984 H   0  0  0  0  0  0  0  0  0  0  0  0
   -4.0404   34.5327   44.1622 H   0  0  0  0  0  0  0  0  0  0  0  0
 16 11  1  0  0  0
 11 13  1  0  0  0
 11 14  1  0  0  0
 11  4  1  0  0  0
 13 15  1  0  0  0
 14 12  1  0  0  0
  8  4  2  0  0  0
  8  7  1  0  0  0
  4  9  1  0  0  0
 12 15  1  0  0  0
  9  1  1  0  0  0
  7  6  2  0  0  0
  7  1  1  0  0  0
  6  5  1  0  0  0
  1  2  2  0  0  0
  5  3  2  0  0  0
  2  3  1  0  0  0
  2 18  1  0  0  0
 19 18  1  0  0  0
 18 20  2  0  0  0
  9 10  1  0  0  0
 19 21  1  0  0  0
 19 22  1  0  0  0
 14 17  1  0  0  0
M  END
> <minimizedAffinity>
-9.10611

$$$$
3KJD_78P_A_1


 22 24  0  0  0  0  0  0  0  0999 V2000
   -4.5641   34.4655   39.7603 C   0  0  0  0  0  0  0  0  0  0  0  0
   -4.9418   33.8635   40.9572 C   0  0  0  0  0  0  0  0  0  0  0  0
   -6.1588   33.1800   41.0334 C   0  0  0  0  0  0  0  0  0  0  0  0
   -3.6858   35.4765   38.0939 C   0  0  0  0  0  0  0  0  0  0  0  0
   -7.0194   33.1051   39.9389 C   0  0  0  0  0  0  0  0  0  0  0  0
   -6.6318   33.7108   38.7673 C   0  0  0  0  0  0  0  0  0  0  0  0
   -5.4156   34.3736   38.6683 C   0  0  0  0  0  0  0  0  0  0  0  0
   -4.8239   34.9947   37.6516 N   0  0  0  0  0  0  0  0  0  0  0  0
   -3.4934   35.1989   39.3653 N   0  0  0  0  0  0  0  0  0  0  0  0
   -2.7258   35.4693   39.9193 H   0  0  0  0  0  0  0  0  0  0  0  0
   -2.7529   36.3309   37.2449 C   0  0  0  0  0  0  0  0  0  0  0  0
   -1.8405   34.8234   35.6467 C   0  0  0  0  0  0  0  0  0  0  0  0
   -1.3337   36.0424   37.6844 C   0  0  0  0  0  0  0  0  0  0  0  0
   -2.8285   35.9077   35.8278 N   0  0  0  0  0  0  0  0  0  0  0  0
   -0.9176   34.8327   36.8767 C   0  0  0  0  0  0  0  0  0  0  0  0
   -2.9948   37.8198   37.4487 C   0  0  0  0  0  0  0  0  0  0  0  0
   -2.6039   36.6921   35.2156 H   0  0  0  0  0  0  0  0  0  0  0  0
   -4.0499   33.8950   42.2026 C   0  0  0  0  0  0  0  0  0  0  0  0
   -4.5852   34.3907   43.3005 N   0  0  0  0  0  0  0  0  0  0  0  0
   -2.8663   33.5735   42.1463 O   0  0  0  0  0  0  0  0  0  0  0  0
   -5.5377   34.6393   43.3149 H   0  0  0  0  0  0  0  0  0  0  0  0
   -4.0325   34.5122   44.1061 H   0  0  0  0  0  0  0  0  0  0  0  0
 16 11  1  0  0  0
 11 13  1  0  0  0
 11 14  1  0  0  0
 11  4  1  0  0  0
 13 15  1  0  0  0
 14 12  1  0  0  0
  8  4  2  0  0  0
  8  7  1  0  0  0
  4  9  1  0  0  0
 12 15  1  0  0  0
  9  1  1  0  0  0
  7  6  2  0  0  0
  7  1  1  0  0  0
  6  5  1  0  0  0
  1  2  2  0  0  0
  5  3  2  0  0  0
  2  3  1  0  0  0
  2 18  1  0  0  0
 19 18  1  0  0  0
 18 20  2  0  0  0
  9 10  1  0  0  0
 19 21  1  0  0  0
 19 22  1  0  0  0
 14 17  1  0  0  0
M  END
> <minimizedAffinity>
-8.75054

$$$$
3KJD_78P_A_1


 22 24  0  0  0  0  0  0  0  0999 V2000
   -4.1674   34.6789   39.6910 C   0  0  0  0  0  0  0  0  0  0  0  0
   -5.2168   34.1156   40.4115 C   0  0  0  0  0  0  0  0  0  0  0  0
   -6.3684   33.6942   39.7406 C   0  0  0  0  0  0  0  0  0  0  0  0
   -2.3886   35.5596   38.8970 C   0  0  0  0  0  0  0  0  0  0  0  0
   -6.5015   33.8456   38.3610 C   0  0  0  0  0  0  0  0  0  0  0  0
   -5.4570   34.4094   37.6673 C   0  0  0  0  0  0  0  0  0  0  0  0
   -4.2969   34.8118   38.3157 C   0  0  0  0  0  0  0  0  0  0  0  0
   -3.1646   35.3419   37.8609 N   0  0  0  0  0  0  0  0  0  0  0  0
   -2.9573   35.1931   40.0251 N   0  0  0  0  0  0  0  0  0  0  0  0
   -2.5802   35.2755   40.9308 H   0  0  0  0  0  0  0  0  0  0  0  0
   -1.0295   36.2404   38.7955 C   0  0  0  0  0  0  0  0  0  0  0  0
    0.3345   34.6921   37.6114 C   0  0  0  0  0  0  0  0  0  0  0  0
   -0.1146   35.6010   39.8175 C   0  0  0  0  0  0  0  0  0  0  0  0
   -0.4187   35.9568   37.4765 N   0  0  0  0  0  0  0  0  0  0  0  0
    0.4669   34.3943   39.1142 C   0  0  0  0  0  0  0  0  0  0  0  0
   -1.1056   37.7247   39.1238 C   0  0  0  0  0  0  0  0  0  0  0  0
    0.2122   36.7136   37.2127 H   0  0  0  0  0  0  0  0  0  0  0  0
   -5.1458   33.9086   41.9281 C   0  0  0  0  0  0  0  0  0  0  0  0
   -4.2089   34.5757   42.5723 N   0  0  0  0  0  0  0  0  0  0  0  0
   -5.8571   33.0819   42.4918 O   0  0  0  0  0  0  0  0  0  0  0  0
   -3.6542   35.2326   42.0928 H   0  0  0  0  0  0  0  0  0  0  0  0
   -4.0640   34.4169   43.5331 H   0  0  0  0  0  0  0  0  0  0  0  0
 16 11  1  0  0  0
 11 13  1  0  0  0
 11 14  1  0  0  0
 11  4  1  0  0  0
 13 15  1  0  0  0
 14 12  1  0  0  0
  8  4  2  0  0  0
  8  7  1  0  0  0
  4  9  1  0  0  0
 12 15  1  0  0  0
  9  1  1  0  0  0
  7  6  2  0  0  0
  7  1  1  0  0  0
  6  5  1  0  0  0
  1  2  2  0  0  0
  5  3  2  0  0  0
  2  3  1  0  0  0
  2 18  1  0  0  0
 19 18  1  0  0  0
 18 20  2  0  0  0
  9 10  1  0  0  0
 19 21  1  0  0  0
 19 22  1  0  0  0
 14 17  1  0  0  0
M  END
> <minimizedAffinity>
-7.97923

$$$$
3KJD_78P_A_1


 22 24  0  0  0  0  0  0  0  0999 V2000
   -2.2922   35.0699   36.9267 C   0  0  0  0  0  0  0  0  0  0  0  0
   -3.2627   35.1747   35.9343 C   0  0  0  0  0  0  0  0  0  0  0  0
   -4.6131   35.0447   36.2713 C   0  0  0  0  0  0  0  0  0  0  0  0
   -0.5707   34.9789   38.1909 C   0  0  0  0  0  0  0  0  0  0  0  0
   -5.0130   34.7889   37.5823 C   0  0  0  0  0  0  0  0  0  0  0  0
   -4.0398   34.6829   38.5475 C   0  0  0  0  0  0  0  0  0  0  0  0
   -2.6956   34.8326   38.2332 C   0  0  0  0  0  0  0  0  0  0  0  0
   -1.5998   34.8047   38.9869 N   0  0  0  0  0  0  0  0  0  0  0  0
   -0.9368   35.1248   36.9358 N   0  0  0  0  0  0  0  0  0  0  0  0
   -0.3454   35.2490   36.1586 H   0  0  0  0  0  0  0  0  0  0  0  0
    0.8749   34.9254   38.6688 C   0  0  0  0  0  0  0  0  0  0  0  0
    1.1149   36.8250   40.0807 C   0  0  0  0  0  0  0  0  0  0  0  0
    1.6605   35.9520   37.8818 C   0  0  0  0  0  0  0  0  0  0  0  0
    0.9564   35.3554   40.0836 N   0  0  0  0  0  0  0  0  0  0  0  0
    1.4830   37.2445   38.6478 C   0  0  0  0  0  0  0  0  0  0  0  0
    1.5154   33.5695   38.4076 C   0  0  0  0  0  0  0  0  0  0  0  0
    1.7583   34.9176   40.5371 H   0  0  0  0  0  0  0  0  0  0  0  0
   -2.9058   35.4611   34.4720 C   0  0  0  0  0  0  0  0  0  0  0  0
   -3.7505   36.2123   33.7937 N   0  0  0  0  0  0  0  0  0  0  0  0
   -1.9383   34.9277   33.9366 O   0  0  0  0  0  0  0  0  0  0  0  0
   -4.5173   36.6268   34.2511 H   0  0  0  0  0  0  0  0  0  0  0  0
   -3.6144   36.3586   32.8297 H   0  0  0  0  0  0  0  0  0  0  0  0
 16 11  1  0  0  0
 11 13  1  0  0  0
 11 14  1  0  0  0
 11  4  1  0  0  0
 13 15  1  0  0  0
 14 12  1  0  0  0
  8  4  2  0  0  0
  8  7  1  0  0  0
  4  9  1  0  0  0
 12 15  1  0  0  0
  9  1  1  0  0  0
  7  6  2  0  0  0
  7  1  1  0  0  0
  6  5  1  0  0  0
  1  2  2  0  0  0
  5  3  2  0  0  0
  2  3  1  0  0  0
  2 18  1  0  0  0
 19 18  1  0  0  0
 18 20  2  0  0  0
  9 10  1  0  0  0
 19 21  1  0  0  0
 19 22  1  0  0  0
 14 17  1  0  0  0
M  END
> <minimizedAffinity>
-7.96744

$$$$
3KJD_78P_A_1


 22 24  0  0  0  0  0  0  0  0999 V2000
   -4.3309   34.4905   39.4582 C   0  0  0  0  0  0  0  0  0  0  0  0
   -5.3413   33.9483   40.2474 C   0  0  0  0  0  0  0  0  0  0  0  0
   -5.0542   33.5372   41.5522 C   0  0  0  0  0  0  0  0  0  0  0  0
   -3.0332   35.3666   38.0027 C   0  0  0  0  0  0  0  0  0  0  0  0
   -3.7669   33.6371   42.0783 C   0  0  0  0  0  0  0  0  0  0  0  0
   -2.7809   34.1696   41.2819 C   0  0  0  0  0  0  0  0  0  0  0  0
   -3.0548   34.6043   39.9919 C   0  0  0  0  0  0  0  0  0  0  0  0
   -2.2873   35.1711   39.0649 N   0  0  0  0  0  0  0  0  0  0  0  0
   -4.2692   34.9550   38.1852 N   0  0  0  0  0  0  0  0  0  0  0  0
   -5.0028   34.9793   37.5291 H   0  0  0  0  0  0  0  0  0  0  0  0
   -2.4921   35.9227   36.6916 C   0  0  0  0  0  0  0  0  0  0  0  0
   -1.7161   38.1047   37.2356 C   0  0  0  0  0  0  0  0  0  0  0  0
   -3.5153   36.8940   36.1440 C   0  0  0  0  0  0  0  0  0  0  0  0
   -1.2733   36.7244   36.9466 N   0  0  0  0  0  0  0  0  0  0  0  0
   -3.1891   38.2138   36.8076 C   0  0  0  0  0  0  0  0  0  0  0  0
   -2.2965   34.8352   35.6447 C   0  0  0  0  0  0  0  0  0  0  0  0
   -0.6697   36.7152   36.1244 H   0  0  0  0  0  0  0  0  0  0  0  0
   -6.7825   33.8108   39.7455 C   0  0  0  0  0  0  0  0  0  0  0  0
   -7.7370   34.1496   40.5892 N   0  0  0  0  0  0  0  0  0  0  0  0
   -7.0310   33.3093   38.6528 O   0  0  0  0  0  0  0  0  0  0  0  0
   -7.5062   34.5500   41.4586 H   0  0  0  0  0  0  0  0  0  0  0  0
   -8.6805   34.0023   40.3501 H   0  0  0  0  0  0  0  0  0  0  0  0
 16 11  1  0  0  0
 11 13  1  0  0  0
 11 14  1  0  0  0
 11  4  1  0  0  0
 13 15  1  0  0  0
 14 12  1  0  0  0
  8  4  2  0  0  0
  8  7  1  0  0  0
  4  9  1  0  0  0
 12 15  1  0  0  0
  9  1  1  0  0  0
  7  6  2  0  0  0
  7  1  1  0  0  0
  6  5  1  0  0  0
  1  2  2  0  0  0
  5  3  2  0  0  0
  2  3  1  0  0  0
  2 18  1  0  0  0
 19 18  1  0  0  0
 18 20  2  0  0  0
  9 10  1  0  0  0
 19 21  1  0  0  0
 19 22  1  0  0  0
 14 17  1  0  0  0
M  END
> <minimizedAffinity>
-7.86520

$$$$
3KJD_78P_A_1


 22 24  0  0  0  0  0  0  0  0999 V2000
   -4.4076   34.4903   39.0576 C   0  0  0  0  0  0  0  0  0  0  0  0
   -4.4610   34.2737   40.4316 C   0  0  0  0  0  0  0  0  0  0  0  0
   -3.2864   34.3325   41.1871 C   0  0  0  0  0  0  0  0  0  0  0  0
   -4.6779   34.7846   36.9575 C   0  0  0  0  0  0  0  0  0  0  0  0
   -2.0512   34.5825   40.5906 C   0  0  0  0  0  0  0  0  0  0  0  0
   -2.0176   34.7881   39.2318 C   0  0  0  0  0  0  0  0  0  0  0  0
   -3.1785   34.7561   38.4706 C   0  0  0  0  0  0  0  0  0  0  0  0
   -3.3941   34.9531   37.1727 N   0  0  0  0  0  0  0  0  0  0  0  0
   -5.3282   34.4856   38.0613 N   0  0  0  0  0  0  0  0  0  0  0  0
   -6.2905   34.2963   38.1471 H   0  0  0  0  0  0  0  0  0  0  0  0
   -5.3085   34.8433   35.5719 C   0  0  0  0  0  0  0  0  0  0  0  0
   -3.5012   35.3395   34.1065 C   0  0  0  0  0  0  0  0  0  0  0  0
   -5.4499   36.3008   35.1897 C   0  0  0  0  0  0  0  0  0  0  0  0
   -4.3890   34.2532   34.5720 N   0  0  0  0  0  0  0  0  0  0  0  0
   -4.1194   36.6688   34.5707 C   0  0  0  0  0  0  0  0  0  0  0  0
   -6.7029   34.2335   35.5501 C   0  0  0  0  0  0  0  0  0  0  0  0
   -4.9205   33.8750   33.7879 H   0  0  0  0  0  0  0  0  0  0  0  0
   -5.7793   33.9997   41.1630 C   0  0  0  0  0  0  0  0  0  0  0  0
   -5.7154   33.2204   42.2243 N   0  0  0  0  0  0  0  0  0  0  0  0
   -6.8504   34.4005   40.7164 O   0  0  0  0  0  0  0  0  0  0  0  0
   -4.8413   32.9151   42.5590 H   0  0  0  0  0  0  0  0  0  0  0  0
   -6.5419   32.9436   42.6822 H   0  0  0  0  0  0  0  0  0  0  0  0
 16 11  1  0  0  0
 11 13  1  0  0  0
 11 14  1  0  0  0
 11  4  1  0  0  0
 13 15  1  0  0  0
 14 12  1  0  0  0
  8  4  2  0  0  0
  8  7  1  0  0  0
  4  9  1  0  0  0
 12 15  1  0  0  0
  9  1  1  0  0  0
  7  6  2  0  0  0
  7  1  1  0  0  0
  6  5  1  0  0  0
  1  2  2  0  0  0
  5  3  2  0  0  0
  2  3  1  0  0  0
  2 18  1  0  0  0
 19 18  1  0  0  0
 18 20  2  0  0  0
  9 10  1  0  0  0
 19 21  1  0  0  0
 19 22  1  0  0  0
 14 17  1  0  0  0
M  END
> <minimizedAffinity>
-7.70929

$$$$
3KJD_78P_A_1


 22 24  0  0  0  0  0  0  0  0999 V2000
   -4.6082   34.5032   38.7355 C   0  0  0  0  0  0  0  0  0  0  0  0
   -5.8902   34.1403   38.3325 C   0  0  0  0  0  0  0  0  0  0  0  0
   -6.8388   33.7739   39.2916 C   0  0  0  0  0  0  0  0  0  0  0  0
   -2.5801   35.1212   39.0100 C   0  0  0  0  0  0  0  0  0  0  0  0
   -6.5234   33.7414   40.6493 C   0  0  0  0  0  0  0  0  0  0  0  0
   -5.2506   34.0974   41.0276 C   0  0  0  0  0  0  0  0  0  0  0  0
   -4.3037   34.4863   40.0894 C   0  0  0  0  0  0  0  0  0  0  0  0
   -3.0445   34.8961   40.2170 N   0  0  0  0  0  0  0  0  0  0  0  0
   -3.4808   34.8804   38.0820 N   0  0  0  0  0  0  0  0  0  0  0  0
   -3.3607   34.9583   37.1079 H   0  0  0  0  0  0  0  0  0  0  0  0
   -1.1383   35.5263   38.7307 C   0  0  0  0  0  0  0  0  0  0  0  0
   -1.2704   37.8050   38.0601 C   0  0  0  0  0  0  0  0  0  0  0  0
   -0.9463   35.5466   37.2297 C   0  0  0  0  0  0  0  0  0  0  0  0
   -0.9065   36.9169   39.1842 N   0  0  0  0  0  0  0  0  0  0  0  0
   -1.3894   36.9285   36.8022 C   0  0  0  0  0  0  0  0  0  0  0  0
   -0.1413   34.5269   39.2999 C   0  0  0  0  0  0  0  0  0  0  0  0
    0.0752   37.0463   39.4291 H   0  0  0  0  0  0  0  0  0  0  0  0
   -6.3173   34.1564   36.8610 C   0  0  0  0  0  0  0  0  0  0  0  0
   -7.0442   33.1382   36.4455 N   0  0  0  0  0  0  0  0  0  0  0  0
   -5.9103   35.0202   36.0894 O   0  0  0  0  0  0  0  0  0  0  0  0
   -7.3561   32.4611   37.0885 H   0  0  0  0  0  0  0  0  0  0  0  0
   -7.2751   33.0549   35.4921 H   0  0  0  0  0  0  0  0  0  0  0  0
 16 11  1  0  0  0
 11 13  1  0  0  0
 11 14  1  0  0  0
 11  4  1  0  0  0
 13 15  1  0  0  0
 14 12  1  0  0  0
  8  4  2  0  0  0
  8  7  1  0  0  0
  4  9  1  0  0  0
 12 15  1  0  0  0
  9  1  1  0  0  0
  7  6  2  0  0  0
  7  1  1  0  0  0
  6  5  1  0  0  0
  1  2  2  0  0  0
  5  3  2  0  0  0
  2  3  1  0  0  0
  2 18  1  0  0  0
 19 18  1  0  0  0
 18 20  2  0  0  0
  9 10  1  0  0  0
 19 21  1  0  0  0
 19 22  1  0  0  0
 14 17  1  0  0  0
M  END
> <minimizedAffinity>
-7.67806

$$$$
3KJD_78P_A_1


 22 24  0  0  0  0  0  0  0  0999 V2000
    0.5293   38.8834   39.8247 C   0  0  0  0  0  0  0  0  0  0  0  0
    0.3205   40.2587   39.7734 C   0  0  0  0  0  0  0  0  0  0  0  0
    1.1045   41.1069   40.5607 C   0  0  0  0  0  0  0  0  0  0  0  0
    0.5975   36.7534   39.6549 C   0  0  0  0  0  0  0  0  0  0  0  0
    2.0819   40.6040   41.4185 C   0  0  0  0  0  0  0  0  0  0  0  0
    2.2696   39.2427   41.4598 C   0  0  0  0  0  0  0  0  0  0  0  0
    1.5151   38.3883   40.6667 C   0  0  0  0  0  0  0  0  0  0  0  0
    1.5383   37.0669   40.5149 N   0  0  0  0  0  0  0  0  0  0  0  0
   -0.0509   37.8140   39.2245 N   0  0  0  0  0  0  0  0  0  0  0  0
   -0.8061   37.8288   38.5932 H   0  0  0  0  0  0  0  0  0  0  0  0
    0.2518   35.3178   39.2798 C   0  0  0  0  0  0  0  0  0  0  0  0
    2.3516   34.2091   39.1351 C   0  0  0  0  0  0  0  0  0  0  0  0
    0.5464   35.1414   37.8059 C   0  0  0  0  0  0  0  0  0  0  0  0
    1.1544   34.3791   39.9851 N   0  0  0  0  0  0  0  0  0  0  0  0
    2.0132   34.7756   37.7462 C   0  0  0  0  0  0  0  0  0  0  0  0
   -1.2250   35.0114   39.4849 C   0  0  0  0  0  0  0  0  0  0  0  0
    0.6899   33.4810   40.1195 H   0  0  0  0  0  0  0  0  0  0  0  0
   -0.7287   40.8901   38.8524 C   0  0  0  0  0  0  0  0  0  0  0  0
   -0.3538   41.9555   38.1726 N   0  0  0  0  0  0  0  0  0  0  0  0
   -1.8873   40.4845   38.8350 O   0  0  0  0  0  0  0  0  0  0  0  0
    0.5829   42.2565   38.2064 H   0  0  0  0  0  0  0  0  0  0  0  0
   -1.0106   42.4500   37.6310 H   0  0  0  0  0  0  0  0  0  0  0  0
 16 11  1  0  0  0
 11 13  1  0  0  0
 11 14  1  0  0  0
 11  4  1  0  0  0
 13 15  1  0  0  0
 14 12  1  0  0  0
  8  4  2  0  0  0
  8  7  1  0  0  0
  4  9  1  0  0  0
 12 15  1  0  0  0
  9  1  1  0  0  0
  7  6  2  0  0  0
  7  1  1  0  0  0
  6  5  1  0  0  0
  1  2  2  0  0  0
  5  3  2  0  0  0
  2  3  1  0  0  0
  2 18  1  0  0  0
 19 18  1  0  0  0
 18 20  2  0  0  0
  9 10  1  0  0  0
 19 21  1  0  0  0
 19 22  1  0  0  0
 14 17  1  0  0  0
M  END
> <minimizedAffinity>
-7.67614

$$$$
3KJD_78P_A_1


 22 24  0  0  0  0  0  0  0  0999 V2000
   -4.5390   35.9305   36.6976 C   0  0  0  0  0  0  0  0  0  0  0  0
   -5.6130   35.0565   36.5550 C   0  0  0  0  0  0  0  0  0  0  0  0
   -6.3600   35.0661   35.3735 C   0  0  0  0  0  0  0  0  0  0  0  0
   -2.8410   37.1149   37.2307 C   0  0  0  0  0  0  0  0  0  0  0  0
   -6.0673   35.9510   34.3365 C   0  0  0  0  0  0  0  0  0  0  0  0
   -5.0067   36.8105   34.4981 C   0  0  0  0  0  0  0  0  0  0  0  0
   -4.2403   36.7975   35.6560 C   0  0  0  0  0  0  0  0  0  0  0  0
   -3.1692   37.4980   36.0189 N   0  0  0  0  0  0  0  0  0  0  0  0
   -3.6493   36.1841   37.6898 N   0  0  0  0  0  0  0  0  0  0  0  0
   -3.6154   35.7571   38.5762 H   0  0  0  0  0  0  0  0  0  0  0  0
   -1.7095   37.7483   38.0305 C   0  0  0  0  0  0  0  0  0  0  0  0
   -2.7986   39.1766   39.5904 C   0  0  0  0  0  0  0  0  0  0  0  0
   -1.5217   39.1625   37.5254 C   0  0  0  0  0  0  0  0  0  0  0  0
   -2.1055   37.8785   39.4516 N   0  0  0  0  0  0  0  0  0  0  0  0
   -2.5095   39.9902   38.3179 C   0  0  0  0  0  0  0  0  0  0  0  0
   -0.3885   37.0188   37.8317 C   0  0  0  0  0  0  0  0  0  0  0  0
   -1.2789   37.8572   40.0488 H   0  0  0  0  0  0  0  0  0  0  0  0
   -5.9950   34.0496   37.6449 C   0  0  0  0  0  0  0  0  0  0  0  0
   -6.7791   33.0543   37.2814 N   0  0  0  0  0  0  0  0  0  0  0  0
   -5.6720   34.2261   38.8162 O   0  0  0  0  0  0  0  0  0  0  0  0
   -7.0207   32.9386   36.3340 H   0  0  0  0  0  0  0  0  0  0  0  0
   -7.1233   32.4266   37.9573 H   0  0  0  0  0  0  0  0  0  0  0  0
 16 11  1  0  0  0
 11 13  1  0  0  0
 11 14  1  0  0  0
 11  4  1  0  0  0
 13 15  1  0  0  0
 14 12  1  0  0  0
  8  4  2  0  0  0
  8  7  1  0  0  0
  4  9  1  0  0  0
 12 15  1  0  0  0
  9  1  1  0  0  0
  7  6  2  0  0  0
  7  1  1  0  0  0
  6  5  1  0  0  0
  1  2  2  0  0  0
  5  3  2  0  0  0
  2  3  1  0  0  0
  2 18  1  0  0  0
 19 18  1  0  0  0
 18 20  2  0  0  0
  9 10  1  0  0  0
 19 21  1  0  0  0
 19 22  1  0  0  0
 14 17  1  0  0  0
M  END
> <minimizedAffinity>
-7.53242

$$$$
