3ZHX_FM6_A_501


 28 29  0  0  0  0  0  0  0  0999 V2000
   19.5134   20.0108  -19.5556 C   0  0  0  0  0  0  0  0  0  0  0  0
   19.6610   20.9594  -17.1968 C   0  0  0  0  0  0  0  0  0  0  0  0
   20.3981   21.5551  -16.1740 C   0  0  0  0  0  0  0  0  0  0  0  0
   19.5553   21.9358  -14.7073 Cl  0  0  0  0  0  0  0  0  0  0  0  0
   21.7700   21.8224  -16.3660 C   0  0  0  0  0  0  0  0  0  0  0  0
   22.7588   22.5638  -15.1532 Cl  0  0  0  0  0  0  0  0  0  0  0  0
   22.3937   21.4915  -17.5694 C   0  0  0  0  0  0  0  0  0  0  0  0
   21.6515   20.9003  -18.5868 C   0  0  0  0  0  0  0  0  0  0  0  0
   20.2955   20.6248  -18.3924 C   0  0  0  0  0  0  0  0  0  0  0  0
   19.7600   18.2035  -19.7172 P   0  0  0  0  0  0  0  0  0  0  0  0
   20.7175   17.7536  -18.6330 O   0  0  0  0  0  0  0  0  0  0  0  0
   18.4201   17.5285  -19.5376 O   0  0  0  0  0  0  0  0  0  0  0  0
   20.3440   17.8468  -21.0600 O   0  0  0  0  0  0  0  0  0  0  0  0
   20.3506   17.9788  -17.7638 H   0  0  0  0  0  0  0  0  0  0  0  0
   18.0529   17.7641  -18.6713 H   0  0  0  0  0  0  0  0  0  0  0  0
   18.0387   20.4328  -19.4104 C   0  0  0  0  0  0  0  0  0  0  0  0
   17.7166   21.6652  -20.3153 C   0  0  0  0  0  0  0  0  0  0  0  0
   17.1613   22.7320  -19.4506 N   0  0  0  0  0  0  0  0  0  0  0  0
   15.8577   22.5775  -19.1418 O   0  0  0  0  0  0  0  0  0  0  0  0
   17.7900   23.8253  -18.9686 C   0  0  0  0  0  0  0  0  0  0  0  0
   17.2161   24.6533  -18.2678 O   0  0  0  0  0  0  0  0  0  0  0  0
   15.5246   21.7603  -19.5445 H   0  0  0  0  0  0  0  0  0  0  0  0
   19.2850   24.0561  -19.2393 C   0  0  0  0  0  0  0  0  0  0  0  0
   20.1080   24.5928  -18.2382 C   0  0  0  0  0  0  0  0  0  0  0  0
   21.4613   24.8272  -18.4938 C   0  0  0  0  0  0  0  0  0  0  0  0
   21.9787   24.5595  -19.7645 C   0  0  0  0  0  0  0  0  0  0  0  0
   21.1547   24.0507  -20.7692 C   0  0  0  0  0  0  0  0  0  0  0  0
   19.8040   23.8119  -20.5136 C   0  0  0  0  0  0  0  0  0  0  0  0
  2  3  1  0  0  0
  2  9  2  0  0  0
  3  4  1  0  0  0
  3  5  2  0  0  0
  5  6  1  0  0  0
  5  7  1  0  0  0
  7  8  2  0  0  0
  8  9  1  0  0  0
  9  1  1  0  0  0
  1 10  1  0  0  0
  1 16  1  0  0  0
 10 11  1  0  0  0
 10 12  1  0  0  0
 10 13  2  0  0  0
 16 17  1  0  0  0
 17 18  1  0  0  0
 18 19  1  0  0  0
 18 20  1  0  0  0
 20 21  2  0  0  0
 20 23  1  0  0  0
 23 24  1  0  0  0
 23 28  2  0  0  0
 24 25  2  0  0  0
 25 26  1  0  0  0
 26 27  2  0  0  0
 27 28  1  0  0  0
 11 14  1  0  0  0
 12 15  1  0  0  0
 19 22  1  0  0  0
M  END
> <minimizedAffinity>
-7.15340

$$$$
3ZHX_FM6_A_501


 28 29  0  0  0  0  0  0  0  0999 V2000
   20.8212   22.2680  -15.1332 C   0  0  0  0  0  0  0  0  0  0  0  0
   20.2645   24.3368  -16.5100 C   0  0  0  0  0  0  0  0  0  0  0  0
   19.3525   25.0957  -17.2426 C   0  0  0  0  0  0  0  0  0  0  0  0
   19.9131   26.6052  -17.8858 Cl  0  0  0  0  0  0  0  0  0  0  0  0
   18.0372   24.6202  -17.4275 C   0  0  0  0  0  0  0  0  0  0  0  0
   16.8397   25.4991  -18.3173 Cl  0  0  0  0  0  0  0  0  0  0  0  0
   17.6449   23.3957  -16.8860 C   0  0  0  0  0  0  0  0  0  0  0  0
   18.5590   22.6451  -16.1536 C   0  0  0  0  0  0  0  0  0  0  0  0
   19.8651   23.1104  -15.9804 C   0  0  0  0  0  0  0  0  0  0  0  0
   20.3879   22.2542  -13.3540 P   0  0  0  0  0  0  0  0  0  0  0  0
   19.5160   21.0452  -13.0846 O   0  0  0  0  0  0  0  0  0  0  0  0
   21.6693   22.1563  -12.5591 O   0  0  0  0  0  0  0  0  0  0  0  0
   19.6299   23.4969  -12.9637 O   0  0  0  0  0  0  0  0  0  0  0  0
   19.9952   20.2392  -13.3327 H   0  0  0  0  0  0  0  0  0  0  0  0
   22.1494   21.3540  -12.8174 H   0  0  0  0  0  0  0  0  0  0  0  0
   20.9092   20.8673  -15.7689 C   0  0  0  0  0  0  0  0  0  0  0  0
   21.9923   20.8295  -16.8944 C   0  0  0  0  0  0  0  0  0  0  0  0
   21.7843   19.5943  -17.6850 N   0  0  0  0  0  0  0  0  0  0  0  0
   22.5257   18.5425  -17.2816 O   0  0  0  0  0  0  0  0  0  0  0  0
   20.9751   19.4135  -18.7506 C   0  0  0  0  0  0  0  0  0  0  0  0
   20.8975   18.3384  -19.3372 O   0  0  0  0  0  0  0  0  0  0  0  0
   23.0599   18.7990  -16.5137 H   0  0  0  0  0  0  0  0  0  0  0  0
   20.0666   20.5482  -19.2496 C   0  0  0  0  0  0  0  0  0  0  0  0
   18.6844   20.3427  -19.3714 C   0  0  0  0  0  0  0  0  0  0  0  0
   17.8629   21.3660  -19.8504 C   0  0  0  0  0  0  0  0  0  0  0  0
   18.4331   22.5803  -20.2430 C   0  0  0  0  0  0  0  0  0  0  0  0
   19.8114   22.7765  -20.1473 C   0  0  0  0  0  0  0  0  0  0  0  0
   20.6323   21.7566  -19.6648 C   0  0  0  0  0  0  0  0  0  0  0  0
  2  3  1  0  0  0
  2  9  2  0  0  0
  3  4  1  0  0  0
  3  5  2  0  0  0
  5  6  1  0  0  0
  5  7  1  0  0  0
  7  8  2  0  0  0
  8  9  1  0  0  0
  9  1  1  0  0  0
  1 10  1  0  0  0
  1 16  1  0  0  0
 10 11  1  0  0  0
 10 12  1  0  0  0
 10 13  2  0  0  0
 16 17  1  0  0  0
 17 18  1  0  0  0
 18 19  1  0  0  0
 18 20  1  0  0  0
 20 21  2  0  0  0
 20 23  1  0  0  0
 23 24  1  0  0  0
 23 28  2  0  0  0
 24 25  2  0  0  0
 25 26  1  0  0  0
 26 27  2  0  0  0
 27 28  1  0  0  0
 11 14  1  0  0  0
 12 15  1  0  0  0
 19 22  1  0  0  0
M  END
> <minimizedAffinity>
-6.97456

$$$$
3ZHX_FM6_A_501


 28 29  0  0  0  0  0  0  0  0999 V2000
   21.6260   20.8325  -18.2422 C   0  0  0  0  0  0  0  0  0  0  0  0
   23.2197   22.8012  -18.5055 C   0  0  0  0  0  0  0  0  0  0  0  0
   23.7789   23.9815  -18.0171 C   0  0  0  0  0  0  0  0  0  0  0  0
   24.9917   24.7469  -18.9917 Cl  0  0  0  0  0  0  0  0  0  0  0  0
   23.3496   24.4966  -16.7759 C   0  0  0  0  0  0  0  0  0  0  0  0
   23.9933   25.9514  -16.0920 Cl  0  0  0  0  0  0  0  0  0  0  0  0
   22.3679   23.8356  -16.0369 C   0  0  0  0  0  0  0  0  0  0  0  0
   21.8165   22.6568  -16.5287 C   0  0  0  0  0  0  0  0  0  0  0  0
   22.2332   22.1529  -17.7635 C   0  0  0  0  0  0  0  0  0  0  0  0
   22.3531   19.3647  -17.4235 P   0  0  0  0  0  0  0  0  0  0  0  0
   21.9219   18.1296  -18.1872 O   0  0  0  0  0  0  0  0  0  0  0  0
   23.8574   19.5005  -17.4650 O   0  0  0  0  0  0  0  0  0  0  0  0
   21.8831   19.2426  -15.9967 O   0  0  0  0  0  0  0  0  0  0  0  0
   22.2198   18.1983  -19.1078 H   0  0  0  0  0  0  0  0  0  0  0  0
   24.1497   19.5784  -18.3866 H   0  0  0  0  0  0  0  0  0  0  0  0
   20.0951   20.9359  -18.1016 C   0  0  0  0  0  0  0  0  0  0  0  0
   19.3793   20.4737  -19.4112 C   0  0  0  0  0  0  0  0  0  0  0  0
   18.0380   21.1014  -19.4427 N   0  0  0  0  0  0  0  0  0  0  0  0
   17.0132   20.2340  -19.3160 O   0  0  0  0  0  0  0  0  0  0  0  0
   17.7327   22.4068  -19.6032 C   0  0  0  0  0  0  0  0  0  0  0  0
   16.5733   22.8085  -19.6271 O   0  0  0  0  0  0  0  0  0  0  0  0
   17.3619   19.3353  -19.2078 H   0  0  0  0  0  0  0  0  0  0  0  0
   18.8407   23.4658  -19.7139 C   0  0  0  0  0  0  0  0  0  0  0  0
   19.6594   23.5131  -20.8520 C   0  0  0  0  0  0  0  0  0  0  0  0
   20.6837   24.4589  -20.9401 C   0  0  0  0  0  0  0  0  0  0  0  0
   20.9104   25.3304  -19.8710 C   0  0  0  0  0  0  0  0  0  0  0  0
   20.1136   25.2665  -18.7272 C   0  0  0  0  0  0  0  0  0  0  0  0
   19.0874   24.3251  -18.6400 C   0  0  0  0  0  0  0  0  0  0  0  0
  2  3  1  0  0  0
  2  9  2  0  0  0
  3  4  1  0  0  0
  3  5  2  0  0  0
  5  6  1  0  0  0
  5  7  1  0  0  0
  7  8  2  0  0  0
  8  9  1  0  0  0
  9  1  1  0  0  0
  1 10  1  0  0  0
  1 16  1  0  0  0
 10 11  1  0  0  0
 10 12  1  0  0  0
 10 13  2  0  0  0
 16 17  1  0  0  0
 17 18  1  0  0  0
 18 19  1  0  0  0
 18 20  1  0  0  0
 20 21  2  0  0  0
 20 23  1  0  0  0
 23 24  1  0  0  0
 23 28  2  0  0  0
 24 25  2  0  0  0
 25 26  1  0  0  0
 26 27  2  0  0  0
 27 28  1  0  0  0
 11 14  1  0  0  0
 12 15  1  0  0  0
 19 22  1  0  0  0
M  END
> <minimizedAffinity>
-6.58885

$$$$
3ZHX_FM6_A_501


 28 29  0  0  0  0  0  0  0  0999 V2000
   20.9188   21.3387  -17.6179 C   0  0  0  0  0  0  0  0  0  0  0  0
   20.5775   23.6314  -16.5634 C   0  0  0  0  0  0  0  0  0  0  0  0
   19.8595   24.4865  -15.7280 C   0  0  0  0  0  0  0  0  0  0  0  0
   20.4528   26.1063  -15.5527 Cl  0  0  0  0  0  0  0  0  0  0  0  0
   18.7053   24.0130  -15.0694 C   0  0  0  0  0  0  0  0  0  0  0  0
   17.7580   25.0033  -14.0108 Cl  0  0  0  0  0  0  0  0  0  0  0  0
   18.2761   22.6980  -15.2513 C   0  0  0  0  0  0  0  0  0  0  0  0
   18.9988   21.8494  -16.0837 C   0  0  0  0  0  0  0  0  0  0  0  0
   20.1354   22.3217  -16.7453 C   0  0  0  0  0  0  0  0  0  0  0  0
   22.0870   20.2995  -16.6646 P   0  0  0  0  0  0  0  0  0  0  0  0
   21.3604   19.0451  -16.2250 O   0  0  0  0  0  0  0  0  0  0  0  0
   23.2417   19.9390  -17.5700 O   0  0  0  0  0  0  0  0  0  0  0  0
   22.5929   21.0217  -15.4423 O   0  0  0  0  0  0  0  0  0  0  0  0
   21.0305   18.5724  -17.0051 H   0  0  0  0  0  0  0  0  0  0  0  0
   22.9061   19.4750  -18.3529 H   0  0  0  0  0  0  0  0  0  0  0  0
   19.9048   20.5365  -18.4560 C   0  0  0  0  0  0  0  0  0  0  0  0
   19.3335   21.4024  -19.6243 C   0  0  0  0  0  0  0  0  0  0  0  0
   17.8624   21.4685  -19.4647 N   0  0  0  0  0  0  0  0  0  0  0  0
   17.2396   20.2745  -19.5357 O   0  0  0  0  0  0  0  0  0  0  0  0
   17.0923   22.5627  -19.2844 C   0  0  0  0  0  0  0  0  0  0  0  0
   15.8716   22.4925  -19.1786 O   0  0  0  0  0  0  0  0  0  0  0  0
   17.8976   19.5737  -19.6654 H   0  0  0  0  0  0  0  0  0  0  0  0
   17.7253   23.9568  -19.1517 C   0  0  0  0  0  0  0  0  0  0  0  0
   18.9139   24.2588  -19.8325 C   0  0  0  0  0  0  0  0  0  0  0  0
   19.5030   25.5175  -19.6902 C   0  0  0  0  0  0  0  0  0  0  0  0
   18.9207   26.4579  -18.8356 C   0  0  0  0  0  0  0  0  0  0  0  0
   17.7528   26.1490  -18.1371 C   0  0  0  0  0  0  0  0  0  0  0  0
   17.1611   24.8938  -18.2820 C   0  0  0  0  0  0  0  0  0  0  0  0
  2  3  1  0  0  0
  2  9  2  0  0  0
  3  4  1  0  0  0
  3  5  2  0  0  0
  5  6  1  0  0  0
  5  7  1  0  0  0
  7  8  2  0  0  0
  8  9  1  0  0  0
  9  1  1  0  0  0
  1 10  1  0  0  0
  1 16  1  0  0  0
 10 11  1  0  0  0
 10 12  1  0  0  0
 10 13  2  0  0  0
 16 17  1  0  0  0
 17 18  1  0  0  0
 18 19  1  0  0  0
 18 20  1  0  0  0
 20 21  2  0  0  0
 20 23  1  0  0  0
 23 24  1  0  0  0
 23 28  2  0  0  0
 24 25  2  0  0  0
 25 26  1  0  0  0
 26 27  2  0  0  0
 27 28  1  0  0  0
 11 14  1  0  0  0
 12 15  1  0  0  0
 19 22  1  0  0  0
M  END
> <minimizedAffinity>
-6.56022

$$$$
3ZHX_FM6_A_501


 28 29  0  0  0  0  0  0  0  0999 V2000
   21.4318   21.5421  -17.0753 C   0  0  0  0  0  0  0  0  0  0  0  0
   23.0593   23.4801  -16.7917 C   0  0  0  0  0  0  0  0  0  0  0  0
   24.0639   24.3034  -17.2993 C   0  0  0  0  0  0  0  0  0  0  0  0
   24.6461   25.5709  -16.2694 Cl  0  0  0  0  0  0  0  0  0  0  0  0
   24.5566   24.0818  -18.6025 C   0  0  0  0  0  0  0  0  0  0  0  0
   25.7975   25.0581  -19.3135 Cl  0  0  0  0  0  0  0  0  0  0  0  0
   24.0487   23.0436  -19.3841 C   0  0  0  0  0  0  0  0  0  0  0  0
   23.0443   22.2281  -18.8726 C   0  0  0  0  0  0  0  0  0  0  0  0
   22.5646   22.4400  -17.5775 C   0  0  0  0  0  0  0  0  0  0  0  0
   21.9457   19.8019  -16.8277 P   0  0  0  0  0  0  0  0  0  0  0  0
   23.2746   19.7956  -16.1006 O   0  0  0  0  0  0  0  0  0  0  0  0
   20.8929   19.1159  -15.9887 O   0  0  0  0  0  0  0  0  0  0  0  0
   22.1081   19.0848  -18.1433 O   0  0  0  0  0  0  0  0  0  0  0  0
   23.1808   20.2553  -15.2516 H   0  0  0  0  0  0  0  0  0  0  0  0
   20.7959   19.5845  -15.1449 H   0  0  0  0  0  0  0  0  0  0  0  0
   20.8240   22.2015  -15.8225 C   0  0  0  0  0  0  0  0  0  0  0  0
   19.4371   22.8448  -16.1446 C   0  0  0  0  0  0  0  0  0  0  0  0
   18.6395   21.8521  -16.9012 N   0  0  0  0  0  0  0  0  0  0  0  0
   18.1925   20.8161  -16.1625 O   0  0  0  0  0  0  0  0  0  0  0  0
   18.3371   21.8548  -18.2171 C   0  0  0  0  0  0  0  0  0  0  0  0
   17.6750   20.9620  -18.7372 O   0  0  0  0  0  0  0  0  0  0  0  0
   18.4737   20.9308  -15.2412 H   0  0  0  0  0  0  0  0  0  0  0  0
   18.7728   23.0182  -19.1217 C   0  0  0  0  0  0  0  0  0  0  0  0
   19.7541   22.8182  -20.1038 C   0  0  0  0  0  0  0  0  0  0  0  0
   20.1687   23.8827  -20.9078 C   0  0  0  0  0  0  0  0  0  0  0  0
   19.6270   25.1545  -20.7001 C   0  0  0  0  0  0  0  0  0  0  0  0
   18.6701   25.3602  -19.7055 C   0  0  0  0  0  0  0  0  0  0  0  0
   18.2520   24.2967  -18.9049 C   0  0  0  0  0  0  0  0  0  0  0  0
  2  3  1  0  0  0
  2  9  2  0  0  0
  3  4  1  0  0  0
  3  5  2  0  0  0
  5  6  1  0  0  0
  5  7  1  0  0  0
  7  8  2  0  0  0
  8  9  1  0  0  0
  9  1  1  0  0  0
  1 10  1  0  0  0
  1 16  1  0  0  0
 10 11  1  0  0  0
 10 12  1  0  0  0
 10 13  2  0  0  0
 16 17  1  0  0  0
 17 18  1  0  0  0
 18 19  1  0  0  0
 18 20  1  0  0  0
 20 21  2  0  0  0
 20 23  1  0  0  0
 23 24  1  0  0  0
 23 28  2  0  0  0
 24 25  2  0  0  0
 25 26  1  0  0  0
 26 27  2  0  0  0
 27 28  1  0  0  0
 11 14  1  0  0  0
 12 15  1  0  0  0
 19 22  1  0  0  0
M  END
> <minimizedAffinity>
-6.55292

$$$$
3ZHX_FM6_A_501


 28 29  0  0  0  0  0  0  0  0999 V2000
   20.0633   22.3226  -15.3204 C   0  0  0  0  0  0  0  0  0  0  0  0
   18.2287   22.9076  -16.9870 C   0  0  0  0  0  0  0  0  0  0  0  0
   17.5181   23.8539  -17.7246 C   0  0  0  0  0  0  0  0  0  0  0  0
   16.2768   23.2654  -18.7826 Cl  0  0  0  0  0  0  0  0  0  0  0  0
   17.8292   25.2231  -17.5883 C   0  0  0  0  0  0  0  0  0  0  0  0
   17.0024   26.4639  -18.4688 Cl  0  0  0  0  0  0  0  0  0  0  0  0
   18.8392   25.6361  -16.7188 C   0  0  0  0  0  0  0  0  0  0  0  0
   19.5463   24.6865  -15.9883 C   0  0  0  0  0  0  0  0  0  0  0  0
   19.2303   23.3312  -16.1144 C   0  0  0  0  0  0  0  0  0  0  0  0
   19.7395   22.3780  -13.5189 P   0  0  0  0  0  0  0  0  0  0  0  0
   18.3196   22.8599  -13.3038 O   0  0  0  0  0  0  0  0  0  0  0  0
   19.9009   20.9798  -12.9693 O   0  0  0  0  0  0  0  0  0  0  0  0
   20.6841   23.3217  -12.8199 O   0  0  0  0  0  0  0  0  0  0  0  0
   17.7030   22.2587  -13.7502 H   0  0  0  0  0  0  0  0  0  0  0  0
   19.2893   20.3806  -13.4251 H   0  0  0  0  0  0  0  0  0  0  0  0
   19.8553   20.9333  -15.9533 C   0  0  0  0  0  0  0  0  0  0  0  0
   21.2228   20.2799  -16.3331 C   0  0  0  0  0  0  0  0  0  0  0  0
   21.8049   21.0591  -17.4503 N   0  0  0  0  0  0  0  0  0  0  0  0
   22.8302   21.8606  -17.0965 O   0  0  0  0  0  0  0  0  0  0  0  0
   21.4200   21.0750  -18.7444 C   0  0  0  0  0  0  0  0  0  0  0  0
   21.9751   21.7788  -19.5826 O   0  0  0  0  0  0  0  0  0  0  0  0
   23.0085   21.7581  -16.1485 H   0  0  0  0  0  0  0  0  0  0  0  0
   20.2873   20.1620  -19.2392 C   0  0  0  0  0  0  0  0  0  0  0  0
   18.9844   20.6642  -19.3724 C   0  0  0  0  0  0  0  0  0  0  0  0
   17.9500   19.8267  -19.7967 C   0  0  0  0  0  0  0  0  0  0  0  0
   18.2157   18.4778  -20.0496 C   0  0  0  0  0  0  0  0  0  0  0  0
   19.5062   17.9710  -19.8917 C   0  0  0  0  0  0  0  0  0  0  0  0
   20.5410   18.8077  -19.4722 C   0  0  0  0  0  0  0  0  0  0  0  0
  2  3  1  0  0  0
  2  9  2  0  0  0
  3  4  1  0  0  0
  3  5  2  0  0  0
  5  6  1  0  0  0
  5  7  1  0  0  0
  7  8  2  0  0  0
  8  9  1  0  0  0
  9  1  1  0  0  0
  1 10  1  0  0  0
  1 16  1  0  0  0
 10 11  1  0  0  0
 10 12  1  0  0  0
 10 13  2  0  0  0
 16 17  1  0  0  0
 17 18  1  0  0  0
 18 19  1  0  0  0
 18 20  1  0  0  0
 20 21  2  0  0  0
 20 23  1  0  0  0
 23 24  1  0  0  0
 23 28  2  0  0  0
 24 25  2  0  0  0
 25 26  1  0  0  0
 26 27  2  0  0  0
 27 28  1  0  0  0
 11 14  1  0  0  0
 12 15  1  0  0  0
 19 22  1  0  0  0
M  END
> <minimizedAffinity>
-6.51197

$$$$
3ZHX_FM6_A_501


 28 29  0  0  0  0  0  0  0  0999 V2000
   21.5307   21.4706  -17.4772 C   0  0  0  0  0  0  0  0  0  0  0  0
   21.0610   22.6448  -19.6876 C   0  0  0  0  0  0  0  0  0  0  0  0
   21.5138   23.3028  -20.8306 C   0  0  0  0  0  0  0  0  0  0  0  0
   20.3193   23.7989  -21.9855 Cl  0  0  0  0  0  0  0  0  0  0  0  0
   22.8948   23.5333  -21.0030 C   0  0  0  0  0  0  0  0  0  0  0  0
   23.5443   24.3366  -22.3927 Cl  0  0  0  0  0  0  0  0  0  0  0  0
   23.8087   23.1112  -20.0369 C   0  0  0  0  0  0  0  0  0  0  0  0
   23.3503   22.4526  -18.9004 C   0  0  0  0  0  0  0  0  0  0  0  0
   21.9815   22.2347  -18.7239 C   0  0  0  0  0  0  0  0  0  0  0  0
   21.9435   19.6874  -17.5347 P   0  0  0  0  0  0  0  0  0  0  0  0
   23.4511   19.5450  -17.4949 O   0  0  0  0  0  0  0  0  0  0  0  0
   21.3283   19.0234  -16.3249 O   0  0  0  0  0  0  0  0  0  0  0  0
   21.4279   19.0448  -18.7967 O   0  0  0  0  0  0  0  0  0  0  0  0
   23.7934   19.9559  -16.6856 H   0  0  0  0  0  0  0  0  0  0  0  0
   21.6662   19.4437  -15.5186 H   0  0  0  0  0  0  0  0  0  0  0  0
   22.0894   22.2049  -16.2432 C   0  0  0  0  0  0  0  0  0  0  0  0
   20.9510   22.9398  -15.4653 C   0  0  0  0  0  0  0  0  0  0  0  0
   19.8291   21.9881  -15.2935 N   0  0  0  0  0  0  0  0  0  0  0  0
   20.0768   20.9844  -14.4274 O   0  0  0  0  0  0  0  0  0  0  0  0
   18.6267   21.9981  -15.9075 C   0  0  0  0  0  0  0  0  0  0  0  0
   17.7759   21.1402  -15.6923 O   0  0  0  0  0  0  0  0  0  0  0  0
   20.9668   21.0899  -14.0563 H   0  0  0  0  0  0  0  0  0  0  0  0
   18.2485   23.1284  -16.8776 C   0  0  0  0  0  0  0  0  0  0  0  0
   18.2264   24.4592  -16.4350 C   0  0  0  0  0  0  0  0  0  0  0  0
   17.8567   25.4833  -17.3103 C   0  0  0  0  0  0  0  0  0  0  0  0
   17.4722   25.1675  -18.6167 C   0  0  0  0  0  0  0  0  0  0  0  0
   17.4681   23.8411  -19.0500 C   0  0  0  0  0  0  0  0  0  0  0  0
   17.8416   22.8180  -18.1779 C   0  0  0  0  0  0  0  0  0  0  0  0
  2  3  1  0  0  0
  2  9  2  0  0  0
  3  4  1  0  0  0
  3  5  2  0  0  0
  5  6  1  0  0  0
  5  7  1  0  0  0
  7  8  2  0  0  0
  8  9  1  0  0  0
  9  1  1  0  0  0
  1 10  1  0  0  0
  1 16  1  0  0  0
 10 11  1  0  0  0
 10 12  1  0  0  0
 10 13  2  0  0  0
 16 17  1  0  0  0
 17 18  1  0  0  0
 18 19  1  0  0  0
 18 20  1  0  0  0
 20 21  2  0  0  0
 20 23  1  0  0  0
 23 24  1  0  0  0
 23 28  2  0  0  0
 24 25  2  0  0  0
 25 26  1  0  0  0
 26 27  2  0  0  0
 27 28  1  0  0  0
 11 14  1  0  0  0
 12 15  1  0  0  0
 19 22  1  0  0  0
M  END
> <minimizedAffinity>
-6.31759

$$$$
3ZHX_FM6_A_501


 28 29  0  0  0  0  0  0  0  0999 V2000
   21.7365   21.1993  -17.3825 C   0  0  0  0  0  0  0  0  0  0  0  0
   23.4473   22.5935  -18.6532 C   0  0  0  0  0  0  0  0  0  0  0  0
   23.8290   23.2996  -19.7935 C   0  0  0  0  0  0  0  0  0  0  0  0
   25.3817   24.0710  -19.7656 Cl  0  0  0  0  0  0  0  0  0  0  0  0
   22.9576   23.3614  -20.9012 C   0  0  0  0  0  0  0  0  0  0  0  0
   23.3480   24.2196  -22.3536 Cl  0  0  0  0  0  0  0  0  0  0  0  0
   21.7199   22.7183  -20.8646 C   0  0  0  0  0  0  0  0  0  0  0  0
   21.3442   22.0183  -19.7227 C   0  0  0  0  0  0  0  0  0  0  0  0
   22.2121   21.9471  -18.6299 C   0  0  0  0  0  0  0  0  0  0  0  0
   22.2206   19.4332  -17.3711 P   0  0  0  0  0  0  0  0  0  0  0  0
   21.8789   18.8535  -16.0140 O   0  0  0  0  0  0  0  0  0  0  0  0
   21.4357   18.7239  -18.4499 O   0  0  0  0  0  0  0  0  0  0  0  0
   23.6991   19.2675  -17.6121 O   0  0  0  0  0  0  0  0  0  0  0  0
   20.9285   18.9553  -15.8489 H   0  0  0  0  0  0  0  0  0  0  0  0
   20.4863   18.8364  -18.2860 H   0  0  0  0  0  0  0  0  0  0  0  0
   22.2108   21.9884  -16.1470 C   0  0  0  0  0  0  0  0  0  0  0  0
   21.0342   22.7974  -15.5129 C   0  0  0  0  0  0  0  0  0  0  0  0
   19.8841   21.8778  -15.3522 N   0  0  0  0  0  0  0  0  0  0  0  0
   20.0889   20.8773  -14.4714 O   0  0  0  0  0  0  0  0  0  0  0  0
   18.6938   21.9134  -15.9883 C   0  0  0  0  0  0  0  0  0  0  0  0
   17.8165   21.0809  -15.7802 O   0  0  0  0  0  0  0  0  0  0  0  0
   20.9745   20.9629  -14.0850 H   0  0  0  0  0  0  0  0  0  0  0  0
   18.3638   23.0429  -16.9768 C   0  0  0  0  0  0  0  0  0  0  0  0
   18.2635   22.7716  -18.3493 C   0  0  0  0  0  0  0  0  0  0  0  0
   17.9899   23.8038  -19.2500 C   0  0  0  0  0  0  0  0  0  0  0  0
   17.8557   25.1125  -18.7777 C   0  0  0  0  0  0  0  0  0  0  0  0
   17.9818   25.3877  -17.4155 C   0  0  0  0  0  0  0  0  0  0  0  0
   18.2506   24.3568  -16.5145 C   0  0  0  0  0  0  0  0  0  0  0  0
  2  3  1  0  0  0
  2  9  2  0  0  0
  3  4  1  0  0  0
  3  5  2  0  0  0
  5  6  1  0  0  0
  5  7  1  0  0  0
  7  8  2  0  0  0
  8  9  1  0  0  0
  9  1  1  0  0  0
  1 10  1  0  0  0
  1 16  1  0  0  0
 10 11  1  0  0  0
 10 12  1  0  0  0
 10 13  2  0  0  0
 16 17  1  0  0  0
 17 18  1  0  0  0
 18 19  1  0  0  0
 18 20  1  0  0  0
 20 21  2  0  0  0
 20 23  1  0  0  0
 23 24  1  0  0  0
 23 28  2  0  0  0
 24 25  2  0  0  0
 25 26  1  0  0  0
 26 27  2  0  0  0
 27 28  1  0  0  0
 11 14  1  0  0  0
 12 15  1  0  0  0
 19 22  1  0  0  0
M  END
> <minimizedAffinity>
-6.23273

$$$$
3ZHX_FM6_A_501


 28 29  0  0  0  0  0  0  0  0999 V2000
   21.8424   20.7449  -18.6669 C   0  0  0  0  0  0  0  0  0  0  0  0
   22.2418   22.0042  -16.4897 C   0  0  0  0  0  0  0  0  0  0  0  0
   22.7620   23.0994  -15.8009 C   0  0  0  0  0  0  0  0  0  0  0  0
   22.4996   23.1562  -14.0879 Cl  0  0  0  0  0  0  0  0  0  0  0  0
   23.4641   24.0990  -16.5066 C   0  0  0  0  0  0  0  0  0  0  0  0
   24.1377   25.4941  -15.7330 Cl  0  0  0  0  0  0  0  0  0  0  0  0
   23.6443   23.9971  -17.8864 C   0  0  0  0  0  0  0  0  0  0  0  0
   23.1200   22.9034  -18.5677 C   0  0  0  0  0  0  0  0  0  0  0  0
   22.4348   21.9072  -17.8672 C   0  0  0  0  0  0  0  0  0  0  0  0
   21.8669   19.1559  -17.7570 P   0  0  0  0  0  0  0  0  0  0  0  0
   20.9722   18.1748  -18.4859 O   0  0  0  0  0  0  0  0  0  0  0  0
   23.2892   18.6461  -17.7401 O   0  0  0  0  0  0  0  0  0  0  0  0
   21.3594   19.3221  -16.3477 O   0  0  0  0  0  0  0  0  0  0  0  0
   21.2906   18.0606  -19.3950 H   0  0  0  0  0  0  0  0  0  0  0  0
   23.6065   18.5426  -18.6509 H   0  0  0  0  0  0  0  0  0  0  0  0
   20.4430   21.1685  -19.1530 C   0  0  0  0  0  0  0  0  0  0  0  0
   19.3803   20.9964  -18.0207 C   0  0  0  0  0  0  0  0  0  0  0  0
   18.1415   21.6854  -18.4505 N   0  0  0  0  0  0  0  0  0  0  0  0
   17.3063   20.9238  -19.1862 O   0  0  0  0  0  0  0  0  0  0  0  0
   17.7744   22.9632  -18.2151 C   0  0  0  0  0  0  0  0  0  0  0  0
   16.7211   23.4291  -18.6389 O   0  0  0  0  0  0  0  0  0  0  0  0
   17.6807   20.0342  -19.2830 H   0  0  0  0  0  0  0  0  0  0  0  0
   18.6486   23.8863  -17.3519 C   0  0  0  0  0  0  0  0  0  0  0  0
   18.4898   23.9070  -15.9583 C   0  0  0  0  0  0  0  0  0  0  0  0
   19.2664   24.7659  -15.1768 C   0  0  0  0  0  0  0  0  0  0  0  0
   20.1734   25.6302  -15.7967 C   0  0  0  0  0  0  0  0  0  0  0  0
   20.3130   25.6294  -17.1851 C   0  0  0  0  0  0  0  0  0  0  0  0
   19.5411   24.7688  -17.9663 C   0  0  0  0  0  0  0  0  0  0  0  0
  2  3  1  0  0  0
  2  9  2  0  0  0
  3  4  1  0  0  0
  3  5  2  0  0  0
  5  6  1  0  0  0
  5  7  1  0  0  0
  7  8  2  0  0  0
  8  9  1  0  0  0
  9  1  1  0  0  0
  1 10  1  0  0  0
  1 16  1  0  0  0
 10 11  1  0  0  0
 10 12  1  0  0  0
 10 13  2  0  0  0
 16 17  1  0  0  0
 17 18  1  0  0  0
 18 19  1  0  0  0
 18 20  1  0  0  0
 20 21  2  0  0  0
 20 23  1  0  0  0
 23 24  1  0  0  0
 23 28  2  0  0  0
 24 25  2  0  0  0
 25 26  1  0  0  0
 26 27  2  0  0  0
 27 28  1  0  0  0
 11 14  1  0  0  0
 12 15  1  0  0  0
 19 22  1  0  0  0
M  END
> <minimizedAffinity>
-6.17764

$$$$
3ZHX_FM6_A_501


 28 29  0  0  0  0  0  0  0  0999 V2000
   18.6330   21.4471  -18.2214 C   0  0  0  0  0  0  0  0  0  0  0  0
   19.1509   23.6881  -19.3146 C   0  0  0  0  0  0  0  0  0  0  0  0
   18.7743   24.9875  -19.6526 C   0  0  0  0  0  0  0  0  0  0  0  0
   19.9416   25.9589  -20.4895 Cl  0  0  0  0  0  0  0  0  0  0  0  0
   17.4886   25.4544  -19.3074 C   0  0  0  0  0  0  0  0  0  0  0  0
   16.9405   27.0535  -19.6826 Cl  0  0  0  0  0  0  0  0  0  0  0  0
   16.5915   24.6244  -18.6344 C   0  0  0  0  0  0  0  0  0  0  0  0
   16.9749   23.3302  -18.2974 C   0  0  0  0  0  0  0  0  0  0  0  0
   18.2440   22.8637  -18.6497 C   0  0  0  0  0  0  0  0  0  0  0  0
   18.2908   20.1856  -19.5039 P   0  0  0  0  0  0  0  0  0  0  0  0
   17.2501   19.2264  -18.9642 O   0  0  0  0  0  0  0  0  0  0  0  0
   17.7579   20.8928  -20.7283 O   0  0  0  0  0  0  0  0  0  0  0  0
   19.5332   19.4078  -19.8546 O   0  0  0  0  0  0  0  0  0  0  0  0
   16.4455   19.7175  -18.7352 H   0  0  0  0  0  0  0  0  0  0  0  0
   16.9591   21.3900  -20.4925 H   0  0  0  0  0  0  0  0  0  0  0  0
   20.0991   21.4804  -17.7489 C   0  0  0  0  0  0  0  0  0  0  0  0
   20.2368   20.8945  -16.3070 C   0  0  0  0  0  0  0  0  0  0  0  0
   21.4205   21.5195  -15.6728 N   0  0  0  0  0  0  0  0  0  0  0  0
   22.5047   20.7202  -15.6062 O   0  0  0  0  0  0  0  0  0  0  0  0
   21.5270   22.7582  -15.1465 C   0  0  0  0  0  0  0  0  0  0  0  0
   22.5647   23.1621  -14.6307 O   0  0  0  0  0  0  0  0  0  0  0  0
   22.3013   19.8646  -16.0155 H   0  0  0  0  0  0  0  0  0  0  0  0
   20.3521   23.7464  -15.2172 C   0  0  0  0  0  0  0  0  0  0  0  0
   19.1622   23.4774  -14.5248 C   0  0  0  0  0  0  0  0  0  0  0  0
   18.0853   24.3629  -14.6111 C   0  0  0  0  0  0  0  0  0  0  0  0
   18.1890   25.4967  -15.4221 C   0  0  0  0  0  0  0  0  0  0  0  0
   19.3628   25.7513  -16.1325 C   0  0  0  0  0  0  0  0  0  0  0  0
   20.4408   24.8698  -16.0434 C   0  0  0  0  0  0  0  0  0  0  0  0
  2  3  1  0  0  0
  2  9  2  0  0  0
  3  4  1  0  0  0
  3  5  2  0  0  0
  5  6  1  0  0  0
  5  7  1  0  0  0
  7  8  2  0  0  0
  8  9  1  0  0  0
  9  1  1  0  0  0
  1 10  1  0  0  0
  1 16  1  0  0  0
 10 11  1  0  0  0
 10 12  1  0  0  0
 10 13  2  0  0  0
 16 17  1  0  0  0
 17 18  1  0  0  0
 18 19  1  0  0  0
 18 20  1  0  0  0
 20 21  2  0  0  0
 20 23  1  0  0  0
 23 24  1  0  0  0
 23 28  2  0  0  0
 24 25  2  0  0  0
 25 26  1  0  0  0
 26 27  2  0  0  0
 27 28  1  0  0  0
 11 14  1  0  0  0
 12 15  1  0  0  0
 19 22  1  0  0  0
M  END
> <minimizedAffinity>
-6.11349

$$$$
