2I19_1BY_A_3001


 22 22  0  0  0  0  0  0  0  0999 V2000
   17.4591   45.6000   48.2692 C   0  0  0  0  0  0  0  0  0  0  0  0
   16.3009   46.8836   47.6821 P   0  0  0  0  0  0  0  0  0  0  0  0
   15.0336   46.7564   48.4582 O   0  0  0  0  0  0  0  0  0  0  0  0
   16.8921   48.2335   47.9004 O   0  0  0  0  0  0  0  0  0  0  0  0
   16.0253   46.6803   46.2350 O   0  0  0  0  0  0  0  0  0  0  0  0
   17.0694   48.3599   48.8457 H   0  0  0  0  0  0  0  0  0  0  0  0
   15.6408   45.8001   46.0996 H   0  0  0  0  0  0  0  0  0  0  0  0
   17.2426   45.3433   50.0680 P   0  0  0  0  0  0  0  0  0  0  0  0
   17.1791   46.6340   50.8027 O   0  0  0  0  0  0  0  0  0  0  0  0
   15.9770   44.5765   50.3007 O   0  0  0  0  0  0  0  0  0  0  0  0
   18.4176   44.5576   50.5719 O   0  0  0  0  0  0  0  0  0  0  0  0
   17.9981   47.1319   50.6530 H   0  0  0  0  0  0  0  0  0  0  0  0
   16.0168   43.7338   49.8219 H   0  0  0  0  0  0  0  0  0  0  0  0
   17.3546   44.3147   47.4214 C   0  0  0  0  0  0  0  0  0  0  0  0
   16.0766   43.6392   47.6590 N   0  0  0  0  0  0  0  0  0  0  0  0
   15.7664   43.5071   48.5840 H   0  0  0  0  0  0  0  0  0  0  0  0
   14.3887   41.3190   45.4192 C   0  0  0  0  0  0  0  0  0  0  0  0
   15.2131   41.8798   46.4949 C   0  0  0  0  0  0  0  0  0  0  0  0
   13.7899   42.1563   44.5744 C   0  0  0  0  0  0  0  0  0  0  0  0
   13.9597   43.6061   44.7507 C   0  0  0  0  0  0  0  0  0  0  0  0
   14.6451   44.0697   45.7210 N   0  0  0  0  0  0  0  0  0  0  0  0
   15.3348   43.2056   46.6637 C   0  0  0  0  0  0  0  0  0  0  0  0
 17 18  2  0  0  0
 17 19  1  0  0  0
 18 22  1  0  0  0
 19 20  2  0  0  0
 20 21  1  0  0  0
 21 22  2  0  0  0
 22 15  1  0  0  0
 15 14  1  0  0  0
 14  1  1  0  0  0
  1  2  1  0  0  0
  1  8  1  0  0  0
  2  3  2  0  0  0
  2  5  1  0  0  0
  2  4  1  0  0  0
  8 11  2  0  0  0
  8 10  1  0  0  0
  8  9  1  0  0  0
 15 16  1  0  0  0
  4  6  1  0  0  0
  5  7  1  0  0  0
  9 12  1  0  0  0
 10 13  1  0  0  0
M  END
> <minimizedAffinity>
-7.41338

$$$$
2I19_1BY_A_3001


 22 22  0  0  0  0  0  0  0  0999 V2000
   15.9413   45.8877   48.8804 C   0  0  0  0  0  0  0  0  0  0  0  0
   17.2145   45.2655   50.0317 P   0  0  0  0  0  0  0  0  0  0  0  0
   18.3575   46.2237   50.0229 O   0  0  0  0  0  0  0  0  0  0  0  0
   16.6476   45.1701   51.4061 O   0  0  0  0  0  0  0  0  0  0  0  0
   17.6793   43.9263   49.5823 O   0  0  0  0  0  0  0  0  0  0  0  0
   16.3465   46.0464   51.6932 H   0  0  0  0  0  0  0  0  0  0  0  0
   18.0470   43.9952   48.6874 H   0  0  0  0  0  0  0  0  0  0  0  0
   16.7360   46.8105   47.5147 P   0  0  0  0  0  0  0  0  0  0  0  0
   17.0288   48.2162   47.8995 O   0  0  0  0  0  0  0  0  0  0  0  0
   18.0127   46.1216   47.1408 O   0  0  0  0  0  0  0  0  0  0  0  0
   15.7953   46.8153   46.3455 O   0  0  0  0  0  0  0  0  0  0  0  0
   16.2030   48.6637   48.1419 H   0  0  0  0  0  0  0  0  0  0  0  0
   17.8233   45.2040   46.8894 H   0  0  0  0  0  0  0  0  0  0  0  0
   14.9924   44.7594   48.4245 C   0  0  0  0  0  0  0  0  0  0  0  0
   15.6681   43.8618   47.4843 N   0  0  0  0  0  0  0  0  0  0  0  0
   16.6505   43.7999   47.4991 H   0  0  0  0  0  0  0  0  0  0  0  0
   13.1668   42.9739   44.9935 C   0  0  0  0  0  0  0  0  0  0  0  0
   13.9588   43.7112   45.9837 C   0  0  0  0  0  0  0  0  0  0  0  0
   13.4636   41.6959   44.7656 C   0  0  0  0  0  0  0  0  0  0  0  0
   14.5752   41.0700   45.4964 C   0  0  0  0  0  0  0  0  0  0  0  0
   15.2775   41.7450   46.3194 N   0  0  0  0  0  0  0  0  0  0  0  0
   14.9908   43.1371   46.6212 C   0  0  0  0  0  0  0  0  0  0  0  0
 17 18  2  0  0  0
 17 19  1  0  0  0
 18 22  1  0  0  0
 19 20  2  0  0  0
 20 21  1  0  0  0
 21 22  2  0  0  0
 22 15  1  0  0  0
 15 14  1  0  0  0
 14  1  1  0  0  0
  1  2  1  0  0  0
  1  8  1  0  0  0
  2  3  2  0  0  0
  2  5  1  0  0  0
  2  4  1  0  0  0
  8 11  2  0  0  0
  8 10  1  0  0  0
  8  9  1  0  0  0
 15 16  1  0  0  0
  4  6  1  0  0  0
  5  7  1  0  0  0
  9 12  1  0  0  0
 10 13  1  0  0  0
M  END
> <minimizedAffinity>
-7.41042

$$$$
2I19_1BY_A_3001


 22 22  0  0  0  0  0  0  0  0999 V2000
   17.4094   45.6211   48.3172 C   0  0  0  0  0  0  0  0  0  0  0  0
   16.5160   47.1237   47.7902 P   0  0  0  0  0  0  0  0  0  0  0  0
   16.0816   46.9344   46.3759 O   0  0  0  0  0  0  0  0  0  0  0  0
   15.3243   47.3323   48.6596 O   0  0  0  0  0  0  0  0  0  0  0  0
   17.4220   48.2992   47.8835 O   0  0  0  0  0  0  0  0  0  0  0  0
   14.7377   46.5625   48.5943 H   0  0  0  0  0  0  0  0  0  0  0  0
   18.1954   48.1572   47.3155 H   0  0  0  0  0  0  0  0  0  0  0  0
   17.2250   45.3896   50.1229 P   0  0  0  0  0  0  0  0  0  0  0  0
   15.9210   44.7636   50.4656 O   0  0  0  0  0  0  0  0  0  0  0  0
   18.3392   44.5191   50.6177 O   0  0  0  0  0  0  0  0  0  0  0  0
   17.3000   46.7385   50.7762 O   0  0  0  0  0  0  0  0  0  0  0  0
   15.1983   45.3261   50.1458 H   0  0  0  0  0  0  0  0  0  0  0  0
   19.1910   44.9263   50.3948 H   0  0  0  0  0  0  0  0  0  0  0  0
   17.0043   44.3968   47.4695 C   0  0  0  0  0  0  0  0  0  0  0  0
   15.5529   44.2010   47.5017 N   0  0  0  0  0  0  0  0  0  0  0  0
   15.0136   44.7033   48.1545 H   0  0  0  0  0  0  0  0  0  0  0  0
   13.1932   42.9561   45.0256 C   0  0  0  0  0  0  0  0  0  0  0  0
   13.9013   43.8181   45.9779 C   0  0  0  0  0  0  0  0  0  0  0  0
   13.5893   41.6914   44.8962 C   0  0  0  0  0  0  0  0  0  0  0  0
   14.7234   41.2032   45.6945 C   0  0  0  0  0  0  0  0  0  0  0  0
   15.3512   41.9849   46.4826 N   0  0  0  0  0  0  0  0  0  0  0  0
   14.9548   43.3691   46.6777 C   0  0  0  0  0  0  0  0  0  0  0  0
 17 18  2  0  0  0
 17 19  1  0  0  0
 18 22  1  0  0  0
 19 20  2  0  0  0
 20 21  1  0  0  0
 21 22  2  0  0  0
 22 15  1  0  0  0
 15 14  1  0  0  0
 14  1  1  0  0  0
  1  2  1  0  0  0
  1  8  1  0  0  0
  2  3  2  0  0  0
  2  5  1  0  0  0
  2  4  1  0  0  0
  8 11  2  0  0  0
  8 10  1  0  0  0
  8  9  1  0  0  0
 15 16  1  0  0  0
  4  6  1  0  0  0
  5  7  1  0  0  0
  9 12  1  0  0  0
 10 13  1  0  0  0
M  END
> <minimizedAffinity>
-7.39903

$$$$
2I19_1BY_A_3001


 22 22  0  0  0  0  0  0  0  0999 V2000
   16.8307   46.0568   48.3818 C   0  0  0  0  0  0  0  0  0  0  0  0
   16.2408   44.8502   49.6186 P   0  0  0  0  0  0  0  0  0  0  0  0
   14.7928   45.1082   49.8661 O   0  0  0  0  0  0  0  0  0  0  0  0
   16.4244   43.4659   49.0995 O   0  0  0  0  0  0  0  0  0  0  0  0
   17.0041   45.0213   50.8834 O   0  0  0  0  0  0  0  0  0  0  0  0
   15.9244   43.3608   48.2750 H   0  0  0  0  0  0  0  0  0  0  0  0
   16.8805   45.9240   51.2160 H   0  0  0  0  0  0  0  0  0  0  0  0
   18.5435   45.6491   47.8835 P   0  0  0  0  0  0  0  0  0  0  0  0
   18.6613   44.2395   47.4264 O   0  0  0  0  0  0  0  0  0  0  0  0
   18.9589   46.5671   46.7750 O   0  0  0  0  0  0  0  0  0  0  0  0
   19.4354   45.8473   49.0740 O   0  0  0  0  0  0  0  0  0  0  0  0
   18.3927   43.6437   48.1432 H   0  0  0  0  0  0  0  0  0  0  0  0
   18.8826   47.4875   47.0717 H   0  0  0  0  0  0  0  0  0  0  0  0
   15.8376   46.1942   47.2086 C   0  0  0  0  0  0  0  0  0  0  0  0
   16.1438   45.2249   46.1536 N   0  0  0  0  0  0  0  0  0  0  0  0
   16.9148   45.3842   45.5624 H   0  0  0  0  0  0  0  0  0  0  0  0
   13.2682   43.1480   45.3375 C   0  0  0  0  0  0  0  0  0  0  0  0
   14.1422   44.3024   45.5718 C   0  0  0  0  0  0  0  0  0  0  0  0
   13.7458   41.9290   45.5806 C   0  0  0  0  0  0  0  0  0  0  0  0
   15.1274   41.7755   46.0595 C   0  0  0  0  0  0  0  0  0  0  0  0
   15.8819   42.7922   46.2124 N   0  0  0  0  0  0  0  0  0  0  0  0
   15.4114   44.1470   45.9793 C   0  0  0  0  0  0  0  0  0  0  0  0
 17 18  2  0  0  0
 17 19  1  0  0  0
 18 22  1  0  0  0
 19 20  2  0  0  0
 20 21  1  0  0  0
 21 22  2  0  0  0
 22 15  1  0  0  0
 15 14  1  0  0  0
 14  1  1  0  0  0
  1  2  1  0  0  0
  1  8  1  0  0  0
  2  3  2  0  0  0
  2  5  1  0  0  0
  2  4  1  0  0  0
  8 11  2  0  0  0
  8 10  1  0  0  0
  8  9  1  0  0  0
 15 16  1  0  0  0
  4  6  1  0  0  0
  5  7  1  0  0  0
  9 12  1  0  0  0
 10 13  1  0  0  0
M  END
> <minimizedAffinity>
-7.35931

$$$$
2I19_1BY_A_3001


 22 22  0  0  0  0  0  0  0  0999 V2000
   17.0656   45.8694   48.5741 C   0  0  0  0  0  0  0  0  0  0  0  0
   18.6859   45.4786   47.8287 P   0  0  0  0  0  0  0  0  0  0  0  0
   19.7274   45.6020   48.8890 O   0  0  0  0  0  0  0  0  0  0  0  0
   18.6726   44.0878   47.2949 O   0  0  0  0  0  0  0  0  0  0  0  0
   18.9723   46.4391   46.7301 O   0  0  0  0  0  0  0  0  0  0  0  0
   18.4853   43.4665   48.0159 H   0  0  0  0  0  0  0  0  0  0  0  0
   18.9796   47.3423   47.0839 H   0  0  0  0  0  0  0  0  0  0  0  0
   16.3100   47.2930   47.7076 P   0  0  0  0  0  0  0  0  0  0  0  0
   15.0149   47.6854   48.3228 O   0  0  0  0  0  0  0  0  0  0  0  0
   17.2568   48.4527   47.7606 O   0  0  0  0  0  0  0  0  0  0  0  0
   16.0666   46.8953   46.2812 O   0  0  0  0  0  0  0  0  0  0  0  0
   14.4006   46.9354   48.2893 H   0  0  0  0  0  0  0  0  0  0  0  0
   18.1025   48.1982   47.3595 H   0  0  0  0  0  0  0  0  0  0  0  0
   16.1657   44.6185   48.6570 C   0  0  0  0  0  0  0  0  0  0  0  0
   15.0341   44.7316   47.7334 N   0  0  0  0  0  0  0  0  0  0  0  0
   14.5025   45.5602   47.7223 H   0  0  0  0  0  0  0  0  0  0  0  0
   13.2322   42.8691   45.1774 C   0  0  0  0  0  0  0  0  0  0  0  0
   13.6426   43.9103   46.1255 C   0  0  0  0  0  0  0  0  0  0  0  0
   13.9211   41.7299   45.1463 C   0  0  0  0  0  0  0  0  0  0  0  0
   15.0712   41.5552   46.0454 C   0  0  0  0  0  0  0  0  0  0  0  0
   15.4355   42.4930   46.8290 N   0  0  0  0  0  0  0  0  0  0  0  0
   14.7133   43.7506   46.9189 C   0  0  0  0  0  0  0  0  0  0  0  0
 17 18  2  0  0  0
 17 19  1  0  0  0
 18 22  1  0  0  0
 19 20  2  0  0  0
 20 21  1  0  0  0
 21 22  2  0  0  0
 22 15  1  0  0  0
 15 14  1  0  0  0
 14  1  1  0  0  0
  1  2  1  0  0  0
  1  8  1  0  0  0
  2  3  2  0  0  0
  2  5  1  0  0  0
  2  4  1  0  0  0
  8 11  2  0  0  0
  8 10  1  0  0  0
  8  9  1  0  0  0
 15 16  1  0  0  0
  4  6  1  0  0  0
  5  7  1  0  0  0
  9 12  1  0  0  0
 10 13  1  0  0  0
M  END
> <minimizedAffinity>
-7.29898

$$$$
2I19_1BY_A_3001


 22 22  0  0  0  0  0  0  0  0999 V2000
   20.0728   46.4290   47.9347 C   0  0  0  0  0  0  0  0  0  0  0  0
   21.2984   46.1977   49.2681 P   0  0  0  0  0  0  0  0  0  0  0  0
   20.8522   46.9876   50.4519 O   0  0  0  0  0  0  0  0  0  0  0  0
   21.3844   44.7547   49.6286 O   0  0  0  0  0  0  0  0  0  0  0  0
   22.6273   46.6850   48.8119 O   0  0  0  0  0  0  0  0  0  0  0  0
   20.5150   44.4431   49.9251 H   0  0  0  0  0  0  0  0  0  0  0  0
   22.5646   47.6245   48.5789 H   0  0  0  0  0  0  0  0  0  0  0  0
   20.7744   45.8663   46.3411 P   0  0  0  0  0  0  0  0  0  0  0  0
   21.9275   44.9500   46.5423 O   0  0  0  0  0  0  0  0  0  0  0  0
   19.7076   45.1589   45.5630 O   0  0  0  0  0  0  0  0  0  0  0  0
   21.2436   47.0748   45.5852 O   0  0  0  0  0  0  0  0  0  0  0  0
   22.6193   45.4066   47.0461 H   0  0  0  0  0  0  0  0  0  0  0  0
   18.9543   45.7556   45.4309 H   0  0  0  0  0  0  0  0  0  0  0  0
   18.7155   45.7909   48.2982 C   0  0  0  0  0  0  0  0  0  0  0  0
   17.6268   46.4283   47.5536 N   0  0  0  0  0  0  0  0  0  0  0  0
   17.6078   47.4094   47.4736 H   0  0  0  0  0  0  0  0  0  0  0  0
   15.6310   43.5345   46.6092 C   0  0  0  0  0  0  0  0  0  0  0  0
   16.6705   44.3914   47.1893 C   0  0  0  0  0  0  0  0  0  0  0  0
   14.7036   44.0949   45.8351 C   0  0  0  0  0  0  0  0  0  0  0  0
   14.7399   45.5453   45.5972 C   0  0  0  0  0  0  0  0  0  0  0  0
   15.6278   46.2753   46.1495 N   0  0  0  0  0  0  0  0  0  0  0  0
   16.6743   45.7185   46.9897 C   0  0  0  0  0  0  0  0  0  0  0  0
 17 18  2  0  0  0
 17 19  1  0  0  0
 18 22  1  0  0  0
 19 20  2  0  0  0
 20 21  1  0  0  0
 21 22  2  0  0  0
 22 15  1  0  0  0
 15 14  1  0  0  0
 14  1  1  0  0  0
  1  2  1  0  0  0
  1  8  1  0  0  0
  2  3  2  0  0  0
  2  5  1  0  0  0
  2  4  1  0  0  0
  8 11  2  0  0  0
  8 10  1  0  0  0
  8  9  1  0  0  0
 15 16  1  0  0  0
  4  6  1  0  0  0
  5  7  1  0  0  0
  9 12  1  0  0  0
 10 13  1  0  0  0
M  END
> <minimizedAffinity>
-7.21723

$$$$
2I19_1BY_A_3001


 22 22  0  0  0  0  0  0  0  0999 V2000
   15.3372   46.5692   48.8084 C   0  0  0  0  0  0  0  0  0  0  0  0
   16.7658   47.0213   47.7651 P   0  0  0  0  0  0  0  0  0  0  0  0
   16.4178   46.7233   46.3457 O   0  0  0  0  0  0  0  0  0  0  0  0
   17.0612   48.4736   47.9171 O   0  0  0  0  0  0  0  0  0  0  0  0
   17.9507   46.2191   48.1700 O   0  0  0  0  0  0  0  0  0  0  0  0
   16.2849   48.9910   47.6516 H   0  0  0  0  0  0  0  0  0  0  0  0
   17.7520   45.2751   48.0687 H   0  0  0  0  0  0  0  0  0  0  0  0
   13.8481   47.4736   48.2489 P   0  0  0  0  0  0  0  0  0  0  0  0
   14.0425   48.9458   48.3168 O   0  0  0  0  0  0  0  0  0  0  0  0
   13.5407   47.0776   46.8373 O   0  0  0  0  0  0  0  0  0  0  0  0
   12.7073   47.0948   49.1472 O   0  0  0  0  0  0  0  0  0  0  0  0
   14.2416   49.2039   49.2303 H   0  0  0  0  0  0  0  0  0  0  0  0
   13.4136   46.1171   46.7913 H   0  0  0  0  0  0  0  0  0  0  0  0
   15.1626   45.0383   48.8942 C   0  0  0  0  0  0  0  0  0  0  0  0
   15.7725   44.3811   47.7357 N   0  0  0  0  0  0  0  0  0  0  0  0
   16.7352   44.4991   47.5666 H   0  0  0  0  0  0  0  0  0  0  0  0
   14.7107   41.4764   45.8163 C   0  0  0  0  0  0  0  0  0  0  0  0
   15.4607   42.3737   46.7016 C   0  0  0  0  0  0  0  0  0  0  0  0
   13.6388   41.9537   45.1867 C   0  0  0  0  0  0  0  0  0  0  0  0
   13.2333   43.3499   45.4055 C   0  0  0  0  0  0  0  0  0  0  0  0
   13.8759   44.0969   46.2150 N   0  0  0  0  0  0  0  0  0  0  0  0
   15.0621   43.6370   46.9169 C   0  0  0  0  0  0  0  0  0  0  0  0
 17 18  2  0  0  0
 17 19  1  0  0  0
 18 22  1  0  0  0
 19 20  2  0  0  0
 20 21  1  0  0  0
 21 22  2  0  0  0
 22 15  1  0  0  0
 15 14  1  0  0  0
 14  1  1  0  0  0
  1  2  1  0  0  0
  1  8  1  0  0  0
  2  3  2  0  0  0
  2  5  1  0  0  0
  2  4  1  0  0  0
  8 11  2  0  0  0
  8 10  1  0  0  0
  8  9  1  0  0  0
 15 16  1  0  0  0
  4  6  1  0  0  0
  5  7  1  0  0  0
  9 12  1  0  0  0
 10 13  1  0  0  0
M  END
> <minimizedAffinity>
-7.04882

$$$$
2I19_1BY_A_3001


 22 22  0  0  0  0  0  0  0  0999 V2000
   13.9481   46.9453   48.8698 C   0  0  0  0  0  0  0  0  0  0  0  0
   12.3318   46.2814   49.3996 P   0  0  0  0  0  0  0  0  0  0  0  0
   11.3001   46.7350   48.4228 O   0  0  0  0  0  0  0  0  0  0  0  0
   12.3823   44.7927   49.4244 O   0  0  0  0  0  0  0  0  0  0  0  0
   12.0017   46.7989   50.7542 O   0  0  0  0  0  0  0  0  0  0  0  0
   12.5979   44.4617   48.5385 H   0  0  0  0  0  0  0  0  0  0  0  0
   11.9705   47.7681   50.7313 H   0  0  0  0  0  0  0  0  0  0  0  0
   15.1682   46.7626   50.2212 P   0  0  0  0  0  0  0  0  0  0  0  0
   16.5603   46.9422   49.7317 O   0  0  0  0  0  0  0  0  0  0  0  0
   14.8781   47.7826   51.2792 O   0  0  0  0  0  0  0  0  0  0  0  0
   15.0305   45.3809   50.7904 O   0  0  0  0  0  0  0  0  0  0  0  0
   16.7497   46.2823   49.0464 H   0  0  0  0  0  0  0  0  0  0  0  0
   13.9700   47.6668   51.5998 H   0  0  0  0  0  0  0  0  0  0  0  0
   14.3914   46.3421   47.5203 C   0  0  0  0  0  0  0  0  0  0  0  0
   14.9792   45.0142   47.7140 N   0  0  0  0  0  0  0  0  0  0  0  0
   15.6484   44.8827   48.4239 H   0  0  0  0  0  0  0  0  0  0  0  0
   15.1309   41.7541   46.1023 C   0  0  0  0  0  0  0  0  0  0  0  0
   15.4569   42.9370   46.9060 C   0  0  0  0  0  0  0  0  0  0  0  0
   14.0103   41.7630   45.3830 C   0  0  0  0  0  0  0  0  0  0  0  0
   13.1330   42.9421   45.4251 C   0  0  0  0  0  0  0  0  0  0  0  0
   13.4161   43.9401   46.1668 N   0  0  0  0  0  0  0  0  0  0  0  0
   14.6322   43.9943   46.9601 C   0  0  0  0  0  0  0  0  0  0  0  0
 17 18  2  0  0  0
 17 19  1  0  0  0
 18 22  1  0  0  0
 19 20  2  0  0  0
 20 21  1  0  0  0
 21 22  2  0  0  0
 22 15  1  0  0  0
 15 14  1  0  0  0
 14  1  1  0  0  0
  1  2  1  0  0  0
  1  8  1  0  0  0
  2  3  2  0  0  0
  2  5  1  0  0  0
  2  4  1  0  0  0
  8 11  2  0  0  0
  8 10  1  0  0  0
  8  9  1  0  0  0
 15 16  1  0  0  0
  4  6  1  0  0  0
  5  7  1  0  0  0
  9 12  1  0  0  0
 10 13  1  0  0  0
M  END
> <minimizedAffinity>
-6.89829

$$$$
2I19_1BY_A_3001


 22 22  0  0  0  0  0  0  0  0999 V2000
   15.7752   45.6212   46.4925 C   0  0  0  0  0  0  0  0  0  0  0  0
   16.2162   43.8515   46.4076 P   0  0  0  0  0  0  0  0  0  0  0  0
   15.2159   43.1641   45.5407 O   0  0  0  0  0  0  0  0  0  0  0  0
   17.5783   43.6991   45.8237 O   0  0  0  0  0  0  0  0  0  0  0  0
   16.1831   43.2648   47.7737 O   0  0  0  0  0  0  0  0  0  0  0  0
   17.5932   44.0834   44.9332 H   0  0  0  0  0  0  0  0  0  0  0  0
   15.2942   43.3672   48.1481 H   0  0  0  0  0  0  0  0  0  0  0  0
   13.9563   45.8120   46.4329 P   0  0  0  0  0  0  0  0  0  0  0  0
   13.4262   45.5927   45.0615 O   0  0  0  0  0  0  0  0  0  0  0  0
   13.3329   44.8238   47.3703 O   0  0  0  0  0  0  0  0  0  0  0  0
   13.6194   47.2095   46.8635 O   0  0  0  0  0  0  0  0  0  0  0  0
   13.8289   46.2319   44.4531 H   0  0  0  0  0  0  0  0  0  0  0  0
   13.6778   44.9655   48.2658 H   0  0  0  0  0  0  0  0  0  0  0  0
   16.4533   46.3153   47.6925 C   0  0  0  0  0  0  0  0  0  0  0  0
   17.8384   45.8614   47.8391 N   0  0  0  0  0  0  0  0  0  0  0  0
   18.0212   45.0176   48.3123 H   0  0  0  0  0  0  0  0  0  0  0  0
   21.0903   46.5948   46.3774 C   0  0  0  0  0  0  0  0  0  0  0  0
   19.9364   45.8918   46.9482 C   0  0  0  0  0  0  0  0  0  0  0  0
   21.0536   47.9240   46.3058 C   0  0  0  0  0  0  0  0  0  0  0  0
   19.8628   48.6416   46.7840 C   0  0  0  0  0  0  0  0  0  0  0  0
   18.8541   48.0046   47.2346 N   0  0  0  0  0  0  0  0  0  0  0  0
   18.8429   46.5565   47.3524 C   0  0  0  0  0  0  0  0  0  0  0  0
 17 18  2  0  0  0
 17 19  1  0  0  0
 18 22  1  0  0  0
 19 20  2  0  0  0
 20 21  1  0  0  0
 21 22  2  0  0  0
 22 15  1  0  0  0
 15 14  1  0  0  0
 14  1  1  0  0  0
  1  2  1  0  0  0
  1  8  1  0  0  0
  2  3  2  0  0  0
  2  5  1  0  0  0
  2  4  1  0  0  0
  8 11  2  0  0  0
  8 10  1  0  0  0
  8  9  1  0  0  0
 15 16  1  0  0  0
  4  6  1  0  0  0
  5  7  1  0  0  0
  9 12  1  0  0  0
 10 13  1  0  0  0
M  END
> <minimizedAffinity>
-6.87565

$$$$
2I19_1BY_A_3001


 22 22  0  0  0  0  0  0  0  0999 V2000
   20.0571   46.1327   47.9204 C   0  0  0  0  0  0  0  0  0  0  0  0
   19.8763   47.8255   47.2607 P   0  0  0  0  0  0  0  0  0  0  0  0
   20.5906   47.8937   45.9531 O   0  0  0  0  0  0  0  0  0  0  0  0
   18.4331   48.1379   47.0633 O   0  0  0  0  0  0  0  0  0  0  0  0
   20.4784   48.7969   48.2122 O   0  0  0  0  0  0  0  0  0  0  0  0
   18.0465   47.5012   46.4420 H   0  0  0  0  0  0  0  0  0  0  0  0
   21.4175   48.5881   48.3364 H   0  0  0  0  0  0  0  0  0  0  0  0
   21.2232   46.1365   49.3306 P   0  0  0  0  0  0  0  0  0  0  0  0
   21.4553   44.7648   49.8544 O   0  0  0  0  0  0  0  0  0  0  0  0
   22.5262   46.7242   48.8823 O   0  0  0  0  0  0  0  0  0  0  0  0
   20.6310   46.9774   50.4234 O   0  0  0  0  0  0  0  0  0  0  0  0
   20.6124   44.3828   50.1452 H   0  0  0  0  0  0  0  0  0  0  0  0
   22.3764   47.6194   48.5401 H   0  0  0  0  0  0  0  0  0  0  0  0
   18.6849   45.4959   48.2254 C   0  0  0  0  0  0  0  0  0  0  0  0
   18.1909   44.7484   47.0664 N   0  0  0  0  0  0  0  0  0  0  0  0
   18.8235   44.2170   46.5308 H   0  0  0  0  0  0  0  0  0  0  0  0
   14.7909   43.5851   46.4873 C   0  0  0  0  0  0  0  0  0  0  0  0
   16.2161   43.6347   46.8305 C   0  0  0  0  0  0  0  0  0  0  0  0
   14.2099   44.6895   46.0224 C   0  0  0  0  0  0  0  0  0  0  0  0
   15.0029   45.9193   45.8805 C   0  0  0  0  0  0  0  0  0  0  0  0
   16.2295   45.9487   46.2283 N   0  0  0  0  0  0  0  0  0  0  0  0
   16.9212   44.7718   46.7258 C   0  0  0  0  0  0  0  0  0  0  0  0
 17 18  2  0  0  0
 17 19  1  0  0  0
 18 22  1  0  0  0
 19 20  2  0  0  0
 20 21  1  0  0  0
 21 22  2  0  0  0
 22 15  1  0  0  0
 15 14  1  0  0  0
 14  1  1  0  0  0
  1  2  1  0  0  0
  1  8  1  0  0  0
  2  3  2  0  0  0
  2  5  1  0  0  0
  2  4  1  0  0  0
  8 11  2  0  0  0
  8 10  1  0  0  0
  8  9  1  0  0  0
 15 16  1  0  0  0
  4  6  1  0  0  0
  5  7  1  0  0  0
  9 12  1  0  0  0
 10 13  1  0  0  0
M  END
> <minimizedAffinity>
-6.85660

$$$$
