6EPZ_MLB_A_701


 31 32  0  0  0  0  0  0  0  0999 V2000
  135.0928    6.8752   75.8063 O   0  0  0  0  0  0  0  0  0  0  0  0
  136.1997    6.0440   76.1524 C   0  0  0  0  0  0  0  0  0  0  0  0
  136.4670    6.0845   77.7054 C   0  0  0  0  0  0  0  0  0  0  0  0
  135.2178    5.9174   78.3777 O   0  0  0  0  0  0  0  0  0  0  0  0
  137.0388    7.4791   78.0875 C   0  0  0  0  0  0  0  0  0  0  0  0
  137.4752    7.4998   79.4525 O   0  0  0  0  0  0  0  0  0  0  0  0
  138.1954    7.9040   77.2172 C   0  0  0  0  0  0  0  0  0  0  0  0
  139.3100    7.0190   77.4914 O   0  0  0  0  0  0  0  0  0  0  0  0
  137.8082    7.8158   75.7178 C   0  0  0  0  0  0  0  0  0  0  0  0
  137.3922    6.4466   75.4329 O   0  0  0  0  0  0  0  0  0  0  0  0
  134.6107    6.6260   78.1127 H   0  0  0  0  0  0  0  0  0  0  0  0
  138.2047    6.8710   79.5684 H   0  0  0  0  0  0  0  0  0  0  0  0
  139.0537    6.1049   77.2920 H   0  0  0  0  0  0  0  0  0  0  0  0
  138.9985    8.2338   74.8509 C   0  0  0  0  0  0  0  0  0  0  0  0
  140.0006    8.8623   75.6625 O   0  0  0  0  0  0  0  0  0  0  0  0
  139.6262    9.6507   76.0858 H   0  0  0  0  0  0  0  0  0  0  0  0
  135.0319    7.1413   74.4111 C   0  0  0  0  0  0  0  0  0  0  0  0
  132.1709    4.8930   74.3440 C   0  0  0  0  0  0  0  0  0  0  0  0
  131.6513    3.8535   73.4991 O   0  0  0  0  0  0  0  0  0  0  0  0
  131.0320    5.7371   75.0784 C   0  0  0  0  0  0  0  0  0  0  0  0
  129.7041    5.3669   74.6647 O   0  0  0  0  0  0  0  0  0  0  0  0
  131.2182    7.2695   74.9511 C   0  0  0  0  0  0  0  0  0  0  0  0
  130.4803    7.8667   76.0376 O   0  0  0  0  0  0  0  0  0  0  0  0
  132.6988    7.6597   75.1108 C   0  0  0  0  0  0  0  0  0  0  0  0
  132.8555    9.0834   75.0665 O   0  0  0  0  0  0  0  0  0  0  0  0
  133.5560    7.0591   73.9932 C   0  0  0  0  0  0  0  0  0  0  0  0
  133.1462    5.6993   73.5689 O   0  0  0  0  0  0  0  0  0  0  0  0
  131.1731    4.2509   72.7545 H   0  0  0  0  0  0  0  0  0  0  0  0
  129.5834    5.5891   73.7282 H   0  0  0  0  0  0  0  0  0  0  0  0
  130.8244    7.5363   76.8822 H   0  0  0  0  0  0  0  0  0  0  0  0
  132.5615    9.4144   74.2034 H   0  0  0  0  0  0  0  0  0  0  0  0
  2  1  1  0  0  0
  2  3  1  0  0  0
  2 10  1  0  0  0
  1 17  1  0  0  0
  3  4  1  0  0  0
  3  5  1  0  0  0
  5  6  1  0  0  0
  5  7  1  0  0  0
  7  8  1  0  0  0
  7  9  1  0  0  0
  9 10  1  0  0  0
  9 14  1  0  0  0
 14 15  1  0  0  0
 18 19  1  0  0  0
 18 20  1  0  0  0
 18 27  1  0  0  0
 20 21  1  0  0  0
 20 22  1  0  0  0
 22 23  1  0  0  0
 22 24  1  0  0  0
 24 25  1  0  0  0
 24 26  1  0  0  0
 26 27  1  0  0  0
 26 17  1  0  0  0
  4 11  1  0  0  0
  6 12  1  0  0  0
  8 13  1  0  0  0
 15 16  1  0  0  0
 19 28  1  0  0  0
 21 29  1  0  0  0
 23 30  1  0  0  0
 25 31  1  0  0  0
M  END
> <minimizedAffinity>
-10.76772

$$$$
6EPZ_MLB_A_701


 31 32  0  0  0  0  0  0  0  0999 V2000
  135.0661    6.7944   75.8770 O   0  0  0  0  0  0  0  0  0  0  0  0
  136.1865    5.9931   76.2491 C   0  0  0  0  0  0  0  0  0  0  0  0
  136.4520    6.0865   77.8002 C   0  0  0  0  0  0  0  0  0  0  0  0
  135.2052    5.9195   78.4771 O   0  0  0  0  0  0  0  0  0  0  0  0
  137.0000    7.5017   78.1387 C   0  0  0  0  0  0  0  0  0  0  0  0
  137.4349    7.5723   79.5026 O   0  0  0  0  0  0  0  0  0  0  0  0
  138.1500    7.9187   77.2559 C   0  0  0  0  0  0  0  0  0  0  0  0
  139.2790    7.0614   77.5578 O   0  0  0  0  0  0  0  0  0  0  0  0
  137.7653    7.7772   75.7599 C   0  0  0  0  0  0  0  0  0  0  0  0
  137.3726    6.3930   75.5177 O   0  0  0  0  0  0  0  0  0  0  0  0
  134.5865    6.6092   78.1900 H   0  0  0  0  0  0  0  0  0  0  0  0
  138.1748    6.9598   79.6381 H   0  0  0  0  0  0  0  0  0  0  0  0
  139.0382    6.1374   77.3870 H   0  0  0  0  0  0  0  0  0  0  0  0
  138.9492    8.1879   74.8806 C   0  0  0  0  0  0  0  0  0  0  0  0
  139.9610    8.8155   75.6808 O   0  0  0  0  0  0  0  0  0  0  0  0
  139.5933    9.6067   76.1048 H   0  0  0  0  0  0  0  0  0  0  0  0
  134.7279    6.6468   74.5041 C   0  0  0  0  0  0  0  0  0  0  0  0
  132.3763    7.6870   71.9288 C   0  0  0  0  0  0  0  0  0  0  0  0
  132.1532    8.8302   71.0875 O   0  0  0  0  0  0  0  0  0  0  0  0
  131.0290    6.9402   72.3483 C   0  0  0  0  0  0  0  0  0  0  0  0
  129.8450    7.6220   71.8957 O   0  0  0  0  0  0  0  0  0  0  0  0
  130.9271    6.6542   73.8672 C   0  0  0  0  0  0  0  0  0  0  0  0
  129.9843    5.5731   74.0213 O   0  0  0  0  0  0  0  0  0  0  0  0
  132.2813    6.1883   74.4321 C   0  0  0  0  0  0  0  0  0  0  0  0
  132.1635    5.8542   75.8206 O   0  0  0  0  0  0  0  0  0  0  0  0
  133.3443    7.2828   74.3023 C   0  0  0  0  0  0  0  0  0  0  0  0
  133.2488    8.0867   73.0606 O   0  0  0  0  0  0  0  0  0  0  0  0
  131.6830    9.5142   71.5894 H   0  0  0  0  0  0  0  0  0  0  0  0
  129.7766    8.4812   72.3408 H   0  0  0  0  0  0  0  0  0  0  0  0
  130.3007    4.7962   73.5343 H   0  0  0  0  0  0  0  0  0  0  0  0
  131.8975    6.6414   76.3211 H   0  0  0  0  0  0  0  0  0  0  0  0
  2  1  1  0  0  0
  2  3  1  0  0  0
  2 10  1  0  0  0
  1 17  1  0  0  0
  3  4  1  0  0  0
  3  5  1  0  0  0
  5  6  1  0  0  0
  5  7  1  0  0  0
  7  8  1  0  0  0
  7  9  1  0  0  0
  9 10  1  0  0  0
  9 14  1  0  0  0
 14 15  1  0  0  0
 18 19  1  0  0  0
 18 20  1  0  0  0
 18 27  1  0  0  0
 20 21  1  0  0  0
 20 22  1  0  0  0
 22 23  1  0  0  0
 22 24  1  0  0  0
 24 25  1  0  0  0
 24 26  1  0  0  0
 26 27  1  0  0  0
 26 17  1  0  0  0
  4 11  1  0  0  0
  6 12  1  0  0  0
  8 13  1  0  0  0
 15 16  1  0  0  0
 19 28  1  0  0  0
 21 29  1  0  0  0
 23 30  1  0  0  0
 25 31  1  0  0  0
M  END
> <minimizedAffinity>
-10.64708

$$$$
6EPZ_MLB_A_701


 31 32  0  0  0  0  0  0  0  0999 V2000
  133.0552    6.8053   75.0738 O   0  0  0  0  0  0  0  0  0  0  0  0
  132.4911    7.6743   74.0927 C   0  0  0  0  0  0  0  0  0  0  0  0
  131.3413    8.5534   74.7174 C   0  0  0  0  0  0  0  0  0  0  0  0
  131.8127    9.0916   75.9537 O   0  0  0  0  0  0  0  0  0  0  0  0
  130.1150    7.6468   75.0210 C   0  0  0  0  0  0  0  0  0  0  0  0
  128.9801    8.4303   75.4113 O   0  0  0  0  0  0  0  0  0  0  0  0
  129.7116    6.7842   73.8510 C   0  0  0  0  0  0  0  0  0  0  0  0
  129.2107    7.6544   72.8058 O   0  0  0  0  0  0  0  0  0  0  0  0
  130.9275    5.9761   73.3272 C   0  0  0  0  0  0  0  0  0  0  0  0
  131.9812    6.9183   72.9657 O   0  0  0  0  0  0  0  0  0  0  0  0
  132.0563    8.3664   76.5500 H   0  0  0  0  0  0  0  0  0  0  0  0
  128.7135    9.0025   74.6747 H   0  0  0  0  0  0  0  0  0  0  0  0
  129.9059    8.2780   72.5434 H   0  0  0  0  0  0  0  0  0  0  0  0
  130.5031    5.1208   72.1307 C   0  0  0  0  0  0  0  0  0  0  0  0
  129.1319    4.7238   72.2723 O   0  0  0  0  0  0  0  0  0  0  0  0
  129.0281    4.2038   73.0846 H   0  0  0  0  0  0  0  0  0  0  0  0
  134.3866    6.4222   74.7552 C   0  0  0  0  0  0  0  0  0  0  0  0
  136.7715    6.0677   77.4812 C   0  0  0  0  0  0  0  0  0  0  0  0
  136.7461    5.9737   78.9147 O   0  0  0  0  0  0  0  0  0  0  0  0
  138.0718    6.8052   76.9205 C   0  0  0  0  0  0  0  0  0  0  0  0
  138.9115    7.3327   77.9636 O   0  0  0  0  0  0  0  0  0  0  0  0
  137.7569    7.9121   75.8839 C   0  0  0  0  0  0  0  0  0  0  0  0
  138.9598    8.1094   75.1123 O   0  0  0  0  0  0  0  0  0  0  0  0
  136.6424    7.4641   74.9209 C   0  0  0  0  0  0  0  0  0  0  0  0
  136.4068    8.4612   73.9191 O   0  0  0  0  0  0  0  0  0  0  0  0
  135.3255    7.2280   75.6656 C   0  0  0  0  0  0  0  0  0  0  0  0
  135.4813    6.6324   77.0141 O   0  0  0  0  0  0  0  0  0  0  0  0
  136.6628    6.8619   79.2955 H   0  0  0  0  0  0  0  0  0  0  0  0
  138.4378    8.0352   78.4359 H   0  0  0  0  0  0  0  0  0  0  0  0
  139.2062    7.2772   74.6791 H   0  0  0  0  0  0  0  0  0  0  0  0
  136.1093    9.2814   74.3430 H   0  0  0  0  0  0  0  0  0  0  0  0
  2  1  1  0  0  0
  2  3  1  0  0  0
  2 10  1  0  0  0
  1 17  1  0  0  0
  3  4  1  0  0  0
  3  5  1  0  0  0
  5  6  1  0  0  0
  5  7  1  0  0  0
  7  8  1  0  0  0
  7  9  1  0  0  0
  9 10  1  0  0  0
  9 14  1  0  0  0
 14 15  1  0  0  0
 18 19  1  0  0  0
 18 20  1  0  0  0
 18 27  1  0  0  0
 20 21  1  0  0  0
 20 22  1  0  0  0
 22 23  1  0  0  0
 22 24  1  0  0  0
 24 25  1  0  0  0
 24 26  1  0  0  0
 26 27  1  0  0  0
 26 17  1  0  0  0
  4 11  1  0  0  0
  6 12  1  0  0  0
  8 13  1  0  0  0
 15 16  1  0  0  0
 19 28  1  0  0  0
 21 29  1  0  0  0
 23 30  1  0  0  0
 25 31  1  0  0  0
M  END
> <minimizedAffinity>
-10.42250

$$$$
6EPZ_MLB_A_701


 31 32  0  0  0  0  0  0  0  0999 V2000
  133.8386    7.2910   73.7682 O   0  0  0  0  0  0  0  0  0  0  0  0
  133.4782    8.4181   74.5655 C   0  0  0  0  0  0  0  0  0  0  0  0
  131.9162    8.4853   74.7674 C   0  0  0  0  0  0  0  0  0  0  0  0
  131.4571    7.1829   75.1326 O   0  0  0  0  0  0  0  0  0  0  0  0
  131.2449    8.8742   73.4198 C   0  0  0  0  0  0  0  0  0  0  0  0
  129.8465    9.1337   73.5977 O   0  0  0  0  0  0  0  0  0  0  0  0
  131.8699   10.0860   72.7744 C   0  0  0  0  0  0  0  0  0  0  0  0
  131.5872   11.2346   73.6121 O   0  0  0  0  0  0  0  0  0  0  0  0
  133.4034    9.8980   72.6370 C   0  0  0  0  0  0  0  0  0  0  0  0
  133.9543    9.6486   73.9648 O   0  0  0  0  0  0  0  0  0  0  0  0
  131.6886    6.5508   74.4342 H   0  0  0  0  0  0  0  0  0  0  0  0
  129.7315    9.8978   74.1840 H   0  0  0  0  0  0  0  0  0  0  0  0
  131.9609   11.0903   74.4955 H   0  0  0  0  0  0  0  0  0  0  0  0
  134.0216   11.1434   71.9965 C   0  0  0  0  0  0  0  0  0  0  0  0
  134.4326   12.0667   73.0145 O   0  0  0  0  0  0  0  0  0  0  0  0
  133.6621   12.3319   73.5407 H   0  0  0  0  0  0  0  0  0  0  0  0
  134.6782    6.3809   74.4666 C   0  0  0  0  0  0  0  0  0  0  0  0
  136.7370    6.0395   77.4481 C   0  0  0  0  0  0  0  0  0  0  0  0
  136.5468    5.9206   78.8673 O   0  0  0  0  0  0  0  0  0  0  0  0
  138.0737    6.8185   77.0540 C   0  0  0  0  0  0  0  0  0  0  0  0
  138.7715    7.3490   78.1956 O   0  0  0  0  0  0  0  0  0  0  0  0
  137.8526    7.9347   76.0032 C   0  0  0  0  0  0  0  0  0  0  0  0
  139.1317    8.1750   75.3807 O   0  0  0  0  0  0  0  0  0  0  0  0
  136.8706    7.4756   74.9101 C   0  0  0  0  0  0  0  0  0  0  0  0
  136.7271    8.4834   73.9016 O   0  0  0  0  0  0  0  0  0  0  0  0
  135.4824    7.1942   75.4919 C   0  0  0  0  0  0  0  0  0  0  0  0
  135.4955    6.5799   76.8409 O   0  0  0  0  0  0  0  0  0  0  0  0
  136.3960    6.7998   79.2481 H   0  0  0  0  0  0  0  0  0  0  0  0
  138.2273    8.0313   78.6189 H   0  0  0  0  0  0  0  0  0  0  0  0
  139.4491    7.3566   74.9678 H   0  0  0  0  0  0  0  0  0  0  0  0
  136.3604    9.2886   74.2991 H   0  0  0  0  0  0  0  0  0  0  0  0
  2  1  1  0  0  0
  2  3  1  0  0  0
  2 10  1  0  0  0
  1 17  1  0  0  0
  3  4  1  0  0  0
  3  5  1  0  0  0
  5  6  1  0  0  0
  5  7  1  0  0  0
  7  8  1  0  0  0
  7  9  1  0  0  0
  9 10  1  0  0  0
  9 14  1  0  0  0
 14 15  1  0  0  0
 18 19  1  0  0  0
 18 20  1  0  0  0
 18 27  1  0  0  0
 20 21  1  0  0  0
 20 22  1  0  0  0
 22 23  1  0  0  0
 22 24  1  0  0  0
 24 25  1  0  0  0
 24 26  1  0  0  0
 26 27  1  0  0  0
 26 17  1  0  0  0
  4 11  1  0  0  0
  6 12  1  0  0  0
  8 13  1  0  0  0
 15 16  1  0  0  0
 19 28  1  0  0  0
 21 29  1  0  0  0
 23 30  1  0  0  0
 25 31  1  0  0  0
M  END
> <minimizedAffinity>
-10.05931

$$$$
6EPZ_MLB_A_701


 31 32  0  0  0  0  0  0  0  0999 V2000
  134.3059    7.1550   73.6250 O   0  0  0  0  0  0  0  0  0  0  0  0
  133.2200    7.9457   73.1437 C   0  0  0  0  0  0  0  0  0  0  0  0
  132.2409    8.3276   74.3187 C   0  0  0  0  0  0  0  0  0  0  0  0
  133.0241    8.7939   75.4184 O   0  0  0  0  0  0  0  0  0  0  0  0
  131.4741    7.0547   74.7766 C   0  0  0  0  0  0  0  0  0  0  0  0
  130.4379    7.3862   75.7097 O   0  0  0  0  0  0  0  0  0  0  0  0
  130.8513    6.2943   73.6322 C   0  0  0  0  0  0  0  0  0  0  0  0
  129.7962    7.1150   73.0718 O   0  0  0  0  0  0  0  0  0  0  0  0
  131.9127    5.9843   72.5445 C   0  0  0  0  0  0  0  0  0  0  0  0
  132.4950    7.2465   72.1011 O   0  0  0  0  0  0  0  0  0  0  0  0
  133.6406    8.0977   75.6945 H   0  0  0  0  0  0  0  0  0  0  0  0
  129.7807    7.9523   75.2755 H   0  0  0  0  0  0  0  0  0  0  0  0
  130.1706    7.9530   72.7581 H   0  0  0  0  0  0  0  0  0  0  0  0
  131.2591    5.2283   71.3850 C   0  0  0  0  0  0  0  0  0  0  0  0
  130.2342    4.3566   71.8825 O   0  0  0  0  0  0  0  0  0  0  0  0
  130.6250    3.7156   72.4967 H   0  0  0  0  0  0  0  0  0  0  0  0
  135.5102    7.9020   73.7379 C   0  0  0  0  0  0  0  0  0  0  0  0
  138.4844    8.3124   75.7947 C   0  0  0  0  0  0  0  0  0  0  0  0
  139.9098    8.2247   75.6375 O   0  0  0  0  0  0  0  0  0  0  0  0
  137.9819    7.8758   77.2459 C   0  0  0  0  0  0  0  0  0  0  0  0
  139.0419    7.3718   78.0788 O   0  0  0  0  0  0  0  0  0  0  0  0
  136.8068    6.8672   77.2165 C   0  0  0  0  0  0  0  0  0  0  0  0
  136.1434    6.9688   78.4935 O   0  0  0  0  0  0  0  0  0  0  0  0
  135.7899    7.2378   76.1216 C   0  0  0  0  0  0  0  0  0  0  0  0
  134.6689    6.3456   76.1478 O   0  0  0  0  0  0  0  0  0  0  0  0
  136.4193    7.1585   74.7280 C   0  0  0  0  0  0  0  0  0  0  0  0
  137.8323    7.6022   74.6667 O   0  0  0  0  0  0  0  0  0  0  0  0
  140.1835    7.2952   75.6823 H   0  0  0  0  0  0  0  0  0  0  0  0
  139.3866    6.5478   77.7004 H   0  0  0  0  0  0  0  0  0  0  0  0
  135.8284    7.8770   78.6229 H   0  0  0  0  0  0  0  0  0  0  0  0
  134.9709    5.4417   75.9669 H   0  0  0  0  0  0  0  0  0  0  0  0
  2  1  1  0  0  0
  2  3  1  0  0  0
  2 10  1  0  0  0
  1 17  1  0  0  0
  3  4  1  0  0  0
  3  5  1  0  0  0
  5  6  1  0  0  0
  5  7  1  0  0  0
  7  8  1  0  0  0
  7  9  1  0  0  0
  9 10  1  0  0  0
  9 14  1  0  0  0
 14 15  1  0  0  0
 18 19  1  0  0  0
 18 20  1  0  0  0
 18 27  1  0  0  0
 20 21  1  0  0  0
 20 22  1  0  0  0
 22 23  1  0  0  0
 22 24  1  0  0  0
 24 25  1  0  0  0
 24 26  1  0  0  0
 26 27  1  0  0  0
 26 17  1  0  0  0
  4 11  1  0  0  0
  6 12  1  0  0  0
  8 13  1  0  0  0
 15 16  1  0  0  0
 19 28  1  0  0  0
 21 29  1  0  0  0
 23 30  1  0  0  0
 25 31  1  0  0  0
M  END
> <minimizedAffinity>
-9.95612

$$$$
6EPZ_MLB_A_701


 31 32  0  0  0  0  0  0  0  0999 V2000
  133.6582    7.4638   73.9687 O   0  0  0  0  0  0  0  0  0  0  0  0
  132.3227    7.2812   74.4365 C   0  0  0  0  0  0  0  0  0  0  0  0
  131.3270    7.0910   73.2293 C   0  0  0  0  0  0  0  0  0  0  0  0
  131.8973    6.1430   72.3257 O   0  0  0  0  0  0  0  0  0  0  0  0
  131.1739    8.4436   72.4776 C   0  0  0  0  0  0  0  0  0  0  0  0
  130.1362    8.3696   71.4917 O   0  0  0  0  0  0  0  0  0  0  0  0
  130.8688    9.6007   73.3960 C   0  0  0  0  0  0  0  0  0  0  0  0
  129.5453    9.3948   73.9501 O   0  0  0  0  0  0  0  0  0  0  0  0
  131.9136    9.6764   74.5399 C   0  0  0  0  0  0  0  0  0  0  0  0
  131.9039    8.4036   75.2530 O   0  0  0  0  0  0  0  0  0  0  0  0
  132.7575    6.4677   72.0167 H   0  0  0  0  0  0  0  0  0  0  0  0
  129.2854    8.2091   71.9292 H   0  0  0  0  0  0  0  0  0  0  0  0
  129.5269    8.5584   74.4409 H   0  0  0  0  0  0  0  0  0  0  0  0
  131.5780   10.8448   75.4702 C   0  0  0  0  0  0  0  0  0  0  0  0
  130.7400   10.3932   76.5434 O   0  0  0  0  0  0  0  0  0  0  0  0
  129.9162   10.0322   76.1803 H   0  0  0  0  0  0  0  0  0  0  0  0
  134.5644    6.5306   74.5423 C   0  0  0  0  0  0  0  0  0  0  0  0
  136.7300    6.0878   77.4334 C   0  0  0  0  0  0  0  0  0  0  0  0
  136.5957    5.9825   78.8600 O   0  0  0  0  0  0  0  0  0  0  0  0
  138.0875    6.7941   76.9782 C   0  0  0  0  0  0  0  0  0  0  0  0
  138.8613    7.2896   78.0860 O   0  0  0  0  0  0  0  0  0  0  0  0
  137.8801    7.9180   75.9327 C   0  0  0  0  0  0  0  0  0  0  0  0
  139.1419    8.0887   75.2543 O   0  0  0  0  0  0  0  0  0  0  0  0
  136.8286    7.5088   74.8853 C   0  0  0  0  0  0  0  0  0  0  0  0
  136.6948    8.5204   73.8793 O   0  0  0  0  0  0  0  0  0  0  0  0
  135.4542    7.3026   75.5280 C   0  0  0  0  0  0  0  0  0  0  0  0
  135.4935    6.6917   76.8780 O   0  0  0  0  0  0  0  0  0  0  0  0
  136.5081    6.8694   79.2429 H   0  0  0  0  0  0  0  0  0  0  0  0
  138.3727    8.0008   78.5292 H   0  0  0  0  0  0  0  0  0  0  0  0
  139.3974    7.2538   74.8319 H   0  0  0  0  0  0  0  0  0  0  0  0
  136.3887    9.3449   74.2885 H   0  0  0  0  0  0  0  0  0  0  0  0
  2  1  1  0  0  0
  2  3  1  0  0  0
  2 10  1  0  0  0
  1 17  1  0  0  0
  3  4  1  0  0  0
  3  5  1  0  0  0
  5  6  1  0  0  0
  5  7  1  0  0  0
  7  8  1  0  0  0
  7  9  1  0  0  0
  9 10  1  0  0  0
  9 14  1  0  0  0
 14 15  1  0  0  0
 18 19  1  0  0  0
 18 20  1  0  0  0
 18 27  1  0  0  0
 20 21  1  0  0  0
 20 22  1  0  0  0
 22 23  1  0  0  0
 22 24  1  0  0  0
 24 25  1  0  0  0
 24 26  1  0  0  0
 26 27  1  0  0  0
 26 17  1  0  0  0
  4 11  1  0  0  0
  6 12  1  0  0  0
  8 13  1  0  0  0
 15 16  1  0  0  0
 19 28  1  0  0  0
 21 29  1  0  0  0
 23 30  1  0  0  0
 25 31  1  0  0  0
M  END
> <minimizedAffinity>
-9.85081

$$$$
6EPZ_MLB_A_701


 31 32  0  0  0  0  0  0  0  0999 V2000
  133.9800    7.4402   72.9103 O   0  0  0  0  0  0  0  0  0  0  0  0
  132.6321    7.4472   73.3785 C   0  0  0  0  0  0  0  0  0  0  0  0
  131.9152    6.0839   73.0432 C   0  0  0  0  0  0  0  0  0  0  0  0
  132.7891    5.0170   73.4152 O   0  0  0  0  0  0  0  0  0  0  0  0
  131.6744    5.9990   71.5093 C   0  0  0  0  0  0  0  0  0  0  0  0
  130.8576    4.8686   71.1786 O   0  0  0  0  0  0  0  0  0  0  0  0
  131.0198    7.2344   70.9429 C   0  0  0  0  0  0  0  0  0  0  0  0
  129.6722    7.3085   71.4713 O   0  0  0  0  0  0  0  0  0  0  0  0
  131.8150    8.5037   71.3459 C   0  0  0  0  0  0  0  0  0  0  0  0
  131.8914    8.5522   72.8021 O   0  0  0  0  0  0  0  0  0  0  0  0
  133.6238    5.0978   72.9278 H   0  0  0  0  0  0  0  0  0  0  0  0
  129.9814    4.9740   71.5813 H   0  0  0  0  0  0  0  0  0  0  0  0
  129.7067    7.3567   72.4395 H   0  0  0  0  0  0  0  0  0  0  0  0
  131.1268    9.7472   70.7772 C   0  0  0  0  0  0  0  0  0  0  0  0
  130.4588    9.4211   69.5503 O   0  0  0  0  0  0  0  0  0  0  0  0
  131.1068    9.0964   68.9057 H   0  0  0  0  0  0  0  0  0  0  0  0
  134.8401    8.2239   73.7271 C   0  0  0  0  0  0  0  0  0  0  0  0
  138.0144    8.1257   75.5043 C   0  0  0  0  0  0  0  0  0  0  0  0
  139.4145    8.0822   75.1845 O   0  0  0  0  0  0  0  0  0  0  0  0
  137.6502    7.3468   76.8495 C   0  0  0  0  0  0  0  0  0  0  0  0
  138.7766    6.6569   77.4211 O   0  0  0  0  0  0  0  0  0  0  0  0
  136.4551    6.3734   76.6968 C   0  0  0  0  0  0  0  0  0  0  0  0
  135.9259    6.1585   78.0216 O   0  0  0  0  0  0  0  0  0  0  0  0
  135.3423    6.9981   75.8358 C   0  0  0  0  0  0  0  0  0  0  0  0
  134.2093    6.1241   75.7595 O   0  0  0  0  0  0  0  0  0  0  0  0
  135.8266    7.2630   74.4075 C   0  0  0  0  0  0  0  0  0  0  0  0
  137.2362    7.7112   74.3107 O   0  0  0  0  0  0  0  0  0  0  0  0
  139.6698    7.1705   74.9734 H   0  0  0  0  0  0  0  0  0  0  0  0
  139.0624    5.9511   76.8202 H   0  0  0  0  0  0  0  0  0  0  0  0
  135.6465    7.0070   78.3997 H   0  0  0  0  0  0  0  0  0  0  0  0
  134.4706    5.2924   75.3341 H   0  0  0  0  0  0  0  0  0  0  0  0
  2  1  1  0  0  0
  2  3  1  0  0  0
  2 10  1  0  0  0
  1 17  1  0  0  0
  3  4  1  0  0  0
  3  5  1  0  0  0
  5  6  1  0  0  0
  5  7  1  0  0  0
  7  8  1  0  0  0
  7  9  1  0  0  0
  9 10  1  0  0  0
  9 14  1  0  0  0
 14 15  1  0  0  0
 18 19  1  0  0  0
 18 20  1  0  0  0
 18 27  1  0  0  0
 20 21  1  0  0  0
 20 22  1  0  0  0
 22 23  1  0  0  0
 22 24  1  0  0  0
 24 25  1  0  0  0
 24 26  1  0  0  0
 26 27  1  0  0  0
 26 17  1  0  0  0
  4 11  1  0  0  0
  6 12  1  0  0  0
  8 13  1  0  0  0
 15 16  1  0  0  0
 19 28  1  0  0  0
 21 29  1  0  0  0
 23 30  1  0  0  0
 25 31  1  0  0  0
M  END
> <minimizedAffinity>
-9.63553

$$$$
6EPZ_MLB_A_701


 31 32  0  0  0  0  0  0  0  0999 V2000
  132.0996    9.2521   73.3026 O   0  0  0  0  0  0  0  0  0  0  0  0
  132.0403   10.6775   73.3246 C   0  0  0  0  0  0  0  0  0  0  0  0
  131.1341   11.2190   72.1539 C   0  0  0  0  0  0  0  0  0  0  0  0
  129.9244   10.4596   72.1383 O   0  0  0  0  0  0  0  0  0  0  0  0
  131.8638   10.9938   70.7993 C   0  0  0  0  0  0  0  0  0  0  0  0
  131.1670   11.6396   69.7261 O   0  0  0  0  0  0  0  0  0  0  0  0
  133.2877   11.4920   70.8032 C   0  0  0  0  0  0  0  0  0  0  0  0
  133.2554   12.9372   70.9090 O   0  0  0  0  0  0  0  0  0  0  0  0
  134.0695   10.8927   72.0013 C   0  0  0  0  0  0  0  0  0  0  0  0
  133.3685   11.2508   73.2298 O   0  0  0  0  0  0  0  0  0  0  0  0
  130.1333    9.5213   72.0083 H   0  0  0  0  0  0  0  0  0  0  0  0
  131.1652   12.5985   69.8725 H   0  0  0  0  0  0  0  0  0  0  0  0
  132.8050   13.1913   71.7296 H   0  0  0  0  0  0  0  0  0  0  0  0
  135.5057   11.4225   71.9984 C   0  0  0  0  0  0  0  0  0  0  0  0
  135.5644   12.6862   72.6748 O   0  0  0  0  0  0  0  0  0  0  0  0
  134.9920   13.3234   72.2197 H   0  0  0  0  0  0  0  0  0  0  0  0
  131.8300    8.6800   74.5758 C   0  0  0  0  0  0  0  0  0  0  0  0
  130.1302    6.7937   71.9687 C   0  0  0  0  0  0  0  0  0  0  0  0
  128.9079    6.8758   71.2179 O   0  0  0  0  0  0  0  0  0  0  0  0
  130.6018    5.2934   72.2438 C   0  0  0  0  0  0  0  0  0  0  0  0
  129.6529    4.3136   71.7843 O   0  0  0  0  0  0  0  0  0  0  0  0
  130.9687    5.0215   73.7238 C   0  0  0  0  0  0  0  0  0  0  0  0
  131.8329    3.8663   73.7294 O   0  0  0  0  0  0  0  0  0  0  0  0
  131.7514    6.2038   74.3235 C   0  0  0  0  0  0  0  0  0  0  0  0
  132.1524    5.9161   75.6688 O   0  0  0  0  0  0  0  0  0  0  0  0
  130.9016    7.4772   74.3502 C   0  0  0  0  0  0  0  0  0  0  0  0
  130.0081    7.6433   73.1792 O   0  0  0  0  0  0  0  0  0  0  0  0
  128.1777    6.5215   71.7491 H   0  0  0  0  0  0  0  0  0  0  0  0
  128.8334    4.3917   72.2972 H   0  0  0  0  0  0  0  0  0  0  0  0
  132.6220    4.0502   73.1962 H   0  0  0  0  0  0  0  0  0  0  0  0
  131.3650    5.7825   76.2193 H   0  0  0  0  0  0  0  0  0  0  0  0
  2  1  1  0  0  0
  2  3  1  0  0  0
  2 10  1  0  0  0
  1 17  1  0  0  0
  3  4  1  0  0  0
  3  5  1  0  0  0
  5  6  1  0  0  0
  5  7  1  0  0  0
  7  8  1  0  0  0
  7  9  1  0  0  0
  9 10  1  0  0  0
  9 14  1  0  0  0
 14 15  1  0  0  0
 18 19  1  0  0  0
 18 20  1  0  0  0
 18 27  1  0  0  0
 20 21  1  0  0  0
 20 22  1  0  0  0
 22 23  1  0  0  0
 22 24  1  0  0  0
 24 25  1  0  0  0
 24 26  1  0  0  0
 26 27  1  0  0  0
 26 17  1  0  0  0
  4 11  1  0  0  0
  6 12  1  0  0  0
  8 13  1  0  0  0
 15 16  1  0  0  0
 19 28  1  0  0  0
 21 29  1  0  0  0
 23 30  1  0  0  0
 25 31  1  0  0  0
M  END
> <minimizedAffinity>
-9.57181

$$$$
6EPZ_MLB_A_701


 31 32  0  0  0  0  0  0  0  0999 V2000
  133.7136    8.3781   74.4600 O   0  0  0  0  0  0  0  0  0  0  0  0
  132.5946    8.8024   73.6830 C   0  0  0  0  0  0  0  0  0  0  0  0
  131.9656   10.1193   74.2789 C   0  0  0  0  0  0  0  0  0  0  0  0
  133.0262   11.0359   74.5532 O   0  0  0  0  0  0  0  0  0  0  0  0
  131.2577    9.7831   75.6219 C   0  0  0  0  0  0  0  0  0  0  0  0
  130.5101   10.9065   76.1047 O   0  0  0  0  0  0  0  0  0  0  0  0
  130.3223    8.6040   75.5198 C   0  0  0  0  0  0  0  0  0  0  0  0
  129.2153    8.9844   74.6650 O   0  0  0  0  0  0  0  0  0  0  0  0
  131.0572    7.3782   74.9171 C   0  0  0  0  0  0  0  0  0  0  0  0
  131.5896    7.7599   73.6134 O   0  0  0  0  0  0  0  0  0  0  0  0
  133.6465   10.6340   75.1814 H   0  0  0  0  0  0  0  0  0  0  0  0
  129.8028   11.1187   75.4757 H   0  0  0  0  0  0  0  0  0  0  0  0
  129.5521    9.2268   73.7883 H   0  0  0  0  0  0  0  0  0  0  0  0
  130.0885    6.1982   74.8054 C   0  0  0  0  0  0  0  0  0  0  0  0
  130.7442    4.9852   75.2011 O   0  0  0  0  0  0  0  0  0  0  0  0
  131.5050    4.8249   74.6212 H   0  0  0  0  0  0  0  0  0  0  0  0
  134.8948    8.2466   73.6799 C   0  0  0  0  0  0  0  0  0  0  0  0
  137.9838    8.1555   75.6020 C   0  0  0  0  0  0  0  0  0  0  0  0
  139.3961    8.0845   75.3477 O   0  0  0  0  0  0  0  0  0  0  0  0
  137.5478    7.4190   76.9498 C   0  0  0  0  0  0  0  0  0  0  0  0
  138.6371    6.7302   77.5906 O   0  0  0  0  0  0  0  0  0  0  0  0
  136.3468    6.4577   76.7692 C   0  0  0  0  0  0  0  0  0  0  0  0
  135.7551    6.2867   78.0738 O   0  0  0  0  0  0  0  0  0  0  0  0
  135.2833    7.0731   75.8417 C   0  0  0  0  0  0  0  0  0  0  0  0
  134.1423    6.2125   75.7374 O   0  0  0  0  0  0  0  0  0  0  0  0
  135.8355    7.2919   74.4303 C   0  0  0  0  0  0  0  0  0  0  0  0
  137.2544    7.7185   74.3859 O   0  0  0  0  0  0  0  0  0  0  0  0
  139.6474    7.1640   75.1733 H   0  0  0  0  0  0  0  0  0  0  0  0
  138.9394    6.0043   77.0227 H   0  0  0  0  0  0  0  0  0  0  0  0
  135.4713    7.1489   78.4157 H   0  0  0  0  0  0  0  0  0  0  0  0
  134.4105    5.3659   75.3471 H   0  0  0  0  0  0  0  0  0  0  0  0
  2  1  1  0  0  0
  2  3  1  0  0  0
  2 10  1  0  0  0
  1 17  1  0  0  0
  3  4  1  0  0  0
  3  5  1  0  0  0
  5  6  1  0  0  0
  5  7  1  0  0  0
  7  8  1  0  0  0
  7  9  1  0  0  0
  9 10  1  0  0  0
  9 14  1  0  0  0
 14 15  1  0  0  0
 18 19  1  0  0  0
 18 20  1  0  0  0
 18 27  1  0  0  0
 20 21  1  0  0  0
 20 22  1  0  0  0
 22 23  1  0  0  0
 22 24  1  0  0  0
 24 25  1  0  0  0
 24 26  1  0  0  0
 26 27  1  0  0  0
 26 17  1  0  0  0
  4 11  1  0  0  0
  6 12  1  0  0  0
  8 13  1  0  0  0
 15 16  1  0  0  0
 19 28  1  0  0  0
 21 29  1  0  0  0
 23 30  1  0  0  0
 25 31  1  0  0  0
M  END
> <minimizedAffinity>
-9.50529

$$$$
6EPZ_MLB_A_701


 31 32  0  0  0  0  0  0  0  0999 V2000
  131.7514    9.5046   71.5255 O   0  0  0  0  0  0  0  0  0  0  0  0
  132.9609   10.0766   71.0295 C   0  0  0  0  0  0  0  0  0  0  0  0
  133.7950   10.7253   72.1993 C   0  0  0  0  0  0  0  0  0  0  0  0
  133.8430    9.7950   73.2821 O   0  0  0  0  0  0  0  0  0  0  0  0
  133.0663   12.0065   72.6946 C   0  0  0  0  0  0  0  0  0  0  0  0
  133.8794   12.7338   73.6243 O   0  0  0  0  0  0  0  0  0  0  0  0
  132.6824   12.9406   71.5740 C   0  0  0  0  0  0  0  0  0  0  0  0
  133.9015   13.4725   70.9979 O   0  0  0  0  0  0  0  0  0  0  0  0
  131.8728   12.1835   70.4891 C   0  0  0  0  0  0  0  0  0  0  0  0
  132.6823   11.0684   70.0095 O   0  0  0  0  0  0  0  0  0  0  0  0
  132.9405    9.5906   73.5730 H   0  0  0  0  0  0  0  0  0  0  0  0
  134.6849   13.0398   73.1789 H   0  0  0  0  0  0  0  0  0  0  0  0
  134.4445   12.7431   70.6603 H   0  0  0  0  0  0  0  0  0  0  0  0
  131.5074   13.1426   69.3533 C   0  0  0  0  0  0  0  0  0  0  0  0
  131.1934   14.4372   69.8855 O   0  0  0  0  0  0  0  0  0  0  0  0
  130.4393   14.3636   70.4912 H   0  0  0  0  0  0  0  0  0  0  0  0
  131.1396    8.6330   70.5836 C   0  0  0  0  0  0  0  0  0  0  0  0
  129.9870    5.6980   72.4007 C   0  0  0  0  0  0  0  0  0  0  0  0
  129.4935    4.3828   72.0988 O   0  0  0  0  0  0  0  0  0  0  0  0
  129.3511    6.3214   73.7259 C   0  0  0  0  0  0  0  0  0  0  0  0
  128.3237    5.4923   74.2991 O   0  0  0  0  0  0  0  0  0  0  0  0
  128.8230    7.7654   73.5388 C   0  0  0  0  0  0  0  0  0  0  0  0
  128.7743    8.3606   74.8521 O   0  0  0  0  0  0  0  0  0  0  0  0
  129.7882    8.5975   72.6751 C   0  0  0  0  0  0  0  0  0  0  0  0
  129.3327    9.9518   72.5670 O   0  0  0  0  0  0  0  0  0  0  0  0
  129.9002    8.0265   71.2587 C   0  0  0  0  0  0  0  0  0  0  0  0
  129.8654    6.5463   71.1892 O   0  0  0  0  0  0  0  0  0  0  0  0
  128.5514    4.4347   71.8738 H   0  0  0  0  0  0  0  0  0  0  0  0
  127.5716    5.4409   73.6887 H   0  0  0  0  0  0  0  0  0  0  0  0
  129.6623    8.3552   75.2426 H   0  0  0  0  0  0  0  0  0  0  0  0
  128.4672    9.9679   72.1294 H   0  0  0  0  0  0  0  0  0  0  0  0
  2  1  1  0  0  0
  2  3  1  0  0  0
  2 10  1  0  0  0
  1 17  1  0  0  0
  3  4  1  0  0  0
  3  5  1  0  0  0
  5  6  1  0  0  0
  5  7  1  0  0  0
  7  8  1  0  0  0
  7  9  1  0  0  0
  9 10  1  0  0  0
  9 14  1  0  0  0
 14 15  1  0  0  0
 18 19  1  0  0  0
 18 20  1  0  0  0
 18 27  1  0  0  0
 20 21  1  0  0  0
 20 22  1  0  0  0
 22 23  1  0  0  0
 22 24  1  0  0  0
 24 25  1  0  0  0
 24 26  1  0  0  0
 26 27  1  0  0  0
 26 17  1  0  0  0
  4 11  1  0  0  0
  6 12  1  0  0  0
  8 13  1  0  0  0
 15 16  1  0  0  0
 19 28  1  0  0  0
 21 29  1  0  0  0
 23 30  1  0  0  0
 25 31  1  0  0  0
M  END
> <minimizedAffinity>
-9.49265

$$$$
