5OTR_AU8_A_403


 19 20  0  0  0  0  0  0  0  0999 V2000
 -112.9910 -175.1288  308.0590 C   0  0  0  0  0  0  0  0  0  0  0  0
 -110.7299 -174.3658  308.3822 C   0  0  0  0  0  0  0  0  0  0  0  0
 -110.3109 -175.6137  308.8533 C   0  0  0  0  0  0  0  0  0  0  0  0
 -111.2867 -176.6059  308.8864 C   0  0  0  0  0  0  0  0  0  0  0  0
 -112.5880 -176.3890  308.4799 C   0  0  0  0  0  0  0  0  0  0  0  0
 -110.8771 -178.1682  309.4982 Cl  0  0  0  0  0  0  0  0  0  0  0  0
 -109.6049 -173.0509  308.3040 Cl  0  0  0  0  0  0  0  0  0  0  0  0
 -112.0365 -174.1212  307.9965 C   0  0  0  0  0  0  0  0  0  0  0  0
 -108.5714 -175.7066  310.6693 C   0  0  0  0  0  0  0  0  0  0  0  0
 -107.3037 -176.0395  311.1260 C   0  0  0  0  0  0  0  0  0  0  0  0
 -106.3511 -176.5304  310.2463 C   0  0  0  0  0  0  0  0  0  0  0  0
 -106.6679 -176.6779  308.9038 C   0  0  0  0  0  0  0  0  0  0  0  0
 -107.9344 -176.3473  308.4444 C   0  0  0  0  0  0  0  0  0  0  0  0
 -108.9137 -175.8707  309.3228 C   0  0  0  0  0  0  0  0  0  0  0  0
 -114.4455 -174.8718  307.7380 C   0  0  0  0  0  0  0  0  0  0  0  0
 -115.3413 -174.9898  308.8893 N   0  0  0  0  0  0  0  0  0  0  0  0
 -115.0919 -174.2892  309.5874 H   0  0  0  0  0  0  0  0  0  0  0  0
 -115.2521 -175.9212  309.2954 H   0  0  0  0  0  0  0  0  0  0  0  0
 -116.3042 -174.8413  308.5875 H   0  0  0  0  0  0  0  0  0  0  0  0
 16 15  1  0  0  0
 13 12  2  0  0  0
 13 14  1  0  0  0
  8  1  2  0  0  0
  8  2  1  0  0  0
  7  2  1  0  0  0
 15  1  1  0  0  0
  1  5  1  0  0  0
  2  3  2  0  0  0
 12 11  1  0  0  0
  5  4  2  0  0  0
  3  4  1  0  0  0
  3 14  1  0  0  0
  4  6  1  0  0  0
 14  9  2  0  0  0
 11 10  2  0  0  0
  9 10  1  0  0  0
 16 17  1  0  0  0
 16 18  1  0  0  0
 16 19  1  0  0  0
M  CHG 1  16   1
M  END
> <minimizedAffinity>
-8.55867

$$$$
5OTR_AU8_A_403


 19 20  0  0  0  0  0  0  0  0999 V2000
 -113.0122 -175.1161  308.1215 C   0  0  0  0  0  0  0  0  0  0  0  0
 -111.3002 -176.6170  308.9061 C   0  0  0  0  0  0  0  0  0  0  0  0
 -110.3151 -175.6271  308.8381 C   0  0  0  0  0  0  0  0  0  0  0  0
 -110.7472 -174.3724  308.4180 C   0  0  0  0  0  0  0  0  0  0  0  0
 -112.0612 -174.1050  308.0898 C   0  0  0  0  0  0  0  0  0  0  0  0
 -109.5944 -173.0966  308.2561 Cl  0  0  0  0  0  0  0  0  0  0  0  0
 -110.8789 -178.2206  309.4076 Cl  0  0  0  0  0  0  0  0  0  0  0  0
 -112.6171 -176.3757  308.5546 C   0  0  0  0  0  0  0  0  0  0  0  0
 -108.3934 -175.6959  310.4612 C   0  0  0  0  0  0  0  0  0  0  0  0
 -107.0891 -176.0373  310.7911 C   0  0  0  0  0  0  0  0  0  0  0  0
 -106.2430 -176.5713  309.8314 C   0  0  0  0  0  0  0  0  0  0  0  0
 -106.7033 -176.7537  308.5355 C   0  0  0  0  0  0  0  0  0  0  0  0
 -108.0066 -176.4147  308.2028 C   0  0  0  0  0  0  0  0  0  0  0  0
 -108.8797 -175.8945  309.1646 C   0  0  0  0  0  0  0  0  0  0  0  0
 -114.4182 -174.8425  307.6388 C   0  0  0  0  0  0  0  0  0  0  0  0
 -115.4331 -174.8995  308.6917 N   0  0  0  0  0  0  0  0  0  0  0  0
 -115.2423 -174.1783  309.3873 H   0  0  0  0  0  0  0  0  0  0  0  0
 -115.4093 -175.8167  309.1375 H   0  0  0  0  0  0  0  0  0  0  0  0
 -116.3550 -174.7434  308.2841 H   0  0  0  0  0  0  0  0  0  0  0  0
 16 15  1  0  0  0
 13 12  2  0  0  0
 13 14  1  0  0  0
  8  1  2  0  0  0
  8  2  1  0  0  0
  7  2  1  0  0  0
 15  1  1  0  0  0
  1  5  1  0  0  0
  2  3  2  0  0  0
 12 11  1  0  0  0
  5  4  2  0  0  0
  3  4  1  0  0  0
  3 14  1  0  0  0
  4  6  1  0  0  0
 14  9  2  0  0  0
 11 10  2  0  0  0
  9 10  1  0  0  0
 16 17  1  0  0  0
 16 18  1  0  0  0
 16 19  1  0  0  0
M  CHG 1  16   1
M  END
> <minimizedAffinity>
-8.48445

$$$$
5OTR_AU8_A_403


 19 20  0  0  0  0  0  0  0  0999 V2000
 -110.4743 -173.9414  305.4610 C   0  0  0  0  0  0  0  0  0  0  0  0
 -108.7879 -175.3298  306.4747 C   0  0  0  0  0  0  0  0  0  0  0  0
 -109.2640 -175.0728  307.7640 C   0  0  0  0  0  0  0  0  0  0  0  0
 -110.3807 -174.2455  307.8421 C   0  0  0  0  0  0  0  0  0  0  0  0
 -110.9932 -173.7086  306.7276 C   0  0  0  0  0  0  0  0  0  0  0  0
 -111.0134 -173.8312  309.3949 Cl  0  0  0  0  0  0  0  0  0  0  0  0
 -107.3976 -176.3391  306.2535 Cl  0  0  0  0  0  0  0  0  0  0  0  0
 -109.3713 -174.7784  305.3471 C   0  0  0  0  0  0  0  0  0  0  0  0
 -109.0216 -176.8394  309.5396 C   0  0  0  0  0  0  0  0  0  0  0  0
 -108.3491 -177.3997  310.6167 C   0  0  0  0  0  0  0  0  0  0  0  0
 -107.2579 -176.7502  311.1732 C   0  0  0  0  0  0  0  0  0  0  0  0
 -106.8470 -175.5309  310.6545 C   0  0  0  0  0  0  0  0  0  0  0  0
 -107.5163 -174.9688  309.5773 C   0  0  0  0  0  0  0  0  0  0  0  0
 -108.6060 -175.6215  308.9906 C   0  0  0  0  0  0  0  0  0  0  0  0
 -111.0763 -173.2462  304.2614 C   0  0  0  0  0  0  0  0  0  0  0  0
 -110.4539 -173.6073  302.9870 N   0  0  0  0  0  0  0  0  0  0  0  0
 -110.5856 -174.6039  302.8146 H   0  0  0  0  0  0  0  0  0  0  0  0
 -109.4563 -173.3977  303.0244 H   0  0  0  0  0  0  0  0  0  0  0  0
 -110.8858 -173.0719  302.2339 H   0  0  0  0  0  0  0  0  0  0  0  0
 16 15  1  0  0  0
 13 12  2  0  0  0
 13 14  1  0  0  0
  8  1  2  0  0  0
  8  2  1  0  0  0
  7  2  1  0  0  0
 15  1  1  0  0  0
  1  5  1  0  0  0
  2  3  2  0  0  0
 12 11  1  0  0  0
  5  4  2  0  0  0
  3  4  1  0  0  0
  3 14  1  0  0  0
  4  6  1  0  0  0
 14  9  2  0  0  0
 11 10  2  0  0  0
  9 10  1  0  0  0
 16 17  1  0  0  0
 16 18  1  0  0  0
 16 19  1  0  0  0
M  CHG 1  16   1
M  END
> <minimizedAffinity>
-7.72655

$$$$
5OTR_AU8_A_403


 19 20  0  0  0  0  0  0  0  0999 V2000
 -110.4714 -173.8876  305.4746 C   0  0  0  0  0  0  0  0  0  0  0  0
 -110.3437 -174.1349  307.8667 C   0  0  0  0  0  0  0  0  0  0  0  0
 -109.2383 -174.9866  307.7812 C   0  0  0  0  0  0  0  0  0  0  0  0
 -108.7701 -175.2420  306.4955 C   0  0  0  0  0  0  0  0  0  0  0  0
 -109.3463 -174.6941  305.3671 C   0  0  0  0  0  0  0  0  0  0  0  0
 -107.4379 -176.3208  306.2844 Cl  0  0  0  0  0  0  0  0  0  0  0  0
 -111.0200 -173.7513  309.4146 Cl  0  0  0  0  0  0  0  0  0  0  0  0
 -110.9525 -173.5980  306.7454 C   0  0  0  0  0  0  0  0  0  0  0  0
 -109.0548 -176.8509  309.4615 C   0  0  0  0  0  0  0  0  0  0  0  0
 -108.4086 -177.4816  310.5156 C   0  0  0  0  0  0  0  0  0  0  0  0
 -107.3137 -176.8844  311.1212 C   0  0  0  0  0  0  0  0  0  0  0  0
 -106.8726 -175.6471  310.6750 C   0  0  0  0  0  0  0  0  0  0  0  0
 -107.5155 -175.0147  309.6209 C   0  0  0  0  0  0  0  0  0  0  0  0
 -108.6086 -175.6135  308.9850 C   0  0  0  0  0  0  0  0  0  0  0  0
 -111.1686 -173.3977  304.2262 C   0  0  0  0  0  0  0  0  0  0  0  0
 -110.4426 -173.6791  302.9870 N   0  0  0  0  0  0  0  0  0  0  0  0
 -110.3531 -174.6881  302.8670 H   0  0  0  0  0  0  0  0  0  0  0  0
 -109.5144 -173.2587  303.0338 H   0  0  0  0  0  0  0  0  0  0  0  0
 -110.9541 -173.2867  302.1966 H   0  0  0  0  0  0  0  0  0  0  0  0
 16 15  1  0  0  0
 13 12  2  0  0  0
 13 14  1  0  0  0
  8  1  2  0  0  0
  8  2  1  0  0  0
  7  2  1  0  0  0
 15  1  1  0  0  0
  1  5  1  0  0  0
  2  3  2  0  0  0
 12 11  1  0  0  0
  5  4  2  0  0  0
  3  4  1  0  0  0
  3 14  1  0  0  0
  4  6  1  0  0  0
 14  9  2  0  0  0
 11 10  2  0  0  0
  9 10  1  0  0  0
 16 17  1  0  0  0
 16 18  1  0  0  0
 16 19  1  0  0  0
M  CHG 1  16   1
M  END
> <minimizedAffinity>
-7.27483

$$$$
5OTR_AU8_A_403


 19 20  0  0  0  0  0  0  0  0999 V2000
 -107.5665 -176.2320  309.5741 C   0  0  0  0  0  0  0  0  0  0  0  0
 -109.1160 -174.5809  308.7540 C   0  0  0  0  0  0  0  0  0  0  0  0
 -110.1611 -175.5070  308.6843 C   0  0  0  0  0  0  0  0  0  0  0  0
 -109.8522 -176.7992  309.0995 C   0  0  0  0  0  0  0  0  0  0  0  0
 -108.6004 -177.1586  309.5573 C   0  0  0  0  0  0  0  0  0  0  0  0
 -111.0648 -178.0255  309.0049 Cl  0  0  0  0  0  0  0  0  0  0  0  0
 -109.3796 -172.9431  308.2553 Cl  0  0  0  0  0  0  0  0  0  0  0  0
 -107.8469 -174.9284  309.1837 C   0  0  0  0  0  0  0  0  0  0  0  0
 -111.7074 -174.8033  306.8280 C   0  0  0  0  0  0  0  0  0  0  0  0
 -112.9799 -174.5703  306.3249 C   0  0  0  0  0  0  0  0  0  0  0  0
 -114.0871 -174.6686  307.1535 C   0  0  0  0  0  0  0  0  0  0  0  0
 -113.9165 -174.9911  308.4919 C   0  0  0  0  0  0  0  0  0  0  0  0
 -112.6462 -175.2257  308.9975 C   0  0  0  0  0  0  0  0  0  0  0  0
 -111.5204 -175.1515  308.1700 C   0  0  0  0  0  0  0  0  0  0  0  0
 -106.1707 -176.6683  309.9562 C   0  0  0  0  0  0  0  0  0  0  0  0
 -105.4152 -177.2793  308.8618 N   0  0  0  0  0  0  0  0  0  0  0  0
 -105.2887 -176.5975  308.1138 H   0  0  0  0  0  0  0  0  0  0  0  0
 -105.9271 -178.0856  308.5039 H   0  0  0  0  0  0  0  0  0  0  0  0
 -104.5031 -177.5806  309.2051 H   0  0  0  0  0  0  0  0  0  0  0  0
 16 15  1  0  0  0
 13 12  2  0  0  0
 13 14  1  0  0  0
  8  1  2  0  0  0
  8  2  1  0  0  0
  7  2  1  0  0  0
 15  1  1  0  0  0
  1  5  1  0  0  0
  2  3  2  0  0  0
 12 11  1  0  0  0
  5  4  2  0  0  0
  3  4  1  0  0  0
  3 14  1  0  0  0
  4  6  1  0  0  0
 14  9  2  0  0  0
 11 10  2  0  0  0
  9 10  1  0  0  0
 16 17  1  0  0  0
 16 18  1  0  0  0
 16 19  1  0  0  0
M  CHG 1  16   1
M  END
> <minimizedAffinity>
-6.92141

$$$$
5OTR_AU8_A_403


 19 20  0  0  0  0  0  0  0  0999 V2000
 -107.7950 -176.1562  309.6110 C   0  0  0  0  0  0  0  0  0  0  0  0
 -110.0171 -176.8157  308.9580 C   0  0  0  0  0  0  0  0  0  0  0  0
 -110.3444 -175.5222  308.5399 C   0  0  0  0  0  0  0  0  0  0  0  0
 -109.3334 -174.5734  308.6629 C   0  0  0  0  0  0  0  0  0  0  0  0
 -108.0812 -174.8748  309.1598 C   0  0  0  0  0  0  0  0  0  0  0  0
 -109.6574 -172.9365  308.2172 Cl  0  0  0  0  0  0  0  0  0  0  0  0
 -111.1984 -178.0788  308.8605 Cl  0  0  0  0  0  0  0  0  0  0  0  0
 -108.7766 -177.1312  309.4848 C   0  0  0  0  0  0  0  0  0  0  0  0
 -111.8935 -174.8822  306.6629 C   0  0  0  0  0  0  0  0  0  0  0  0
 -113.1654 -174.6457  306.1600 C   0  0  0  0  0  0  0  0  0  0  0  0
 -114.2656 -174.6720  307.0031 C   0  0  0  0  0  0  0  0  0  0  0  0
 -114.0883 -174.9259  308.3554 C   0  0  0  0  0  0  0  0  0  0  0  0
 -112.8186 -175.1638  308.8609 C   0  0  0  0  0  0  0  0  0  0  0  0
 -111.7003 -175.1619  308.0200 C   0  0  0  0  0  0  0  0  0  0  0  0
 -106.4650 -176.4429  310.2696 C   0  0  0  0  0  0  0  0  0  0  0  0
 -106.5602 -176.7591  311.6954 N   0  0  0  0  0  0  0  0  0  0  0  0
 -107.1104 -177.6090  311.8191 H   0  0  0  0  0  0  0  0  0  0  0  0
 -107.0120 -175.9871  312.1854 H   0  0  0  0  0  0  0  0  0  0  0  0
 -105.6243 -176.9017  312.0752 H   0  0  0  0  0  0  0  0  0  0  0  0
 16 15  1  0  0  0
 13 12  2  0  0  0
 13 14  1  0  0  0
  8  1  2  0  0  0
  8  2  1  0  0  0
  7  2  1  0  0  0
 15  1  1  0  0  0
  1  5  1  0  0  0
  2  3  2  0  0  0
 12 11  1  0  0  0
  5  4  2  0  0  0
  3  4  1  0  0  0
  3 14  1  0  0  0
  4  6  1  0  0  0
 14  9  2  0  0  0
 11 10  2  0  0  0
  9 10  1  0  0  0
 16 17  1  0  0  0
 16 18  1  0  0  0
 16 19  1  0  0  0
M  CHG 1  16   1
M  END
> <minimizedAffinity>
-6.87208

$$$$
5OTR_AU8_A_403


 19 20  0  0  0  0  0  0  0  0999 V2000
 -110.8987 -173.7815  305.5465 C   0  0  0  0  0  0  0  0  0  0  0  0
 -111.4005 -174.4322  307.8102 C   0  0  0  0  0  0  0  0  0  0  0  0
 -110.2201 -175.1730  307.9239 C   0  0  0  0  0  0  0  0  0  0  0  0
 -109.3916 -175.1653  306.8054 C   0  0  0  0  0  0  0  0  0  0  0  0
 -109.6991 -174.4724  305.6517 C   0  0  0  0  0  0  0  0  0  0  0  0
 -107.9334 -176.0904  306.8325 Cl  0  0  0  0  0  0  0  0  0  0  0  0
 -112.5145 -174.3750  309.1354 Cl  0  0  0  0  0  0  0  0  0  0  0  0
 -111.7395 -173.7539  306.6521 C   0  0  0  0  0  0  0  0  0  0  0  0
 -110.4517 -177.2035  309.3921 C   0  0  0  0  0  0  0  0  0  0  0  0
 -110.0579 -177.9729  310.4782 C   0  0  0  0  0  0  0  0  0  0  0  0
 -109.0888 -177.5036  311.3515 C   0  0  0  0  0  0  0  0  0  0  0  0
 -108.5211 -176.2555  311.1407 C   0  0  0  0  0  0  0  0  0  0  0  0
 -108.9116 -175.4847  310.0556 C   0  0  0  0  0  0  0  0  0  0  0  0
 -109.8729 -175.9526  309.1528 C   0  0  0  0  0  0  0  0  0  0  0  0
 -111.2819 -173.1336  304.2357 C   0  0  0  0  0  0  0  0  0  0  0  0
 -110.3510 -173.4062  303.1399 N   0  0  0  0  0  0  0  0  0  0  0  0
 -110.3336 -174.4082  302.9499 H   0  0  0  0  0  0  0  0  0  0  0  0
 -109.4161 -173.0937  303.4022 H   0  0  0  0  0  0  0  0  0  0  0  0
 -110.6543 -172.9068  302.3039 H   0  0  0  0  0  0  0  0  0  0  0  0
 16 15  1  0  0  0
 13 12  2  0  0  0
 13 14  1  0  0  0
  8  1  2  0  0  0
  8  2  1  0  0  0
  7  2  1  0  0  0
 15  1  1  0  0  0
  1  5  1  0  0  0
  2  3  2  0  0  0
 12 11  1  0  0  0
  5  4  2  0  0  0
  3  4  1  0  0  0
  3 14  1  0  0  0
  4  6  1  0  0  0
 14  9  2  0  0  0
 11 10  2  0  0  0
  9 10  1  0  0  0
 16 17  1  0  0  0
 16 18  1  0  0  0
 16 19  1  0  0  0
M  CHG 1  16   1
M  END
> <minimizedAffinity>
-6.76066

$$$$
5OTR_AU8_A_403


 19 20  0  0  0  0  0  0  0  0999 V2000
 -107.4561 -176.1630  309.3344 C   0  0  0  0  0  0  0  0  0  0  0  0
 -109.4731 -174.9456  308.8352 C   0  0  0  0  0  0  0  0  0  0  0  0
 -109.2997 -175.1025  307.4567 C   0  0  0  0  0  0  0  0  0  0  0  0
 -108.1783 -175.8296  307.0676 C   0  0  0  0  0  0  0  0  0  0  0  0
 -107.2872 -176.3712  307.9722 C   0  0  0  0  0  0  0  0  0  0  0  0
 -107.8525 -176.0362  305.3841 Cl  0  0  0  0  0  0  0  0  0  0  0  0
 -110.8287 -174.0516  309.4381 Cl  0  0  0  0  0  0  0  0  0  0  0  0
 -108.5758 -175.4572  309.7567 C   0  0  0  0  0  0  0  0  0  0  0  0
 -109.7565 -174.0093  305.2367 C   0  0  0  0  0  0  0  0  0  0  0  0
 -110.6317 -173.5475  304.2634 C   0  0  0  0  0  0  0  0  0  0  0  0
 -111.9993 -173.5620  304.4904 C   0  0  0  0  0  0  0  0  0  0  0  0
 -112.4893 -174.0311  305.7005 C   0  0  0  0  0  0  0  0  0  0  0  0
 -111.6174 -174.4943  306.6749 C   0  0  0  0  0  0  0  0  0  0  0  0
 -110.2359 -174.5063  306.4534 C   0  0  0  0  0  0  0  0  0  0  0  0
 -106.4068 -176.6516  310.3065 C   0  0  0  0  0  0  0  0  0  0  0  0
 -106.7957 -176.5372  311.7127 N   0  0  0  0  0  0  0  0  0  0  0  0
 -107.6155 -177.1184  311.8871 H   0  0  0  0  0  0  0  0  0  0  0  0
 -107.0168 -175.5646  311.9264 H   0  0  0  0  0  0  0  0  0  0  0  0
 -106.0258 -176.8488  312.3048 H   0  0  0  0  0  0  0  0  0  0  0  0
 16 15  1  0  0  0
 13 12  2  0  0  0
 13 14  1  0  0  0
  8  1  2  0  0  0
  8  2  1  0  0  0
  7  2  1  0  0  0
 15  1  1  0  0  0
  1  5  1  0  0  0
  2  3  2  0  0  0
 12 11  1  0  0  0
  5  4  2  0  0  0
  3  4  1  0  0  0
  3 14  1  0  0  0
  4  6  1  0  0  0
 14  9  2  0  0  0
 11 10  2  0  0  0
  9 10  1  0  0  0
 16 17  1  0  0  0
 16 18  1  0  0  0
 16 19  1  0  0  0
M  CHG 1  16   1
M  END
> <minimizedAffinity>
-6.51575

$$$$
5OTR_AU8_A_403


 19 20  0  0  0  0  0  0  0  0999 V2000
 -107.6219 -176.2592  309.4402 C   0  0  0  0  0  0  0  0  0  0  0  0
 -108.2170 -175.8466  307.1435 C   0  0  0  0  0  0  0  0  0  0  0  0
 -109.3315 -175.0838  307.5052 C   0  0  0  0  0  0  0  0  0  0  0  0
 -109.5345 -174.9209  308.8726 C   0  0  0  0  0  0  0  0  0  0  0  0
 -108.6961 -175.4675  309.8235 C   0  0  0  0  0  0  0  0  0  0  0  0
 -110.9125 -174.0344  309.4186 Cl  0  0  0  0  0  0  0  0  0  0  0  0
 -107.8681 -176.1250  305.4698 Cl  0  0  0  0  0  0  0  0  0  0  0  0
 -107.3808 -176.4260  308.0822 C   0  0  0  0  0  0  0  0  0  0  0  0
 -109.7897 -173.9840  305.2886 C   0  0  0  0  0  0  0  0  0  0  0  0
 -110.6649 -173.5333  304.3101 C   0  0  0  0  0  0  0  0  0  0  0  0
 -112.0340 -173.5777  304.5238 C   0  0  0  0  0  0  0  0  0  0  0  0
 -112.5258 -174.0657  305.7257 C   0  0  0  0  0  0  0  0  0  0  0  0
 -111.6538 -174.5179  306.7052 C   0  0  0  0  0  0  0  0  0  0  0  0
 -110.2703 -174.4998  306.4971 C   0  0  0  0  0  0  0  0  0  0  0  0
 -106.7875 -176.9557  310.4907 C   0  0  0  0  0  0  0  0  0  0  0  0
 -106.8358 -176.3219  311.8089 N   0  0  0  0  0  0  0  0  0  0  0  0
 -107.7917 -176.3478  312.1638 H   0  0  0  0  0  0  0  0  0  0  0  0
 -106.5280 -175.3525  311.7316 H   0  0  0  0  0  0  0  0  0  0  0  0
 -106.2214 -176.8235  312.4501 H   0  0  0  0  0  0  0  0  0  0  0  0
 16 15  1  0  0  0
 13 12  2  0  0  0
 13 14  1  0  0  0
  8  1  2  0  0  0
  8  2  1  0  0  0
  7  2  1  0  0  0
 15  1  1  0  0  0
  1  5  1  0  0  0
  2  3  2  0  0  0
 12 11  1  0  0  0
  5  4  2  0  0  0
  3  4  1  0  0  0
  3 14  1  0  0  0
  4  6  1  0  0  0
 14  9  2  0  0  0
 11 10  2  0  0  0
  9 10  1  0  0  0
 16 17  1  0  0  0
 16 18  1  0  0  0
 16 19  1  0  0  0
M  CHG 1  16   1
M  END
> <minimizedAffinity>
-6.40777

$$$$
5OTR_AU8_A_403


 19 20  0  0  0  0  0  0  0  0999 V2000
 -107.1726 -177.1905  308.2585 C   0  0  0  0  0  0  0  0  0  0  0  0
 -109.3840 -176.8885  309.1626 C   0  0  0  0  0  0  0  0  0  0  0  0
 -109.7787 -176.0822  308.0907 C   0  0  0  0  0  0  0  0  0  0  0  0
 -108.8193 -175.8773  307.1032 C   0  0  0  0  0  0  0  0  0  0  0  0
 -107.5560 -176.4309  307.1615 C   0  0  0  0  0  0  0  0  0  0  0  0
 -109.1970 -174.8561  305.7625 Cl  0  0  0  0  0  0  0  0  0  0  0  0
 -110.4910 -177.2068  310.4563 Cl  0  0  0  0  0  0  0  0  0  0  0  0
 -108.1131 -177.4295  309.2527 C   0  0  0  0  0  0  0  0  0  0  0  0
 -111.2664 -174.0679  307.8419 C   0  0  0  0  0  0  0  0  0  0  0  0
 -112.5170 -173.4909  307.6696 C   0  0  0  0  0  0  0  0  0  0  0  0
 -113.6570 -174.2799  307.6772 C   0  0  0  0  0  0  0  0  0  0  0  0
 -113.5429 -175.6492  307.8682 C   0  0  0  0  0  0  0  0  0  0  0  0
 -112.2945 -176.2291  308.0394 C   0  0  0  0  0  0  0  0  0  0  0  0
 -111.1325 -175.4499  308.0132 C   0  0  0  0  0  0  0  0  0  0  0  0
 -105.7485 -177.6845  308.3714 C   0  0  0  0  0  0  0  0  0  0  0  0
 -104.9407 -176.9594  309.3531 N   0  0  0  0  0  0  0  0  0  0  0  0
 -105.3429 -177.0831  310.2823 H   0  0  0  0  0  0  0  0  0  0  0  0
 -104.9286 -175.9672  309.1172 H   0  0  0  0  0  0  0  0  0  0  0  0
 -103.9876 -177.3227  309.3440 H   0  0  0  0  0  0  0  0  0  0  0  0
 16 15  1  0  0  0
 13 12  2  0  0  0
 13 14  1  0  0  0
  8  1  2  0  0  0
  8  2  1  0  0  0
  7  2  1  0  0  0
 15  1  1  0  0  0
  1  5  1  0  0  0
  2  3  2  0  0  0
 12 11  1  0  0  0
  5  4  2  0  0  0
  3  4  1  0  0  0
  3 14  1  0  0  0
  4  6  1  0  0  0
 14  9  2  0  0  0
 11 10  2  0  0  0
  9 10  1  0  0  0
 16 17  1  0  0  0
 16 18  1  0  0  0
 16 19  1  0  0  0
M  CHG 1  16   1
M  END
> <minimizedAffinity>
-6.27320

$$$$
