4XAQ_40F_A_601


 17 18  0  0  0  0  0  0  0  0999 V2000
   -7.9267   37.1646   28.1617 C   0  0  0  0  0  0  0  0  0  0  0  0
   -7.5594   36.5539   29.5671 C   0  0  0  0  0  0  0  0  0  0  0  0
   -7.8414   35.9949   27.1334 C   0  0  0  0  0  0  0  0  0  0  0  0
   -7.8790   35.0767   29.4336 C   0  0  0  0  0  0  0  0  0  0  0  0
   -9.2687   34.7961   28.8549 C   0  0  0  0  0  0  0  0  0  0  0  0
   -8.0695   34.7564   27.9540 C   0  0  0  0  0  0  0  0  0  0  0  0
   -8.8339   36.0837   26.0406 N   0  0  0  0  0  0  0  0  0  0  0  0
   -8.7184   35.2896   25.4110 H   0  0  0  0  0  0  0  0  0  0  0  0
   -8.6931   36.9513   25.5230 H   0  0  0  0  0  0  0  0  0  0  0  0
   -5.3867   36.2982   27.1315 O   0  0  0  0  0  0  0  0  0  0  0  0
   -6.3995   35.9242   26.5572 C   0  0  0  0  0  0  0  0  0  0  0  0
   -6.2346   35.4330   25.3114 O   0  0  0  0  0  0  0  0  0  0  0  0
   -5.4421   36.6482   27.9988 H   0  0  0  0  0  0  0  0  0  0  0  0
   -9.2186   32.4630   29.3847 O   0  0  0  0  0  0  0  0  0  0  0  0
   -9.9965   33.5421   29.1247 C   0  0  0  0  0  0  0  0  0  0  0  0
  -11.2130   33.4456   29.1171 O   0  0  0  0  0  0  0  0  0  0  0  0
   -8.2855   32.5480   29.3881 H   0  0  0  0  0  0  0  0  0  0  0  0
 12 11  2  0  0  0
  7  3  1  0  0  0
 11  3  1  0  0  0
 11 10  1  0  0  0
  3  6  1  0  0  0
  3  1  1  0  0  0
  6  5  1  0  0  0
  6  4  1  0  0  0
  1  2  1  0  0  0
  5 15  1  0  0  0
  5  4  1  0  0  0
 15 16  2  0  0  0
 15 14  1  0  0  0
  4  2  1  0  0  0
 10 13  1  0  0  0
 14 17  1  0  0  0
  7  8  1  0  0  0
  7  9  1  0  0  0
M  END
> <minimizedAffinity>
-8.87555

$$$$
4XAQ_40F_A_601


 17 18  0  0  0  0  0  0  0  0999 V2000
   -8.2145   35.3031   30.4461 C   0  0  0  0  0  0  0  0  0  0  0  0
   -8.1170   36.8274   30.0584 C   0  0  0  0  0  0  0  0  0  0  0  0
   -8.4834   34.5246   29.1215 C   0  0  0  0  0  0  0  0  0  0  0  0
   -7.7205   36.8214   28.5939 C   0  0  0  0  0  0  0  0  0  0  0  0
   -6.5307   35.9097   28.2807 C   0  0  0  0  0  0  0  0  0  0  0  0
   -7.9266   35.4130   28.0444 C   0  0  0  0  0  0  0  0  0  0  0  0
   -7.8499   33.1891   29.0719 N   0  0  0  0  0  0  0  0  0  0  0  0
   -8.0683   32.7421   28.1814 H   0  0  0  0  0  0  0  0  0  0  0  0
   -8.2056   32.6154   29.8366 H   0  0  0  0  0  0  0  0  0  0  0  0
  -10.7910   35.3511   28.7918 O   0  0  0  0  0  0  0  0  0  0  0  0
  -10.0172   34.4102   28.8974 C   0  0  0  0  0  0  0  0  0  0  0  0
  -10.5617   33.1773   28.8344 O   0  0  0  0  0  0  0  0  0  0  0  0
  -10.4679   36.2299   28.8283 H   0  0  0  0  0  0  0  0  0  0  0  0
   -4.3984   36.5631   27.4132 O   0  0  0  0  0  0  0  0  0  0  0  0
   -5.6500   36.1337   27.1193 C   0  0  0  0  0  0  0  0  0  0  0  0
   -5.9929   35.9601   25.9610 O   0  0  0  0  0  0  0  0  0  0  0  0
   -4.1454   36.6933   28.3060 H   0  0  0  0  0  0  0  0  0  0  0  0
 12 11  2  0  0  0
  7  3  1  0  0  0
 11  3  1  0  0  0
 11 10  1  0  0  0
  3  6  1  0  0  0
  3  1  1  0  0  0
  6  5  1  0  0  0
  6  4  1  0  0  0
  1  2  1  0  0  0
  5 15  1  0  0  0
  5  4  1  0  0  0
 15 16  2  0  0  0
 15 14  1  0  0  0
  4  2  1  0  0  0
 10 13  1  0  0  0
 14 17  1  0  0  0
  7  8  1  0  0  0
  7  9  1  0  0  0
M  END
> <minimizedAffinity>
-8.52154

$$$$
4XAQ_40F_A_601


 17 18  0  0  0  0  0  0  0  0999 V2000
   -8.7688   36.9582   27.9565 C   0  0  0  0  0  0  0  0  0  0  0  0
   -7.7269   37.2980   29.0888 C   0  0  0  0  0  0  0  0  0  0  0  0
   -8.4200   35.5257   27.4477 C   0  0  0  0  0  0  0  0  0  0  0  0
   -7.2681   35.9452   29.6001 C   0  0  0  0  0  0  0  0  0  0  0  0
   -8.4172   34.9874   29.9273 C   0  0  0  0  0  0  0  0  0  0  0  0
   -7.7149   34.8773   28.6061 C   0  0  0  0  0  0  0  0  0  0  0  0
   -9.5990   34.7285   27.0457 N   0  0  0  0  0  0  0  0  0  0  0  0
   -9.2948   33.8089   26.7260 H   0  0  0  0  0  0  0  0  0  0  0  0
  -10.0905   35.2058   26.2900 H   0  0  0  0  0  0  0  0  0  0  0  0
   -7.6938   35.8565   25.1067 O   0  0  0  0  0  0  0  0  0  0  0  0
   -7.4066   35.6321   26.2739 C   0  0  0  0  0  0  0  0  0  0  0  0
   -6.0982   35.4413   26.5425 O   0  0  0  0  0  0  0  0  0  0  0  0
   -8.5875   35.9969   24.8627 H   0  0  0  0  0  0  0  0  0  0  0  0
   -8.5722   34.2086   32.1847 O   0  0  0  0  0  0  0  0  0  0  0  0
   -8.2752   33.8892   30.9013 C   0  0  0  0  0  0  0  0  0  0  0  0
   -7.9127   32.7615   30.6081 O   0  0  0  0  0  0  0  0  0  0  0  0
   -8.8496   35.0775   32.3990 H   0  0  0  0  0  0  0  0  0  0  0  0
 12 11  2  0  0  0
  7  3  1  0  0  0
 11  3  1  0  0  0
 11 10  1  0  0  0
  3  6  1  0  0  0
  3  1  1  0  0  0
  6  5  1  0  0  0
  6  4  1  0  0  0
  1  2  1  0  0  0
  5 15  1  0  0  0
  5  4  1  0  0  0
 15 16  2  0  0  0
 15 14  1  0  0  0
  4  2  1  0  0  0
 10 13  1  0  0  0
 14 17  1  0  0  0
  7  8  1  0  0  0
  7  9  1  0  0  0
M  END
> <minimizedAffinity>
-8.29855

$$$$
4XAQ_40F_A_601


 17 18  0  0  0  0  0  0  0  0999 V2000
   -9.7523   35.2562   29.1506 C   0  0  0  0  0  0  0  0  0  0  0  0
   -9.6559   34.2393   27.9507 C   0  0  0  0  0  0  0  0  0  0  0  0
   -8.3438   35.2880   29.8197 C   0  0  0  0  0  0  0  0  0  0  0  0
   -8.1814   34.2121   27.5944 C   0  0  0  0  0  0  0  0  0  0  0  0
   -7.5616   35.6023   27.4264 C   0  0  0  0  0  0  0  0  0  0  0  0
   -7.3996   34.8715   28.7267 C   0  0  0  0  0  0  0  0  0  0  0  0
   -7.9646   36.6130   30.3562 N   0  0  0  0  0  0  0  0  0  0  0  0
   -7.0367   36.5569   30.7762 H   0  0  0  0  0  0  0  0  0  0  0  0
   -8.6412   36.8996   31.0637 H   0  0  0  0  0  0  0  0  0  0  0  0
   -7.9886   33.0333   30.7725 O   0  0  0  0  0  0  0  0  0  0  0  0
   -8.2833   34.2087   30.9366 C   0  0  0  0  0  0  0  0  0  0  0  0
   -8.6015   34.5760   32.1953 O   0  0  0  0  0  0  0  0  0  0  0  0
   -7.7589   32.7227   29.9188 H   0  0  0  0  0  0  0  0  0  0  0  0
   -5.2716   36.2748   27.2547 O   0  0  0  0  0  0  0  0  0  0  0  0
   -6.3697   35.8384   26.5907 C   0  0  0  0  0  0  0  0  0  0  0  0
   -6.3404   35.6685   25.3826 O   0  0  0  0  0  0  0  0  0  0  0  0
   -5.3048   36.4019   28.1824 H   0  0  0  0  0  0  0  0  0  0  0  0
 12 11  2  0  0  0
  7  3  1  0  0  0
 11  3  1  0  0  0
 11 10  1  0  0  0
  3  6  1  0  0  0
  3  1  1  0  0  0
  6  5  1  0  0  0
  6  4  1  0  0  0
  1  2  1  0  0  0
  5 15  1  0  0  0
  5  4  1  0  0  0
 15 16  2  0  0  0
 15 14  1  0  0  0
  4  2  1  0  0  0
 10 13  1  0  0  0
 14 17  1  0  0  0
  7  8  1  0  0  0
  7  9  1  0  0  0
M  END
> <minimizedAffinity>
-7.35654

$$$$
4XAQ_40F_A_601


 17 18  0  0  0  0  0  0  0  0999 V2000
   -8.1380   33.9951   27.6061 C   0  0  0  0  0  0  0  0  0  0  0  0
   -9.5646   34.2008   28.2431 C   0  0  0  0  0  0  0  0  0  0  0  0
   -7.5274   35.4178   27.4163 C   0  0  0  0  0  0  0  0  0  0  0  0
   -9.4802   35.5486   28.9346 C   0  0  0  0  0  0  0  0  0  0  0  0
   -8.2492   35.7056   29.8318 C   0  0  0  0  0  0  0  0  0  0  0  0
   -8.2278   36.2665   28.4403 C   0  0  0  0  0  0  0  0  0  0  0  0
   -6.0624   35.4723   27.6111 N   0  0  0  0  0  0  0  0  0  0  0  0
   -5.7362   36.4287   27.4717 H   0  0  0  0  0  0  0  0  0  0  0  0
   -5.6067   34.8562   26.9380 H   0  0  0  0  0  0  0  0  0  0  0  0
   -9.0261   36.3312   25.6736 O   0  0  0  0  0  0  0  0  0  0  0  0
   -7.9118   35.9562   26.0098 C   0  0  0  0  0  0  0  0  0  0  0  0
   -6.9540   35.9993   25.0605 O   0  0  0  0  0  0  0  0  0  0  0  0
   -9.7297   36.3228   26.2924 H   0  0  0  0  0  0  0  0  0  0  0  0
   -7.8342   37.9038   30.6814 O   0  0  0  0  0  0  0  0  0  0  0  0
   -8.2199   36.6378   30.9741 C   0  0  0  0  0  0  0  0  0  0  0  0
   -8.5107   36.3238   32.1170 O   0  0  0  0  0  0  0  0  0  0  0  0
   -7.6130   38.1344   29.8006 H   0  0  0  0  0  0  0  0  0  0  0  0
 12 11  2  0  0  0
  7  3  1  0  0  0
 11  3  1  0  0  0
 11 10  1  0  0  0
  3  6  1  0  0  0
  3  1  1  0  0  0
  6  5  1  0  0  0
  6  4  1  0  0  0
  1  2  1  0  0  0
  5 15  1  0  0  0
  5  4  1  0  0  0
 15 16  2  0  0  0
 15 14  1  0  0  0
  4  2  1  0  0  0
 10 13  1  0  0  0
 14 17  1  0  0  0
  7  8  1  0  0  0
  7  9  1  0  0  0
M  END
> <minimizedAffinity>
-7.17316

$$$$
4XAQ_40F_A_601


 17 18  0  0  0  0  0  0  0  0999 V2000
   -6.9115   36.7929   27.9885 C   0  0  0  0  0  0  0  0  0  0  0  0
   -6.0773   35.4834   28.2574 C   0  0  0  0  0  0  0  0  0  0  0  0
   -8.3423   36.3304   27.5741 C   0  0  0  0  0  0  0  0  0  0  0  0
   -7.1191   34.4324   28.5924 C   0  0  0  0  0  0  0  0  0  0  0  0
   -8.1329   34.8833   29.6477 C   0  0  0  0  0  0  0  0  0  0  0  0
   -8.4906   34.9688   28.1931 C   0  0  0  0  0  0  0  0  0  0  0  0
   -9.4207   37.2309   28.0360 N   0  0  0  0  0  0  0  0  0  0  0  0
  -10.3227   36.8664   27.7294 H   0  0  0  0  0  0  0  0  0  0  0  0
   -9.2786   38.1613   27.6427 H   0  0  0  0  0  0  0  0  0  0  0  0
   -9.4178   36.0605   25.3632 O   0  0  0  0  0  0  0  0  0  0  0  0
   -8.3976   36.1591   26.0302 C   0  0  0  0  0  0  0  0  0  0  0  0
   -7.2317   36.0881   25.3549 O   0  0  0  0  0  0  0  0  0  0  0  0
  -10.2559   36.1028   25.7801 H   0  0  0  0  0  0  0  0  0  0  0  0
   -9.8756   33.2629   29.8997 O   0  0  0  0  0  0  0  0  0  0  0  0
   -8.8591   33.9262   30.5030 C   0  0  0  0  0  0  0  0  0  0  0  0
   -8.5938   33.7245   31.6769 O   0  0  0  0  0  0  0  0  0  0  0  0
  -10.0709   33.4252   28.9978 H   0  0  0  0  0  0  0  0  0  0  0  0
 12 11  2  0  0  0
  7  3  1  0  0  0
 11  3  1  0  0  0
 11 10  1  0  0  0
  3  6  1  0  0  0
  3  1  1  0  0  0
  6  5  1  0  0  0
  6  4  1  0  0  0
  1  2  1  0  0  0
  5 15  1  0  0  0
  5  4  1  0  0  0
 15 16  2  0  0  0
 15 14  1  0  0  0
  4  2  1  0  0  0
 10 13  1  0  0  0
 14 17  1  0  0  0
  7  8  1  0  0  0
  7  9  1  0  0  0
M  END
> <minimizedAffinity>
-7.14850

$$$$
4XAQ_40F_A_601


 17 18  0  0  0  0  0  0  0  0999 V2000
   -9.6522   34.4341   28.9295 C   0  0  0  0  0  0  0  0  0  0  0  0
   -8.5243   33.3763   28.6263 C   0  0  0  0  0  0  0  0  0  0  0  0
   -8.9261   35.7713   29.2721 C   0  0  0  0  0  0  0  0  0  0  0  0
   -7.3274   34.2085   28.2057 C   0  0  0  0  0  0  0  0  0  0  0  0
   -7.6505   35.2589   27.1394 C   0  0  0  0  0  0  0  0  0  0  0  0
   -7.5945   35.6625   28.5834 C   0  0  0  0  0  0  0  0  0  0  0  0
   -9.6484   36.9792   28.8177 N   0  0  0  0  0  0  0  0  0  0  0  0
   -9.1164   37.8105   29.0753 H   0  0  0  0  0  0  0  0  0  0  0  0
  -10.5669   37.0127   29.2600 H   0  0  0  0  0  0  0  0  0  0  0  0
   -8.4893   36.8562   31.4515 O   0  0  0  0  0  0  0  0  0  0  0  0
   -8.6655   35.8344   30.8031 C   0  0  0  0  0  0  0  0  0  0  0  0
   -8.6022   34.6731   31.4871 O   0  0  0  0  0  0  0  0  0  0  0  0
   -8.5222   37.6913   31.0279 H   0  0  0  0  0  0  0  0  0  0  0  0
   -7.0100   35.8730   24.9171 O   0  0  0  0  0  0  0  0  0  0  0  0
   -6.6287   35.7839   26.2147 C   0  0  0  0  0  0  0  0  0  0  0  0
   -5.5067   36.1189   26.5586 O   0  0  0  0  0  0  0  0  0  0  0  0
   -7.8738   35.6131   24.6637 H   0  0  0  0  0  0  0  0  0  0  0  0
 12 11  2  0  0  0
  7  3  1  0  0  0
 11  3  1  0  0  0
 11 10  1  0  0  0
  3  6  1  0  0  0
  3  1  1  0  0  0
  6  5  1  0  0  0
  6  4  1  0  0  0
  1  2  1  0  0  0
  5 15  1  0  0  0
  5  4  1  0  0  0
 15 16  2  0  0  0
 15 14  1  0  0  0
  4  2  1  0  0  0
 10 13  1  0  0  0
 14 17  1  0  0  0
  7  8  1  0  0  0
  7  9  1  0  0  0
M  END
> <minimizedAffinity>
-7.04282

$$$$
4XAQ_40F_A_601


 17 18  0  0  0  0  0  0  0  0999 V2000
   -7.5189   35.1997   28.8110 C   0  0  0  0  0  0  0  0  0  0  0  0
   -7.2805   36.3496   29.8617 C   0  0  0  0  0  0  0  0  0  0  0  0
   -7.1713   35.7971   27.4128 C   0  0  0  0  0  0  0  0  0  0  0  0
   -6.2829   37.2753   29.1908 C   0  0  0  0  0  0  0  0  0  0  0  0
   -5.0649   36.5520   28.6091 C   0  0  0  0  0  0  0  0  0  0  0  0
   -6.2103   36.9140   27.7102 C   0  0  0  0  0  0  0  0  0  0  0  0
   -6.5636   34.8241   26.4794 N   0  0  0  0  0  0  0  0  0  0  0  0
   -6.3647   35.2839   25.5909 H   0  0  0  0  0  0  0  0  0  0  0  0
   -7.2110   34.0512   26.3248 H   0  0  0  0  0  0  0  0  0  0  0  0
   -8.7896   36.3315   25.6203 O   0  0  0  0  0  0  0  0  0  0  0  0
   -8.4508   36.4240   26.7916 C   0  0  0  0  0  0  0  0  0  0  0  0
   -9.2556   37.1539   27.5917 O   0  0  0  0  0  0  0  0  0  0  0  0
   -8.2680   35.8366   25.0194 H   0  0  0  0  0  0  0  0  0  0  0  0
   -2.8330   36.5036   27.7476 O   0  0  0  0  0  0  0  0  0  0  0  0
   -3.7676   37.2253   28.4131 C   0  0  0  0  0  0  0  0  0  0  0  0
   -3.5168   38.3504   28.8136 O   0  0  0  0  0  0  0  0  0  0  0  0
   -3.0359   35.6405   27.4444 H   0  0  0  0  0  0  0  0  0  0  0  0
 12 11  2  0  0  0
  7  3  1  0  0  0
 11  3  1  0  0  0
 11 10  1  0  0  0
  3  6  1  0  0  0
  3  1  1  0  0  0
  6  5  1  0  0  0
  6  4  1  0  0  0
  1  2  1  0  0  0
  5 15  1  0  0  0
  5  4  1  0  0  0
 15 16  2  0  0  0
 15 14  1  0  0  0
  4  2  1  0  0  0
 10 13  1  0  0  0
 14 17  1  0  0  0
  7  8  1  0  0  0
  7  9  1  0  0  0
M  END
> <minimizedAffinity>
-6.70567

$$$$
4XAQ_40F_A_601


 17 18  0  0  0  0  0  0  0  0999 V2000
   -9.1846   36.4152   27.9929 C   0  0  0  0  0  0  0  0  0  0  0  0
   -8.3977   36.2526   26.6373 C   0  0  0  0  0  0  0  0  0  0  0  0
   -8.4398   35.5386   29.0463 C   0  0  0  0  0  0  0  0  0  0  0  0
   -6.9959   35.8531   27.0584 C   0  0  0  0  0  0  0  0  0  0  0  0
   -6.3997   36.7499   28.1470 C   0  0  0  0  0  0  0  0  0  0  0  0
   -7.0321   35.4437   28.5278 C   0  0  0  0  0  0  0  0  0  0  0  0
   -8.4526   36.1034   30.4131 N   0  0  0  0  0  0  0  0  0  0  0  0
   -7.9496   35.4792   31.0436 H   0  0  0  0  0  0  0  0  0  0  0  0
   -9.4168   36.2030   30.7308 H   0  0  0  0  0  0  0  0  0  0  0  0
   -8.4051   33.0657   29.0196 O   0  0  0  0  0  0  0  0  0  0  0  0
   -9.0455   34.1071   29.0412 C   0  0  0  0  0  0  0  0  0  0  0  0
  -10.3891   33.9839   29.0369 O   0  0  0  0  0  0  0  0  0  0  0  0
   -7.4684   33.0915   29.0213 H   0  0  0  0  0  0  0  0  0  0  0  0
   -4.5708   37.6952   29.3667 O   0  0  0  0  0  0  0  0  0  0  0  0
   -4.9449   36.9135   28.3245 C   0  0  0  0  0  0  0  0  0  0  0  0
   -4.1083   36.4001   27.5994 O   0  0  0  0  0  0  0  0  0  0  0  0
   -5.2212   38.0846   29.9174 H   0  0  0  0  0  0  0  0  0  0  0  0
 12 11  2  0  0  0
  7  3  1  0  0  0
 11  3  1  0  0  0
 11 10  1  0  0  0
  3  6  1  0  0  0
  3  1  1  0  0  0
  6  5  1  0  0  0
  6  4  1  0  0  0
  1  2  1  0  0  0
  5 15  1  0  0  0
  5  4  1  0  0  0
 15 16  2  0  0  0
 15 14  1  0  0  0
  4  2  1  0  0  0
 10 13  1  0  0  0
 14 17  1  0  0  0
  7  8  1  0  0  0
  7  9  1  0  0  0
M  END
> <minimizedAffinity>
-6.68039

$$$$
4XAQ_40F_A_601


 17 18  0  0  0  0  0  0  0  0999 V2000
   -7.4209   34.5801   27.9125 C   0  0  0  0  0  0  0  0  0  0  0  0
   -8.5507   33.5670   28.3371 C   0  0  0  0  0  0  0  0  0  0  0  0
   -7.8250   35.9673   28.5001 C   0  0  0  0  0  0  0  0  0  0  0  0
   -9.1695   34.1867   29.5761 C   0  0  0  0  0  0  0  0  0  0  0  0
   -8.1436   34.6206   30.6268 C   0  0  0  0  0  0  0  0  0  0  0  0
   -8.7028   35.6361   29.6745 C   0  0  0  0  0  0  0  0  0  0  0  0
   -6.6763   36.7949   28.9277 N   0  0  0  0  0  0  0  0  0  0  0  0
   -7.0160   37.6821   29.2990 H   0  0  0  0  0  0  0  0  0  0  0  0
   -6.0681   36.9715   28.1281 H   0  0  0  0  0  0  0  0  0  0  0  0
   -9.4838   37.6261   27.7167 O   0  0  0  0  0  0  0  0  0  0  0  0
   -8.6913   36.7310   27.4598 C   0  0  0  0  0  0  0  0  0  0  0  0
   -8.5905   36.3747   26.1623 O   0  0  0  0  0  0  0  0  0  0  0  0
   -9.5947   37.9141   28.6014 H   0  0  0  0  0  0  0  0  0  0  0  0
   -8.5642   35.9924   32.5419 O   0  0  0  0  0  0  0  0  0  0  0  0
   -8.4792   34.7288   32.0588 C   0  0  0  0  0  0  0  0  0  0  0  0
   -8.6682   33.7691   32.7885 O   0  0  0  0  0  0  0  0  0  0  0  0
   -8.4172   36.7223   31.9730 H   0  0  0  0  0  0  0  0  0  0  0  0
 12 11  2  0  0  0
  7  3  1  0  0  0
 11  3  1  0  0  0
 11 10  1  0  0  0
  3  6  1  0  0  0
  3  1  1  0  0  0
  6  5  1  0  0  0
  6  4  1  0  0  0
  1  2  1  0  0  0
  5 15  1  0  0  0
  5  4  1  0  0  0
 15 16  2  0  0  0
 15 14  1  0  0  0
  4  2  1  0  0  0
 10 13  1  0  0  0
 14 17  1  0  0  0
  7  8  1  0  0  0
  7  9  1  0  0  0
M  END
> <minimizedAffinity>
-6.62142

$$$$
