4G8N_G8M_A_301


 16 16  0  0  0  0  0  0  0  0999 V2000
    2.9817   30.0282   12.9561 C   0  0  0  0  0  0  0  0  0  0  0  0
    4.1927   30.6670   12.3994 N   0  0  0  0  0  0  0  0  0  0  0  0
    4.3400   31.5690   12.8522 H   0  0  0  0  0  0  0  0  0  0  0  0
    4.0732   30.8058   11.3960 H   0  0  0  0  0  0  0  0  0  0  0  0
    2.3161   28.4975   15.0681 C   0  0  0  0  0  0  0  0  0  0  0  0
    3.1201   29.6808   14.4650 C   0  0  0  0  0  0  0  0  0  0  0  0
    4.3933   28.9844   15.0033 C   0  0  0  0  0  0  0  0  0  0  0  0
    3.5075   28.2343   16.0109 C   0  0  0  0  0  0  0  0  0  0  0  0
    2.0755   27.3521   14.0486 C   0  0  0  0  0  0  0  0  0  0  0  0
    1.2930   27.4895   13.0974 O   0  0  0  0  0  0  0  0  0  0  0  0
    2.6661   26.2762   14.2204 O   0  0  0  0  0  0  0  0  0  0  0  0
    3.2570   26.1759   14.9406 H   0  0  0  0  0  0  0  0  0  0  0  0
    1.7818   30.9487   12.6685 C   0  0  0  0  0  0  0  0  0  0  0  0
    0.6545   30.6172   13.0799 O   0  0  0  0  0  0  0  0  0  0  0  0
    1.9502   31.9840   12.0142 O   0  0  0  0  0  0  0  0  0  0  0  0
    0.5496   29.8281   13.5742 H   0  0  0  0  0  0  0  0  0  0  0  0
 15 13  2  0  0  0
 14 13  1  0  0  0
 13  1  1  0  0  0
  1  2  1  0  0  0
  1  6  1  0  0  0
  6  5  1  0  0  0
  6  7  1  0  0  0
  5  9  1  0  0  0
  5  8  1  0  0  0
 10  9  2  0  0  0
  7  8  1  0  0  0
  9 11  1  0  0  0
 11 12  1  0  0  0
 14 16  1  0  0  0
  2  3  1  0  0  0
  2  4  1  0  0  0
M  END
> <minimizedAffinity>
-7.62333

$$$$
4G8N_G8M_A_301


 16 16  0  0  0  0  0  0  0  0999 V2000
    4.7825   28.1919   14.3040 C   0  0  0  0  0  0  0  0  0  0  0  0
    5.7863   27.1558   14.6252 N   0  0  0  0  0  0  0  0  0  0  0  0
    5.9832   27.1718   15.6259 H   0  0  0  0  0  0  0  0  0  0  0  0
    6.6448   27.3419   14.1068 H   0  0  0  0  0  0  0  0  0  0  0  0
    2.1256   28.6107   14.4147 C   0  0  0  0  0  0  0  0  0  0  0  0
    3.4032   27.9250   14.9696 C   0  0  0  0  0  0  0  0  0  0  0  0
    2.6718   26.5768   14.7620 C   0  0  0  0  0  0  0  0  0  0  0  0
    1.3388   27.3412   14.7977 C   0  0  0  0  0  0  0  0  0  0  0  0
    2.1903   28.8541   12.8832 C   0  0  0  0  0  0  0  0  0  0  0  0
    2.4661   29.9696   12.4187 O   0  0  0  0  0  0  0  0  0  0  0  0
    1.9320   27.9088   12.1245 O   0  0  0  0  0  0  0  0  0  0  0  0
    1.7239   27.0668   12.4792 H   0  0  0  0  0  0  0  0  0  0  0  0
    5.3704   29.5614   14.6895 C   0  0  0  0  0  0  0  0  0  0  0  0
    5.1986   30.5288   13.9249 O   0  0  0  0  0  0  0  0  0  0  0  0
    6.0231   29.6731   15.7334 O   0  0  0  0  0  0  0  0  0  0  0  0
    4.7003   30.4217   13.1386 H   0  0  0  0  0  0  0  0  0  0  0  0
 15 13  2  0  0  0
 14 13  1  0  0  0
 13  1  1  0  0  0
  1  2  1  0  0  0
  1  6  1  0  0  0
  6  5  1  0  0  0
  6  7  1  0  0  0
  5  9  1  0  0  0
  5  8  1  0  0  0
 10  9  2  0  0  0
  7  8  1  0  0  0
  9 11  1  0  0  0
 11 12  1  0  0  0
 14 16  1  0  0  0
  2  3  1  0  0  0
  2  4  1  0  0  0
M  END
> <minimizedAffinity>
-7.09071

$$$$
4G8N_G8M_A_301


 16 16  0  0  0  0  0  0  0  0999 V2000
    4.0770   26.7898   13.9321 C   0  0  0  0  0  0  0  0  0  0  0  0
    3.9692   25.3258   13.7602 N   0  0  0  0  0  0  0  0  0  0  0  0
    4.1672   24.8638   14.6477 H   0  0  0  0  0  0  0  0  0  0  0  0
    4.6408   25.0155   13.0581 H   0  0  0  0  0  0  0  0  0  0  0  0
    2.7022   28.8856   14.9141 C   0  0  0  0  0  0  0  0  0  0  0  0
    3.0125   27.3643   14.9085 C   0  0  0  0  0  0  0  0  0  0  0  0
    1.5023   27.1395   14.6545 C   0  0  0  0  0  0  0  0  0  0  0  0
    1.2373   28.5344   15.2432 C   0  0  0  0  0  0  0  0  0  0  0  0
    2.8776   29.5404   13.5178 C   0  0  0  0  0  0  0  0  0  0  0  0
    2.0655   29.3374   12.6038 O   0  0  0  0  0  0  0  0  0  0  0  0
    3.8702   30.2565   13.3229 O   0  0  0  0  0  0  0  0  0  0  0  0
    4.4821   30.4078   14.0162 H   0  0  0  0  0  0  0  0  0  0  0  0
    5.5170   27.1139   14.3692 C   0  0  0  0  0  0  0  0  0  0  0  0
    6.3332   26.1825   14.4964 O   0  0  0  0  0  0  0  0  0  0  0  0
    5.8322   28.2845   14.6115 O   0  0  0  0  0  0  0  0  0  0  0  0
    6.0730   25.3024   14.3072 H   0  0  0  0  0  0  0  0  0  0  0  0
 15 13  2  0  0  0
 14 13  1  0  0  0
 13  1  1  0  0  0
  1  2  1  0  0  0
  1  6  1  0  0  0
  6  5  1  0  0  0
  6  7  1  0  0  0
  5  9  1  0  0  0
  5  8  1  0  0  0
 10  9  2  0  0  0
  7  8  1  0  0  0
  9 11  1  0  0  0
 11 12  1  0  0  0
 14 16  1  0  0  0
  2  3  1  0  0  0
  2  4  1  0  0  0
M  END
> <minimizedAffinity>
-7.04967

$$$$
4G8N_G8M_A_301


 16 16  0  0  0  0  0  0  0  0999 V2000
    4.9265   26.9275   14.1778 C   0  0  0  0  0  0  0  0  0  0  0  0
    4.5223   25.6205   14.7372 N   0  0  0  0  0  0  0  0  0  0  0  0
    4.7893   25.5742   15.7205 H   0  0  0  0  0  0  0  0  0  0  0  0
    4.9873   24.8722   14.2231 H   0  0  0  0  0  0  0  0  0  0  0  0
    2.8997   28.6992   14.1709 C   0  0  0  0  0  0  0  0  0  0  0  0
    4.1801   28.1231   14.8337 C   0  0  0  0  0  0  0  0  0  0  0  0
    3.3300   27.9208   16.1112 C   0  0  0  0  0  0  0  0  0  0  0  0
    2.3593   28.9902   15.5854 C   0  0  0  0  0  0  0  0  0  0  0  0
    2.0799   27.6230   13.4100 C   0  0  0  0  0  0  0  0  0  0  0  0
    1.4791   26.7233   14.0146 O   0  0  0  0  0  0  0  0  0  0  0  0
    2.0590   27.6643   12.1715 O   0  0  0  0  0  0  0  0  0  0  0  0
    2.5143   28.3460   11.7177 H   0  0  0  0  0  0  0  0  0  0  0  0
    6.4564   27.0460   14.3002 C   0  0  0  0  0  0  0  0  0  0  0  0
    7.1235   26.0233   14.5432 O   0  0  0  0  0  0  0  0  0  0  0  0
    6.9939   28.1530   14.1822 O   0  0  0  0  0  0  0  0  0  0  0  0
    6.6956   25.1942   14.6286 H   0  0  0  0  0  0  0  0  0  0  0  0
 15 13  2  0  0  0
 14 13  1  0  0  0
 13  1  1  0  0  0
  1  2  1  0  0  0
  1  6  1  0  0  0
  6  5  1  0  0  0
  6  7  1  0  0  0
  5  9  1  0  0  0
  5  8  1  0  0  0
 10  9  2  0  0  0
  7  8  1  0  0  0
  9 11  1  0  0  0
 11 12  1  0  0  0
 14 16  1  0  0  0
  2  3  1  0  0  0
  2  4  1  0  0  0
M  END
> <minimizedAffinity>
-6.72632

$$$$
4G8N_G8M_A_301


 16 16  0  0  0  0  0  0  0  0999 V2000
    3.7445   26.4342   14.9108 C   0  0  0  0  0  0  0  0  0  0  0  0
    4.7979   26.3937   13.8748 N   0  0  0  0  0  0  0  0  0  0  0  0
    4.4012   26.0512   12.9998 H   0  0  0  0  0  0  0  0  0  0  0  0
    5.5469   25.7700   14.1757 H   0  0  0  0  0  0  0  0  0  0  0  0
    2.8000   28.9550   14.8980 C   0  0  0  0  0  0  0  0  0  0  0  0
    2.6115   27.4466   14.5822 C   0  0  0  0  0  0  0  0  0  0  0  0
    2.3285   27.8710   13.1209 C   0  0  0  0  0  0  0  0  0  0  0  0
    1.9650   29.2710   13.6408 C   0  0  0  0  0  0  0  0  0  0  0  0
    4.2785   29.4134   14.7841 C   0  0  0  0  0  0  0  0  0  0  0  0
    5.1354   29.0342   15.5953 O   0  0  0  0  0  0  0  0  0  0  0  0
    4.5847   30.1957   13.8729 O   0  0  0  0  0  0  0  0  0  0  0  0
    3.9343   30.4802   13.2614 H   0  0  0  0  0  0  0  0  0  0  0  0
    3.2181   25.0018   15.1121 C   0  0  0  0  0  0  0  0  0  0  0  0
    4.0017   24.1218   15.5142 O   0  0  0  0  0  0  0  0  0  0  0  0
    2.0387   24.7424   14.8478 O   0  0  0  0  0  0  0  0  0  0  0  0
    4.8918   24.3404   15.7087 H   0  0  0  0  0  0  0  0  0  0  0  0
 15 13  2  0  0  0
 14 13  1  0  0  0
 13  1  1  0  0  0
  1  2  1  0  0  0
  1  6  1  0  0  0
  6  5  1  0  0  0
  6  7  1  0  0  0
  5  9  1  0  0  0
  5  8  1  0  0  0
 10  9  2  0  0  0
  7  8  1  0  0  0
  9 11  1  0  0  0
 11 12  1  0  0  0
 14 16  1  0  0  0
  2  3  1  0  0  0
  2  4  1  0  0  0
M  END
> <minimizedAffinity>
-6.70548

$$$$
4G8N_G8M_A_301


 16 16  0  0  0  0  0  0  0  0999 V2000
    2.1378   29.8506   13.8273 C   0  0  0  0  0  0  0  0  0  0  0  0
    0.6929   30.1613   13.8108 N   0  0  0  0  0  0  0  0  0  0  0  0
    0.3020   29.9124   12.9021 H   0  0  0  0  0  0  0  0  0  0  0  0
    0.5576   31.1584   13.9776 H   0  0  0  0  0  0  0  0  0  0  0  0
    3.7486   27.7369   14.2563 C   0  0  0  0  0  0  0  0  0  0  0  0
    2.4314   28.3304   13.6878 C   0  0  0  0  0  0  0  0  0  0  0  0
    1.6828   27.2961   14.5628 C   0  0  0  0  0  0  0  0  0  0  0  0
    2.9662   26.4507   14.5895 C   0  0  0  0  0  0  0  0  0  0  0  0
    4.2544   28.4912   15.5150 C   0  0  0  0  0  0  0  0  0  0  0  0
    5.0666   29.4230   15.4253 O   0  0  0  0  0  0  0  0  0  0  0  0
    3.8474   28.1230   16.6262 O   0  0  0  0  0  0  0  0  0  0  0  0
    3.2333   27.4181   16.6903 H   0  0  0  0  0  0  0  0  0  0  0  0
    2.8182   30.6879   12.7294 C   0  0  0  0  0  0  0  0  0  0  0  0
    4.0606   30.6833   12.6496 O   0  0  0  0  0  0  0  0  0  0  0  0
    2.1260   31.3692   11.9646 O   0  0  0  0  0  0  0  0  0  0  0  0
    4.5660   30.1594   13.2396 H   0  0  0  0  0  0  0  0  0  0  0  0
 15 13  2  0  0  0
 14 13  1  0  0  0
 13  1  1  0  0  0
  1  2  1  0  0  0
  1  6  1  0  0  0
  6  5  1  0  0  0
  6  7  1  0  0  0
  5  9  1  0  0  0
  5  8  1  0  0  0
 10  9  2  0  0  0
  7  8  1  0  0  0
  9 11  1  0  0  0
 11 12  1  0  0  0
 14 16  1  0  0  0
  2  3  1  0  0  0
  2  4  1  0  0  0
M  END
> <minimizedAffinity>
-6.58740

$$$$
4G8N_G8M_A_301


 16 16  0  0  0  0  0  0  0  0999 V2000
    4.7467   28.7550   15.3568 C   0  0  0  0  0  0  0  0  0  0  0  0
    4.5055   29.0491   16.7850 N   0  0  0  0  0  0  0  0  0  0  0  0
    4.0451   29.9550   16.8726 H   0  0  0  0  0  0  0  0  0  0  0  0
    5.3956   29.0706   17.2827 H   0  0  0  0  0  0  0  0  0  0  0  0
    3.1654   27.2933   13.7413 C   0  0  0  0  0  0  0  0  0  0  0  0
    3.4326   28.5968   14.5415 C   0  0  0  0  0  0  0  0  0  0  0  0
    2.0840   28.3385   15.2559 C   0  0  0  0  0  0  0  0  0  0  0  0
    1.6671   27.4620   14.0641 C   0  0  0  0  0  0  0  0  0  0  0  0
    3.7987   26.0405   14.4035 C   0  0  0  0  0  0  0  0  0  0  0  0
    3.1153   25.2460   15.0651 O   0  0  0  0  0  0  0  0  0  0  0  0
    5.0188   25.8614   14.2798 O   0  0  0  0  0  0  0  0  0  0  0  0
    5.5323   26.4641   13.7788 H   0  0  0  0  0  0  0  0  0  0  0  0
    5.6648   29.8540   14.7920 C   0  0  0  0  0  0  0  0  0  0  0  0
    5.2712   30.5307   13.8240 O   0  0  0  0  0  0  0  0  0  0  0  0
    6.7833   30.0291   15.2884 O   0  0  0  0  0  0  0  0  0  0  0  0
    4.4194   30.3813   13.4633 H   0  0  0  0  0  0  0  0  0  0  0  0
 15 13  2  0  0  0
 14 13  1  0  0  0
 13  1  1  0  0  0
  1  2  1  0  0  0
  1  6  1  0  0  0
  6  5  1  0  0  0
  6  7  1  0  0  0
  5  9  1  0  0  0
  5  8  1  0  0  0
 10  9  2  0  0  0
  7  8  1  0  0  0
  9 11  1  0  0  0
 11 12  1  0  0  0
 14 16  1  0  0  0
  2  3  1  0  0  0
  2  4  1  0  0  0
M  END
> <minimizedAffinity>
-6.58241

$$$$
4G8N_G8M_A_301


 16 16  0  0  0  0  0  0  0  0999 V2000
    4.3253   29.6003   14.7467 C   0  0  0  0  0  0  0  0  0  0  0  0
    3.7883   29.9136   13.4058 N   0  0  0  0  0  0  0  0  0  0  0  0
    4.2550   29.3336   12.7086 H   0  0  0  0  0  0  0  0  0  0  0  0
    3.9534   30.8978   13.1949 H   0  0  0  0  0  0  0  0  0  0  0  0
    2.5713   27.5922   15.1178 C   0  0  0  0  0  0  0  0  0  0  0  0
    4.0207   28.1433   15.1951 C   0  0  0  0  0  0  0  0  0  0  0  0
    4.4386   26.9406   14.3151 C   0  0  0  0  0  0  0  0  0  0  0  0
    3.1681   26.2112   14.7802 C   0  0  0  0  0  0  0  0  0  0  0  0
    1.7544   28.2096   13.9514 C   0  0  0  0  0  0  0  0  0  0  0  0
    1.7134   27.6699   12.8365 O   0  0  0  0  0  0  0  0  0  0  0  0
    1.1590   29.2784   14.1495 O   0  0  0  0  0  0  0  0  0  0  0  0
    1.1922   29.6836   14.9937 H   0  0  0  0  0  0  0  0  0  0  0  0
    5.8320   29.9155   14.7426 C   0  0  0  0  0  0  0  0  0  0  0  0
    6.4664   29.8446   15.8115 O   0  0  0  0  0  0  0  0  0  0  0  0
    6.3809   30.2579   13.6892 O   0  0  0  0  0  0  0  0  0  0  0  0
    6.0304   29.5827   16.5985 H   0  0  0  0  0  0  0  0  0  0  0  0
 15 13  2  0  0  0
 14 13  1  0  0  0
 13  1  1  0  0  0
  1  2  1  0  0  0
  1  6  1  0  0  0
  6  5  1  0  0  0
  6  7  1  0  0  0
  5  9  1  0  0  0
  5  8  1  0  0  0
 10  9  2  0  0  0
  7  8  1  0  0  0
  9 11  1  0  0  0
 11 12  1  0  0  0
 14 16  1  0  0  0
  2  3  1  0  0  0
  2  4  1  0  0  0
M  END
> <minimizedAffinity>
-6.38624

$$$$
4G8N_G8M_A_301


 16 16  0  0  0  0  0  0  0  0999 V2000
    4.1296   27.4238   14.8023 C   0  0  0  0  0  0  0  0  0  0  0  0
    4.2076   28.0578   16.1352 N   0  0  0  0  0  0  0  0  0  0  0  0
    4.8495   28.8497   16.0980 H   0  0  0  0  0  0  0  0  0  0  0  0
    4.5458   27.3776   16.8159 H   0  0  0  0  0  0  0  0  0  0  0  0
    2.0293   28.2106   13.3135 C   0  0  0  0  0  0  0  0  0  0  0  0
    3.5198   28.3603   13.7217 C   0  0  0  0  0  0  0  0  0  0  0  0
    3.1984   29.8392   14.0461 C   0  0  0  0  0  0  0  0  0  0  0  0
    1.9840   29.7382   13.1093 C   0  0  0  0  0  0  0  0  0  0  0  0
    1.1321   27.7206   14.4814 C   0  0  0  0  0  0  0  0  0  0  0  0
    0.5232   26.6430   14.4183 O   0  0  0  0  0  0  0  0  0  0  0  0
    1.0128   28.4473   15.4782 O   0  0  0  0  0  0  0  0  0  0  0  0
    1.4747   29.2614   15.5225 H   0  0  0  0  0  0  0  0  0  0  0  0
    5.5373   26.9261   14.4278 C   0  0  0  0  0  0  0  0  0  0  0  0
    5.7402   25.7011   14.3376 O   0  0  0  0  0  0  0  0  0  0  0  0
    6.4464   27.7446   14.2493 O   0  0  0  0  0  0  0  0  0  0  0  0
    5.0365   25.0982   14.4769 H   0  0  0  0  0  0  0  0  0  0  0  0
 15 13  2  0  0  0
 14 13  1  0  0  0
 13  1  1  0  0  0
  1  2  1  0  0  0
  1  6  1  0  0  0
  6  5  1  0  0  0
  6  7  1  0  0  0
  5  9  1  0  0  0
  5  8  1  0  0  0
 10  9  2  0  0  0
  7  8  1  0  0  0
  9 11  1  0  0  0
 11 12  1  0  0  0
 14 16  1  0  0  0
  2  3  1  0  0  0
  2  4  1  0  0  0
M  END
> <minimizedAffinity>
-6.13183

$$$$
4G8N_G8M_A_301


 16 16  0  0  0  0  0  0  0  0999 V2000
    3.1052   29.9055   13.0930 C   0  0  0  0  0  0  0  0  0  0  0  0
    3.4876   30.9530   12.1229 N   0  0  0  0  0  0  0  0  0  0  0  0
    3.2903   31.8719   12.5193 H   0  0  0  0  0  0  0  0  0  0  0  0
    2.9526   30.8317   11.2630 H   0  0  0  0  0  0  0  0  0  0  0  0
    4.1496   28.6614   15.2397 C   0  0  0  0  0  0  0  0  0  0  0  0
    3.9516   29.9498   14.3962 C   0  0  0  0  0  0  0  0  0  0  0  0
    5.4950   30.0494   14.3346 C   0  0  0  0  0  0  0  0  0  0  0  0
    5.5612   29.1707   15.5940 C   0  0  0  0  0  0  0  0  0  0  0  0
    4.1611   27.3723   14.3753 C   0  0  0  0  0  0  0  0  0  0  0  0
    3.1257   26.9393   13.8495 O   0  0  0  0  0  0  0  0  0  0  0  0
    5.2314   26.7620   14.2412 O   0  0  0  0  0  0  0  0  0  0  0  0
    6.0123   27.0923   14.6401 H   0  0  0  0  0  0  0  0  0  0  0  0
    1.5953   30.0341   13.3634 C   0  0  0  0  0  0  0  0  0  0  0  0
    1.0709   29.2991   14.2205 O   0  0  0  0  0  0  0  0  0  0  0  0
    0.9252   30.8422   12.7105 O   0  0  0  0  0  0  0  0  0  0  0  0
    1.5977   28.6936   14.7040 H   0  0  0  0  0  0  0  0  0  0  0  0
 15 13  2  0  0  0
 14 13  1  0  0  0
 13  1  1  0  0  0
  1  2  1  0  0  0
  1  6  1  0  0  0
  6  5  1  0  0  0
  6  7  1  0  0  0
  5  9  1  0  0  0
  5  8  1  0  0  0
 10  9  2  0  0  0
  7  8  1  0  0  0
  9 11  1  0  0  0
 11 12  1  0  0  0
 14 16  1  0  0  0
  2  3  1  0  0  0
  2  4  1  0  0  0
M  END
> <minimizedAffinity>
-6.09025

$$$$
