1N0S_FLU_A_500


 27 30  0  0  0  0  0  0  0  0999 V2000
    7.1332   76.1333   46.0072 C   0  0  0  0  0  0  0  0  0  0  0  0
    7.1173   75.5178   44.9107 O   0  0  0  0  0  0  0  0  0  0  0  0
    6.9371   75.4154   47.1901 C   0  0  0  0  0  0  0  0  0  0  0  0
    6.9673   76.0745   48.3789 C   0  0  0  0  0  0  0  0  0  0  0  0
    6.7669   75.2721   49.4963 O   0  0  0  0  0  0  0  0  0  0  0  0
    6.8530   75.8117   50.7500 C   0  0  0  0  0  0  0  0  0  0  0  0
    6.6430   74.9210   51.7849 C   0  0  0  0  0  0  0  0  0  0  0  0
    6.7266   75.3781   53.0966 C   0  0  0  0  0  0  0  0  0  0  0  0
    6.5404   74.5361   54.0980 O   0  0  0  0  0  0  0  0  0  0  0  0
    6.9900   76.7634   53.2942 C   0  0  0  0  0  0  0  0  0  0  0  0
    7.2098   77.6380   52.2483 C   0  0  0  0  0  0  0  0  0  0  0  0
    7.1489   77.1797   50.9016 C   0  0  0  0  0  0  0  0  0  0  0  0
    7.2977   78.0203   49.7514 C   0  0  0  0  0  0  0  0  0  0  0  0
    7.2506   77.4487   48.4955 C   0  0  0  0  0  0  0  0  0  0  0  0
    7.4496   78.1725   47.2585 C   0  0  0  0  0  0  0  0  0  0  0  0
    7.4216   77.5402   46.0690 C   0  0  0  0  0  0  0  0  0  0  0  0
    6.9271   74.6005   44.8911 H   0  0  0  0  0  0  0  0  0  0  0  0
    7.6938   79.4597   49.9563 C   0  0  0  0  0  0  0  0  0  0  0  0
    6.6771   80.3619   50.2102 C   0  0  0  0  0  0  0  0  0  0  0  0
    6.9592   81.7066   50.3832 C   0  0  0  0  0  0  0  0  0  0  0  0
    8.2293   82.2043   50.2268 C   0  0  0  0  0  0  0  0  0  0  0  0
    9.2431   81.3106   49.9359 C   0  0  0  0  0  0  0  0  0  0  0  0
    8.9853   79.9511   49.7918 C   0  0  0  0  0  0  0  0  0  0  0  0
   10.1003   79.0284   49.4621 C   0  0  0  0  0  0  0  0  0  0  0  0
   10.6226   79.1597   48.3611 O   0  0  0  0  0  0  0  0  0  0  0  0
   10.4010   78.1829   50.3067 O   0  0  0  0  0  0  0  0  0  0  0  0
    9.9460   78.1560   51.1254 H   0  0  0  0  0  0  0  0  0  0  0  0
  1  2  1  0  0  0
  1  3  2  0  0  0
  1 16  1  0  0  0
  3  4  1  0  0  0
  4  5  1  0  0  0
  4 14  2  0  0  0
  5  6  1  0  0  0
  6  7  2  0  0  0
  6 12  1  0  0  0
  7  8  1  0  0  0
  8  9  2  0  0  0
  8 10  1  0  0  0
 10 11  2  0  0  0
 11 12  1  0  0  0
 12 13  2  0  0  0
 13 14  1  0  0  0
 13 18  1  0  0  0
 14 15  1  0  0  0
 15 16  2  0  0  0
 18 19  2  0  0  0
 18 23  1  0  0  0
 19 20  1  0  0  0
 20 21  2  0  0  0
 21 22  1  0  0  0
 22 23  2  0  0  0
 23 24  1  0  0  0
 24 25  2  0  0  0
 24 26  1  0  0  0
  2 17  1  0  0  0
 26 27  1  0  0  0
M  END
> <minimizedAffinity>
-11.25067

$$$$
1N0S_FLU_A_500


 27 30  0  0  0  0  0  0  0  0999 V2000
    6.5405   75.2792   53.1052 C   0  0  0  0  0  0  0  0  0  0  0  0
    6.2071   74.4726   54.0106 O   0  0  0  0  0  0  0  0  0  0  0  0
    6.4907   74.8606   51.7728 C   0  0  0  0  0  0  0  0  0  0  0  0
    6.8369   75.7337   50.7898 C   0  0  0  0  0  0  0  0  0  0  0  0
    6.7495   75.2241   49.4993 O   0  0  0  0  0  0  0  0  0  0  0  0
    6.9983   76.0342   48.4259 C   0  0  0  0  0  0  0  0  0  0  0  0
    6.8751   75.4240   47.1926 C   0  0  0  0  0  0  0  0  0  0  0  0
    7.0946   76.1758   46.0423 C   0  0  0  0  0  0  0  0  0  0  0  0
    6.9687   75.6099   44.8548 O   0  0  0  0  0  0  0  0  0  0  0  0
    7.4749   77.5377   46.2100 C   0  0  0  0  0  0  0  0  0  0  0  0
    7.5816   78.1356   47.4502 C   0  0  0  0  0  0  0  0  0  0  0  0
    7.3386   77.3842   48.6350 C   0  0  0  0  0  0  0  0  0  0  0  0
    7.4866   77.8961   49.9646 C   0  0  0  0  0  0  0  0  0  0  0  0
    7.1887   77.0749   51.0338 C   0  0  0  0  0  0  0  0  0  0  0  0
    7.2345   77.4868   52.4201 C   0  0  0  0  0  0  0  0  0  0  0  0
    6.8978   76.6376   53.4107 C   0  0  0  0  0  0  0  0  0  0  0  0
    5.9775   73.5910   53.7913 H   0  0  0  0  0  0  0  0  0  0  0  0
    7.7719   79.3648   50.1445 C   0  0  0  0  0  0  0  0  0  0  0  0
    6.7068   80.1744   50.4941 C   0  0  0  0  0  0  0  0  0  0  0  0
    6.8844   81.5387   50.6515 C   0  0  0  0  0  0  0  0  0  0  0  0
    8.0873   82.1459   50.3872 C   0  0  0  0  0  0  0  0  0  0  0  0
    9.1455   81.3445   50.0012 C   0  0  0  0  0  0  0  0  0  0  0  0
    8.9958   79.9676   49.8702 C   0  0  0  0  0  0  0  0  0  0  0  0
   10.1536   79.1462   49.4363 C   0  0  0  0  0  0  0  0  0  0  0  0
   10.6437   79.4104   48.3445 O   0  0  0  0  0  0  0  0  0  0  0  0
   10.5195   78.2440   50.1919 O   0  0  0  0  0  0  0  0  0  0  0  0
   10.0845   78.1141   51.0116 H   0  0  0  0  0  0  0  0  0  0  0  0
  1  2  1  0  0  0
  1  3  2  0  0  0
  1 16  1  0  0  0
  3  4  1  0  0  0
  4  5  1  0  0  0
  4 14  2  0  0  0
  5  6  1  0  0  0
  6  7  2  0  0  0
  6 12  1  0  0  0
  7  8  1  0  0  0
  8  9  2  0  0  0
  8 10  1  0  0  0
 10 11  2  0  0  0
 11 12  1  0  0  0
 12 13  2  0  0  0
 13 14  1  0  0  0
 13 18  1  0  0  0
 14 15  1  0  0  0
 15 16  2  0  0  0
 18 19  2  0  0  0
 18 23  1  0  0  0
 19 20  1  0  0  0
 20 21  2  0  0  0
 21 22  1  0  0  0
 22 23  2  0  0  0
 23 24  1  0  0  0
 24 25  2  0  0  0
 24 26  1  0  0  0
  2 17  1  0  0  0
 26 27  1  0  0  0
M  END
> <minimizedAffinity>
-10.86462

$$$$
1N0S_FLU_A_500


 27 30  0  0  0  0  0  0  0  0999 V2000
    6.6853   74.6997   47.9348 C   0  0  0  0  0  0  0  0  0  0  0  0
    6.3596   73.4850   47.9308 O   0  0  0  0  0  0  0  0  0  0  0  0
    6.9940   75.3224   46.7223 C   0  0  0  0  0  0  0  0  0  0  0  0
    7.3331   76.6390   46.7203 C   0  0  0  0  0  0  0  0  0  0  0  0
    7.6171   77.1665   45.4659 O   0  0  0  0  0  0  0  0  0  0  0  0
    7.8947   78.4989   45.3312 C   0  0  0  0  0  0  0  0  0  0  0  0
    8.1547   78.9136   44.0393 C   0  0  0  0  0  0  0  0  0  0  0  0
    8.4323   80.2569   43.8044 C   0  0  0  0  0  0  0  0  0  0  0  0
    8.6710   80.6718   42.5727 O   0  0  0  0  0  0  0  0  0  0  0  0
    8.4689   81.1271   44.9308 C   0  0  0  0  0  0  0  0  0  0  0  0
    8.1943   80.6984   46.2145 C   0  0  0  0  0  0  0  0  0  0  0  0
    7.8874   79.3311   46.4667 C   0  0  0  0  0  0  0  0  0  0  0  0
    7.6530   78.7791   47.7676 C   0  0  0  0  0  0  0  0  0  0  0  0
    7.3316   77.4409   47.8776 C   0  0  0  0  0  0  0  0  0  0  0  0
    7.0098   76.7758   49.1217 C   0  0  0  0  0  0  0  0  0  0  0  0
    6.6732   75.4714   49.1475 C   0  0  0  0  0  0  0  0  0  0  0  0
    6.3739   72.9988   47.1299 H   0  0  0  0  0  0  0  0  0  0  0  0
    7.5734   79.7161   48.9451 C   0  0  0  0  0  0  0  0  0  0  0  0
    6.3492   80.3082   49.1962 C   0  0  0  0  0  0  0  0  0  0  0  0
    6.2036   81.2014   50.2444 C   0  0  0  0  0  0  0  0  0  0  0  0
    7.2720   81.5951   51.0118 C   0  0  0  0  0  0  0  0  0  0  0  0
    8.5056   81.0335   50.7401 C   0  0  0  0  0  0  0  0  0  0  0  0
    8.6654   80.1088   49.7130 C   0  0  0  0  0  0  0  0  0  0  0  0
   10.0112   79.5433   49.4438 C   0  0  0  0  0  0  0  0  0  0  0  0
   10.7283   80.1624   48.6662 O   0  0  0  0  0  0  0  0  0  0  0  0
   10.2982   78.4816   49.9998 O   0  0  0  0  0  0  0  0  0  0  0  0
    9.6854   78.0770   50.5819 H   0  0  0  0  0  0  0  0  0  0  0  0
  1  2  1  0  0  0
  1  3  2  0  0  0
  1 16  1  0  0  0
  3  4  1  0  0  0
  4  5  1  0  0  0
  4 14  2  0  0  0
  5  6  1  0  0  0
  6  7  2  0  0  0
  6 12  1  0  0  0
  7  8  1  0  0  0
  8  9  2  0  0  0
  8 10  1  0  0  0
 10 11  2  0  0  0
 11 12  1  0  0  0
 12 13  2  0  0  0
 13 14  1  0  0  0
 13 18  1  0  0  0
 14 15  1  0  0  0
 15 16  2  0  0  0
 18 19  2  0  0  0
 18 23  1  0  0  0
 19 20  1  0  0  0
 20 21  2  0  0  0
 21 22  1  0  0  0
 22 23  2  0  0  0
 23 24  1  0  0  0
 24 25  2  0  0  0
 24 26  1  0  0  0
  2 17  1  0  0  0
 26 27  1  0  0  0
M  END
> <minimizedAffinity>
-9.37468

$$$$
1N0S_FLU_A_500


 27 30  0  0  0  0  0  0  0  0999 V2000
    7.1859   76.2495   45.7646 C   0  0  0  0  0  0  0  0  0  0  0  0
    7.0228   75.5771   44.7146 O   0  0  0  0  0  0  0  0  0  0  0  0
    6.9088   75.6561   46.9992 C   0  0  0  0  0  0  0  0  0  0  0  0
    7.0970   76.3748   48.1378 C   0  0  0  0  0  0  0  0  0  0  0  0
    6.7983   75.6949   49.3130 O   0  0  0  0  0  0  0  0  0  0  0  0
    7.0228   76.2905   50.5235 C   0  0  0  0  0  0  0  0  0  0  0  0
    6.6963   75.5203   51.6229 C   0  0  0  0  0  0  0  0  0  0  0  0
    6.9058   76.0391   52.8971 C   0  0  0  0  0  0  0  0  0  0  0  0
    6.6101   75.3104   53.9590 O   0  0  0  0  0  0  0  0  0  0  0  0
    7.4160   77.3652   52.9909 C   0  0  0  0  0  0  0  0  0  0  0  0
    7.7489   78.1172   51.8815 C   0  0  0  0  0  0  0  0  0  0  0  0
    7.5603   77.5909   50.5720 C   0  0  0  0  0  0  0  0  0  0  0  0
    7.8136   78.3153   49.3625 C   0  0  0  0  0  0  0  0  0  0  0  0
    7.6218   77.6812   48.1512 C   0  0  0  0  0  0  0  0  0  0  0  0
    7.9010   78.2764   46.8622 C   0  0  0  0  0  0  0  0  0  0  0  0
    7.7196   77.5835   45.7209 C   0  0  0  0  0  0  0  0  0  0  0  0
    6.6734   74.7090   44.7637 H   0  0  0  0  0  0  0  0  0  0  0  0
    8.4640   79.6713   49.4567 C   0  0  0  0  0  0  0  0  0  0  0  0
    9.8463   79.7061   49.4766 C   0  0  0  0  0  0  0  0  0  0  0  0
   10.5164   80.9127   49.5883 C   0  0  0  0  0  0  0  0  0  0  0  0
    9.8459   82.0975   49.7677 C   0  0  0  0  0  0  0  0  0  0  0  0
    8.4641   82.0626   49.7858 C   0  0  0  0  0  0  0  0  0  0  0  0
    7.7721   80.8644   49.6411 C   0  0  0  0  0  0  0  0  0  0  0  0
    6.2882   80.8696   49.6840 C   0  0  0  0  0  0  0  0  0  0  0  0
    5.7015   80.7557   48.6140 O   0  0  0  0  0  0  0  0  0  0  0  0
    5.7565   81.0142   50.7863 O   0  0  0  0  0  0  0  0  0  0  0  0
    6.2862   81.0934   51.5552 H   0  0  0  0  0  0  0  0  0  0  0  0
  1  2  1  0  0  0
  1  3  2  0  0  0
  1 16  1  0  0  0
  3  4  1  0  0  0
  4  5  1  0  0  0
  4 14  2  0  0  0
  5  6  1  0  0  0
  6  7  2  0  0  0
  6 12  1  0  0  0
  7  8  1  0  0  0
  8  9  2  0  0  0
  8 10  1  0  0  0
 10 11  2  0  0  0
 11 12  1  0  0  0
 12 13  2  0  0  0
 13 14  1  0  0  0
 13 18  1  0  0  0
 14 15  1  0  0  0
 15 16  2  0  0  0
 18 19  2  0  0  0
 18 23  1  0  0  0
 19 20  1  0  0  0
 20 21  2  0  0  0
 21 22  1  0  0  0
 22 23  2  0  0  0
 23 24  1  0  0  0
 24 25  2  0  0  0
 24 26  1  0  0  0
  2 17  1  0  0  0
 26 27  1  0  0  0
M  END
> <minimizedAffinity>
-9.34596

$$$$
1N0S_FLU_A_500


 27 30  0  0  0  0  0  0  0  0999 V2000
    6.8666   76.1524   52.8213 C   0  0  0  0  0  0  0  0  0  0  0  0
    6.4639   75.4873   53.8097 O   0  0  0  0  0  0  0  0  0  0  0  0
    6.6717   75.6407   51.5355 C   0  0  0  0  0  0  0  0  0  0  0  0
    7.0930   76.3628   50.4633 C   0  0  0  0  0  0  0  0  0  0  0  0
    6.8491   75.7712   49.2291 O   0  0  0  0  0  0  0  0  0  0  0  0
    7.1590   76.4399   48.0771 C   0  0  0  0  0  0  0  0  0  0  0  0
    6.8672   75.7599   46.9105 C   0  0  0  0  0  0  0  0  0  0  0  0
    7.1344   76.3698   45.6885 C   0  0  0  0  0  0  0  0  0  0  0  0
    6.8498   75.7376   44.5636 O   0  0  0  0  0  0  0  0  0  0  0  0
    7.7355   77.6604   45.7158 C   0  0  0  0  0  0  0  0  0  0  0  0
    8.0094   78.3316   46.8911 C   0  0  0  0  0  0  0  0  0  0  0  0
    7.7212   77.7287   48.1485 C   0  0  0  0  0  0  0  0  0  0  0  0
    8.0275   78.3158   49.4186 C   0  0  0  0  0  0  0  0  0  0  0  0
    7.6672   77.6439   50.5696 C   0  0  0  0  0  0  0  0  0  0  0  0
    7.8603   78.1540   51.9099 C   0  0  0  0  0  0  0  0  0  0  0  0
    7.4527   77.4545   52.9870 C   0  0  0  0  0  0  0  0  0  0  0  0
    6.0846   74.6402   53.6812 H   0  0  0  0  0  0  0  0  0  0  0  0
    8.5526   79.7279   49.4527 C   0  0  0  0  0  0  0  0  0  0  0  0
    9.9259   79.8881   49.4733 C   0  0  0  0  0  0  0  0  0  0  0  0
   10.4840   81.1541   49.5316 C   0  0  0  0  0  0  0  0  0  0  0  0
    9.7085   82.2804   49.6563 C   0  0  0  0  0  0  0  0  0  0  0  0
    8.3353   82.1218   49.6736 C   0  0  0  0  0  0  0  0  0  0  0  0
    7.7549   80.8608   49.5820 C   0  0  0  0  0  0  0  0  0  0  0  0
    6.2764   80.7339   49.6220 C   0  0  0  0  0  0  0  0  0  0  0  0
    5.6948   80.6747   48.5448 O   0  0  0  0  0  0  0  0  0  0  0  0
    5.7412   80.7240   50.7321 O   0  0  0  0  0  0  0  0  0  0  0  0
    6.2670   80.7733   51.5061 H   0  0  0  0  0  0  0  0  0  0  0  0
  1  2  1  0  0  0
  1  3  2  0  0  0
  1 16  1  0  0  0
  3  4  1  0  0  0
  4  5  1  0  0  0
  4 14  2  0  0  0
  5  6  1  0  0  0
  6  7  2  0  0  0
  6 12  1  0  0  0
  7  8  1  0  0  0
  8  9  2  0  0  0
  8 10  1  0  0  0
 10 11  2  0  0  0
 11 12  1  0  0  0
 12 13  2  0  0  0
 13 14  1  0  0  0
 13 18  1  0  0  0
 14 15  1  0  0  0
 15 16  2  0  0  0
 18 19  2  0  0  0
 18 23  1  0  0  0
 19 20  1  0  0  0
 20 21  2  0  0  0
 21 22  1  0  0  0
 22 23  2  0  0  0
 23 24  1  0  0  0
 24 25  2  0  0  0
 24 26  1  0  0  0
  2 17  1  0  0  0
 26 27  1  0  0  0
M  END
> <minimizedAffinity>
-8.71771

$$$$
