4O2B_LOC_B_503


 30 32  0  0  0  0  0  0  0  0999 V2000
   17.7938   67.5516   44.6045 C   0  0  0  0  0  0  0  0  0  0  0  0
   17.6444   66.0863   44.8976 C   0  0  0  0  0  0  0  0  0  0  0  0
   17.9517   65.6737   46.1384 C   0  0  0  0  0  0  0  0  0  0  0  0
   19.1508   67.8079   43.9488 C   0  0  0  0  0  0  0  0  0  0  0  0
   19.4575   66.8494   42.7963 C   0  0  0  0  0  0  0  0  0  0  0  0
   18.2333   66.6978   41.9225 C   0  0  0  0  0  0  0  0  0  0  0  0
   18.1724   67.2983   40.6623 C   0  0  0  0  0  0  0  0  0  0  0  0
   17.0543   67.1782   39.8332 C   0  0  0  0  0  0  0  0  0  0  0  0
   15.8697   66.3999   40.2745 C   0  0  0  0  0  0  0  0  0  0  0  0
   15.8873   65.7412   41.5984 C   0  0  0  0  0  0  0  0  0  0  0  0
   17.0959   65.9001   42.4401 C   0  0  0  0  0  0  0  0  0  0  0  0
   17.1946   65.2534   43.7888 C   0  0  0  0  0  0  0  0  0  0  0  0
   16.8818   63.9478   43.8211 C   0  0  0  0  0  0  0  0  0  0  0  0
   16.8594   62.9916   44.9200 C   0  0  0  0  0  0  0  0  0  0  0  0
   17.3023   63.1337   46.1726 C   0  0  0  0  0  0  0  0  0  0  0  0
   17.9206   64.3272   46.7410 C   0  0  0  0  0  0  0  0  0  0  0  0
   18.4474   64.1982   47.8336 O   0  0  0  0  0  0  0  0  0  0  0  0
   15.4314   68.4164   45.7538 O   0  0  0  0  0  0  0  0  0  0  0  0
   16.4790   68.7192   46.2986 C   0  0  0  0  0  0  0  0  0  0  0  0
   16.5137   69.5193   47.5689 C   0  0  0  0  0  0  0  0  0  0  0  0
   17.6632   68.3595   45.8061 N   0  0  0  0  0  0  0  0  0  0  0  0
   18.4796   68.6514   46.2726 H   0  0  0  0  0  0  0  0  0  0  0  0
   14.8082   65.0188   42.0262 O   0  0  0  0  0  0  0  0  0  0  0  0
   13.7334   65.6988   42.6722 C   0  0  0  0  0  0  0  0  0  0  0  0
   14.7775   66.2731   39.4628 O   0  0  0  0  0  0  0  0  0  0  0  0
   14.7521   65.1843   38.5440 C   0  0  0  0  0  0  0  0  0  0  0  0
   17.0259   67.7801   38.5997 O   0  0  0  0  0  0  0  0  0  0  0  0
   18.2342   68.0357   37.8874 C   0  0  0  0  0  0  0  0  0  0  0  0
   17.1451   61.9896   47.0546 O   0  0  0  0  0  0  0  0  0  0  0  0
   16.5733   60.7833   46.5598 C   0  0  0  0  0  0  0  0  0  0  0  0
 18 19  2  0  0  0
 19 20  1  0  0  0
 19 21  1  0  0  0
 21  1  1  0  0  0
  1  2  1  0  0  0
  1  4  1  0  0  0
  2  3  2  0  0  0
  2 12  1  0  0  0
  3 16  1  0  0  0
  4  5  1  0  0  0
  5  6  1  0  0  0
  6  7  2  0  0  0
  6 11  1  0  0  0
  7  8  1  0  0  0
  8  9  2  0  0  0
  8 27  1  0  0  0
  9 10  1  0  0  0
  9 25  1  0  0  0
 10 23  1  0  0  0
 10 11  2  0  0  0
 23 24  1  0  0  0
 25 26  1  0  0  0
 27 28  1  0  0  0
 11 12  1  0  0  0
 12 13  2  0  0  0
 13 14  1  0  0  0
 14 15  2  0  0  0
 15 16  1  0  0  0
 15 29  1  0  0  0
 16 17  2  0  0  0
 29 30  1  0  0  0
 21 22  1  0  0  0
M  END
> <minimizedAffinity>
-10.10127

$$$$
4O2B_LOC_B_503


 30 32  0  0  0  0  0  0  0  0999 V2000
   15.8838   64.6786   43.7213 C   0  0  0  0  0  0  0  0  0  0  0  0
   16.7158   65.8879   44.0382 C   0  0  0  0  0  0  0  0  0  0  0  0
   17.0708   66.0701   45.3209 C   0  0  0  0  0  0  0  0  0  0  0  0
   14.4060   65.0682   43.6831 C   0  0  0  0  0  0  0  0  0  0  0  0
   14.1309   66.3206   42.8482 C   0  0  0  0  0  0  0  0  0  0  0  0
   14.9081   66.2484   41.5535 C   0  0  0  0  0  0  0  0  0  0  0  0
   14.2623   65.9845   40.3427 C   0  0  0  0  0  0  0  0  0  0  0  0
   14.9535   65.9094   39.1309 C   0  0  0  0  0  0  0  0  0  0  0  0
   16.4246   66.1044   39.0897 C   0  0  0  0  0  0  0  0  0  0  0  0
   17.1533   66.3910   40.3441 C   0  0  0  0  0  0  0  0  0  0  0  0
   16.3748   66.4589   41.6026 C   0  0  0  0  0  0  0  0  0  0  0  0
   17.0394   66.7564   42.9129 C   0  0  0  0  0  0  0  0  0  0  0  0
   17.8497   67.8272   42.9128 C   0  0  0  0  0  0  0  0  0  0  0  0
   18.6539   68.4244   43.9707 C   0  0  0  0  0  0  0  0  0  0  0  0
   18.6714   68.1464   45.2775 C   0  0  0  0  0  0  0  0  0  0  0  0
   17.8653   67.1379   45.9580 C   0  0  0  0  0  0  0  0  0  0  0  0
   17.8666   67.1733   47.1772 O   0  0  0  0  0  0  0  0  0  0  0  0
   18.1272   63.0765   43.9439 O   0  0  0  0  0  0  0  0  0  0  0  0
   17.2140   62.8975   44.7313 C   0  0  0  0  0  0  0  0  0  0  0  0
   17.2875   61.8589   45.8134 C   0  0  0  0  0  0  0  0  0  0  0  0
   16.0905   63.6116   44.6869 N   0  0  0  0  0  0  0  0  0  0  0  0
   15.3741   63.4097   45.3314 H   0  0  0  0  0  0  0  0  0  0  0  0
   18.5080   66.5746   40.3308 O   0  0  0  0  0  0  0  0  0  0  0  0
   19.0398   67.7548   39.7315 C   0  0  0  0  0  0  0  0  0  0  0  0
   17.1029   66.0401   37.9050 O   0  0  0  0  0  0  0  0  0  0  0  0
   17.1089   67.1990   37.0759 C   0  0  0  0  0  0  0  0  0  0  0  0
   14.2895   65.6491   37.9579 O   0  0  0  0  0  0  0  0  0  0  0  0
   13.6411   66.6973   37.2414 C   0  0  0  0  0  0  0  0  0  0  0  0
   19.5883   68.9200   46.0975 O   0  0  0  0  0  0  0  0  0  0  0  0
   19.9395   70.2456   45.7147 C   0  0  0  0  0  0  0  0  0  0  0  0
 18 19  2  0  0  0
 19 20  1  0  0  0
 19 21  1  0  0  0
 21  1  1  0  0  0
  1  2  1  0  0  0
  1  4  1  0  0  0
  2  3  2  0  0  0
  2 12  1  0  0  0
  3 16  1  0  0  0
  4  5  1  0  0  0
  5  6  1  0  0  0
  6  7  2  0  0  0
  6 11  1  0  0  0
  7  8  1  0  0  0
  8  9  2  0  0  0
  8 27  1  0  0  0
  9 10  1  0  0  0
  9 25  1  0  0  0
 10 23  1  0  0  0
 10 11  2  0  0  0
 23 24  1  0  0  0
 25 26  1  0  0  0
 27 28  1  0  0  0
 11 12  1  0  0  0
 12 13  2  0  0  0
 13 14  1  0  0  0
 14 15  2  0  0  0
 15 16  1  0  0  0
 15 29  1  0  0  0
 16 17  2  0  0  0
 29 30  1  0  0  0
 21 22  1  0  0  0
M  END
> <minimizedAffinity>
-7.33881

$$$$
4O2B_LOC_B_503


 30 32  0  0  0  0  0  0  0  0999 V2000
   15.5962   67.1741   44.1266 C   0  0  0  0  0  0  0  0  0  0  0  0
   16.2090   65.9876   44.8137 C   0  0  0  0  0  0  0  0  0  0  0  0
   15.7639   64.7723   44.4543 C   0  0  0  0  0  0  0  0  0  0  0  0
   14.4717   67.7436   44.9916 C   0  0  0  0  0  0  0  0  0  0  0  0
   14.8723   67.9377   46.4555 C   0  0  0  0  0  0  0  0  0  0  0  0
   16.2466   68.5635   46.5270 C   0  0  0  0  0  0  0  0  0  0  0  0
   16.4071   69.9028   46.8917 C   0  0  0  0  0  0  0  0  0  0  0  0
   17.6635   70.5094   46.9645 C   0  0  0  0  0  0  0  0  0  0  0  0
   18.8914   69.7390   46.6446 C   0  0  0  0  0  0  0  0  0  0  0  0
   18.7745   68.3164   46.2580 C   0  0  0  0  0  0  0  0  0  0  0  0
   17.4198   67.7204   46.1943 C   0  0  0  0  0  0  0  0  0  0  0  0
   17.2199   66.2822   45.8220 C   0  0  0  0  0  0  0  0  0  0  0  0
   17.9858   65.4063   46.4924 C   0  0  0  0  0  0  0  0  0  0  0  0
   18.0776   63.9544   46.4162 C   0  0  0  0  0  0  0  0  0  0  0  0
   17.2979   63.0921   45.7575 C   0  0  0  0  0  0  0  0  0  0  0  0
   16.1443   63.4280   44.9292 C   0  0  0  0  0  0  0  0  0  0  0  0
   15.4361   62.4979   44.5810 O   0  0  0  0  0  0  0  0  0  0  0  0
   17.0964   66.7157   41.8487 O   0  0  0  0  0  0  0  0  0  0  0  0
   15.8844   66.6129   41.7678 C   0  0  0  0  0  0  0  0  0  0  0  0
   15.2015   66.2292   40.4866 C   0  0  0  0  0  0  0  0  0  0  0  0
   15.0840   66.8316   42.8098 N   0  0  0  0  0  0  0  0  0  0  0  0
   14.1103   66.7586   42.6837 H   0  0  0  0  0  0  0  0  0  0  0  0
   19.8914   67.5866   45.9592 O   0  0  0  0  0  0  0  0  0  0  0  0
   20.3238   67.5091   44.6021 C   0  0  0  0  0  0  0  0  0  0  0  0
   20.1228   70.3267   46.7229 O   0  0  0  0  0  0  0  0  0  0  0  0
   20.5997   71.0310   45.5797 C   0  0  0  0  0  0  0  0  0  0  0  0
   17.7876   71.8277   47.3269 O   0  0  0  0  0  0  0  0  0  0  0  0
   17.4410   72.8679   46.4156 C   0  0  0  0  0  0  0  0  0  0  0  0
   17.6384   61.6841   45.8728 O   0  0  0  0  0  0  0  0  0  0  0  0
   17.0652   60.8965   46.9112 C   0  0  0  0  0  0  0  0  0  0  0  0
 18 19  2  0  0  0
 19 20  1  0  0  0
 19 21  1  0  0  0
 21  1  1  0  0  0
  1  2  1  0  0  0
  1  4  1  0  0  0
  2  3  2  0  0  0
  2 12  1  0  0  0
  3 16  1  0  0  0
  4  5  1  0  0  0
  5  6  1  0  0  0
  6  7  2  0  0  0
  6 11  1  0  0  0
  7  8  1  0  0  0
  8  9  2  0  0  0
  8 27  1  0  0  0
  9 10  1  0  0  0
  9 25  1  0  0  0
 10 23  1  0  0  0
 10 11  2  0  0  0
 23 24  1  0  0  0
 25 26  1  0  0  0
 27 28  1  0  0  0
 11 12  1  0  0  0
 12 13  2  0  0  0
 13 14  1  0  0  0
 14 15  2  0  0  0
 15 16  1  0  0  0
 15 29  1  0  0  0
 16 17  2  0  0  0
 29 30  1  0  0  0
 21 22  1  0  0  0
M  END
> <minimizedAffinity>
-7.18697

$$$$
