2A14_SAH_A_4001


 33 35  0  0  0  0  0  0  0  0999 V2000
   22.3400   44.4405    8.0245 C   0  0  0  0  0  0  0  0  0  0  0  0
   22.0637   45.8131    7.7660 O   0  0  0  0  0  0  0  0  0  0  0  0
   23.7341   44.1640    7.4406 C   0  0  0  0  0  0  0  0  0  0  0  0
   23.6234   43.1526    6.4554 O   0  0  0  0  0  0  0  0  0  0  0  0
   24.1619   45.4996    6.8380 C   0  0  0  0  0  0  0  0  0  0  0  0
   24.9293   45.4256    5.6477 O   0  0  0  0  0  0  0  0  0  0  0  0
   22.7910   46.1283    6.5943 C   0  0  0  0  0  0  0  0  0  0  0  0
   22.9826   43.4270    5.7809 H   0  0  0  0  0  0  0  0  0  0  0  0
   24.4284   44.9462    4.9693 H   0  0  0  0  0  0  0  0  0  0  0  0
   22.8122   47.5733    6.3585 N   0  0  0  0  0  0  0  0  0  0  0  0
   23.6448   48.5266    6.8820 C   0  0  0  0  0  0  0  0  0  0  0  0
   23.2898   49.7269    6.3708 N   0  0  0  0  0  0  0  0  0  0  0  0
   22.2321   49.5644    5.5424 C   0  0  0  0  0  0  0  0  0  0  0  0
   21.4753   50.4505    4.7720 C   0  0  0  0  0  0  0  0  0  0  0  0
   21.7366   51.7696    4.7542 N   0  0  0  0  0  0  0  0  0  0  0  0
   20.4333   49.9468    4.0313 N   0  0  0  0  0  0  0  0  0  0  0  0
   20.1400   48.5922    4.0238 C   0  0  0  0  0  0  0  0  0  0  0  0
   20.8944   47.7230    4.7860 N   0  0  0  0  0  0  0  0  0  0  0  0
   21.9194   48.2049    5.5312 C   0  0  0  0  0  0  0  0  0  0  0  0
   22.4832   52.1307    5.2848 H   0  0  0  0  0  0  0  0  0  0  0  0
   21.1814   52.3742    4.2107 H   0  0  0  0  0  0  0  0  0  0  0  0
   22.2125   44.2119    9.5278 C   0  0  0  0  0  0  0  0  0  0  0  0
   21.9441   42.4798   10.0045 S   0  0  0  0  0  0  0  0  0  0  0  0
   20.5952   42.0077    8.8856 C   0  0  0  0  0  0  0  0  0  0  0  0
   20.7290   40.5289    8.4801 C   0  0  0  0  0  0  0  0  0  0  0  0
   20.2100   38.2693    9.5003 N   0  0  0  0  0  0  0  0  0  0  0  0
   19.6460   39.5525    8.9754 C   0  0  0  0  0  0  0  0  0  0  0  0
   20.9459   38.4728   10.1766 H   0  0  0  0  0  0  0  0  0  0  0  0
   20.5981   37.7274    8.7282 H   0  0  0  0  0  0  0  0  0  0  0  0
   18.5317   39.2731    7.9513 C   0  0  0  0  0  0  0  0  0  0  0  0
   17.8356   38.2542    8.0914 O   0  0  0  0  0  0  0  0  0  0  0  0
   18.2979   40.0504    7.0157 O   0  0  0  0  0  0  0  0  0  0  0  0
   18.8198   40.8207    6.9050 H   0  0  0  0  0  0  0  0  0  0  0  0
 26 27  1  0  0  0
 27 25  1  0  0  0
 27 30  1  0  0  0
 25 24  1  0  0  0
 24 23  1  0  0  0
 23 22  1  0  0  0
 30 31  2  0  0  0
 30 32  1  0  0  0
 22  1  1  0  0  0
  1  2  1  0  0  0
  1  3  1  0  0  0
  2  7  1  0  0  0
  3  4  1  0  0  0
  3  5  1  0  0  0
  5  6  1  0  0  0
  5  7  1  0  0  0
  7 10  1  0  0  0
 10 11  1  0  0  0
 10 19  1  0  0  0
 11 12  2  0  0  0
 12 13  1  0  0  0
 13 14  1  0  0  0
 13 19  2  0  0  0
 14 15  1  0  0  0
 14 16  2  0  0  0
 16 17  1  0  0  0
 17 18  2  0  0  0
 18 19  1  0  0  0
 26 28  1  0  0  0
 26 29  1  0  0  0
 32 33  1  0  0  0
  4  8  1  0  0  0
  6  9  1  0  0  0
 15 20  1  0  0  0
 15 21  1  0  0  0
M  END
> <minimizedAffinity>
-11.35132

$$$$
2A14_SAH_A_4001


 33 35  0  0  0  0  0  0  0  0999 V2000
   22.4221   44.6799    7.7365 C   0  0  0  0  0  0  0  0  0  0  0  0
   21.7352   45.8393    7.2768 O   0  0  0  0  0  0  0  0  0  0  0  0
   23.8520   44.7782    7.1831 C   0  0  0  0  0  0  0  0  0  0  0  0
   24.1026   43.6504    6.3639 O   0  0  0  0  0  0  0  0  0  0  0  0
   23.8568   46.0762    6.3797 C   0  0  0  0  0  0  0  0  0  0  0  0
   24.6505   46.0753    5.2045 O   0  0  0  0  0  0  0  0  0  0  0  0
   22.3671   46.1929    6.0616 C   0  0  0  0  0  0  0  0  0  0  0  0
   23.4326   43.6040    5.6640 H   0  0  0  0  0  0  0  0  0  0  0  0
   24.3518   45.3669    4.6131 H   0  0  0  0  0  0  0  0  0  0  0  0
   21.9386   47.5180    5.6095 N   0  0  0  0  0  0  0  0  0  0  0  0
   20.8194   47.8756    4.9055 C   0  0  0  0  0  0  0  0  0  0  0  0
   20.8446   49.2146    4.7201 N   0  0  0  0  0  0  0  0  0  0  0  0
   21.9694   49.7215    5.2763 C   0  0  0  0  0  0  0  0  0  0  0  0
   22.4920   51.0136    5.3697 C   0  0  0  0  0  0  0  0  0  0  0  0
   21.8538   52.0722    4.8398 N   0  0  0  0  0  0  0  0  0  0  0  0
   23.6956   51.1870    6.0096 N   0  0  0  0  0  0  0  0  0  0  0  0
   24.3769   50.1183    6.5704 C   0  0  0  0  0  0  0  0  0  0  0  0
   23.8522   48.8450    6.4759 N   0  0  0  0  0  0  0  0  0  0  0  0
   22.6709   48.6546    5.8383 C   0  0  0  0  0  0  0  0  0  0  0  0
   20.9914   51.9481    4.3813 H   0  0  0  0  0  0  0  0  0  0  0  0
   22.2489   52.9711    4.9104 H   0  0  0  0  0  0  0  0  0  0  0  0
   22.3193   44.6472    9.2586 C   0  0  0  0  0  0  0  0  0  0  0  0
   22.2489   42.9779    9.9714 S   0  0  0  0  0  0  0  0  0  0  0  0
   21.3047   42.0885    8.7018 C   0  0  0  0  0  0  0  0  0  0  0  0
   20.2428   41.1875    9.3576 C   0  0  0  0  0  0  0  0  0  0  0  0
   21.2337   39.3505    7.9225 N   0  0  0  0  0  0  0  0  0  0  0  0
   20.1258   39.7379    8.8514 C   0  0  0  0  0  0  0  0  0  0  0  0
   22.1310   39.5857    8.3468 H   0  0  0  0  0  0  0  0  0  0  0  0
   21.1313   39.8551    7.0420 H   0  0  0  0  0  0  0  0  0  0  0  0
   18.7588   39.3931    8.2340 C   0  0  0  0  0  0  0  0  0  0  0  0
   17.9835   38.6633    8.8733 O   0  0  0  0  0  0  0  0  0  0  0  0
   18.4073   39.8471    7.1365 O   0  0  0  0  0  0  0  0  0  0  0  0
   18.9881   40.3982    6.6498 H   0  0  0  0  0  0  0  0  0  0  0  0
 26 27  1  0  0  0
 27 25  1  0  0  0
 27 30  1  0  0  0
 25 24  1  0  0  0
 24 23  1  0  0  0
 23 22  1  0  0  0
 30 31  2  0  0  0
 30 32  1  0  0  0
 22  1  1  0  0  0
  1  2  1  0  0  0
  1  3  1  0  0  0
  2  7  1  0  0  0
  3  4  1  0  0  0
  3  5  1  0  0  0
  5  6  1  0  0  0
  5  7  1  0  0  0
  7 10  1  0  0  0
 10 11  1  0  0  0
 10 19  1  0  0  0
 11 12  2  0  0  0
 12 13  1  0  0  0
 13 14  1  0  0  0
 13 19  2  0  0  0
 14 15  1  0  0  0
 14 16  2  0  0  0
 16 17  1  0  0  0
 17 18  2  0  0  0
 18 19  1  0  0  0
 26 28  1  0  0  0
 26 29  1  0  0  0
 32 33  1  0  0  0
  4  8  1  0  0  0
  6  9  1  0  0  0
 15 20  1  0  0  0
 15 21  1  0  0  0
M  END
> <minimizedAffinity>
-10.41028

$$$$
2A14_SAH_A_4001


 33 35  0  0  0  0  0  0  0  0999 V2000
   22.8093   44.0570    7.6738 C   0  0  0  0  0  0  0  0  0  0  0  0
   22.3893   44.9529    6.6499 O   0  0  0  0  0  0  0  0  0  0  0  0
   22.8158   44.8671    8.9794 C   0  0  0  0  0  0  0  0  0  0  0  0
   24.1275   44.8612    9.5133 O   0  0  0  0  0  0  0  0  0  0  0  0
   22.3812   46.2678    8.5559 C   0  0  0  0  0  0  0  0  0  0  0  0
   22.9885   47.3430    9.2533 O   0  0  0  0  0  0  0  0  0  0  0  0
   22.7935   46.2367    7.0852 C   0  0  0  0  0  0  0  0  0  0  0  0
   24.7469   45.2099    8.8532 H   0  0  0  0  0  0  0  0  0  0  0  0
   23.9517   47.2924    9.1500 H   0  0  0  0  0  0  0  0  0  0  0  0
   22.1960   47.2871    6.2585 N   0  0  0  0  0  0  0  0  0  0  0  0
   21.1213   47.2201    5.4119 C   0  0  0  0  0  0  0  0  0  0  0  0
   20.9340   48.4430    4.8666 N   0  0  0  0  0  0  0  0  0  0  0  0
   21.8804   49.2901    5.3335 C   0  0  0  0  0  0  0  0  0  0  0  0
   22.1551   50.6399    5.1009 C   0  0  0  0  0  0  0  0  0  0  0  0
   21.4081   51.3764    4.2593 N   0  0  0  0  0  0  0  0  0  0  0  0
   23.2270   51.2091    5.7452 N   0  0  0  0  0  0  0  0  0  0  0  0
   24.0142   50.4796    6.6220 C   0  0  0  0  0  0  0  0  0  0  0  0
   23.7344   49.1468    6.8482 N   0  0  0  0  0  0  0  0  0  0  0  0
   22.6869   48.5667    6.2123 C   0  0  0  0  0  0  0  0  0  0  0  0
   20.6400   50.9687    3.7976 H   0  0  0  0  0  0  0  0  0  0  0  0
   21.6293   52.3232    4.1049 H   0  0  0  0  0  0  0  0  0  0  0  0
   21.8664   42.8574    7.6627 C   0  0  0  0  0  0  0  0  0  0  0  0
   22.4805   41.4102    8.5728 S   0  0  0  0  0  0  0  0  0  0  0  0
   21.2091   40.1763    8.1788 C   0  0  0  0  0  0  0  0  0  0  0  0
   19.9352   40.4389    9.0021 C   0  0  0  0  0  0  0  0  0  0  0  0
   19.5847   37.9778    9.4882 N   0  0  0  0  0  0  0  0  0  0  0  0
   18.9308   39.2812    9.1510 C   0  0  0  0  0  0  0  0  0  0  0  0
   20.2111   38.1072   10.2828 H   0  0  0  0  0  0  0  0  0  0  0  0
   20.1189   37.6474    8.6845 H   0  0  0  0  0  0  0  0  0  0  0  0
   17.9789   39.1132    7.9532 C   0  0  0  0  0  0  0  0  0  0  0  0
   17.0909   38.2471    8.0149 O   0  0  0  0  0  0  0  0  0  0  0  0
   18.0608   39.8359    6.9507 O   0  0  0  0  0  0  0  0  0  0  0  0
   18.7287   40.4909    6.8986 H   0  0  0  0  0  0  0  0  0  0  0  0
 26 27  1  0  0  0
 27 25  1  0  0  0
 27 30  1  0  0  0
 25 24  1  0  0  0
 24 23  1  0  0  0
 23 22  1  0  0  0
 30 31  2  0  0  0
 30 32  1  0  0  0
 22  1  1  0  0  0
  1  2  1  0  0  0
  1  3  1  0  0  0
  2  7  1  0  0  0
  3  4  1  0  0  0
  3  5  1  0  0  0
  5  6  1  0  0  0
  5  7  1  0  0  0
  7 10  1  0  0  0
 10 11  1  0  0  0
 10 19  1  0  0  0
 11 12  2  0  0  0
 12 13  1  0  0  0
 13 14  1  0  0  0
 13 19  2  0  0  0
 14 15  1  0  0  0
 14 16  2  0  0  0
 16 17  1  0  0  0
 17 18  2  0  0  0
 18 19  1  0  0  0
 26 28  1  0  0  0
 26 29  1  0  0  0
 32 33  1  0  0  0
  4  8  1  0  0  0
  6  9  1  0  0  0
 15 20  1  0  0  0
 15 21  1  0  0  0
M  END
> <minimizedAffinity>
-9.59314

$$$$
2A14_SAH_A_4001


 33 35  0  0  0  0  0  0  0  0999 V2000
   23.1357   46.7674    6.5000 C   0  0  0  0  0  0  0  0  0  0  0  0
   23.4938   48.1371    6.3486 O   0  0  0  0  0  0  0  0  0  0  0  0
   21.8293   46.5740    5.7147 C   0  0  0  0  0  0  0  0  0  0  0  0
   20.8224   46.1306    6.6065 O   0  0  0  0  0  0  0  0  0  0  0  0
   21.5197   47.9587    5.1516 C   0  0  0  0  0  0  0  0  0  0  0  0
   20.1466   48.3053    5.0772 O   0  0  0  0  0  0  0  0  0  0  0  0
   22.2728   48.8257    6.1591 C   0  0  0  0  0  0  0  0  0  0  0  0
   20.7317   46.7663    7.3336 H   0  0  0  0  0  0  0  0  0  0  0  0
   19.7520   48.2548    5.9619 H   0  0  0  0  0  0  0  0  0  0  0  0
   22.5060   50.2053    5.7275 N   0  0  0  0  0  0  0  0  0  0  0  0
   22.0650   50.8496    4.6021 C   0  0  0  0  0  0  0  0  0  0  0  0
   22.5278   52.1196    4.6315 N   0  0  0  0  0  0  0  0  0  0  0  0
   23.2737   52.2976    5.7466 C   0  0  0  0  0  0  0  0  0  0  0  0
   23.9792   53.3876    6.2618 C   0  0  0  0  0  0  0  0  0  0  0  0
   24.0154   54.5700    5.6219 N   0  0  0  0  0  0  0  0  0  0  0  0
   24.6588   53.2259    7.4450 N   0  0  0  0  0  0  0  0  0  0  0  0
   24.6385   52.0224    8.1319 C   0  0  0  0  0  0  0  0  0  0  0  0
   23.9367   50.9508    7.6171 N   0  0  0  0  0  0  0  0  0  0  0  0
   23.2695   51.0900    6.4450 C   0  0  0  0  0  0  0  0  0  0  0  0
   23.5285   54.6860    4.7741 H   0  0  0  0  0  0  0  0  0  0  0  0
   24.5288   55.3195    6.0013 H   0  0  0  0  0  0  0  0  0  0  0  0
   24.3100   45.9200    6.0188 C   0  0  0  0  0  0  0  0  0  0  0  0
   24.7252   44.5249    7.1055 S   0  0  0  0  0  0  0  0  0  0  0  0
   23.5349   44.7591    8.4556 C   0  0  0  0  0  0  0  0  0  0  0  0
   23.1293   43.3998    9.0532 C   0  0  0  0  0  0  0  0  0  0  0  0
   21.6622   43.1991    6.9981 N   0  0  0  0  0  0  0  0  0  0  0  0
   22.1442   42.5320    8.2483 C   0  0  0  0  0  0  0  0  0  0  0  0
   22.4616   43.5451    6.4675 H   0  0  0  0  0  0  0  0  0  0  0  0
   21.0527   43.9796    7.2426 H   0  0  0  0  0  0  0  0  0  0  0  0
   20.9555   42.0000    9.0687 C   0  0  0  0  0  0  0  0  0  0  0  0
   21.1423   41.6925   10.2573 O   0  0  0  0  0  0  0  0  0  0  0  0
   19.8213   41.9003    8.5813 O   0  0  0  0  0  0  0  0  0  0  0  0
   19.6745   42.1309    7.6851 H   0  0  0  0  0  0  0  0  0  0  0  0
 26 27  1  0  0  0
 27 25  1  0  0  0
 27 30  1  0  0  0
 25 24  1  0  0  0
 24 23  1  0  0  0
 23 22  1  0  0  0
 30 31  2  0  0  0
 30 32  1  0  0  0
 22  1  1  0  0  0
  1  2  1  0  0  0
  1  3  1  0  0  0
  2  7  1  0  0  0
  3  4  1  0  0  0
  3  5  1  0  0  0
  5  6  1  0  0  0
  5  7  1  0  0  0
  7 10  1  0  0  0
 10 11  1  0  0  0
 10 19  1  0  0  0
 11 12  2  0  0  0
 12 13  1  0  0  0
 13 14  1  0  0  0
 13 19  2  0  0  0
 14 15  1  0  0  0
 14 16  2  0  0  0
 16 17  1  0  0  0
 17 18  2  0  0  0
 18 19  1  0  0  0
 26 28  1  0  0  0
 26 29  1  0  0  0
 32 33  1  0  0  0
  4  8  1  0  0  0
  6  9  1  0  0  0
 15 20  1  0  0  0
 15 21  1  0  0  0
M  END
> <minimizedAffinity>
-8.84441

$$$$
