1Z6E_IK8_A_711


 41 45  0  0  0  0  0  0  0  0999 V2000
    6.8949   27.6962   54.3447 N   0  0  0  0  0  0  0  0  0  0  0  0
    5.9400   27.0647   53.5973 N   0  0  0  0  0  0  0  0  0  0  0  0
    4.7365   27.3428   54.1209 C   0  0  0  0  0  0  0  0  0  0  0  0
    4.8972   28.1773   55.2618 C   0  0  0  0  0  0  0  0  0  0  0  0
    6.2917   28.3870   55.3761 C   0  0  0  0  0  0  0  0  0  0  0  0
   12.2612   27.8242   52.5237 O   0  0  0  0  0  0  0  0  0  0  0  0
   12.1756   28.7250   51.5277 N   0  0  0  0  0  0  0  0  0  0  0  0
   10.3269   30.1160   50.6420 N   0  0  0  0  0  0  0  0  0  0  0  0
   11.0729   27.6371   53.0957 C   0  0  0  0  0  0  0  0  0  0  0  0
   10.1070   28.4852   52.4138 C   0  0  0  0  0  0  0  0  0  0  0  0
   10.8828   29.1528   51.4371 C   0  0  0  0  0  0  0  0  0  0  0  0
   10.6158   26.8017   54.2485 C   0  0  0  0  0  0  0  0  0  0  0  0
    9.2029   26.8216   54.6959 C   0  0  0  0  0  0  0  0  0  0  0  0
    8.2314   27.6828   53.9665 C   0  0  0  0  0  0  0  0  0  0  0  0
    8.6941   28.5281   52.8202 C   0  0  0  0  0  0  0  0  0  0  0  0
   10.8767   30.5738   49.9657 H   0  0  0  0  0  0  0  0  0  0  0  0
    9.3767   30.3517   50.7457 H   0  0  0  0  0  0  0  0  0  0  0  0
    2.5917   27.8240   53.3163 F   0  0  0  0  0  0  0  0  0  0  0  0
    2.8267   26.0522   54.4396 F   0  0  0  0  0  0  0  0  0  0  0  0
    3.5820   26.2045   52.4307 F   0  0  0  0  0  0  0  0  0  0  0  0
    3.3917   26.8485   53.5685 C   0  0  0  0  0  0  0  0  0  0  0  0
    8.1311   29.1171   56.5194 O   0  0  0  0  0  0  0  0  0  0  0  0
    6.1671   30.1467   56.9891 N   0  0  0  0  0  0  0  0  0  0  0  0
    6.9178   29.2272   56.3244 C   0  0  0  0  0  0  0  0  0  0  0  0
    5.1904   30.1232   56.8683 H   0  0  0  0  0  0  0  0  0  0  0  0
    6.6949   31.1081   57.8210 C   0  0  0  0  0  0  0  0  0  0  0  0
    6.5037   32.5211   57.5343 C   0  0  0  0  0  0  0  0  0  0  0  0
    7.0203   33.5822   58.3523 C   0  0  0  0  0  0  0  0  0  0  0  0
    7.7758   33.2064   59.5336 C   0  0  0  0  0  0  0  0  0  0  0  0
    7.9624   31.7787   59.8573 C   0  0  0  0  0  0  0  0  0  0  0  0
    7.4365   30.7083   59.0107 C   0  0  0  0  0  0  0  0  0  0  0  0
    5.7846   32.8468   56.4640 F   0  0  0  0  0  0  0  0  0  0  0  0
    8.4246   34.2405   60.2484 N   0  0  0  0  0  0  0  0  0  0  0  0
    9.7465   34.5725   60.1538 C   0  0  0  0  0  0  0  0  0  0  0  0
    9.9881   35.6541   61.0091 C   0  0  0  0  0  0  0  0  0  0  0  0
    8.8064   35.9733   61.6252 N   0  0  0  0  0  0  0  0  0  0  0  0
    7.8672   35.1007   61.1631 C   0  0  0  0  0  0  0  0  0  0  0  0
    6.3930   35.1287   61.6190 C   0  0  0  0  0  0  0  0  0  0  0  0
    6.1530   34.4500   62.9314 N   0  0  0  0  0  0  0  0  0  0  0  0
    6.3201   35.1889   64.2049 C   0  0  0  0  0  0  0  0  0  0  0  0
    6.5007   33.0308   63.0608 C   0  0  0  0  0  0  0  0  0  0  0  0
 18 21  1  0  0  0
 19 21  1  0  0  0
 20 21  1  0  0  0
  6  7  1  0  0  0
  6  9  1  0  0  0
 22 24  2  0  0  0
  7 11  2  0  0  0
  8 11  1  0  0  0
  1  2  1  0  0  0
  1 14  1  0  0  0
  1  5  1  0  0  0
  2  3  2  0  0  0
 23 24  1  0  0  0
 23 26  1  0  0  0
  9 10  1  0  0  0
  9 12  2  0  0  0
 10 11  1  0  0  0
 10 15  2  0  0  0
 12 13  1  0  0  0
 13 14  2  0  0  0
 14 15  1  0  0  0
  3  4  1  0  0  0
  3 21  1  0  0  0
  4  5  2  0  0  0
  5 24  1  0  0  0
 26 27  2  0  0  0
 26 31  1  0  0  0
 27 28  1  0  0  0
 27 32  1  0  0  0
 28 29  2  0  0  0
 29 30  1  0  0  0
 29 33  1  0  0  0
 30 31  2  0  0  0
 33 34  1  0  0  0
 33 37  1  0  0  0
 34 35  2  0  0  0
 35 36  1  0  0  0
 36 37  2  0  0  0
 37 38  1  0  0  0
 38 39  1  0  0  0
 39 40  1  0  0  0
 39 41  1  0  0  0
  8 16  1  0  0  0
  8 17  1  0  0  0
 23 25  1  0  0  0
M  END
> <minimizedAffinity>
-11.28151

$$$$
1Z6E_IK8_A_711


 41 45  0  0  0  0  0  0  0  0999 V2000
    5.7836   27.4951   54.4401 N   0  0  0  0  0  0  0  0  0  0  0  0
    5.0650   26.6825   53.6080 N   0  0  0  0  0  0  0  0  0  0  0  0
    3.7592   26.9195   53.8046 C   0  0  0  0  0  0  0  0  0  0  0  0
    3.6040   27.9141   54.8099 C   0  0  0  0  0  0  0  0  0  0  0  0
    4.9200   28.2634   55.1941 C   0  0  0  0  0  0  0  0  0  0  0  0
   11.4108   27.7894   53.8252 O   0  0  0  0  0  0  0  0  0  0  0  0
   11.5097   28.2846   52.5779 N   0  0  0  0  0  0  0  0  0  0  0  0
    9.8430   29.0163   50.8975 N   0  0  0  0  0  0  0  0  0  0  0  0
   10.1343   27.6326   54.1720 C   0  0  0  0  0  0  0  0  0  0  0  0
    9.3085   28.0549   53.0509 C   0  0  0  0  0  0  0  0  0  0  0  0
   10.2520   28.4647   52.0795 C   0  0  0  0  0  0  0  0  0  0  0  0
    9.4678   27.1715   55.4286 C   0  0  0  0  0  0  0  0  0  0  0  0
    7.9905   27.1333   55.5421 C   0  0  0  0  0  0  0  0  0  0  0  0
    7.1698   27.5513   54.3719 C   0  0  0  0  0  0  0  0  0  0  0  0
    7.8396   28.0245   53.1188 C   0  0  0  0  0  0  0  0  0  0  0  0
   10.5088   29.2977   50.2291 H   0  0  0  0  0  0  0  0  0  0  0  0
    8.8826   29.1321   50.7146 H   0  0  0  0  0  0  0  0  0  0  0  0
    2.0582   25.3120   53.7621 F   0  0  0  0  0  0  0  0  0  0  0  0
    3.0636   25.7023   51.9474 F   0  0  0  0  0  0  0  0  0  0  0  0
    1.6663   27.1157   52.7717 F   0  0  0  0  0  0  0  0  0  0  0  0
    2.6089   26.2337   53.0533 C   0  0  0  0  0  0  0  0  0  0  0  0
    5.4251   30.4324   55.7077 O   0  0  0  0  0  0  0  0  0  0  0  0
    5.3863   28.9618   57.4322 N   0  0  0  0  0  0  0  0  0  0  0  0
    5.2609   29.2795   56.1153 C   0  0  0  0  0  0  0  0  0  0  0  0
    5.3433   28.0117   57.6864 H   0  0  0  0  0  0  0  0  0  0  0  0
    5.5698   29.8926   58.4296 C   0  0  0  0  0  0  0  0  0  0  0  0
    6.8921   30.1287   58.9875 C   0  0  0  0  0  0  0  0  0  0  0  0
    7.1653   31.0814   60.0265 C   0  0  0  0  0  0  0  0  0  0  0  0
    6.0447   31.8481   60.5402 C   0  0  0  0  0  0  0  0  0  0  0  0
    4.6980   31.6422   59.9728 C   0  0  0  0  0  0  0  0  0  0  0  0
    4.4331   30.6628   58.9193 C   0  0  0  0  0  0  0  0  0  0  0  0
    7.9116   29.4382   58.4849 F   0  0  0  0  0  0  0  0  0  0  0  0
    6.2776   32.6642   61.6720 N   0  0  0  0  0  0  0  0  0  0  0  0
    6.0008   32.3340   62.9684 C   0  0  0  0  0  0  0  0  0  0  0  0
    6.3907   33.4024   63.7847 C   0  0  0  0  0  0  0  0  0  0  0  0
    6.9019   34.3832   62.9756 N   0  0  0  0  0  0  0  0  0  0  0  0
    6.8176   33.9273   61.6942 C   0  0  0  0  0  0  0  0  0  0  0  0
    7.2940   34.7449   60.4750 C   0  0  0  0  0  0  0  0  0  0  0  0
    8.7766   34.9435   60.4222 N   0  0  0  0  0  0  0  0  0  0  0  0
    9.6787   33.8128   60.1004 C   0  0  0  0  0  0  0  0  0  0  0  0
    9.3897   35.8982   61.3520 C   0  0  0  0  0  0  0  0  0  0  0  0
 18 21  1  0  0  0
 19 21  1  0  0  0
 20 21  1  0  0  0
  6  7  1  0  0  0
  6  9  1  0  0  0
 22 24  2  0  0  0
  7 11  2  0  0  0
  8 11  1  0  0  0
  1  2  1  0  0  0
  1 14  1  0  0  0
  1  5  1  0  0  0
  2  3  2  0  0  0
 23 24  1  0  0  0
 23 26  1  0  0  0
  9 10  1  0  0  0
  9 12  2  0  0  0
 10 11  1  0  0  0
 10 15  2  0  0  0
 12 13  1  0  0  0
 13 14  2  0  0  0
 14 15  1  0  0  0
  3  4  1  0  0  0
  3 21  1  0  0  0
  4  5  2  0  0  0
  5 24  1  0  0  0
 26 27  2  0  0  0
 26 31  1  0  0  0
 27 28  1  0  0  0
 27 32  1  0  0  0
 28 29  2  0  0  0
 29 30  1  0  0  0
 29 33  1  0  0  0
 30 31  2  0  0  0
 33 34  1  0  0  0
 33 37  1  0  0  0
 34 35  2  0  0  0
 35 36  1  0  0  0
 36 37  2  0  0  0
 37 38  1  0  0  0
 38 39  1  0  0  0
 39 40  1  0  0  0
 39 41  1  0  0  0
  8 16  1  0  0  0
  8 17  1  0  0  0
 23 25  1  0  0  0
M  END
> <minimizedAffinity>
-9.29030

$$$$
1Z6E_IK8_A_711


 41 45  0  0  0  0  0  0  0  0999 V2000
    6.7997   28.0496   54.6071 N   0  0  0  0  0  0  0  0  0  0  0  0
    7.7707   27.4978   53.8184 N   0  0  0  0  0  0  0  0  0  0  0  0
    8.9284   27.5113   54.4961 C   0  0  0  0  0  0  0  0  0  0  0  0
    8.7233   28.1030   55.7734 C   0  0  0  0  0  0  0  0  0  0  0  0
    7.3484   28.4344   55.8136 C   0  0  0  0  0  0  0  0  0  0  0  0
    1.3358   28.4034   53.1410 O   0  0  0  0  0  0  0  0  0  0  0  0
    1.0603   29.6781   53.4728 N   0  0  0  0  0  0  0  0  0  0  0  0
    2.4238   31.5346   54.3845 N   0  0  0  0  0  0  0  0  0  0  0  0
    2.6038   28.1055   53.4196 C   0  0  0  0  0  0  0  0  0  0  0  0
    3.2272   29.2872   53.9960 C   0  0  0  0  0  0  0  0  0  0  0  0
    2.1881   30.2474   53.9889 C   0  0  0  0  0  0  0  0  0  0  0  0
    3.4309   26.8761   53.2185 C   0  0  0  0  0  0  0  0  0  0  0  0
    4.8622   26.8450   53.6021 C   0  0  0  0  0  0  0  0  0  0  0  0
    5.4689   28.0619   54.2093 C   0  0  0  0  0  0  0  0  0  0  0  0
    4.6419   29.2959   54.3981 C   0  0  0  0  0  0  0  0  0  0  0  0
    1.6929   32.1940   54.3753 H   0  0  0  0  0  0  0  0  0  0  0  0
    3.3245   31.8020   54.6787 H   0  0  0  0  0  0  0  0  0  0  0  0
   11.2686   27.5537   54.5283 F   0  0  0  0  0  0  0  0  0  0  0  0
   10.3358   27.1258   52.6835 F   0  0  0  0  0  0  0  0  0  0  0  0
   10.3699   25.6786   54.2753 F   0  0  0  0  0  0  0  0  0  0  0  0
   10.2663   26.9622   53.9799 C   0  0  0  0  0  0  0  0  0  0  0  0
    6.0553   28.2168   57.6855 O   0  0  0  0  0  0  0  0  0  0  0  0
    6.7210   30.3159   57.1479 N   0  0  0  0  0  0  0  0  0  0  0  0
    6.6691   28.9741   56.9291 C   0  0  0  0  0  0  0  0  0  0  0  0
    7.1392   30.8824   56.4599 H   0  0  0  0  0  0  0  0  0  0  0  0
    6.2223   30.9269   58.2761 C   0  0  0  0  0  0  0  0  0  0  0  0
    7.0644   31.1222   59.4458 C   0  0  0  0  0  0  0  0  0  0  0  0
    6.6198   31.7509   60.6577 C   0  0  0  0  0  0  0  0  0  0  0  0
    5.2451   32.2152   60.7030 C   0  0  0  0  0  0  0  0  0  0  0  0
    4.3791   32.0490   59.5196 C   0  0  0  0  0  0  0  0  0  0  0  0
    4.8435   31.3999   58.2939 C   0  0  0  0  0  0  0  0  0  0  0  0
    8.3291   30.7167   59.3762 F   0  0  0  0  0  0  0  0  0  0  0  0
    4.7557   32.6827   61.9452 N   0  0  0  0  0  0  0  0  0  0  0  0
    4.1054   31.9326   62.8837 C   0  0  0  0  0  0  0  0  0  0  0  0
    3.8001   32.7605   63.9705 C   0  0  0  0  0  0  0  0  0  0  0  0
    4.2657   34.0170   63.6840 N   0  0  0  0  0  0  0  0  0  0  0  0
    4.8341   33.9593   62.4469 C   0  0  0  0  0  0  0  0  0  0  0  0
    5.4800   35.1797   61.7576 C   0  0  0  0  0  0  0  0  0  0  0  0
    6.9742   35.2027   61.8445 N   0  0  0  0  0  0  0  0  0  0  0  0
    7.8031   35.1001   60.6206 C   0  0  0  0  0  0  0  0  0  0  0  0
    7.6184   34.5827   63.0075 C   0  0  0  0  0  0  0  0  0  0  0  0
 18 21  1  0  0  0
 19 21  1  0  0  0
 20 21  1  0  0  0
  6  7  1  0  0  0
  6  9  1  0  0  0
 22 24  2  0  0  0
  7 11  2  0  0  0
  8 11  1  0  0  0
  1  2  1  0  0  0
  1 14  1  0  0  0
  1  5  1  0  0  0
  2  3  2  0  0  0
 23 24  1  0  0  0
 23 26  1  0  0  0
  9 10  1  0  0  0
  9 12  2  0  0  0
 10 11  1  0  0  0
 10 15  2  0  0  0
 12 13  1  0  0  0
 13 14  2  0  0  0
 14 15  1  0  0  0
  3  4  1  0  0  0
  3 21  1  0  0  0
  4  5  2  0  0  0
  5 24  1  0  0  0
 26 27  2  0  0  0
 26 31  1  0  0  0
 27 28  1  0  0  0
 27 32  1  0  0  0
 28 29  2  0  0  0
 29 30  1  0  0  0
 29 33  1  0  0  0
 30 31  2  0  0  0
 33 34  1  0  0  0
 33 37  1  0  0  0
 34 35  2  0  0  0
 35 36  1  0  0  0
 36 37  2  0  0  0
 37 38  1  0  0  0
 38 39  1  0  0  0
 39 40  1  0  0  0
 39 41  1  0  0  0
  8 16  1  0  0  0
  8 17  1  0  0  0
 23 25  1  0  0  0
M  END
> <minimizedAffinity>
-9.00468

$$$$
1Z6E_IK8_A_711


 41 45  0  0  0  0  0  0  0  0999 V2000
    6.4105   28.5608   55.2170 N   0  0  0  0  0  0  0  0  0  0  0  0
    7.2210   27.7343   54.4895 N   0  0  0  0  0  0  0  0  0  0  0  0
    8.3934   27.6153   55.1307 C   0  0  0  0  0  0  0  0  0  0  0  0
    8.3662   28.3985   56.3180 C   0  0  0  0  0  0  0  0  0  0  0  0
    7.0809   28.9891   56.3447 C   0  0  0  0  0  0  0  0  0  0  0  0
    1.0149   29.1288   53.5755 O   0  0  0  0  0  0  0  0  0  0  0  0
    0.7508   27.8905   53.1198 N   0  0  0  0  0  0  0  0  0  0  0  0
    2.0666   25.7938   53.0221 N   0  0  0  0  0  0  0  0  0  0  0  0
    2.2699   29.2139   54.0136 C   0  0  0  0  0  0  0  0  0  0  0  0
    2.9009   27.9163   53.8258 C   0  0  0  0  0  0  0  0  0  0  0  0
    1.8717   27.1253   53.2629 C   0  0  0  0  0  0  0  0  0  0  0  0
    3.0565   30.3162   54.6478 C   0  0  0  0  0  0  0  0  0  0  0  0
    4.4596   30.1067   55.0769 C   0  0  0  0  0  0  0  0  0  0  0  0
    5.0870   28.7748   54.8534 C   0  0  0  0  0  0  0  0  0  0  0  0
    4.2933   27.6688   54.2295 C   0  0  0  0  0  0  0  0  0  0  0  0
    1.3431   25.2534   52.6299 H   0  0  0  0  0  0  0  0  0  0  0  0
    2.9305   25.3753   53.2407 H   0  0  0  0  0  0  0  0  0  0  0  0
    9.7754   26.8648   53.3969 F   0  0  0  0  0  0  0  0  0  0  0  0
    9.3494   25.5013   54.9513 F   0  0  0  0  0  0  0  0  0  0  0  0
   10.6869   27.1582   55.2600 F   0  0  0  0  0  0  0  0  0  0  0  0
    9.5782   26.7572   54.6637 C   0  0  0  0  0  0  0  0  0  0  0  0
    5.7114   29.3251   58.1434 O   0  0  0  0  0  0  0  0  0  0  0  0
    7.0507   31.0543   57.5483 N   0  0  0  0  0  0  0  0  0  0  0  0
    6.5705   29.7911   57.3905 C   0  0  0  0  0  0  0  0  0  0  0  0
    7.6598   31.4084   56.8607 H   0  0  0  0  0  0  0  0  0  0  0  0
    6.7337   31.8656   58.6141 C   0  0  0  0  0  0  0  0  0  0  0  0
    6.2303   33.2125   58.3953 C   0  0  0  0  0  0  0  0  0  0  0  0
    5.8765   34.1177   59.4522 C   0  0  0  0  0  0  0  0  0  0  0  0
    6.0352   33.6457   60.8159 C   0  0  0  0  0  0  0  0  0  0  0  0
    6.5219   32.2744   61.0618 C   0  0  0  0  0  0  0  0  0  0  0  0
    6.8855   31.3655   59.9751 C   0  0  0  0  0  0  0  0  0  0  0  0
    6.0640   33.6178   57.1395 F   0  0  0  0  0  0  0  0  0  0  0  0
    5.8471   34.5851   61.8567 N   0  0  0  0  0  0  0  0  0  0  0  0
    4.6491   35.0994   62.2650 C   0  0  0  0  0  0  0  0  0  0  0  0
    4.8901   35.9811   63.3253 C   0  0  0  0  0  0  0  0  0  0  0  0
    6.2410   36.0011   63.5549 N   0  0  0  0  0  0  0  0  0  0  0  0
    6.8120   35.1578   62.6495 C   0  0  0  0  0  0  0  0  0  0  0  0
    8.3320   34.9004   62.5783 C   0  0  0  0  0  0  0  0  0  0  0  0
    9.0354   35.7162   61.5390 N   0  0  0  0  0  0  0  0  0  0  0  0
    9.4849   35.0969   60.2701 C   0  0  0  0  0  0  0  0  0  0  0  0
    9.9268   36.7949   61.9791 C   0  0  0  0  0  0  0  0  0  0  0  0
 18 21  1  0  0  0
 19 21  1  0  0  0
 20 21  1  0  0  0
  6  7  1  0  0  0
  6  9  1  0  0  0
 22 24  2  0  0  0
  7 11  2  0  0  0
  8 11  1  0  0  0
  1  2  1  0  0  0
  1 14  1  0  0  0
  1  5  1  0  0  0
  2  3  2  0  0  0
 23 24  1  0  0  0
 23 26  1  0  0  0
  9 10  1  0  0  0
  9 12  2  0  0  0
 10 11  1  0  0  0
 10 15  2  0  0  0
 12 13  1  0  0  0
 13 14  2  0  0  0
 14 15  1  0  0  0
  3  4  1  0  0  0
  3 21  1  0  0  0
  4  5  2  0  0  0
  5 24  1  0  0  0
 26 27  2  0  0  0
 26 31  1  0  0  0
 27 28  1  0  0  0
 27 32  1  0  0  0
 28 29  2  0  0  0
 29 30  1  0  0  0
 29 33  1  0  0  0
 30 31  2  0  0  0
 33 34  1  0  0  0
 33 37  1  0  0  0
 34 35  2  0  0  0
 35 36  1  0  0  0
 36 37  2  0  0  0
 37 38  1  0  0  0
 38 39  1  0  0  0
 39 40  1  0  0  0
 39 41  1  0  0  0
  8 16  1  0  0  0
  8 17  1  0  0  0
 23 25  1  0  0  0
M  END
> <minimizedAffinity>
-8.75095

$$$$
1Z6E_IK8_A_711


 41 45  0  0  0  0  0  0  0  0999 V2000
    4.4061   28.7564   55.6073 N   0  0  0  0  0  0  0  0  0  0  0  0
    3.5265   28.0964   54.7949 N   0  0  0  0  0  0  0  0  0  0  0  0
    2.3765   28.7865   54.7627 C   0  0  0  0  0  0  0  0  0  0  0  0
    2.4909   29.9375   55.5910 C   0  0  0  0  0  0  0  0  0  0  0  0
    3.8042   29.8898   56.1151 C   0  0  0  0  0  0  0  0  0  0  0  0
    9.7443   27.0619   56.4803 O   0  0  0  0  0  0  0  0  0  0  0  0
    9.7443   26.8817   57.8138 N   0  0  0  0  0  0  0  0  0  0  0  0
    7.9992   27.0821   59.5607 N   0  0  0  0  0  0  0  0  0  0  0  0
    8.5513   27.4788   56.0593 C   0  0  0  0  0  0  0  0  0  0  0  0
    7.6800   27.5937   57.2190 C   0  0  0  0  0  0  0  0  0  0  0  0
    8.5047   27.1887   58.2950 C   0  0  0  0  0  0  0  0  0  0  0  0
    7.9969   27.7837   54.7045 C   0  0  0  0  0  0  0  0  0  0  0  0
    6.5862   28.2041   54.5313 C   0  0  0  0  0  0  0  0  0  0  0  0
    5.7228   28.3336   55.7377 C   0  0  0  0  0  0  0  0  0  0  0  0
    6.2768   28.0156   57.0922 C   0  0  0  0  0  0  0  0  0  0  0  0
    8.5827   26.7994   60.3015 H   0  0  0  0  0  0  0  0  0  0  0  0
    7.0518   27.2881   59.7313 H   0  0  0  0  0  0  0  0  0  0  0  0
    0.6269   29.4178   53.3416 F   0  0  0  0  0  0  0  0  0  0  0  0
    0.2283   27.8922   54.7452 F   0  0  0  0  0  0  0  0  0  0  0  0
    1.4575   27.5221   53.0185 F   0  0  0  0  0  0  0  0  0  0  0  0
    1.1324   28.4023   53.9486 C   0  0  0  0  0  0  0  0  0  0  0  0
    3.7473   31.3573   57.8663 O   0  0  0  0  0  0  0  0  0  0  0  0
    5.6726   31.2725   56.6730 N   0  0  0  0  0  0  0  0  0  0  0  0
    4.3958   30.8801   56.9315 C   0  0  0  0  0  0  0  0  0  0  0  0
    6.1061   30.9330   55.8569 H   0  0  0  0  0  0  0  0  0  0  0  0
    6.3931   32.1168   57.4870 C   0  0  0  0  0  0  0  0  0  0  0  0
    7.1061   31.5995   58.6443 C   0  0  0  0  0  0  0  0  0  0  0  0
    7.8794   32.4136   59.5393 C   0  0  0  0  0  0  0  0  0  0  0  0
    7.9450   33.8364   59.2588 C   0  0  0  0  0  0  0  0  0  0  0  0
    7.2488   34.3803   58.0766 C   0  0  0  0  0  0  0  0  0  0  0  0
    6.4585   33.5399   57.1775 C   0  0  0  0  0  0  0  0  0  0  0  0
    7.0587   30.2896   58.8695 F   0  0  0  0  0  0  0  0  0  0  0  0
    8.5644   34.6633   60.2250 N   0  0  0  0  0  0  0  0  0  0  0  0
    9.8771   35.0420   60.2324 C   0  0  0  0  0  0  0  0  0  0  0  0
   10.0879   35.8676   61.3431 C   0  0  0  0  0  0  0  0  0  0  0  0
    8.8969   35.9843   62.0107 N   0  0  0  0  0  0  0  0  0  0  0  0
    7.9824   35.2397   61.3280 C   0  0  0  0  0  0  0  0  0  0  0  0
    6.5070   35.1099   61.7621 C   0  0  0  0  0  0  0  0  0  0  0  0
    6.3051   34.2449   62.9668 N   0  0  0  0  0  0  0  0  0  0  0  0
    6.1965   32.7735   62.8298 C   0  0  0  0  0  0  0  0  0  0  0  0
    5.4940   34.7628   64.0740 C   0  0  0  0  0  0  0  0  0  0  0  0
 18 21  1  0  0  0
 19 21  1  0  0  0
 20 21  1  0  0  0
  6  7  1  0  0  0
  6  9  1  0  0  0
 22 24  2  0  0  0
  7 11  2  0  0  0
  8 11  1  0  0  0
  1  2  1  0  0  0
  1 14  1  0  0  0
  1  5  1  0  0  0
  2  3  2  0  0  0
 23 24  1  0  0  0
 23 26  1  0  0  0
  9 10  1  0  0  0
  9 12  2  0  0  0
 10 11  1  0  0  0
 10 15  2  0  0  0
 12 13  1  0  0  0
 13 14  2  0  0  0
 14 15  1  0  0  0
  3  4  1  0  0  0
  3 21  1  0  0  0
  4  5  2  0  0  0
  5 24  1  0  0  0
 26 27  2  0  0  0
 26 31  1  0  0  0
 27 28  1  0  0  0
 27 32  1  0  0  0
 28 29  2  0  0  0
 29 30  1  0  0  0
 29 33  1  0  0  0
 30 31  2  0  0  0
 33 34  1  0  0  0
 33 37  1  0  0  0
 34 35  2  0  0  0
 35 36  1  0  0  0
 36 37  2  0  0  0
 37 38  1  0  0  0
 38 39  1  0  0  0
 39 40  1  0  0  0
 39 41  1  0  0  0
  8 16  1  0  0  0
  8 17  1  0  0  0
 23 25  1  0  0  0
M  END
> <minimizedAffinity>
-8.74055

$$$$
1Z6E_IK8_A_711


 41 45  0  0  0  0  0  0  0  0999 V2000
    7.8812   28.9515   57.1636 N   0  0  0  0  0  0  0  0  0  0  0  0
    8.3375   28.9731   55.8750 N   0  0  0  0  0  0  0  0  0  0  0  0
    8.7620   27.7418   55.5529 C   0  0  0  0  0  0  0  0  0  0  0  0
    8.5936   26.8753   56.6686 C   0  0  0  0  0  0  0  0  0  0  0  0
    8.0248   27.6809   57.6830 C   0  0  0  0  0  0  0  0  0  0  0  0
    5.6839   33.5518   59.6412 O   0  0  0  0  0  0  0  0  0  0  0  0
    6.7861   34.1115   60.1728 N   0  0  0  0  0  0  0  0  0  0  0  0
    9.1913   33.5204   60.1220 N   0  0  0  0  0  0  0  0  0  0  0  0
    5.9875   32.4231   59.0025 C   0  0  0  0  0  0  0  0  0  0  0  0
    7.4213   32.2080   59.1263 C   0  0  0  0  0  0  0  0  0  0  0  0
    7.8612   33.3257   59.8739 C   0  0  0  0  0  0  0  0  0  0  0  0
    5.1746   31.4466   58.2141 C   0  0  0  0  0  0  0  0  0  0  0  0
    5.8046   30.2699   57.5697 C   0  0  0  0  0  0  0  0  0  0  0  0
    7.2705   30.0630   57.7304 C   0  0  0  0  0  0  0  0  0  0  0  0
    8.0846   31.0491   58.5098 C   0  0  0  0  0  0  0  0  0  0  0  0
    9.4856   34.3019   60.6434 H   0  0  0  0  0  0  0  0  0  0  0  0
    9.8550   32.8791   59.7793 H   0  0  0  0  0  0  0  0  0  0  0  0
   10.2389   28.1417   53.7816 F   0  0  0  0  0  0  0  0  0  0  0  0
    8.3657   27.2933   53.3042 F   0  0  0  0  0  0  0  0  0  0  0  0
    9.8955   26.1361   54.2792 F   0  0  0  0  0  0  0  0  0  0  0  0
    9.3301   27.3268   54.1880 C   0  0  0  0  0  0  0  0  0  0  0  0
    8.4501   27.0157   59.8278 O   0  0  0  0  0  0  0  0  0  0  0  0
    6.2776   27.0357   59.1813 N   0  0  0  0  0  0  0  0  0  0  0  0
    7.6055   27.2232   58.9526 C   0  0  0  0  0  0  0  0  0  0  0  0
    5.6592   27.1198   58.4199 H   0  0  0  0  0  0  0  0  0  0  0  0
    5.7490   26.7352   60.4163 C   0  0  0  0  0  0  0  0  0  0  0  0
    5.2887   27.7932   61.3018 C   0  0  0  0  0  0  0  0  0  0  0  0
    4.7250   27.5618   62.6020 C   0  0  0  0  0  0  0  0  0  0  0  0
    4.6134   26.1838   63.0451 C   0  0  0  0  0  0  0  0  0  0  0  0
    5.0522   25.0925   62.1538 C   0  0  0  0  0  0  0  0  0  0  0  0
    5.6314   25.3436   60.8344 C   0  0  0  0  0  0  0  0  0  0  0  0
    5.3719   29.0476   60.8678 F   0  0  0  0  0  0  0  0  0  0  0  0
    4.2151   25.9600   64.3839 N   0  0  0  0  0  0  0  0  0  0  0  0
    2.9279   25.9039   64.8382 C   0  0  0  0  0  0  0  0  0  0  0  0
    2.9604   25.6516   66.2148 C   0  0  0  0  0  0  0  0  0  0  0  0
    4.2743   25.5587   66.5929 N   0  0  0  0  0  0  0  0  0  0  0  0
    5.0264   25.7587   65.4742 C   0  0  0  0  0  0  0  0  0  0  0  0
    6.5695   25.7330   65.4795 C   0  0  0  0  0  0  0  0  0  0  0  0
    7.1953   27.0600   65.7757 N   0  0  0  0  0  0  0  0  0  0  0  0
    6.3725   28.2919   65.8093 C   0  0  0  0  0  0  0  0  0  0  0  0
    8.5594   27.3139   65.2995 C   0  0  0  0  0  0  0  0  0  0  0  0
 18 21  1  0  0  0
 19 21  1  0  0  0
 20 21  1  0  0  0
  6  7  1  0  0  0
  6  9  1  0  0  0
 22 24  2  0  0  0
  7 11  2  0  0  0
  8 11  1  0  0  0
  1  2  1  0  0  0
  1 14  1  0  0  0
  1  5  1  0  0  0
  2  3  2  0  0  0
 23 24  1  0  0  0
 23 26  1  0  0  0
  9 10  1  0  0  0
  9 12  2  0  0  0
 10 11  1  0  0  0
 10 15  2  0  0  0
 12 13  1  0  0  0
 13 14  2  0  0  0
 14 15  1  0  0  0
  3  4  1  0  0  0
  3 21  1  0  0  0
  4  5  2  0  0  0
  5 24  1  0  0  0
 26 27  2  0  0  0
 26 31  1  0  0  0
 27 28  1  0  0  0
 27 32  1  0  0  0
 28 29  2  0  0  0
 29 30  1  0  0  0
 29 33  1  0  0  0
 30 31  2  0  0  0
 33 34  1  0  0  0
 33 37  1  0  0  0
 34 35  2  0  0  0
 35 36  1  0  0  0
 36 37  2  0  0  0
 37 38  1  0  0  0
 38 39  1  0  0  0
 39 40  1  0  0  0
 39 41  1  0  0  0
  8 16  1  0  0  0
  8 17  1  0  0  0
 23 25  1  0  0  0
M  END
> <minimizedAffinity>
-8.62874

$$$$
1Z6E_IK8_A_711


 41 45  0  0  0  0  0  0  0  0999 V2000
    6.6402   28.1550   54.8186 N   0  0  0  0  0  0  0  0  0  0  0  0
    7.5775   27.4543   54.1117 N   0  0  0  0  0  0  0  0  0  0  0  0
    8.7174   27.4349   54.8188 C   0  0  0  0  0  0  0  0  0  0  0  0
    8.5359   28.1572   56.0308 C   0  0  0  0  0  0  0  0  0  0  0  0
    7.1936   28.6033   56.0008 C   0  0  0  0  0  0  0  0  0  0  0  0
    1.2481   28.8073   53.1972 O   0  0  0  0  0  0  0  0  0  0  0  0
    1.0326   30.0945   53.5252 N   0  0  0  0  0  0  0  0  0  0  0  0
    2.4678   31.8727   54.4820 N   0  0  0  0  0  0  0  0  0  0  0  0
    2.4895   28.4406   53.5112 C   0  0  0  0  0  0  0  0  0  0  0  0
    3.1591   29.5857   54.1093 C   0  0  0  0  0  0  0  0  0  0  0  0
    2.1742   30.6009   54.0754 C   0  0  0  0  0  0  0  0  0  0  0  0
    3.2542   27.1685   53.3298 C   0  0  0  0  0  0  0  0  0  0  0  0
    4.6701   27.0591   53.7543 C   0  0  0  0  0  0  0  0  0  0  0  0
    5.3241   28.2402   54.3827 C   0  0  0  0  0  0  0  0  0  0  0  0
    4.5600   29.5169   54.5518 C   0  0  0  0  0  0  0  0  0  0  0  0
    1.7742   32.5708   54.4540 H   0  0  0  0  0  0  0  0  0  0  0  0
    3.3727   32.0903   54.8028 H   0  0  0  0  0  0  0  0  0  0  0  0
   10.2628   26.9037   53.1429 F   0  0  0  0  0  0  0  0  0  0  0  0
    9.9162   25.4491   54.6331 F   0  0  0  0  0  0  0  0  0  0  0  0
   11.0384   27.2345   55.0604 F   0  0  0  0  0  0  0  0  0  0  0  0
   10.0147   26.7317   54.3935 C   0  0  0  0  0  0  0  0  0  0  0  0
    5.8278   28.6708   57.8321 O   0  0  0  0  0  0  0  0  0  0  0  0
    6.7206   30.6417   57.1564 N   0  0  0  0  0  0  0  0  0  0  0  0
    6.5388   29.2982   57.0427 C   0  0  0  0  0  0  0  0  0  0  0  0
    7.2156   31.1050   56.4425 H   0  0  0  0  0  0  0  0  0  0  0  0
    6.2523   31.3904   58.2122 C   0  0  0  0  0  0  0  0  0  0  0  0
    7.0705   31.5910   59.3979 C   0  0  0  0  0  0  0  0  0  0  0  0
    6.6550   32.3584   60.5382 C   0  0  0  0  0  0  0  0  0  0  0  0
    5.3371   32.9653   60.4896 C   0  0  0  0  0  0  0  0  0  0  0  0
    4.4988   32.7949   59.2871 C   0  0  0  0  0  0  0  0  0  0  0  0
    4.9322   32.0041   58.1356 C   0  0  0  0  0  0  0  0  0  0  0  0
    8.2862   31.0519   59.4131 F   0  0  0  0  0  0  0  0  0  0  0  0
    4.8588   33.5800   61.6705 N   0  0  0  0  0  0  0  0  0  0  0  0
    5.0564   34.8826   62.0323 C   0  0  0  0  0  0  0  0  0  0  0  0
    4.4133   35.0989   63.2567 C   0  0  0  0  0  0  0  0  0  0  0  0
    3.8279   33.9195   63.6367 N   0  0  0  0  0  0  0  0  0  0  0  0
    4.1150   33.0023   62.6707 C   0  0  0  0  0  0  0  0  0  0  0  0
    3.6321   31.5376   62.7280 C   0  0  0  0  0  0  0  0  0  0  0  0
    4.6812   30.5725   63.1846 N   0  0  0  0  0  0  0  0  0  0  0  0
    5.7910   31.0214   64.0578 C   0  0  0  0  0  0  0  0  0  0  0  0
    5.0888   29.4972   62.2738 C   0  0  0  0  0  0  0  0  0  0  0  0
 18 21  1  0  0  0
 19 21  1  0  0  0
 20 21  1  0  0  0
  6  7  1  0  0  0
  6  9  1  0  0  0
 22 24  2  0  0  0
  7 11  2  0  0  0
  8 11  1  0  0  0
  1  2  1  0  0  0
  1 14  1  0  0  0
  1  5  1  0  0  0
  2  3  2  0  0  0
 23 24  1  0  0  0
 23 26  1  0  0  0
  9 10  1  0  0  0
  9 12  2  0  0  0
 10 11  1  0  0  0
 10 15  2  0  0  0
 12 13  1  0  0  0
 13 14  2  0  0  0
 14 15  1  0  0  0
  3  4  1  0  0  0
  3 21  1  0  0  0
  4  5  2  0  0  0
  5 24  1  0  0  0
 26 27  2  0  0  0
 26 31  1  0  0  0
 27 28  1  0  0  0
 27 32  1  0  0  0
 28 29  2  0  0  0
 29 30  1  0  0  0
 29 33  1  0  0  0
 30 31  2  0  0  0
 33 34  1  0  0  0
 33 37  1  0  0  0
 34 35  2  0  0  0
 35 36  1  0  0  0
 36 37  2  0  0  0
 37 38  1  0  0  0
 38 39  1  0  0  0
 39 40  1  0  0  0
 39 41  1  0  0  0
  8 16  1  0  0  0
  8 17  1  0  0  0
 23 25  1  0  0  0
M  END
> <minimizedAffinity>
-8.59486

$$$$
1Z6E_IK8_A_711


 41 45  0  0  0  0  0  0  0  0999 V2000
    7.5657   30.3798   58.9789 N   0  0  0  0  0  0  0  0  0  0  0  0
    8.3285   31.5065   59.1122 N   0  0  0  0  0  0  0  0  0  0  0  0
    7.7740   32.2875   60.0515 C   0  0  0  0  0  0  0  0  0  0  0  0
    6.5963   31.6651   60.5509 C   0  0  0  0  0  0  0  0  0  0  0  0
    6.4929   30.4435   59.8448 C   0  0  0  0  0  0  0  0  0  0  0  0
    8.9974   26.2435   55.3773 O   0  0  0  0  0  0  0  0  0  0  0  0
    8.5083   26.7264   54.2204 N   0  0  0  0  0  0  0  0  0  0  0  0
    7.3639   28.8345   53.6017 N   0  0  0  0  0  0  0  0  0  0  0  0
    8.7535   27.0841   56.3813 C   0  0  0  0  0  0  0  0  0  0  0  0
    8.0299   28.2271   55.8454 C   0  0  0  0  0  0  0  0  0  0  0  0
    7.9199   27.9330   54.4659 C   0  0  0  0  0  0  0  0  0  0  0  0
    9.1050   27.0668   57.8347 C   0  0  0  0  0  0  0  0  0  0  0  0
    8.7227   28.1857   58.7283 C   0  0  0  0  0  0  0  0  0  0  0  0
    7.9642   29.3330   58.1573 C   0  0  0  0  0  0  0  0  0  0  0  0
    7.6243   29.3540   56.6991 C   0  0  0  0  0  0  0  0  0  0  0  0
    7.2926   28.6188   52.6437 H   0  0  0  0  0  0  0  0  0  0  0  0
    7.0346   29.6996   53.9372 H   0  0  0  0  0  0  0  0  0  0  0  0
    7.7590   34.6249   59.9275 F   0  0  0  0  0  0  0  0  0  0  0  0
    9.6160   33.6891   60.2913 F   0  0  0  0  0  0  0  0  0  0  0  0
    8.1029   33.7902   61.8177 F   0  0  0  0  0  0  0  0  0  0  0  0
    8.3295   33.6386   60.5249 C   0  0  0  0  0  0  0  0  0  0  0  0
    4.4628   29.4814   59.4247 O   0  0  0  0  0  0  0  0  0  0  0  0
    5.7636   28.4717   60.9825 N   0  0  0  0  0  0  0  0  0  0  0  0
    5.5144   29.4489   60.0692 C   0  0  0  0  0  0  0  0  0  0  0  0
    6.5725   28.5511   61.5379 H   0  0  0  0  0  0  0  0  0  0  0  0
    4.9496   27.3784   61.1744 C   0  0  0  0  0  0  0  0  0  0  0  0
    5.2470   26.1111   60.5257 C   0  0  0  0  0  0  0  0  0  0  0  0
    4.4493   24.9266   60.6765 C   0  0  0  0  0  0  0  0  0  0  0  0
    3.2795   25.0145   61.5317 C   0  0  0  0  0  0  0  0  0  0  0  0
    2.9713   26.2837   62.2189 C   0  0  0  0  0  0  0  0  0  0  0  0
    3.7890   27.4846   62.0501 C   0  0  0  0  0  0  0  0  0  0  0  0
    6.3385   26.0408   59.7690 F   0  0  0  0  0  0  0  0  0  0  0  0
    2.4024   23.9049   61.5521 N   0  0  0  0  0  0  0  0  0  0  0  0
    2.4895   22.8300   62.3909 C   0  0  0  0  0  0  0  0  0  0  0  0
    1.4297   21.9624   62.1017 C   0  0  0  0  0  0  0  0  0  0  0  0
    0.7020   22.5155   61.0807 N   0  0  0  0  0  0  0  0  0  0  0  0
    1.3091   23.6894   60.7485 C   0  0  0  0  0  0  0  0  0  0  0  0
    0.7910   24.6207   59.6323 C   0  0  0  0  0  0  0  0  0  0  0  0
    1.5950   24.5585   58.3712 N   0  0  0  0  0  0  0  0  0  0  0  0
    2.3462   23.3320   58.0148 C   0  0  0  0  0  0  0  0  0  0  0  0
    2.2655   25.7775   57.9063 C   0  0  0  0  0  0  0  0  0  0  0  0
 18 21  1  0  0  0
 19 21  1  0  0  0
 20 21  1  0  0  0
  6  7  1  0  0  0
  6  9  1  0  0  0
 22 24  2  0  0  0
  7 11  2  0  0  0
  8 11  1  0  0  0
  1  2  1  0  0  0
  1 14  1  0  0  0
  1  5  1  0  0  0
  2  3  2  0  0  0
 23 24  1  0  0  0
 23 26  1  0  0  0
  9 10  1  0  0  0
  9 12  2  0  0  0
 10 11  1  0  0  0
 10 15  2  0  0  0
 12 13  1  0  0  0
 13 14  2  0  0  0
 14 15  1  0  0  0
  3  4  1  0  0  0
  3 21  1  0  0  0
  4  5  2  0  0  0
  5 24  1  0  0  0
 26 27  2  0  0  0
 26 31  1  0  0  0
 27 28  1  0  0  0
 27 32  1  0  0  0
 28 29  2  0  0  0
 29 30  1  0  0  0
 29 33  1  0  0  0
 30 31  2  0  0  0
 33 34  1  0  0  0
 33 37  1  0  0  0
 34 35  2  0  0  0
 35 36  1  0  0  0
 36 37  2  0  0  0
 37 38  1  0  0  0
 38 39  1  0  0  0
 39 40  1  0  0  0
 39 41  1  0  0  0
  8 16  1  0  0  0
  8 17  1  0  0  0
 23 25  1  0  0  0
M  END
> <minimizedAffinity>
-8.49217

$$$$
1Z6E_IK8_A_711


 41 45  0  0  0  0  0  0  0  0999 V2000
    6.4024   33.8369   59.5769 N   0  0  0  0  0  0  0  0  0  0  0  0
    7.3289   34.7045   60.0849 N   0  0  0  0  0  0  0  0  0  0  0  0
    8.5050   34.0657   60.1768 C   0  0  0  0  0  0  0  0  0  0  0  0
    8.3528   32.7249   59.7265 C   0  0  0  0  0  0  0  0  0  0  0  0
    6.9947   32.6117   59.3468 C   0  0  0  0  0  0  0  0  0  0  0  0
    1.2557   35.5776   57.9610 O   0  0  0  0  0  0  0  0  0  0  0  0
    1.3600   35.4876   56.6224 N   0  0  0  0  0  0  0  0  0  0  0  0
    3.1567   34.7170   55.1009 N   0  0  0  0  0  0  0  0  0  0  0  0
    2.3926   35.2102   58.5498 C   0  0  0  0  0  0  0  0  0  0  0  0
    3.3425   34.8497   57.5082 C   0  0  0  0  0  0  0  0  0  0  0  0
    2.6120   35.0420   56.3119 C   0  0  0  0  0  0  0  0  0  0  0  0
    2.8045   35.0805   59.9814 C   0  0  0  0  0  0  0  0  0  0  0  0
    4.1580   34.6006   60.3482 C   0  0  0  0  0  0  0  0  0  0  0  0
    5.1171   34.2587   59.2615 C   0  0  0  0  0  0  0  0  0  0  0  0
    4.6980   34.3774   57.8287 C   0  0  0  0  0  0  0  0  0  0  0  0
    2.6388   34.8553   54.2752 H   0  0  0  0  0  0  0  0  0  0  0  0
    4.0669   34.3447   55.0546 H   0  0  0  0  0  0  0  0  0  0  0  0
    9.9784   35.8837   60.2339 F   0  0  0  0  0  0  0  0  0  0  0  0
   10.8264   33.9513   60.2900 F   0  0  0  0  0  0  0  0  0  0  0  0
    9.8015   34.7666   61.9971 F   0  0  0  0  0  0  0  0  0  0  0  0
    9.8166   34.6872   60.6783 C   0  0  0  0  0  0  0  0  0  0  0  0
    5.9509   30.5832   59.4850 O   0  0  0  0  0  0  0  0  0  0  0  0
    6.3319   31.3907   57.4015 N   0  0  0  0  0  0  0  0  0  0  0  0
    6.4019   31.4720   58.7578 C   0  0  0  0  0  0  0  0  0  0  0  0
    6.7956   32.0783   56.8710 H   0  0  0  0  0  0  0  0  0  0  0  0
    5.6501   30.4023   56.7286 C   0  0  0  0  0  0  0  0  0  0  0  0
    6.2896   29.1291   56.4364 C   0  0  0  0  0  0  0  0  0  0  0  0
    5.6464   28.0496   55.7416 C   0  0  0  0  0  0  0  0  0  0  0  0
    4.2751   28.2558   55.3121 C   0  0  0  0  0  0  0  0  0  0  0  0
    3.5980   29.5309   55.6183 C   0  0  0  0  0  0  0  0  0  0  0  0
    4.2683   30.6248   56.3207 C   0  0  0  0  0  0  0  0  0  0  0  0
    7.5362   28.9471   56.8626 F   0  0  0  0  0  0  0  0  0  0  0  0
    3.6947   27.2646   54.4864 N   0  0  0  0  0  0  0  0  0  0  0  0
    3.8613   27.1491   53.1353 C   0  0  0  0  0  0  0  0  0  0  0  0
    3.1353   26.0347   52.6987 C   0  0  0  0  0  0  0  0  0  0  0  0
    2.5249   25.4776   53.7919 N   0  0  0  0  0  0  0  0  0  0  0  0
    2.8635   26.2400   54.8694 C   0  0  0  0  0  0  0  0  0  0  0  0
    2.3727   25.9412   56.3018 C   0  0  0  0  0  0  0  0  0  0  0  0
    1.2698   26.8419   56.7632 N   0  0  0  0  0  0  0  0  0  0  0  0
    0.3464   27.4657   55.7867 C   0  0  0  0  0  0  0  0  0  0  0  0
    1.5050   27.6964   57.9322 C   0  0  0  0  0  0  0  0  0  0  0  0
 18 21  1  0  0  0
 19 21  1  0  0  0
 20 21  1  0  0  0
  6  7  1  0  0  0
  6  9  1  0  0  0
 22 24  2  0  0  0
  7 11  2  0  0  0
  8 11  1  0  0  0
  1  2  1  0  0  0
  1 14  1  0  0  0
  1  5  1  0  0  0
  2  3  2  0  0  0
 23 24  1  0  0  0
 23 26  1  0  0  0
  9 10  1  0  0  0
  9 12  2  0  0  0
 10 11  1  0  0  0
 10 15  2  0  0  0
 12 13  1  0  0  0
 13 14  2  0  0  0
 14 15  1  0  0  0
  3  4  1  0  0  0
  3 21  1  0  0  0
  4  5  2  0  0  0
  5 24  1  0  0  0
 26 27  2  0  0  0
 26 31  1  0  0  0
 27 28  1  0  0  0
 27 32  1  0  0  0
 28 29  2  0  0  0
 29 30  1  0  0  0
 29 33  1  0  0  0
 30 31  2  0  0  0
 33 34  1  0  0  0
 33 37  1  0  0  0
 34 35  2  0  0  0
 35 36  1  0  0  0
 36 37  2  0  0  0
 37 38  1  0  0  0
 38 39  1  0  0  0
 39 40  1  0  0  0
 39 41  1  0  0  0
  8 16  1  0  0  0
  8 17  1  0  0  0
 23 25  1  0  0  0
M  END
> <minimizedAffinity>
-8.32248

$$$$
1Z6E_IK8_A_711


 41 45  0  0  0  0  0  0  0  0999 V2000
    7.5725   28.0261   55.2532 N   0  0  0  0  0  0  0  0  0  0  0  0
    8.3431   27.7725   54.1527 N   0  0  0  0  0  0  0  0  0  0  0  0
    9.5822   27.4620   54.5628 C   0  0  0  0  0  0  0  0  0  0  0  0
    9.6408   27.5230   55.9829 C   0  0  0  0  0  0  0  0  0  0  0  0
    8.3362   27.8846   56.3940 C   0  0  0  0  0  0  0  0  0  0  0  0
    2.0037   28.7794   54.5110 O   0  0  0  0  0  0  0  0  0  0  0  0
    1.7367   27.8418   53.5835 N   0  0  0  0  0  0  0  0  0  0  0  0
    3.1128   26.1155   52.4596 N   0  0  0  0  0  0  0  0  0  0  0  0
    3.2971   28.7748   54.8294 C   0  0  0  0  0  0  0  0  0  0  0  0
    3.9519   27.7456   54.0363 C   0  0  0  0  0  0  0  0  0  0  0  0
    2.8957   27.1899   53.2766 C   0  0  0  0  0  0  0  0  0  0  0  0
    4.1089   29.5582   55.8108 C   0  0  0  0  0  0  0  0  0  0  0  0
    5.5598   29.3059   55.9787 C   0  0  0  0  0  0  0  0  0  0  0  0
    6.2082   28.2610   55.1389 C   0  0  0  0  0  0  0  0  0  0  0  0
    5.3907   27.4692   54.1657 C   0  0  0  0  0  0  0  0  0  0  0  0
    2.3700   25.7373   51.9357 H   0  0  0  0  0  0  0  0  0  0  0  0
    4.0121   25.7199   52.3952 H   0  0  0  0  0  0  0  0  0  0  0  0
   11.0720   25.8450   53.7598 F   0  0  0  0  0  0  0  0  0  0  0  0
   11.7959   27.8197   53.9415 F   0  0  0  0  0  0  0  0  0  0  0  0
   10.4157   27.2796   52.3817 F   0  0  0  0  0  0  0  0  0  0  0  0
   10.7539   27.0862   53.6442 C   0  0  0  0  0  0  0  0  0  0  0  0
    8.1288   29.0190   58.3673 O   0  0  0  0  0  0  0  0  0  0  0  0
    7.2230   26.9426   58.2882 N   0  0  0  0  0  0  0  0  0  0  0  0
    7.8990   27.9852   57.7342 C   0  0  0  0  0  0  0  0  0  0  0  0
    7.1557   26.1067   57.7723 H   0  0  0  0  0  0  0  0  0  0  0  0
    6.6278   26.9893   59.5284 C   0  0  0  0  0  0  0  0  0  0  0  0
    6.9012   25.9609   60.5199 C   0  0  0  0  0  0  0  0  0  0  0  0
    6.3222   25.9399   61.8338 C   0  0  0  0  0  0  0  0  0  0  0  0
    5.4120   27.0168   62.1790 C   0  0  0  0  0  0  0  0  0  0  0  0
    5.1380   28.0841   61.1972 C   0  0  0  0  0  0  0  0  0  0  0  0
    5.7295   28.0886   59.8595 C   0  0  0  0  0  0  0  0  0  0  0  0
    7.7597   24.9979   60.1967 F   0  0  0  0  0  0  0  0  0  0  0  0
    4.7139   26.9123   63.4049 N   0  0  0  0  0  0  0  0  0  0  0  0
    3.5287   26.2611   63.5990 C   0  0  0  0  0  0  0  0  0  0  0  0
    3.1814   26.3781   64.9501 C   0  0  0  0  0  0  0  0  0  0  0  0
    4.1608   27.1067   65.5729 N   0  0  0  0  0  0  0  0  0  0  0  0
    5.0799   27.4344   64.6218 C   0  0  0  0  0  0  0  0  0  0  0  0
    6.3480   28.2608   64.9235 C   0  0  0  0  0  0  0  0  0  0  0  0
    7.4255   27.4845   65.6140 N   0  0  0  0  0  0  0  0  0  0  0  0
    8.2337   26.4897   64.8704 C   0  0  0  0  0  0  0  0  0  0  0  0
    7.2269   27.1046   67.0169 C   0  0  0  0  0  0  0  0  0  0  0  0
 18 21  1  0  0  0
 19 21  1  0  0  0
 20 21  1  0  0  0
  6  7  1  0  0  0
  6  9  1  0  0  0
 22 24  2  0  0  0
  7 11  2  0  0  0
  8 11  1  0  0  0
  1  2  1  0  0  0
  1 14  1  0  0  0
  1  5  1  0  0  0
  2  3  2  0  0  0
 23 24  1  0  0  0
 23 26  1  0  0  0
  9 10  1  0  0  0
  9 12  2  0  0  0
 10 11  1  0  0  0
 10 15  2  0  0  0
 12 13  1  0  0  0
 13 14  2  0  0  0
 14 15  1  0  0  0
  3  4  1  0  0  0
  3 21  1  0  0  0
  4  5  2  0  0  0
  5 24  1  0  0  0
 26 27  2  0  0  0
 26 31  1  0  0  0
 27 28  1  0  0  0
 27 32  1  0  0  0
 28 29  2  0  0  0
 29 30  1  0  0  0
 29 33  1  0  0  0
 30 31  2  0  0  0
 33 34  1  0  0  0
 33 37  1  0  0  0
 34 35  2  0  0  0
 35 36  1  0  0  0
 36 37  2  0  0  0
 37 38  1  0  0  0
 38 39  1  0  0  0
 39 40  1  0  0  0
 39 41  1  0  0  0
  8 16  1  0  0  0
  8 17  1  0  0  0
 23 25  1  0  0  0
M  END
> <minimizedAffinity>
-8.28153

$$$$
