4DJW_0KP_A_501


 28 31  0  0  0  0  0  0  0  0999 V2000
   21.7276   13.5018   22.6234 O   0  0  0  0  0  0  0  0  0  0  0  0
   22.0245   12.3207   22.6517 C   0  0  0  0  0  0  0  0  0  0  0  0
   22.0058   11.2920   21.4421 C   0  0  0  0  0  0  0  0  0  0  0  0
   22.3804   10.0199   22.1329 N   0  0  0  0  0  0  0  0  0  0  0  0
   22.5938   10.2563   23.4231 C   0  0  0  0  0  0  0  0  0  0  0  0
   22.4139   11.6262   23.7731 N   0  0  0  0  0  0  0  0  0  0  0  0
   22.9404    9.3256   24.3197 N   0  0  0  0  0  0  0  0  0  0  0  0
   22.5695   12.2429   25.0980 C   0  0  0  0  0  0  0  0  0  0  0  0
   22.4573    9.1402   21.6977 H   0  0  0  0  0  0  0  0  0  0  0  0
   23.0550    8.3892   24.0380 H   0  0  0  0  0  0  0  0  0  0  0  0
   20.5741   11.1515   20.8887 C   0  0  0  0  0  0  0  0  0  0  0  0
   20.2733   10.1948   19.9248 C   0  0  0  0  0  0  0  0  0  0  0  0
   18.9777   10.0568   19.4362 C   0  0  0  0  0  0  0  0  0  0  0  0
   17.9682   10.8712   19.8985 C   0  0  0  0  0  0  0  0  0  0  0  0
   18.2502   11.8310   20.8430 C   0  0  0  0  0  0  0  0  0  0  0  0
   19.5439   11.9747   21.3335 C   0  0  0  0  0  0  0  0  0  0  0  0
   23.1165   11.6432   20.4289 C   0  0  0  0  0  0  0  0  0  0  0  0
   22.8043   12.2953   19.2437 C   0  0  0  0  0  0  0  0  0  0  0  0
   23.7990   12.6627   18.3521 C   0  0  0  0  0  0  0  0  0  0  0  0
   25.1191   12.3798   18.6308 C   0  0  0  0  0  0  0  0  0  0  0  0
   25.4751   11.7287   19.8083 C   0  0  0  0  0  0  0  0  0  0  0  0
   24.4589   11.3522   20.7033 C   0  0  0  0  0  0  0  0  0  0  0  0
   29.5893   11.1309   20.6410 C   0  0  0  0  0  0  0  0  0  0  0  0
   29.1039   12.3749   20.6789 N   0  0  0  0  0  0  0  0  0  0  0  0
   27.7921   12.5313   20.4495 C   0  0  0  0  0  0  0  0  0  0  0  0
   26.9175   11.4916   20.1517 C   0  0  0  0  0  0  0  0  0  0  0  0
   27.4648   10.2116   20.1215 C   0  0  0  0  0  0  0  0  0  0  0  0
   28.8132   10.0245   20.3719 C   0  0  0  0  0  0  0  0  0  0  0  0
 19 20  2  0  0  0
 19 18  1  0  0  0
 20 21  1  0  0  0
 18 17  2  0  0  0
 21 26  1  0  0  0
 21 22  2  0  0  0
 14 15  2  0  0  0
 14 13  1  0  0  0
 27 26  2  0  0  0
 27 28  1  0  0  0
 15 16  1  0  0  0
 13 12  2  0  0  0
 26 25  1  0  0  0
 17 22  1  0  0  0
 17  3  1  0  0  0
 28 23  2  0  0  0
 16 11  2  0  0  0
 12 11  1  0  0  0
 11  3  1  0  0  0
 25 24  2  0  0  0
 23 24  1  0  0  0
  3  4  1  0  0  0
  3  2  1  0  0  0
  1  2  2  0  0  0
  4  5  1  0  0  0
  2  6  1  0  0  0
  5  6  1  0  0  0
  5  7  2  0  0  0
  6  8  1  0  0  0
  4  9  1  0  0  0
  7 10  1  0  0  0
M  END
> <minimizedAffinity>
-9.67995

$$$$
4DJW_0KP_A_501


 28 31  0  0  0  0  0  0  0  0999 V2000
   22.2634   13.5959   22.4492 O   0  0  0  0  0  0  0  0  0  0  0  0
   22.3635   12.3835   22.5108 C   0  0  0  0  0  0  0  0  0  0  0  0
   22.0463   11.3298   21.3660 C   0  0  0  0  0  0  0  0  0  0  0  0
   22.2787   10.0384   22.0830 N   0  0  0  0  0  0  0  0  0  0  0  0
   22.6653   10.2817   23.3309 C   0  0  0  0  0  0  0  0  0  0  0  0
   22.7515   11.6740   23.6234 N   0  0  0  0  0  0  0  0  0  0  0  0
   22.9484    9.3388   24.2370 N   0  0  0  0  0  0  0  0  0  0  0  0
   23.1477   12.3029   24.8912 C   0  0  0  0  0  0  0  0  0  0  0  0
   22.1628    9.1432   21.6899 H   0  0  0  0  0  0  0  0  0  0  0  0
   22.8767    8.3869   23.9958 H   0  0  0  0  0  0  0  0  0  0  0  0
   20.5599   11.4134   20.9665 C   0  0  0  0  0  0  0  0  0  0  0  0
   20.1506   11.1016   19.6742 C   0  0  0  0  0  0  0  0  0  0  0  0
   18.8070   11.1616   19.3172 C   0  0  0  0  0  0  0  0  0  0  0  0
   17.8566   11.5358   20.2406 C   0  0  0  0  0  0  0  0  0  0  0  0
   18.2450   11.8594   21.5202 C   0  0  0  0  0  0  0  0  0  0  0  0
   19.5869   11.8031   21.8821 C   0  0  0  0  0  0  0  0  0  0  0  0
   23.0844   11.4514   20.2296 C   0  0  0  0  0  0  0  0  0  0  0  0
   23.3785   10.3567   19.4280 C   0  0  0  0  0  0  0  0  0  0  0  0
   24.2684   10.4685   18.3722 C   0  0  0  0  0  0  0  0  0  0  0  0
   24.8798   11.6749   18.1054 C   0  0  0  0  0  0  0  0  0  0  0  0
   24.6118   12.7971   18.8839 C   0  0  0  0  0  0  0  0  0  0  0  0
   23.7140   12.6727   19.9580 C   0  0  0  0  0  0  0  0  0  0  0  0
   26.4438   16.5199   18.0107 C   0  0  0  0  0  0  0  0  0  0  0  0
   26.9275   15.4180   17.4305 N   0  0  0  0  0  0  0  0  0  0  0  0
   26.3055   14.2597   17.6940 C   0  0  0  0  0  0  0  0  0  0  0  0
   25.2140   14.1306   18.5462 C   0  0  0  0  0  0  0  0  0  0  0  0
   24.7424   15.3033   19.1304 C   0  0  0  0  0  0  0  0  0  0  0  0
   25.3583   16.5129   18.8595 C   0  0  0  0  0  0  0  0  0  0  0  0
 19 20  2  0  0  0
 19 18  1  0  0  0
 20 21  1  0  0  0
 18 17  2  0  0  0
 21 26  1  0  0  0
 21 22  2  0  0  0
 14 15  2  0  0  0
 14 13  1  0  0  0
 27 26  2  0  0  0
 27 28  1  0  0  0
 15 16  1  0  0  0
 13 12  2  0  0  0
 26 25  1  0  0  0
 17 22  1  0  0  0
 17  3  1  0  0  0
 28 23  2  0  0  0
 16 11  2  0  0  0
 12 11  1  0  0  0
 11  3  1  0  0  0
 25 24  2  0  0  0
 23 24  1  0  0  0
  3  4  1  0  0  0
  3  2  1  0  0  0
  1  2  2  0  0  0
  4  5  1  0  0  0
  2  6  1  0  0  0
  5  6  1  0  0  0
  5  7  2  0  0  0
  6  8  1  0  0  0
  4  9  1  0  0  0
  7 10  1  0  0  0
M  END
> <minimizedAffinity>
-9.46586

$$$$
4DJW_0KP_A_501


 28 31  0  0  0  0  0  0  0  0999 V2000
   22.5923   10.0303   22.6433 O   0  0  0  0  0  0  0  0  0  0  0  0
   22.3892   11.2152   22.4465 C   0  0  0  0  0  0  0  0  0  0  0  0
   21.8263   11.8910   21.1244 C   0  0  0  0  0  0  0  0  0  0  0  0
   21.8948   13.3408   21.4838 N   0  0  0  0  0  0  0  0  0  0  0  0
   22.3566   13.4744   22.7227 C   0  0  0  0  0  0  0  0  0  0  0  0
   22.6443   12.2248   23.3450 N   0  0  0  0  0  0  0  0  0  0  0  0
   22.5423   14.6452   23.3431 N   0  0  0  0  0  0  0  0  0  0  0  0
   23.1611   11.9945   24.7014 C   0  0  0  0  0  0  0  0  0  0  0  0
   21.6367   14.0840   20.8920 H   0  0  0  0  0  0  0  0  0  0  0  0
   22.3314   15.4873   22.8787 H   0  0  0  0  0  0  0  0  0  0  0  0
   22.7843   11.6276   19.9460 C   0  0  0  0  0  0  0  0  0  0  0  0
   23.1874   10.3342   19.6307 C   0  0  0  0  0  0  0  0  0  0  0  0
   24.0396   10.0940   18.5571 C   0  0  0  0  0  0  0  0  0  0  0  0
   24.5028   11.1380   17.7880 C   0  0  0  0  0  0  0  0  0  0  0  0
   24.1240   12.4250   18.0930 C   0  0  0  0  0  0  0  0  0  0  0  0
   23.2739   12.6711   19.1661 C   0  0  0  0  0  0  0  0  0  0  0  0
   20.3447   11.5074   20.9212 C   0  0  0  0  0  0  0  0  0  0  0  0
   19.8145   11.4091   19.6418 C   0  0  0  0  0  0  0  0  0  0  0  0
   18.5012   11.0140   19.4459 C   0  0  0  0  0  0  0  0  0  0  0  0
   17.6984   10.7156   20.5261 C   0  0  0  0  0  0  0  0  0  0  0  0
   18.1911   10.8001   21.8251 C   0  0  0  0  0  0  0  0  0  0  0  0
   19.5220   11.2097   22.0151 C   0  0  0  0  0  0  0  0  0  0  0  0
   15.9224    9.5805   25.1930 C   0  0  0  0  0  0  0  0  0  0  0  0
   16.9389   10.4270   25.3799 N   0  0  0  0  0  0  0  0  0  0  0  0
   17.6153   10.8263   24.2932 C   0  0  0  0  0  0  0  0  0  0  0  0
   17.3439   10.3982   22.9980 C   0  0  0  0  0  0  0  0  0  0  0  0
   16.2772    9.5160   22.8481 C   0  0  0  0  0  0  0  0  0  0  0  0
   15.5541    9.1034   23.9539 C   0  0  0  0  0  0  0  0  0  0  0  0
 19 20  2  0  0  0
 19 18  1  0  0  0
 20 21  1  0  0  0
 18 17  2  0  0  0
 21 26  1  0  0  0
 21 22  2  0  0  0
 14 15  2  0  0  0
 14 13  1  0  0  0
 27 26  2  0  0  0
 27 28  1  0  0  0
 15 16  1  0  0  0
 13 12  2  0  0  0
 26 25  1  0  0  0
 17 22  1  0  0  0
 17  3  1  0  0  0
 28 23  2  0  0  0
 16 11  2  0  0  0
 12 11  1  0  0  0
 11  3  1  0  0  0
 25 24  2  0  0  0
 23 24  1  0  0  0
  3  4  1  0  0  0
  3  2  1  0  0  0
  1  2  2  0  0  0
  4  5  1  0  0  0
  2  6  1  0  0  0
  5  6  1  0  0  0
  5  7  2  0  0  0
  6  8  1  0  0  0
  4  9  1  0  0  0
  7 10  1  0  0  0
M  END
> <minimizedAffinity>
-9.33673

$$$$
4DJW_0KP_A_501


 28 31  0  0  0  0  0  0  0  0999 V2000
   18.4403   13.7294   23.7998 O   0  0  0  0  0  0  0  0  0  0  0  0
   18.9073   12.6361   24.0652 C   0  0  0  0  0  0  0  0  0  0  0  0
   18.5979   11.2545   23.3462 C   0  0  0  0  0  0  0  0  0  0  0  0
   19.3985   10.3048   24.1784 N   0  0  0  0  0  0  0  0  0  0  0  0
   20.0401   10.9739   25.1305 C   0  0  0  0  0  0  0  0  0  0  0  0
   19.7923   12.3768   25.0856 N   0  0  0  0  0  0  0  0  0  0  0  0
   20.8387   10.4148   26.0470 N   0  0  0  0  0  0  0  0  0  0  0  0
   20.3345   13.4139   25.9746 C   0  0  0  0  0  0  0  0  0  0  0  0
   19.4435    9.3308   24.0417 H   0  0  0  0  0  0  0  0  0  0  0  0
   20.9846    9.4412   26.0445 H   0  0  0  0  0  0  0  0  0  0  0  0
   17.1043   10.9037   23.4936 C   0  0  0  0  0  0  0  0  0  0  0  0
   16.7046    9.7647   24.1847 C   0  0  0  0  0  0  0  0  0  0  0  0
   15.3558    9.4557   24.3318 C   0  0  0  0  0  0  0  0  0  0  0  0
   14.3902   10.2744   23.7899 C   0  0  0  0  0  0  0  0  0  0  0  0
   14.7679   11.3987   23.0926 C   0  0  0  0  0  0  0  0  0  0  0  0
   16.1148   11.7113   22.9409 C   0  0  0  0  0  0  0  0  0  0  0  0
   19.1780   11.2589   21.9153 C   0  0  0  0  0  0  0  0  0  0  0  0
   18.4306   10.7668   20.8538 C   0  0  0  0  0  0  0  0  0  0  0  0
   18.9198   10.8146   19.5586 C   0  0  0  0  0  0  0  0  0  0  0  0
   20.1644   11.3512   19.3068 C   0  0  0  0  0  0  0  0  0  0  0  0
   20.9453   11.8565   20.3422 C   0  0  0  0  0  0  0  0  0  0  0  0
   20.4448   11.7964   21.6542 C   0  0  0  0  0  0  0  0  0  0  0  0
   24.5985   13.8545   19.5425 C   0  0  0  0  0  0  0  0  0  0  0  0
   24.0121   14.0451   20.7277 N   0  0  0  0  0  0  0  0  0  0  0  0
   22.8782   13.3714   20.9690 C   0  0  0  0  0  0  0  0  0  0  0  0
   22.2657   12.5141   20.0611 C   0  0  0  0  0  0  0  0  0  0  0  0
   22.9094   12.3448   18.8381 C   0  0  0  0  0  0  0  0  0  0  0  0
   24.0900   13.0171   18.5736 C   0  0  0  0  0  0  0  0  0  0  0  0
 19 20  2  0  0  0
 19 18  1  0  0  0
 20 21  1  0  0  0
 18 17  2  0  0  0
 21 26  1  0  0  0
 21 22  2  0  0  0
 14 15  2  0  0  0
 14 13  1  0  0  0
 27 26  2  0  0  0
 27 28  1  0  0  0
 15 16  1  0  0  0
 13 12  2  0  0  0
 26 25  1  0  0  0
 17 22  1  0  0  0
 17  3  1  0  0  0
 28 23  2  0  0  0
 16 11  2  0  0  0
 12 11  1  0  0  0
 11  3  1  0  0  0
 25 24  2  0  0  0
 23 24  1  0  0  0
  3  4  1  0  0  0
  3  2  1  0  0  0
  1  2  2  0  0  0
  4  5  1  0  0  0
  2  6  1  0  0  0
  5  6  1  0  0  0
  5  7  2  0  0  0
  6  8  1  0  0  0
  4  9  1  0  0  0
  7 10  1  0  0  0
M  END
> <minimizedAffinity>
-9.05061

$$$$
4DJW_0KP_A_501


 28 31  0  0  0  0  0  0  0  0999 V2000
   25.2593   14.0587   21.2354 O   0  0  0  0  0  0  0  0  0  0  0  0
   25.5343   13.8652   20.0646 C   0  0  0  0  0  0  0  0  0  0  0  0
   25.8389   12.4740   19.3623 C   0  0  0  0  0  0  0  0  0  0  0  0
   26.1828   12.9143   17.9754 N   0  0  0  0  0  0  0  0  0  0  0  0
   26.0758   14.2358   17.8850 C   0  0  0  0  0  0  0  0  0  0  0  0
   25.6675   14.8441   19.1076 N   0  0  0  0  0  0  0  0  0  0  0  0
   26.3204   14.9447   16.7769 N   0  0  0  0  0  0  0  0  0  0  0  0
   25.4449   16.2729   19.3698 C   0  0  0  0  0  0  0  0  0  0  0  0
   26.4484   12.3157   17.2403 H   0  0  0  0  0  0  0  0  0  0  0  0
   26.6007   14.4870   15.9516 H   0  0  0  0  0  0  0  0  0  0  0  0
   27.0827   11.8215   19.9971 C   0  0  0  0  0  0  0  0  0  0  0  0
   27.1112   10.4579   20.2702 C   0  0  0  0  0  0  0  0  0  0  0  0
   28.2397    9.8654   20.8286 C   0  0  0  0  0  0  0  0  0  0  0  0
   29.3505   10.6233   21.1247 C   0  0  0  0  0  0  0  0  0  0  0  0
   29.3354   11.9757   20.8725 C   0  0  0  0  0  0  0  0  0  0  0  0
   28.2094   12.5737   20.3162 C   0  0  0  0  0  0  0  0  0  0  0  0
   24.5551   11.6186   19.2991 C   0  0  0  0  0  0  0  0  0  0  0  0
   24.5734   10.3697   18.6930 C   0  0  0  0  0  0  0  0  0  0  0  0
   23.4412    9.5714   18.6775 C   0  0  0  0  0  0  0  0  0  0  0  0
   22.2741   10.0119   19.2640 C   0  0  0  0  0  0  0  0  0  0  0  0
   22.2135   11.2569   19.8834 C   0  0  0  0  0  0  0  0  0  0  0  0
   23.3644   12.0637   19.8872 C   0  0  0  0  0  0  0  0  0  0  0  0
   18.7351   12.4249   22.0080 C   0  0  0  0  0  0  0  0  0  0  0  0
   19.9266   12.8159   22.4686 N   0  0  0  0  0  0  0  0  0  0  0  0
   21.0073   12.4652   21.7566 C   0  0  0  0  0  0  0  0  0  0  0  0
   20.9681   11.7047   20.5927 C   0  0  0  0  0  0  0  0  0  0  0  0
   19.7066   11.3176   20.1482 C   0  0  0  0  0  0  0  0  0  0  0  0
   18.5758   11.6825   20.8581 C   0  0  0  0  0  0  0  0  0  0  0  0
 19 20  2  0  0  0
 19 18  1  0  0  0
 20 21  1  0  0  0
 18 17  2  0  0  0
 21 26  1  0  0  0
 21 22  2  0  0  0
 14 15  2  0  0  0
 14 13  1  0  0  0
 27 26  2  0  0  0
 27 28  1  0  0  0
 15 16  1  0  0  0
 13 12  2  0  0  0
 26 25  1  0  0  0
 17 22  1  0  0  0
 17  3  1  0  0  0
 28 23  2  0  0  0
 16 11  2  0  0  0
 12 11  1  0  0  0
 11  3  1  0  0  0
 25 24  2  0  0  0
 23 24  1  0  0  0
  3  4  1  0  0  0
  3  2  1  0  0  0
  1  2  2  0  0  0
  4  5  1  0  0  0
  2  6  1  0  0  0
  5  6  1  0  0  0
  5  7  2  0  0  0
  6  8  1  0  0  0
  4  9  1  0  0  0
  7 10  1  0  0  0
M  END
> <minimizedAffinity>
-9.04189

$$$$
4DJW_0KP_A_501


 28 31  0  0  0  0  0  0  0  0999 V2000
   22.5725   11.7047   23.9234 O   0  0  0  0  0  0  0  0  0  0  0  0
   21.5296   12.3307   23.9883 C   0  0  0  0  0  0  0  0  0  0  0  0
   20.9122   13.2938   22.8869 C   0  0  0  0  0  0  0  0  0  0  0  0
   19.6993   13.8085   23.5936 N   0  0  0  0  0  0  0  0  0  0  0  0
   19.6153   13.2572   24.7998 C   0  0  0  0  0  0  0  0  0  0  0  0
   20.6794   12.3479   25.0693 N   0  0  0  0  0  0  0  0  0  0  0  0
   18.6465   13.5120   25.6868 N   0  0  0  0  0  0  0  0  0  0  0  0
   20.9012   11.5610   26.2905 C   0  0  0  0  0  0  0  0  0  0  0  0
   19.0595   14.4578   23.2215 H   0  0  0  0  0  0  0  0  0  0  0  0
   17.9285   14.1471   25.4626 H   0  0  0  0  0  0  0  0  0  0  0  0
   21.8674   14.4737   22.6198 C   0  0  0  0  0  0  0  0  0  0  0  0
   21.5310   15.7655   23.0110 C   0  0  0  0  0  0  0  0  0  0  0  0
   22.3998   16.8287   22.7844 C   0  0  0  0  0  0  0  0  0  0  0  0
   23.6106   16.6190   22.1632 C   0  0  0  0  0  0  0  0  0  0  0  0
   23.9543   15.3498   21.7587 C   0  0  0  0  0  0  0  0  0  0  0  0
   23.0890   14.2835   21.9808 C   0  0  0  0  0  0  0  0  0  0  0  0
   20.4529   12.4740   21.6618 C   0  0  0  0  0  0  0  0  0  0  0  0
   21.2392   12.4201   20.5189 C   0  0  0  0  0  0  0  0  0  0  0  0
   20.8628   11.6452   19.4340 C   0  0  0  0  0  0  0  0  0  0  0  0
   19.6933   10.9165   19.4748 C   0  0  0  0  0  0  0  0  0  0  0  0
   18.8770   10.9416   20.6019 C   0  0  0  0  0  0  0  0  0  0  0  0
   19.2623   11.7370   21.6947 C   0  0  0  0  0  0  0  0  0  0  0  0
   15.4503    8.4709   20.9630 C   0  0  0  0  0  0  0  0  0  0  0  0
   15.5771    9.5123   21.7900 N   0  0  0  0  0  0  0  0  0  0  0  0
   16.6507   10.2993   21.6288 C   0  0  0  0  0  0  0  0  0  0  0  0
   17.6451   10.0866   20.6800 C   0  0  0  0  0  0  0  0  0  0  0  0
   17.4743    8.9898   19.8393 C   0  0  0  0  0  0  0  0  0  0  0  0
   16.3651    8.1733   19.9764 C   0  0  0  0  0  0  0  0  0  0  0  0
 19 20  2  0  0  0
 19 18  1  0  0  0
 20 21  1  0  0  0
 18 17  2  0  0  0
 21 26  1  0  0  0
 21 22  2  0  0  0
 14 15  2  0  0  0
 14 13  1  0  0  0
 27 26  2  0  0  0
 27 28  1  0  0  0
 15 16  1  0  0  0
 13 12  2  0  0  0
 26 25  1  0  0  0
 17 22  1  0  0  0
 17  3  1  0  0  0
 28 23  2  0  0  0
 16 11  2  0  0  0
 12 11  1  0  0  0
 11  3  1  0  0  0
 25 24  2  0  0  0
 23 24  1  0  0  0
  3  4  1  0  0  0
  3  2  1  0  0  0
  1  2  2  0  0  0
  4  5  1  0  0  0
  2  6  1  0  0  0
  5  6  1  0  0  0
  5  7  2  0  0  0
  6  8  1  0  0  0
  4  9  1  0  0  0
  7 10  1  0  0  0
M  END
> <minimizedAffinity>
-9.01801

$$$$
4DJW_0KP_A_501


 28 31  0  0  0  0  0  0  0  0999 V2000
   23.2006   12.8647   18.4790 O   0  0  0  0  0  0  0  0  0  0  0  0
   23.2581   12.1874   19.4899 C   0  0  0  0  0  0  0  0  0  0  0  0
   22.4147   12.3702   20.8229 C   0  0  0  0  0  0  0  0  0  0  0  0
   23.0032   11.3045   21.6910 N   0  0  0  0  0  0  0  0  0  0  0  0
   23.9393   10.6438   21.0178 C   0  0  0  0  0  0  0  0  0  0  0  0
   24.1091   11.1251   19.6869 N   0  0  0  0  0  0  0  0  0  0  0  0
   24.6611    9.6319   21.5130 N   0  0  0  0  0  0  0  0  0  0  0  0
   25.0439   10.6321   18.6657 C   0  0  0  0  0  0  0  0  0  0  0  0
   22.7373   11.1200   22.6208 H   0  0  0  0  0  0  0  0  0  0  0  0
   24.5137    9.3286   22.4379 H   0  0  0  0  0  0  0  0  0  0  0  0
   22.7138   13.7440   21.4545 C   0  0  0  0  0  0  0  0  0  0  0  0
   21.9472   14.2249   22.5109 C   0  0  0  0  0  0  0  0  0  0  0  0
   22.2266   15.4580   23.0919 C   0  0  0  0  0  0  0  0  0  0  0  0
   23.2691   16.2277   22.6262 C   0  0  0  0  0  0  0  0  0  0  0  0
   24.0301   15.7732   21.5741 C   0  0  0  0  0  0  0  0  0  0  0  0
   23.7542   14.5421   20.9881 C   0  0  0  0  0  0  0  0  0  0  0  0
   20.9319   12.0265   20.5646 C   0  0  0  0  0  0  0  0  0  0  0  0
   20.5556   11.3758   19.3972 C   0  0  0  0  0  0  0  0  0  0  0  0
   19.2359   11.0151   19.1792 C   0  0  0  0  0  0  0  0  0  0  0  0
   18.2733   11.3034   20.1229 C   0  0  0  0  0  0  0  0  0  0  0  0
   18.6085   11.9533   21.3073 C   0  0  0  0  0  0  0  0  0  0  0  0
   19.9482   12.3229   21.5166 C   0  0  0  0  0  0  0  0  0  0  0  0
   15.7402   12.5017   24.3813 C   0  0  0  0  0  0  0  0  0  0  0  0
   17.0357   12.6071   24.6900 N   0  0  0  0  0  0  0  0  0  0  0  0
   17.9199   12.4672   23.6917 C   0  0  0  0  0  0  0  0  0  0  0  0
   17.5771   12.1961   22.3713 C   0  0  0  0  0  0  0  0  0  0  0  0
   16.2166   12.0934   22.0933 C   0  0  0  0  0  0  0  0  0  0  0  0
   15.2852   12.2509   23.1050 C   0  0  0  0  0  0  0  0  0  0  0  0
 19 20  2  0  0  0
 19 18  1  0  0  0
 20 21  1  0  0  0
 18 17  2  0  0  0
 21 26  1  0  0  0
 21 22  2  0  0  0
 14 15  2  0  0  0
 14 13  1  0  0  0
 27 26  2  0  0  0
 27 28  1  0  0  0
 15 16  1  0  0  0
 13 12  2  0  0  0
 26 25  1  0  0  0
 17 22  1  0  0  0
 17  3  1  0  0  0
 28 23  2  0  0  0
 16 11  2  0  0  0
 12 11  1  0  0  0
 11  3  1  0  0  0
 25 24  2  0  0  0
 23 24  1  0  0  0
  3  4  1  0  0  0
  3  2  1  0  0  0
  1  2  2  0  0  0
  4  5  1  0  0  0
  2  6  1  0  0  0
  5  6  1  0  0  0
  5  7  2  0  0  0
  6  8  1  0  0  0
  4  9  1  0  0  0
  7 10  1  0  0  0
M  END
> <minimizedAffinity>
-8.83868

$$$$
4DJW_0KP_A_501


 28 31  0  0  0  0  0  0  0  0999 V2000
   21.8554   12.4306   20.9450 O   0  0  0  0  0  0  0  0  0  0  0  0
   21.8372   11.9031   22.0428 C   0  0  0  0  0  0  0  0  0  0  0  0
   21.0346   12.3778   23.3281 C   0  0  0  0  0  0  0  0  0  0  0  0
   21.4939   11.3826   24.3451 N   0  0  0  0  0  0  0  0  0  0  0  0
   22.3351   10.5216   23.7820 C   0  0  0  0  0  0  0  0  0  0  0  0
   22.5517   10.7827   22.3976 N   0  0  0  0  0  0  0  0  0  0  0  0
   22.9301    9.5094   24.4235 N   0  0  0  0  0  0  0  0  0  0  0  0
   23.4093   10.0367   21.4661 C   0  0  0  0  0  0  0  0  0  0  0  0
   21.2153   11.3675   25.2892 H   0  0  0  0  0  0  0  0  0  0  0  0
   22.7543    9.3621   25.3809 H   0  0  0  0  0  0  0  0  0  0  0  0
   21.5071   13.7801   23.7594 C   0  0  0  0  0  0  0  0  0  0  0  0
   21.8936   14.0294   25.0722 C   0  0  0  0  0  0  0  0  0  0  0  0
   22.3354   15.2912   25.4586 C   0  0  0  0  0  0  0  0  0  0  0  0
   22.3940   16.3192   24.5444 C   0  0  0  0  0  0  0  0  0  0  0  0
   22.0040   16.0936   23.2445 C   0  0  0  0  0  0  0  0  0  0  0  0
   21.5598   14.8349   22.8531 C   0  0  0  0  0  0  0  0  0  0  0  0
   19.5184   12.1871   23.1079 C   0  0  0  0  0  0  0  0  0  0  0  0
   18.6138   13.1071   23.6206 C   0  0  0  0  0  0  0  0  0  0  0  0
   17.2553   12.9748   23.3839 C   0  0  0  0  0  0  0  0  0  0  0  0
   16.7816   11.9189   22.6349 C   0  0  0  0  0  0  0  0  0  0  0  0
   17.6546   10.9752   22.1015 C   0  0  0  0  0  0  0  0  0  0  0  0
   19.0305   11.1125   22.3536 C   0  0  0  0  0  0  0  0  0  0  0  0
   16.2115    7.9623   19.4906 C   0  0  0  0  0  0  0  0  0  0  0  0
   17.4158    8.4897   19.2539 N   0  0  0  0  0  0  0  0  0  0  0  0
   17.8641    9.4128   20.1169 C   0  0  0  0  0  0  0  0  0  0  0  0
   17.1494    9.8705   21.2187 C   0  0  0  0  0  0  0  0  0  0  0  0
   15.8988    9.2952   21.4281 C   0  0  0  0  0  0  0  0  0  0  0  0
   15.4229    8.3282   20.5597 C   0  0  0  0  0  0  0  0  0  0  0  0
 19 20  2  0  0  0
 19 18  1  0  0  0
 20 21  1  0  0  0
 18 17  2  0  0  0
 21 26  1  0  0  0
 21 22  2  0  0  0
 14 15  2  0  0  0
 14 13  1  0  0  0
 27 26  2  0  0  0
 27 28  1  0  0  0
 15 16  1  0  0  0
 13 12  2  0  0  0
 26 25  1  0  0  0
 17 22  1  0  0  0
 17  3  1  0  0  0
 28 23  2  0  0  0
 16 11  2  0  0  0
 12 11  1  0  0  0
 11  3  1  0  0  0
 25 24  2  0  0  0
 23 24  1  0  0  0
  3  4  1  0  0  0
  3  2  1  0  0  0
  1  2  2  0  0  0
  4  5  1  0  0  0
  2  6  1  0  0  0
  5  6  1  0  0  0
  5  7  2  0  0  0
  6  8  1  0  0  0
  4  9  1  0  0  0
  7 10  1  0  0  0
M  END
> <minimizedAffinity>
-8.70259

$$$$
4DJW_0KP_A_501


 28 31  0  0  0  0  0  0  0  0999 V2000
   21.4036   15.1843   22.9601 O   0  0  0  0  0  0  0  0  0  0  0  0
   21.8814   14.1183   23.3052 C   0  0  0  0  0  0  0  0  0  0  0  0
   22.4104   12.9499   22.3688 C   0  0  0  0  0  0  0  0  0  0  0  0
   22.7771   11.9087   23.3774 N   0  0  0  0  0  0  0  0  0  0  0  0
   22.5459   12.3697   24.6021 C   0  0  0  0  0  0  0  0  0  0  0  0
   22.0301   13.6985   24.6064 N   0  0  0  0  0  0  0  0  0  0  0  0
   22.7640   11.6805   25.7280 N   0  0  0  0  0  0  0  0  0  0  0  0
   21.6673   14.5176   25.7714 C   0  0  0  0  0  0  0  0  0  0  0  0
   23.1356   11.0165   23.1660 H   0  0  0  0  0  0  0  0  0  0  0  0
   23.1215   10.7643   25.6829 H   0  0  0  0  0  0  0  0  0  0  0  0
   21.2608   12.4097   21.4956 C   0  0  0  0  0  0  0  0  0  0  0  0
   19.9545   12.3845   21.9728 C   0  0  0  0  0  0  0  0  0  0  0  0
   18.9138   11.9117   21.1792 C   0  0  0  0  0  0  0  0  0  0  0  0
   19.1617   11.4556   19.9039 C   0  0  0  0  0  0  0  0  0  0  0  0
   20.4496   11.4619   19.4200 C   0  0  0  0  0  0  0  0  0  0  0  0
   21.4941   11.9316   20.2096 C   0  0  0  0  0  0  0  0  0  0  0  0
   23.6950   13.3956   21.6375 C   0  0  0  0  0  0  0  0  0  0  0  0
   23.7528   14.6343   21.0130 C   0  0  0  0  0  0  0  0  0  0  0  0
   24.9175   15.0665   20.3999 C   0  0  0  0  0  0  0  0  0  0  0  0
   26.0392   14.2652   20.3988 C   0  0  0  0  0  0  0  0  0  0  0  0
   26.0239   13.0171   21.0146 C   0  0  0  0  0  0  0  0  0  0  0  0
   24.8357   12.5829   21.6270 C   0  0  0  0  0  0  0  0  0  0  0  0
   29.6150   10.7668   21.1468 C   0  0  0  0  0  0  0  0  0  0  0  0
   29.4934   11.8240   21.9543 N   0  0  0  0  0  0  0  0  0  0  0  0
   28.3329   12.4948   21.9199 C   0  0  0  0  0  0  0  0  0  0  0  0
   27.2668   12.1774   21.0849 C   0  0  0  0  0  0  0  0  0  0  0  0
   27.4357   11.0691   20.2591 C   0  0  0  0  0  0  0  0  0  0  0  0
   28.6189   10.3515   20.2900 C   0  0  0  0  0  0  0  0  0  0  0  0
 19 20  2  0  0  0
 19 18  1  0  0  0
 20 21  1  0  0  0
 18 17  2  0  0  0
 21 26  1  0  0  0
 21 22  2  0  0  0
 14 15  2  0  0  0
 14 13  1  0  0  0
 27 26  2  0  0  0
 27 28  1  0  0  0
 15 16  1  0  0  0
 13 12  2  0  0  0
 26 25  1  0  0  0
 17 22  1  0  0  0
 17  3  1  0  0  0
 28 23  2  0  0  0
 16 11  2  0  0  0
 12 11  1  0  0  0
 11  3  1  0  0  0
 25 24  2  0  0  0
 23 24  1  0  0  0
  3  4  1  0  0  0
  3  2  1  0  0  0
  1  2  2  0  0  0
  4  5  1  0  0  0
  2  6  1  0  0  0
  5  6  1  0  0  0
  5  7  2  0  0  0
  6  8  1  0  0  0
  4  9  1  0  0  0
  7 10  1  0  0  0
M  END
> <minimizedAffinity>
-8.69037

$$$$
4DJW_0KP_A_501


 28 31  0  0  0  0  0  0  0  0999 V2000
   22.2995   10.8639   23.6139 O   0  0  0  0  0  0  0  0  0  0  0  0
   21.9346   12.0190   23.4859 C   0  0  0  0  0  0  0  0  0  0  0  0
   21.8076   12.8468   22.1368 C   0  0  0  0  0  0  0  0  0  0  0  0
   21.4056   14.1909   22.6538 N   0  0  0  0  0  0  0  0  0  0  0  0
   21.2966   14.1480   23.9776 C   0  0  0  0  0  0  0  0  0  0  0  0
   21.5826   12.8596   24.5161 N   0  0  0  0  0  0  0  0  0  0  0  0
   20.9574   15.1887   24.7470 N   0  0  0  0  0  0  0  0  0  0  0  0
   21.5564   12.4496   25.9271 C   0  0  0  0  0  0  0  0  0  0  0  0
   21.2459   14.9874   22.0977 H   0  0  0  0  0  0  0  0  0  0  0  0
   20.7674   16.0631   24.3365 H   0  0  0  0  0  0  0  0  0  0  0  0
   23.1865   12.9694   21.4590 C   0  0  0  0  0  0  0  0  0  0  0  0
   23.6254   14.1879   20.9517 C   0  0  0  0  0  0  0  0  0  0  0  0
   24.8767   14.3029   20.3539 C   0  0  0  0  0  0  0  0  0  0  0  0
   25.7033   13.2065   20.2510 C   0  0  0  0  0  0  0  0  0  0  0  0
   25.2803   11.9906   20.7364 C   0  0  0  0  0  0  0  0  0  0  0  0
   24.0297   11.8694   21.3332 C   0  0  0  0  0  0  0  0  0  0  0  0
   20.6526   12.2883   21.2778 C   0  0  0  0  0  0  0  0  0  0  0  0
   20.8895   11.8544   19.9804 C   0  0  0  0  0  0  0  0  0  0  0  0
   19.8720   11.3024   19.2194 C   0  0  0  0  0  0  0  0  0  0  0  0
   18.6026   11.1802   19.7430 C   0  0  0  0  0  0  0  0  0  0  0  0
   18.3230   11.6016   21.0397 C   0  0  0  0  0  0  0  0  0  0  0  0
   19.3593   12.1680   21.8018 C   0  0  0  0  0  0  0  0  0  0  0  0
   14.5348   11.0823   22.8719 C   0  0  0  0  0  0  0  0  0  0  0  0
   14.9543   12.3238   22.6125 N   0  0  0  0  0  0  0  0  0  0  0  0
   16.1384   12.4578   21.9979 C   0  0  0  0  0  0  0  0  0  0  0  0
   16.9621   11.3958   21.6400 C   0  0  0  0  0  0  0  0  0  0  0  0
   16.4874   10.1192   21.9293 C   0  0  0  0  0  0  0  0  0  0  0  0
   15.2600    9.9562   22.5481 C   0  0  0  0  0  0  0  0  0  0  0  0
 19 20  2  0  0  0
 19 18  1  0  0  0
 20 21  1  0  0  0
 18 17  2  0  0  0
 21 26  1  0  0  0
 21 22  2  0  0  0
 14 15  2  0  0  0
 14 13  1  0  0  0
 27 26  2  0  0  0
 27 28  1  0  0  0
 15 16  1  0  0  0
 13 12  2  0  0  0
 26 25  1  0  0  0
 17 22  1  0  0  0
 17  3  1  0  0  0
 28 23  2  0  0  0
 16 11  2  0  0  0
 12 11  1  0  0  0
 11  3  1  0  0  0
 25 24  2  0  0  0
 23 24  1  0  0  0
  3  4  1  0  0  0
  3  2  1  0  0  0
  1  2  2  0  0  0
  4  5  1  0  0  0
  2  6  1  0  0  0
  5  6  1  0  0  0
  5  7  2  0  0  0
  6  8  1  0  0  0
  4  9  1  0  0  0
  7 10  1  0  0  0
M  END
> <minimizedAffinity>
-8.60165

$$$$
