4ACC_7YG_A_1387


 35 37  0  0  0  0  0  0  0  0999 V2000
   18.8303   19.0588    7.9092 C   0  0  0  0  0  0  0  0  0  0  0  0
   19.0026   19.5614    6.6356 C   0  0  0  0  0  0  0  0  0  0  0  0
   20.1443   19.4528    5.9443 N   0  0  0  0  0  0  0  0  0  0  0  0
   21.1590   18.8376    6.5772 C   0  0  0  0  0  0  0  0  0  0  0  0
   21.0071   18.3681    7.8714 C   0  0  0  0  0  0  0  0  0  0  0  0
   19.8476   18.4492    8.5443 N   0  0  0  0  0  0  0  0  0  0  0  0
   22.3633   18.6728    5.8968 N   0  0  0  0  0  0  0  0  0  0  0  0
   22.4594   19.0108    4.9771 H   0  0  0  0  0  0  0  0  0  0  0  0
   23.1185   18.2185    6.3357 H   0  0  0  0  0  0  0  0  0  0  0  0
   15.1404   19.3030    9.9931 C   0  0  0  0  0  0  0  0  0  0  0  0
   15.9277   18.1694   10.1314 C   0  0  0  0  0  0  0  0  0  0  0  0
   17.1177   18.0827    9.4348 C   0  0  0  0  0  0  0  0  0  0  0  0
   17.5499   19.1117    8.6053 C   0  0  0  0  0  0  0  0  0  0  0  0
   16.7438   20.2306    8.4859 C   0  0  0  0  0  0  0  0  0  0  0  0
   15.5419   20.3334    9.1606 C   0  0  0  0  0  0  0  0  0  0  0  0
   13.5713   19.4622   10.8793 S   0  0  0  0  0  0  0  0  0  0  0  0
   12.5468   19.7452    9.8891 O   0  0  0  0  0  0  0  0  0  0  0  0
   13.8435   20.3529   11.9858 O   0  0  0  0  0  0  0  0  0  0  0  0
   13.3028   17.8428   11.3550 N   0  0  0  0  0  0  0  0  0  0  0  0
   12.4344   17.5403   10.9136 H   0  0  0  0  0  0  0  0  0  0  0  0
   13.1883   17.5370   12.7917 C   0  0  0  0  0  0  0  0  0  0  0  0
   14.3345   16.5893   13.1261 C   0  0  0  0  0  0  0  0  0  0  0  0
   15.7824   14.8193   11.9231 C   0  0  0  0  0  0  0  0  0  0  0  0
   14.4391   15.4018   12.2041 N   0  0  0  0  0  0  0  0  0  0  0  0
   13.3468   14.3949   12.3031 C   0  0  0  0  0  0  0  0  0  0  0  0
   22.1101   17.6714    8.5739 C   0  0  0  0  0  0  0  0  0  0  0  0
   23.2688   18.0410    8.4586 O   0  0  0  0  0  0  0  0  0  0  0  0
   21.6728   16.5760    9.2938 N   0  0  0  0  0  0  0  0  0  0  0  0
   20.7295   16.3200    9.1757 H   0  0  0  0  0  0  0  0  0  0  0  0
   22.4295   15.7905   10.1741 C   0  0  0  0  0  0  0  0  0  0  0  0
   21.8608   15.4664   11.3883 C   0  0  0  0  0  0  0  0  0  0  0  0
   22.5842   14.7196   12.3024 C   0  0  0  0  0  0  0  0  0  0  0  0
   23.8609   14.3218   11.9433 C   0  0  0  0  0  0  0  0  0  0  0  0
   24.4289   14.6141   10.7628 N   0  0  0  0  0  0  0  0  0  0  0  0
   23.7146   15.3477    9.9037 C   0  0  0  0  0  0  0  0  0  0  0  0
 23 24  1  0  0  0
 24 25  1  0  0  0
 24 22  1  0  0  0
 22 21  1  0  0  0
 21 19  1  0  0  0
 19 16  1  0  0  0
 16 17  2  0  0  0
 16 18  2  0  0  0
 16 10  1  0  0  0
 10 11  1  0  0  0
 10 15  2  0  0  0
 11 12  2  0  0  0
 12 13  1  0  0  0
 13 14  2  0  0  0
 13  1  1  0  0  0
 14 15  1  0  0  0
  1  2  1  0  0  0
  1  6  2  0  0  0
  2  3  2  0  0  0
  3  4  1  0  0  0
  4  5  2  0  0  0
  4  7  1  0  0  0
  5  6  1  0  0  0
  5 26  1  0  0  0
 26 27  2  0  0  0
 26 28  1  0  0  0
 28 30  1  0  0  0
 30 31  1  0  0  0
 30 35  2  0  0  0
 31 32  2  0  0  0
 32 33  1  0  0  0
 33 34  2  0  0  0
 34 35  1  0  0  0
 19 20  1  0  0  0
 28 29  1  0  0  0
  7  8  1  0  0  0
  7  9  1  0  0  0
M  END
> <minimizedAffinity>
-8.27112

$$$$
4ACC_7YG_A_1387


 35 37  0  0  0  0  0  0  0  0999 V2000
   20.6108   13.1308   12.9547 C   0  0  0  0  0  0  0  0  0  0  0  0
   21.0992   12.0058   13.5872 C   0  0  0  0  0  0  0  0  0  0  0  0
   20.3570   11.2180   14.3758 N   0  0  0  0  0  0  0  0  0  0  0  0
   19.0798   11.5997   14.5540 C   0  0  0  0  0  0  0  0  0  0  0  0
   18.5937   12.7509   13.9567 C   0  0  0  0  0  0  0  0  0  0  0  0
   19.3349   13.5157   13.1384 N   0  0  0  0  0  0  0  0  0  0  0  0
   18.2532   10.8039   15.3439 N   0  0  0  0  0  0  0  0  0  0  0  0
   18.6101    9.9878   15.7633 H   0  0  0  0  0  0  0  0  0  0  0  0
   17.3122   11.0576   15.4828 H   0  0  0  0  0  0  0  0  0  0  0  0
   22.9235   15.3607   10.1804 C   0  0  0  0  0  0  0  0  0  0  0  0
   23.5529   14.7411   11.2500 C   0  0  0  0  0  0  0  0  0  0  0  0
   22.7953   14.0344   12.1640 C   0  0  0  0  0  0  0  0  0  0  0  0
   21.4158   13.9210   12.0304 C   0  0  0  0  0  0  0  0  0  0  0  0
   20.8146   14.5500   10.9538 C   0  0  0  0  0  0  0  0  0  0  0  0
   21.5495   15.2755   10.0352 C   0  0  0  0  0  0  0  0  0  0  0  0
   23.8702   16.3024    8.9598 S   0  0  0  0  0  0  0  0  0  0  0  0
   24.7540   15.3659    8.2877 O   0  0  0  0  0  0  0  0  0  0  0  0
   24.3670   17.4607    9.6692 O   0  0  0  0  0  0  0  0  0  0  0  0
   22.6518   16.6699    7.8189 N   0  0  0  0  0  0  0  0  0  0  0  0
   22.9893   16.3582    6.9083 H   0  0  0  0  0  0  0  0  0  0  0  0
   22.2247   18.0716    7.6665 C   0  0  0  0  0  0  0  0  0  0  0  0
   20.8311   18.1693    8.2766 C   0  0  0  0  0  0  0  0  0  0  0  0
   20.2078   19.5976    6.2155 C   0  0  0  0  0  0  0  0  0  0  0  0
   19.9487   19.2062    7.6306 N   0  0  0  0  0  0  0  0  0  0  0  0
   18.5061   19.1612    7.9961 C   0  0  0  0  0  0  0  0  0  0  0  0
   17.1839   13.1731   14.1285 C   0  0  0  0  0  0  0  0  0  0  0  0
   16.5289   12.8175   15.0966 O   0  0  0  0  0  0  0  0  0  0  0  0
   16.7263   13.9381   13.0726 N   0  0  0  0  0  0  0  0  0  0  0  0
   17.3274   14.0223   12.2974 H   0  0  0  0  0  0  0  0  0  0  0  0
   15.4975   14.6070   12.9880 C   0  0  0  0  0  0  0  0  0  0  0  0
   14.4771   13.9809   12.3028 C   0  0  0  0  0  0  0  0  0  0  0  0
   13.2559   14.6186   12.1660 C   0  0  0  0  0  0  0  0  0  0  0  0
   13.1147   15.8706   12.7403 C   0  0  0  0  0  0  0  0  0  0  0  0
   14.0890   16.4926   13.4225 N   0  0  0  0  0  0  0  0  0  0  0  0
   15.2624   15.8614   13.5283 C   0  0  0  0  0  0  0  0  0  0  0  0
 23 24  1  0  0  0
 24 25  1  0  0  0
 24 22  1  0  0  0
 22 21  1  0  0  0
 21 19  1  0  0  0
 19 16  1  0  0  0
 16 17  2  0  0  0
 16 18  2  0  0  0
 16 10  1  0  0  0
 10 11  1  0  0  0
 10 15  2  0  0  0
 11 12  2  0  0  0
 12 13  1  0  0  0
 13 14  2  0  0  0
 13  1  1  0  0  0
 14 15  1  0  0  0
  1  2  1  0  0  0
  1  6  2  0  0  0
  2  3  2  0  0  0
  3  4  1  0  0  0
  4  5  2  0  0  0
  4  7  1  0  0  0
  5  6  1  0  0  0
  5 26  1  0  0  0
 26 27  2  0  0  0
 26 28  1  0  0  0
 28 30  1  0  0  0
 30 31  1  0  0  0
 30 35  2  0  0  0
 31 32  2  0  0  0
 32 33  1  0  0  0
 33 34  2  0  0  0
 34 35  1  0  0  0
 19 20  1  0  0  0
 28 29  1  0  0  0
  7  8  1  0  0  0
  7  9  1  0  0  0
M  END
> <minimizedAffinity>
-8.04519

$$$$
4ACC_7YG_A_1387


 35 37  0  0  0  0  0  0  0  0999 V2000
   20.8326   17.3887    9.5396 C   0  0  0  0  0  0  0  0  0  0  0  0
   21.7649   17.4467    8.5239 C   0  0  0  0  0  0  0  0  0  0  0  0
   22.8880   16.7177    8.5063 N   0  0  0  0  0  0  0  0  0  0  0  0
   23.0890   15.9211    9.5711 C   0  0  0  0  0  0  0  0  0  0  0  0
   22.1788   15.8889   10.6146 C   0  0  0  0  0  0  0  0  0  0  0  0
   21.0372   16.5965   10.6075 N   0  0  0  0  0  0  0  0  0  0  0  0
   24.2283   15.1199    9.5951 N   0  0  0  0  0  0  0  0  0  0  0  0
   24.8681   15.1514    8.8475 H   0  0  0  0  0  0  0  0  0  0  0  0
   24.3937   14.5222   10.3597 H   0  0  0  0  0  0  0  0  0  0  0  0
   17.1207   19.4455    9.4459 C   0  0  0  0  0  0  0  0  0  0  0  0
   17.7816   19.1771    8.2562 C   0  0  0  0  0  0  0  0  0  0  0  0
   19.0002   18.5272    8.2907 C   0  0  0  0  0  0  0  0  0  0  0  0
   19.5753   18.1261    9.4916 C   0  0  0  0  0  0  0  0  0  0  0  0
   18.8939   18.4077   10.6630 C   0  0  0  0  0  0  0  0  0  0  0  0
   17.6811   19.0704   10.6547 C   0  0  0  0  0  0  0  0  0  0  0  0
   15.5256   20.2990    9.4543 S   0  0  0  0  0  0  0  0  0  0  0  0
   15.4437   21.0663    8.2236 O   0  0  0  0  0  0  0  0  0  0  0  0
   15.4273   20.9169   10.7582 O   0  0  0  0  0  0  0  0  0  0  0  0
   14.4545   18.9848    9.2378 N   0  0  0  0  0  0  0  0  0  0  0  0
   13.8792   19.1975    8.4228 H   0  0  0  0  0  0  0  0  0  0  0  0
   13.5376   18.6311   10.3354 C   0  0  0  0  0  0  0  0  0  0  0  0
   14.2809   17.6342   11.2172 C   0  0  0  0  0  0  0  0  0  0  0  0
   13.7457   15.2651   12.0989 C   0  0  0  0  0  0  0  0  0  0  0  0
   13.3796   16.7063   11.9904 N   0  0  0  0  0  0  0  0  0  0  0  0
   12.7535   17.2701   13.2179 C   0  0  0  0  0  0  0  0  0  0  0  0
   22.3775   15.0020   11.7847 C   0  0  0  0  0  0  0  0  0  0  0  0
   23.4929   14.7843   12.2333 O   0  0  0  0  0  0  0  0  0  0  0  0
   21.1956   14.4469   12.2369 N   0  0  0  0  0  0  0  0  0  0  0  0
   20.3958   14.6051   11.6851 H   0  0  0  0  0  0  0  0  0  0  0  0
   21.0145   13.6826   13.3977 C   0  0  0  0  0  0  0  0  0  0  0  0
   21.5434   12.4087   13.4109 C   0  0  0  0  0  0  0  0  0  0  0  0
   21.3609   11.6059   14.5240 C   0  0  0  0  0  0  0  0  0  0  0  0
   20.6515   12.1334   15.5896 C   0  0  0  0  0  0  0  0  0  0  0  0
   20.1397   13.3741   15.6041 N   0  0  0  0  0  0  0  0  0  0  0  0
   20.3182   14.1236   14.5119 C   0  0  0  0  0  0  0  0  0  0  0  0
 23 24  1  0  0  0
 24 25  1  0  0  0
 24 22  1  0  0  0
 22 21  1  0  0  0
 21 19  1  0  0  0
 19 16  1  0  0  0
 16 17  2  0  0  0
 16 18  2  0  0  0
 16 10  1  0  0  0
 10 11  1  0  0  0
 10 15  2  0  0  0
 11 12  2  0  0  0
 12 13  1  0  0  0
 13 14  2  0  0  0
 13  1  1  0  0  0
 14 15  1  0  0  0
  1  2  1  0  0  0
  1  6  2  0  0  0
  2  3  2  0  0  0
  3  4  1  0  0  0
  4  5  2  0  0  0
  4  7  1  0  0  0
  5  6  1  0  0  0
  5 26  1  0  0  0
 26 27  2  0  0  0
 26 28  1  0  0  0
 28 30  1  0  0  0
 30 31  1  0  0  0
 30 35  2  0  0  0
 31 32  2  0  0  0
 32 33  1  0  0  0
 33 34  2  0  0  0
 34 35  1  0  0  0
 19 20  1  0  0  0
 28 29  1  0  0  0
  7  8  1  0  0  0
  7  9  1  0  0  0
M  END
> <minimizedAffinity>
-7.94138

$$$$
4ACC_7YG_A_1387


 35 37  0  0  0  0  0  0  0  0999 V2000
   20.5659   17.6259    9.4334 C   0  0  0  0  0  0  0  0  0  0  0  0
   21.4304   17.7533    8.3653 C   0  0  0  0  0  0  0  0  0  0  0  0
   22.5746   17.0671    8.2520 N   0  0  0  0  0  0  0  0  0  0  0  0
   22.8692   16.2419    9.2723 C   0  0  0  0  0  0  0  0  0  0  0  0
   22.0277   16.1401   10.3677 C   0  0  0  0  0  0  0  0  0  0  0  0
   20.8642   16.8051   10.4568 N   0  0  0  0  0  0  0  0  0  0  0  0
   24.0347   15.4827    9.1969 N   0  0  0  0  0  0  0  0  0  0  0  0
   24.6250   15.5636    8.4132 H   0  0  0  0  0  0  0  0  0  0  0  0
   24.2681   14.8653    9.9273 H   0  0  0  0  0  0  0  0  0  0  0  0
   16.7863   19.5464    9.6414 C   0  0  0  0  0  0  0  0  0  0  0  0
   17.3909   19.3633    8.4064 C   0  0  0  0  0  0  0  0  0  0  0  0
   18.6311   18.7579    8.3432 C   0  0  0  0  0  0  0  0  0  0  0  0
   19.2835   18.3178    9.4897 C   0  0  0  0  0  0  0  0  0  0  0  0
   18.6569   18.5142   10.7083 C   0  0  0  0  0  0  0  0  0  0  0  0
   17.4234   19.1313   10.7980 C   0  0  0  0  0  0  0  0  0  0  0  0
   15.1657   20.3388    9.7777 S   0  0  0  0  0  0  0  0  0  0  0  0
   14.1651   19.2966    9.6267 O   0  0  0  0  0  0  0  0  0  0  0  0
   15.2242   21.4868    8.9001 O   0  0  0  0  0  0  0  0  0  0  0  0
   15.1439   20.7470   11.4372 N   0  0  0  0  0  0  0  0  0  0  0  0
   14.8532   19.9131   11.9477 H   0  0  0  0  0  0  0  0  0  0  0  0
   14.2774   21.8521   11.8827 C   0  0  0  0  0  0  0  0  0  0  0  0
   12.9363   21.2294   12.2535 C   0  0  0  0  0  0  0  0  0  0  0  0
   10.6373   22.4082   12.2953 C   0  0  0  0  0  0  0  0  0  0  0  0
   11.7611   21.8160   11.5147 N   0  0  0  0  0  0  0  0  0  0  0  0
   12.0737   22.5397   10.2517 C   0  0  0  0  0  0  0  0  0  0  0  0
   22.3297   15.2210   11.4899 C   0  0  0  0  0  0  0  0  0  0  0  0
   23.4666   15.0967   11.9194 O   0  0  0  0  0  0  0  0  0  0  0  0
   21.2160   14.5257   11.9211 N   0  0  0  0  0  0  0  0  0  0  0  0
   20.3978   14.6284   11.3834 H   0  0  0  0  0  0  0  0  0  0  0  0
   21.1276   13.6899   13.0428 C   0  0  0  0  0  0  0  0  0  0  0  0
   20.3413   14.1146   14.0935 C   0  0  0  0  0  0  0  0  0  0  0  0
   20.2504   13.3366   15.2351 C   0  0  0  0  0  0  0  0  0  0  0  0
   20.9586   12.1472   15.2625 C   0  0  0  0  0  0  0  0  0  0  0  0
   21.7187   11.7079   14.2473 N   0  0  0  0  0  0  0  0  0  0  0  0
   21.8004   12.4842   13.1623 C   0  0  0  0  0  0  0  0  0  0  0  0
 23 24  1  0  0  0
 24 25  1  0  0  0
 24 22  1  0  0  0
 22 21  1  0  0  0
 21 19  1  0  0  0
 19 16  1  0  0  0
 16 17  2  0  0  0
 16 18  2  0  0  0
 16 10  1  0  0  0
 10 11  1  0  0  0
 10 15  2  0  0  0
 11 12  2  0  0  0
 12 13  1  0  0  0
 13 14  2  0  0  0
 13  1  1  0  0  0
 14 15  1  0  0  0
  1  2  1  0  0  0
  1  6  2  0  0  0
  2  3  2  0  0  0
  3  4  1  0  0  0
  4  5  2  0  0  0
  4  7  1  0  0  0
  5  6  1  0  0  0
  5 26  1  0  0  0
 26 27  2  0  0  0
 26 28  1  0  0  0
 28 30  1  0  0  0
 30 31  1  0  0  0
 30 35  2  0  0  0
 31 32  2  0  0  0
 32 33  1  0  0  0
 33 34  2  0  0  0
 34 35  1  0  0  0
 19 20  1  0  0  0
 28 29  1  0  0  0
  7  8  1  0  0  0
  7  9  1  0  0  0
M  END
> <minimizedAffinity>
-7.89999

$$$$
4ACC_7YG_A_1387


 35 37  0  0  0  0  0  0  0  0999 V2000
   19.0029   19.2166    7.9702 C   0  0  0  0  0  0  0  0  0  0  0  0
   19.1805   19.6504    6.6723 C   0  0  0  0  0  0  0  0  0  0  0  0
   20.2901   19.4196    5.9590 N   0  0  0  0  0  0  0  0  0  0  0  0
   21.2683   18.7492    6.5933 C   0  0  0  0  0  0  0  0  0  0  0  0
   21.1143   18.3475    7.9099 C   0  0  0  0  0  0  0  0  0  0  0  0
   19.9842   18.5517    8.6064 N   0  0  0  0  0  0  0  0  0  0  0  0
   22.4360   18.4577    5.8920 N   0  0  0  0  0  0  0  0  0  0  0  0
   22.5339   18.7485    4.9565 H   0  0  0  0  0  0  0  0  0  0  0  0
   23.1633   17.9609    6.3317 H   0  0  0  0  0  0  0  0  0  0  0  0
   15.3421   19.6486   10.0748 C   0  0  0  0  0  0  0  0  0  0  0  0
   15.4823   20.2319    8.8241 C   0  0  0  0  0  0  0  0  0  0  0  0
   16.6823   20.1087    8.1506 C   0  0  0  0  0  0  0  0  0  0  0  0
   17.7507   19.4036    8.6939 C   0  0  0  0  0  0  0  0  0  0  0  0
   17.5826   18.8327    9.9436 C   0  0  0  0  0  0  0  0  0  0  0  0
   16.3970   18.9556   10.6432 C   0  0  0  0  0  0  0  0  0  0  0  0
   13.7932   19.7862   10.9994 S   0  0  0  0  0  0  0  0  0  0  0  0
   14.0135   19.1736   12.2979 O   0  0  0  0  0  0  0  0  0  0  0  0
   12.7630   19.3281   10.0936 O   0  0  0  0  0  0  0  0  0  0  0  0
   13.7429   21.4684   11.2977 N   0  0  0  0  0  0  0  0  0  0  0  0
   13.7708   21.5948   12.3094 H   0  0  0  0  0  0  0  0  0  0  0  0
   12.5941   22.2420   10.7954 C   0  0  0  0  0  0  0  0  0  0  0  0
   13.1475   23.2228    9.7680 C   0  0  0  0  0  0  0  0  0  0  0  0
   13.1674   25.7626    9.2932 C   0  0  0  0  0  0  0  0  0  0  0  0
   13.2602   24.6395   10.2693 N   0  0  0  0  0  0  0  0  0  0  0  0
   12.6265   24.9229   11.5864 C   0  0  0  0  0  0  0  0  0  0  0  0
   22.1757   17.5915    8.6151 C   0  0  0  0  0  0  0  0  0  0  0  0
   23.3562   17.8707    8.4701 O   0  0  0  0  0  0  0  0  0  0  0  0
   21.6723   16.5525    9.3744 N   0  0  0  0  0  0  0  0  0  0  0  0
   20.7107   16.3638    9.2794 H   0  0  0  0  0  0  0  0  0  0  0  0
   22.3851   15.7387   10.2656 C   0  0  0  0  0  0  0  0  0  0  0  0
   21.7296   15.3106   11.4012 C   0  0  0  0  0  0  0  0  0  0  0  0
   22.4047   14.5318   12.3256 C   0  0  0  0  0  0  0  0  0  0  0  0
   23.7239   14.2094   12.0558 C   0  0  0  0  0  0  0  0  0  0  0  0
   24.3773   14.6035   10.9516 N   0  0  0  0  0  0  0  0  0  0  0  0
   23.7072   15.3657   10.0819 C   0  0  0  0  0  0  0  0  0  0  0  0
 23 24  1  0  0  0
 24 25  1  0  0  0
 24 22  1  0  0  0
 22 21  1  0  0  0
 21 19  1  0  0  0
 19 16  1  0  0  0
 16 17  2  0  0  0
 16 18  2  0  0  0
 16 10  1  0  0  0
 10 11  1  0  0  0
 10 15  2  0  0  0
 11 12  2  0  0  0
 12 13  1  0  0  0
 13 14  2  0  0  0
 13  1  1  0  0  0
 14 15  1  0  0  0
  1  2  1  0  0  0
  1  6  2  0  0  0
  2  3  2  0  0  0
  3  4  1  0  0  0
  4  5  2  0  0  0
  4  7  1  0  0  0
  5  6  1  0  0  0
  5 26  1  0  0  0
 26 27  2  0  0  0
 26 28  1  0  0  0
 28 30  1  0  0  0
 30 31  1  0  0  0
 30 35  2  0  0  0
 31 32  2  0  0  0
 32 33  1  0  0  0
 33 34  2  0  0  0
 34 35  1  0  0  0
 19 20  1  0  0  0
 28 29  1  0  0  0
  7  8  1  0  0  0
  7  9  1  0  0  0
M  END
> <minimizedAffinity>
-7.75561

$$$$
4ACC_7YG_A_1387


 35 37  0  0  0  0  0  0  0  0999 V2000
   17.7778   18.7909    9.1741 C   0  0  0  0  0  0  0  0  0  0  0  0
   17.2479   19.7040    8.2855 C   0  0  0  0  0  0  0  0  0  0  0  0
   16.0214   20.2283    8.4047 N   0  0  0  0  0  0  0  0  0  0  0  0
   15.2930   19.7898    9.4467 C   0  0  0  0  0  0  0  0  0  0  0  0
   15.8019   18.8416   10.3188 C   0  0  0  0  0  0  0  0  0  0  0  0
   17.0463   18.3477   10.2126 N   0  0  0  0  0  0  0  0  0  0  0  0
   14.0187   20.3198    9.6357 N   0  0  0  0  0  0  0  0  0  0  0  0
   13.6678   20.9932    9.0092 H   0  0  0  0  0  0  0  0  0  0  0  0
   13.4691   20.0210   10.3959 H   0  0  0  0  0  0  0  0  0  0  0  0
   21.7308   17.2887    8.8068 C   0  0  0  0  0  0  0  0  0  0  0  0
   21.1205   17.3047   10.0524 C   0  0  0  0  0  0  0  0  0  0  0  0
   19.8422   17.8145   10.1732 C   0  0  0  0  0  0  0  0  0  0  0  0
   19.1483   18.3031    9.0717 C   0  0  0  0  0  0  0  0  0  0  0  0
   19.7821   18.2754    7.8414 C   0  0  0  0  0  0  0  0  0  0  0  0
   21.0662   17.7845    7.6984 C   0  0  0  0  0  0  0  0  0  0  0  0
   23.4053   16.6369    8.5973 S   0  0  0  0  0  0  0  0  0  0  0  0
   24.2601   17.3418    9.5367 O   0  0  0  0  0  0  0  0  0  0  0  0
   23.6475   16.6511    7.1715 O   0  0  0  0  0  0  0  0  0  0  0  0
   23.2241   15.0656    9.2446 N   0  0  0  0  0  0  0  0  0  0  0  0
   22.3197   14.7139    8.9304 H   0  0  0  0  0  0  0  0  0  0  0  0
   23.2723   14.8929   10.7069 C   0  0  0  0  0  0  0  0  0  0  0  0
   21.9682   14.2121   11.1065 C   0  0  0  0  0  0  0  0  0  0  0  0
   20.6926   15.2023   13.1237 C   0  0  0  0  0  0  0  0  0  0  0  0
   21.6920   14.2343   12.5878 N   0  0  0  0  0  0  0  0  0  0  0  0
   21.6914   12.9140   13.2760 C   0  0  0  0  0  0  0  0  0  0  0  0
   15.0182   18.3637   11.4819 C   0  0  0  0  0  0  0  0  0  0  0  0
   14.3574   19.1346   12.1612 O   0  0  0  0  0  0  0  0  0  0  0  0
   15.1745   17.0093   11.7070 N   0  0  0  0  0  0  0  0  0  0  0  0
   15.8513   16.5478   11.1609 H   0  0  0  0  0  0  0  0  0  0  0  0
   14.4720   16.2228   12.6302 C   0  0  0  0  0  0  0  0  0  0  0  0
   13.4125   15.4774   12.1563 C   0  0  0  0  0  0  0  0  0  0  0  0
   12.6696   14.7108   13.0379 C   0  0  0  0  0  0  0  0  0  0  0  0
   13.0382   14.7245   14.3724 C   0  0  0  0  0  0  0  0  0  0  0  0
   14.0730   15.4312   14.8534 N   0  0  0  0  0  0  0  0  0  0  0  0
   14.7653   16.1735   13.9838 C   0  0  0  0  0  0  0  0  0  0  0  0
 23 24  1  0  0  0
 24 25  1  0  0  0
 24 22  1  0  0  0
 22 21  1  0  0  0
 21 19  1  0  0  0
 19 16  1  0  0  0
 16 17  2  0  0  0
 16 18  2  0  0  0
 16 10  1  0  0  0
 10 11  1  0  0  0
 10 15  2  0  0  0
 11 12  2  0  0  0
 12 13  1  0  0  0
 13 14  2  0  0  0
 13  1  1  0  0  0
 14 15  1  0  0  0
  1  2  1  0  0  0
  1  6  2  0  0  0
  2  3  2  0  0  0
  3  4  1  0  0  0
  4  5  2  0  0  0
  4  7  1  0  0  0
  5  6  1  0  0  0
  5 26  1  0  0  0
 26 27  2  0  0  0
 26 28  1  0  0  0
 28 30  1  0  0  0
 30 31  1  0  0  0
 30 35  2  0  0  0
 31 32  2  0  0  0
 32 33  1  0  0  0
 33 34  2  0  0  0
 34 35  1  0  0  0
 19 20  1  0  0  0
 28 29  1  0  0  0
  7  8  1  0  0  0
  7  9  1  0  0  0
M  END
> <minimizedAffinity>
-7.68455

$$$$
4ACC_7YG_A_1387


 35 37  0  0  0  0  0  0  0  0999 V2000
   16.9783   18.2550    9.4177 C   0  0  0  0  0  0  0  0  0  0  0  0
   16.0863   19.2238    9.0053 C   0  0  0  0  0  0  0  0  0  0  0  0
   14.8706   19.3886    9.5422 N   0  0  0  0  0  0  0  0  0  0  0  0
   14.5340   18.5214   10.5134 C   0  0  0  0  0  0  0  0  0  0  0  0
   15.4072   17.5195   10.9036 C   0  0  0  0  0  0  0  0  0  0  0  0
   16.6386   17.3837   10.3848 N   0  0  0  0  0  0  0  0  0  0  0  0
   13.2910   18.6611   11.1266 N   0  0  0  0  0  0  0  0  0  0  0  0
   12.6788   19.3771   10.8407 H   0  0  0  0  0  0  0  0  0  0  0  0
   13.0248   18.0437   11.8458 H   0  0  0  0  0  0  0  0  0  0  0  0
   20.9519   17.9739    7.9517 C   0  0  0  0  0  0  0  0  0  0  0  0
   20.1362   19.0081    7.5165 C   0  0  0  0  0  0  0  0  0  0  0  0
   18.8363   19.0848    7.9780 C   0  0  0  0  0  0  0  0  0  0  0  0
   18.3293   18.1538    8.8780 C   0  0  0  0  0  0  0  0  0  0  0  0
   19.1654   17.1324    9.2946 C   0  0  0  0  0  0  0  0  0  0  0  0
   20.4645   17.0260    8.8349 C   0  0  0  0  0  0  0  0  0  0  0  0
   22.6594   17.8264    7.3726 S   0  0  0  0  0  0  0  0  0  0  0  0
   23.4212   18.8862    8.0102 O   0  0  0  0  0  0  0  0  0  0  0  0
   22.5679   17.6980    5.9350 O   0  0  0  0  0  0  0  0  0  0  0  0
   23.1442   16.3880    8.1582 N   0  0  0  0  0  0  0  0  0  0  0  0
   22.2951   15.9081    8.4567 H   0  0  0  0  0  0  0  0  0  0  0  0
   24.0233   16.4870    9.3363 C   0  0  0  0  0  0  0  0  0  0  0  0
   23.9966   15.1215   10.0133 C   0  0  0  0  0  0  0  0  0  0  0  0
   22.0076   15.5006   11.6185 C   0  0  0  0  0  0  0  0  0  0  0  0
   23.4398   15.1405   11.4135 N   0  0  0  0  0  0  0  0  0  0  0  0
   23.9399   14.0824   12.3340 C   0  0  0  0  0  0  0  0  0  0  0  0
   15.0575   16.5692   11.9853 C   0  0  0  0  0  0  0  0  0  0  0  0
   13.9358   16.0931   12.0730 O   0  0  0  0  0  0  0  0  0  0  0  0
   16.1048   16.3521   12.8603 N   0  0  0  0  0  0  0  0  0  0  0  0
   16.9025   16.9164   12.7403 H   0  0  0  0  0  0  0  0  0  0  0  0
   16.1520   15.4138   13.9004 C   0  0  0  0  0  0  0  0  0  0  0  0
   16.0434   15.8875   15.1913 C   0  0  0  0  0  0  0  0  0  0  0  0
   16.1174   15.0004   16.2517 C   0  0  0  0  0  0  0  0  0  0  0  0
   16.2915   13.6585   15.9584 C   0  0  0  0  0  0  0  0  0  0  0  0
   16.3861   13.1738   14.7104 N   0  0  0  0  0  0  0  0  0  0  0  0
   16.3254   14.0527   13.7052 C   0  0  0  0  0  0  0  0  0  0  0  0
 23 24  1  0  0  0
 24 25  1  0  0  0
 24 22  1  0  0  0
 22 21  1  0  0  0
 21 19  1  0  0  0
 19 16  1  0  0  0
 16 17  2  0  0  0
 16 18  2  0  0  0
 16 10  1  0  0  0
 10 11  1  0  0  0
 10 15  2  0  0  0
 11 12  2  0  0  0
 12 13  1  0  0  0
 13 14  2  0  0  0
 13  1  1  0  0  0
 14 15  1  0  0  0
  1  2  1  0  0  0
  1  6  2  0  0  0
  2  3  2  0  0  0
  3  4  1  0  0  0
  4  5  2  0  0  0
  4  7  1  0  0  0
  5  6  1  0  0  0
  5 26  1  0  0  0
 26 27  2  0  0  0
 26 28  1  0  0  0
 28 30  1  0  0  0
 30 31  1  0  0  0
 30 35  2  0  0  0
 31 32  2  0  0  0
 32 33  1  0  0  0
 33 34  2  0  0  0
 34 35  1  0  0  0
 19 20  1  0  0  0
 28 29  1  0  0  0
  7  8  1  0  0  0
  7  9  1  0  0  0
M  END
> <minimizedAffinity>
-7.65895

$$$$
4ACC_7YG_A_1387


 35 37  0  0  0  0  0  0  0  0999 V2000
   20.9056   16.2376   10.0185 C   0  0  0  0  0  0  0  0  0  0  0  0
   21.9410   16.7971    9.2979 C   0  0  0  0  0  0  0  0  0  0  0  0
   21.7979   17.8640    8.5014 N   0  0  0  0  0  0  0  0  0  0  0  0
   20.5537   18.3659    8.4083 C   0  0  0  0  0  0  0  0  0  0  0  0
   19.5010   17.7841    9.0952 C   0  0  0  0  0  0  0  0  0  0  0  0
   19.6600   16.7361    9.9201 N   0  0  0  0  0  0  0  0  0  0  0  0
   20.3498   19.4920    7.6141 N   0  0  0  0  0  0  0  0  0  0  0  0
   21.1059   19.8968    7.1306 H   0  0  0  0  0  0  0  0  0  0  0  0
   19.4497   19.8832    7.5363 H   0  0  0  0  0  0  0  0  0  0  0  0
   21.4099   13.0625   12.7901 C   0  0  0  0  0  0  0  0  0  0  0  0
   22.4766   13.9071   12.5195 C   0  0  0  0  0  0  0  0  0  0  0  0
   22.3166   14.9262   11.6006 C   0  0  0  0  0  0  0  0  0  0  0  0
   21.1062   15.1315   10.9474 C   0  0  0  0  0  0  0  0  0  0  0  0
   20.0595   14.2731   11.2365 C   0  0  0  0  0  0  0  0  0  0  0  0
   20.2002   13.2371   12.1404 C   0  0  0  0  0  0  0  0  0  0  0  0
   21.5705   11.7099   13.9807 S   0  0  0  0  0  0  0  0  0  0  0  0
   22.9842   11.5726   14.2851 O   0  0  0  0  0  0  0  0  0  0  0  0
   20.7884   10.6227   13.4350 O   0  0  0  0  0  0  0  0  0  0  0  0
   20.8770   12.4200   15.3722 N   0  0  0  0  0  0  0  0  0  0  0  0
   21.2925   11.9603   16.1825 H   0  0  0  0  0  0  0  0  0  0  0  0
   19.4149   12.3611   15.5426 C   0  0  0  0  0  0  0  0  0  0  0  0
   18.9762   13.7453   16.0067 C   0  0  0  0  0  0  0  0  0  0  0  0
   17.4476   15.1620   14.4794 C   0  0  0  0  0  0  0  0  0  0  0  0
   18.8189   14.7464   14.8913 N   0  0  0  0  0  0  0  0  0  0  0  0
   19.8276   15.8404   14.8431 C   0  0  0  0  0  0  0  0  0  0  0  0
   18.1289   18.3379    9.0173 C   0  0  0  0  0  0  0  0  0  0  0  0
   17.6044   18.5837    7.9417 O   0  0  0  0  0  0  0  0  0  0  0  0
   17.5796   18.5724   10.2634 N   0  0  0  0  0  0  0  0  0  0  0  0
   18.1777   18.4569   11.0368 H   0  0  0  0  0  0  0  0  0  0  0  0
   16.2612   18.9574   10.5433 C   0  0  0  0  0  0  0  0  0  0  0  0
   15.3474   17.9577   10.8046 C   0  0  0  0  0  0  0  0  0  0  0  0
   14.0266   18.2894   11.0543 C   0  0  0  0  0  0  0  0  0  0  0  0
   13.6847   19.6310   11.0369 C   0  0  0  0  0  0  0  0  0  0  0  0
   14.5594   20.6208   10.7984 N   0  0  0  0  0  0  0  0  0  0  0  0
   15.8251   20.2728   10.5469 C   0  0  0  0  0  0  0  0  0  0  0  0
 23 24  1  0  0  0
 24 25  1  0  0  0
 24 22  1  0  0  0
 22 21  1  0  0  0
 21 19  1  0  0  0
 19 16  1  0  0  0
 16 17  2  0  0  0
 16 18  2  0  0  0
 16 10  1  0  0  0
 10 11  1  0  0  0
 10 15  2  0  0  0
 11 12  2  0  0  0
 12 13  1  0  0  0
 13 14  2  0  0  0
 13  1  1  0  0  0
 14 15  1  0  0  0
  1  2  1  0  0  0
  1  6  2  0  0  0
  2  3  2  0  0  0
  3  4  1  0  0  0
  4  5  2  0  0  0
  4  7  1  0  0  0
  5  6  1  0  0  0
  5 26  1  0  0  0
 26 27  2  0  0  0
 26 28  1  0  0  0
 28 30  1  0  0  0
 30 31  1  0  0  0
 30 35  2  0  0  0
 31 32  2  0  0  0
 32 33  1  0  0  0
 33 34  2  0  0  0
 34 35  1  0  0  0
 19 20  1  0  0  0
 28 29  1  0  0  0
  7  8  1  0  0  0
  7  9  1  0  0  0
M  END
> <minimizedAffinity>
-7.63624

$$$$
4ACC_7YG_A_1387


 35 37  0  0  0  0  0  0  0  0999 V2000
   21.5329   15.2749   11.0129 C   0  0  0  0  0  0  0  0  0  0  0  0
   22.6890   15.0819   10.2846 C   0  0  0  0  0  0  0  0  0  0  0  0
   23.0646   15.8685    9.2681 N   0  0  0  0  0  0  0  0  0  0  0  0
   22.2237   16.8714    8.9586 C   0  0  0  0  0  0  0  0  0  0  0  0
   21.0407   17.0462    9.6574 C   0  0  0  0  0  0  0  0  0  0  0  0
   20.6889   16.2744   10.6988 N   0  0  0  0  0  0  0  0  0  0  0  0
   22.5755   17.7380    7.9262 N   0  0  0  0  0  0  0  0  0  0  0  0
   23.4190   17.6036    7.4367 H   0  0  0  0  0  0  0  0  0  0  0  0
   21.9805   18.4847    7.6861 H   0  0  0  0  0  0  0  0  0  0  0  0
   20.6011   12.9668   14.4512 C   0  0  0  0  0  0  0  0  0  0  0  0
   21.3102   12.3845   13.4109 C   0  0  0  0  0  0  0  0  0  0  0  0
   21.5931   13.1312   12.2834 C   0  0  0  0  0  0  0  0  0  0  0  0
   21.1918   14.4579   12.1718 C   0  0  0  0  0  0  0  0  0  0  0  0
   20.4854   15.0127   13.2249 C   0  0  0  0  0  0  0  0  0  0  0  0
   20.1771   14.2811   14.3563 C   0  0  0  0  0  0  0  0  0  0  0  0
   20.2009   12.0297   15.9461 S   0  0  0  0  0  0  0  0  0  0  0  0
   21.2450   12.3061   16.9174 O   0  0  0  0  0  0  0  0  0  0  0  0
   19.9037   10.6894   15.4913 O   0  0  0  0  0  0  0  0  0  0  0  0
   18.8289   12.8824   16.5046 N   0  0  0  0  0  0  0  0  0  0  0  0
   18.9434   13.0096   17.5101 H   0  0  0  0  0  0  0  0  0  0  0  0
   17.4951   12.2944   16.2910 C   0  0  0  0  0  0  0  0  0  0  0  0
   16.5173   13.4600   16.1962 C   0  0  0  0  0  0  0  0  0  0  0  0
   14.5296   14.3380   14.7981 C   0  0  0  0  0  0  0  0  0  0  0  0
   15.7911   13.5474   14.8786 N   0  0  0  0  0  0  0  0  0  0  0  0
   16.6451   13.6368   13.6623 C   0  0  0  0  0  0  0  0  0  0  0  0
   20.1141   18.1580    9.3401 C   0  0  0  0  0  0  0  0  0  0  0  0
   20.4825   19.1244    8.6897 O   0  0  0  0  0  0  0  0  0  0  0  0
   18.8620   17.9811    9.8971 N   0  0  0  0  0  0  0  0  0  0  0  0
   18.7584   17.2209   10.5142 H   0  0  0  0  0  0  0  0  0  0  0  0
   17.7237   18.7687    9.6770 C   0  0  0  0  0  0  0  0  0  0  0  0
   17.0928   19.2998   10.7827 C   0  0  0  0  0  0  0  0  0  0  0  0
   15.9461   20.0573   10.6152 C   0  0  0  0  0  0  0  0  0  0  0  0
   15.4866   20.2541    9.3241 C   0  0  0  0  0  0  0  0  0  0  0  0
   16.0915   19.7585    8.2332 N   0  0  0  0  0  0  0  0  0  0  0  0
   17.1888   19.0194    8.4233 C   0  0  0  0  0  0  0  0  0  0  0  0
 23 24  1  0  0  0
 24 25  1  0  0  0
 24 22  1  0  0  0
 22 21  1  0  0  0
 21 19  1  0  0  0
 19 16  1  0  0  0
 16 17  2  0  0  0
 16 18  2  0  0  0
 16 10  1  0  0  0
 10 11  1  0  0  0
 10 15  2  0  0  0
 11 12  2  0  0  0
 12 13  1  0  0  0
 13 14  2  0  0  0
 13  1  1  0  0  0
 14 15  1  0  0  0
  1  2  1  0  0  0
  1  6  2  0  0  0
  2  3  2  0  0  0
  3  4  1  0  0  0
  4  5  2  0  0  0
  4  7  1  0  0  0
  5  6  1  0  0  0
  5 26  1  0  0  0
 26 27  2  0  0  0
 26 28  1  0  0  0
 28 30  1  0  0  0
 30 31  1  0  0  0
 30 35  2  0  0  0
 31 32  2  0  0  0
 32 33  1  0  0  0
 33 34  2  0  0  0
 34 35  1  0  0  0
 19 20  1  0  0  0
 28 29  1  0  0  0
  7  8  1  0  0  0
  7  9  1  0  0  0
M  END
> <minimizedAffinity>
-7.50765

$$$$
4ACC_7YG_A_1387


 35 37  0  0  0  0  0  0  0  0999 V2000
   18.8898   18.8598    8.1823 C   0  0  0  0  0  0  0  0  0  0  0  0
   19.1639   19.5874    7.0423 C   0  0  0  0  0  0  0  0  0  0  0  0
   20.2947   19.4608    6.3363 N   0  0  0  0  0  0  0  0  0  0  0  0
   21.1945   18.5854    6.8188 C   0  0  0  0  0  0  0  0  0  0  0  0
   20.9449   17.8825    7.9858 C   0  0  0  0  0  0  0  0  0  0  0  0
   19.7929   17.9889    8.6681 N   0  0  0  0  0  0  0  0  0  0  0  0
   22.3790   18.3931    6.1113 N   0  0  0  0  0  0  0  0  0  0  0  0
   22.5452   18.8986    5.2829 H   0  0  0  0  0  0  0  0  0  0  0  0
   23.0498   17.7517    6.4395 H   0  0  0  0  0  0  0  0  0  0  0  0
   15.2041   19.0363   10.2804 C   0  0  0  0  0  0  0  0  0  0  0  0
   15.1986   18.8291    8.9088 C   0  0  0  0  0  0  0  0  0  0  0  0
   16.3984   18.7941    8.2248 C   0  0  0  0  0  0  0  0  0  0  0  0
   17.6137   18.9517    8.8821 C   0  0  0  0  0  0  0  0  0  0  0  0
   17.5889   19.1576   10.2507 C   0  0  0  0  0  0  0  0  0  0  0  0
   16.4005   19.2120   10.9541 C   0  0  0  0  0  0  0  0  0  0  0  0
   13.6597   19.0960   11.2206 S   0  0  0  0  0  0  0  0  0  0  0  0
   13.3062   17.7265   11.5514 O   0  0  0  0  0  0  0  0  0  0  0  0
   12.7813   19.9591   10.4622 O   0  0  0  0  0  0  0  0  0  0  0  0
   14.2001   19.7884   12.6867 N   0  0  0  0  0  0  0  0  0  0  0  0
   15.2135   19.6765   12.7160 H   0  0  0  0  0  0  0  0  0  0  0  0
   13.6689   19.2619   13.9560 C   0  0  0  0  0  0  0  0  0  0  0  0
   14.7300   18.3193   14.5125 C   0  0  0  0  0  0  0  0  0  0  0  0
   16.2426   17.9629   16.5768 C   0  0  0  0  0  0  0  0  0  0  0  0
   14.9656   18.4651   15.9938 N   0  0  0  0  0  0  0  0  0  0  0  0
   14.4617   19.7189   16.6190 C   0  0  0  0  0  0  0  0  0  0  0  0
   21.9186   16.9008    8.5185 C   0  0  0  0  0  0  0  0  0  0  0  0
   22.8948   16.5591    7.8683 O   0  0  0  0  0  0  0  0  0  0  0  0
   21.5576   16.4157    9.7610 N   0  0  0  0  0  0  0  0  0  0  0  0
   20.6698   16.6792   10.0952 H   0  0  0  0  0  0  0  0  0  0  0  0
   22.3210   15.5883   10.5959 C   0  0  0  0  0  0  0  0  0  0  0  0
   21.6452   14.6766   11.3800 C   0  0  0  0  0  0  0  0  0  0  0  0
   22.3560   13.8611   12.2440 C   0  0  0  0  0  0  0  0  0  0  0  0
   23.7335   13.9979   12.2726 C   0  0  0  0  0  0  0  0  0  0  0  0
   24.4127   14.8682   11.5094 N   0  0  0  0  0  0  0  0  0  0  0  0
   23.7019   15.6533   10.6940 C   0  0  0  0  0  0  0  0  0  0  0  0
 23 24  1  0  0  0
 24 25  1  0  0  0
 24 22  1  0  0  0
 22 21  1  0  0  0
 21 19  1  0  0  0
 19 16  1  0  0  0
 16 17  2  0  0  0
 16 18  2  0  0  0
 16 10  1  0  0  0
 10 11  1  0  0  0
 10 15  2  0  0  0
 11 12  2  0  0  0
 12 13  1  0  0  0
 13 14  2  0  0  0
 13  1  1  0  0  0
 14 15  1  0  0  0
  1  2  1  0  0  0
  1  6  2  0  0  0
  2  3  2  0  0  0
  3  4  1  0  0  0
  4  5  2  0  0  0
  4  7  1  0  0  0
  5  6  1  0  0  0
  5 26  1  0  0  0
 26 27  2  0  0  0
 26 28  1  0  0  0
 28 30  1  0  0  0
 30 31  1  0  0  0
 30 35  2  0  0  0
 31 32  2  0  0  0
 32 33  1  0  0  0
 33 34  2  0  0  0
 34 35  1  0  0  0
 19 20  1  0  0  0
 28 29  1  0  0  0
  7  8  1  0  0  0
  7  9  1  0  0  0
M  END
> <minimizedAffinity>
-7.40309

$$$$
