3BGB_LJG_B_2501


 40 41  0  0  0  0  0  0  0  0999 V2000
   13.3708  -18.8681  -17.3101 N   0  0  0  0  0  0  0  0  0  0  0  0
   12.7664  -19.5739  -16.8893 H   0  0  0  0  0  0  0  0  0  0  0  0
   12.5823  -18.0738  -18.2939 C   0  0  0  0  0  0  0  0  0  0  0  0
   11.1759  -17.6790  -17.8085 C   0  0  0  0  0  0  0  0  0  0  0  0
   10.1999  -18.7597  -17.7372 N   0  0  0  0  0  0  0  0  0  0  0  0
    9.9094  -19.4406  -16.2435 S   0  0  0  0  0  0  0  0  0  0  0  0
    8.7153  -20.2336  -16.3829 O   0  0  0  0  0  0  0  0  0  0  0  0
   11.1445  -19.9486  -15.7558 O   0  0  0  0  0  0  0  0  0  0  0  0
    9.4984  -18.0125  -15.2519 C   0  0  0  0  0  0  0  0  0  0  0  0
    7.8720  -16.3805  -14.5576 C   0  0  0  0  0  0  0  0  0  0  0  0
   10.1314  -16.3287  -13.6506 C   0  0  0  0  0  0  0  0  0  0  0  0
   10.4546  -17.4715  -14.3883 C   0  0  0  0  0  0  0  0  0  0  0  0
    8.8445  -15.7906  -13.7446 C   0  0  0  0  0  0  0  0  0  0  0  0
    8.5146  -14.6487  -12.9801 N   0  0  0  0  0  0  0  0  0  0  0  0
    8.2085  -17.4916  -15.3400 C   0  0  0  0  0  0  0  0  0  0  0  0
    7.6114  -14.2614  -13.0384 H   0  0  0  0  0  0  0  0  0  0  0  0
    9.1880  -14.2406  -12.3891 H   0  0  0  0  0  0  0  0  0  0  0  0
    9.4276  -19.2846  -18.8600 C   0  0  0  0  0  0  0  0  0  0  0  0
    7.8131  -17.3654  -19.3145 C   0  0  0  0  0  0  0  0  0  0  0  0
    8.9368  -18.2561  -19.9236 C   0  0  0  0  0  0  0  0  0  0  0  0
    8.3972  -18.9841  -21.1812 C   0  0  0  0  0  0  0  0  0  0  0  0
   14.5202  -19.5430  -17.9730 C   0  0  0  0  0  0  0  0  0  0  0  0
   14.8270  -20.9588  -17.4692 C   0  0  0  0  0  0  0  0  0  0  0  0
   13.7966  -21.9190  -17.1215 N   0  0  0  0  0  0  0  0  0  0  0  0
   12.8026  -22.4769  -18.3138 S   0  0  0  0  0  0  0  0  0  0  0  0
   11.9339  -23.4311  -17.6398 O   0  0  0  0  0  0  0  0  0  0  0  0
   12.1799  -21.4640  -19.1225 O   0  0  0  0  0  0  0  0  0  0  0  0
   14.2418  -23.0048  -20.6437 C   0  0  0  0  0  0  0  0  0  0  0  0
   13.9661  -23.3702  -19.3209 C   0  0  0  0  0  0  0  0  0  0  0  0
   14.6290  -24.4530  -18.7352 C   0  0  0  0  0  0  0  0  0  0  0  0
   15.5425  -25.1937  -19.4883 C   0  0  0  0  0  0  0  0  0  0  0  0
   15.8013  -24.8502  -20.8171 C   0  0  0  0  0  0  0  0  0  0  0  0
   16.7114  -25.6259  -21.5692 N   0  0  0  0  0  0  0  0  0  0  0  0
   15.1827  -23.7287  -21.3802 C   0  0  0  0  0  0  0  0  0  0  0  0
   17.1407  -26.4130  -21.1625 H   0  0  0  0  0  0  0  0  0  0  0  0
   16.9163  -25.3794  -22.5001 H   0  0  0  0  0  0  0  0  0  0  0  0
   13.6675  -22.3934  -15.7186 C   0  0  0  0  0  0  0  0  0  0  0  0
   13.6472  -21.4753  -13.3365 C   0  0  0  0  0  0  0  0  0  0  0  0
   14.5275  -21.7397  -14.5883 C   0  0  0  0  0  0  0  0  0  0  0  0
   15.7109  -22.6786  -14.2062 C   0  0  0  0  0  0  0  0  0  0  0  0
  1  3  1  0  0  0
  1 22  1  0  0  0
  3  4  1  0  0  0
  4  5  1  0  0  0
 18  5  1  0  0  0
 18 20  1  0  0  0
 19 20  1  0  0  0
  9  6  1  0  0  0
  9 12  2  0  0  0
  9 15  1  0  0  0
 10 13  1  0  0  0
 10 15  2  0  0  0
 11 12  1  0  0  0
 11 13  2  0  0  0
 37 24  1  0  0  0
 37 39  1  0  0  0
 38 39  1  0  0  0
 28 29  2  0  0  0
 28 34  1  0  0  0
 22 23  1  0  0  0
 23 24  1  0  0  0
 24 25  1  0  0  0
 25 26  2  0  0  0
 25 27  2  0  0  0
 25 29  1  0  0  0
 29 30  1  0  0  0
 30 31  2  0  0  0
 31 32  1  0  0  0
 32 33  1  0  0  0
 32 34  2  0  0  0
 39 40  1  0  0  0
  5  6  1  0  0  0
  6  7  2  0  0  0
  6  8  2  0  0  0
 13 14  1  0  0  0
 20 21  1  0  0  0
  1  2  1  0  0  0
 33 35  1  0  0  0
 33 36  1  0  0  0
 14 16  1  0  0  0
 14 17  1  0  0  0
M  END
> <minimizedAffinity>
-8.26541

$$$$
3BGB_LJG_B_2501


 40 41  0  0  0  0  0  0  0  0999 V2000
    8.4191  -19.4189  -15.8370 N   0  0  0  0  0  0  0  0  0  0  0  0
    8.1296  -19.0741  -16.7522 H   0  0  0  0  0  0  0  0  0  0  0  0
    7.8246  -18.5540  -14.7791 C   0  0  0  0  0  0  0  0  0  0  0  0
    6.8672  -17.4714  -15.3088 C   0  0  0  0  0  0  0  0  0  0  0  0
    7.4867  -16.3827  -16.0548 N   0  0  0  0  0  0  0  0  0  0  0  0
    6.7852  -15.9400  -17.5008 S   0  0  0  0  0  0  0  0  0  0  0  0
    5.3639  -16.0961  -17.3284 O   0  0  0  0  0  0  0  0  0  0  0  0
    7.4032  -14.7320  -17.9257 O   0  0  0  0  0  0  0  0  0  0  0  0
    7.3425  -17.2324  -18.6010 C   0  0  0  0  0  0  0  0  0  0  0  0
    9.0904  -18.1748  -19.9605 C   0  0  0  0  0  0  0  0  0  0  0  0
    6.9270  -19.2808  -19.7976 C   0  0  0  0  0  0  0  0  0  0  0  0
    6.4918  -18.2994  -18.9019 C   0  0  0  0  0  0  0  0  0  0  0  0
    8.2208  -19.2079  -20.3223 C   0  0  0  0  0  0  0  0  0  0  0  0
    8.6650  -20.2141  -21.2097 N   0  0  0  0  0  0  0  0  0  0  0  0
    8.6390  -17.1603  -19.1076 C   0  0  0  0  0  0  0  0  0  0  0  0
    9.5741  -20.1728  -21.5852 H   0  0  0  0  0  0  0  0  0  0  0  0
    8.0654  -20.9563  -21.4523 H   0  0  0  0  0  0  0  0  0  0  0  0
    8.6590  -15.6209  -15.6328 C   0  0  0  0  0  0  0  0  0  0  0  0
    8.7398  -15.2877  -13.1071 C   0  0  0  0  0  0  0  0  0  0  0  0
    8.4583  -14.5969  -14.4748 C   0  0  0  0  0  0  0  0  0  0  0  0
    7.0135  -14.0353  -14.4846 C   0  0  0  0  0  0  0  0  0  0  0  0
    9.9056  -19.4064  -15.7589 C   0  0  0  0  0  0  0  0  0  0  0  0
   10.6326  -19.5832  -17.0978 C   0  0  0  0  0  0  0  0  0  0  0  0
   11.5730  -20.6573  -17.3555 N   0  0  0  0  0  0  0  0  0  0  0  0
   10.9957  -22.0904  -17.9334 S   0  0  0  0  0  0  0  0  0  0  0  0
   10.6927  -22.8637  -16.7378 O   0  0  0  0  0  0  0  0  0  0  0  0
    9.9704  -21.9836  -18.9360 O   0  0  0  0  0  0  0  0  0  0  0  0
   13.2015  -23.7884  -18.1050 C   0  0  0  0  0  0  0  0  0  0  0  0
   12.4623  -22.7542  -18.6911 C   0  0  0  0  0  0  0  0  0  0  0  0
   12.8496  -22.2214  -19.9244 C   0  0  0  0  0  0  0  0  0  0  0  0
   14.0007  -22.7003  -20.5536 C   0  0  0  0  0  0  0  0  0  0  0  0
   14.7572  -23.7134  -19.9601 C   0  0  0  0  0  0  0  0  0  0  0  0
   15.9311  -24.1682  -20.6011 N   0  0  0  0  0  0  0  0  0  0  0  0
   14.3322  -24.2868  -18.7568 C   0  0  0  0  0  0  0  0  0  0  0  0
   16.2205  -23.7571  -21.4476 H   0  0  0  0  0  0  0  0  0  0  0  0
   16.4597  -24.8962  -20.2013 H   0  0  0  0  0  0  0  0  0  0  0  0
   13.0249  -20.4456  -17.1166 C   0  0  0  0  0  0  0  0  0  0  0  0
   13.0367  -21.2467  -14.6925 C   0  0  0  0  0  0  0  0  0  0  0  0
   13.5467  -20.1545  -15.6718 C   0  0  0  0  0  0  0  0  0  0  0  0
   15.1046  -20.1291  -15.6610 C   0  0  0  0  0  0  0  0  0  0  0  0
  1  3  1  0  0  0
  1 22  1  0  0  0
  3  4  1  0  0  0
  4  5  1  0  0  0
 18  5  1  0  0  0
 18 20  1  0  0  0
 19 20  1  0  0  0
  9  6  1  0  0  0
  9 12  2  0  0  0
  9 15  1  0  0  0
 10 13  1  0  0  0
 10 15  2  0  0  0
 11 12  1  0  0  0
 11 13  2  0  0  0
 37 24  1  0  0  0
 37 39  1  0  0  0
 38 39  1  0  0  0
 28 29  2  0  0  0
 28 34  1  0  0  0
 22 23  1  0  0  0
 23 24  1  0  0  0
 24 25  1  0  0  0
 25 26  2  0  0  0
 25 27  2  0  0  0
 25 29  1  0  0  0
 29 30  1  0  0  0
 30 31  2  0  0  0
 31 32  1  0  0  0
 32 33  1  0  0  0
 32 34  2  0  0  0
 39 40  1  0  0  0
  5  6  1  0  0  0
  6  7  2  0  0  0
  6  8  2  0  0  0
 13 14  1  0  0  0
 20 21  1  0  0  0
  1  2  1  0  0  0
 33 35  1  0  0  0
 33 36  1  0  0  0
 14 16  1  0  0  0
 14 17  1  0  0  0
M  END
> <minimizedAffinity>
-8.23347

$$$$
3BGB_LJG_B_2501


 40 41  0  0  0  0  0  0  0  0999 V2000
   10.1676  -22.2765  -18.0496 N   0  0  0  0  0  0  0  0  0  0  0  0
   10.7775  -22.2231  -18.8655 H   0  0  0  0  0  0  0  0  0  0  0  0
    9.1980  -21.1456  -18.0902 C   0  0  0  0  0  0  0  0  0  0  0  0
    9.5181  -20.0002  -17.1130 C   0  0  0  0  0  0  0  0  0  0  0  0
   10.2029  -18.8473  -17.6852 N   0  0  0  0  0  0  0  0  0  0  0  0
   11.3424  -18.0791  -16.7415 S   0  0  0  0  0  0  0  0  0  0  0  0
   11.8882  -19.0826  -15.8645 O   0  0  0  0  0  0  0  0  0  0  0  0
   12.1306  -17.2636  -17.5989 O   0  0  0  0  0  0  0  0  0  0  0  0
   10.3356  -16.9844  -15.7517 C   0  0  0  0  0  0  0  0  0  0  0  0
    8.4653  -15.4784  -15.5940 C   0  0  0  0  0  0  0  0  0  0  0  0
    9.8394  -15.9425  -13.6379 C   0  0  0  0  0  0  0  0  0  0  0  0
   10.6097  -16.8348  -14.3897 C   0  0  0  0  0  0  0  0  0  0  0  0
    8.7767  -15.2689  -14.2472 C   0  0  0  0  0  0  0  0  0  0  0  0
    7.9862  -14.3849  -13.4786 N   0  0  0  0  0  0  0  0  0  0  0  0
    9.2686  -16.3286  -16.3635 C   0  0  0  0  0  0  0  0  0  0  0  0
    7.2353  -13.9053  -13.8973 H   0  0  0  0  0  0  0  0  0  0  0  0
    8.1865  -14.2487  -12.5243 H   0  0  0  0  0  0  0  0  0  0  0  0
    9.9990  -18.3178  -19.0308 C   0  0  0  0  0  0  0  0  0  0  0  0
    8.5960  -18.9736  -21.0551 C   0  0  0  0  0  0  0  0  0  0  0  0
    8.5537  -18.3939  -19.6098 C   0  0  0  0  0  0  0  0  0  0  0  0
    7.8984  -16.9894  -19.6333 C   0  0  0  0  0  0  0  0  0  0  0  0
   10.9981  -22.2189  -16.8155 C   0  0  0  0  0  0  0  0  0  0  0  0
   12.4563  -22.6623  -16.9868 C   0  0  0  0  0  0  0  0  0  0  0  0
   13.5690  -21.7328  -17.0352 N   0  0  0  0  0  0  0  0  0  0  0  0
   13.9284  -21.0056  -18.4715 S   0  0  0  0  0  0  0  0  0  0  0  0
   12.6346  -20.8160  -19.1116 O   0  0  0  0  0  0  0  0  0  0  0  0
   14.8028  -19.8673  -18.3853 O   0  0  0  0  0  0  0  0  0  0  0  0
   15.9364  -22.9197  -18.7583 C   0  0  0  0  0  0  0  0  0  0  0  0
   14.7921  -22.3224  -19.2998 C   0  0  0  0  0  0  0  0  0  0  0  0
   14.2719  -22.7698  -20.5179 C   0  0  0  0  0  0  0  0  0  0  0  0
   14.9208  -23.7927  -21.2128 C   0  0  0  0  0  0  0  0  0  0  0  0
   16.0784  -24.3738  -20.6904 C   0  0  0  0  0  0  0  0  0  0  0  0
   16.7333  -25.3912  -21.4195 N   0  0  0  0  0  0  0  0  0  0  0  0
   16.5605  -23.9662  -19.4418 C   0  0  0  0  0  0  0  0  0  0  0  0
   16.3850  -25.6699  -22.2971 H   0  0  0  0  0  0  0  0  0  0  0  0
   17.5380  -25.8216  -21.0500 H   0  0  0  0  0  0  0  0  0  0  0  0
   14.3448  -21.4394  -15.8016 C   0  0  0  0  0  0  0  0  0  0  0  0
   15.4952  -22.9292  -14.0767 C   0  0  0  0  0  0  0  0  0  0  0  0
   14.1406  -22.3132  -14.5213 C   0  0  0  0  0  0  0  0  0  0  0  0
   13.5584  -21.4430  -13.3674 C   0  0  0  0  0  0  0  0  0  0  0  0
  1  3  1  0  0  0
  1 22  1  0  0  0
  3  4  1  0  0  0
  4  5  1  0  0  0
 18  5  1  0  0  0
 18 20  1  0  0  0
 19 20  1  0  0  0
  9  6  1  0  0  0
  9 12  2  0  0  0
  9 15  1  0  0  0
 10 13  1  0  0  0
 10 15  2  0  0  0
 11 12  1  0  0  0
 11 13  2  0  0  0
 37 24  1  0  0  0
 37 39  1  0  0  0
 38 39  1  0  0  0
 28 29  2  0  0  0
 28 34  1  0  0  0
 22 23  1  0  0  0
 23 24  1  0  0  0
 24 25  1  0  0  0
 25 26  2  0  0  0
 25 27  2  0  0  0
 25 29  1  0  0  0
 29 30  1  0  0  0
 30 31  2  0  0  0
 31 32  1  0  0  0
 32 33  1  0  0  0
 32 34  2  0  0  0
 39 40  1  0  0  0
  5  6  1  0  0  0
  6  7  2  0  0  0
  6  8  2  0  0  0
 13 14  1  0  0  0
 20 21  1  0  0  0
  1  2  1  0  0  0
 33 35  1  0  0  0
 33 36  1  0  0  0
 14 16  1  0  0  0
 14 17  1  0  0  0
M  END
> <minimizedAffinity>
-8.18543

$$$$
3BGB_LJG_B_2501


 40 41  0  0  0  0  0  0  0  0999 V2000
   12.1970  -17.8244  -16.0370 N   0  0  0  0  0  0  0  0  0  0  0  0
   11.6962  -17.6233  -15.1715 H   0  0  0  0  0  0  0  0  0  0  0  0
   11.3775  -17.3640  -17.1934 C   0  0  0  0  0  0  0  0  0  0  0  0
    9.9419  -16.9465  -16.8272 C   0  0  0  0  0  0  0  0  0  0  0  0
    9.1015  -17.9906  -16.2534 N   0  0  0  0  0  0  0  0  0  0  0  0
    8.6982  -17.8585  -14.6413 S   0  0  0  0  0  0  0  0  0  0  0  0
    7.8472  -18.9809  -14.3412 O   0  0  0  0  0  0  0  0  0  0  0  0
    9.8877  -17.5532  -13.9248 O   0  0  0  0  0  0  0  0  0  0  0  0
    7.6822  -16.3892  -14.6264 C   0  0  0  0  0  0  0  0  0  0  0  0
    5.7072  -15.2375  -15.3776 C   0  0  0  0  0  0  0  0  0  0  0  0
    7.2664  -14.1442  -13.8598 C   0  0  0  0  0  0  0  0  0  0  0  0
    8.0489  -15.3024  -13.8281 C   0  0  0  0  0  0  0  0  0  0  0  0
    6.1047  -14.1201  -14.6372 C   0  0  0  0  0  0  0  0  0  0  0  0
    5.3042  -12.9556  -14.6488 N   0  0  0  0  0  0  0  0  0  0  0  0
    6.5176  -16.3791  -15.3923 C   0  0  0  0  0  0  0  0  0  0  0  0
    4.4840  -12.9275  -15.1927 H   0  0  0  0  0  0  0  0  0  0  0  0
    5.5666  -12.1725  -14.1131 H   0  0  0  0  0  0  0  0  0  0  0  0
    8.5543  -19.1356  -16.9760 C   0  0  0  0  0  0  0  0  0  0  0  0
    6.9404  -18.2135  -18.7199 C   0  0  0  0  0  0  0  0  0  0  0  0
    8.2950  -18.9513  -18.5019 C   0  0  0  0  0  0  0  0  0  0  0  0
    8.2596  -20.3239  -19.2212 C   0  0  0  0  0  0  0  0  0  0  0  0
   12.4576  -19.2876  -16.1209 C   0  0  0  0  0  0  0  0  0  0  0  0
   12.7299  -19.8239  -17.5319 C   0  0  0  0  0  0  0  0  0  0  0  0
   13.3451  -21.1126  -17.7870 N   0  0  0  0  0  0  0  0  0  0  0  0
   12.3988  -22.3421  -18.3471 S   0  0  0  0  0  0  0  0  0  0  0  0
   11.9713  -23.0425  -17.1446 O   0  0  0  0  0  0  0  0  0  0  0  0
   11.3846  -21.9593  -19.2918 O   0  0  0  0  0  0  0  0  0  0  0  0
   14.1568  -22.9577  -20.4228 C   0  0  0  0  0  0  0  0  0  0  0  0
   13.6125  -23.3339  -19.1892 C   0  0  0  0  0  0  0  0  0  0  0  0
   14.0343  -24.5095  -18.5610 C   0  0  0  0  0  0  0  0  0  0  0  0
   14.9762  -25.3284  -19.1874 C   0  0  0  0  0  0  0  0  0  0  0  0
   15.5025  -24.9717  -20.4310 C   0  0  0  0  0  0  0  0  0  0  0  0
   16.4368  -25.8251  -21.0590 N   0  0  0  0  0  0  0  0  0  0  0  0
   15.1244  -23.7639  -21.0273 C   0  0  0  0  0  0  0  0  0  0  0  0
   16.6954  -26.6726  -20.6300 H   0  0  0  0  0  0  0  0  0  0  0  0
   16.8293  -25.5723  -21.9258 H   0  0  0  0  0  0  0  0  0  0  0  0
   14.8029  -21.2966  -17.5614 C   0  0  0  0  0  0  0  0  0  0  0  0
   16.5202  -22.7754  -16.3859 C   0  0  0  0  0  0  0  0  0  0  0  0
   15.3232  -21.8079  -16.1785 C   0  0  0  0  0  0  0  0  0  0  0  0
   15.7712  -20.6035  -15.2973 C   0  0  0  0  0  0  0  0  0  0  0  0
  1  3  1  0  0  0
  1 22  1  0  0  0
  3  4  1  0  0  0
  4  5  1  0  0  0
 18  5  1  0  0  0
 18 20  1  0  0  0
 19 20  1  0  0  0
  9  6  1  0  0  0
  9 12  2  0  0  0
  9 15  1  0  0  0
 10 13  1  0  0  0
 10 15  2  0  0  0
 11 12  1  0  0  0
 11 13  2  0  0  0
 37 24  1  0  0  0
 37 39  1  0  0  0
 38 39  1  0  0  0
 28 29  2  0  0  0
 28 34  1  0  0  0
 22 23  1  0  0  0
 23 24  1  0  0  0
 24 25  1  0  0  0
 25 26  2  0  0  0
 25 27  2  0  0  0
 25 29  1  0  0  0
 29 30  1  0  0  0
 30 31  2  0  0  0
 31 32  1  0  0  0
 32 33  1  0  0  0
 32 34  2  0  0  0
 39 40  1  0  0  0
  5  6  1  0  0  0
  6  7  2  0  0  0
  6  8  2  0  0  0
 13 14  1  0  0  0
 20 21  1  0  0  0
  1  2  1  0  0  0
 33 35  1  0  0  0
 33 36  1  0  0  0
 14 16  1  0  0  0
 14 17  1  0  0  0
M  END
> <minimizedAffinity>
-8.18425

$$$$
3BGB_LJG_B_2501


 40 41  0  0  0  0  0  0  0  0999 V2000
   12.0532  -17.2443  -17.7710 N   0  0  0  0  0  0  0  0  0  0  0  0
   11.4206  -16.9400  -18.5109 H   0  0  0  0  0  0  0  0  0  0  0  0
   12.5622  -18.6072  -18.0937 C   0  0  0  0  0  0  0  0  0  0  0  0
   11.4610  -19.6605  -18.3110 C   0  0  0  0  0  0  0  0  0  0  0  0
   11.4431  -20.7684  -17.3636 N   0  0  0  0  0  0  0  0  0  0  0  0
   10.9805  -22.2650  -17.9339 S   0  0  0  0  0  0  0  0  0  0  0  0
   10.7347  -23.0841  -16.7752 O   0  0  0  0  0  0  0  0  0  0  0  0
   10.0304  -22.0544  -18.9705 O   0  0  0  0  0  0  0  0  0  0  0  0
   12.4802  -22.8542  -18.7054 C   0  0  0  0  0  0  0  0  0  0  0  0
   14.1050  -22.6660  -20.4705 C   0  0  0  0  0  0  0  0  0  0  0  0
   14.3422  -24.3809  -18.7579 C   0  0  0  0  0  0  0  0  0  0  0  0
   13.1936  -23.9032  -18.1195 C   0  0  0  0  0  0  0  0  0  0  0  0
   14.7857  -23.7610  -19.9299 C   0  0  0  0  0  0  0  0  0  0  0  0
   15.9597  -24.2321  -20.5598 N   0  0  0  0  0  0  0  0  0  0  0  0
   12.9238  -22.2207  -19.8650 C   0  0  0  0  0  0  0  0  0  0  0  0
   16.2813  -23.8031  -21.3856 H   0  0  0  0  0  0  0  0  0  0  0  0
   16.4561  -24.9891  -20.1729 H   0  0  0  0  0  0  0  0  0  0  0  0
   11.8235  -20.6906  -15.9558 C   0  0  0  0  0  0  0  0  0  0  0  0
   13.3252  -21.3173  -13.9940 C   0  0  0  0  0  0  0  0  0  0  0  0
   13.1428  -21.4084  -15.5385 C   0  0  0  0  0  0  0  0  0  0  0  0
   14.3635  -20.7642  -16.2439 C   0  0  0  0  0  0  0  0  0  0  0  0
   11.3225  -17.2444  -16.4741 C   0  0  0  0  0  0  0  0  0  0  0  0
    9.8374  -16.8709  -16.5598 C   0  0  0  0  0  0  0  0  0  0  0  0
    8.7711  -17.7431  -16.1052 N   0  0  0  0  0  0  0  0  0  0  0  0
    8.2734  -17.6303  -14.5366 S   0  0  0  0  0  0  0  0  0  0  0  0
    7.4043  -18.7835  -14.3519 O   0  0  0  0  0  0  0  0  0  0  0  0
    9.3183  -17.4214  -13.5710 O   0  0  0  0  0  0  0  0  0  0  0  0
    7.6378  -14.9747  -13.9695 C   0  0  0  0  0  0  0  0  0  0  0  0
    7.2716  -16.1619  -14.6143 C   0  0  0  0  0  0  0  0  0  0  0  0
    6.0984  -16.2201  -15.3725 C   0  0  0  0  0  0  0  0  0  0  0  0
    5.2717  -15.0976  -15.4543 C   0  0  0  0  0  0  0  0  0  0  0  0
    5.6184  -13.9185  -14.7907 C   0  0  0  0  0  0  0  0  0  0  0  0
    4.7574  -12.8011  -14.8667 N   0  0  0  0  0  0  0  0  0  0  0  0
    6.8239  -13.8450  -14.0843 C   0  0  0  0  0  0  0  0  0  0  0  0
    3.9117  -12.8645  -15.3666 H   0  0  0  0  0  0  0  0  0  0  0  0
    5.0032  -11.9591  -14.4198 H   0  0  0  0  0  0  0  0  0  0  0  0
    8.1391  -18.6983  -17.0529 C   0  0  0  0  0  0  0  0  0  0  0  0
    7.6904  -19.5953  -19.4007 C   0  0  0  0  0  0  0  0  0  0  0  0
    7.9946  -18.3229  -18.5637 C   0  0  0  0  0  0  0  0  0  0  0  0
    6.8450  -17.2877  -18.7498 C   0  0  0  0  0  0  0  0  0  0  0  0
  1  3  1  0  0  0
  1 22  1  0  0  0
  3  4  1  0  0  0
  4  5  1  0  0  0
 18  5  1  0  0  0
 18 20  1  0  0  0
 19 20  1  0  0  0
  9  6  1  0  0  0
  9 12  2  0  0  0
  9 15  1  0  0  0
 10 13  1  0  0  0
 10 15  2  0  0  0
 11 12  1  0  0  0
 11 13  2  0  0  0
 37 24  1  0  0  0
 37 39  1  0  0  0
 38 39  1  0  0  0
 28 29  2  0  0  0
 28 34  1  0  0  0
 22 23  1  0  0  0
 23 24  1  0  0  0
 24 25  1  0  0  0
 25 26  2  0  0  0
 25 27  2  0  0  0
 25 29  1  0  0  0
 29 30  1  0  0  0
 30 31  2  0  0  0
 31 32  1  0  0  0
 32 33  1  0  0  0
 32 34  2  0  0  0
 39 40  1  0  0  0
  5  6  1  0  0  0
  6  7  2  0  0  0
  6  8  2  0  0  0
 13 14  1  0  0  0
 20 21  1  0  0  0
  1  2  1  0  0  0
 33 35  1  0  0  0
 33 36  1  0  0  0
 14 16  1  0  0  0
 14 17  1  0  0  0
M  END
> <minimizedAffinity>
-8.17980

$$$$
3BGB_LJG_B_2501


 40 41  0  0  0  0  0  0  0  0999 V2000
   10.5282  -21.6493  -17.9899 N   0  0  0  0  0  0  0  0  0  0  0  0
   10.4292  -22.0785  -18.9099 H   0  0  0  0  0  0  0  0  0  0  0  0
   11.1308  -22.6384  -17.0522 C   0  0  0  0  0  0  0  0  0  0  0  0
   12.5248  -23.1403  -17.4694 C   0  0  0  0  0  0  0  0  0  0  0  0
   13.5851  -22.1396  -17.4810 N   0  0  0  0  0  0  0  0  0  0  0  0
   14.1772  -21.6590  -18.9634 S   0  0  0  0  0  0  0  0  0  0  0  0
   13.0716  -21.7239  -19.8840 O   0  0  0  0  0  0  0  0  0  0  0  0
   14.9654  -20.4944  -18.7537 O   0  0  0  0  0  0  0  0  0  0  0  0
   15.2991  -22.9885  -19.3699 C   0  0  0  0  0  0  0  0  0  0  0  0
   17.2539  -24.2804  -18.8213 C   0  0  0  0  0  0  0  0  0  0  0  0
   15.9701  -24.7838  -20.8284 C   0  0  0  0  0  0  0  0  0  0  0  0
   15.0599  -23.7745  -20.5003 C   0  0  0  0  0  0  0  0  0  0  0  0
   17.0613  -25.0254  -19.9885 C   0  0  0  0  0  0  0  0  0  0  0  0
   17.9666  -26.0614  -20.3114 N   0  0  0  0  0  0  0  0  0  0  0  0
   16.3759  -23.2326  -18.5190 C   0  0  0  0  0  0  0  0  0  0  0  0
   18.7385  -26.2404  -19.7272 H   0  0  0  0  0  0  0  0  0  0  0  0
   17.8253  -26.6042  -21.1205 H   0  0  0  0  0  0  0  0  0  0  0  0
   14.1602  -21.4953  -16.3034 C   0  0  0  0  0  0  0  0  0  0  0  0
   13.7244  -21.7358  -13.8037 C   0  0  0  0  0  0  0  0  0  0  0  0
   14.3925  -22.3912  -15.0491 C   0  0  0  0  0  0  0  0  0  0  0  0
   15.9080  -22.5813  -14.7849 C   0  0  0  0  0  0  0  0  0  0  0  0
    9.1892  -21.2109  -17.5097 C   0  0  0  0  0  0  0  0  0  0  0  0
    9.0632  -19.7141  -17.1994 C   0  0  0  0  0  0  0  0  0  0  0  0
    9.9325  -18.7069  -17.7775 N   0  0  0  0  0  0  0  0  0  0  0  0
   11.1313  -18.0675  -16.8419 S   0  0  0  0  0  0  0  0  0  0  0  0
   11.6032  -19.1912  -16.0457 O   0  0  0  0  0  0  0  0  0  0  0  0
   12.1146  -17.2893  -17.5455 O   0  0  0  0  0  0  0  0  0  0  0  0
    9.1370  -16.1973  -16.2914 C   0  0  0  0  0  0  0  0  0  0  0  0
   10.1881  -16.9788  -15.7976 C   0  0  0  0  0  0  0  0  0  0  0  0
   10.5156  -16.9434  -14.4388 C   0  0  0  0  0  0  0  0  0  0  0  0
    9.8127  -16.0955  -13.5801 C   0  0  0  0  0  0  0  0  0  0  0  0
    8.7808  -15.2933  -14.0725 C   0  0  0  0  0  0  0  0  0  0  0  0
    8.0972  -14.4252  -13.1924 N   0  0  0  0  0  0  0  0  0  0  0  0
    8.4152  -15.3776  -15.4204 C   0  0  0  0  0  0  0  0  0  0  0  0
    8.3633  -14.3742  -12.2459 H   0  0  0  0  0  0  0  0  0  0  0  0
    7.3547  -13.8712  -13.5255 H   0  0  0  0  0  0  0  0  0  0  0  0
    9.7442  -18.2869  -19.1910 C   0  0  0  0  0  0  0  0  0  0  0  0
    7.5137  -17.1152  -19.6032 C   0  0  0  0  0  0  0  0  0  0  0  0
    8.3374  -18.4060  -19.8628 C   0  0  0  0  0  0  0  0  0  0  0  0
    8.4946  -18.6259  -21.3973 C   0  0  0  0  0  0  0  0  0  0  0  0
  1  3  1  0  0  0
  1 22  1  0  0  0
  3  4  1  0  0  0
  4  5  1  0  0  0
 18  5  1  0  0  0
 18 20  1  0  0  0
 19 20  1  0  0  0
  9  6  1  0  0  0
  9 12  2  0  0  0
  9 15  1  0  0  0
 10 13  1  0  0  0
 10 15  2  0  0  0
 11 12  1  0  0  0
 11 13  2  0  0  0
 37 24  1  0  0  0
 37 39  1  0  0  0
 38 39  1  0  0  0
 28 29  2  0  0  0
 28 34  1  0  0  0
 22 23  1  0  0  0
 23 24  1  0  0  0
 24 25  1  0  0  0
 25 26  2  0  0  0
 25 27  2  0  0  0
 25 29  1  0  0  0
 29 30  1  0  0  0
 30 31  2  0  0  0
 31 32  1  0  0  0
 32 33  1  0  0  0
 32 34  2  0  0  0
 39 40  1  0  0  0
  5  6  1  0  0  0
  6  7  2  0  0  0
  6  8  2  0  0  0
 13 14  1  0  0  0
 20 21  1  0  0  0
  1  2  1  0  0  0
 33 35  1  0  0  0
 33 36  1  0  0  0
 14 16  1  0  0  0
 14 17  1  0  0  0
M  END
> <minimizedAffinity>
-8.16706

$$$$
3BGB_LJG_B_2501


 40 41  0  0  0  0  0  0  0  0999 V2000
    8.7472  -19.3660  -15.6433 N   0  0  0  0  0  0  0  0  0  0  0  0
    8.6674  -20.3729  -15.5012 H   0  0  0  0  0  0  0  0  0  0  0  0
   10.1877  -18.9844  -15.6334 C   0  0  0  0  0  0  0  0  0  0  0  0
   10.9973  -19.5330  -16.8220 C   0  0  0  0  0  0  0  0  0  0  0  0
   11.5118  -20.8887  -16.6708 N   0  0  0  0  0  0  0  0  0  0  0  0
   10.8800  -22.0698  -17.6633 S   0  0  0  0  0  0  0  0  0  0  0  0
   10.4276  -23.1290  -16.7987 O   0  0  0  0  0  0  0  0  0  0  0  0
   10.0542  -21.4258  -18.6250 O   0  0  0  0  0  0  0  0  0  0  0  0
   12.3322  -22.6556  -18.5233 C   0  0  0  0  0  0  0  0  0  0  0  0
   13.9153  -22.3935  -20.3167 C   0  0  0  0  0  0  0  0  0  0  0  0
   14.1259  -24.2466  -18.7508 C   0  0  0  0  0  0  0  0  0  0  0  0
   13.0162  -23.7754  -18.0428 C   0  0  0  0  0  0  0  0  0  0  0  0
   14.5634  -23.5542  -19.8838 C   0  0  0  0  0  0  0  0  0  0  0  0
   15.6991  -24.0205  -20.5837 N   0  0  0  0  0  0  0  0  0  0  0  0
   12.7707  -21.9506  -19.6429 C   0  0  0  0  0  0  0  0  0  0  0  0
   16.0161  -23.5407  -21.3829 H   0  0  0  0  0  0  0  0  0  0  0  0
   16.1733  -24.8250  -20.2722 H   0  0  0  0  0  0  0  0  0  0  0  0
   12.5584  -21.3031  -15.7403 C   0  0  0  0  0  0  0  0  0  0  0  0
   14.5497  -20.2620  -16.9432 C   0  0  0  0  0  0  0  0  0  0  0  0
   13.7862  -20.3549  -15.5885 C   0  0  0  0  0  0  0  0  0  0  0  0
   14.7456  -20.8733  -14.4869 C   0  0  0  0  0  0  0  0  0  0  0  0
    8.0043  -18.6607  -14.5631 C   0  0  0  0  0  0  0  0  0  0  0  0
    6.9360  -17.6703  -15.0428 C   0  0  0  0  0  0  0  0  0  0  0  0
    7.2333  -16.5271  -15.8849 N   0  0  0  0  0  0  0  0  0  0  0  0
    6.2571  -16.2252  -17.1799 S   0  0  0  0  0  0  0  0  0  0  0  0
    4.9497  -16.7136  -16.7655 O   0  0  0  0  0  0  0  0  0  0  0  0
    6.3325  -14.8915  -17.7121 O   0  0  0  0  0  0  0  0  0  0  0  0
    6.1433  -18.2620  -19.0816 C   0  0  0  0  0  0  0  0  0  0  0  0
    6.9393  -17.3522  -18.3758 C   0  0  0  0  0  0  0  0  0  0  0  0
    8.3153  -17.2855  -18.6142 C   0  0  0  0  0  0  0  0  0  0  0  0
    8.9005  -18.1576  -19.5347 C   0  0  0  0  0  0  0  0  0  0  0  0
    8.1152  -19.0859  -20.2220 C   0  0  0  0  0  0  0  0  0  0  0  0
    8.7293  -19.9750  -21.1319 N   0  0  0  0  0  0  0  0  0  0  0  0
    6.7300  -19.1074  -20.0265 C   0  0  0  0  0  0  0  0  0  0  0  0
    9.7050  -19.9508  -21.2613 H   0  0  0  0  0  0  0  0  0  0  0  0
    8.1817  -20.6189  -21.6367 H   0  0  0  0  0  0  0  0  0  0  0  0
    8.3860  -15.6462  -15.5603 C   0  0  0  0  0  0  0  0  0  0  0  0
    6.8089  -14.0991  -14.2807 C   0  0  0  0  0  0  0  0  0  0  0  0
    8.2728  -14.6035  -14.4009 C   0  0  0  0  0  0  0  0  0  0  0  0
    8.7146  -15.2512  -13.0544 C   0  0  0  0  0  0  0  0  0  0  0  0
  1  3  1  0  0  0
  1 22  1  0  0  0
  3  4  1  0  0  0
  4  5  1  0  0  0
 18  5  1  0  0  0
 18 20  1  0  0  0
 19 20  1  0  0  0
  9  6  1  0  0  0
  9 12  2  0  0  0
  9 15  1  0  0  0
 10 13  1  0  0  0
 10 15  2  0  0  0
 11 12  1  0  0  0
 11 13  2  0  0  0
 37 24  1  0  0  0
 37 39  1  0  0  0
 38 39  1  0  0  0
 28 29  2  0  0  0
 28 34  1  0  0  0
 22 23  1  0  0  0
 23 24  1  0  0  0
 24 25  1  0  0  0
 25 26  2  0  0  0
 25 27  2  0  0  0
 25 29  1  0  0  0
 29 30  1  0  0  0
 30 31  2  0  0  0
 31 32  1  0  0  0
 32 33  1  0  0  0
 32 34  2  0  0  0
 39 40  1  0  0  0
  5  6  1  0  0  0
  6  7  2  0  0  0
  6  8  2  0  0  0
 13 14  1  0  0  0
 20 21  1  0  0  0
  1  2  1  0  0  0
 33 35  1  0  0  0
 33 36  1  0  0  0
 14 16  1  0  0  0
 14 17  1  0  0  0
M  END
> <minimizedAffinity>
-8.11138

$$$$
3BGB_LJG_B_2501


 40 41  0  0  0  0  0  0  0  0999 V2000
   13.0947  -18.7707  -17.5467 N   0  0  0  0  0  0  0  0  0  0  0  0
   13.9397  -18.2735  -17.2650 H   0  0  0  0  0  0  0  0  0  0  0  0
   13.4788  -20.0046  -18.2887 C   0  0  0  0  0  0  0  0  0  0  0  0
   14.8499  -20.5816  -17.8931 C   0  0  0  0  0  0  0  0  0  0  0  0
   14.8226  -21.7362  -17.0034 N   0  0  0  0  0  0  0  0  0  0  0  0
   14.5667  -21.4548  -15.3804 S   0  0  0  0  0  0  0  0  0  0  0  0
   14.6821  -20.0318  -15.1908 O   0  0  0  0  0  0  0  0  0  0  0  0
   13.4328  -22.2165  -14.9861 O   0  0  0  0  0  0  0  0  0  0  0  0
   15.9996  -22.2183  -14.6351 C   0  0  0  0  0  0  0  0  0  0  0  0
   18.3916  -22.3233  -14.3937 C   0  0  0  0  0  0  0  0  0  0  0  0
   16.9619  -23.8599  -13.1589 C   0  0  0  0  0  0  0  0  0  0  0  0
   15.8300  -23.2439  -13.7013 C   0  0  0  0  0  0  0  0  0  0  0  0
   18.2328  -23.3972  -13.5127 C   0  0  0  0  0  0  0  0  0  0  0  0
   19.3740  -24.0073  -12.9448 N   0  0  0  0  0  0  0  0  0  0  0  0
   17.2624  -21.7407  -14.9817 C   0  0  0  0  0  0  0  0  0  0  0  0
   20.2739  -23.6896  -13.1868 H   0  0  0  0  0  0  0  0  0  0  0  0
   19.2692  -24.7501  -12.3072 H   0  0  0  0  0  0  0  0  0  0  0  0
   14.9727  -23.1300  -17.4129 C   0  0  0  0  0  0  0  0  0  0  0  0
   12.5451  -23.4484  -18.1211 C   0  0  0  0  0  0  0  0  0  0  0  0
   14.0316  -23.6399  -18.5461 C   0  0  0  0  0  0  0  0  0  0  0  0
   14.2965  -25.1375  -18.8457 C   0  0  0  0  0  0  0  0  0  0  0  0
   12.2640  -17.8764  -18.3988 C   0  0  0  0  0  0  0  0  0  0  0  0
   10.8370  -17.6307  -17.8928 C   0  0  0  0  0  0  0  0  0  0  0  0
    9.8966  -18.7002  -17.6172 N   0  0  0  0  0  0  0  0  0  0  0  0
    9.8505  -19.3388  -16.0969 S   0  0  0  0  0  0  0  0  0  0  0  0
    8.7280  -20.2651  -16.1305 O   0  0  0  0  0  0  0  0  0  0  0  0
   11.1056  -19.8299  -15.5955 O   0  0  0  0  0  0  0  0  0  0  0  0
    8.0778  -17.4036  -15.1533 C   0  0  0  0  0  0  0  0  0  0  0  0
    9.3847  -17.9050  -15.1519 C   0  0  0  0  0  0  0  0  0  0  0  0
   10.3733  -17.2959  -14.3731 C   0  0  0  0  0  0  0  0  0  0  0  0
   10.0604  -16.1602  -13.6231 C   0  0  0  0  0  0  0  0  0  0  0  0
    8.7646  -15.6395  -13.6419 C   0  0  0  0  0  0  0  0  0  0  0  0
    8.4737  -14.4764  -12.8948 N   0  0  0  0  0  0  0  0  0  0  0  0
    7.7635  -16.2880  -14.3733 C   0  0  0  0  0  0  0  0  0  0  0  0
    9.1862  -14.0285  -12.3839 H   0  0  0  0  0  0  0  0  0  0  0  0
    7.5585  -14.1137  -12.8849 H   0  0  0  0  0  0  0  0  0  0  0  0
    8.9877  -19.1838  -18.6896 C   0  0  0  0  0  0  0  0  0  0  0  0
    9.5774  -21.5332  -19.4959 C   0  0  0  0  0  0  0  0  0  0  0  0
    9.5561  -20.0277  -19.8766 C   0  0  0  0  0  0  0  0  0  0  0  0
    8.6780  -19.8223  -21.1473 C   0  0  0  0  0  0  0  0  0  0  0  0
  1  3  1  0  0  0
  1 22  1  0  0  0
  3  4  1  0  0  0
  4  5  1  0  0  0
 18  5  1  0  0  0
 18 20  1  0  0  0
 19 20  1  0  0  0
  9  6  1  0  0  0
  9 12  2  0  0  0
  9 15  1  0  0  0
 10 13  1  0  0  0
 10 15  2  0  0  0
 11 12  1  0  0  0
 11 13  2  0  0  0
 37 24  1  0  0  0
 37 39  1  0  0  0
 38 39  1  0  0  0
 28 29  2  0  0  0
 28 34  1  0  0  0
 22 23  1  0  0  0
 23 24  1  0  0  0
 24 25  1  0  0  0
 25 26  2  0  0  0
 25 27  2  0  0  0
 25 29  1  0  0  0
 29 30  1  0  0  0
 30 31  2  0  0  0
 31 32  1  0  0  0
 32 33  1  0  0  0
 32 34  2  0  0  0
 39 40  1  0  0  0
  5  6  1  0  0  0
  6  7  2  0  0  0
  6  8  2  0  0  0
 13 14  1  0  0  0
 20 21  1  0  0  0
  1  2  1  0  0  0
 33 35  1  0  0  0
 33 36  1  0  0  0
 14 16  1  0  0  0
 14 17  1  0  0  0
M  END
> <minimizedAffinity>
-8.06976

$$$$
3BGB_LJG_B_2501


 40 41  0  0  0  0  0  0  0  0999 V2000
   12.9129  -18.8095  -18.2593 N   0  0  0  0  0  0  0  0  0  0  0  0
   12.2559  -19.5614  -18.4678 H   0  0  0  0  0  0  0  0  0  0  0  0
   13.8885  -19.2833  -17.2373 C   0  0  0  0  0  0  0  0  0  0  0  0
   14.6987  -20.5219  -17.6602 C   0  0  0  0  0  0  0  0  0  0  0  0
   14.0740  -21.8124  -17.3962 N   0  0  0  0  0  0  0  0  0  0  0  0
   13.4837  -22.6660  -18.7009 S   0  0  0  0  0  0  0  0  0  0  0  0
   12.5095  -23.5882  -18.1769 O   0  0  0  0  0  0  0  0  0  0  0  0
   13.2119  -21.7318  -19.7376 O   0  0  0  0  0  0  0  0  0  0  0  0
   14.9102  -23.6148  -19.2070 C   0  0  0  0  0  0  0  0  0  0  0  0
   17.2313  -24.1732  -18.9038 C   0  0  0  0  0  0  0  0  0  0  0  0
   15.9255  -25.2498  -20.6548 C   0  0  0  0  0  0  0  0  0  0  0  0
   14.7903  -24.5457  -20.2422 C   0  0  0  0  0  0  0  0  0  0  0  0
   17.1370  -25.0546  -19.9850 C   0  0  0  0  0  0  0  0  0  0  0  0
   18.2770  -25.7849  -20.3902 N   0  0  0  0  0  0  0  0  0  0  0  0
   16.1104  -23.4253  -18.5238 C   0  0  0  0  0  0  0  0  0  0  0  0
   19.1353  -25.6555  -19.9257 H   0  0  0  0  0  0  0  0  0  0  0  0
   18.2128  -26.4232  -21.1370 H   0  0  0  0  0  0  0  0  0  0  0  0
   13.9426  -22.4422  -16.0852 C   0  0  0  0  0  0  0  0  0  0  0  0
   15.7883  -22.6652  -14.3417 C   0  0  0  0  0  0  0  0  0  0  0  0
   14.6582  -21.7435  -14.8896 C   0  0  0  0  0  0  0  0  0  0  0  0
   13.6496  -21.4293  -13.7553 C   0  0  0  0  0  0  0  0  0  0  0  0
   12.1582  -17.6261  -17.7634 C   0  0  0  0  0  0  0  0  0  0  0  0
   10.6456  -17.6622  -18.0150 C   0  0  0  0  0  0  0  0  0  0  0  0
    9.8170  -18.8137  -17.7120 N   0  0  0  0  0  0  0  0  0  0  0  0
    9.8656  -19.4421  -16.1876 S   0  0  0  0  0  0  0  0  0  0  0  0
    8.7614  -20.3902  -16.1548 O   0  0  0  0  0  0  0  0  0  0  0  0
   11.1553  -19.9052  -15.7517 O   0  0  0  0  0  0  0  0  0  0  0  0
    8.1139  -17.5176  -15.1847 C   0  0  0  0  0  0  0  0  0  0  0  0
    9.4232  -18.0108  -15.2276 C   0  0  0  0  0  0  0  0  0  0  0  0
   10.4337  -17.3953  -14.4829 C   0  0  0  0  0  0  0  0  0  0  0  0
   10.1395  -16.2613  -13.7229 C   0  0  0  0  0  0  0  0  0  0  0  0
    8.8404  -15.7487  -13.6979 C   0  0  0  0  0  0  0  0  0  0  0  0
    8.5679  -14.5871  -12.9415 N   0  0  0  0  0  0  0  0  0  0  0  0
    7.8192  -16.4037  -14.3947 C   0  0  0  0  0  0  0  0  0  0  0  0
    9.2945  -14.1346  -12.4552 H   0  0  0  0  0  0  0  0  0  0  0  0
    7.6513  -14.2302  -12.9007 H   0  0  0  0  0  0  0  0  0  0  0  0
    8.9343  -19.3892  -18.7606 C   0  0  0  0  0  0  0  0  0  0  0  0
    9.6021  -21.6679  -19.6984 C   0  0  0  0  0  0  0  0  0  0  0  0
    9.5563  -20.1416  -19.9818 C   0  0  0  0  0  0  0  0  0  0  0  0
    8.7105  -19.8730  -21.2625 C   0  0  0  0  0  0  0  0  0  0  0  0
  1  3  1  0  0  0
  1 22  1  0  0  0
  3  4  1  0  0  0
  4  5  1  0  0  0
 18  5  1  0  0  0
 18 20  1  0  0  0
 19 20  1  0  0  0
  9  6  1  0  0  0
  9 12  2  0  0  0
  9 15  1  0  0  0
 10 13  1  0  0  0
 10 15  2  0  0  0
 11 12  1  0  0  0
 11 13  2  0  0  0
 37 24  1  0  0  0
 37 39  1  0  0  0
 38 39  1  0  0  0
 28 29  2  0  0  0
 28 34  1  0  0  0
 22 23  1  0  0  0
 23 24  1  0  0  0
 24 25  1  0  0  0
 25 26  2  0  0  0
 25 27  2  0  0  0
 25 29  1  0  0  0
 29 30  1  0  0  0
 30 31  2  0  0  0
 31 32  1  0  0  0
 32 33  1  0  0  0
 32 34  2  0  0  0
 39 40  1  0  0  0
  5  6  1  0  0  0
  6  7  2  0  0  0
  6  8  2  0  0  0
 13 14  1  0  0  0
 20 21  1  0  0  0
  1  2  1  0  0  0
 33 35  1  0  0  0
 33 36  1  0  0  0
 14 16  1  0  0  0
 14 17  1  0  0  0
M  END
> <minimizedAffinity>
-8.00668

$$$$
3BGB_LJG_B_2501


 40 41  0  0  0  0  0  0  0  0999 V2000
    9.9825  -22.0833  -17.9232 N   0  0  0  0  0  0  0  0  0  0  0  0
   10.3657  -21.7599  -18.8114 H   0  0  0  0  0  0  0  0  0  0  0  0
    9.3821  -20.9267  -17.2004 C   0  0  0  0  0  0  0  0  0  0  0  0
   10.3536  -20.1945  -16.2573 C   0  0  0  0  0  0  0  0  0  0  0  0
   10.6031  -18.7912  -16.5638 N   0  0  0  0  0  0  0  0  0  0  0  0
   11.4127  -18.4418  -17.9786 S   0  0  0  0  0  0  0  0  0  0  0  0
   12.0157  -17.1471  -17.7935 O   0  0  0  0  0  0  0  0  0  0  0  0
   12.1367  -19.6053  -18.3575 O   0  0  0  0  0  0  0  0  0  0  0  0
   10.0714  -18.2530  -19.1434 C   0  0  0  0  0  0  0  0  0  0  0  0
    7.9003  -17.3549  -19.6636 C   0  0  0  0  0  0  0  0  0  0  0  0
    9.1072  -18.6857  -21.3075 C   0  0  0  0  0  0  0  0  0  0  0  0
   10.1825  -18.8058  -20.4220 C   0  0  0  0  0  0  0  0  0  0  0  0
    7.9739  -17.9650  -20.9194 C   0  0  0  0  0  0  0  0  0  0  0  0
    6.8983  -17.8266  -21.8255 N   0  0  0  0  0  0  0  0  0  0  0  0
    8.9517  -17.5200  -18.7539 C   0  0  0  0  0  0  0  0  0  0  0  0
    6.0953  -17.3212  -21.5628 H   0  0  0  0  0  0  0  0  0  0  0  0
    6.9520  -18.2356  -22.7195 H   0  0  0  0  0  0  0  0  0  0  0  0
   10.1801  -17.6542  -15.7508 C   0  0  0  0  0  0  0  0  0  0  0  0
    7.7656  -17.9963  -15.0095 C   0  0  0  0  0  0  0  0  0  0  0  0
    9.2498  -17.9588  -14.5377 C   0  0  0  0  0  0  0  0  0  0  0  0
    9.4167  -16.8818  -13.4355 C   0  0  0  0  0  0  0  0  0  0  0  0
   11.0711  -22.7037  -17.1194 C   0  0  0  0  0  0  0  0  0  0  0  0
   12.2967  -23.1608  -17.9204 C   0  0  0  0  0  0  0  0  0  0  0  0
   13.6214  -22.5991  -17.7356 N   0  0  0  0  0  0  0  0  0  0  0  0
   14.4472  -22.0713  -19.0623 S   0  0  0  0  0  0  0  0  0  0  0  0
   13.4817  -22.1666  -20.1477 O   0  0  0  0  0  0  0  0  0  0  0  0
   15.1459  -20.8251  -18.8990 O   0  0  0  0  0  0  0  0  0  0  0  0
   16.7824  -23.4590  -18.4303 C   0  0  0  0  0  0  0  0  0  0  0  0
   15.6460  -23.3736  -19.2432 C   0  0  0  0  0  0  0  0  0  0  0  0
   15.4042  -24.3423  -20.2219 C   0  0  0  0  0  0  0  0  0  0  0  0
   16.3218  -25.3779  -20.4111 C   0  0  0  0  0  0  0  0  0  0  0  0
   17.4711  -25.4528  -19.6211 C   0  0  0  0  0  0  0  0  0  0  0  0
   18.3987  -26.4947  -19.8435 N   0  0  0  0  0  0  0  0  0  0  0  0
   17.6782  -24.5172  -18.6017 C   0  0  0  0  0  0  0  0  0  0  0  0
   18.2426  -27.1474  -20.5638 H   0  0  0  0  0  0  0  0  0  0  0  0
   19.2014  -26.5682  -19.2781 H   0  0  0  0  0  0  0  0  0  0  0  0
   14.1977  -22.4915  -16.3695 C   0  0  0  0  0  0  0  0  0  0  0  0
   13.3348  -21.3440  -14.2584 C   0  0  0  0  0  0  0  0  0  0  0  0
   14.1121  -21.1404  -15.5874 C   0  0  0  0  0  0  0  0  0  0  0  0
   15.5442  -20.6095  -15.2791 C   0  0  0  0  0  0  0  0  0  0  0  0
  1  3  1  0  0  0
  1 22  1  0  0  0
  3  4  1  0  0  0
  4  5  1  0  0  0
 18  5  1  0  0  0
 18 20  1  0  0  0
 19 20  1  0  0  0
  9  6  1  0  0  0
  9 12  2  0  0  0
  9 15  1  0  0  0
 10 13  1  0  0  0
 10 15  2  0  0  0
 11 12  1  0  0  0
 11 13  2  0  0  0
 37 24  1  0  0  0
 37 39  1  0  0  0
 38 39  1  0  0  0
 28 29  2  0  0  0
 28 34  1  0  0  0
 22 23  1  0  0  0
 23 24  1  0  0  0
 24 25  1  0  0  0
 25 26  2  0  0  0
 25 27  2  0  0  0
 25 29  1  0  0  0
 29 30  1  0  0  0
 30 31  2  0  0  0
 31 32  1  0  0  0
 32 33  1  0  0  0
 32 34  2  0  0  0
 39 40  1  0  0  0
  5  6  1  0  0  0
  6  7  2  0  0  0
  6  8  2  0  0  0
 13 14  1  0  0  0
 20 21  1  0  0  0
  1  2  1  0  0  0
 33 35  1  0  0  0
 33 36  1  0  0  0
 14 16  1  0  0  0
 14 17  1  0  0  0
M  END
> <minimizedAffinity>
-7.94394

$$$$
