4ALX_IZN_A_400


 20 23  0  0  0  0  0  0  0  0999 V2000
  -41.6579   17.4775  -37.2298 N   0  0  0  0  0  0  0  0  0  0  0  0
  -40.6781   16.4817  -36.7151 C   0  0  0  0  0  0  0  0  0  0  0  0
  -41.1107   15.0397  -37.0333 C   0  0  0  0  0  0  0  0  0  0  0  0
  -44.5744   19.2745  -37.0596 C   0  0  0  0  0  0  0  0  0  0  0  0
  -42.9887   17.3567  -36.5862 C   0  0  0  0  0  0  0  0  0  0  0  0
  -42.9234   17.8870  -35.1359 C   0  0  0  0  0  0  0  0  0  0  0  0
  -44.2168   18.5444  -34.5959 C   0  0  0  0  0  0  0  0  0  0  0  0
  -44.8513   19.5613  -35.5864 C   0  0  0  0  0  0  0  0  0  0  0  0
  -43.7574   18.2854  -37.4860 C   0  0  0  0  0  0  0  0  0  0  0  0
  -43.3729   17.9154  -38.9021 C   0  0  0  0  0  0  0  0  0  0  0  0
  -41.8775   17.5926  -38.7115 C   0  0  0  0  0  0  0  0  0  0  0  0
  -43.4785   15.9012  -36.7350 C   0  0  0  0  0  0  0  0  0  0  0  0
  -42.6169   14.8764  -36.9350 C   0  0  0  0  0  0  0  0  0  0  0  0
  -43.1292   13.4605  -37.0895 C   0  0  0  0  0  0  0  0  0  0  0  0
  -45.4371   14.2233  -36.9566 C   0  0  0  0  0  0  0  0  0  0  0  0
  -44.9879   15.6582  -36.6474 C   0  0  0  0  0  0  0  0  0  0  0  0
  -46.5911   13.8512  -36.7275 O   0  0  0  0  0  0  0  0  0  0  0  0
  -44.4990   13.4084  -37.4947 O   0  0  0  0  0  0  0  0  0  0  0  0
  -43.8770   19.2121  -33.3807 O   0  0  0  0  0  0  0  0  0  0  0  0
  -42.7421   20.0522  -33.4512 C   0  0  0  0  0  0  0  0  0  0  0  0
  1  2  1  0  0  0
  1  5  1  0  0  0
  1 11  1  0  0  0
  2  3  1  0  0  0
  3 13  1  0  0  0
  4  8  1  0  0  0
  4  9  2  0  0  0
  5  6  1  0  0  0
  5  9  1  0  0  0
  5 12  1  0  0  0
  6  7  1  0  0  0
  7  8  1  0  0  0
  7 19  1  0  0  0
  9 10  1  0  0  0
 10 11  1  0  0  0
 12 13  2  0  0  0
 12 16  1  0  0  0
 13 14  1  0  0  0
 14 18  1  0  0  0
 15 16  1  0  0  0
 15 17  2  0  0  0
 15 18  1  0  0  0
 20 19  1  0  0  0
M  END
> <minimizedAffinity>
0.00000

$$$$
4ALX_IZN_A_400


 20 23  0  0  0  0  0  0  0  0999 V2000
  -43.6401   13.2392  -37.5214 N   0  0  0  0  0  0  0  0  0  0  0  0
  -44.7041   12.2339  -37.7926 C   0  0  0  0  0  0  0  0  0  0  0  0
  -46.1025   12.7778  -37.4510 C   0  0  0  0  0  0  0  0  0  0  0  0
  -41.4863   14.9396  -35.4636 C   0  0  0  0  0  0  0  0  0  0  0  0
  -43.5409   13.5943  -36.0847 C   0  0  0  0  0  0  0  0  0  0  0  0
  -42.9049   12.4274  -35.2956 C   0  0  0  0  0  0  0  0  0  0  0  0
  -42.0494   12.8260  -34.0684 C   0  0  0  0  0  0  0  0  0  0  0  0
  -41.0468   13.9772  -34.3637 C   0  0  0  0  0  0  0  0  0  0  0  0
  -42.6012   14.7627  -36.2075 C   0  0  0  0  0  0  0  0  0  0  0  0
  -43.1318   15.6138  -37.3407 C   0  0  0  0  0  0  0  0  0  0  0  0
  -43.6213   14.5184  -38.3088 C   0  0  0  0  0  0  0  0  0  0  0  0
  -44.9314   14.0445  -35.5905 C   0  0  0  0  0  0  0  0  0  0  0  0
  -46.0684   13.6654  -36.2198 C   0  0  0  0  0  0  0  0  0  0  0  0
  -47.4175   14.1337  -35.7180 C   0  0  0  0  0  0  0  0  0  0  0  0
  -46.3652   15.4912  -33.9930 C   0  0  0  0  0  0  0  0  0  0  0  0
  -44.9766   14.9437  -34.3517 C   0  0  0  0  0  0  0  0  0  0  0  0
  -46.5706   16.0567  -32.9156 O   0  0  0  0  0  0  0  0  0  0  0  0
  -47.3320   15.3202  -34.9254 O   0  0  0  0  0  0  0  0  0  0  0  0
  -41.3312   11.6628  -33.6570 O   0  0  0  0  0  0  0  0  0  0  0  0
  -40.6475   10.9799  -34.6889 C   0  0  0  0  0  0  0  0  0  0  0  0
  1  2  1  0  0  0
  1  5  1  0  0  0
  1 11  1  0  0  0
  2  3  1  0  0  0
  3 13  1  0  0  0
  4  8  1  0  0  0
  4  9  2  0  0  0
  5  6  1  0  0  0
  5  9  1  0  0  0
  5 12  1  0  0  0
  6  7  1  0  0  0
  7  8  1  0  0  0
  7 19  1  0  0  0
  9 10  1  0  0  0
 10 11  1  0  0  0
 12 13  2  0  0  0
 12 16  1  0  0  0
 13 14  1  0  0  0
 14 18  1  0  0  0
 15 16  1  0  0  0
 15 17  2  0  0  0
 15 18  1  0  0  0
 20 19  1  0  0  0
M  END
> <minimizedAffinity>
0.00000

$$$$
4ALX_IZN_A_400


 20 23  0  0  0  0  0  0  0  0999 V2000
  -45.2803   18.7472  -35.8343 N   0  0  0  0  0  0  0  0  0  0  0  0
  -45.5175   20.0810  -35.2170 C   0  0  0  0  0  0  0  0  0  0  0  0
  -44.9983   20.1396  -33.7697 C   0  0  0  0  0  0  0  0  0  0  0  0
  -46.0411   15.4482  -36.3841 C   0  0  0  0  0  0  0  0  0  0  0  0
  -46.0195   17.6594  -35.1485 C   0  0  0  0  0  0  0  0  0  0  0  0
  -47.5263   17.7559  -35.4786 C   0  0  0  0  0  0  0  0  0  0  0  0
  -48.2949   16.4133  -35.5356 C   0  0  0  0  0  0  0  0  0  0  0  0
  -47.5615   15.3178  -36.3602 C   0  0  0  0  0  0  0  0  0  0  0  0
  -45.3728   16.4849  -35.8307 C   0  0  0  0  0  0  0  0  0  0  0  0
  -43.8835   16.7527  -35.8108 C   0  0  0  0  0  0  0  0  0  0  0  0
  -43.8693   18.2765  -36.0447 C   0  0  0  0  0  0  0  0  0  0  0  0
  -45.6696   17.6959  -33.6463 C   0  0  0  0  0  0  0  0  0  0  0  0
  -45.2127   18.8211  -33.0482 C   0  0  0  0  0  0  0  0  0  0  0  0
  -44.8661   18.8220  -31.5748 C   0  0  0  0  0  0  0  0  0  0  0  0
  -45.3523   16.4429  -31.4035 C   0  0  0  0  0  0  0  0  0  0  0  0
  -45.8599   16.4007  -32.8516 C   0  0  0  0  0  0  0  0  0  0  0  0
  -45.6246   15.5431  -30.6042 O   0  0  0  0  0  0  0  0  0  0  0  0
  -44.5930   17.5131  -31.0694 O   0  0  0  0  0  0  0  0  0  0  0  0
  -49.5684   16.6790  -36.1235 O   0  0  0  0  0  0  0  0  0  0  0  0
  -49.5344   17.4209  -37.3264 C   0  0  0  0  0  0  0  0  0  0  0  0
  1  2  1  0  0  0
  1  5  1  0  0  0
  1 11  1  0  0  0
  2  3  1  0  0  0
  3 13  1  0  0  0
  4  8  1  0  0  0
  4  9  2  0  0  0
  5  6  1  0  0  0
  5  9  1  0  0  0
  5 12  1  0  0  0
  6  7  1  0  0  0
  7  8  1  0  0  0
  7 19  1  0  0  0
  9 10  1  0  0  0
 10 11  1  0  0  0
 12 13  2  0  0  0
 12 16  1  0  0  0
 13 14  1  0  0  0
 14 18  1  0  0  0
 15 16  1  0  0  0
 15 17  2  0  0  0
 15 18  1  0  0  0
 20 19  1  0  0  0
M  END
> <minimizedAffinity>
0.00000

$$$$
4ALX_IZN_A_400


 20 23  0  0  0  0  0  0  0  0999 V2000
  -39.7756   17.9169  -36.6239 N   0  0  0  0  0  0  0  0  0  0  0  0
  -39.3282   17.0887  -37.7772 C   0  0  0  0  0  0  0  0  0  0  0  0
  -39.9659   17.5575  -39.0968 C   0  0  0  0  0  0  0  0  0  0  0  0
  -42.0089   18.8099  -34.1785 C   0  0  0  0  0  0  0  0  0  0  0  0
  -41.2331   17.8071  -36.3716 C   0  0  0  0  0  0  0  0  0  0  0  0
  -41.5591   16.4287  -35.7530 C   0  0  0  0  0  0  0  0  0  0  0  0
  -42.7504   16.3940  -34.7651 C   0  0  0  0  0  0  0  0  0  0  0  0
  -42.7121   17.5380  -33.7127 C   0  0  0  0  0  0  0  0  0  0  0  0
  -41.3701   18.9169  -35.3652 C   0  0  0  0  0  0  0  0  0  0  0  0
  -40.6113   20.0970  -35.9323 C   0  0  0  0  0  0  0  0  0  0  0  0
  -39.4152   19.3747  -36.5836 C   0  0  0  0  0  0  0  0  0  0  0  0
  -41.9862   18.1395  -37.6765 C   0  0  0  0  0  0  0  0  0  0  0  0
  -41.3970   18.0198  -38.8894 C   0  0  0  0  0  0  0  0  0  0  0  0
  -42.1584   18.3653  -40.1512 C   0  0  0  0  0  0  0  0  0  0  0  0
  -44.0905   19.0802  -38.8544 C   0  0  0  0  0  0  0  0  0  0  0  0
  -43.4365   18.6137  -37.5463 C   0  0  0  0  0  0  0  0  0  0  0  0
  -45.3040   19.2937  -38.9217 O   0  0  0  0  0  0  0  0  0  0  0  0
  -43.2591   19.2449  -39.9104 O   0  0  0  0  0  0  0  0  0  0  0  0
  -42.7110   15.1322  -34.0983 O   0  0  0  0  0  0  0  0  0  0  0  0
  -41.4538   14.7736  -33.5603 C   0  0  0  0  0  0  0  0  0  0  0  0
  1  2  1  0  0  0
  1  5  1  0  0  0
  1 11  1  0  0  0
  2  3  1  0  0  0
  3 13  1  0  0  0
  4  8  1  0  0  0
  4  9  2  0  0  0
  5  6  1  0  0  0
  5  9  1  0  0  0
  5 12  1  0  0  0
  6  7  1  0  0  0
  7  8  1  0  0  0
  7 19  1  0  0  0
  9 10  1  0  0  0
 10 11  1  0  0  0
 12 13  2  0  0  0
 12 16  1  0  0  0
 13 14  1  0  0  0
 14 18  1  0  0  0
 15 16  1  0  0  0
 15 17  2  0  0  0
 15 18  1  0  0  0
 20 19  1  0  0  0
M  END
> <minimizedAffinity>
0.00000

$$$$
4ALX_IZN_A_400


 20 23  0  0  0  0  0  0  0  0999 V2000
  -43.3778   22.4322  -34.2300 N   0  0  0  0  0  0  0  0  0  0  0  0
  -42.9498   21.1631  -33.5800 C   0  0  0  0  0  0  0  0  0  0  0  0
  -42.0279   20.3373  -34.4943 C   0  0  0  0  0  0  0  0  0  0  0  0
  -45.3395   24.2735  -36.3575 C   0  0  0  0  0  0  0  0  0  0  0  0
  -44.1961   22.2050  -35.4461 C   0  0  0  0  0  0  0  0  0  0  0  0
  -45.6055   21.7107  -35.0487 C   0  0  0  0  0  0  0  0  0  0  0  0
  -46.7619   22.1359  -35.9861 C   0  0  0  0  0  0  0  0  0  0  0  0
  -46.7303   23.6452  -36.3585 C   0  0  0  0  0  0  0  0  0  0  0  0
  -44.2251   23.6174  -35.9632 C   0  0  0  0  0  0  0  0  0  0  0  0
  -42.8021   24.1260  -35.8821 C   0  0  0  0  0  0  0  0  0  0  0  0
  -42.3446   23.4704  -34.5639 C   0  0  0  0  0  0  0  0  0  0  0  0
  -43.4157   21.2763  -36.3995 C   0  0  0  0  0  0  0  0  0  0  0  0
  -42.4461   20.4456  -35.9497 C   0  0  0  0  0  0  0  0  0  0  0  0
  -41.6895   19.5551  -36.9119 C   0  0  0  0  0  0  0  0  0  0  0  0
  -42.8761   20.5081  -38.8118 C   0  0  0  0  0  0  0  0  0  0  0  0
  -43.7823   21.3308  -37.8853 C   0  0  0  0  0  0  0  0  0  0  0  0
  -43.1805   20.3076  -39.9907 O   0  0  0  0  0  0  0  0  0  0  0  0
  -41.7360   20.0302  -38.2592 O   0  0  0  0  0  0  0  0  0  0  0  0
  -47.9847   21.8372  -35.3125 O   0  0  0  0  0  0  0  0  0  0  0  0
  -48.0686   22.3029  -33.9803 C   0  0  0  0  0  0  0  0  0  0  0  0
  1  2  1  0  0  0
  1  5  1  0  0  0
  1 11  1  0  0  0
  2  3  1  0  0  0
  3 13  1  0  0  0
  4  8  1  0  0  0
  4  9  2  0  0  0
  5  6  1  0  0  0
  5  9  1  0  0  0
  5 12  1  0  0  0
  6  7  1  0  0  0
  7  8  1  0  0  0
  7 19  1  0  0  0
  9 10  1  0  0  0
 10 11  1  0  0  0
 12 13  2  0  0  0
 12 16  1  0  0  0
 13 14  1  0  0  0
 14 18  1  0  0  0
 15 16  1  0  0  0
 15 17  2  0  0  0
 15 18  1  0  0  0
 20 19  1  0  0  0
M  END
> <minimizedAffinity>
0.00000

$$$$
4ALX_IZN_A_400


 20 23  0  0  0  0  0  0  0  0999 V2000
  -41.9680   19.4112  -40.4105 N   0  0  0  0  0  0  0  0  0  0  0  0
  -43.3067   19.5764  -41.0407 C   0  0  0  0  0  0  0  0  0  0  0  0
  -44.0240   20.8392  -40.5321 C   0  0  0  0  0  0  0  0  0  0  0  0
  -39.8807   18.4723  -37.8559 C   0  0  0  0  0  0  0  0  0  0  0  0
  -42.0472   19.2071  -38.9435 C   0  0  0  0  0  0  0  0  0  0  0  0
  -42.5779   17.7884  -38.6362 C   0  0  0  0  0  0  0  0  0  0  0  0
  -42.0402   17.1293  -37.3427 C   0  0  0  0  0  0  0  0  0  0  0  0
  -40.4978   17.2479  -37.1857 C   0  0  0  0  0  0  0  0  0  0  0  0
  -40.5838   19.3378  -38.6202 C   0  0  0  0  0  0  0  0  0  0  0  0
  -40.0951   20.5623  -39.3632 C   0  0  0  0  0  0  0  0  0  0  0  0
  -40.9029   20.4382  -40.6704 C   0  0  0  0  0  0  0  0  0  0  0  0
  -42.8615   20.3638  -38.3276 C   0  0  0  0  0  0  0  0  0  0  0  0
  -43.7439   21.0831  -39.0601 C   0  0  0  0  0  0  0  0  0  0  0  0
  -44.5190   22.2204  -38.4302 C   0  0  0  0  0  0  0  0  0  0  0  0
  -43.3442   21.9236  -36.3189 C   0  0  0  0  0  0  0  0  0  0  0  0
  -42.6314   20.6699  -36.8448 C   0  0  0  0  0  0  0  0  0  0  0  0
  -43.4036   22.1656  -35.1103 O   0  0  0  0  0  0  0  0  0  0  0  0
  -43.8890   22.7360  -37.2552 O   0  0  0  0  0  0  0  0  0  0  0  0
  -42.4099   15.7510  -37.3845 O   0  0  0  0  0  0  0  0  0  0  0  0
  -42.1032   15.0807  -38.5909 C   0  0  0  0  0  0  0  0  0  0  0  0
  1  2  1  0  0  0
  1  5  1  0  0  0
  1 11  1  0  0  0
  2  3  1  0  0  0
  3 13  1  0  0  0
  4  8  1  0  0  0
  4  9  2  0  0  0
  5  6  1  0  0  0
  5  9  1  0  0  0
  5 12  1  0  0  0
  6  7  1  0  0  0
  7  8  1  0  0  0
  7 19  1  0  0  0
  9 10  1  0  0  0
 10 11  1  0  0  0
 12 13  2  0  0  0
 12 16  1  0  0  0
 13 14  1  0  0  0
 14 18  1  0  0  0
 15 16  1  0  0  0
 15 17  2  0  0  0
 15 18  1  0  0  0
 20 19  1  0  0  0
M  END
> <minimizedAffinity>
0.00000

$$$$
4ALX_IZN_A_400


 20 23  0  0  0  0  0  0  0  0999 V2000
  -41.9140   19.9824  -33.1283 N   0  0  0  0  0  0  0  0  0  0  0  0
  -40.7718   19.5765  -32.2641 C   0  0  0  0  0  0  0  0  0  0  0  0
  -39.4368   20.1399  -32.7821 C   0  0  0  0  0  0  0  0  0  0  0  0
  -43.9067   19.6947  -35.9052 C   0  0  0  0  0  0  0  0  0  0  0  0
  -41.8110   19.4403  -34.5051 C   0  0  0  0  0  0  0  0  0  0  0  0
  -42.1080   17.9235  -34.4984 C   0  0  0  0  0  0  0  0  0  0  0  0
  -42.7839   17.3597  -35.7719 C   0  0  0  0  0  0  0  0  0  0  0  0
  -43.9895   18.2124  -36.2589 C   0  0  0  0  0  0  0  0  0  0  0  0
  -42.9275   20.2249  -35.1385 C   0  0  0  0  0  0  0  0  0  0  0  0
  -42.7449   21.6579  -34.6878 C   0  0  0  0  0  0  0  0  0  0  0  0
  -42.2706   21.4377  -33.2376 C   0  0  0  0  0  0  0  0  0  0  0  0
  -40.4421   19.8419  -35.0925 C   0  0  0  0  0  0  0  0  0  0  0  0
  -39.3897   20.1519  -34.2994 C   0  0  0  0  0  0  0  0  0  0  0  0
  -38.0625   20.5542  -34.9059 C   0  0  0  0  0  0  0  0  0  0  0  0
  -38.9904   20.4316  -37.1530 C   0  0  0  0  0  0  0  0  0  0  0  0
  -40.3183   19.8772  -36.6185 C   0  0  0  0  0  0  0  0  0  0  0  0
  -38.6878   20.3277  -38.3448 O   0  0  0  0  0  0  0  0  0  0  0  0
  -38.1894   21.0377  -36.2450 O   0  0  0  0  0  0  0  0  0  0  0  0
  -43.2283   16.0380  -35.4657 O   0  0  0  0  0  0  0  0  0  0  0  0
  -43.9695   15.9133  -34.2684 C   0  0  0  0  0  0  0  0  0  0  0  0
  1  2  1  0  0  0
  1  5  1  0  0  0
  1 11  1  0  0  0
  2  3  1  0  0  0
  3 13  1  0  0  0
  4  8  1  0  0  0
  4  9  2  0  0  0
  5  6  1  0  0  0
  5  9  1  0  0  0
  5 12  1  0  0  0
  6  7  1  0  0  0
  7  8  1  0  0  0
  7 19  1  0  0  0
  9 10  1  0  0  0
 10 11  1  0  0  0
 12 13  2  0  0  0
 12 16  1  0  0  0
 13 14  1  0  0  0
 14 18  1  0  0  0
 15 16  1  0  0  0
 15 17  2  0  0  0
 15 18  1  0  0  0
 20 19  1  0  0  0
M  END
> <minimizedAffinity>
0.00000

$$$$
4ALX_IZN_A_400


 20 23  0  0  0  0  0  0  0  0999 V2000
  -43.3486   20.2143  -32.5231 N   0  0  0  0  0  0  0  0  0  0  0  0
  -41.9215   20.0045  -32.1547 C   0  0  0  0  0  0  0  0  0  0  0  0
  -41.0048   21.0564  -32.8038 C   0  0  0  0  0  0  0  0  0  0  0  0
  -46.0388   19.9409  -34.6333 C   0  0  0  0  0  0  0  0  0  0  0  0
  -43.5947   20.0502  -33.9766 C   0  0  0  0  0  0  0  0  0  0  0  0
  -43.5179   18.5547  -34.3591 C   0  0  0  0  0  0  0  0  0  0  0  0
  -44.4358   18.1047  -35.5217 C   0  0  0  0  0  0  0  0  0  0  0  0
  -45.8956   18.6239  -35.3910 C   0  0  0  0  0  0  0  0  0  0  0  0
  -45.0068   20.5667  -34.0240 C   0  0  0  0  0  0  0  0  0  0  0  0
  -45.0149   21.8480  -33.2188 C   0  0  0  0  0  0  0  0  0  0  0  0
  -44.0429   21.4716  -32.0829 C   0  0  0  0  0  0  0  0  0  0  0  0
  -42.6335   20.9786  -34.7477 C   0  0  0  0  0  0  0  0  0  0  0  0
  -41.4756   21.4180  -34.2010 C   0  0  0  0  0  0  0  0  0  0  0  0
  -40.5591   22.3382  -34.9784 C   0  0  0  0  0  0  0  0  0  0  0  0
  -42.1358   22.4326  -36.8307 C   0  0  0  0  0  0  0  0  0  0  0  0
  -43.0425   21.3876  -36.1657 C   0  0  0  0  0  0  0  0  0  0  0  0
  -42.2371   22.6948  -38.0322 O   0  0  0  0  0  0  0  0  0  0  0  0
  -41.2364   23.0417  -36.0223 O   0  0  0  0  0  0  0  0  0  0  0  0
  -44.4373   16.6771  -35.5318 O   0  0  0  0  0  0  0  0  0  0  0  0
  -44.6827   16.0655  -34.2811 C   0  0  0  0  0  0  0  0  0  0  0  0
  1  2  1  0  0  0
  1  5  1  0  0  0
  1 11  1  0  0  0
  2  3  1  0  0  0
  3 13  1  0  0  0
  4  8  1  0  0  0
  4  9  2  0  0  0
  5  6  1  0  0  0
  5  9  1  0  0  0
  5 12  1  0  0  0
  6  7  1  0  0  0
  7  8  1  0  0  0
  7 19  1  0  0  0
  9 10  1  0  0  0
 10 11  1  0  0  0
 12 13  2  0  0  0
 12 16  1  0  0  0
 13 14  1  0  0  0
 14 18  1  0  0  0
 15 16  1  0  0  0
 15 17  2  0  0  0
 15 18  1  0  0  0
 20 19  1  0  0  0
M  END
> <minimizedAffinity>
0.00000

$$$$
4ALX_IZN_A_400


 20 23  0  0  0  0  0  0  0  0999 V2000
  -44.9741   19.4878  -37.8719 N   0  0  0  0  0  0  0  0  0  0  0  0
  -44.3522   20.3713  -38.8961 C   0  0  0  0  0  0  0  0  0  0  0  0
  -43.8483   21.6890  -38.2817 C   0  0  0  0  0  0  0  0  0  0  0  0
  -47.5615   18.4867  -35.8550 C   0  0  0  0  0  0  0  0  0  0  0  0
  -46.1893   20.0829  -37.2642 C   0  0  0  0  0  0  0  0  0  0  0  0
  -47.3561   20.0493  -38.2772 C   0  0  0  0  0  0  0  0  0  0  0  0
  -48.7724   19.8847  -37.6743 C   0  0  0  0  0  0  0  0  0  0  0  0
  -48.8611   18.7562  -36.6082 C   0  0  0  0  0  0  0  0  0  0  0  0
  -46.3895   19.0929  -36.1492 C   0  0  0  0  0  0  0  0  0  0  0  0
  -45.0318   18.8964  -35.5104 C   0  0  0  0  0  0  0  0  0  0  0  0
  -44.1254   18.9471  -36.7564 C   0  0  0  0  0  0  0  0  0  0  0  0
  -45.8327   21.4797  -36.7146 C   0  0  0  0  0  0  0  0  0  0  0  0
  -44.7768   22.1829  -37.1868 C   0  0  0  0  0  0  0  0  0  0  0  0
  -44.4450   23.5461  -36.6184 C   0  0  0  0  0  0  0  0  0  0  0  0
  -46.2405   23.3619  -34.9850 C   0  0  0  0  0  0  0  0  0  0  0  0
  -46.7254   22.0444  -35.6058 C   0  0  0  0  0  0  0  0  0  0  0  0
  -46.9646   24.0182  -34.2315 O   0  0  0  0  0  0  0  0  0  0  0  0
  -44.9833   23.7461  -35.3094 O   0  0  0  0  0  0  0  0  0  0  0  0
  -49.6604   19.5915  -38.7529 O   0  0  0  0  0  0  0  0  0  0  0  0
  -49.2360   18.5585  -39.6197 C   0  0  0  0  0  0  0  0  0  0  0  0
  1  2  1  0  0  0
  1  5  1  0  0  0
  1 11  1  0  0  0
  2  3  1  0  0  0
  3 13  1  0  0  0
  4  8  1  0  0  0
  4  9  2  0  0  0
  5  6  1  0  0  0
  5  9  1  0  0  0
  5 12  1  0  0  0
  6  7  1  0  0  0
  7  8  1  0  0  0
  7 19  1  0  0  0
  9 10  1  0  0  0
 10 11  1  0  0  0
 12 13  2  0  0  0
 12 16  1  0  0  0
 13 14  1  0  0  0
 14 18  1  0  0  0
 15 16  1  0  0  0
 15 17  2  0  0  0
 15 18  1  0  0  0
 20 19  1  0  0  0
M  END
> <minimizedAffinity>
0.00000

$$$$
4ALX_IZN_A_400


 20 23  0  0  0  0  0  0  0  0999 V2000
  -42.5010   12.8707  -36.8018 N   0  0  0  0  0  0  0  0  0  0  0  0
  -42.2826   11.4082  -36.9749 C   0  0  0  0  0  0  0  0  0  0  0  0
  -40.8068   11.0829  -37.2648 C   0  0  0  0  0  0  0  0  0  0  0  0
  -42.9674   16.0580  -37.9798 C   0  0  0  0  0  0  0  0  0  0  0  0
  -42.2028   13.6436  -38.0321 C   0  0  0  0  0  0  0  0  0  0  0  0
  -43.3111   13.4095  -39.0837 C   0  0  0  0  0  0  0  0  0  0  0  0
  -43.6133   14.5999  -40.0261 C   0  0  0  0  0  0  0  0  0  0  0  0
  -43.7618   15.9554  -39.2788 C   0  0  0  0  0  0  0  0  0  0  0  0
  -42.2709   15.0284  -37.4482 C   0  0  0  0  0  0  0  0  0  0  0  0
  -41.4741   14.9841  -36.1625 C   0  0  0  0  0  0  0  0  0  0  0  0
  -41.8471   13.5789  -35.6496 C   0  0  0  0  0  0  0  0  0  0  0  0
  -40.7713   13.3016  -38.4949 C   0  0  0  0  0  0  0  0  0  0  0  0
  -40.1642   12.1454  -38.1382 C   0  0  0  0  0  0  0  0  0  0  0  0
  -38.7540   11.8440  -38.5982 C   0  0  0  0  0  0  0  0  0  0  0  0
  -38.5858   14.0164  -39.6837 C   0  0  0  0  0  0  0  0  0  0  0  0
  -40.0578   14.3279  -39.3797 C   0  0  0  0  0  0  0  0  0  0  0  0
  -37.9617   14.6499  -40.5391 O   0  0  0  0  0  0  0  0  0  0  0  0
  -38.0255   13.0201  -38.9576 O   0  0  0  0  0  0  0  0  0  0  0  0
  -44.8285   14.2989  -40.7123 O   0  0  0  0  0  0  0  0  0  0  0  0
  -45.8978   13.8783  -39.8886 C   0  0  0  0  0  0  0  0  0  0  0  0
  1  2  1  0  0  0
  1  5  1  0  0  0
  1 11  1  0  0  0
  2  3  1  0  0  0
  3 13  1  0  0  0
  4  8  1  0  0  0
  4  9  2  0  0  0
  5  6  1  0  0  0
  5  9  1  0  0  0
  5 12  1  0  0  0
  6  7  1  0  0  0
  7  8  1  0  0  0
  7 19  1  0  0  0
  9 10  1  0  0  0
 10 11  1  0  0  0
 12 13  2  0  0  0
 12 16  1  0  0  0
 13 14  1  0  0  0
 14 18  1  0  0  0
 15 16  1  0  0  0
 15 17  2  0  0  0
 15 18  1  0  0  0
 20 19  1  0  0  0
M  END
> <minimizedAffinity>
0.00000

$$$$
