4Y3Y_DCL_A_412


 11 10  0  0  0  0  0  0  0  0999 V2000
   -0.1709    6.3521   10.4418 N   0  0  0  0  0  0  0  0  0  0  0  0
    0.2020    4.9316   10.2447 C   0  0  0  0  0  0  0  0  0  0  0  0
    0.6724    6.9256   10.4605 H   0  0  0  0  0  0  0  0  0  0  0  0
   -0.6703    6.4531   11.3254 H   0  0  0  0  0  0  0  0  0  0  0  0
    1.0296    4.8481    8.9706 C   0  0  0  0  0  0  0  0  0  0  0  0
    2.3906    5.2011    9.2352 O   0  0  0  0  0  0  0  0  0  0  0  0
    2.4294    6.1103    9.5709 H   0  0  0  0  0  0  0  0  0  0  0  0
   -0.9991    3.9729   10.2007 C   0  0  0  0  0  0  0  0  0  0  0  0
   -0.8488    2.6770   11.0104 C   0  0  0  0  0  0  0  0  0  0  0  0
   -0.4679    1.5006   10.1265 C   0  0  0  0  0  0  0  0  0  0  0  0
   -2.1225    2.3732   11.7691 C   0  0  0  0  0  0  0  0  0  0  0  0
  1  2  1  0  0  0
  2  5  1  0  0  0
  2  8  1  0  0  0
  5  6  1  0  0  0
  8  9  1  0  0  0
  9 10  1  0  0  0
  9 11  1  0  0  0
  1  3  1  0  0  0
  1  4  1  0  0  0
  6  7  1  0  0  0
M  END
> <minimizedAffinity>
-4.79969

$$$$
4Y3Y_DCL_A_412


 11 10  0  0  0  0  0  0  0  0999 V2000
    1.3302    4.7283    8.4535 N   0  0  0  0  0  0  0  0  0  0  0  0
    0.3848    4.9824    9.5659 C   0  0  0  0  0  0  0  0  0  0  0  0
    1.5331    5.6047    7.9728 H   0  0  0  0  0  0  0  0  0  0  0  0
    0.9130    4.0689    7.7966 H   0  0  0  0  0  0  0  0  0  0  0  0
    1.0062    6.0442   10.4613 C   0  0  0  0  0  0  0  0  0  0  0  0
    2.2011    5.5464   11.0708 O   0  0  0  0  0  0  0  0  0  0  0  0
    1.9887    4.7700   11.6121 H   0  0  0  0  0  0  0  0  0  0  0  0
    0.0082    3.7228   10.3629 C   0  0  0  0  0  0  0  0  0  0  0  0
   -1.4534    3.2683   10.2416 C   0  0  0  0  0  0  0  0  0  0  0  0
   -2.3883    4.4382    9.9815 C   0  0  0  0  0  0  0  0  0  0  0  0
   -1.8826    2.5195   11.4847 C   0  0  0  0  0  0  0  0  0  0  0  0
  1  2  1  0  0  0
  2  5  1  0  0  0
  2  8  1  0  0  0
  5  6  1  0  0  0
  8  9  1  0  0  0
  9 10  1  0  0  0
  9 11  1  0  0  0
  1  3  1  0  0  0
  1  4  1  0  0  0
  6  7  1  0  0  0
M  END
> <minimizedAffinity>
-4.67659

$$$$
4Y3Y_DCL_A_412


 11 10  0  0  0  0  0  0  0  0999 V2000
   -0.7529    5.0504    8.2602 N   0  0  0  0  0  0  0  0  0  0  0  0
   -0.4295    4.9474    9.7027 C   0  0  0  0  0  0  0  0  0  0  0  0
   -0.5750    6.0021    7.9390 H   0  0  0  0  0  0  0  0  0  0  0  0
   -1.7360    4.8207    8.1150 H   0  0  0  0  0  0  0  0  0  0  0  0
    1.0134    5.3961    9.8815 C   0  0  0  0  0  0  0  0  0  0  0  0
    1.8517    4.7866    8.8952 O   0  0  0  0  0  0  0  0  0  0  0  0
    1.8132    3.8220    8.9896 H   0  0  0  0  0  0  0  0  0  0  0  0
   -0.6621    3.5477   10.2945 C   0  0  0  0  0  0  0  0  0  0  0  0
   -2.0873    3.2599   10.7878 C   0  0  0  0  0  0  0  0  0  0  0  0
   -2.0983    2.2471   11.9211 C   0  0  0  0  0  0  0  0  0  0  0  0
   -2.9585    2.7808    9.6469 C   0  0  0  0  0  0  0  0  0  0  0  0
  1  2  1  0  0  0
  2  5  1  0  0  0
  2  8  1  0  0  0
  5  6  1  0  0  0
  8  9  1  0  0  0
  9 10  1  0  0  0
  9 11  1  0  0  0
  1  3  1  0  0  0
  1  4  1  0  0  0
  6  7  1  0  0  0
M  END
> <minimizedAffinity>
-4.63535

$$$$
4Y3Y_DCL_A_412


 11 10  0  0  0  0  0  0  0  0999 V2000
    1.2331    4.7477    8.5941 N   0  0  0  0  0  0  0  0  0  0  0  0
   -0.1415    4.6726    9.1423 C   0  0  0  0  0  0  0  0  0  0  0  0
    1.2263    5.2940    7.7327 H   0  0  0  0  0  0  0  0  0  0  0  0
    1.5725    3.8062    8.3970 H   0  0  0  0  0  0  0  0  0  0  0  0
   -0.6407    6.0984    9.3235 C   0  0  0  0  0  0  0  0  0  0  0  0
   -2.0401    6.1035    9.6210 O   0  0  0  0  0  0  0  0  0  0  0  0
   -2.5278    5.6952    8.8886 H   0  0  0  0  0  0  0  0  0  0  0  0
   -0.2481    3.8677   10.4478 C   0  0  0  0  0  0  0  0  0  0  0  0
   -1.1370    2.6171   10.3904 C   0  0  0  0  0  0  0  0  0  0  0  0
   -1.9284    2.4280   11.6742 C   0  0  0  0  0  0  0  0  0  0  0  0
   -0.3057    1.3864   10.0998 C   0  0  0  0  0  0  0  0  0  0  0  0
  1  2  1  0  0  0
  2  5  1  0  0  0
  2  8  1  0  0  0
  5  6  1  0  0  0
  8  9  1  0  0  0
  9 10  1  0  0  0
  9 11  1  0  0  0
  1  3  1  0  0  0
  1  4  1  0  0  0
  6  7  1  0  0  0
M  END
> <minimizedAffinity>
-4.53946

$$$$
4Y3Y_DCL_A_412


 11 10  0  0  0  0  0  0  0  0999 V2000
    2.1482    5.6961   11.1342 N   0  0  0  0  0  0  0  0  0  0  0  0
    1.7982    5.8042    9.6983 C   0  0  0  0  0  0  0  0  0  0  0  0
    2.8708    6.3796   11.3604 H   0  0  0  0  0  0  0  0  0  0  0  0
    2.4952    4.7571   11.3298 H   0  0  0  0  0  0  0  0  0  0  0  0
    1.3848    7.2446    9.4351 C   0  0  0  0  0  0  0  0  0  0  0  0
    0.8708    7.3817    8.1069 O   0  0  0  0  0  0  0  0  0  0  0  0
    1.5570    7.1344    7.4675 H   0  0  0  0  0  0  0  0  0  0  0  0
    0.7123    4.8143    9.2460 C   0  0  0  0  0  0  0  0  0  0  0  0
   -0.4357    4.5830   10.2390 C   0  0  0  0  0  0  0  0  0  0  0  0
   -0.5990    3.1107   10.5795 C   0  0  0  0  0  0  0  0  0  0  0  0
   -1.7316    5.1429    9.6939 C   0  0  0  0  0  0  0  0  0  0  0  0
  1  2  1  0  0  0
  2  5  1  0  0  0
  2  8  1  0  0  0
  5  6  1  0  0  0
  8  9  1  0  0  0
  9 10  1  0  0  0
  9 11  1  0  0  0
  1  3  1  0  0  0
  1  4  1  0  0  0
  6  7  1  0  0  0
M  END
> <minimizedAffinity>
-4.32448

$$$$
4Y3Y_DCL_A_412


 11 10  0  0  0  0  0  0  0  0999 V2000
    2.5431    5.4400    9.4021 N   0  0  0  0  0  0  0  0  0  0  0  0
    1.4978    5.8711   10.3598 C   0  0  0  0  0  0  0  0  0  0  0  0
    2.7087    4.4390    9.5073 H   0  0  0  0  0  0  0  0  0  0  0  0
    3.4069    5.9491    9.5896 H   0  0  0  0  0  0  0  0  0  0  0  0
    0.2653    5.0151   10.1083 C   0  0  0  0  0  0  0  0  0  0  0  0
    0.6346    3.7757    9.4964 O   0  0  0  0  0  0  0  0  0  0  0  0
    1.0688    3.9511    8.6469 H   0  0  0  0  0  0  0  0  0  0  0  0
    1.1671    7.3708   10.2871 C   0  0  0  0  0  0  0  0  0  0  0  0
    1.8720    8.1565    9.1721 C   0  0  0  0  0  0  0  0  0  0  0  0
    2.8158    9.2078    9.7327 C   0  0  0  0  0  0  0  0  0  0  0  0
    0.8576    8.7990    8.2511 C   0  0  0  0  0  0  0  0  0  0  0  0
  1  2  1  0  0  0
  2  5  1  0  0  0
  2  8  1  0  0  0
  5  6  1  0  0  0
  8  9  1  0  0  0
  9 10  1  0  0  0
  9 11  1  0  0  0
  1  3  1  0  0  0
  1  4  1  0  0  0
  6  7  1  0  0  0
M  END
> <minimizedAffinity>
-4.05805

$$$$
4Y3Y_DCL_A_412


 11 10  0  0  0  0  0  0  0  0999 V2000
    2.5214    5.4634    9.4146 N   0  0  0  0  0  0  0  0  0  0  0  0
    1.4529    5.8606   10.3614 C   0  0  0  0  0  0  0  0  0  0  0  0
    2.7228    4.4697    9.5266 H   0  0  0  0  0  0  0  0  0  0  0  0
    3.3642    6.0049    9.6064 H   0  0  0  0  0  0  0  0  0  0  0  0
    0.2549    4.9586   10.1043 C   0  0  0  0  0  0  0  0  0  0  0  0
    0.6718    3.7406    9.4802 O   0  0  0  0  0  0  0  0  0  0  0  0
    1.0965    3.9411    8.6314 H   0  0  0  0  0  0  0  0  0  0  0  0
    1.0680    7.3467   10.2779 C   0  0  0  0  0  0  0  0  0  0  0  0
    1.8502    8.2918   11.2012 C   0  0  0  0  0  0  0  0  0  0  0  0
    1.6418    7.9486   12.6672 C   0  0  0  0  0  0  0  0  0  0  0  0
    1.4645    9.7315   10.9389 C   0  0  0  0  0  0  0  0  0  0  0  0
  1  2  1  0  0  0
  2  5  1  0  0  0
  2  8  1  0  0  0
  5  6  1  0  0  0
  8  9  1  0  0  0
  9 10  1  0  0  0
  9 11  1  0  0  0
  1  3  1  0  0  0
  1  4  1  0  0  0
  6  7  1  0  0  0
M  END
> <minimizedAffinity>
-3.93082

$$$$
4Y3Y_DCL_A_412


 11 10  0  0  0  0  0  0  0  0999 V2000
   -0.0996    3.2147   10.7280 N   0  0  0  0  0  0  0  0  0  0  0  0
   -0.3520    4.2639    9.7125 C   0  0  0  0  0  0  0  0  0  0  0  0
    0.6442    2.5976   10.4017 H   0  0  0  0  0  0  0  0  0  0  0  0
   -0.9509    2.6725   10.8756 H   0  0  0  0  0  0  0  0  0  0  0  0
    0.9670    4.9764    9.4527 C   0  0  0  0  0  0  0  0  0  0  0  0
    1.4514    4.6680    8.1423 O   0  0  0  0  0  0  0  0  0  0  0  0
    1.5958    3.7117    8.0676 H   0  0  0  0  0  0  0  0  0  0  0  0
   -1.4606    5.2548   10.1034 C   0  0  0  0  0  0  0  0  0  0  0  0
   -2.5263    5.5214    9.0306 C   0  0  0  0  0  0  0  0  0  0  0  0
   -2.9279    4.2473    8.3055 C   0  0  0  0  0  0  0  0  0  0  0  0
   -2.0377    6.5570    8.0413 C   0  0  0  0  0  0  0  0  0  0  0  0
  1  2  1  0  0  0
  2  5  1  0  0  0
  2  8  1  0  0  0
  5  6  1  0  0  0
  8  9  1  0  0  0
  9 10  1  0  0  0
  9 11  1  0  0  0
  1  3  1  0  0  0
  1  4  1  0  0  0
  6  7  1  0  0  0
M  END
> <minimizedAffinity>
-3.91839

$$$$
4Y3Y_DCL_A_412


 11 10  0  0  0  0  0  0  0  0999 V2000
    2.5325    5.5452    9.4743 N   0  0  0  0  0  0  0  0  0  0  0  0
    1.9041    6.8582    9.7518 C   0  0  0  0  0  0  0  0  0  0  0  0
    1.8981    4.7981    9.7569 H   0  0  0  0  0  0  0  0  0  0  0  0
    3.4040    5.4677    9.9987 H   0  0  0  0  0  0  0  0  0  0  0  0
    0.5640    6.8856    9.0317 C   0  0  0  0  0  0  0  0  0  0  0  0
    0.3832    5.6896    8.2677 O   0  0  0  0  0  0  0  0  0  0  0  0
    1.0891    5.6187    7.6061 H   0  0  0  0  0  0  0  0  0  0  0  0
    2.7782    8.0615    9.3622 C   0  0  0  0  0  0  0  0  0  0  0  0
    2.0906    9.4330    9.4213 C   0  0  0  0  0  0  0  0  0  0  0  0
    2.4669   10.3044    8.2342 C   0  0  0  0  0  0  0  0  0  0  0  0
    2.4231   10.1394   10.7177 C   0  0  0  0  0  0  0  0  0  0  0  0
  1  2  1  0  0  0
  2  5  1  0  0  0
  2  8  1  0  0  0
  5  6  1  0  0  0
  8  9  1  0  0  0
  9 10  1  0  0  0
  9 11  1  0  0  0
  1  3  1  0  0  0
  1  4  1  0  0  0
  6  7  1  0  0  0
M  END
> <minimizedAffinity>
-3.89043

$$$$
4Y3Y_DCL_A_412


 11 10  0  0  0  0  0  0  0  0999 V2000
   -0.8935    6.2059    9.9329 N   0  0  0  0  0  0  0  0  0  0  0  0
    0.4848    6.4919    9.4701 C   0  0  0  0  0  0  0  0  0  0  0  0
   -1.3008    5.4712    9.3544 H   0  0  0  0  0  0  0  0  0  0  0  0
   -1.4597    7.0510    9.8576 H   0  0  0  0  0  0  0  0  0  0  0  0
    1.2600    5.1831    9.5042 C   0  0  0  0  0  0  0  0  0  0  0  0
    1.3617    4.6286    8.1892 O   0  0  0  0  0  0  0  0  0  0  0  0
    0.4729    4.4535    7.8425 H   0  0  0  0  0  0  0  0  0  0  0  0
    1.1970    7.5902   10.2764 C   0  0  0  0  0  0  0  0  0  0  0  0
    1.6868    8.8003    9.4683 C   0  0  0  0  0  0  0  0  0  0  0  0
    0.8660    9.0051    8.2056 C   0  0  0  0  0  0  0  0  0  0  0  0
    3.1528    8.6516    9.1234 C   0  0  0  0  0  0  0  0  0  0  0  0
  1  2  1  0  0  0
  2  5  1  0  0  0
  2  8  1  0  0  0
  5  6  1  0  0  0
  8  9  1  0  0  0
  9 10  1  0  0  0
  9 11  1  0  0  0
  1  3  1  0  0  0
  1  4  1  0  0  0
  6  7  1  0  0  0
M  END
> <minimizedAffinity>
-3.87566

$$$$
