2HZL_PYR_A_601


  7  6  0  0  0  0  0  0  0  0999 V2000
   62.8195   76.5383   27.5052 C   0  0  0  0  0  0  0  0  0  0  0  0
   63.8310   75.7201   27.5054 O   0  0  0  0  0  0  0  0  0  0  0  0
   63.0361   77.8010   27.7604 O   0  0  0  0  0  0  0  0  0  0  0  0
   62.3216   78.4072   27.7654 H   0  0  0  0  0  0  0  0  0  0  0  0
   61.5098   76.1067   27.2468 C   0  0  0  0  0  0  0  0  0  0  0  0
   60.6920   76.9139   26.6367 O   0  0  0  0  0  0  0  0  0  0  0  0
   61.0158   74.7523   27.6429 C   0  0  0  0  0  0  0  0  0  0  0  0
  1  2  2  0  0  0
  1  3  1  0  0  0
  1  5  1  0  0  0
  5  6  2  0  0  0
  5  7  1  0  0  0
  3  4  1  0  0  0
M  END
> <minimizedAffinity>
-4.73564

$$$$
2HZL_PYR_A_601


  7  6  0  0  0  0  0  0  0  0999 V2000
   62.4686   77.1422   26.8810 C   0  0  0  0  0  0  0  0  0  0  0  0
   63.5628   77.8075   26.6517 O   0  0  0  0  0  0  0  0  0  0  0  0
   61.3243   77.6992   26.5870 O   0  0  0  0  0  0  0  0  0  0  0  0
   60.5243   77.2374   26.7442 H   0  0  0  0  0  0  0  0  0  0  0  0
   62.4804   75.8542   27.4372 C   0  0  0  0  0  0  0  0  0  0  0  0
   63.6093   75.3622   27.8568 O   0  0  0  0  0  0  0  0  0  0  0  0
   61.2445   75.0234   27.5697 C   0  0  0  0  0  0  0  0  0  0  0  0
  1  2  2  0  0  0
  1  3  1  0  0  0
  1  5  1  0  0  0
  5  6  2  0  0  0
  5  7  1  0  0  0
  3  4  1  0  0  0
M  END
> <minimizedAffinity>
-4.33880

$$$$
2HZL_PYR_A_601


  7  6  0  0  0  0  0  0  0  0999 V2000
   60.8538   76.3169   26.6927 C   0  0  0  0  0  0  0  0  0  0  0  0
   59.7010   75.9076   26.2501 O   0  0  0  0  0  0  0  0  0  0  0  0
   61.1563   77.5821   26.5741 O   0  0  0  0  0  0  0  0  0  0  0  0
   61.9814   77.8978   26.8863 H   0  0  0  0  0  0  0  0  0  0  0  0
   61.7792   75.4442   27.2847 C   0  0  0  0  0  0  0  0  0  0  0  0
   61.3896   74.2484   27.6179 O   0  0  0  0  0  0  0  0  0  0  0  0
   63.1989   75.8330   27.5460 C   0  0  0  0  0  0  0  0  0  0  0  0
  1  2  2  0  0  0
  1  3  1  0  0  0
  1  5  1  0  0  0
  5  6  2  0  0  0
  5  7  1  0  0  0
  3  4  1  0  0  0
M  END
> <minimizedAffinity>
-3.79562

$$$$
2HZL_PYR_A_601


  7  6  0  0  0  0  0  0  0  0999 V2000
   61.4837   74.9001   27.2274 C   0  0  0  0  0  0  0  0  0  0  0  0
   61.1227   73.8079   27.8349 O   0  0  0  0  0  0  0  0  0  0  0  0
   62.7492   75.2239   27.2214 O   0  0  0  0  0  0  0  0  0  0  0  0
   63.0305   76.0064   26.7896 H   0  0  0  0  0  0  0  0  0  0  0  0
   60.5592   75.7392   26.5874 C   0  0  0  0  0  0  0  0  0  0  0  0
   60.7493   77.0258   26.6239 O   0  0  0  0  0  0  0  0  0  0  0  0
   59.3629   75.2130   25.8612 C   0  0  0  0  0  0  0  0  0  0  0  0
  1  2  2  0  0  0
  1  3  1  0  0  0
  1  5  1  0  0  0
  5  6  2  0  0  0
  5  7  1  0  0  0
  3  4  1  0  0  0
M  END
> <minimizedAffinity>
-3.34673

$$$$
2HZL_PYR_A_601


  7  6  0  0  0  0  0  0  0  0999 V2000
   61.3996   75.4420   27.2516 C   0  0  0  0  0  0  0  0  0  0  0  0
   61.2287   74.2055   27.6180 O   0  0  0  0  0  0  0  0  0  0  0  0
   60.4013   76.0730   26.6937 O   0  0  0  0  0  0  0  0  0  0  0  0
   60.5031   76.9641   26.4224 H   0  0  0  0  0  0  0  0  0  0  0  0
   62.6190   76.1123   27.4312 C   0  0  0  0  0  0  0  0  0  0  0  0
   63.6884   75.4140   27.6787 O   0  0  0  0  0  0  0  0  0  0  0  0
   62.7395   77.6001   27.3466 C   0  0  0  0  0  0  0  0  0  0  0  0
  1  2  2  0  0  0
  1  3  1  0  0  0
  1  5  1  0  0  0
  5  6  2  0  0  0
  5  7  1  0  0  0
  3  4  1  0  0  0
M  END
> <minimizedAffinity>
-3.26472

$$$$
2HZL_PYR_A_601


  7  6  0  0  0  0  0  0  0  0999 V2000
   59.5514   75.2957   25.5639 C   0  0  0  0  0  0  0  0  0  0  0  0
   58.7420   74.2782   25.6085 O   0  0  0  0  0  0  0  0  0  0  0  0
   59.5383   76.0596   24.5044 O   0  0  0  0  0  0  0  0  0  0  0  0
   60.1132   76.7977   24.4519 H   0  0  0  0  0  0  0  0  0  0  0  0
   60.4370   75.5920   26.6109 C   0  0  0  0  0  0  0  0  0  0  0  0
   60.8405   76.8194   26.7631 O   0  0  0  0  0  0  0  0  0  0  0  0
   60.9349   74.5519   27.5626 C   0  0  0  0  0  0  0  0  0  0  0  0
  1  2  2  0  0  0
  1  3  1  0  0  0
  1  5  1  0  0  0
  5  6  2  0  0  0
  5  7  1  0  0  0
  3  4  1  0  0  0
M  END
> <minimizedAffinity>
-3.17695

$$$$
2HZL_PYR_A_601


  7  6  0  0  0  0  0  0  0  0999 V2000
   60.7165   75.7143   26.6784 C   0  0  0  0  0  0  0  0  0  0  0  0
   61.4899   74.7212   27.0070 O   0  0  0  0  0  0  0  0  0  0  0  0
   61.1358   76.9323   26.8952 O   0  0  0  0  0  0  0  0  0  0  0  0
   60.5944   77.6619   26.6660 H   0  0  0  0  0  0  0  0  0  0  0  0
   59.4503   75.5175   26.1070 C   0  0  0  0  0  0  0  0  0  0  0  0
   58.3951   75.8579   26.7876 O   0  0  0  0  0  0  0  0  0  0  0  0
   59.2647   74.9334   24.7434 C   0  0  0  0  0  0  0  0  0  0  0  0
  1  2  2  0  0  0
  1  3  1  0  0  0
  1  5  1  0  0  0
  5  6  2  0  0  0
  5  7  1  0  0  0
  3  4  1  0  0  0
M  END
> <minimizedAffinity>
-2.82209

$$$$
