2VNT_QGG_A_1258


 31 33  0  0  0  0  0  0  0  0999 V2000
  -39.9089  175.2775   71.3802 C   0  0  0  0  0  0  0  0  0  0  0  0
  -40.3090  176.0973   72.3273 N   0  0  0  0  0  0  0  0  0  0  0  0
  -39.9216  175.9993   73.5919 C   0  0  0  0  0  0  0  0  0  0  0  0
  -39.0848  174.9875   73.9914 C   0  0  0  0  0  0  0  0  0  0  0  0
  -38.5913  174.9062   75.6203 Cl  0  0  0  0  0  0  0  0  0  0  0  0
  -38.5967  174.0282   73.0796 C   0  0  0  0  0  0  0  0  0  0  0  0
  -37.7217  172.9735   73.4634 C   0  0  0  0  0  0  0  0  0  0  0  0
  -37.3028  172.1101   72.5318 C   0  0  0  0  0  0  0  0  0  0  0  0
  -37.7008  172.2669   71.2043 C   0  0  0  0  0  0  0  0  0  0  0  0
  -38.5454  173.2555   70.7993 C   0  0  0  0  0  0  0  0  0  0  0  0
  -39.0027  174.1666   71.7366 C   0  0  0  0  0  0  0  0  0  0  0  0
  -40.9437  177.6140   70.2559 N   0  0  0  0  0  0  0  0  0  0  0  0
  -40.8779  176.4486   69.5653 C   0  0  0  0  0  0  0  0  0  0  0  0
  -40.3617  175.3814   70.0955 N   0  0  0  0  0  0  0  0  0  0  0  0
  -41.2997  176.3385   68.2933 N   0  0  0  0  0  0  0  0  0  0  0  0
  -40.6242  177.6535   71.1863 H   0  0  0  0  0  0  0  0  0  0  0  0
  -41.3108  178.4204   69.8267 H   0  0  0  0  0  0  0  0  0  0  0  0
  -41.6998  177.1145   67.8385 H   0  0  0  0  0  0  0  0  0  0  0  0
  -41.2083  175.4819   67.8168 H   0  0  0  0  0  0  0  0  0  0  0  0
  -37.0575  171.1377   70.0393 S   0  0  0  0  0  0  0  0  0  0  0  0
  -37.7251  171.2771   68.7789 O   0  0  0  0  0  0  0  0  0  0  0  0
  -35.7203  171.4203   70.2077 O   0  0  0  0  0  0  0  0  0  0  0  0
  -37.4463  169.6151   70.6562 N   0  0  0  0  0  0  0  0  0  0  0  0
  -36.5329  168.6150   71.2429 C   0  0  0  0  0  0  0  0  0  0  0  0
  -37.3922  167.8683   72.2955 C   0  0  0  0  0  0  0  0  0  0  0  0
  -38.8114  167.8183   71.6720 C   0  0  0  0  0  0  0  0  0  0  0  0
  -38.7967  169.0497   70.7498 C   0  0  0  0  0  0  0  0  0  0  0  0
  -39.2865  168.6277   69.4004 C   0  0  0  0  0  0  0  0  0  0  0  0
  -38.9693  167.5910   68.8255 O   0  0  0  0  0  0  0  0  0  0  0  0
  -40.1205  169.4960   68.8535 O   0  0  0  0  0  0  0  0  0  0  0  0
  -40.3474  170.2807   69.3126 H   0  0  0  0  0  0  0  0  0  0  0  0
 12 13  1  0  0  0
 13 14  2  0  0  0
 13 15  1  0  0  0
 14  1  1  0  0  0
  1  2  1  0  0  0
  1 11  2  0  0  0
  2  3  2  0  0  0
  3  4  1  0  0  0
  4  5  1  0  0  0
  4  6  2  0  0  0
  6  7  1  0  0  0
  6 11  1  0  0  0
  7  8  2  0  0  0
  8  9  1  0  0  0
  9 10  2  0  0  0
  9 20  1  0  0  0
 10 11  1  0  0  0
 20 21  2  0  0  0
 20 22  2  0  0  0
 20 23  1  0  0  0
 23 24  1  0  0  0
 23 27  1  0  0  0
 24 25  1  0  0  0
 25 26  1  0  0  0
 26 27  1  0  0  0
 27 28  1  0  0  0
 28 29  2  0  0  0
 28 30  1  0  0  0
 12 16  1  0  0  0
 12 17  1  0  0  0
 30 31  1  0  0  0
 15 18  1  0  0  0
 15 19  1  0  0  0
M  END
> <minimizedAffinity>
-8.80464

$$$$
2VNT_QGG_A_1258


 31 33  0  0  0  0  0  0  0  0999 V2000
  -39.7534  175.1462   71.3143 C   0  0  0  0  0  0  0  0  0  0  0  0
  -39.8420  176.0856   72.2302 N   0  0  0  0  0  0  0  0  0  0  0  0
  -39.2747  175.9979   73.4257 C   0  0  0  0  0  0  0  0  0  0  0  0
  -38.5739  174.8746   73.7874 C   0  0  0  0  0  0  0  0  0  0  0  0
  -37.8405  174.8068   75.3240 Cl  0  0  0  0  0  0  0  0  0  0  0  0
  -38.4184  173.7843   72.9060 C   0  0  0  0  0  0  0  0  0  0  0  0
  -37.6906  172.6109   73.2505 C   0  0  0  0  0  0  0  0  0  0  0  0
  -37.5889  171.6263   72.3511 C   0  0  0  0  0  0  0  0  0  0  0  0
  -38.1666  171.7695   71.0898 C   0  0  0  0  0  0  0  0  0  0  0  0
  -38.8800  172.8712   70.7260 C   0  0  0  0  0  0  0  0  0  0  0  0
  -39.0097  173.9101   71.6323 C   0  0  0  0  0  0  0  0  0  0  0  0
  -40.7509  177.5297   70.2569 N   0  0  0  0  0  0  0  0  0  0  0  0
  -40.8876  176.3427   69.6153 C   0  0  0  0  0  0  0  0  0  0  0  0
  -40.3865  175.2507   70.1082 N   0  0  0  0  0  0  0  0  0  0  0  0
  -41.5058  176.2318   68.4265 N   0  0  0  0  0  0  0  0  0  0  0  0
  -40.2913  177.5691   71.1267 H   0  0  0  0  0  0  0  0  0  0  0  0
  -41.1113  178.3520   69.8529 H   0  0  0  0  0  0  0  0  0  0  0  0
  -41.9051  177.0259   68.0033 H   0  0  0  0  0  0  0  0  0  0  0  0
  -41.5592  175.3564   67.9792 H   0  0  0  0  0  0  0  0  0  0  0  0
  -37.9320  170.4673   69.9516 S   0  0  0  0  0  0  0  0  0  0  0  0
  -37.9778  169.1996   70.6183 O   0  0  0  0  0  0  0  0  0  0  0  0
  -38.8683  170.8504   69.0173 O   0  0  0  0  0  0  0  0  0  0  0  0
  -36.3613  170.6813   69.3711 N   0  0  0  0  0  0  0  0  0  0  0  0
  -35.3704  171.6919   69.7899 C   0  0  0  0  0  0  0  0  0  0  0  0
  -33.9971  170.9984   69.5977 C   0  0  0  0  0  0  0  0  0  0  0  0
  -34.1851  170.1082   68.3417 C   0  0  0  0  0  0  0  0  0  0  0  0
  -35.7007  169.8446   68.3632 C   0  0  0  0  0  0  0  0  0  0  0  0
  -36.2439  170.1340   66.9993 C   0  0  0  0  0  0  0  0  0  0  0  0
  -35.7576  170.9260   66.1980 O   0  0  0  0  0  0  0  0  0  0  0  0
  -37.3344  169.4423   66.7149 O   0  0  0  0  0  0  0  0  0  0  0  0
  -37.6866  168.8435   67.3437 H   0  0  0  0  0  0  0  0  0  0  0  0
 12 13  1  0  0  0
 13 14  2  0  0  0
 13 15  1  0  0  0
 14  1  1  0  0  0
  1  2  1  0  0  0
  1 11  2  0  0  0
  2  3  2  0  0  0
  3  4  1  0  0  0
  4  5  1  0  0  0
  4  6  2  0  0  0
  6  7  1  0  0  0
  6 11  1  0  0  0
  7  8  2  0  0  0
  8  9  1  0  0  0
  9 10  2  0  0  0
  9 20  1  0  0  0
 10 11  1  0  0  0
 20 21  2  0  0  0
 20 22  2  0  0  0
 20 23  1  0  0  0
 23 24  1  0  0  0
 23 27  1  0  0  0
 24 25  1  0  0  0
 25 26  1  0  0  0
 26 27  1  0  0  0
 27 28  1  0  0  0
 28 29  2  0  0  0
 28 30  1  0  0  0
 12 16  1  0  0  0
 12 17  1  0  0  0
 30 31  1  0  0  0
 15 18  1  0  0  0
 15 19  1  0  0  0
M  END
> <minimizedAffinity>
-8.61253

$$$$
2VNT_QGG_A_1258


 31 33  0  0  0  0  0  0  0  0999 V2000
  -37.9820  173.3882   74.7151 C   0  0  0  0  0  0  0  0  0  0  0  0
  -38.5829  174.3344   75.4027 N   0  0  0  0  0  0  0  0  0  0  0  0
  -39.3824  175.2406   74.8564 C   0  0  0  0  0  0  0  0  0  0  0  0
  -39.6019  175.2550   73.5017 C   0  0  0  0  0  0  0  0  0  0  0  0
  -40.6523  176.4212   72.8383 Cl  0  0  0  0  0  0  0  0  0  0  0  0
  -39.0030  174.3073   72.6455 C   0  0  0  0  0  0  0  0  0  0  0  0
  -39.2187  174.2927   71.2388 C   0  0  0  0  0  0  0  0  0  0  0  0
  -38.6143  173.3543   70.5021 C   0  0  0  0  0  0  0  0  0  0  0  0
  -37.8105  172.3940   71.1161 C   0  0  0  0  0  0  0  0  0  0  0  0
  -37.5704  172.3808   72.4566 C   0  0  0  0  0  0  0  0  0  0  0  0
  -38.1764  173.3392   73.2515 C   0  0  0  0  0  0  0  0  0  0  0  0
  -38.7953  171.0737   76.0477 N   0  0  0  0  0  0  0  0  0  0  0  0
  -37.4908  171.4337   75.9574 C   0  0  0  0  0  0  0  0  0  0  0  0
  -37.1307  172.4966   75.3039 N   0  0  0  0  0  0  0  0  0  0  0  0
  -36.5008  170.7009   76.4965 N   0  0  0  0  0  0  0  0  0  0  0  0
  -39.4910  171.6378   75.6391 H   0  0  0  0  0  0  0  0  0  0  0  0
  -39.0464  170.2482   76.5217 H   0  0  0  0  0  0  0  0  0  0  0  0
  -36.7129  169.8841   77.0035 H   0  0  0  0  0  0  0  0  0  0  0  0
  -35.5637  170.9812   76.3844 H   0  0  0  0  0  0  0  0  0  0  0  0
  -37.1116  171.1651   70.0927 S   0  0  0  0  0  0  0  0  0  0  0  0
  -37.6728  171.2257   68.7754 O   0  0  0  0  0  0  0  0  0  0  0  0
  -35.7840  171.4268   70.3481 O   0  0  0  0  0  0  0  0  0  0  0  0
  -37.5941  169.7031   70.7853 N   0  0  0  0  0  0  0  0  0  0  0  0
  -36.7559  168.7155   71.4930 C   0  0  0  0  0  0  0  0  0  0  0  0
  -37.7038  168.0734   72.5384 C   0  0  0  0  0  0  0  0  0  0  0  0
  -39.0846  168.0287   71.8335 C   0  0  0  0  0  0  0  0  0  0  0  0
  -38.9684  169.1920   70.8334 C   0  0  0  0  0  0  0  0  0  0  0  0
  -39.3934  168.6944   69.4877 C   0  0  0  0  0  0  0  0  0  0  0  0
  -39.0473  167.6292   68.9861 O   0  0  0  0  0  0  0  0  0  0  0  0
  -40.2026  169.5274   68.8556 O   0  0  0  0  0  0  0  0  0  0  0  0
  -40.4524  170.3350   69.2597 H   0  0  0  0  0  0  0  0  0  0  0  0
 12 13  1  0  0  0
 13 14  2  0  0  0
 13 15  1  0  0  0
 14  1  1  0  0  0
  1  2  1  0  0  0
  1 11  2  0  0  0
  2  3  2  0  0  0
  3  4  1  0  0  0
  4  5  1  0  0  0
  4  6  2  0  0  0
  6  7  1  0  0  0
  6 11  1  0  0  0
  7  8  2  0  0  0
  8  9  1  0  0  0
  9 10  2  0  0  0
  9 20  1  0  0  0
 10 11  1  0  0  0
 20 21  2  0  0  0
 20 22  2  0  0  0
 20 23  1  0  0  0
 23 24  1  0  0  0
 23 27  1  0  0  0
 24 25  1  0  0  0
 25 26  1  0  0  0
 26 27  1  0  0  0
 27 28  1  0  0  0
 28 29  2  0  0  0
 28 30  1  0  0  0
 12 16  1  0  0  0
 12 17  1  0  0  0
 30 31  1  0  0  0
 15 18  1  0  0  0
 15 19  1  0  0  0
M  END
> <minimizedAffinity>
-8.17619

$$$$
2VNT_QGG_A_1258


 31 33  0  0  0  0  0  0  0  0999 V2000
  -37.8764  173.3316   74.6144 C   0  0  0  0  0  0  0  0  0  0  0  0
  -38.4141  174.4038   75.1534 N   0  0  0  0  0  0  0  0  0  0  0  0
  -39.1474  175.2752   74.4739 C   0  0  0  0  0  0  0  0  0  0  0  0
  -39.3596  175.1124   73.1277 C   0  0  0  0  0  0  0  0  0  0  0  0
  -40.3249  176.2409   72.2922 Cl  0  0  0  0  0  0  0  0  0  0  0  0
  -38.8234  174.0151   72.4220 C   0  0  0  0  0  0  0  0  0  0  0  0
  -39.0337  173.8161   71.0286 C   0  0  0  0  0  0  0  0  0  0  0  0
  -38.4918  172.7444   70.4399 C   0  0  0  0  0  0  0  0  0  0  0  0
  -37.7582  171.8289   71.1942 C   0  0  0  0  0  0  0  0  0  0  0  0
  -37.5252  171.9894   72.5263 C   0  0  0  0  0  0  0  0  0  0  0  0
  -38.0676  173.0891   73.1698 C   0  0  0  0  0  0  0  0  0  0  0  0
  -38.8089  171.0376   75.9036 N   0  0  0  0  0  0  0  0  0  0  0  0
  -37.5109  171.4252   75.9696 C   0  0  0  0  0  0  0  0  0  0  0  0
  -37.0906  172.4772   75.3347 N   0  0  0  0  0  0  0  0  0  0  0  0
  -36.5843  170.7313   76.6534 N   0  0  0  0  0  0  0  0  0  0  0  0
  -39.4573  171.5735   75.3921 H   0  0  0  0  0  0  0  0  0  0  0  0
  -39.1027  170.2202   76.3672 H   0  0  0  0  0  0  0  0  0  0  0  0
  -36.8438  169.9244   77.1543 H   0  0  0  0  0  0  0  0  0  0  0  0
  -35.6462  171.0301   76.6533 H   0  0  0  0  0  0  0  0  0  0  0  0
  -37.1407  170.4234   70.3638 S   0  0  0  0  0  0  0  0  0  0  0  0
  -37.2538  170.5851   68.9444 O   0  0  0  0  0  0  0  0  0  0  0  0
  -35.9268  170.3311   71.0074 O   0  0  0  0  0  0  0  0  0  0  0  0
  -38.1737  169.1675   70.8175 N   0  0  0  0  0  0  0  0  0  0  0  0
  -39.5545  168.9196   70.3585 C   0  0  0  0  0  0  0  0  0  0  0  0
  -39.7126  167.3779   70.4046 C   0  0  0  0  0  0  0  0  0  0  0  0
  -38.8750  166.9391   71.6339 C   0  0  0  0  0  0  0  0  0  0  0  0
  -37.8358  168.0697   71.7300 C   0  0  0  0  0  0  0  0  0  0  0  0
  -37.8015  168.5524   73.1459 C   0  0  0  0  0  0  0  0  0  0  0  0
  -38.7877  168.7651   73.8446 O   0  0  0  0  0  0  0  0  0  0  0  0
  -36.5750  168.7410   73.6027 O   0  0  0  0  0  0  0  0  0  0  0  0
  -35.8379  168.5715   73.0497 H   0  0  0  0  0  0  0  0  0  0  0  0
 12 13  1  0  0  0
 13 14  2  0  0  0
 13 15  1  0  0  0
 14  1  1  0  0  0
  1  2  1  0  0  0
  1 11  2  0  0  0
  2  3  2  0  0  0
  3  4  1  0  0  0
  4  5  1  0  0  0
  4  6  2  0  0  0
  6  7  1  0  0  0
  6 11  1  0  0  0
  7  8  2  0  0  0
  8  9  1  0  0  0
  9 10  2  0  0  0
  9 20  1  0  0  0
 10 11  1  0  0  0
 20 21  2  0  0  0
 20 22  2  0  0  0
 20 23  1  0  0  0
 23 24  1  0  0  0
 23 27  1  0  0  0
 24 25  1  0  0  0
 25 26  1  0  0  0
 26 27  1  0  0  0
 27 28  1  0  0  0
 28 29  2  0  0  0
 28 30  1  0  0  0
 12 16  1  0  0  0
 12 17  1  0  0  0
 30 31  1  0  0  0
 15 18  1  0  0  0
 15 19  1  0  0  0
M  END
> <minimizedAffinity>
-7.98535

$$$$
2VNT_QGG_A_1258


 31 33  0  0  0  0  0  0  0  0999 V2000
  -39.1982  174.5926   71.9943 C   0  0  0  0  0  0  0  0  0  0  0  0
  -39.4370  175.1155   73.1770 N   0  0  0  0  0  0  0  0  0  0  0  0
  -39.3628  174.4288   74.3092 C   0  0  0  0  0  0  0  0  0  0  0  0
  -39.0557  173.0912   74.2980 C   0  0  0  0  0  0  0  0  0  0  0  0
  -38.9484  172.2468   75.7740 Cl  0  0  0  0  0  0  0  0  0  0  0  0
  -38.7957  172.4023   73.0948 C   0  0  0  0  0  0  0  0  0  0  0  0
  -38.4669  171.0183   73.0532 C   0  0  0  0  0  0  0  0  0  0  0  0
  -38.2303  170.4456   71.8680 C   0  0  0  0  0  0  0  0  0  0  0  0
  -38.2802  171.2080   70.7011 C   0  0  0  0  0  0  0  0  0  0  0  0
  -38.6020  172.5314   70.6979 C   0  0  0  0  0  0  0  0  0  0  0  0
  -38.8568  173.1580   71.9061 C   0  0  0  0  0  0  0  0  0  0  0  0
  -41.1995  176.4844   71.5359 N   0  0  0  0  0  0  0  0  0  0  0  0
  -40.2688  176.1769   70.5985 C   0  0  0  0  0  0  0  0  0  0  0  0
  -39.3258  175.3185   70.8440 N   0  0  0  0  0  0  0  0  0  0  0  0
  -40.2413  176.7637   69.3890 N   0  0  0  0  0  0  0  0  0  0  0  0
  -41.1857  176.0320   72.4102 H   0  0  0  0  0  0  0  0  0  0  0  0
  -41.8889  177.1600   71.3420 H   0  0  0  0  0  0  0  0  0  0  0  0
  -40.9306  177.4232   69.1461 H   0  0  0  0  0  0  0  0  0  0  0  0
  -39.5317  176.5338   68.7464 H   0  0  0  0  0  0  0  0  0  0  0  0
  -37.8942  170.4005   69.2028 S   0  0  0  0  0  0  0  0  0  0  0  0
  -39.0696  169.8187   68.6253 O   0  0  0  0  0  0  0  0  0  0  0  0
  -37.1983  171.4245   68.6000 O   0  0  0  0  0  0  0  0  0  0  0  0
  -36.8662  169.1373   69.6475 N   0  0  0  0  0  0  0  0  0  0  0  0
  -35.5067  169.2324   70.2144 C   0  0  0  0  0  0  0  0  0  0  0  0
  -35.3720  167.9833   71.1229 C   0  0  0  0  0  0  0  0  0  0  0  0
  -36.1727  166.8791   70.3846 C   0  0  0  0  0  0  0  0  0  0  0  0
  -37.1894  167.7079   69.5806 C   0  0  0  0  0  0  0  0  0  0  0  0
  -37.1659  167.2277   68.1636 C   0  0  0  0  0  0  0  0  0  0  0  0
  -36.1532  166.9579   67.5251 O   0  0  0  0  0  0  0  0  0  0  0  0
  -38.3711  167.1141   67.6316 O   0  0  0  0  0  0  0  0  0  0  0  0
  -39.1293  167.3263   68.1397 H   0  0  0  0  0  0  0  0  0  0  0  0
 12 13  1  0  0  0
 13 14  2  0  0  0
 13 15  1  0  0  0
 14  1  1  0  0  0
  1  2  1  0  0  0
  1 11  2  0  0  0
  2  3  2  0  0  0
  3  4  1  0  0  0
  4  5  1  0  0  0
  4  6  2  0  0  0
  6  7  1  0  0  0
  6 11  1  0  0  0
  7  8  2  0  0  0
  8  9  1  0  0  0
  9 10  2  0  0  0
  9 20  1  0  0  0
 10 11  1  0  0  0
 20 21  2  0  0  0
 20 22  2  0  0  0
 20 23  1  0  0  0
 23 24  1  0  0  0
 23 27  1  0  0  0
 24 25  1  0  0  0
 25 26  1  0  0  0
 26 27  1  0  0  0
 27 28  1  0  0  0
 28 29  2  0  0  0
 28 30  1  0  0  0
 12 16  1  0  0  0
 12 17  1  0  0  0
 30 31  1  0  0  0
 15 18  1  0  0  0
 15 19  1  0  0  0
M  END
> <minimizedAffinity>
-7.95339

$$$$
2VNT_QGG_A_1258


 31 33  0  0  0  0  0  0  0  0999 V2000
  -38.9975  173.7803   72.3190 C   0  0  0  0  0  0  0  0  0  0  0  0
  -39.1643  174.3399   73.4973 N   0  0  0  0  0  0  0  0  0  0  0  0
  -39.1679  173.6604   74.6362 C   0  0  0  0  0  0  0  0  0  0  0  0
  -39.0261  172.2952   74.6375 C   0  0  0  0  0  0  0  0  0  0  0  0
  -39.0142  171.4584   76.1217 Cl  0  0  0  0  0  0  0  0  0  0  0  0
  -38.8585  171.5681   73.4404 C   0  0  0  0  0  0  0  0  0  0  0  0
  -38.7009  170.1540   73.4117 C   0  0  0  0  0  0  0  0  0  0  0  0
  -38.5424  169.5454   72.2314 C   0  0  0  0  0  0  0  0  0  0  0  0
  -38.5056  170.2967   71.0570 C   0  0  0  0  0  0  0  0  0  0  0  0
  -38.6638  171.6493   71.0414 C   0  0  0  0  0  0  0  0  0  0  0  0
  -38.8337  172.3141   72.2442 C   0  0  0  0  0  0  0  0  0  0  0  0
  -40.3470  176.2069   72.0280 N   0  0  0  0  0  0  0  0  0  0  0  0
  -39.6922  175.6172   70.9970 C   0  0  0  0  0  0  0  0  0  0  0  0
  -39.0421  174.5052   71.1619 N   0  0  0  0  0  0  0  0  0  0  0  0
  -39.6424  176.1607   69.7682 N   0  0  0  0  0  0  0  0  0  0  0  0
  -40.3601  175.7765   72.9133 H   0  0  0  0  0  0  0  0  0  0  0  0
  -40.8091  177.0653   71.8910 H   0  0  0  0  0  0  0  0  0  0  0  0
  -40.1161  177.0037   69.5833 H   0  0  0  0  0  0  0  0  0  0  0  0
  -39.1323  175.7157   69.0534 H   0  0  0  0  0  0  0  0  0  0  0  0
  -38.2290  169.4337   69.5654 S   0  0  0  0  0  0  0  0  0  0  0  0
  -38.4353  168.0276   69.7497 O   0  0  0  0  0  0  0  0  0  0  0  0
  -39.0242  170.2004   68.7431 O   0  0  0  0  0  0  0  0  0  0  0  0
  -36.5912  169.6687   69.2299 N   0  0  0  0  0  0  0  0  0  0  0  0
  -35.9565  169.8741   67.9132 C   0  0  0  0  0  0  0  0  0  0  0  0
  -34.7321  170.7795   68.2047 C   0  0  0  0  0  0  0  0  0  0  0  0
  -34.2318  170.3177   69.5982 C   0  0  0  0  0  0  0  0  0  0  0  0
  -35.5178  169.7531   70.2263 C   0  0  0  0  0  0  0  0  0  0  0  0
  -35.2089  168.3997   70.7846 C   0  0  0  0  0  0  0  0  0  0  0  0
  -34.8697  167.4228   70.1238 O   0  0  0  0  0  0  0  0  0  0  0  0
  -35.3370  168.3364   72.0991 O   0  0  0  0  0  0  0  0  0  0  0  0
  -35.5974  169.0963   72.5816 H   0  0  0  0  0  0  0  0  0  0  0  0
 12 13  1  0  0  0
 13 14  2  0  0  0
 13 15  1  0  0  0
 14  1  1  0  0  0
  1  2  1  0  0  0
  1 11  2  0  0  0
  2  3  2  0  0  0
  3  4  1  0  0  0
  4  5  1  0  0  0
  4  6  2  0  0  0
  6  7  1  0  0  0
  6 11  1  0  0  0
  7  8  2  0  0  0
  8  9  1  0  0  0
  9 10  2  0  0  0
  9 20  1  0  0  0
 10 11  1  0  0  0
 20 21  2  0  0  0
 20 22  2  0  0  0
 20 23  1  0  0  0
 23 24  1  0  0  0
 23 27  1  0  0  0
 24 25  1  0  0  0
 25 26  1  0  0  0
 26 27  1  0  0  0
 27 28  1  0  0  0
 28 29  2  0  0  0
 28 30  1  0  0  0
 12 16  1  0  0  0
 12 17  1  0  0  0
 30 31  1  0  0  0
 15 18  1  0  0  0
 15 19  1  0  0  0
M  END
> <minimizedAffinity>
-7.84372

$$$$
2VNT_QGG_A_1258


 31 33  0  0  0  0  0  0  0  0999 V2000
  -38.4913  172.5178   74.7239 C   0  0  0  0  0  0  0  0  0  0  0  0
  -38.8165  173.6085   75.3827 N   0  0  0  0  0  0  0  0  0  0  0  0
  -39.2188  174.7265   74.7937 C   0  0  0  0  0  0  0  0  0  0  0  0
  -39.2860  174.8122   73.4256 C   0  0  0  0  0  0  0  0  0  0  0  0
  -39.8281  176.2581   72.7051 Cl  0  0  0  0  0  0  0  0  0  0  0  0
  -38.9465  173.7209   72.5988 C   0  0  0  0  0  0  0  0  0  0  0  0
  -39.0145  173.7779   71.1785 C   0  0  0  0  0  0  0  0  0  0  0  0
  -38.6786  172.6935   70.4714 C   0  0  0  0  0  0  0  0  0  0  0  0
  -38.2965  171.5229   71.1264 C   0  0  0  0  0  0  0  0  0  0  0  0
  -38.2081  171.4316   72.4823 C   0  0  0  0  0  0  0  0  0  0  0  0
  -38.5448  172.5354   73.2478 C   0  0  0  0  0  0  0  0  0  0  0  0
  -36.1268  172.3871   76.2025 N   0  0  0  0  0  0  0  0  0  0  0  0
  -36.9265  171.3065   76.0234 C   0  0  0  0  0  0  0  0  0  0  0  0
  -38.0395  171.3966   75.3605 N   0  0  0  0  0  0  0  0  0  0  0  0
  -36.6406  170.1020   76.5482 N   0  0  0  0  0  0  0  0  0  0  0  0
  -36.3712  173.2523   75.8014 H   0  0  0  0  0  0  0  0  0  0  0  0
  -35.3018  172.3063   76.7336 H   0  0  0  0  0  0  0  0  0  0  0  0
  -35.8103  169.9731   77.0612 H   0  0  0  0  0  0  0  0  0  0  0  0
  -37.2617  169.3490   76.4195 H   0  0  0  0  0  0  0  0  0  0  0  0
  -37.9379  170.1332   70.1333 S   0  0  0  0  0  0  0  0  0  0  0  0
  -37.8535  168.9481   70.9347 O   0  0  0  0  0  0  0  0  0  0  0  0
  -38.9121  170.3166   69.1775 O   0  0  0  0  0  0  0  0  0  0  0  0
  -36.3991  170.4365   69.5087 N   0  0  0  0  0  0  0  0  0  0  0  0
  -35.4361  171.4709   69.9346 C   0  0  0  0  0  0  0  0  0  0  0  0
  -34.0433  170.8445   69.6670 C   0  0  0  0  0  0  0  0  0  0  0  0
  -34.2397  169.9977   68.3826 C   0  0  0  0  0  0  0  0  0  0  0  0
  -35.7415  169.6694   68.4452 C   0  0  0  0  0  0  0  0  0  0  0  0
  -36.3447  169.9895   67.1137 C   0  0  0  0  0  0  0  0  0  0  0  0
  -35.9769  170.8934   66.3697 O   0  0  0  0  0  0  0  0  0  0  0  0
  -37.3470  169.1902   66.7899 O   0  0  0  0  0  0  0  0  0  0  0  0
  -37.6093  168.5069   67.3750 H   0  0  0  0  0  0  0  0  0  0  0  0
 12 13  1  0  0  0
 13 14  2  0  0  0
 13 15  1  0  0  0
 14  1  1  0  0  0
  1  2  1  0  0  0
  1 11  2  0  0  0
  2  3  2  0  0  0
  3  4  1  0  0  0
  4  5  1  0  0  0
  4  6  2  0  0  0
  6  7  1  0  0  0
  6 11  1  0  0  0
  7  8  2  0  0  0
  8  9  1  0  0  0
  9 10  2  0  0  0
  9 20  1  0  0  0
 10 11  1  0  0  0
 20 21  2  0  0  0
 20 22  2  0  0  0
 20 23  1  0  0  0
 23 24  1  0  0  0
 23 27  1  0  0  0
 24 25  1  0  0  0
 25 26  1  0  0  0
 26 27  1  0  0  0
 27 28  1  0  0  0
 28 29  2  0  0  0
 28 30  1  0  0  0
 12 16  1  0  0  0
 12 17  1  0  0  0
 30 31  1  0  0  0
 15 18  1  0  0  0
 15 19  1  0  0  0
M  END
> <minimizedAffinity>
-7.83430

$$$$
2VNT_QGG_A_1258


 31 33  0  0  0  0  0  0  0  0999 V2000
  -37.1904  172.7672   75.0538 C   0  0  0  0  0  0  0  0  0  0  0  0
  -36.2048  173.1267   75.8466 N   0  0  0  0  0  0  0  0  0  0  0  0
  -35.7137  172.3494   76.8024 C   0  0  0  0  0  0  0  0  0  0  0  0
  -36.2482  171.1075   77.0386 C   0  0  0  0  0  0  0  0  0  0  0  0
  -35.5770  170.1284   78.2609 Cl  0  0  0  0  0  0  0  0  0  0  0  0
  -37.3219  170.6068   76.2729 C   0  0  0  0  0  0  0  0  0  0  0  0
  -37.8907  169.3204   76.4895 C   0  0  0  0  0  0  0  0  0  0  0  0
  -38.9044  168.9230   75.7129 C   0  0  0  0  0  0  0  0  0  0  0  0
  -39.3698  169.7522   74.6926 C   0  0  0  0  0  0  0  0  0  0  0  0
  -38.8600  170.9936   74.4607 C   0  0  0  0  0  0  0  0  0  0  0  0
  -37.8116  171.4409   75.2470 C   0  0  0  0  0  0  0  0  0  0  0  0
  -39.1938  174.6515   75.5335 N   0  0  0  0  0  0  0  0  0  0  0  0
  -38.6555  174.4681   74.3022 C   0  0  0  0  0  0  0  0  0  0  0  0
  -37.7006  173.6098   74.1072 N   0  0  0  0  0  0  0  0  0  0  0  0
  -39.0435  175.1823   73.2311 N   0  0  0  0  0  0  0  0  0  0  0  0
  -38.8822  174.1079   76.2929 H   0  0  0  0  0  0  0  0  0  0  0  0
  -39.8961  175.3282   75.6679 H   0  0  0  0  0  0  0  0  0  0  0  0
  -39.7633  175.8483   73.3180 H   0  0  0  0  0  0  0  0  0  0  0  0
  -38.6078  175.0392   72.3600 H   0  0  0  0  0  0  0  0  0  0  0  0
  -40.6509  169.1327   73.6821 S   0  0  0  0  0  0  0  0  0  0  0  0
  -41.4501  168.1865   74.4031 O   0  0  0  0  0  0  0  0  0  0  0  0
  -41.1475  170.3359   73.2326 O   0  0  0  0  0  0  0  0  0  0  0  0
  -39.8589  168.2954   72.4486 N   0  0  0  0  0  0  0  0  0  0  0  0
  -39.2359  166.9589   72.5157 C   0  0  0  0  0  0  0  0  0  0  0  0
  -39.3975  166.3783   71.0872 C   0  0  0  0  0  0  0  0  0  0  0  0
  -39.2504  167.6060   70.1511 C   0  0  0  0  0  0  0  0  0  0  0  0
  -39.7006  168.7584   71.0656 C   0  0  0  0  0  0  0  0  0  0  0  0
  -38.6741  169.8443   70.9872 C   0  0  0  0  0  0  0  0  0  0  0  0
  -37.4597  169.6691   70.9664 O   0  0  0  0  0  0  0  0  0  0  0  0
  -39.2001  171.0566   70.9420 O   0  0  0  0  0  0  0  0  0  0  0  0
  -40.1307  171.1645   70.9592 H   0  0  0  0  0  0  0  0  0  0  0  0
 12 13  1  0  0  0
 13 14  2  0  0  0
 13 15  1  0  0  0
 14  1  1  0  0  0
  1  2  1  0  0  0
  1 11  2  0  0  0
  2  3  2  0  0  0
  3  4  1  0  0  0
  4  5  1  0  0  0
  4  6  2  0  0  0
  6  7  1  0  0  0
  6 11  1  0  0  0
  7  8  2  0  0  0
  8  9  1  0  0  0
  9 10  2  0  0  0
  9 20  1  0  0  0
 10 11  1  0  0  0
 20 21  2  0  0  0
 20 22  2  0  0  0
 20 23  1  0  0  0
 23 24  1  0  0  0
 23 27  1  0  0  0
 24 25  1  0  0  0
 25 26  1  0  0  0
 26 27  1  0  0  0
 27 28  1  0  0  0
 28 29  2  0  0  0
 28 30  1  0  0  0
 12 16  1  0  0  0
 12 17  1  0  0  0
 30 31  1  0  0  0
 15 18  1  0  0  0
 15 19  1  0  0  0
M  END
> <minimizedAffinity>
-7.83016

$$$$
2VNT_QGG_A_1258


 31 33  0  0  0  0  0  0  0  0999 V2000
  -37.9205  172.9494   74.7175 C   0  0  0  0  0  0  0  0  0  0  0  0
  -38.6344  173.9670   75.1464 N   0  0  0  0  0  0  0  0  0  0  0  0
  -39.2881  174.7934   74.3411 C   0  0  0  0  0  0  0  0  0  0  0  0
  -39.2226  174.6413   72.9787 C   0  0  0  0  0  0  0  0  0  0  0  0
  -40.0931  175.7094   71.9764 Cl  0  0  0  0  0  0  0  0  0  0  0  0
  -38.4758  173.6017   72.3859 C   0  0  0  0  0  0  0  0  0  0  0  0
  -38.3963  173.4145   70.9773 C   0  0  0  0  0  0  0  0  0  0  0  0
  -37.6687  172.3987   70.5005 C   0  0  0  0  0  0  0  0  0  0  0  0
  -37.0256  171.5269   71.3790 C   0  0  0  0  0  0  0  0  0  0  0  0
  -37.0681  171.6786   72.7317 C   0  0  0  0  0  0  0  0  0  0  0  0
  -37.8089  172.7213   73.2623 C   0  0  0  0  0  0  0  0  0  0  0  0
  -38.9920  170.7148   76.0031 N   0  0  0  0  0  0  0  0  0  0  0  0
  -37.7141  171.1208   76.2069 C   0  0  0  0  0  0  0  0  0  0  0  0
  -37.2245  172.1431   75.5731 N   0  0  0  0  0  0  0  0  0  0  0  0
  -36.8747  170.4746   77.0350 N   0  0  0  0  0  0  0  0  0  0  0  0
  -39.5754  171.2156   75.3883 H   0  0  0  0  0  0  0  0  0  0  0  0
  -39.3361  169.9194   76.4701 H   0  0  0  0  0  0  0  0  0  0  0  0
  -37.1895  169.6919   77.5426 H   0  0  0  0  0  0  0  0  0  0  0  0
  -35.9454  170.7841   77.1338 H   0  0  0  0  0  0  0  0  0  0  0  0
  -36.1512  170.1887   70.6784 S   0  0  0  0  0  0  0  0  0  0  0  0
  -34.8022  170.5683   70.3789 O   0  0  0  0  0  0  0  0  0  0  0  0
  -36.4634  169.2339   71.6203 O   0  0  0  0  0  0  0  0  0  0  0  0
  -36.9323  169.8847   69.2129 N   0  0  0  0  0  0  0  0  0  0  0  0
  -36.7261  170.5636   67.9185 C   0  0  0  0  0  0  0  0  0  0  0  0
  -37.0193  169.4755   66.8536 C   0  0  0  0  0  0  0  0  0  0  0  0
  -38.1600  168.6258   67.4717 C   0  0  0  0  0  0  0  0  0  0  0  0
  -37.9339  168.8389   68.9786 C   0  0  0  0  0  0  0  0  0  0  0  0
  -39.2432  169.2143   69.5981 C   0  0  0  0  0  0  0  0  0  0  0  0
  -39.4926  169.1807   70.7993 O   0  0  0  0  0  0  0  0  0  0  0  0
  -40.1474  169.5990   68.7133 O   0  0  0  0  0  0  0  0  0  0  0  0
  -39.9328  169.6162   67.8014 H   0  0  0  0  0  0  0  0  0  0  0  0
 12 13  1  0  0  0
 13 14  2  0  0  0
 13 15  1  0  0  0
 14  1  1  0  0  0
  1  2  1  0  0  0
  1 11  2  0  0  0
  2  3  2  0  0  0
  3  4  1  0  0  0
  4  5  1  0  0  0
  4  6  2  0  0  0
  6  7  1  0  0  0
  6 11  1  0  0  0
  7  8  2  0  0  0
  8  9  1  0  0  0
  9 10  2  0  0  0
  9 20  1  0  0  0
 10 11  1  0  0  0
 20 21  2  0  0  0
 20 22  2  0  0  0
 20 23  1  0  0  0
 23 24  1  0  0  0
 23 27  1  0  0  0
 24 25  1  0  0  0
 25 26  1  0  0  0
 26 27  1  0  0  0
 27 28  1  0  0  0
 28 29  2  0  0  0
 28 30  1  0  0  0
 12 16  1  0  0  0
 12 17  1  0  0  0
 30 31  1  0  0  0
 15 18  1  0  0  0
 15 19  1  0  0  0
M  END
> <minimizedAffinity>
-7.74727

$$$$
2VNT_QGG_A_1258


 31 33  0  0  0  0  0  0  0  0999 V2000
  -38.4889  172.4274   74.5816 C   0  0  0  0  0  0  0  0  0  0  0  0
  -38.7111  173.5525   75.2250 N   0  0  0  0  0  0  0  0  0  0  0  0
  -39.0077  174.6950   74.6203 C   0  0  0  0  0  0  0  0  0  0  0  0
  -39.0668  174.7677   73.2511 C   0  0  0  0  0  0  0  0  0  0  0  0
  -39.4720  176.2477   72.5103 Cl  0  0  0  0  0  0  0  0  0  0  0  0
  -38.8304  173.6383   72.4397 C   0  0  0  0  0  0  0  0  0  0  0  0
  -38.8930  173.6819   71.0186 C   0  0  0  0  0  0  0  0  0  0  0  0
  -38.6596  172.5614   70.3269 C   0  0  0  0  0  0  0  0  0  0  0  0
  -38.3881  171.3694   70.9982 C   0  0  0  0  0  0  0  0  0  0  0  0
  -38.3084  171.2889   72.3554 C   0  0  0  0  0  0  0  0  0  0  0  0
  -38.5407  172.4296   73.1053 C   0  0  0  0  0  0  0  0  0  0  0  0
  -40.1903  171.0016   76.2747 N   0  0  0  0  0  0  0  0  0  0  0  0
  -38.9081  170.6198   76.0517 C   0  0  0  0  0  0  0  0  0  0  0  0
  -38.1435  171.2778   75.2340 N   0  0  0  0  0  0  0  0  0  0  0  0
  -38.3701  169.5284   76.6239 N   0  0  0  0  0  0  0  0  0  0  0  0
  -40.5472  171.8076   75.8364 H   0  0  0  0  0  0  0  0  0  0  0  0
  -40.7641  170.4727   76.8749 H   0  0  0  0  0  0  0  0  0  0  0  0
  -38.9021  168.9894   77.2529 H   0  0  0  0  0  0  0  0  0  0  0  0
  -37.4440  169.2684   76.4139 H   0  0  0  0  0  0  0  0  0  0  0  0
  -38.1605  169.9388   70.0247 S   0  0  0  0  0  0  0  0  0  0  0  0
  -38.2889  168.7573   70.8255 O   0  0  0  0  0  0  0  0  0  0  0  0
  -39.0387  170.2484   69.0101 O   0  0  0  0  0  0  0  0  0  0  0  0
  -36.5586  170.0266   69.4992 N   0  0  0  0  0  0  0  0  0  0  0  0
  -36.0663  170.2019   68.1187 C   0  0  0  0  0  0  0  0  0  0  0  0
  -34.7348  170.9812   68.2729 C   0  0  0  0  0  0  0  0  0  0  0  0
  -34.1209  170.4422   69.5912 C   0  0  0  0  0  0  0  0  0  0  0  0
  -35.3724  169.9865   70.3613 C   0  0  0  0  0  0  0  0  0  0  0  0
  -35.1314  168.5974   70.8626 C   0  0  0  0  0  0  0  0  0  0  0  0
  -34.6527  167.6805   70.2023 O   0  0  0  0  0  0  0  0  0  0  0  0
  -35.4912  168.4286   72.1238 O   0  0  0  0  0  0  0  0  0  0  0  0
  -35.8545  169.1444   72.6072 H   0  0  0  0  0  0  0  0  0  0  0  0
 12 13  1  0  0  0
 13 14  2  0  0  0
 13 15  1  0  0  0
 14  1  1  0  0  0
  1  2  1  0  0  0
  1 11  2  0  0  0
  2  3  2  0  0  0
  3  4  1  0  0  0
  4  5  1  0  0  0
  4  6  2  0  0  0
  6  7  1  0  0  0
  6 11  1  0  0  0
  7  8  2  0  0  0
  8  9  1  0  0  0
  9 10  2  0  0  0
  9 20  1  0  0  0
 10 11  1  0  0  0
 20 21  2  0  0  0
 20 22  2  0  0  0
 20 23  1  0  0  0
 23 24  1  0  0  0
 23 27  1  0  0  0
 24 25  1  0  0  0
 25 26  1  0  0  0
 26 27  1  0  0  0
 27 28  1  0  0  0
 28 29  2  0  0  0
 28 30  1  0  0  0
 12 16  1  0  0  0
 12 17  1  0  0  0
 30 31  1  0  0  0
 15 18  1  0  0  0
 15 19  1  0  0  0
M  END
> <minimizedAffinity>
-7.57594

$$$$
