1F73_HMN_A_700


 29 28  0  0  0  0  0  0  0  0999 V2000
   -5.0121   45.1084   51.0270 C   0  0  0  0  0  0  0  0  0  0  0  0
   -4.1528   46.0159   50.2365 N   0  0  0  0  0  0  0  0  0  0  0  0
   -3.7421   45.6332   49.0274 C   0  0  0  0  0  0  0  0  0  0  0  0
   -3.7910   44.4511   48.6734 O   0  0  0  0  0  0  0  0  0  0  0  0
   -3.1860   46.6680   48.0627 C   0  0  0  0  0  0  0  0  0  0  0  0
   -3.8872   46.8920   50.5988 H   0  0  0  0  0  0  0  0  0  0  0  0
   -6.2411   45.9228   51.4170 C   0  0  0  0  0  0  0  0  0  0  0  0
   -5.8475   47.0758   52.1523 O   0  0  0  0  0  0  0  0  0  0  0  0
   -5.2610   47.6226   51.6065 H   0  0  0  0  0  0  0  0  0  0  0  0
   -6.9599   46.3685   50.1476 C   0  0  0  0  0  0  0  0  0  0  0  0
   -8.1751   47.1730   50.5497 C   0  0  0  0  0  0  0  0  0  0  0  0
   -7.8352   48.5521   50.7541 O   0  0  0  0  0  0  0  0  0  0  0  0
   -7.5079   48.9309   49.9232 H   0  0  0  0  0  0  0  0  0  0  0  0
   -9.3024   46.9884   49.5695 C   0  0  0  0  0  0  0  0  0  0  0  0
  -10.3769   46.4676   49.9926 O   0  0  0  0  0  0  0  0  0  0  0  0
   -9.1305   47.4045   48.3909 O   0  0  0  0  0  0  0  0  0  0  0  0
   -8.3091   47.7804   48.1418 H   0  0  0  0  0  0  0  0  0  0  0  0
   -4.2054   44.6206   52.2427 C   0  0  0  0  0  0  0  0  0  0  0  0
   -5.0733   44.4031   53.3493 O   0  0  0  0  0  0  0  0  0  0  0  0
   -5.7280   43.7257   53.1184 H   0  0  0  0  0  0  0  0  0  0  0  0
   -3.4886   43.3192   51.8987 C   0  0  0  0  0  0  0  0  0  0  0  0
   -4.2897   42.4591   51.0943 O   0  0  0  0  0  0  0  0  0  0  0  0
   -5.0878   42.2079   51.5852 H   0  0  0  0  0  0  0  0  0  0  0  0
   -3.1158   42.5733   53.1678 C   0  0  0  0  0  0  0  0  0  0  0  0
   -2.3610   43.4632   53.9715 O   0  0  0  0  0  0  0  0  0  0  0  0
   -1.5901   43.7752   53.4721 H   0  0  0  0  0  0  0  0  0  0  0  0
   -2.2988   41.3710   52.7366 C   0  0  0  0  0  0  0  0  0  0  0  0
   -1.2665   41.0866   53.6667 O   0  0  0  0  0  0  0  0  0  0  0  0
   -0.6665   41.8465   53.7261 H   0  0  0  0  0  0  0  0  0  0  0  0
 14 15  2  0  0  0
 14 16  1  0  0  0
 14 11  1  0  0  0
 11 12  1  0  0  0
 11 10  1  0  0  0
 10  7  1  0  0  0
  7  8  1  0  0  0
  7  1  1  0  0  0
  1  2  1  0  0  0
  1 18  1  0  0  0
  2  3  1  0  0  0
  3  4  2  0  0  0
  3  5  1  0  0  0
 18 19  1  0  0  0
 18 21  1  0  0  0
 21 22  1  0  0  0
 21 24  1  0  0  0
 24 25  1  0  0  0
 24 27  1  0  0  0
 27 28  1  0  0  0
 16 17  1  0  0  0
 12 13  1  0  0  0
  8  9  1  0  0  0
  2  6  1  0  0  0
 19 20  1  0  0  0
 22 23  1  0  0  0
 25 26  1  0  0  0
 28 29  1  0  0  0
M  END
> <minimizedAffinity>
-7.48332

$$$$
1F73_HMN_A_700


 29 28  0  0  0  0  0  0  0  0999 V2000
   -5.2197   46.1828   49.2301 C   0  0  0  0  0  0  0  0  0  0  0  0
   -4.7282   46.8595   48.0106 N   0  0  0  0  0  0  0  0  0  0  0  0
   -5.4946   46.8711   46.9199 C   0  0  0  0  0  0  0  0  0  0  0  0
   -6.4436   46.0918   46.7896 O   0  0  0  0  0  0  0  0  0  0  0  0
   -5.1901   47.8537   45.8006 C   0  0  0  0  0  0  0  0  0  0  0  0
   -3.8458   47.2961   48.0042 H   0  0  0  0  0  0  0  0  0  0  0  0
   -5.4204   47.2795   50.2706 C   0  0  0  0  0  0  0  0  0  0  0  0
   -4.5410   48.3668   50.0072 O   0  0  0  0  0  0  0  0  0  0  0  0
   -4.7251   48.7251   49.1248 H   0  0  0  0  0  0  0  0  0  0  0  0
   -6.8597   47.7781   50.1896 C   0  0  0  0  0  0  0  0  0  0  0  0
   -7.7762   46.5760   50.1689 C   0  0  0  0  0  0  0  0  0  0  0  0
   -8.0466   46.1116   51.4995 O   0  0  0  0  0  0  0  0  0  0  0  0
   -8.5039   46.8069   51.9979 H   0  0  0  0  0  0  0  0  0  0  0  0
   -9.0287   46.8562   49.3823 C   0  0  0  0  0  0  0  0  0  0  0  0
  -10.1409   46.5678   49.9157 O   0  0  0  0  0  0  0  0  0  0  0  0
   -8.9031   47.4052   48.2533 O   0  0  0  0  0  0  0  0  0  0  0  0
   -8.0493   47.5920   47.9155 H   0  0  0  0  0  0  0  0  0  0  0  0
   -4.1734   45.1378   49.6545 C   0  0  0  0  0  0  0  0  0  0  0  0
   -3.8336   45.3156   51.0249 O   0  0  0  0  0  0  0  0  0  0  0  0
   -4.6264   45.2018   51.5720 H   0  0  0  0  0  0  0  0  0  0  0  0
   -4.7331   43.7340   49.4503 C   0  0  0  0  0  0  0  0  0  0  0  0
   -5.2357   43.5406   48.1317 O   0  0  0  0  0  0  0  0  0  0  0  0
   -5.9719   44.1521   47.9734 H   0  0  0  0  0  0  0  0  0  0  0  0
   -5.8602   43.4696   50.4328 C   0  0  0  0  0  0  0  0  0  0  0  0
   -5.2762   42.9351   51.6079 O   0  0  0  0  0  0  0  0  0  0  0  0
   -4.7707   42.1381   51.3841 H   0  0  0  0  0  0  0  0  0  0  0  0
   -6.7912   42.4774   49.7637 C   0  0  0  0  0  0  0  0  0  0  0  0
   -7.9009   43.1299   49.1681 O   0  0  0  0  0  0  0  0  0  0  0  0
   -8.4069   43.5962   49.8518 H   0  0  0  0  0  0  0  0  0  0  0  0
 14 15  2  0  0  0
 14 16  1  0  0  0
 14 11  1  0  0  0
 11 12  1  0  0  0
 11 10  1  0  0  0
 10  7  1  0  0  0
  7  8  1  0  0  0
  7  1  1  0  0  0
  1  2  1  0  0  0
  1 18  1  0  0  0
  2  3  1  0  0  0
  3  4  2  0  0  0
  3  5  1  0  0  0
 18 19  1  0  0  0
 18 21  1  0  0  0
 21 22  1  0  0  0
 21 24  1  0  0  0
 24 25  1  0  0  0
 24 27  1  0  0  0
 27 28  1  0  0  0
 16 17  1  0  0  0
 12 13  1  0  0  0
  8  9  1  0  0  0
  2  6  1  0  0  0
 19 20  1  0  0  0
 22 23  1  0  0  0
 25 26  1  0  0  0
 28 29  1  0  0  0
M  END
> <minimizedAffinity>
-7.32079

$$$$
1F73_HMN_A_700


 29 28  0  0  0  0  0  0  0  0999 V2000
   -5.8227   44.1955   51.1128 C   0  0  0  0  0  0  0  0  0  0  0  0
   -5.4020   43.8735   49.7322 N   0  0  0  0  0  0  0  0  0  0  0  0
   -6.0284   42.8992   49.0723 C   0  0  0  0  0  0  0  0  0  0  0  0
   -6.7224   42.0640   49.6603 O   0  0  0  0  0  0  0  0  0  0  0  0
   -5.8773   42.7992   47.5630 C   0  0  0  0  0  0  0  0  0  0  0  0
   -4.6684   44.3726   49.3056 H   0  0  0  0  0  0  0  0  0  0  0  0
   -6.8427   45.3227   50.9921 C   0  0  0  0  0  0  0  0  0  0  0  0
   -7.3775   45.6342   52.2735 O   0  0  0  0  0  0  0  0  0  0  0  0
   -6.6603   45.9133   52.8640 H   0  0  0  0  0  0  0  0  0  0  0  0
   -6.1463   46.5597   50.4340 C   0  0  0  0  0  0  0  0  0  0  0  0
   -6.9500   47.0647   49.2574 C   0  0  0  0  0  0  0  0  0  0  0  0
   -6.7730   46.2190   48.1117 O   0  0  0  0  0  0  0  0  0  0  0  0
   -7.0983   45.3279   48.3144 H   0  0  0  0  0  0  0  0  0  0  0  0
   -8.3973   47.2552   49.6247 C   0  0  0  0  0  0  0  0  0  0  0  0
   -9.2560   46.5203   49.0526 O   0  0  0  0  0  0  0  0  0  0  0  0
   -8.6705   48.1054   50.5160 O   0  0  0  0  0  0  0  0  0  0  0  0
   -7.9866   48.6181   50.8998 H   0  0  0  0  0  0  0  0  0  0  0  0
   -4.5731   44.6006   51.9137 C   0  0  0  0  0  0  0  0  0  0  0  0
   -4.9533   45.1128   53.1858 O   0  0  0  0  0  0  0  0  0  0  0  0
   -5.4312   44.4286   53.6801 H   0  0  0  0  0  0  0  0  0  0  0  0
   -3.6677   43.3888   52.1064 C   0  0  0  0  0  0  0  0  0  0  0  0
   -4.3665   42.1603   51.9301 O   0  0  0  0  0  0  0  0  0  0  0  0
   -5.0648   42.0866   52.5993 H   0  0  0  0  0  0  0  0  0  0  0  0
   -3.0666   43.3984   53.5009 C   0  0  0  0  0  0  0  0  0  0  0  0
   -2.0599   44.3954   53.5173 O   0  0  0  0  0  0  0  0  0  0  0  0
   -1.4089   44.2090   52.8227 H   0  0  0  0  0  0  0  0  0  0  0  0
   -2.4937   42.0139   53.7327 C   0  0  0  0  0  0  0  0  0  0  0  0
   -1.4614   41.7194   52.8056 O   0  0  0  0  0  0  0  0  0  0  0  0
   -1.8193   41.7447   51.9044 H   0  0  0  0  0  0  0  0  0  0  0  0
 14 15  2  0  0  0
 14 16  1  0  0  0
 14 11  1  0  0  0
 11 12  1  0  0  0
 11 10  1  0  0  0
 10  7  1  0  0  0
  7  8  1  0  0  0
  7  1  1  0  0  0
  1  2  1  0  0  0
  1 18  1  0  0  0
  2  3  1  0  0  0
  3  4  2  0  0  0
  3  5  1  0  0  0
 18 19  1  0  0  0
 18 21  1  0  0  0
 21 22  1  0  0  0
 21 24  1  0  0  0
 24 25  1  0  0  0
 24 27  1  0  0  0
 27 28  1  0  0  0
 16 17  1  0  0  0
 12 13  1  0  0  0
  8  9  1  0  0  0
  2  6  1  0  0  0
 19 20  1  0  0  0
 22 23  1  0  0  0
 25 26  1  0  0  0
 28 29  1  0  0  0
M  END
> <minimizedAffinity>
-7.31132

$$$$
1F73_HMN_A_700


 29 28  0  0  0  0  0  0  0  0999 V2000
   -5.1108   45.9444   48.7702 C   0  0  0  0  0  0  0  0  0  0  0  0
   -4.4694   44.6183   48.6400 N   0  0  0  0  0  0  0  0  0  0  0  0
   -4.9635   43.7401   47.7673 C   0  0  0  0  0  0  0  0  0  0  0  0
   -6.0974   43.8677   47.2950 O   0  0  0  0  0  0  0  0  0  0  0  0
   -4.1231   42.5439   47.3507 C   0  0  0  0  0  0  0  0  0  0  0  0
   -3.6871   44.3869   49.1911 H   0  0  0  0  0  0  0  0  0  0  0  0
   -4.1038   46.9558   48.2327 C   0  0  0  0  0  0  0  0  0  0  0  0
   -2.7950   46.6257   48.6832 O   0  0  0  0  0  0  0  0  0  0  0  0
   -2.5583   45.7396   48.3676 H   0  0  0  0  0  0  0  0  0  0  0  0
   -4.1269   46.9114   46.7081 C   0  0  0  0  0  0  0  0  0  0  0  0
   -5.2123   47.8457   46.2240 C   0  0  0  0  0  0  0  0  0  0  0  0
   -4.7977   48.5490   45.0439 O   0  0  0  0  0  0  0  0  0  0  0  0
   -4.6329   47.9135   44.3298 H   0  0  0  0  0  0  0  0  0  0  0  0
   -6.5185   47.1198   46.0426 C   0  0  0  0  0  0  0  0  0  0  0  0
   -7.5372   47.5729   46.6440 O   0  0  0  0  0  0  0  0  0  0  0  0
   -6.5357   46.1263   45.2651 O   0  0  0  0  0  0  0  0  0  0  0  0
   -5.7449   45.8416   44.8511 H   0  0  0  0  0  0  0  0  0  0  0  0
   -5.4530   46.1691   50.2532 C   0  0  0  0  0  0  0  0  0  0  0  0
   -5.0521   47.4741   50.6546 O   0  0  0  0  0  0  0  0  0  0  0  0
   -5.5231   48.1349   50.1231 H   0  0  0  0  0  0  0  0  0  0  0  0
   -6.9551   46.0137   50.4660 C   0  0  0  0  0  0  0  0  0  0  0  0
   -7.5582   45.1918   49.4714 O   0  0  0  0  0  0  0  0  0  0  0  0
   -7.4487   45.6048   48.6006 H   0  0  0  0  0  0  0  0  0  0  0  0
   -7.6333   47.3720   50.4364 C   0  0  0  0  0  0  0  0  0  0  0  0
   -7.5134   47.9297   51.7334 O   0  0  0  0  0  0  0  0  0  0  0  0
   -7.9022   47.3234   52.3832 H   0  0  0  0  0  0  0  0  0  0  0  0
   -9.0809   47.1226   50.0607 C   0  0  0  0  0  0  0  0  0  0  0  0
   -9.3041   47.3541   48.6793 O   0  0  0  0  0  0  0  0  0  0  0  0
   -9.0987   48.2785   48.4691 H   0  0  0  0  0  0  0  0  0  0  0  0
 14 15  2  0  0  0
 14 16  1  0  0  0
 14 11  1  0  0  0
 11 12  1  0  0  0
 11 10  1  0  0  0
 10  7  1  0  0  0
  7  8  1  0  0  0
  7  1  1  0  0  0
  1  2  1  0  0  0
  1 18  1  0  0  0
  2  3  1  0  0  0
  3  4  2  0  0  0
  3  5  1  0  0  0
 18 19  1  0  0  0
 18 21  1  0  0  0
 21 22  1  0  0  0
 21 24  1  0  0  0
 24 25  1  0  0  0
 24 27  1  0  0  0
 27 28  1  0  0  0
 16 17  1  0  0  0
 12 13  1  0  0  0
  8  9  1  0  0  0
  2  6  1  0  0  0
 19 20  1  0  0  0
 22 23  1  0  0  0
 25 26  1  0  0  0
 28 29  1  0  0  0
M  END
> <minimizedAffinity>
-7.10176

$$$$
1F73_HMN_A_700


 29 28  0  0  0  0  0  0  0  0999 V2000
   -4.6162   44.8728   50.6349 C   0  0  0  0  0  0  0  0  0  0  0  0
   -3.5507   45.8736   50.4112 N   0  0  0  0  0  0  0  0  0  0  0  0
   -2.5591   45.5897   49.5666 C   0  0  0  0  0  0  0  0  0  0  0  0
   -2.3300   44.4310   49.2064 O   0  0  0  0  0  0  0  0  0  0  0  0
   -1.6771   46.7114   49.0426 C   0  0  0  0  0  0  0  0  0  0  0  0
   -3.5734   46.7389   50.8803 H   0  0  0  0  0  0  0  0  0  0  0  0
   -5.8023   45.3214   49.7877 C   0  0  0  0  0  0  0  0  0  0  0  0
   -6.8398   44.3494   49.8498 O   0  0  0  0  0  0  0  0  0  0  0  0
   -7.1265   44.2408   50.7700 H   0  0  0  0  0  0  0  0  0  0  0  0
   -6.3299   46.6422   50.3389 C   0  0  0  0  0  0  0  0  0  0  0  0
   -7.2589   47.2466   49.3108 C   0  0  0  0  0  0  0  0  0  0  0  0
   -7.0426   46.6656   48.0166 O   0  0  0  0  0  0  0  0  0  0  0  0
   -7.2391   45.7164   48.0514 H   0  0  0  0  0  0  0  0  0  0  0  0
   -8.6947   47.1645   49.7552 C   0  0  0  0  0  0  0  0  0  0  0  0
   -9.1777   48.1512   50.3860 O   0  0  0  0  0  0  0  0  0  0  0  0
   -9.3512   46.1357   49.4350 O   0  0  0  0  0  0  0  0  0  0  0  0
   -8.9329   45.4397   48.9675 H   0  0  0  0  0  0  0  0  0  0  0  0
   -4.9335   44.8370   52.1398 C   0  0  0  0  0  0  0  0  0  0  0  0
   -6.1856   44.1975   52.3598 O   0  0  0  0  0  0  0  0  0  0  0  0
   -6.1460   43.2866   52.0285 H   0  0  0  0  0  0  0  0  0  0  0  0
   -3.8395   44.0753   52.8805 C   0  0  0  0  0  0  0  0  0  0  0  0
   -2.6678   44.8627   53.0692 O   0  0  0  0  0  0  0  0  0  0  0  0
   -2.2957   45.1009   52.2057 H   0  0  0  0  0  0  0  0  0  0  0  0
   -3.4541   42.8259   52.1082 C   0  0  0  0  0  0  0  0  0  0  0  0
   -4.3426   41.7961   52.5052 O   0  0  0  0  0  0  0  0  0  0  0  0
   -4.2940   41.6801   53.4670 H   0  0  0  0  0  0  0  0  0  0  0  0
   -2.0200   42.5110   52.4864 C   0  0  0  0  0  0  0  0  0  0  0  0
   -1.1079   43.0261   51.5301 O   0  0  0  0  0  0  0  0  0  0  0  0
   -1.2821   42.6209   50.6662 H   0  0  0  0  0  0  0  0  0  0  0  0
 14 15  2  0  0  0
 14 16  1  0  0  0
 14 11  1  0  0  0
 11 12  1  0  0  0
 11 10  1  0  0  0
 10  7  1  0  0  0
  7  8  1  0  0  0
  7  1  1  0  0  0
  1  2  1  0  0  0
  1 18  1  0  0  0
  2  3  1  0  0  0
  3  4  2  0  0  0
  3  5  1  0  0  0
 18 19  1  0  0  0
 18 21  1  0  0  0
 21 22  1  0  0  0
 21 24  1  0  0  0
 24 25  1  0  0  0
 24 27  1  0  0  0
 27 28  1  0  0  0
 16 17  1  0  0  0
 12 13  1  0  0  0
  8  9  1  0  0  0
  2  6  1  0  0  0
 19 20  1  0  0  0
 22 23  1  0  0  0
 25 26  1  0  0  0
 28 29  1  0  0  0
M  END
> <minimizedAffinity>
-7.07101

$$$$
1F73_HMN_A_700


 29 28  0  0  0  0  0  0  0  0999 V2000
   -6.1618   46.1713   49.9204 C   0  0  0  0  0  0  0  0  0  0  0  0
   -7.4306   46.7634   50.3964 N   0  0  0  0  0  0  0  0  0  0  0  0
   -8.4024   47.0105   49.5179 C   0  0  0  0  0  0  0  0  0  0  0  0
   -8.1797   47.0534   48.3041 O   0  0  0  0  0  0  0  0  0  0  0  0
   -9.8166   47.2608   50.0160 C   0  0  0  0  0  0  0  0  0  0  0  0
   -7.5560   46.9725   51.3502 H   0  0  0  0  0  0  0  0  0  0  0  0
   -5.4512   45.6404   51.1611 C   0  0  0  0  0  0  0  0  0  0  0  0
   -6.3855   45.4685   52.2205 O   0  0  0  0  0  0  0  0  0  0  0  0
   -7.0699   44.8371   51.9488 H   0  0  0  0  0  0  0  0  0  0  0  0
   -4.8259   44.2891   50.8302 C   0  0  0  0  0  0  0  0  0  0  0  0
   -3.3667   44.3342   51.2230 C   0  0  0  0  0  0  0  0  0  0  0  0
   -2.7519   45.5531   50.7810 O   0  0  0  0  0  0  0  0  0  0  0  0
   -3.1837   46.3076   51.2114 H   0  0  0  0  0  0  0  0  0  0  0  0
   -3.1893   44.0921   52.6981 C   0  0  0  0  0  0  0  0  0  0  0  0
   -3.9126   43.2075   53.2451 O   0  0  0  0  0  0  0  0  0  0  0  0
   -2.2977   44.7522   53.2990 O   0  0  0  0  0  0  0  0  0  0  0  0
   -1.7968   45.3936   52.8348 H   0  0  0  0  0  0  0  0  0  0  0  0
   -5.3627   47.2673   49.1945 C   0  0  0  0  0  0  0  0  0  0  0  0
   -4.4131   47.8478   50.0813 O   0  0  0  0  0  0  0  0  0  0  0  0
   -3.7965   47.1643   50.3873 H   0  0  0  0  0  0  0  0  0  0  0  0
   -4.6348   46.6679   47.9960 C   0  0  0  0  0  0  0  0  0  0  0  0
   -3.2206   46.7986   48.1036 O   0  0  0  0  0  0  0  0  0  0  0  0
   -2.9834   47.7390   48.1228 H   0  0  0  0  0  0  0  0  0  0  0  0
   -5.0798   47.3515   46.7151 C   0  0  0  0  0  0  0  0  0  0  0  0
   -6.0264   48.3425   47.0752 O   0  0  0  0  0  0  0  0  0  0  0  0
   -6.7575   47.9299   47.5611 H   0  0  0  0  0  0  0  0  0  0  0  0
   -5.6944   46.2743   45.8429 C   0  0  0  0  0  0  0  0  0  0  0  0
   -7.0365   46.5851   45.5056 O   0  0  0  0  0  0  0  0  0  0  0  0
   -7.5669   46.6489   46.3152 H   0  0  0  0  0  0  0  0  0  0  0  0
 14 15  2  0  0  0
 14 16  1  0  0  0
 14 11  1  0  0  0
 11 12  1  0  0  0
 11 10  1  0  0  0
 10  7  1  0  0  0
  7  8  1  0  0  0
  7  1  1  0  0  0
  1  2  1  0  0  0
  1 18  1  0  0  0
  2  3  1  0  0  0
  3  4  2  0  0  0
  3  5  1  0  0  0
 18 19  1  0  0  0
 18 21  1  0  0  0
 21 22  1  0  0  0
 21 24  1  0  0  0
 24 25  1  0  0  0
 24 27  1  0  0  0
 27 28  1  0  0  0
 16 17  1  0  0  0
 12 13  1  0  0  0
  8  9  1  0  0  0
  2  6  1  0  0  0
 19 20  1  0  0  0
 22 23  1  0  0  0
 25 26  1  0  0  0
 28 29  1  0  0  0
M  END
> <minimizedAffinity>
-7.03234

$$$$
1F73_HMN_A_700


 29 28  0  0  0  0  0  0  0  0999 V2000
   -4.9294   46.0742   48.5064 C   0  0  0  0  0  0  0  0  0  0  0  0
   -4.8746   46.0331   47.0292 N   0  0  0  0  0  0  0  0  0  0  0  0
   -5.4984   45.0481   46.3827 C   0  0  0  0  0  0  0  0  0  0  0  0
   -5.8519   44.0173   46.9635 O   0  0  0  0  0  0  0  0  0  0  0  0
   -5.7708   45.1841   44.8934 C   0  0  0  0  0  0  0  0  0  0  0  0
   -4.3836   46.7247   46.5293 H   0  0  0  0  0  0  0  0  0  0  0  0
   -5.3817   47.4835   48.8738 C   0  0  0  0  0  0  0  0  0  0  0  0
   -6.1143   48.0557   47.7964 O   0  0  0  0  0  0  0  0  0  0  0  0
   -6.8928   47.5085   47.6081 H   0  0  0  0  0  0  0  0  0  0  0  0
   -6.2860   47.4068   50.0998 C   0  0  0  0  0  0  0  0  0  0  0  0
   -7.3461   46.3606   49.8410 C   0  0  0  0  0  0  0  0  0  0  0  0
   -7.2269   45.2676   50.7632 O   0  0  0  0  0  0  0  0  0  0  0  0
   -7.3641   45.5910   51.6673 H   0  0  0  0  0  0  0  0  0  0  0  0
   -8.7233   46.9680   49.8301 C   0  0  0  0  0  0  0  0  0  0  0  0
   -8.8322   48.1960   50.1217 O   0  0  0  0  0  0  0  0  0  0  0  0
   -9.6880   46.2310   49.4866 O   0  0  0  0  0  0  0  0  0  0  0  0
   -9.5390   45.3285   49.2836 H   0  0  0  0  0  0  0  0  0  0  0  0
   -3.5307   45.7328   49.0487 C   0  0  0  0  0  0  0  0  0  0  0  0
   -3.0006   46.8421   49.7652 O   0  0  0  0  0  0  0  0  0  0  0  0
   -3.5817   47.0514   50.5132 H   0  0  0  0  0  0  0  0  0  0  0  0
   -3.6170   44.5258   49.9768 C   0  0  0  0  0  0  0  0  0  0  0  0
   -4.8524   43.8298   49.8425 O   0  0  0  0  0  0  0  0  0  0  0  0
   -5.5830   44.4170   50.0922 H   0  0  0  0  0  0  0  0  0  0  0  0
   -3.4723   44.9640   51.4235 C   0  0  0  0  0  0  0  0  0  0  0  0
   -2.0886   44.9563   51.7282 O   0  0  0  0  0  0  0  0  0  0  0  0
   -1.7252   44.0729   51.5592 H   0  0  0  0  0  0  0  0  0  0  0  0
   -4.2396   43.9567   52.2575 C   0  0  0  0  0  0  0  0  0  0  0  0
   -5.4154   44.5287   52.8069 O   0  0  0  0  0  0  0  0  0  0  0  0
   -5.1750   45.2697   53.3848 H   0  0  0  0  0  0  0  0  0  0  0  0
 14 15  2  0  0  0
 14 16  1  0  0  0
 14 11  1  0  0  0
 11 12  1  0  0  0
 11 10  1  0  0  0
 10  7  1  0  0  0
  7  8  1  0  0  0
  7  1  1  0  0  0
  1  2  1  0  0  0
  1 18  1  0  0  0
  2  3  1  0  0  0
  3  4  2  0  0  0
  3  5  1  0  0  0
 18 19  1  0  0  0
 18 21  1  0  0  0
 21 22  1  0  0  0
 21 24  1  0  0  0
 24 25  1  0  0  0
 24 27  1  0  0  0
 27 28  1  0  0  0
 16 17  1  0  0  0
 12 13  1  0  0  0
  8  9  1  0  0  0
  2  6  1  0  0  0
 19 20  1  0  0  0
 22 23  1  0  0  0
 25 26  1  0  0  0
 28 29  1  0  0  0
M  END
> <minimizedAffinity>
-6.96801

$$$$
1F73_HMN_A_700


 29 28  0  0  0  0  0  0  0  0999 V2000
   -5.4353   44.9760   51.0565 C   0  0  0  0  0  0  0  0  0  0  0  0
   -6.4230   43.8833   51.1888 N   0  0  0  0  0  0  0  0  0  0  0  0
   -6.7543   43.1726   50.1107 C   0  0  0  0  0  0  0  0  0  0  0  0
   -6.5104   43.5783   48.9702 O   0  0  0  0  0  0  0  0  0  0  0  0
   -7.4618   41.8380   50.2816 C   0  0  0  0  0  0  0  0  0  0  0  0
   -6.8308   43.6833   52.0622 H   0  0  0  0  0  0  0  0  0  0  0  0
   -4.4140   44.7597   52.1684 C   0  0  0  0  0  0  0  0  0  0  0  0
   -5.0815   44.5211   53.4023 O   0  0  0  0  0  0  0  0  0  0  0  0
   -5.6385   43.7311   53.3211 H   0  0  0  0  0  0  0  0  0  0  0  0
   -3.5619   43.5422   51.8246 C   0  0  0  0  0  0  0  0  0  0  0  0
   -2.4538   43.4362   52.8476 C   0  0  0  0  0  0  0  0  0  0  0  0
   -2.1713   44.7146   53.4350 O   0  0  0  0  0  0  0  0  0  0  0  0
   -2.9577   45.0364   53.9028 H   0  0  0  0  0  0  0  0  0  0  0  0
   -2.7552   42.3762   53.8729 C   0  0  0  0  0  0  0  0  0  0  0  0
   -1.9955   42.2955   54.8835 O   0  0  0  0  0  0  0  0  0  0  0  0
   -3.7752   41.6560   53.6915 O   0  0  0  0  0  0  0  0  0  0  0  0
   -4.2957   41.7668   52.9203 H   0  0  0  0  0  0  0  0  0  0  0  0
   -6.1815   46.3157   51.1799 C   0  0  0  0  0  0  0  0  0  0  0  0
   -5.7097   47.0348   52.3137 O   0  0  0  0  0  0  0  0  0  0  0  0
   -4.7621   47.2149   52.2110 H   0  0  0  0  0  0  0  0  0  0  0  0
   -5.9573   47.1495   49.9230 C   0  0  0  0  0  0  0  0  0  0  0  0
   -5.5630   48.4844   50.2250 O   0  0  0  0  0  0  0  0  0  0  0  0
   -6.2699   48.9260   50.7211 H   0  0  0  0  0  0  0  0  0  0  0  0
   -7.2291   47.2047   49.0951 C   0  0  0  0  0  0  0  0  0  0  0  0
   -8.0461   46.1231   49.5080 O   0  0  0  0  0  0  0  0  0  0  0  0
   -7.5585   45.2912   49.4030 H   0  0  0  0  0  0  0  0  0  0  0  0
   -6.8057   47.0709   47.6454 C   0  0  0  0  0  0  0  0  0  0  0  0
   -6.1168   48.2276   47.1989 O   0  0  0  0  0  0  0  0  0  0  0  0
   -6.7017   48.9985   47.2666 H   0  0  0  0  0  0  0  0  0  0  0  0
 14 15  2  0  0  0
 14 16  1  0  0  0
 14 11  1  0  0  0
 11 12  1  0  0  0
 11 10  1  0  0  0
 10  7  1  0  0  0
  7  8  1  0  0  0
  7  1  1  0  0  0
  1  2  1  0  0  0
  1 18  1  0  0  0
  2  3  1  0  0  0
  3  4  2  0  0  0
  3  5  1  0  0  0
 18 19  1  0  0  0
 18 21  1  0  0  0
 21 22  1  0  0  0
 21 24  1  0  0  0
 24 25  1  0  0  0
 24 27  1  0  0  0
 27 28  1  0  0  0
 16 17  1  0  0  0
 12 13  1  0  0  0
  8  9  1  0  0  0
  2  6  1  0  0  0
 19 20  1  0  0  0
 22 23  1  0  0  0
 25 26  1  0  0  0
 28 29  1  0  0  0
M  END
> <minimizedAffinity>
-6.93214

$$$$
1F73_HMN_A_700


 29 28  0  0  0  0  0  0  0  0999 V2000
   -4.7479   45.8790   49.3913 C   0  0  0  0  0  0  0  0  0  0  0  0
   -5.5866   44.8182   48.7930 N   0  0  0  0  0  0  0  0  0  0  0  0
   -5.2795   44.3519   47.5825 C   0  0  0  0  0  0  0  0  0  0  0  0
   -4.5258   44.9706   46.8247 O   0  0  0  0  0  0  0  0  0  0  0  0
   -5.8787   43.0365   47.1120 C   0  0  0  0  0  0  0  0  0  0  0  0
   -6.3623   44.4606   49.2827 H   0  0  0  0  0  0  0  0  0  0  0  0
   -3.6401   45.1616   50.1555 C   0  0  0  0  0  0  0  0  0  0  0  0
   -2.6195   46.0860   50.5147 O   0  0  0  0  0  0  0  0  0  0  0  0
   -2.9964   46.7819   51.0755 H   0  0  0  0  0  0  0  0  0  0  0  0
   -4.2293   44.5584   51.4266 C   0  0  0  0  0  0  0  0  0  0  0  0
   -3.3802   43.3728   51.8252 C   0  0  0  0  0  0  0  0  0  0  0  0
   -2.2756   43.2044   50.9248 O   0  0  0  0  0  0  0  0  0  0  0  0
   -1.7041   43.9872   50.9643 H   0  0  0  0  0  0  0  0  0  0  0  0
   -2.9510   43.4665   53.2650 C   0  0  0  0  0  0  0  0  0  0  0  0
   -3.4317   42.6270   54.0829 O   0  0  0  0  0  0  0  0  0  0  0  0
   -2.1008   44.3478   53.5687 O   0  0  0  0  0  0  0  0  0  0  0  0
   -1.7851   44.9395   52.9143 H   0  0  0  0  0  0  0  0  0  0  0  0
   -5.6406   46.7424   50.2993 C   0  0  0  0  0  0  0  0  0  0  0  0
   -5.0567   48.0278   50.4785 O   0  0  0  0  0  0  0  0  0  0  0  0
   -4.9712   48.4669   49.6179 H   0  0  0  0  0  0  0  0  0  0  0  0
   -7.0210   46.8974   49.6700 C   0  0  0  0  0  0  0  0  0  0  0  0
   -6.9622   47.5101   48.3856 O   0  0  0  0  0  0  0  0  0  0  0  0
   -6.6007   48.4062   48.4711 H   0  0  0  0  0  0  0  0  0  0  0  0
   -7.9126   47.7443   50.5610 C   0  0  0  0  0  0  0  0  0  0  0  0
   -7.6028   47.4115   51.9030 O   0  0  0  0  0  0  0  0  0  0  0  0
   -7.7253   46.4585   52.0363 H   0  0  0  0  0  0  0  0  0  0  0  0
   -9.3422   47.3852   50.2060 C   0  0  0  0  0  0  0  0  0  0  0  0
   -9.4033   46.1775   49.4647 O   0  0  0  0  0  0  0  0  0  0  0  0
   -8.9097   46.2814   48.6362 H   0  0  0  0  0  0  0  0  0  0  0  0
 14 15  2  0  0  0
 14 16  1  0  0  0
 14 11  1  0  0  0
 11 12  1  0  0  0
 11 10  1  0  0  0
 10  7  1  0  0  0
  7  8  1  0  0  0
  7  1  1  0  0  0
  1  2  1  0  0  0
  1 18  1  0  0  0
  2  3  1  0  0  0
  3  4  2  0  0  0
  3  5  1  0  0  0
 18 19  1  0  0  0
 18 21  1  0  0  0
 21 22  1  0  0  0
 21 24  1  0  0  0
 24 25  1  0  0  0
 24 27  1  0  0  0
 27 28  1  0  0  0
 16 17  1  0  0  0
 12 13  1  0  0  0
  8  9  1  0  0  0
  2  6  1  0  0  0
 19 20  1  0  0  0
 22 23  1  0  0  0
 25 26  1  0  0  0
 28 29  1  0  0  0
M  END
> <minimizedAffinity>
-6.92424

$$$$
1F73_HMN_A_700


 29 28  0  0  0  0  0  0  0  0999 V2000
   -6.0598   44.4149   50.7484 C   0  0  0  0  0  0  0  0  0  0  0  0
   -6.4650   45.7961   50.4090 N   0  0  0  0  0  0  0  0  0  0  0  0
   -7.1223   46.5216   51.3139 C   0  0  0  0  0  0  0  0  0  0  0  0
   -7.6681   45.9965   52.2893 O   0  0  0  0  0  0  0  0  0  0  0  0
   -7.2185   48.0286   51.1395 C   0  0  0  0  0  0  0  0  0  0  0  0
   -6.2521   46.1751   49.5257 H   0  0  0  0  0  0  0  0  0  0  0  0
   -4.5653   44.4739   51.0465 C   0  0  0  0  0  0  0  0  0  0  0  0
   -4.0386   45.7335   50.6455 O   0  0  0  0  0  0  0  0  0  0  0  0
   -4.4900   46.4419   51.1306 H   0  0  0  0  0  0  0  0  0  0  0  0
   -4.3555   44.3065   52.5481 C   0  0  0  0  0  0  0  0  0  0  0  0
   -2.9513   43.7946   52.7754 C   0  0  0  0  0  0  0  0  0  0  0  0
   -2.1159   44.8160   53.3393 O   0  0  0  0  0  0  0  0  0  0  0  0
   -2.4649   45.0773   54.2058 H   0  0  0  0  0  0  0  0  0  0  0  0
   -2.9555   42.5282   53.5890 C   0  0  0  0  0  0  0  0  0  0  0  0
   -2.2336   42.4892   54.6293 O   0  0  0  0  0  0  0  0  0  0  0  0
   -3.7133   41.5915   53.2145 O   0  0  0  0  0  0  0  0  0  0  0  0
   -4.2221   41.6845   52.4332 H   0  0  0  0  0  0  0  0  0  0  0  0
   -6.3975   43.5076   49.5527 C   0  0  0  0  0  0  0  0  0  0  0  0
   -7.7801   43.6149   49.2335 O   0  0  0  0  0  0  0  0  0  0  0  0
   -7.9868   44.5324   48.9959 H   0  0  0  0  0  0  0  0  0  0  0  0
   -5.5656   43.9175   48.3421 C   0  0  0  0  0  0  0  0  0  0  0  0
   -6.1245   45.0344   47.6573 O   0  0  0  0  0  0  0  0  0  0  0  0
   -7.0017   44.7990   47.3168 H   0  0  0  0  0  0  0  0  0  0  0  0
   -5.4598   42.7625   47.3619 C   0  0  0  0  0  0  0  0  0  0  0  0
   -6.7433   42.5772   46.7911 O   0  0  0  0  0  0  0  0  0  0  0  0
   -7.3911   42.4210   47.4959 H   0  0  0  0  0  0  0  0  0  0  0  0
   -5.0196   41.5545   48.1655 C   0  0  0  0  0  0  0  0  0  0  0  0
   -5.4488   40.3460   47.5596 O   0  0  0  0  0  0  0  0  0  0  0  0
   -6.4176   40.3338   47.5133 H   0  0  0  0  0  0  0  0  0  0  0  0
 14 15  2  0  0  0
 14 16  1  0  0  0
 14 11  1  0  0  0
 11 12  1  0  0  0
 11 10  1  0  0  0
 10  7  1  0  0  0
  7  8  1  0  0  0
  7  1  1  0  0  0
  1  2  1  0  0  0
  1 18  1  0  0  0
  2  3  1  0  0  0
  3  4  2  0  0  0
  3  5  1  0  0  0
 18 19  1  0  0  0
 18 21  1  0  0  0
 21 22  1  0  0  0
 21 24  1  0  0  0
 24 25  1  0  0  0
 24 27  1  0  0  0
 27 28  1  0  0  0
 16 17  1  0  0  0
 12 13  1  0  0  0
  8  9  1  0  0  0
  2  6  1  0  0  0
 19 20  1  0  0  0
 22 23  1  0  0  0
 25 26  1  0  0  0
 28 29  1  0  0  0
M  END
> <minimizedAffinity>
-6.91233

$$$$
