2I3I_618_A_501


 38 41  0  0  0  0  0  0  0  0999 V2000
   81.6655   60.8775   13.2947 C   0  0  0  0  0  0  0  0  0  0  0  0
   80.6695   62.0084   13.6884 C   0  0  0  0  0  0  0  0  0  0  0  0
   80.4819   62.1081   14.9022 O   0  0  0  0  0  0  0  0  0  0  0  0
   82.0200   60.6583   11.8122 C   0  0  0  0  0  0  0  0  0  0  0  0
   80.8610   60.4531   10.8214 C   0  0  0  0  0  0  0  0  0  0  0  0
   79.8642   61.6200   10.6159 C   0  0  0  0  0  0  0  0  0  0  0  0
   80.1140   62.9339   11.3889 C   0  0  0  0  0  0  0  0  0  0  0  0
   79.9686   62.8400   12.8572 N   0  0  0  0  0  0  0  0  0  0  0  0
   78.8282   64.0945   10.8883 S   0  0  0  0  0  0  0  0  0  0  0  0
   78.7183   64.9364   12.4769 C   0  0  0  0  0  0  0  0  0  0  0  0
   77.3744   65.6851   12.6095 C   0  0  0  0  0  0  0  0  0  0  0  0
   79.8252   66.0124   12.6042 C   0  0  0  0  0  0  0  0  0  0  0  0
   78.9172   63.7368   13.4413 C   0  0  0  0  0  0  0  0  0  0  0  0
   84.6327   61.6515   12.9040 O   0  0  0  0  0  0  0  0  0  0  0  0
   84.1427   61.1301   13.8879 C   0  0  0  0  0  0  0  0  0  0  0  0
   82.8366   61.1317   14.1772 N   0  0  0  0  0  0  0  0  0  0  0  0
   82.6168   61.3313   15.1159 H   0  0  0  0  0  0  0  0  0  0  0  0
   85.0683   60.4554   14.9326 C   0  0  0  0  0  0  0  0  0  0  0  0
   85.1750   61.2556   16.2474 C   0  0  0  0  0  0  0  0  0  0  0  0
   86.4280   60.1433   14.3985 N   0  0  0  0  0  0  0  0  0  0  0  0
   86.5081   58.8856   13.6232 C   0  0  0  0  0  0  0  0  0  0  0  0
   87.0716   60.0733   15.1867 H   0  0  0  0  0  0  0  0  0  0  0  0
   77.6567   62.8368   13.6933 C   0  0  0  0  0  0  0  0  0  0  0  0
   77.5161   61.7692   13.0946 O   0  0  0  0  0  0  0  0  0  0  0  0
   76.7699   63.3306   14.5690 N   0  0  0  0  0  0  0  0  0  0  0  0
   77.1155   64.0504   15.1448 H   0  0  0  0  0  0  0  0  0  0  0  0
   75.3776   62.9742   14.8062 C   0  0  0  0  0  0  0  0  0  0  0  0
   74.5062   62.6372   13.7961 C   0  0  0  0  0  0  0  0  0  0  0  0
   73.2777   62.3632   14.3888 C   0  0  0  0  0  0  0  0  0  0  0  0
   71.9910   61.9464   13.7047 C   0  0  0  0  0  0  0  0  0  0  0  0
   73.3893   62.5226   15.7497 N   0  0  0  0  0  0  0  0  0  0  0  0
   74.6627   62.9014   16.0332 N   0  0  0  0  0  0  0  0  0  0  0  0
   75.0869   63.1414   17.2305 C   0  0  0  0  0  0  0  0  0  0  0  0
   74.3570   64.0233   18.0635 C   0  0  0  0  0  0  0  0  0  0  0  0
   74.7807   64.2952   19.3625 C   0  0  0  0  0  0  0  0  0  0  0  0
   75.9371   63.6894   19.8448 C   0  0  0  0  0  0  0  0  0  0  0  0
   76.6674   62.8170   19.0351 C   0  0  0  0  0  0  0  0  0  0  0  0
   76.2609   62.5346   17.7381 C   0  0  0  0  0  0  0  0  0  0  0  0
 14 15  2  0  0  0
 15 16  1  0  0  0
 15 18  1  0  0  0
 18 20  1  0  0  0
 18 19  1  0  0  0
 20 21  1  0  0  0
 16  1  1  0  0  0
  1  4  1  0  0  0
  1  2  1  0  0  0
  2  8  1  0  0  0
  2  3  2  0  0  0
  4  5  2  0  0  0
  5  6  1  0  0  0
  6  7  1  0  0  0
  7  9  1  0  0  0
  7  8  1  0  0  0
  8 13  1  0  0  0
  9 10  1  0  0  0
 10 11  1  0  0  0
 10 12  1  0  0  0
 10 13  1  0  0  0
 13 23  1  0  0  0
 23 24  2  0  0  0
 23 25  1  0  0  0
 25 27  1  0  0  0
 27 28  2  0  0  0
 27 32  1  0  0  0
 28 29  1  0  0  0
 29 30  1  0  0  0
 29 31  2  0  0  0
 31 32  1  0  0  0
 32 33  1  0  0  0
 33 38  2  0  0  0
 33 34  1  0  0  0
 34 35  2  0  0  0
 35 36  1  0  0  0
 36 37  2  0  0  0
 37 38  1  0  0  0
 20 22  1  0  0  0
 16 17  1  0  0  0
 25 26  1  0  0  0
M  END
> <minimizedAffinity>
-8.79249

$$$$
2I3I_618_A_501


 38 41  0  0  0  0  0  0  0  0999 V2000
   79.0441   62.9560   13.9873 C   0  0  0  0  0  0  0  0  0  0  0  0
   79.3444   61.5401   13.4120 C   0  0  0  0  0  0  0  0  0  0  0  0
   79.6931   60.7194   14.2624 O   0  0  0  0  0  0  0  0  0  0  0  0
   78.5665   64.0750   13.0431 C   0  0  0  0  0  0  0  0  0  0  0  0
   79.4274   64.3843   11.8060 C   0  0  0  0  0  0  0  0  0  0  0  0
   79.5873   63.2770   10.7355 C   0  0  0  0  0  0  0  0  0  0  0  0
   78.8425   61.9416   10.9544 C   0  0  0  0  0  0  0  0  0  0  0  0
   79.3110   61.1384   12.1039 N   0  0  0  0  0  0  0  0  0  0  0  0
   79.1835   60.9046    9.5193 S   0  0  0  0  0  0  0  0  0  0  0  0
   79.1511   59.3423   10.4152 C   0  0  0  0  0  0  0  0  0  0  0  0
   79.8873   58.2401    9.6232 C   0  0  0  0  0  0  0  0  0  0  0  0
   77.6955   58.8443   10.5951 C   0  0  0  0  0  0  0  0  0  0  0  0
   79.8198   59.7726   11.7480 C   0  0  0  0  0  0  0  0  0  0  0  0
   76.0545   62.2439   14.3212 O   0  0  0  0  0  0  0  0  0  0  0  0
   76.7887   62.7091   15.1724 C   0  0  0  0  0  0  0  0  0  0  0  0
   78.1251   62.6748   15.1236 N   0  0  0  0  0  0  0  0  0  0  0  0
   78.5677   62.4259   15.9670 H   0  0  0  0  0  0  0  0  0  0  0  0
   76.1721   63.3440   16.4451 C   0  0  0  0  0  0  0  0  0  0  0  0
   75.9841   62.3299   17.5926 C   0  0  0  0  0  0  0  0  0  0  0  0
   74.8968   64.0746   16.1787 N   0  0  0  0  0  0  0  0  0  0  0  0
   75.0738   65.4321   15.6171 C   0  0  0  0  0  0  0  0  0  0  0  0
   74.3873   64.1577   17.0585 H   0  0  0  0  0  0  0  0  0  0  0  0
   81.3859   59.8724   11.7344 C   0  0  0  0  0  0  0  0  0  0  0  0
   81.9618   60.6179   10.9404 O   0  0  0  0  0  0  0  0  0  0  0  0
   82.0148   59.0832   12.6167 N   0  0  0  0  0  0  0  0  0  0  0  0
   81.4440   58.7356   13.3397 H   0  0  0  0  0  0  0  0  0  0  0  0
   83.4062   58.6567   12.6788 C   0  0  0  0  0  0  0  0  0  0  0  0
   83.8969   57.5889   11.9631 C   0  0  0  0  0  0  0  0  0  0  0  0
   85.2493   57.4766   12.2697 C   0  0  0  0  0  0  0  0  0  0  0  0
   86.2382   56.4575   11.7399 C   0  0  0  0  0  0  0  0  0  0  0  0
   85.5926   58.4668   13.1594 N   0  0  0  0  0  0  0  0  0  0  0  0
   84.4827   59.2012   13.4315 N   0  0  0  0  0  0  0  0  0  0  0  0
   84.4725   60.2061   14.2447 C   0  0  0  0  0  0  0  0  0  0  0  0
   85.1503   60.1053   15.4836 C   0  0  0  0  0  0  0  0  0  0  0  0
   85.1679   61.1733   16.3781 C   0  0  0  0  0  0  0  0  0  0  0  0
   84.5101   62.3538   16.0457 C   0  0  0  0  0  0  0  0  0  0  0  0
   83.8376   62.4682   14.8272 C   0  0  0  0  0  0  0  0  0  0  0  0
   83.8087   61.4145   13.9238 C   0  0  0  0  0  0  0  0  0  0  0  0
 14 15  2  0  0  0
 15 16  1  0  0  0
 15 18  1  0  0  0
 18 20  1  0  0  0
 18 19  1  0  0  0
 20 21  1  0  0  0
 16  1  1  0  0  0
  1  4  1  0  0  0
  1  2  1  0  0  0
  2  8  1  0  0  0
  2  3  2  0  0  0
  4  5  2  0  0  0
  5  6  1  0  0  0
  6  7  1  0  0  0
  7  9  1  0  0  0
  7  8  1  0  0  0
  8 13  1  0  0  0
  9 10  1  0  0  0
 10 11  1  0  0  0
 10 12  1  0  0  0
 10 13  1  0  0  0
 13 23  1  0  0  0
 23 24  2  0  0  0
 23 25  1  0  0  0
 25 27  1  0  0  0
 27 28  2  0  0  0
 27 32  1  0  0  0
 28 29  1  0  0  0
 29 30  1  0  0  0
 29 31  2  0  0  0
 31 32  1  0  0  0
 32 33  1  0  0  0
 33 38  2  0  0  0
 33 34  1  0  0  0
 34 35  2  0  0  0
 35 36  1  0  0  0
 36 37  2  0  0  0
 37 38  1  0  0  0
 20 22  1  0  0  0
 16 17  1  0  0  0
 25 26  1  0  0  0
M  END
> <minimizedAffinity>
-8.00188

$$$$
2I3I_618_A_501


 38 41  0  0  0  0  0  0  0  0999 V2000
   80.5694   60.4750   13.1901 C   0  0  0  0  0  0  0  0  0  0  0  0
   79.8950   61.8014   13.6505 C   0  0  0  0  0  0  0  0  0  0  0  0
   79.8453   61.9376   14.8742 O   0  0  0  0  0  0  0  0  0  0  0  0
   80.7298   60.1855   11.6861 C   0  0  0  0  0  0  0  0  0  0  0  0
   79.4698   60.2517   10.8057 C   0  0  0  0  0  0  0  0  0  0  0  0
   78.7486   61.6151   10.6688 C   0  0  0  0  0  0  0  0  0  0  0  0
   79.3582   62.8356   11.3933 C   0  0  0  0  0  0  0  0  0  0  0  0
   79.3285   62.7729   12.8701 N   0  0  0  0  0  0  0  0  0  0  0  0
   78.3287   64.2593   10.9882 S   0  0  0  0  0  0  0  0  0  0  0  0
   78.5562   65.0995   12.5652 C   0  0  0  0  0  0  0  0  0  0  0  0
   77.4343   66.1334   12.8031 C   0  0  0  0  0  0  0  0  0  0  0  0
   79.8848   65.8957   12.5748 C   0  0  0  0  0  0  0  0  0  0  0  0
   78.5646   63.8833   13.5292 C   0  0  0  0  0  0  0  0  0  0  0  0
   83.0195   62.3326   13.5103 O   0  0  0  0  0  0  0  0  0  0  0  0
   82.9718   61.1444   13.7667 C   0  0  0  0  0  0  0  0  0  0  0  0
   81.8424   60.4541   13.9607 N   0  0  0  0  0  0  0  0  0  0  0  0
   81.8554   59.8393   14.7295 H   0  0  0  0  0  0  0  0  0  0  0  0
   84.2915   60.3507   13.9456 C   0  0  0  0  0  0  0  0  0  0  0  0
   84.3317   59.0545   13.1098 C   0  0  0  0  0  0  0  0  0  0  0  0
   84.6143   60.0615   15.3751 N   0  0  0  0  0  0  0  0  0  0  0  0
   84.9246   61.2585   16.1876 C   0  0  0  0  0  0  0  0  0  0  0  0
   85.4234   59.4409   15.3998 H   0  0  0  0  0  0  0  0  0  0  0  0
   77.1611   63.2922   13.9078 C   0  0  0  0  0  0  0  0  0  0  0  0
   76.4791   62.7032   13.0676 O   0  0  0  0  0  0  0  0  0  0  0  0
   76.7780   63.5012   15.1753 N   0  0  0  0  0  0  0  0  0  0  0  0
   77.5038   63.7584   15.7887 H   0  0  0  0  0  0  0  0  0  0  0  0
   75.4614   63.4093   15.7916 C   0  0  0  0  0  0  0  0  0  0  0  0
   75.0554   62.3267   16.5375 C   0  0  0  0  0  0  0  0  0  0  0  0
   73.7549   62.5840   16.9595 C   0  0  0  0  0  0  0  0  0  0  0  0
   72.8639   61.6995   17.8086 C   0  0  0  0  0  0  0  0  0  0  0  0
   73.3633   63.8138   16.4858 N   0  0  0  0  0  0  0  0  0  0  0  0
   74.3863   64.3396   15.7632 N   0  0  0  0  0  0  0  0  0  0  0  0
   74.3284   65.4890   15.1745 C   0  0  0  0  0  0  0  0  0  0  0  0
   73.8109   65.5718   13.8593 C   0  0  0  0  0  0  0  0  0  0  0  0
   73.7246   66.7963   13.2005 C   0  0  0  0  0  0  0  0  0  0  0  0
   74.1531   67.9518   13.8472 C   0  0  0  0  0  0  0  0  0  0  0  0
   74.6654   67.8859   15.1445 C   0  0  0  0  0  0  0  0  0  0  0  0
   74.7596   66.6748   15.8164 C   0  0  0  0  0  0  0  0  0  0  0  0
 14 15  2  0  0  0
 15 16  1  0  0  0
 15 18  1  0  0  0
 18 20  1  0  0  0
 18 19  1  0  0  0
 20 21  1  0  0  0
 16  1  1  0  0  0
  1  4  1  0  0  0
  1  2  1  0  0  0
  2  8  1  0  0  0
  2  3  2  0  0  0
  4  5  2  0  0  0
  5  6  1  0  0  0
  6  7  1  0  0  0
  7  9  1  0  0  0
  7  8  1  0  0  0
  8 13  1  0  0  0
  9 10  1  0  0  0
 10 11  1  0  0  0
 10 12  1  0  0  0
 10 13  1  0  0  0
 13 23  1  0  0  0
 23 24  2  0  0  0
 23 25  1  0  0  0
 25 27  1  0  0  0
 27 28  2  0  0  0
 27 32  1  0  0  0
 28 29  1  0  0  0
 29 30  1  0  0  0
 29 31  2  0  0  0
 31 32  1  0  0  0
 32 33  1  0  0  0
 33 38  2  0  0  0
 33 34  1  0  0  0
 34 35  2  0  0  0
 35 36  1  0  0  0
 36 37  2  0  0  0
 37 38  1  0  0  0
 20 22  1  0  0  0
 16 17  1  0  0  0
 25 26  1  0  0  0
M  END
> <minimizedAffinity>
-7.87316

$$$$
2I3I_618_A_501


 38 41  0  0  0  0  0  0  0  0999 V2000
   76.7034   64.4696   14.1390 C   0  0  0  0  0  0  0  0  0  0  0  0
   77.5470   63.2859   13.5793 C   0  0  0  0  0  0  0  0  0  0  0  0
   77.7718   62.3990   14.4047 O   0  0  0  0  0  0  0  0  0  0  0  0
   76.3184   65.6355   13.2095 C   0  0  0  0  0  0  0  0  0  0  0  0
   77.4500   66.3508   12.4514 C   0  0  0  0  0  0  0  0  0  0  0  0
   78.2631   65.5339   11.4175 C   0  0  0  0  0  0  0  0  0  0  0  0
   77.8654   64.0601   11.1810 C   0  0  0  0  0  0  0  0  0  0  0  0
   78.0869   63.1544   12.3284 N   0  0  0  0  0  0  0  0  0  0  0  0
   78.9522   63.4194    9.8928 S   0  0  0  0  0  0  0  0  0  0  0  0
   79.0125   61.7357   10.5301 C   0  0  0  0  0  0  0  0  0  0  0  0
   80.2424   60.9834    9.9775 C   0  0  0  0  0  0  0  0  0  0  0  0
   77.7721   60.9309   10.0687 C   0  0  0  0  0  0  0  0  0  0  0  0
   79.0265   62.0168   12.0564 C   0  0  0  0  0  0  0  0  0  0  0  0
   74.5522   65.2183   16.2290 O   0  0  0  0  0  0  0  0  0  0  0  0
   74.8965   64.0951   15.9131 C   0  0  0  0  0  0  0  0  0  0  0  0
   75.5481   63.7896   14.7853 N   0  0  0  0  0  0  0  0  0  0  0  0
   75.2126   62.9947   14.3112 H   0  0  0  0  0  0  0  0  0  0  0  0
   74.5236   62.8993   16.8265 C   0  0  0  0  0  0  0  0  0  0  0  0
   73.8619   63.3369   18.1498 C   0  0  0  0  0  0  0  0  0  0  0  0
   75.6728   61.9835   17.0943 N   0  0  0  0  0  0  0  0  0  0  0  0
   76.5787   62.4361   18.1732 C   0  0  0  0  0  0  0  0  0  0  0  0
   76.2176   61.8964   16.2364 H   0  0  0  0  0  0  0  0  0  0  0  0
   80.4109   62.4287   12.6701 C   0  0  0  0  0  0  0  0  0  0  0  0
   80.9400   63.4992   12.3669 O   0  0  0  0  0  0  0  0  0  0  0  0
   80.9541   61.5307   13.5041 N   0  0  0  0  0  0  0  0  0  0  0  0
   80.3279   60.8510   13.8434 H   0  0  0  0  0  0  0  0  0  0  0  0
   82.3211   61.3981   13.9894 C   0  0  0  0  0  0  0  0  0  0  0  0
   82.8044   62.0956   15.0724 C   0  0  0  0  0  0  0  0  0  0  0  0
   84.1339   61.7221   15.2406 C   0  0  0  0  0  0  0  0  0  0  0  0
   85.1071   62.2090   16.2957 C   0  0  0  0  0  0  0  0  0  0  0  0
   84.4674   60.7998   14.2772 N   0  0  0  0  0  0  0  0  0  0  0  0
   83.3782   60.5863   13.4940 N   0  0  0  0  0  0  0  0  0  0  0  0
   83.3701   59.7756   12.4871 C   0  0  0  0  0  0  0  0  0  0  0  0
   82.6266   58.5736   12.5676 C   0  0  0  0  0  0  0  0  0  0  0  0
   82.5880   57.6833   11.4967 C   0  0  0  0  0  0  0  0  0  0  0  0
   83.2904   57.9833   10.3332 C   0  0  0  0  0  0  0  0  0  0  0  0
   84.0279   59.1653   10.2389 C   0  0  0  0  0  0  0  0  0  0  0  0
   84.0785   60.0639   11.2958 C   0  0  0  0  0  0  0  0  0  0  0  0
 14 15  2  0  0  0
 15 16  1  0  0  0
 15 18  1  0  0  0
 18 20  1  0  0  0
 18 19  1  0  0  0
 20 21  1  0  0  0
 16  1  1  0  0  0
  1  4  1  0  0  0
  1  2  1  0  0  0
  2  8  1  0  0  0
  2  3  2  0  0  0
  4  5  2  0  0  0
  5  6  1  0  0  0
  6  7  1  0  0  0
  7  9  1  0  0  0
  7  8  1  0  0  0
  8 13  1  0  0  0
  9 10  1  0  0  0
 10 11  1  0  0  0
 10 12  1  0  0  0
 10 13  1  0  0  0
 13 23  1  0  0  0
 23 24  2  0  0  0
 23 25  1  0  0  0
 25 27  1  0  0  0
 27 28  2  0  0  0
 27 32  1  0  0  0
 28 29  1  0  0  0
 29 30  1  0  0  0
 29 31  2  0  0  0
 31 32  1  0  0  0
 32 33  1  0  0  0
 33 38  2  0  0  0
 33 34  1  0  0  0
 34 35  2  0  0  0
 35 36  1  0  0  0
 36 37  2  0  0  0
 37 38  1  0  0  0
 20 22  1  0  0  0
 16 17  1  0  0  0
 25 26  1  0  0  0
M  END
> <minimizedAffinity>
-7.23072

$$$$
2I3I_618_A_501


 38 41  0  0  0  0  0  0  0  0999 V2000
   81.3570   60.2949   12.3152 C   0  0  0  0  0  0  0  0  0  0  0  0
   80.2751   61.2841   12.8418 C   0  0  0  0  0  0  0  0  0  0  0  0
   79.8722   61.0248   13.9771 O   0  0  0  0  0  0  0  0  0  0  0  0
   81.9753   60.5154   10.9221 C   0  0  0  0  0  0  0  0  0  0  0  0
   81.0170   60.6427    9.7252 C   0  0  0  0  0  0  0  0  0  0  0  0
   80.0398   61.8434    9.7000 C   0  0  0  0  0  0  0  0  0  0  0  0
   80.1109   62.8627   10.8585 C   0  0  0  0  0  0  0  0  0  0  0  0
   79.7097   62.3422   12.1829 N   0  0  0  0  0  0  0  0  0  0  0  0
   78.9020   64.1523   10.5031 S   0  0  0  0  0  0  0  0  0  0  0  0
   78.4877   64.4888   12.2235 C   0  0  0  0  0  0  0  0  0  0  0  0
   77.1209   65.1992   12.3301 C   0  0  0  0  0  0  0  0  0  0  0  0
   79.5234   65.4500   12.8582 C   0  0  0  0  0  0  0  0  0  0  0  0
   78.5462   63.0528   12.8092 C   0  0  0  0  0  0  0  0  0  0  0  0
   83.2564   62.2976   13.7073 O   0  0  0  0  0  0  0  0  0  0  0  0
   83.3456   61.0844   13.7204 C   0  0  0  0  0  0  0  0  0  0  0  0
   82.3450   60.2462   13.4270 N   0  0  0  0  0  0  0  0  0  0  0  0
   82.2475   59.4815   14.0393 H   0  0  0  0  0  0  0  0  0  0  0  0
   84.6784   60.4238   14.1569 C   0  0  0  0  0  0  0  0  0  0  0  0
   84.9769   59.1136   13.3986 C   0  0  0  0  0  0  0  0  0  0  0  0
   84.7716   60.2072   15.6319 N   0  0  0  0  0  0  0  0  0  0  0  0
   85.0548   61.4307   16.4143 C   0  0  0  0  0  0  0  0  0  0  0  0
   85.5187   59.5357   15.8088 H   0  0  0  0  0  0  0  0  0  0  0  0
   77.2871   62.1514   12.5552 C   0  0  0  0  0  0  0  0  0  0  0  0
   76.6129   61.7324   13.4974 O   0  0  0  0  0  0  0  0  0  0  0  0
   77.0374   61.8710   11.2683 N   0  0  0  0  0  0  0  0  0  0  0  0
   77.4932   62.4575   10.6222 H   0  0  0  0  0  0  0  0  0  0  0  0
   76.2008   60.8387   10.6715 C   0  0  0  0  0  0  0  0  0  0  0  0
   74.9675   61.0979   10.1193 C   0  0  0  0  0  0  0  0  0  0  0  0
   74.4637   59.8872    9.6545 C   0  0  0  0  0  0  0  0  0  0  0  0
   73.1369   59.6390    8.9650 C   0  0  0  0  0  0  0  0  0  0  0  0
   75.3770   58.8920    9.9103 N   0  0  0  0  0  0  0  0  0  0  0  0
   76.4481   59.4448   10.5368 N   0  0  0  0  0  0  0  0  0  0  0  0
   77.4795   58.7668   10.9209 C   0  0  0  0  0  0  0  0  0  0  0  0
   78.3669   58.2410    9.9511 C   0  0  0  0  0  0  0  0  0  0  0  0
   79.4934   57.5150   10.3315 C   0  0  0  0  0  0  0  0  0  0  0  0
   79.7473   57.3065   11.6840 C   0  0  0  0  0  0  0  0  0  0  0  0
   78.8813   57.8193   12.6520 C   0  0  0  0  0  0  0  0  0  0  0  0
   77.7537   58.5445   12.2918 C   0  0  0  0  0  0  0  0  0  0  0  0
 14 15  2  0  0  0
 15 16  1  0  0  0
 15 18  1  0  0  0
 18 20  1  0  0  0
 18 19  1  0  0  0
 20 21  1  0  0  0
 16  1  1  0  0  0
  1  4  1  0  0  0
  1  2  1  0  0  0
  2  8  1  0  0  0
  2  3  2  0  0  0
  4  5  2  0  0  0
  5  6  1  0  0  0
  6  7  1  0  0  0
  7  9  1  0  0  0
  7  8  1  0  0  0
  8 13  1  0  0  0
  9 10  1  0  0  0
 10 11  1  0  0  0
 10 12  1  0  0  0
 10 13  1  0  0  0
 13 23  1  0  0  0
 23 24  2  0  0  0
 23 25  1  0  0  0
 25 27  1  0  0  0
 27 28  2  0  0  0
 27 32  1  0  0  0
 28 29  1  0  0  0
 29 30  1  0  0  0
 29 31  2  0  0  0
 31 32  1  0  0  0
 32 33  1  0  0  0
 33 38  2  0  0  0
 33 34  1  0  0  0
 34 35  2  0  0  0
 35 36  1  0  0  0
 36 37  2  0  0  0
 37 38  1  0  0  0
 20 22  1  0  0  0
 16 17  1  0  0  0
 25 26  1  0  0  0
M  END
> <minimizedAffinity>
-6.83978

$$$$
2I3I_618_A_501


 38 41  0  0  0  0  0  0  0  0999 V2000
   78.9100   62.9351   14.0162 C   0  0  0  0  0  0  0  0  0  0  0  0
   79.1280   61.4689   13.5376 C   0  0  0  0  0  0  0  0  0  0  0  0
   79.1106   60.6389   14.4482 O   0  0  0  0  0  0  0  0  0  0  0  0
   78.8753   64.0755   12.9818 C   0  0  0  0  0  0  0  0  0  0  0  0
   80.0673   64.2044   12.0176 C   0  0  0  0  0  0  0  0  0  0  0  0
   80.3289   63.0451   11.0251 C   0  0  0  0  0  0  0  0  0  0  0  0
   79.3557   61.8456   11.0358 C   0  0  0  0  0  0  0  0  0  0  0  0
   79.3768   61.0264   12.2664 N   0  0  0  0  0  0  0  0  0  0  0  0
   79.8962   60.7146    9.7398 S   0  0  0  0  0  0  0  0  0  0  0  0
   79.3893   59.2105   10.5915 C   0  0  0  0  0  0  0  0  0  0  0  0
   80.1278   57.9808   10.0201 C   0  0  0  0  0  0  0  0  0  0  0  0
   77.8786   58.9432   10.3784 C   0  0  0  0  0  0  0  0  0  0  0  0
   79.7437   59.5872   12.0548 C   0  0  0  0  0  0  0  0  0  0  0  0
   75.9447   62.1670   13.5999 O   0  0  0  0  0  0  0  0  0  0  0  0
   76.4025   62.8213   14.5177 C   0  0  0  0  0  0  0  0  0  0  0  0
   77.6935   62.8387   14.8679 N   0  0  0  0  0  0  0  0  0  0  0  0
   77.8647   62.7786   15.8356 H   0  0  0  0  0  0  0  0  0  0  0  0
   75.4477   63.6629   15.4029 C   0  0  0  0  0  0  0  0  0  0  0  0
   75.3296   65.1285   14.9355 C   0  0  0  0  0  0  0  0  0  0  0  0
   75.7882   63.6033   16.8561 N   0  0  0  0  0  0  0  0  0  0  0  0
   75.4490   62.3215   17.5130 C   0  0  0  0  0  0  0  0  0  0  0  0
   75.2821   64.3495   17.3329 H   0  0  0  0  0  0  0  0  0  0  0  0
   81.2545   59.4509   12.4566 C   0  0  0  0  0  0  0  0  0  0  0  0
   81.8173   58.3554   12.4260 O   0  0  0  0  0  0  0  0  0  0  0  0
   81.8459   60.5898   12.8443 N   0  0  0  0  0  0  0  0  0  0  0  0
   81.3665   61.4111   12.5898 H   0  0  0  0  0  0  0  0  0  0  0  0
   83.0831   60.8084   13.5813 C   0  0  0  0  0  0  0  0  0  0  0  0
   83.1513   61.5704   14.7249 C   0  0  0  0  0  0  0  0  0  0  0  0
   84.4768   61.5582   15.1473 C   0  0  0  0  0  0  0  0  0  0  0  0
   85.0697   62.2486   16.3594 C   0  0  0  0  0  0  0  0  0  0  0  0
   85.2186   60.7926   14.2792 N   0  0  0  0  0  0  0  0  0  0  0  0
   84.3922   60.3251   13.3077 N   0  0  0  0  0  0  0  0  0  0  0  0
   84.7893   59.5777   12.3306 C   0  0  0  0  0  0  0  0  0  0  0  0
   85.3149   58.2925   12.6067 C   0  0  0  0  0  0  0  0  0  0  0  0
   85.7418   57.4578   11.5762 C   0  0  0  0  0  0  0  0  0  0  0  0
   85.6481   57.8962   10.2586 C   0  0  0  0  0  0  0  0  0  0  0  0
   85.1314   59.1612    9.9707 C   0  0  0  0  0  0  0  0  0  0  0  0
   84.7018   60.0068   10.9843 C   0  0  0  0  0  0  0  0  0  0  0  0
 14 15  2  0  0  0
 15 16  1  0  0  0
 15 18  1  0  0  0
 18 20  1  0  0  0
 18 19  1  0  0  0
 20 21  1  0  0  0
 16  1  1  0  0  0
  1  4  1  0  0  0
  1  2  1  0  0  0
  2  8  1  0  0  0
  2  3  2  0  0  0
  4  5  2  0  0  0
  5  6  1  0  0  0
  6  7  1  0  0  0
  7  9  1  0  0  0
  7  8  1  0  0  0
  8 13  1  0  0  0
  9 10  1  0  0  0
 10 11  1  0  0  0
 10 12  1  0  0  0
 10 13  1  0  0  0
 13 23  1  0  0  0
 23 24  2  0  0  0
 23 25  1  0  0  0
 25 27  1  0  0  0
 27 28  2  0  0  0
 27 32  1  0  0  0
 28 29  1  0  0  0
 29 30  1  0  0  0
 29 31  2  0  0  0
 31 32  1  0  0  0
 32 33  1  0  0  0
 33 38  2  0  0  0
 33 34  1  0  0  0
 34 35  2  0  0  0
 35 36  1  0  0  0
 36 37  2  0  0  0
 37 38  1  0  0  0
 20 22  1  0  0  0
 16 17  1  0  0  0
 25 26  1  0  0  0
M  END
> <minimizedAffinity>
-6.80648

$$$$
2I3I_618_A_501


 38 41  0  0  0  0  0  0  0  0999 V2000
   75.2742   64.8322   15.2525 C   0  0  0  0  0  0  0  0  0  0  0  0
   75.8036   63.5972   14.4648 C   0  0  0  0  0  0  0  0  0  0  0  0
   76.2995   62.7244   15.1795 O   0  0  0  0  0  0  0  0  0  0  0  0
   74.5991   65.9879   14.4906 C   0  0  0  0  0  0  0  0  0  0  0  0
   75.3767   66.6309   13.3292 C   0  0  0  0  0  0  0  0  0  0  0  0
   75.7080   65.7502   12.0995 C   0  0  0  0  0  0  0  0  0  0  0  0
   75.2054   64.2896   12.0951 C   0  0  0  0  0  0  0  0  0  0  0  0
   75.8206   63.4072   13.1093 N   0  0  0  0  0  0  0  0  0  0  0  0
   75.6977   63.5658   10.5189 S   0  0  0  0  0  0  0  0  0  0  0  0
   75.9455   61.8994   11.1564 C   0  0  0  0  0  0  0  0  0  0  0  0
   76.8475   61.0781   10.2099 C   0  0  0  0  0  0  0  0  0  0  0  0
   74.5990   61.1380   11.2365 C   0  0  0  0  0  0  0  0  0  0  0  0
   76.5499   62.2219   12.5490 C   0  0  0  0  0  0  0  0  0  0  0  0
   74.3956   65.5938   18.1168 O   0  0  0  0  0  0  0  0  0  0  0  0
   74.3958   64.4787   17.6306 C   0  0  0  0  0  0  0  0  0  0  0  0
   74.4332   64.2225   16.3181 N   0  0  0  0  0  0  0  0  0  0  0  0
   73.8101   63.5250   16.0107 H   0  0  0  0  0  0  0  0  0  0  0  0
   74.2890   63.2429   18.5605 C   0  0  0  0  0  0  0  0  0  0  0  0
   74.3608   63.6087   20.0576 C   0  0  0  0  0  0  0  0  0  0  0  0
   75.2814   62.1749   18.2350 N   0  0  0  0  0  0  0  0  0  0  0  0
   76.6830   62.5213   18.5588 C   0  0  0  0  0  0  0  0  0  0  0  0
   75.2240   61.9804   17.2354 H   0  0  0  0  0  0  0  0  0  0  0  0
   78.0756   62.5886   12.5716 C   0  0  0  0  0  0  0  0  0  0  0  0
   78.4837   63.6159   12.0276 O   0  0  0  0  0  0  0  0  0  0  0  0
   78.8656   61.7018   13.1931 N   0  0  0  0  0  0  0  0  0  0  0  0
   78.3934   61.0709   13.7833 H   0  0  0  0  0  0  0  0  0  0  0  0
   80.3098   61.5206   13.1364 C   0  0  0  0  0  0  0  0  0  0  0  0
   81.1559   61.9117   14.1484 C   0  0  0  0  0  0  0  0  0  0  0  0
   82.4489   61.5872   13.7503 C   0  0  0  0  0  0  0  0  0  0  0  0
   83.7384   61.8143   14.5138 C   0  0  0  0  0  0  0  0  0  0  0  0
   82.4027   60.9966   12.5097 N   0  0  0  0  0  0  0  0  0  0  0  0
   81.1062   60.9474   12.1072 N   0  0  0  0  0  0  0  0  0  0  0  0
   80.7283   60.4552   10.9732 C   0  0  0  0  0  0  0  0  0  0  0  0
   80.6275   61.3046    9.8450 C   0  0  0  0  0  0  0  0  0  0  0  0
   80.2337   60.8042    8.6059 C   0  0  0  0  0  0  0  0  0  0  0  0
   79.9368   59.4504    8.4788 C   0  0  0  0  0  0  0  0  0  0  0  0
   80.0321   58.6003    9.5825 C   0  0  0  0  0  0  0  0  0  0  0  0
   80.4222   59.0810   10.8250 C   0  0  0  0  0  0  0  0  0  0  0  0
 14 15  2  0  0  0
 15 16  1  0  0  0
 15 18  1  0  0  0
 18 20  1  0  0  0
 18 19  1  0  0  0
 20 21  1  0  0  0
 16  1  1  0  0  0
  1  4  1  0  0  0
  1  2  1  0  0  0
  2  8  1  0  0  0
  2  3  2  0  0  0
  4  5  2  0  0  0
  5  6  1  0  0  0
  6  7  1  0  0  0
  7  9  1  0  0  0
  7  8  1  0  0  0
  8 13  1  0  0  0
  9 10  1  0  0  0
 10 11  1  0  0  0
 10 12  1  0  0  0
 10 13  1  0  0  0
 13 23  1  0  0  0
 23 24  2  0  0  0
 23 25  1  0  0  0
 25 27  1  0  0  0
 27 28  2  0  0  0
 27 32  1  0  0  0
 28 29  1  0  0  0
 29 30  1  0  0  0
 29 31  2  0  0  0
 31 32  1  0  0  0
 32 33  1  0  0  0
 33 38  2  0  0  0
 33 34  1  0  0  0
 34 35  2  0  0  0
 35 36  1  0  0  0
 36 37  2  0  0  0
 37 38  1  0  0  0
 20 22  1  0  0  0
 16 17  1  0  0  0
 25 26  1  0  0  0
M  END
> <minimizedAffinity>
-6.75852

$$$$
2I3I_618_A_501


 38 41  0  0  0  0  0  0  0  0999 V2000
   73.1325   61.1278   16.8100 C   0  0  0  0  0  0  0  0  0  0  0  0
   73.8005   61.7522   15.5490 C   0  0  0  0  0  0  0  0  0  0  0  0
   73.9218   60.9664   14.6076 O   0  0  0  0  0  0  0  0  0  0  0  0
   72.8875   62.0032   18.0531 C   0  0  0  0  0  0  0  0  0  0  0  0
   74.0891   62.7617   18.6430 C   0  0  0  0  0  0  0  0  0  0  0  0
   74.7662   63.8452   17.7685 C   0  0  0  0  0  0  0  0  0  0  0  0
   74.1719   64.1270   16.3708 C   0  0  0  0  0  0  0  0  0  0  0  0
   74.2937   63.0201   15.3981 N   0  0  0  0  0  0  0  0  0  0  0  0
   75.1387   65.4647   15.6449 S   0  0  0  0  0  0  0  0  0  0  0  0
   74.9875   64.8926   13.9437 C   0  0  0  0  0  0  0  0  0  0  0  0
   76.0957   65.5032   13.0587 C   0  0  0  0  0  0  0  0  0  0  0  0
   73.6425   65.3530   13.3286 C   0  0  0  0  0  0  0  0  0  0  0  0
   75.0685   63.3576   14.1586 C   0  0  0  0  0  0  0  0  0  0  0  0
   71.5253   58.5490   17.3780 O   0  0  0  0  0  0  0  0  0  0  0  0
   71.4999   59.2092   16.3565 C   0  0  0  0  0  0  0  0  0  0  0  0
   71.9101   60.4791   16.2627 N   0  0  0  0  0  0  0  0  0  0  0  0
   71.3129   61.0746   15.7547 H   0  0  0  0  0  0  0  0  0  0  0  0
   70.9058   58.5908   15.0650 C   0  0  0  0  0  0  0  0  0  0  0  0
   70.3328   57.1752   15.2845 C   0  0  0  0  0  0  0  0  0  0  0  0
   71.8617   58.5959   13.9173 N   0  0  0  0  0  0  0  0  0  0  0  0
   72.9720   57.6254   14.0401 C   0  0  0  0  0  0  0  0  0  0  0  0
   72.2626   59.5307   13.8405 H   0  0  0  0  0  0  0  0  0  0  0  0
   76.5070   62.7633   14.3592 C   0  0  0  0  0  0  0  0  0  0  0  0
   76.9790   62.6261   15.4889 O   0  0  0  0  0  0  0  0  0  0  0  0
   77.1581   62.4535   13.2291 N   0  0  0  0  0  0  0  0  0  0  0  0
   76.5871   62.3808   12.4305 H   0  0  0  0  0  0  0  0  0  0  0  0
   78.5740   62.2070   12.9919 C   0  0  0  0  0  0  0  0  0  0  0  0
   79.2011   61.0338   13.3433 C   0  0  0  0  0  0  0  0  0  0  0  0
   80.5361   61.1549   12.9709 C   0  0  0  0  0  0  0  0  0  0  0  0
   81.6426   60.1334   13.1425 C   0  0  0  0  0  0  0  0  0  0  0  0
   80.7312   62.3857   12.3902 N   0  0  0  0  0  0  0  0  0  0  0  0
   79.5481   63.0532   12.3944 N   0  0  0  0  0  0  0  0  0  0  0  0
   79.4004   64.2484   11.9244 C   0  0  0  0  0  0  0  0  0  0  0  0
   79.7833   65.3589   12.7146 C   0  0  0  0  0  0  0  0  0  0  0  0
   79.6475   66.6595   12.2341 C   0  0  0  0  0  0  0  0  0  0  0  0
   79.1287   66.8661   10.9592 C   0  0  0  0  0  0  0  0  0  0  0  0
   78.7471   65.7806   10.1680 C   0  0  0  0  0  0  0  0  0  0  0  0
   78.8746   64.4778   10.6302 C   0  0  0  0  0  0  0  0  0  0  0  0
 14 15  2  0  0  0
 15 16  1  0  0  0
 15 18  1  0  0  0
 18 20  1  0  0  0
 18 19  1  0  0  0
 20 21  1  0  0  0
 16  1  1  0  0  0
  1  4  1  0  0  0
  1  2  1  0  0  0
  2  8  1  0  0  0
  2  3  2  0  0  0
  4  5  2  0  0  0
  5  6  1  0  0  0
  6  7  1  0  0  0
  7  9  1  0  0  0
  7  8  1  0  0  0
  8 13  1  0  0  0
  9 10  1  0  0  0
 10 11  1  0  0  0
 10 12  1  0  0  0
 10 13  1  0  0  0
 13 23  1  0  0  0
 23 24  2  0  0  0
 23 25  1  0  0  0
 25 27  1  0  0  0
 27 28  2  0  0  0
 27 32  1  0  0  0
 28 29  1  0  0  0
 29 30  1  0  0  0
 29 31  2  0  0  0
 31 32  1  0  0  0
 32 33  1  0  0  0
 33 38  2  0  0  0
 33 34  1  0  0  0
 34 35  2  0  0  0
 35 36  1  0  0  0
 36 37  2  0  0  0
 37 38  1  0  0  0
 20 22  1  0  0  0
 16 17  1  0  0  0
 25 26  1  0  0  0
M  END
> <minimizedAffinity>
-6.58688

$$$$
2I3I_618_A_501


 38 41  0  0  0  0  0  0  0  0999 V2000
   82.4271   59.4931   12.5316 C   0  0  0  0  0  0  0  0  0  0  0  0
   80.9550   59.9689   12.7125 C   0  0  0  0  0  0  0  0  0  0  0  0
   80.4162   59.5462   13.7369 O   0  0  0  0  0  0  0  0  0  0  0  0
   83.2360   59.9702   11.3111 C   0  0  0  0  0  0  0  0  0  0  0  0
   82.6291   59.7418    9.9159 C   0  0  0  0  0  0  0  0  0  0  0  0
   81.3049   60.4663    9.5709 C   0  0  0  0  0  0  0  0  0  0  0  0
   80.6917   61.4047   10.6336 C   0  0  0  0  0  0  0  0  0  0  0  0
   80.2081   60.7378   11.8613 N   0  0  0  0  0  0  0  0  0  0  0  0
   79.2085   62.1284    9.9074 S   0  0  0  0  0  0  0  0  0  0  0  0
   78.2869   62.2358   11.4513 C   0  0  0  0  0  0  0  0  0  0  0  0
   76.7717   62.3537   11.1790 C   0  0  0  0  0  0  0  0  0  0  0  0
   78.6836   63.5095   12.2383 C   0  0  0  0  0  0  0  0  0  0  0  0
   78.7457   60.9230   12.1404 C   0  0  0  0  0  0  0  0  0  0  0  0
   83.4789   62.0260   13.9579 O   0  0  0  0  0  0  0  0  0  0  0  0
   83.7676   60.8735   14.2196 C   0  0  0  0  0  0  0  0  0  0  0  0
   83.0512   59.8075   13.8455 N   0  0  0  0  0  0  0  0  0  0  0  0
   82.9165   59.1282   14.5452 H   0  0  0  0  0  0  0  0  0  0  0  0
   85.0141   60.5807   15.0937 C   0  0  0  0  0  0  0  0  0  0  0  0
   85.1915   61.5912   16.2460 C   0  0  0  0  0  0  0  0  0  0  0  0
   86.2745   60.4658   14.3002 N   0  0  0  0  0  0  0  0  0  0  0  0
   86.4424   59.1729   13.6004 C   0  0  0  0  0  0  0  0  0  0  0  0
   87.0631   60.5894   14.9351 H   0  0  0  0  0  0  0  0  0  0  0  0
   78.0334   59.6080   11.6650 C   0  0  0  0  0  0  0  0  0  0  0  0
   77.4801   58.8638   12.4760 O   0  0  0  0  0  0  0  0  0  0  0  0
   78.1017   59.3673   10.3480 N   0  0  0  0  0  0  0  0  0  0  0  0
   78.3486   60.1458    9.7984 H   0  0  0  0  0  0  0  0  0  0  0  0
   77.8695   58.1399    9.5988 C   0  0  0  0  0  0  0  0  0  0  0  0
   76.7665   57.9452    8.7996 C   0  0  0  0  0  0  0  0  0  0  0  0
   76.8777   56.6719    8.2503 C   0  0  0  0  0  0  0  0  0  0  0  0
   75.9160   55.9844    7.3017 C   0  0  0  0  0  0  0  0  0  0  0  0
   78.0388   56.0882    8.6990 N   0  0  0  0  0  0  0  0  0  0  0  0
   78.6636   56.9623    9.5302 N   0  0  0  0  0  0  0  0  0  0  0  0
   79.7817   56.7064   10.1264 C   0  0  0  0  0  0  0  0  0  0  0  0
   80.9724   56.6214    9.3653 C   0  0  0  0  0  0  0  0  0  0  0  0
   82.1956   56.3578    9.9779 C   0  0  0  0  0  0  0  0  0  0  0  0
   82.2441   56.1770   11.3570 C   0  0  0  0  0  0  0  0  0  0  0  0
   81.0780   56.2583   12.1210 C   0  0  0  0  0  0  0  0  0  0  0  0
   79.8503   56.5194   11.5280 C   0  0  0  0  0  0  0  0  0  0  0  0
 14 15  2  0  0  0
 15 16  1  0  0  0
 15 18  1  0  0  0
 18 20  1  0  0  0
 18 19  1  0  0  0
 20 21  1  0  0  0
 16  1  1  0  0  0
  1  4  1  0  0  0
  1  2  1  0  0  0
  2  8  1  0  0  0
  2  3  2  0  0  0
  4  5  2  0  0  0
  5  6  1  0  0  0
  6  7  1  0  0  0
  7  9  1  0  0  0
  7  8  1  0  0  0
  8 13  1  0  0  0
  9 10  1  0  0  0
 10 11  1  0  0  0
 10 12  1  0  0  0
 10 13  1  0  0  0
 13 23  1  0  0  0
 23 24  2  0  0  0
 23 25  1  0  0  0
 25 27  1  0  0  0
 27 28  2  0  0  0
 27 32  1  0  0  0
 28 29  1  0  0  0
 29 30  1  0  0  0
 29 31  2  0  0  0
 31 32  1  0  0  0
 32 33  1  0  0  0
 33 38  2  0  0  0
 33 34  1  0  0  0
 34 35  2  0  0  0
 35 36  1  0  0  0
 36 37  2  0  0  0
 37 38  1  0  0  0
 20 22  1  0  0  0
 16 17  1  0  0  0
 25 26  1  0  0  0
M  END
> <minimizedAffinity>
-6.57693

$$$$
2I3I_618_A_501


 38 41  0  0  0  0  0  0  0  0999 V2000
   77.4276   62.1968   10.9362 C   0  0  0  0  0  0  0  0  0  0  0  0
   77.7620   60.6909   11.1518 C   0  0  0  0  0  0  0  0  0  0  0  0
   77.3559   60.2379   12.2234 O   0  0  0  0  0  0  0  0  0  0  0  0
   77.8463   62.8888    9.6256 C   0  0  0  0  0  0  0  0  0  0  0  0
   79.3259   62.8048    9.2124 C   0  0  0  0  0  0  0  0  0  0  0  0
   79.9146   61.4082    8.8954 C   0  0  0  0  0  0  0  0  0  0  0  0
   78.9723   60.1869    8.9760 C   0  0  0  0  0  0  0  0  0  0  0  0
   78.4756   59.8610   10.3299 N   0  0  0  0  0  0  0  0  0  0  0  0
   79.9378   58.7415    8.4970 S   0  0  0  0  0  0  0  0  0  0  0  0
   79.0804   57.5860    9.5805 C   0  0  0  0  0  0  0  0  0  0  0  0
   79.9381   56.3261    9.8280 C   0  0  0  0  0  0  0  0  0  0  0  0
   77.7675   57.0912    8.9242 C   0  0  0  0  0  0  0  0  0  0  0  0
   78.8424   58.4908   10.8188 C   0  0  0  0  0  0  0  0  0  0  0  0
   75.5228   64.2058   12.3118 O   0  0  0  0  0  0  0  0  0  0  0  0
   75.3148   63.0223   12.1223 C   0  0  0  0  0  0  0  0  0  0  0  0
   75.9710   62.2688   11.2328 N   0  0  0  0  0  0  0  0  0  0  0  0
   75.4047   61.6715   10.6926 H   0  0  0  0  0  0  0  0  0  0  0  0
   74.1800   62.3139   12.9058 C   0  0  0  0  0  0  0  0  0  0  0  0
   73.7481   63.0868   14.1693 C   0  0  0  0  0  0  0  0  0  0  0  0
   74.4970   60.8939   13.2442 N   0  0  0  0  0  0  0  0  0  0  0  0
   73.5854   59.9004   12.6349 C   0  0  0  0  0  0  0  0  0  0  0  0
   74.4504   60.7898   14.2578 H   0  0  0  0  0  0  0  0  0  0  0  0
   80.0659   58.6770   11.7836 C   0  0  0  0  0  0  0  0  0  0  0  0
   80.0708   58.1576   12.9008 O   0  0  0  0  0  0  0  0  0  0  0  0
   81.0562   59.4442   11.3064 N   0  0  0  0  0  0  0  0  0  0  0  0
   81.0357   59.5858   10.3324 H   0  0  0  0  0  0  0  0  0  0  0  0
   82.1576   60.1021   11.9961 C   0  0  0  0  0  0  0  0  0  0  0  0
   83.4540   59.6435   11.9493 C   0  0  0  0  0  0  0  0  0  0  0  0
   84.2237   60.5106   12.7182 C   0  0  0  0  0  0  0  0  0  0  0  0
   85.7143   60.4392   12.9835 C   0  0  0  0  0  0  0  0  0  0  0  0
   83.4145   61.4975   13.2293 N   0  0  0  0  0  0  0  0  0  0  0  0
   82.1434   61.2697   12.8078 N   0  0  0  0  0  0  0  0  0  0  0  0
   81.1398   62.0194   13.1266 C   0  0  0  0  0  0  0  0  0  0  0  0
   80.9544   63.2544   12.4599 C   0  0  0  0  0  0  0  0  0  0  0  0
   79.8773   64.0811   12.7719 C   0  0  0  0  0  0  0  0  0  0  0  0
   78.9728   63.6839   13.7522 C   0  0  0  0  0  0  0  0  0  0  0  0
   79.1423   62.4683   14.4182 C   0  0  0  0  0  0  0  0  0  0  0  0
   80.2098   61.6320   14.1212 C   0  0  0  0  0  0  0  0  0  0  0  0
 14 15  2  0  0  0
 15 16  1  0  0  0
 15 18  1  0  0  0
 18 20  1  0  0  0
 18 19  1  0  0  0
 20 21  1  0  0  0
 16  1  1  0  0  0
  1  4  1  0  0  0
  1  2  1  0  0  0
  2  8  1  0  0  0
  2  3  2  0  0  0
  4  5  2  0  0  0
  5  6  1  0  0  0
  6  7  1  0  0  0
  7  9  1  0  0  0
  7  8  1  0  0  0
  8 13  1  0  0  0
  9 10  1  0  0  0
 10 11  1  0  0  0
 10 12  1  0  0  0
 10 13  1  0  0  0
 13 23  1  0  0  0
 23 24  2  0  0  0
 23 25  1  0  0  0
 25 27  1  0  0  0
 27 28  2  0  0  0
 27 32  1  0  0  0
 28 29  1  0  0  0
 29 30  1  0  0  0
 29 31  2  0  0  0
 31 32  1  0  0  0
 32 33  1  0  0  0
 33 38  2  0  0  0
 33 34  1  0  0  0
 34 35  2  0  0  0
 35 36  1  0  0  0
 36 37  2  0  0  0
 37 38  1  0  0  0
 20 22  1  0  0  0
 16 17  1  0  0  0
 25 26  1  0  0  0
M  END
> <minimizedAffinity>
-6.47039

$$$$
