3TD4_API_A_401


 19 18  0  0  0  0  0  0  0  0999 V2000
   19.8659    1.9082   28.5757 C   0  0  0  0  0  0  0  0  0  0  0  0
   18.6314    2.1752   27.7522 C   0  0  0  0  0  0  0  0  0  0  0  0
   18.9203    2.4590   26.2324 C   0  0  0  0  0  0  0  0  0  0  0  0
   20.3665    2.5189   26.0677 N   0  0  0  0  0  0  0  0  0  0  0  0
   20.7449    3.2632   26.6536 H   0  0  0  0  0  0  0  0  0  0  0  0
   20.5898    2.7086   25.0906 H   0  0  0  0  0  0  0  0  0  0  0  0
   18.4233    3.8183   25.8385 C   0  0  0  0  0  0  0  0  0  0  0  0
   18.7532    4.7671   26.6153 O   0  0  0  0  0  0  0  0  0  0  0  0
   17.7012    3.9325   24.8187 O   0  0  0  0  0  0  0  0  0  0  0  0
   17.5045    3.1793   24.2973 H   0  0  0  0  0  0  0  0  0  0  0  0
   20.1441    3.1409   29.5124 C   0  0  0  0  0  0  0  0  0  0  0  0
   21.6079    3.5376   29.4108 C   0  0  0  0  0  0  0  0  0  0  0  0
   22.3296    2.4304   28.7557 N   0  0  0  0  0  0  0  0  0  0  0  0
   21.9270    2.2604   27.8341 H   0  0  0  0  0  0  0  0  0  0  0  0
   22.2467    1.5873   29.3237 H   0  0  0  0  0  0  0  0  0  0  0  0
   21.7301    4.8920   28.6875 C   0  0  0  0  0  0  0  0  0  0  0  0
   22.2905    5.7873   29.3370 O   0  0  0  0  0  0  0  0  0  0  0  0
   21.3212    5.1259   27.5367 O   0  0  0  0  0  0  0  0  0  0  0  0
   20.8973    4.4510   27.0440 H   0  0  0  0  0  0  0  0  0  0  0  0
  7  3  1  0  0  0
  7  8  2  0  0  0
  7  9  1  0  0  0
  3  2  1  0  0  0
  3  4  1  0  0  0
  2  1  1  0  0  0
  1 11  1  0  0  0
 11 12  1  0  0  0
 12 16  1  0  0  0
 12 13  1  0  0  0
 16 17  2  0  0  0
 16 18  1  0  0  0
  9 10  1  0  0  0
 18 19  1  0  0  0
  4  5  1  0  0  0
  4  6  1  0  0  0
 13 14  1  0  0  0
 13 15  1  0  0  0
M  END
> <minimizedAffinity>
-5.49941

$$$$
3TD4_API_A_401


 19 18  0  0  0  0  0  0  0  0999 V2000
   20.1810    1.7108   27.8945 C   0  0  0  0  0  0  0  0  0  0  0  0
   20.2625    1.3655   29.3600 C   0  0  0  0  0  0  0  0  0  0  0  0
   21.1859    2.3249   30.1971 C   0  0  0  0  0  0  0  0  0  0  0  0
   20.5429    3.6318   30.2268 N   0  0  0  0  0  0  0  0  0  0  0  0
   20.4308    3.9773   29.2737 H   0  0  0  0  0  0  0  0  0  0  0  0
   21.1205    4.2829   30.7587 H   0  0  0  0  0  0  0  0  0  0  0  0
   22.4961    2.5473   29.5016 C   0  0  0  0  0  0  0  0  0  0  0  0
   22.6864    3.7214   29.0571 O   0  0  0  0  0  0  0  0  0  0  0  0
   23.2878    1.5831   29.3682 O   0  0  0  0  0  0  0  0  0  0  0  0
   23.0709    0.7455   29.7280 H   0  0  0  0  0  0  0  0  0  0  0  0
   18.7645    2.3184   27.5804 C   0  0  0  0  0  0  0  0  0  0  0  0
   18.9272    3.6131   26.8010 C   0  0  0  0  0  0  0  0  0  0  0  0
   20.2915    4.1175   27.0463 N   0  0  0  0  0  0  0  0  0  0  0  0
   20.9713    3.4178   26.7485 H   0  0  0  0  0  0  0  0  0  0  0  0
   20.4107    4.3052   28.0418 H   0  0  0  0  0  0  0  0  0  0  0  0
   18.5966    3.3707   25.3162 C   0  0  0  0  0  0  0  0  0  0  0  0
   17.5402    3.8857   24.9209 O   0  0  0  0  0  0  0  0  0  0  0  0
   19.3021    2.7207   24.5250 O   0  0  0  0  0  0  0  0  0  0  0  0
   20.1008    2.3306   24.8214 H   0  0  0  0  0  0  0  0  0  0  0  0
  7  3  1  0  0  0
  7  8  2  0  0  0
  7  9  1  0  0  0
  3  2  1  0  0  0
  3  4  1  0  0  0
  2  1  1  0  0  0
  1 11  1  0  0  0
 11 12  1  0  0  0
 12 16  1  0  0  0
 12 13  1  0  0  0
 16 17  2  0  0  0
 16 18  1  0  0  0
  9 10  1  0  0  0
 18 19  1  0  0  0
  4  5  1  0  0  0
  4  6  1  0  0  0
 13 14  1  0  0  0
 13 15  1  0  0  0
M  END
> <minimizedAffinity>
-5.38426

$$$$
3TD4_API_A_401


 19 18  0  0  0  0  0  0  0  0999 V2000
   19.8554    2.1626   28.7741 C   0  0  0  0  0  0  0  0  0  0  0  0
   20.1199    3.5735   29.2354 C   0  0  0  0  0  0  0  0  0  0  0  0
   21.6450    3.9235   29.3949 C   0  0  0  0  0  0  0  0  0  0  0  0
   21.8975    4.1339   30.8141 N   0  0  0  0  0  0  0  0  0  0  0  0
   21.3130    4.8976   31.1539 H   0  0  0  0  0  0  0  0  0  0  0  0
   22.8800    4.3698   30.9534 H   0  0  0  0  0  0  0  0  0  0  0  0
   21.9638    5.2350   28.7405 C   0  0  0  0  0  0  0  0  0  0  0  0
   22.5291    6.0942   29.4852 O   0  0  0  0  0  0  0  0  0  0  0  0
   21.6304    5.4176   27.5447 O   0  0  0  0  0  0  0  0  0  0  0  0
   21.2160    4.7287   27.0635 H   0  0  0  0  0  0  0  0  0  0  0  0
   18.8365    2.1885   27.5760 C   0  0  0  0  0  0  0  0  0  0  0  0
   19.3638    3.0986   26.4787 C   0  0  0  0  0  0  0  0  0  0  0  0
   20.1892    2.2784   25.5720 N   0  0  0  0  0  0  0  0  0  0  0  0
   19.6226    1.5230   25.1864 H   0  0  0  0  0  0  0  0  0  0  0  0
   20.9743    1.8841   26.0902 H   0  0  0  0  0  0  0  0  0  0  0  0
   18.1884    3.8186   25.7913 C   0  0  0  0  0  0  0  0  0  0  0  0
   17.3548    4.3191   26.5609 O   0  0  0  0  0  0  0  0  0  0  0  0
   18.0383    3.9262   24.5617 O   0  0  0  0  0  0  0  0  0  0  0  0
   18.6668    3.5489   23.9782 H   0  0  0  0  0  0  0  0  0  0  0  0
  7  3  1  0  0  0
  7  8  2  0  0  0
  7  9  1  0  0  0
  3  2  1  0  0  0
  3  4  1  0  0  0
  2  1  1  0  0  0
  1 11  1  0  0  0
 11 12  1  0  0  0
 12 16  1  0  0  0
 12 13  1  0  0  0
 16 17  2  0  0  0
 16 18  1  0  0  0
  9 10  1  0  0  0
 18 19  1  0  0  0
  4  5  1  0  0  0
  4  6  1  0  0  0
 13 14  1  0  0  0
 13 15  1  0  0  0
M  END
> <minimizedAffinity>
-5.23402

$$$$
3TD4_API_A_401


 19 18  0  0  0  0  0  0  0  0999 V2000
   19.9621    1.5568   28.6883 C   0  0  0  0  0  0  0  0  0  0  0  0
   18.9802    2.3313   27.8459 C   0  0  0  0  0  0  0  0  0  0  0  0
   19.6129    2.9996   26.5704 C   0  0  0  0  0  0  0  0  0  0  0  0
   20.2465    4.2399   26.9974 N   0  0  0  0  0  0  0  0  0  0  0  0
   19.5471    4.8518   27.4179 H   0  0  0  0  0  0  0  0  0  0  0  0
   20.6633    4.7041   26.1904 H   0  0  0  0  0  0  0  0  0  0  0  0
   18.5470    3.4164   25.6008 C   0  0  0  0  0  0  0  0  0  0  0  0
   17.5426    4.0020   26.1113 O   0  0  0  0  0  0  0  0  0  0  0  0
   18.6849    3.1381   24.3851 O   0  0  0  0  0  0  0  0  0  0  0  0
   19.4602    2.7030   24.0892 H   0  0  0  0  0  0  0  0  0  0  0  0
   20.2678    2.3618   30.0047 C   0  0  0  0  0  0  0  0  0  0  0  0
   21.7115    2.8369   29.9873 C   0  0  0  0  0  0  0  0  0  0  0  0
   22.3831    2.1937   28.8422 N   0  0  0  0  0  0  0  0  0  0  0  0
   21.8999    2.4449   27.9797 H   0  0  0  0  0  0  0  0  0  0  0  0
   22.3622    1.1808   28.9610 H   0  0  0  0  0  0  0  0  0  0  0  0
   21.7514    4.3765   29.9645 C   0  0  0  0  0  0  0  0  0  0  0  0
   22.2537    4.8754   28.9465 O   0  0  0  0  0  0  0  0  0  0  0  0
   21.3216    5.1150   30.8679 O   0  0  0  0  0  0  0  0  0  0  0  0
   20.9416    4.7404   31.6382 H   0  0  0  0  0  0  0  0  0  0  0  0
  7  3  1  0  0  0
  7  8  2  0  0  0
  7  9  1  0  0  0
  3  2  1  0  0  0
  3  4  1  0  0  0
  2  1  1  0  0  0
  1 11  1  0  0  0
 11 12  1  0  0  0
 12 16  1  0  0  0
 12 13  1  0  0  0
 16 17  2  0  0  0
 16 18  1  0  0  0
  9 10  1  0  0  0
 18 19  1  0  0  0
  4  5  1  0  0  0
  4  6  1  0  0  0
 13 14  1  0  0  0
 13 15  1  0  0  0
M  END
> <minimizedAffinity>
-4.97360

$$$$
3TD4_API_A_401


 19 18  0  0  0  0  0  0  0  0999 V2000
   19.7663    2.3235   28.8443 C   0  0  0  0  0  0  0  0  0  0  0  0
   18.9579    2.1672   27.5811 C   0  0  0  0  0  0  0  0  0  0  0  0
   19.4287    3.0894   26.3972 C   0  0  0  0  0  0  0  0  0  0  0  0
   20.2473    4.1496   26.9699 N   0  0  0  0  0  0  0  0  0  0  0  0
   19.6948    4.6792   27.6441 H   0  0  0  0  0  0  0  0  0  0  0  0
   20.5656    4.7722   26.2273 H   0  0  0  0  0  0  0  0  0  0  0  0
   18.2611    3.7905   25.7687 C   0  0  0  0  0  0  0  0  0  0  0  0
   17.4298    4.3029   26.5804 O   0  0  0  0  0  0  0  0  0  0  0  0
   18.1542    3.7980   24.5186 O   0  0  0  0  0  0  0  0  0  0  0  0
   18.8148    3.3958   23.9895 H   0  0  0  0  0  0  0  0  0  0  0  0
   20.6924    1.0656   29.0292 C   0  0  0  0  0  0  0  0  0  0  0  0
   22.1424    1.5107   29.1274 C   0  0  0  0  0  0  0  0  0  0  0  0
   22.1689    2.9823   29.0280 N   0  0  0  0  0  0  0  0  0  0  0  0
   21.6065    3.3839   29.7782 H   0  0  0  0  0  0  0  0  0  0  0  0
   21.7877    3.2691   28.1264 H   0  0  0  0  0  0  0  0  0  0  0  0
   22.7721    0.9493   30.4161 C   0  0  0  0  0  0  0  0  0  0  0  0
   23.7995    0.2753   30.2499 O   0  0  0  0  0  0  0  0  0  0  0  0
   22.3303    1.1312   31.5641 O   0  0  0  0  0  0  0  0  0  0  0  0
   21.5541    1.6402   31.6922 H   0  0  0  0  0  0  0  0  0  0  0  0
  7  3  1  0  0  0
  7  8  2  0  0  0
  7  9  1  0  0  0
  3  2  1  0  0  0
  3  4  1  0  0  0
  2  1  1  0  0  0
  1 11  1  0  0  0
 11 12  1  0  0  0
 12 16  1  0  0  0
 12 13  1  0  0  0
 16 17  2  0  0  0
 16 18  1  0  0  0
  9 10  1  0  0  0
 18 19  1  0  0  0
  4  5  1  0  0  0
  4  6  1  0  0  0
 13 14  1  0  0  0
 13 15  1  0  0  0
M  END
> <minimizedAffinity>
-4.90649

$$$$
3TD4_API_A_401


 19 18  0  0  0  0  0  0  0  0999 V2000
   19.9532    3.4836   29.0938 C   0  0  0  0  0  0  0  0  0  0  0  0
   20.0616    3.8446   27.6338 C   0  0  0  0  0  0  0  0  0  0  0  0
   19.2042    2.9340   26.6801 C   0  0  0  0  0  0  0  0  0  0  0  0
   20.1039    2.3913   25.6710 N   0  0  0  0  0  0  0  0  0  0  0  0
   20.5336    3.1568   25.1516 H   0  0  0  0  0  0  0  0  0  0  0  0
   19.5773    1.7985   25.0295 H   0  0  0  0  0  0  0  0  0  0  0  0
   18.2047    3.7513   25.9166 C   0  0  0  0  0  0  0  0  0  0  0  0
   18.2945    3.6825   24.6518 O   0  0  0  0  0  0  0  0  0  0  0  0
   17.3880    4.4637   26.5489 O   0  0  0  0  0  0  0  0  0  0  0  0
   17.3876    4.4567   27.4859 H   0  0  0  0  0  0  0  0  0  0  0  0
   21.3839    3.1484   29.6552 C   0  0  0  0  0  0  0  0  0  0  0  0
   22.0312    2.0772   28.7928 C   0  0  0  0  0  0  0  0  0  0  0  0
   23.4592    2.0092   29.1563 N   0  0  0  0  0  0  0  0  0  0  0  0
   23.5474    1.7894   30.1484 H   0  0  0  0  0  0  0  0  0  0  0  0
   23.9016    2.9085   28.9666 H   0  0  0  0  0  0  0  0  0  0  0  0
   21.2698    0.7483   28.9563 C   0  0  0  0  0  0  0  0  0  0  0  0
   21.2842    0.2704   30.1004 O   0  0  0  0  0  0  0  0  0  0  0  0
   20.6630    0.1568   28.0463 O   0  0  0  0  0  0  0  0  0  0  0  0
   20.6506    0.5160   27.1810 H   0  0  0  0  0  0  0  0  0  0  0  0
  7  3  1  0  0  0
  7  8  2  0  0  0
  7  9  1  0  0  0
  3  2  1  0  0  0
  3  4  1  0  0  0
  2  1  1  0  0  0
  1 11  1  0  0  0
 11 12  1  0  0  0
 12 16  1  0  0  0
 12 13  1  0  0  0
 16 17  2  0  0  0
 16 18  1  0  0  0
  9 10  1  0  0  0
 18 19  1  0  0  0
  4  5  1  0  0  0
  4  6  1  0  0  0
 13 14  1  0  0  0
 13 15  1  0  0  0
M  END
> <minimizedAffinity>
-4.89371

$$$$
3TD4_API_A_401


 19 18  0  0  0  0  0  0  0  0999 V2000
   19.6930    2.1714   28.7658 C   0  0  0  0  0  0  0  0  0  0  0  0
   20.4846    3.4539   28.7198 C   0  0  0  0  0  0  0  0  0  0  0  0
   21.8824    3.3738   29.4364 C   0  0  0  0  0  0  0  0  0  0  0  0
   22.5578    2.1815   28.9419 N   0  0  0  0  0  0  0  0  0  0  0  0
   21.9939    1.3585   29.1544 H   0  0  0  0  0  0  0  0  0  0  0  0
   23.4687    2.0951   29.3926 H   0  0  0  0  0  0  0  0  0  0  0  0
   21.7156    3.1482   30.9099 C   0  0  0  0  0  0  0  0  0  0  0  0
   21.2683    4.1383   31.5672 O   0  0  0  0  0  0  0  0  0  0  0  0
   22.0526    2.0436   31.4004 O   0  0  0  0  0  0  0  0  0  0  0  0
   22.3743    1.3622   30.8433 H   0  0  0  0  0  0  0  0  0  0  0  0
   18.8509    2.0312   27.4446 C   0  0  0  0  0  0  0  0  0  0  0  0
   19.3703    3.0092   26.4035 C   0  0  0  0  0  0  0  0  0  0  0  0
   20.0999    2.2339   25.3824 N   0  0  0  0  0  0  0  0  0  0  0  0
   19.4725    1.5466   24.9647 H   0  0  0  0  0  0  0  0  0  0  0  0
   20.8877    1.7544   25.8182 H   0  0  0  0  0  0  0  0  0  0  0  0
   18.2027    3.8479   25.8505 C   0  0  0  0  0  0  0  0  0  0  0  0
   18.0845    3.8368   24.6162 O   0  0  0  0  0  0  0  0  0  0  0  0
   17.4034    4.5021   26.5427 O   0  0  0  0  0  0  0  0  0  0  0  0
   17.4907    4.5121   27.4756 H   0  0  0  0  0  0  0  0  0  0  0  0
  7  3  1  0  0  0
  7  8  2  0  0  0
  7  9  1  0  0  0
  3  2  1  0  0  0
  3  4  1  0  0  0
  2  1  1  0  0  0
  1 11  1  0  0  0
 11 12  1  0  0  0
 12 16  1  0  0  0
 12 13  1  0  0  0
 16 17  2  0  0  0
 16 18  1  0  0  0
  9 10  1  0  0  0
 18 19  1  0  0  0
  4  5  1  0  0  0
  4  6  1  0  0  0
 13 14  1  0  0  0
 13 15  1  0  0  0
M  END
> <minimizedAffinity>
-4.77132

$$$$
3TD4_API_A_401


 19 18  0  0  0  0  0  0  0  0999 V2000
   21.8742    3.8509   29.3937 C   0  0  0  0  0  0  0  0  0  0  0  0
   20.3860    3.6906   29.2109 C   0  0  0  0  0  0  0  0  0  0  0  0
   19.9782    2.5084   28.2571 C   0  0  0  0  0  0  0  0  0  0  0  0
   21.1697    1.7020   28.0289 N   0  0  0  0  0  0  0  0  0  0  0  0
   21.8940    2.2790   27.6013 H   0  0  0  0  0  0  0  0  0  0  0  0
   20.9415    0.9266   27.4067 H   0  0  0  0  0  0  0  0  0  0  0  0
   19.5873    3.0237   26.9038 C   0  0  0  0  0  0  0  0  0  0  0  0
   18.7441    3.9731   26.9031 O   0  0  0  0  0  0  0  0  0  0  0  0
   20.0697    2.4802   25.8809 O   0  0  0  0  0  0  0  0  0  0  0  0
   20.6891    1.7827   25.9690 H   0  0  0  0  0  0  0  0  0  0  0  0
   22.2182    5.3775   29.5531 C   0  0  0  0  0  0  0  0  0  0  0  0
   23.6411    5.6307   29.0825 C   0  0  0  0  0  0  0  0  0  0  0  0
   24.2852    4.3204   28.8721 N   0  0  0  0  0  0  0  0  0  0  0  0
   23.7557    3.7882   28.1815 H   0  0  0  0  0  0  0  0  0  0  0  0
   24.3071    3.8069   29.7531 H   0  0  0  0  0  0  0  0  0  0  0  0
   23.6229    6.5372   27.8373 C   0  0  0  0  0  0  0  0  0  0  0  0
   22.8707    6.1638   26.9250 O   0  0  0  0  0  0  0  0  0  0  0  0
   24.2868    7.5800   27.7041 O   0  0  0  0  0  0  0  0  0  0  0  0
   24.8559    7.8642   28.3921 H   0  0  0  0  0  0  0  0  0  0  0  0
  7  3  1  0  0  0
  7  8  2  0  0  0
  7  9  1  0  0  0
  3  2  1  0  0  0
  3  4  1  0  0  0
  2  1  1  0  0  0
  1 11  1  0  0  0
 11 12  1  0  0  0
 12 16  1  0  0  0
 12 13  1  0  0  0
 16 17  2  0  0  0
 16 18  1  0  0  0
  9 10  1  0  0  0
 18 19  1  0  0  0
  4  5  1  0  0  0
  4  6  1  0  0  0
 13 14  1  0  0  0
 13 15  1  0  0  0
M  END
> <minimizedAffinity>
-4.61043

$$$$
3TD4_API_A_401


 19 18  0  0  0  0  0  0  0  0999 V2000
   20.0496    3.0754   29.0773 C   0  0  0  0  0  0  0  0  0  0  0  0
   19.9719    3.7043   27.7090 C   0  0  0  0  0  0  0  0  0  0  0  0
   19.1750    2.8531   26.6535 C   0  0  0  0  0  0  0  0  0  0  0  0
   20.1289    2.3993   25.6503 N   0  0  0  0  0  0  0  0  0  0  0  0
   20.5672    3.2071   25.2079 H   0  0  0  0  0  0  0  0  0  0  0  0
   19.6426    1.8470   24.9439 H   0  0  0  0  0  0  0  0  0  0  0  0
   18.1959    3.7088   25.9059 C   0  0  0  0  0  0  0  0  0  0  0  0
   18.2956    3.6753   24.6405 O   0  0  0  0  0  0  0  0  0  0  0  0
   17.3856    4.4161   26.5520 O   0  0  0  0  0  0  0  0  0  0  0  0
   17.3768    4.3819   27.4884 H   0  0  0  0  0  0  0  0  0  0  0  0
   21.5422    3.0895   29.5732 C   0  0  0  0  0  0  0  0  0  0  0  0
   22.0496    4.5215   29.6207 C   0  0  0  0  0  0  0  0  0  0  0  0
   21.6327    5.1039   30.9102 N   0  0  0  0  0  0  0  0  0  0  0  0
   22.0180    4.5489   31.6744 H   0  0  0  0  0  0  0  0  0  0  0  0
   20.6145    5.1042   30.9699 H   0  0  0  0  0  0  0  0  0  0  0  0
   23.5702    4.5422   29.3758 C   0  0  0  0  0  0  0  0  0  0  0  0
   24.2406    3.8642   30.1686 O   0  0  0  0  0  0  0  0  0  0  0  0
   24.1377    5.1688   28.4639 O   0  0  0  0  0  0  0  0  0  0  0  0
   23.6332    5.6818   27.8637 H   0  0  0  0  0  0  0  0  0  0  0  0
  7  3  1  0  0  0
  7  8  2  0  0  0
  7  9  1  0  0  0
  3  2  1  0  0  0
  3  4  1  0  0  0
  2  1  1  0  0  0
  1 11  1  0  0  0
 11 12  1  0  0  0
 12 16  1  0  0  0
 12 13  1  0  0  0
 16 17  2  0  0  0
 16 18  1  0  0  0
  9 10  1  0  0  0
 18 19  1  0  0  0
  4  5  1  0  0  0
  4  6  1  0  0  0
 13 14  1  0  0  0
 13 15  1  0  0  0
M  END
> <minimizedAffinity>
-4.42957

$$$$
3TD4_API_A_401


 19 18  0  0  0  0  0  0  0  0999 V2000
   21.2033    3.5306   29.8043 C   0  0  0  0  0  0  0  0  0  0  0  0
   19.9659    3.5606   28.9432 C   0  0  0  0  0  0  0  0  0  0  0  0
   20.2574    3.5919   27.3980 C   0  0  0  0  0  0  0  0  0  0  0  0
   19.6797    4.8209   26.8705 N   0  0  0  0  0  0  0  0  0  0  0  0
   18.6757    4.8290   27.0501 H   0  0  0  0  0  0  0  0  0  0  0  0
   19.8457    4.8705   25.8653 H   0  0  0  0  0  0  0  0  0  0  0  0
   19.5321    2.4833   26.6945 C   0  0  0  0  0  0  0  0  0  0  0  0
   18.5974    1.9353   27.3566 O   0  0  0  0  0  0  0  0  0  0  0  0
   19.9024    2.1448   25.5445 O   0  0  0  0  0  0  0  0  0  0  0  0
   20.6032    2.6032   25.1240 H   0  0  0  0  0  0  0  0  0  0  0  0
   21.7165    5.0002   30.0305 C   0  0  0  0  0  0  0  0  0  0  0  0
   23.1176    5.1439   29.4589 C   0  0  0  0  0  0  0  0  0  0  0  0
   23.5749    3.8035   29.0464 N   0  0  0  0  0  0  0  0  0  0  0  0
   22.9297    3.4222   28.3544 H   0  0  0  0  0  0  0  0  0  0  0  0
   23.6033    3.1887   29.8598 H   0  0  0  0  0  0  0  0  0  0  0  0
   23.1125    6.1896   28.3280 C   0  0  0  0  0  0  0  0  0  0  0  0
   23.8332    7.1797   28.5228 O   0  0  0  0  0  0  0  0  0  0  0  0
   22.4591    6.0977   27.2740 O   0  0  0  0  0  0  0  0  0  0  0  0
   21.9138    5.3506   27.1245 H   0  0  0  0  0  0  0  0  0  0  0  0
  7  3  1  0  0  0
  7  8  2  0  0  0
  7  9  1  0  0  0
  3  2  1  0  0  0
  3  4  1  0  0  0
  2  1  1  0  0  0
  1 11  1  0  0  0
 11 12  1  0  0  0
 12 16  1  0  0  0
 12 13  1  0  0  0
 16 17  2  0  0  0
 16 18  1  0  0  0
  9 10  1  0  0  0
 18 19  1  0  0  0
  4  5  1  0  0  0
  4  6  1  0  0  0
 13 14  1  0  0  0
 13 15  1  0  0  0
M  END
> <minimizedAffinity>
-4.09483

$$$$
