1YDD_AZM_A_264


 16 16  0  0  0  0  0  0  0  0999 V2000
   -4.4558    2.0393   12.8030 C   0  0  0  0  0  0  0  0  0  0  0  0
   -4.9126    2.7909   14.9077 C   0  0  0  0  0  0  0  0  0  0  0  0
   -4.3253    1.6748   14.9552 N   0  0  0  0  0  0  0  0  0  0  0  0
   -4.0834    1.1831   13.6897 N   0  0  0  0  0  0  0  0  0  0  0  0
   -5.2271    3.4833   13.3753 S   0  0  0  0  0  0  0  0  0  0  0  0
   -4.8070    2.9155   10.3204 N   0  0  0  0  0  0  0  0  0  0  0  0
   -2.8258    1.6697   10.8046 O   0  0  0  0  0  0  0  0  0  0  0  0
   -5.1120    0.5238   10.8982 O   0  0  0  0  0  0  0  0  0  0  0  0
   -4.2329    1.6755   11.0707 S   0  0  0  0  0  0  0  0  0  0  0  0
   -4.1819    3.7110   10.4504 H   0  0  0  0  0  0  0  0  0  0  0  0
   -5.7285    3.1425   10.6941 H   0  0  0  0  0  0  0  0  0  0  0  0
   -6.3278    3.0588   16.8129 C   0  0  0  0  0  0  0  0  0  0  0  0
   -6.5120    3.9361   18.0242 C   0  0  0  0  0  0  0  0  0  0  0  0
   -5.2873    3.4272   16.0654 N   0  0  0  0  0  0  0  0  0  0  0  0
   -6.9796    2.0488   16.4964 O   0  0  0  0  0  0  0  0  0  0  0  0
   -4.7560    4.2015   16.3610 H   0  0  0  0  0  0  0  0  0  0  0  0
  1  4  2  0  0  0
  1  9  1  0  0  0
  1  5  1  0  0  0
  2  3  2  0  0  0
  2 14  1  0  0  0
  2  5  1  0  0  0
 12 13  1  0  0  0
 12 14  1  0  0  0
 12 15  2  0  0  0
  6  9  1  0  0  0
  3  4  1  0  0  0
  7  9  2  0  0  0
  8  9  2  0  0  0
  6 10  1  0  0  0
  6 11  1  0  0  0
 14 16  1  0  0  0
M  END
> <minimizedAffinity>
-6.94642

$$$$
1YDD_AZM_A_264


 16 16  0  0  0  0  0  0  0  0999 V2000
   -4.4908    3.4692   12.8541 C   0  0  0  0  0  0  0  0  0  0  0  0
   -5.2134    3.2526   15.0068 C   0  0  0  0  0  0  0  0  0  0  0  0
   -4.1743    2.5614   14.8182 N   0  0  0  0  0  0  0  0  0  0  0  0
   -3.7503    2.6437   13.5085 N   0  0  0  0  0  0  0  0  0  0  0  0
   -5.8360    4.1639   13.6998 S   0  0  0  0  0  0  0  0  0  0  0  0
   -4.7103    2.5551   10.3700 N   0  0  0  0  0  0  0  0  0  0  0  0
   -4.9592    4.9045   10.7309 O   0  0  0  0  0  0  0  0  0  0  0  0
   -2.6910    3.7844   11.1173 O   0  0  0  0  0  0  0  0  0  0  0  0
   -4.1499    3.7936   11.1332 S   0  0  0  0  0  0  0  0  0  0  0  0
   -5.7299    2.5761   10.3901 H   0  0  0  0  0  0  0  0  0  0  0  0
   -4.3789    1.7009   10.8183 H   0  0  0  0  0  0  0  0  0  0  0  0
   -5.7660    4.2927   17.0847 C   0  0  0  0  0  0  0  0  0  0  0  0
   -6.5214    4.0338   18.3626 C   0  0  0  0  0  0  0  0  0  0  0  0
   -5.8237    3.2656   16.2368 N   0  0  0  0  0  0  0  0  0  0  0  0
   -5.1793    5.3339   16.7430 O   0  0  0  0  0  0  0  0  0  0  0  0
   -6.3342    2.4689   16.5088 H   0  0  0  0  0  0  0  0  0  0  0  0
  1  4  2  0  0  0
  1  9  1  0  0  0
  1  5  1  0  0  0
  2  3  2  0  0  0
  2 14  1  0  0  0
  2  5  1  0  0  0
 12 13  1  0  0  0
 12 14  1  0  0  0
 12 15  2  0  0  0
  6  9  1  0  0  0
  3  4  1  0  0  0
  7  9  2  0  0  0
  8  9  2  0  0  0
  6 10  1  0  0  0
  6 11  1  0  0  0
 14 16  1  0  0  0
M  END
> <minimizedAffinity>
-6.88506

$$$$
1YDD_AZM_A_264


 16 16  0  0  0  0  0  0  0  0999 V2000
   -4.7455    3.1247   12.9041 C   0  0  0  0  0  0  0  0  0  0  0  0
   -5.8112    3.4289   14.8978 C   0  0  0  0  0  0  0  0  0  0  0  0
   -6.3275    4.1572   14.0056 N   0  0  0  0  0  0  0  0  0  0  0  0
   -5.6648    4.0208   12.8039 N   0  0  0  0  0  0  0  0  0  0  0  0
   -4.5018    2.4156   14.4678 S   0  0  0  0  0  0  0  0  0  0  0  0
   -4.6751    2.9479   10.2549 N   0  0  0  0  0  0  0  0  0  0  0  0
   -2.7102    3.7052   11.3850 O   0  0  0  0  0  0  0  0  0  0  0  0
   -3.5107    1.2936   11.6884 O   0  0  0  0  0  0  0  0  0  0  0  0
   -3.7441    2.7194   11.4843 S   0  0  0  0  0  0  0  0  0  0  0  0
   -4.8284    3.9480   10.1257 H   0  0  0  0  0  0  0  0  0  0  0  0
   -5.5697    2.4847   10.4151 H   0  0  0  0  0  0  0  0  0  0  0  0
   -5.9037    4.3335   17.1064 C   0  0  0  0  0  0  0  0  0  0  0  0
   -6.5959    4.1314   18.4295 C   0  0  0  0  0  0  0  0  0  0  0  0
   -6.2963    3.4568   16.1821 N   0  0  0  0  0  0  0  0  0  0  0  0
   -5.0938    5.2245   16.7974 O   0  0  0  0  0  0  0  0  0  0  0  0
   -6.9745    2.7896   16.4355 H   0  0  0  0  0  0  0  0  0  0  0  0
  1  4  2  0  0  0
  1  9  1  0  0  0
  1  5  1  0  0  0
  2  3  2  0  0  0
  2 14  1  0  0  0
  2  5  1  0  0  0
 12 13  1  0  0  0
 12 14  1  0  0  0
 12 15  2  0  0  0
  6  9  1  0  0  0
  3  4  1  0  0  0
  7  9  2  0  0  0
  8  9  2  0  0  0
  6 10  1  0  0  0
  6 11  1  0  0  0
 14 16  1  0  0  0
M  END
> <minimizedAffinity>
-6.74438

$$$$
1YDD_AZM_A_264


 16 16  0  0  0  0  0  0  0  0999 V2000
   -4.8943    2.7884   12.8132 C   0  0  0  0  0  0  0  0  0  0  0  0
   -5.4020    3.4482   14.9369 C   0  0  0  0  0  0  0  0  0  0  0  0
   -6.0020    4.1717   14.0945 N   0  0  0  0  0  0  0  0  0  0  0  0
   -5.6696    3.8166   12.8040 N   0  0  0  0  0  0  0  0  0  0  0  0
   -4.3945    2.1907   14.3624 S   0  0  0  0  0  0  0  0  0  0  0  0
   -4.6809    3.1594   10.1918 N   0  0  0  0  0  0  0  0  0  0  0  0
   -2.8974    2.0363   11.3186 O   0  0  0  0  0  0  0  0  0  0  0  0
   -5.1967    0.9273   11.1399 O   0  0  0  0  0  0  0  0  0  0  0  0
   -4.3276    2.0918   11.2716 S   0  0  0  0  0  0  0  0  0  0  0  0
   -4.0655    3.9660   10.2971 H   0  0  0  0  0  0  0  0  0  0  0  0
   -5.6504    3.4538   10.3092 H   0  0  0  0  0  0  0  0  0  0  0  0
   -6.3969    2.9847   17.0582 C   0  0  0  0  0  0  0  0  0  0  0  0
   -6.3717    3.4464   18.4925 C   0  0  0  0  0  0  0  0  0  0  0  0
   -5.5602    3.6737   16.2821 N   0  0  0  0  0  0  0  0  0  0  0  0
   -7.0417    2.0396   16.5724 O   0  0  0  0  0  0  0  0  0  0  0  0
   -5.0239    4.3868   16.6982 H   0  0  0  0  0  0  0  0  0  0  0  0
  1  4  2  0  0  0
  1  9  1  0  0  0
  1  5  1  0  0  0
  2  3  2  0  0  0
  2 14  1  0  0  0
  2  5  1  0  0  0
 12 13  1  0  0  0
 12 14  1  0  0  0
 12 15  2  0  0  0
  6  9  1  0  0  0
  3  4  1  0  0  0
  7  9  2  0  0  0
  8  9  2  0  0  0
  6 10  1  0  0  0
  6 11  1  0  0  0
 14 16  1  0  0  0
M  END
> <minimizedAffinity>
-6.61694

$$$$
1YDD_AZM_A_264


 16 16  0  0  0  0  0  0  0  0999 V2000
   -3.9191    2.8564   11.0437 C   0  0  0  0  0  0  0  0  0  0  0  0
   -3.5818    0.6083   10.8551 C   0  0  0  0  0  0  0  0  0  0  0  0
   -4.7470    0.9132   10.4776 N   0  0  0  0  0  0  0  0  0  0  0  0
   -4.9842    2.2633   10.6292 N   0  0  0  0  0  0  0  0  0  0  0  0
   -2.5453    1.8578   11.3944 S   0  0  0  0  0  0  0  0  0  0  0  0
   -4.8816    5.1839   10.2007 N   0  0  0  0  0  0  0  0  0  0  0  0
   -4.5802    4.8756   12.5514 O   0  0  0  0  0  0  0  0  0  0  0  0
   -2.5453    4.9698   11.0025 O   0  0  0  0  0  0  0  0  0  0  0  0
   -3.9306    4.6219   11.3006 S   0  0  0  0  0  0  0  0  0  0  0  0
   -5.8448    4.9326   10.4232 H   0  0  0  0  0  0  0  0  0  0  0  0
   -4.6271    4.7873    9.2961 H   0  0  0  0  0  0  0  0  0  0  0  0
   -3.4694   -1.5950   11.7703 C   0  0  0  0  0  0  0  0  0  0  0  0
   -2.8755   -2.9520   11.4935 C   0  0  0  0  0  0  0  0  0  0  0  0
   -3.1650   -0.6998   10.8305 N   0  0  0  0  0  0  0  0  0  0  0  0
   -4.2201   -1.2671   12.7052 O   0  0  0  0  0  0  0  0  0  0  0  0
   -2.6083   -0.9941   10.0738 H   0  0  0  0  0  0  0  0  0  0  0  0
  1  4  2  0  0  0
  1  9  1  0  0  0
  1  5  1  0  0  0
  2  3  2  0  0  0
  2 14  1  0  0  0
  2  5  1  0  0  0
 12 13  1  0  0  0
 12 14  1  0  0  0
 12 15  2  0  0  0
  6  9  1  0  0  0
  3  4  1  0  0  0
  7  9  2  0  0  0
  8  9  2  0  0  0
  6 10  1  0  0  0
  6 11  1  0  0  0
 14 16  1  0  0  0
M  END
> <minimizedAffinity>
-6.29472

$$$$
1YDD_AZM_A_264


 16 16  0  0  0  0  0  0  0  0999 V2000
   -5.5682    1.7809   16.0627 C   0  0  0  0  0  0  0  0  0  0  0  0
   -4.2644    2.0377   14.2087 C   0  0  0  0  0  0  0  0  0  0  0  0
   -4.9479    3.0784   14.4154 N   0  0  0  0  0  0  0  0  0  0  0  0
   -5.7773    2.9231   15.5062 N   0  0  0  0  0  0  0  0  0  0  0  0
   -4.4312    0.7232   15.2907 S   0  0  0  0  0  0  0  0  0  0  0  0
   -6.4557    2.5888   18.4321 N   0  0  0  0  0  0  0  0  0  0  0  0
   -7.8563    1.1495   17.1365 O   0  0  0  0  0  0  0  0  0  0  0  0
   -5.6456    0.2720   18.0808 O   0  0  0  0  0  0  0  0  0  0  0  0
   -6.4880    1.3239   17.5215 S   0  0  0  0  0  0  0  0  0  0  0  0
   -7.0486    3.3139   18.0281 H   0  0  0  0  0  0  0  0  0  0  0  0
   -5.4980    2.9328   18.5024 H   0  0  0  0  0  0  0  0  0  0  0  0
   -3.6576    1.2706   12.0297 C   0  0  0  0  0  0  0  0  0  0  0  0
   -2.5460    1.3713   11.0172 C   0  0  0  0  0  0  0  0  0  0  0  0
   -3.4094    1.9713   13.1362 N   0  0  0  0  0  0  0  0  0  0  0  0
   -4.7447    0.6794   11.9126 O   0  0  0  0  0  0  0  0  0  0  0  0
   -2.5626    2.4709   13.1876 H   0  0  0  0  0  0  0  0  0  0  0  0
  1  4  2  0  0  0
  1  9  1  0  0  0
  1  5  1  0  0  0
  2  3  2  0  0  0
  2 14  1  0  0  0
  2  5  1  0  0  0
 12 13  1  0  0  0
 12 14  1  0  0  0
 12 15  2  0  0  0
  6  9  1  0  0  0
  3  4  1  0  0  0
  7  9  2  0  0  0
  8  9  2  0  0  0
  6 10  1  0  0  0
  6 11  1  0  0  0
 14 16  1  0  0  0
M  END
> <minimizedAffinity>
-6.22299

$$$$
1YDD_AZM_A_264


 16 16  0  0  0  0  0  0  0  0999 V2000
   -3.9921    0.9717   12.6367 C   0  0  0  0  0  0  0  0  0  0  0  0
   -4.5912    2.5042   14.2165 C   0  0  0  0  0  0  0  0  0  0  0  0
   -4.4700    1.3598   14.7350 N   0  0  0  0  0  0  0  0  0  0  0  0
   -4.1538    0.4116   13.7849 N   0  0  0  0  0  0  0  0  0  0  0  0
   -4.2964    2.6762   12.5402 S   0  0  0  0  0  0  0  0  0  0  0  0
   -3.8840   -1.4849   11.6328 N   0  0  0  0  0  0  0  0  0  0  0  0
   -4.4468    0.3098   10.1583 O   0  0  0  0  0  0  0  0  0  0  0  0
   -2.1011    0.1752   11.1722 O   0  0  0  0  0  0  0  0  0  0  0  0
   -3.5462   -0.0195   11.2219 S   0  0  0  0  0  0  0  0  0  0  0  0
   -4.8965   -1.6048   11.6629 H   0  0  0  0  0  0  0  0  0  0  0  0
   -3.4910   -1.6790   12.5538 H   0  0  0  0  0  0  0  0  0  0  0  0
   -6.0279    4.3339   14.7574 C   0  0  0  0  0  0  0  0  0  0  0  0
   -6.1805    5.4505   15.7578 C   0  0  0  0  0  0  0  0  0  0  0  0
   -4.9527    3.5806   14.9887 N   0  0  0  0  0  0  0  0  0  0  0  0
   -6.7965    4.0317   13.8285 O   0  0  0  0  0  0  0  0  0  0  0  0
   -4.3839    3.8096   15.7590 H   0  0  0  0  0  0  0  0  0  0  0  0
  1  4  2  0  0  0
  1  9  1  0  0  0
  1  5  1  0  0  0
  2  3  2  0  0  0
  2 14  1  0  0  0
  2  5  1  0  0  0
 12 13  1  0  0  0
 12 14  1  0  0  0
 12 15  2  0  0  0
  6  9  1  0  0  0
  3  4  1  0  0  0
  7  9  2  0  0  0
  8  9  2  0  0  0
  6 10  1  0  0  0
  6 11  1  0  0  0
 14 16  1  0  0  0
M  END
> <minimizedAffinity>
-6.14112

$$$$
1YDD_AZM_A_264


 16 16  0  0  0  0  0  0  0  0999 V2000
   -4.7515    4.2667   12.7323 C   0  0  0  0  0  0  0  0  0  0  0  0
   -5.8036    4.1767   14.7542 C   0  0  0  0  0  0  0  0  0  0  0  0
   -6.0895    5.2502   14.1552 N   0  0  0  0  0  0  0  0  0  0  0  0
   -5.4244    5.3427   12.9506 N   0  0  0  0  0  0  0  0  0  0  0  0
   -4.7560    3.0656   13.9832 S   0  0  0  0  0  0  0  0  0  0  0  0
   -2.9834    5.4152   11.1170 N   0  0  0  0  0  0  0  0  0  0  0  0
   -2.8597    3.0477   11.4199 O   0  0  0  0  0  0  0  0  0  0  0  0
   -4.8710    4.0804   10.2211 O   0  0  0  0  0  0  0  0  0  0  0  0
   -3.8122    4.0992   11.2248 S   0  0  0  0  0  0  0  0  0  0  0  0
   -2.2484    5.4130   11.8242 H   0  0  0  0  0  0  0  0  0  0  0  0
   -3.5966    6.2164   11.2664 H   0  0  0  0  0  0  0  0  0  0  0  0
   -5.8977    4.4926   17.1198 C   0  0  0  0  0  0  0  0  0  0  0  0
   -6.6455    4.0171   18.3387 C   0  0  0  0  0  0  0  0  0  0  0  0
   -6.3262    3.9158   15.9970 N   0  0  0  0  0  0  0  0  0  0  0  0
   -5.0127    5.3634   17.0594 O   0  0  0  0  0  0  0  0  0  0  0  0
   -7.0611    3.2639   16.0627 H   0  0  0  0  0  0  0  0  0  0  0  0
  1  4  2  0  0  0
  1  9  1  0  0  0
  1  5  1  0  0  0
  2  3  2  0  0  0
  2 14  1  0  0  0
  2  5  1  0  0  0
 12 13  1  0  0  0
 12 14  1  0  0  0
 12 15  2  0  0  0
  6  9  1  0  0  0
  3  4  1  0  0  0
  7  9  2  0  0  0
  8  9  2  0  0  0
  6 10  1  0  0  0
  6 11  1  0  0  0
 14 16  1  0  0  0
M  END
> <minimizedAffinity>
-5.81898

$$$$
1YDD_AZM_A_264


 16 16  0  0  0  0  0  0  0  0999 V2000
   -3.7219    3.8157   11.4544 C   0  0  0  0  0  0  0  0  0  0  0  0
   -3.0383    1.6426   11.5721 C   0  0  0  0  0  0  0  0  0  0  0  0
   -2.3965    2.2596   10.6773 N   0  0  0  0  0  0  0  0  0  0  0  0
   -2.8301    3.5635   10.5604 N   0  0  0  0  0  0  0  0  0  0  0  0
   -4.2156    2.4995   12.4699 S   0  0  0  0  0  0  0  0  0  0  0  0
   -3.2257    6.4211   11.5964 N   0  0  0  0  0  0  0  0  0  0  0  0
   -5.1106    5.7025   10.3148 O   0  0  0  0  0  0  0  0  0  0  0  0
   -5.0993    5.3954   12.8553 O   0  0  0  0  0  0  0  0  0  0  0  0
   -4.4408    5.4454   11.5542 S   0  0  0  0  0  0  0  0  0  0  0  0
   -2.7768    6.4449   10.6808 H   0  0  0  0  0  0  0  0  0  0  0  0
   -2.5558    6.0998   12.2953 H   0  0  0  0  0  0  0  0  0  0  0  0
   -3.1555   -0.6708   10.9900 C   0  0  0  0  0  0  0  0  0  0  0  0
   -2.7608   -2.0317   11.5030 C   0  0  0  0  0  0  0  0  0  0  0  0
   -2.7903    0.3135   11.8116 N   0  0  0  0  0  0  0  0  0  0  0  0
   -3.7036   -0.3924    9.9097 O   0  0  0  0  0  0  0  0  0  0  0  0
   -2.3146    0.0731   12.6393 H   0  0  0  0  0  0  0  0  0  0  0  0
  1  4  2  0  0  0
  1  9  1  0  0  0
  1  5  1  0  0  0
  2  3  2  0  0  0
  2 14  1  0  0  0
  2  5  1  0  0  0
 12 13  1  0  0  0
 12 14  1  0  0  0
 12 15  2  0  0  0
  6  9  1  0  0  0
  3  4  1  0  0  0
  7  9  2  0  0  0
  8  9  2  0  0  0
  6 10  1  0  0  0
  6 11  1  0  0  0
 14 16  1  0  0  0
M  END
> <minimizedAffinity>
-5.57375

$$$$
1YDD_AZM_A_264


 16 16  0  0  0  0  0  0  0  0999 V2000
   -4.4170    3.7507   12.1848 C   0  0  0  0  0  0  0  0  0  0  0  0
   -5.2676    5.8638   12.3060 C   0  0  0  0  0  0  0  0  0  0  0  0
   -5.9018    5.0879   13.0733 N   0  0  0  0  0  0  0  0  0  0  0  0
   -5.4308    3.7953   12.9775 N   0  0  0  0  0  0  0  0  0  0  0  0
   -3.9733    5.2255   11.3875 S   0  0  0  0  0  0  0  0  0  0  0  0
   -4.1114    1.2450   13.0107 N   0  0  0  0  0  0  0  0  0  0  0  0
   -4.0726    1.6675   10.6588 O   0  0  0  0  0  0  0  0  0  0  0  0
   -2.1946    2.5611   12.1499 O   0  0  0  0  0  0  0  0  0  0  0  0
   -3.5851    2.1992   11.8959 S   0  0  0  0  0  0  0  0  0  0  0  0
   -5.0832    1.0015   12.8191 H   0  0  0  0  0  0  0  0  0  0  0  0
   -4.0500    1.7124   13.9153 H   0  0  0  0  0  0  0  0  0  0  0  0
   -6.3972    7.6892   11.2588 C   0  0  0  0  0  0  0  0  0  0  0  0
   -6.6117    9.1740   11.4012 C   0  0  0  0  0  0  0  0  0  0  0  0
   -5.6168    7.1888   12.2167 N   0  0  0  0  0  0  0  0  0  0  0  0
   -6.8977    6.9235   10.4172 O   0  0  0  0  0  0  0  0  0  0  0  0
   -5.2701    7.8060   12.9009 H   0  0  0  0  0  0  0  0  0  0  0  0
  1  4  2  0  0  0
  1  9  1  0  0  0
  1  5  1  0  0  0
  2  3  2  0  0  0
  2 14  1  0  0  0
  2  5  1  0  0  0
 12 13  1  0  0  0
 12 14  1  0  0  0
 12 15  2  0  0  0
  6  9  1  0  0  0
  3  4  1  0  0  0
  7  9  2  0  0  0
  8  9  2  0  0  0
  6 10  1  0  0  0
  6 11  1  0  0  0
 14 16  1  0  0  0
M  END
> <minimizedAffinity>
-5.50632

$$$$
