1SWR_BTN_A_300


 19 20  0  0  0  0  0  0  0  0999 V2000
   11.5819  -12.7886   23.0282 C   0  0  0  0  0  0  0  0  0  0  0  0
   12.5924  -14.2013   22.4500 S   0  0  0  0  0  0  0  0  0  0  0  0
   13.4725  -13.1030   21.3081 C   0  0  0  0  0  0  0  0  0  0  0  0
   13.6783  -11.7850   22.0312 C   0  0  0  0  0  0  0  0  0  0  0  0
   14.8891  -11.7640   22.8232 N   0  0  0  0  0  0  0  0  0  0  0  0
   14.6285  -11.6238   24.1287 C   0  0  0  0  0  0  0  0  0  0  0  0
   15.4736  -11.5417   25.0402 O   0  0  0  0  0  0  0  0  0  0  0  0
   13.2976  -11.5499   24.3205 N   0  0  0  0  0  0  0  0  0  0  0  0
   12.5523  -11.6297   23.0882 C   0  0  0  0  0  0  0  0  0  0  0  0
   15.7955  -11.8433   22.4472 H   0  0  0  0  0  0  0  0  0  0  0  0
   12.8786  -11.4521   25.2060 H   0  0  0  0  0  0  0  0  0  0  0  0
   10.6449  -13.0811   24.1738 C   0  0  0  0  0  0  0  0  0  0  0  0
   10.7345  -14.5122   24.7787 C   0  0  0  0  0  0  0  0  0  0  0  0
    9.5472  -14.8695   25.6703 C   0  0  0  0  0  0  0  0  0  0  0  0
    8.9983  -16.2570   25.3068 C   0  0  0  0  0  0  0  0  0  0  0  0
    7.9700  -16.1756   24.2383 C   0  0  0  0  0  0  0  0  0  0  0  0
    6.9574  -15.4757   24.4674 O   0  0  0  0  0  0  0  0  0  0  0  0
    8.0939  -16.7912   23.1540 O   0  0  0  0  0  0  0  0  0  0  0  0
    8.8568  -17.3115   22.9952 H   0  0  0  0  0  0  0  0  0  0  0  0
 16 17  2  0  0  0
 16 18  1  0  0  0
 16 15  1  0  0  0
 15 14  1  0  0  0
 14 13  1  0  0  0
 13 12  1  0  0  0
 12  1  1  0  0  0
  1  2  1  0  0  0
  1  9  1  0  0  0
  2  3  1  0  0  0
  3  4  1  0  0  0
  4  5  1  0  0  0
  4  9  1  0  0  0
  5  6  1  0  0  0
  6  7  2  0  0  0
  6  8  1  0  0  0
  8  9  1  0  0  0
 18 19  1  0  0  0
  5 10  1  0  0  0
  8 11  1  0  0  0
M  END
> <minimizedAffinity>
-8.25063

$$$$
1SWR_BTN_A_300


 19 20  0  0  0  0  0  0  0  0999 V2000
   10.6003  -12.6375   23.8812 C   0  0  0  0  0  0  0  0  0  0  0  0
   10.1539  -11.3954   22.6128 S   0  0  0  0  0  0  0  0  0  0  0  0
   11.6939  -10.5006   22.9484 C   0  0  0  0  0  0  0  0  0  0  0  0
   12.7707  -11.5441   23.1813 C   0  0  0  0  0  0  0  0  0  0  0  0
   13.4077  -11.9745   21.9554 N   0  0  0  0  0  0  0  0  0  0  0  0
   13.1985  -13.2746   21.7147 C   0  0  0  0  0  0  0  0  0  0  0  0
   13.6511  -13.9241   20.7529 O   0  0  0  0  0  0  0  0  0  0  0  0
   12.4407  -13.8015   22.6954 N   0  0  0  0  0  0  0  0  0  0  0  0
   12.0900  -12.8358   23.7077 C   0  0  0  0  0  0  0  0  0  0  0  0
   13.9318  -11.3825   21.3689 H   0  0  0  0  0  0  0  0  0  0  0  0
   12.1568  -14.7439   22.7188 H   0  0  0  0  0  0  0  0  0  0  0  0
    9.6654  -13.8156   23.9994 C   0  0  0  0  0  0  0  0  0  0  0  0
    9.9288  -14.7770   25.1945 C   0  0  0  0  0  0  0  0  0  0  0  0
    9.0262  -16.0089   25.1925 C   0  0  0  0  0  0  0  0  0  0  0  0
    8.6376  -16.3901   23.7565 C   0  0  0  0  0  0  0  0  0  0  0  0
    7.1762  -16.2521   23.5305 C   0  0  0  0  0  0  0  0  0  0  0  0
    6.7449  -16.5123   22.3841 O   0  0  0  0  0  0  0  0  0  0  0  0
    6.3998  -15.8762   24.4392 O   0  0  0  0  0  0  0  0  0  0  0  0
    6.7355  -15.6847   25.2928 H   0  0  0  0  0  0  0  0  0  0  0  0
 16 17  2  0  0  0
 16 18  1  0  0  0
 16 15  1  0  0  0
 15 14  1  0  0  0
 14 13  1  0  0  0
 13 12  1  0  0  0
 12  1  1  0  0  0
  1  2  1  0  0  0
  1  9  1  0  0  0
  2  3  1  0  0  0
  3  4  1  0  0  0
  4  5  1  0  0  0
  4  9  1  0  0  0
  5  6  1  0  0  0
  6  7  2  0  0  0
  6  8  1  0  0  0
  8  9  1  0  0  0
 18 19  1  0  0  0
  5 10  1  0  0  0
  8 11  1  0  0  0
M  END
> <minimizedAffinity>
-6.70819

$$$$
1SWR_BTN_A_300


 19 20  0  0  0  0  0  0  0  0999 V2000
   11.4662  -12.1762   22.6136 C   0  0  0  0  0  0  0  0  0  0  0  0
   12.0465  -13.9107   22.5378 S   0  0  0  0  0  0  0  0  0  0  0  0
   13.4161  -13.4044   21.4641 C   0  0  0  0  0  0  0  0  0  0  0  0
   13.9121  -12.0663   21.9800 C   0  0  0  0  0  0  0  0  0  0  0  0
   14.9108  -12.2019   23.0183 N   0  0  0  0  0  0  0  0  0  0  0  0
   14.4915  -11.6919   24.1828 C   0  0  0  0  0  0  0  0  0  0  0  0
   15.1494  -11.6397   25.2394 O   0  0  0  0  0  0  0  0  0  0  0  0
   13.2445  -11.2035   24.0417 N   0  0  0  0  0  0  0  0  0  0  0  0
   12.7349  -11.3570   22.7012 C   0  0  0  0  0  0  0  0  0  0  0  0
   15.7924  -12.6190   22.8845 H   0  0  0  0  0  0  0  0  0  0  0  0
   12.7357  -10.7869   24.7744 H   0  0  0  0  0  0  0  0  0  0  0  0
   10.3045  -11.9159   23.5402 C   0  0  0  0  0  0  0  0  0  0  0  0
    9.3413  -10.7682   23.1194 C   0  0  0  0  0  0  0  0  0  0  0  0
    8.2827  -10.4477   24.1725 C   0  0  0  0  0  0  0  0  0  0  0  0
    7.8790   -8.9678   24.0980 C   0  0  0  0  0  0  0  0  0  0  0  0
    6.6731   -8.6880   24.9186 C   0  0  0  0  0  0  0  0  0  0  0  0
    6.8075   -8.7089   26.1633 O   0  0  0  0  0  0  0  0  0  0  0  0
    5.5583   -8.4548   24.3963 O   0  0  0  0  0  0  0  0  0  0  0  0
    5.4714   -8.4421   23.4634 H   0  0  0  0  0  0  0  0  0  0  0  0
 16 17  2  0  0  0
 16 18  1  0  0  0
 16 15  1  0  0  0
 15 14  1  0  0  0
 14 13  1  0  0  0
 13 12  1  0  0  0
 12  1  1  0  0  0
  1  2  1  0  0  0
  1  9  1  0  0  0
  2  3  1  0  0  0
  3  4  1  0  0  0
  4  5  1  0  0  0
  4  9  1  0  0  0
  5  6  1  0  0  0
  6  7  2  0  0  0
  6  8  1  0  0  0
  8  9  1  0  0  0
 18 19  1  0  0  0
  5 10  1  0  0  0
  8 11  1  0  0  0
M  END
> <minimizedAffinity>
-6.08312

$$$$
1SWR_BTN_A_300


 19 20  0  0  0  0  0  0  0  0999 V2000
    9.7708  -13.1450   24.1561 C   0  0  0  0  0  0  0  0  0  0  0  0
   11.2732  -14.1877   24.2384 S   0  0  0  0  0  0  0  0  0  0  0  0
   10.6695  -14.9343   25.7757 C   0  0  0  0  0  0  0  0  0  0  0  0
    9.1712  -15.1179   25.6204 C   0  0  0  0  0  0  0  0  0  0  0  0
    8.8232  -16.3747   24.9933 N   0  0  0  0  0  0  0  0  0  0  0  0
    8.2047  -16.1920   23.8202 C   0  0  0  0  0  0  0  0  0  0  0  0
    7.7635  -17.0889   23.0767 O   0  0  0  0  0  0  0  0  0  0  0  0
    8.0949  -14.8742   23.5654 N   0  0  0  0  0  0  0  0  0  0  0  0
    8.6532  -14.0561   24.6138 C   0  0  0  0  0  0  0  0  0  0  0  0
    9.0179  -17.2578   25.3825 H   0  0  0  0  0  0  0  0  0  0  0  0
    7.6785  -14.5089   22.7515 H   0  0  0  0  0  0  0  0  0  0  0  0
    9.6291  -12.3004   22.9142 C   0  0  0  0  0  0  0  0  0  0  0  0
   10.5842  -11.0760   22.8104 C   0  0  0  0  0  0  0  0  0  0  0  0
   11.6931  -11.2575   21.7761 C   0  0  0  0  0  0  0  0  0  0  0  0
   13.0229  -11.5967   22.4654 C   0  0  0  0  0  0  0  0  0  0  0  0
   13.8116  -12.5790   21.6789 C   0  0  0  0  0  0  0  0  0  0  0  0
   15.0215  -12.3214   21.4853 O   0  0  0  0  0  0  0  0  0  0  0  0
   13.2929  -13.6189   21.2103 O   0  0  0  0  0  0  0  0  0  0  0  0
   12.3862  -13.7998   21.3625 H   0  0  0  0  0  0  0  0  0  0  0  0
 16 17  2  0  0  0
 16 18  1  0  0  0
 16 15  1  0  0  0
 15 14  1  0  0  0
 14 13  1  0  0  0
 13 12  1  0  0  0
 12  1  1  0  0  0
  1  2  1  0  0  0
  1  9  1  0  0  0
  2  3  1  0  0  0
  3  4  1  0  0  0
  4  5  1  0  0  0
  4  9  1  0  0  0
  5  6  1  0  0  0
  6  7  2  0  0  0
  6  8  1  0  0  0
  8  9  1  0  0  0
 18 19  1  0  0  0
  5 10  1  0  0  0
  8 11  1  0  0  0
M  END
> <minimizedAffinity>
-5.78846

$$$$
1SWR_BTN_A_300


 19 20  0  0  0  0  0  0  0  0999 V2000
   11.9595  -13.3930   23.3144 C   0  0  0  0  0  0  0  0  0  0  0  0
   13.1981  -14.4081   22.4275 S   0  0  0  0  0  0  0  0  0  0  0  0
   13.5621  -13.0080   21.3355 C   0  0  0  0  0  0  0  0  0  0  0  0
   13.5287  -11.7568   22.1934 C   0  0  0  0  0  0  0  0  0  0  0  0
   14.8032  -11.4708   22.8161 N   0  0  0  0  0  0  0  0  0  0  0  0
   14.7298  -11.5290   24.1515 C   0  0  0  0  0  0  0  0  0  0  0  0
   15.6597  -11.2977   24.9475 O   0  0  0  0  0  0  0  0  0  0  0  0
   13.4754  -11.8478   24.5236 N   0  0  0  0  0  0  0  0  0  0  0  0
   12.5880  -12.0196   23.3997 C   0  0  0  0  0  0  0  0  0  0  0  0
   15.6253  -11.2590   22.3177 H   0  0  0  0  0  0  0  0  0  0  0  0
   13.1945  -11.9523   25.4614 H   0  0  0  0  0  0  0  0  0  0  0  0
   11.3305  -14.0392   24.5238 C   0  0  0  0  0  0  0  0  0  0  0  0
    9.8636  -14.5289   24.3490 C   0  0  0  0  0  0  0  0  0  0  0  0
    9.0008  -13.5777   23.5226 C   0  0  0  0  0  0  0  0  0  0  0  0
    8.7963  -12.2504   24.2675 C   0  0  0  0  0  0  0  0  0  0  0  0
    9.0197  -11.0832   23.3767 C   0  0  0  0  0  0  0  0  0  0  0  0
    8.6058   -9.9701   23.7734 O   0  0  0  0  0  0  0  0  0  0  0  0
    9.5845  -11.1998   22.2644 O   0  0  0  0  0  0  0  0  0  0  0  0
    9.8896  -12.0386   21.9794 H   0  0  0  0  0  0  0  0  0  0  0  0
 16 17  2  0  0  0
 16 18  1  0  0  0
 16 15  1  0  0  0
 15 14  1  0  0  0
 14 13  1  0  0  0
 13 12  1  0  0  0
 12  1  1  0  0  0
  1  2  1  0  0  0
  1  9  1  0  0  0
  2  3  1  0  0  0
  3  4  1  0  0  0
  4  5  1  0  0  0
  4  9  1  0  0  0
  5  6  1  0  0  0
  6  7  2  0  0  0
  6  8  1  0  0  0
  8  9  1  0  0  0
 18 19  1  0  0  0
  5 10  1  0  0  0
  8 11  1  0  0  0
M  END
> <minimizedAffinity>
-5.60742

$$$$
1SWR_BTN_A_300


 19 20  0  0  0  0  0  0  0  0999 V2000
   11.0155  -12.5466   21.8427 C   0  0  0  0  0  0  0  0  0  0  0  0
   11.1483  -11.0755   22.9241 S   0  0  0  0  0  0  0  0  0  0  0  0
    9.4155  -11.2807   23.4143 C   0  0  0  0  0  0  0  0  0  0  0  0
    9.1687  -12.7712   23.5558 C   0  0  0  0  0  0  0  0  0  0  0  0
    9.4944  -13.2699   24.8746 N   0  0  0  0  0  0  0  0  0  0  0  0
   10.4934  -14.1601   24.8382 C   0  0  0  0  0  0  0  0  0  0  0  0
   10.9618  -14.7765   25.8142 O   0  0  0  0  0  0  0  0  0  0  0  0
   10.9091  -14.3242   23.5679 N   0  0  0  0  0  0  0  0  0  0  0  0
   10.1655  -13.5189   22.6304 C   0  0  0  0  0  0  0  0  0  0  0  0
    9.0363  -12.9883   25.6993 H   0  0  0  0  0  0  0  0  0  0  0  0
   11.6413  -14.9286   23.3073 H   0  0  0  0  0  0  0  0  0  0  0  0
   12.2974  -12.9894   21.1818 C   0  0  0  0  0  0  0  0  0  0  0  0
   13.6125  -12.4536   21.8185 C   0  0  0  0  0  0  0  0  0  0  0  0
   14.3312  -13.4853   22.6852 C   0  0  0  0  0  0  0  0  0  0  0  0
   14.1691  -13.1454   24.1741 C   0  0  0  0  0  0  0  0  0  0  0  0
   14.6980  -11.7934   24.4872 C   0  0  0  0  0  0  0  0  0  0  0  0
   14.0120  -11.0691   25.2439 O   0  0  0  0  0  0  0  0  0  0  0  0
   15.7781  -11.3789   24.0061 O   0  0  0  0  0  0  0  0  0  0  0  0
   16.2819  -11.9311   23.4411 H   0  0  0  0  0  0  0  0  0  0  0  0
 16 17  2  0  0  0
 16 18  1  0  0  0
 16 15  1  0  0  0
 15 14  1  0  0  0
 14 13  1  0  0  0
 13 12  1  0  0  0
 12  1  1  0  0  0
  1  2  1  0  0  0
  1  9  1  0  0  0
  2  3  1  0  0  0
  3  4  1  0  0  0
  4  5  1  0  0  0
  4  9  1  0  0  0
  5  6  1  0  0  0
  6  7  2  0  0  0
  6  8  1  0  0  0
  8  9  1  0  0  0
 18 19  1  0  0  0
  5 10  1  0  0  0
  8 11  1  0  0  0
M  END
> <minimizedAffinity>
-5.34818

$$$$
