4W9H_3JF_C_301


 36 38  0  0  0  0  0  0  0  0999 V2000
   11.5588   53.6721   92.0431 C   0  0  0  0  0  0  0  0  0  0  0  0
   10.3997   53.4760   91.6954 O   0  0  0  0  0  0  0  0  0  0  0  0
   12.5366   53.8705   91.1315 N   0  0  0  0  0  0  0  0  0  0  0  0
   13.9950   54.1762   91.2649 C   0  0  0  0  0  0  0  0  0  0  0  0
   14.3577   54.8957   89.9598 C   0  0  0  0  0  0  0  0  0  0  0  0
   14.0297   56.2933   90.0040 O   0  0  0  0  0  0  0  0  0  0  0  0
   13.4921   54.2345   88.9353 C   0  0  0  0  0  0  0  0  0  0  0  0
   12.1811   53.8705   89.6469 C   0  0  0  0  0  0  0  0  0  0  0  0
   13.0819   56.3975   90.1818 H   0  0  0  0  0  0  0  0  0  0  0  0
   11.7298   52.6323   89.1396 C   0  0  0  0  0  0  0  0  0  0  0  0
   12.1201   51.5873   89.6476 O   0  0  0  0  0  0  0  0  0  0  0  0
   10.9580   52.6599   88.0258 N   0  0  0  0  0  0  0  0  0  0  0  0
   10.6954   53.5264   87.6394 H   0  0  0  0  0  0  0  0  0  0  0  0
   10.5085   51.4198   87.3881 C   0  0  0  0  0  0  0  0  0  0  0  0
   11.2298   51.2035   86.1726 C   0  0  0  0  0  0  0  0  0  0  0  0
   11.7445   49.9629   85.7707 C   0  0  0  0  0  0  0  0  0  0  0  0
   12.4365   49.8242   84.5554 C   0  0  0  0  0  0  0  0  0  0  0  0
   11.4298   52.2885   85.3168 C   0  0  0  0  0  0  0  0  0  0  0  0
   12.1191   52.1512   84.1122 C   0  0  0  0  0  0  0  0  0  0  0  0
   12.6407   50.9121   83.7062 C   0  0  0  0  0  0  0  0  0  0  0  0
   13.3219   50.7753   82.5457 C   0  0  0  0  0  0  0  0  0  0  0  0
   12.8324   49.9281   81.1634 S   0  0  0  0  0  0  0  0  0  0  0  0
   14.1995   50.2672   80.2760 C   0  0  0  0  0  0  0  0  0  0  0  0
   15.0108   51.0102   81.0353 N   0  0  0  0  0  0  0  0  0  0  0  0
   14.5413   51.2853   82.2646 C   0  0  0  0  0  0  0  0  0  0  0  0
   15.3919   52.1425   83.2086 C   0  0  0  0  0  0  0  0  0  0  0  0
   11.8980   53.7400   93.5606 C   0  0  0  0  0  0  0  0  0  0  0  0
    9.4087   56.0496   95.3873 C   0  0  0  0  0  0  0  0  0  0  0  0
   10.7648   55.5347   94.8702 C   0  0  0  0  0  0  0  0  0  0  0  0
   11.7877   56.1414   95.1630 O   0  0  0  0  0  0  0  0  0  0  0  0
   10.7207   54.3787   94.1796 N   0  0  0  0  0  0  0  0  0  0  0  0
    9.8487   53.9323   94.0819 H   0  0  0  0  0  0  0  0  0  0  0  0
   12.1910   52.3512   94.1928 C   0  0  0  0  0  0  0  0  0  0  0  0
   10.9065   51.7926   94.8183 C   0  0  0  0  0  0  0  0  0  0  0  0
   13.2450   52.4970   95.3045 C   0  0  0  0  0  0  0  0  0  0  0  0
   12.6695   51.3084   93.1464 C   0  0  0  0  0  0  0  0  0  0  0  0
 24 23  2  0  0  0
 24 25  1  0  0  0
 23 22  1  0  0  0
 26 25  1  0  0  0
 25 21  2  0  0  0
 22 21  1  0  0  0
 21 20  1  0  0  0
 20 19  2  0  0  0
 20 17  1  0  0  0
 19 18  1  0  0  0
 17 16  2  0  0  0
 18 15  2  0  0  0
 16 15  1  0  0  0
 15 14  1  0  0  0
 14 12  1  0  0  0
 12 10  1  0  0  0
  7  8  1  0  0  0
  7  5  1  0  0  0
 10 11  2  0  0  0
 10  8  1  0  0  0
  8  3  1  0  0  0
  5  6  1  0  0  0
  5  4  1  0  0  0
  3  4  1  0  0  0
  3  1  1  0  0  0
  2  1  2  0  0  0
  1 27  1  0  0  0
 35 33  1  0  0  0
 27 33  1  0  0  0
 27 31  1  0  0  0
 36 33  1  0  0  0
 33 34  1  0  0  0
 31 29  1  0  0  0
 29 30  2  0  0  0
 29 28  1  0  0  0
 31 32  1  0  0  0
  6  9  1  0  0  0
 12 13  1  0  0  0
M  END
> <minimizedAffinity>
-8.89543

$$$$
4W9H_3JF_C_301


 36 38  0  0  0  0  0  0  0  0999 V2000
   11.6166   53.6509   92.0984 C   0  0  0  0  0  0  0  0  0  0  0  0
   10.4099   53.6422   91.8825 O   0  0  0  0  0  0  0  0  0  0  0  0
   12.5019   53.8794   91.1032 N   0  0  0  0  0  0  0  0  0  0  0  0
   13.9934   53.9958   91.0850 C   0  0  0  0  0  0  0  0  0  0  0  0
   14.2958   54.8659   89.8587 C   0  0  0  0  0  0  0  0  0  0  0  0
   14.1596   56.2670   90.1433 O   0  0  0  0  0  0  0  0  0  0  0  0
   13.2408   54.4742   88.8741 C   0  0  0  0  0  0  0  0  0  0  0  0
   11.9831   54.1517   89.6936 C   0  0  0  0  0  0  0  0  0  0  0  0
   13.2598   56.4472   90.4576 H   0  0  0  0  0  0  0  0  0  0  0  0
   11.3198   53.0665   89.0800 C   0  0  0  0  0  0  0  0  0  0  0  0
   10.0955   53.0099   89.1018 O   0  0  0  0  0  0  0  0  0  0  0  0
   12.0888   52.0672   88.5829 N   0  0  0  0  0  0  0  0  0  0  0  0
   13.0694   52.1482   88.6157 H   0  0  0  0  0  0  0  0  0  0  0  0
   11.4832   50.8684   87.9976 C   0  0  0  0  0  0  0  0  0  0  0  0
   11.6722   50.8650   86.5802 C   0  0  0  0  0  0  0  0  0  0  0  0
   11.7878   52.0220   85.7969 C   0  0  0  0  0  0  0  0  0  0  0  0
   11.9818   51.9406   84.4074 C   0  0  0  0  0  0  0  0  0  0  0  0
   11.7611   49.6353   85.9249 C   0  0  0  0  0  0  0  0  0  0  0  0
   11.9506   49.5548   84.5455 C   0  0  0  0  0  0  0  0  0  0  0  0
   12.0629   50.7101   83.7550 C   0  0  0  0  0  0  0  0  0  0  0  0
   12.2332   50.6388   82.4151 C   0  0  0  0  0  0  0  0  0  0  0  0
   13.6991   50.5559   81.5709 S   0  0  0  0  0  0  0  0  0  0  0  0
   13.0084   50.5011   80.0571 C   0  0  0  0  0  0  0  0  0  0  0  0
   11.6810   50.5520   80.2068 N   0  0  0  0  0  0  0  0  0  0  0  0
   11.2574   50.6291   81.4803 C   0  0  0  0  0  0  0  0  0  0  0  0
    9.7510   50.6791   81.7589 C   0  0  0  0  0  0  0  0  0  0  0  0
   12.1321   53.4418   93.5521 C   0  0  0  0  0  0  0  0  0  0  0  0
   10.0298   55.9434   95.5992 C   0  0  0  0  0  0  0  0  0  0  0  0
   11.2007   55.4250   94.7438 C   0  0  0  0  0  0  0  0  0  0  0  0
   12.1328   56.1761   94.4850 O   0  0  0  0  0  0  0  0  0  0  0  0
   11.1380   54.1227   94.4038 N   0  0  0  0  0  0  0  0  0  0  0  0
   10.3818   53.5925   94.7448 H   0  0  0  0  0  0  0  0  0  0  0  0
   12.2899   51.9467   93.9447 C   0  0  0  0  0  0  0  0  0  0  0  0
   13.1071   51.8411   95.2387 C   0  0  0  0  0  0  0  0  0  0  0  0
   13.0444   51.1937   92.8349 C   0  0  0  0  0  0  0  0  0  0  0  0
   10.9269   51.2548   94.2183 C   0  0  0  0  0  0  0  0  0  0  0  0
 24 23  2  0  0  0
 24 25  1  0  0  0
 23 22  1  0  0  0
 26 25  1  0  0  0
 25 21  2  0  0  0
 22 21  1  0  0  0
 21 20  1  0  0  0
 20 19  2  0  0  0
 20 17  1  0  0  0
 19 18  1  0  0  0
 17 16  2  0  0  0
 18 15  2  0  0  0
 16 15  1  0  0  0
 15 14  1  0  0  0
 14 12  1  0  0  0
 12 10  1  0  0  0
  7  8  1  0  0  0
  7  5  1  0  0  0
 10 11  2  0  0  0
 10  8  1  0  0  0
  8  3  1  0  0  0
  5  6  1  0  0  0
  5  4  1  0  0  0
  3  4  1  0  0  0
  3  1  1  0  0  0
  2  1  2  0  0  0
  1 27  1  0  0  0
 35 33  1  0  0  0
 27 33  1  0  0  0
 27 31  1  0  0  0
 36 33  1  0  0  0
 33 34  1  0  0  0
 31 29  1  0  0  0
 29 30  2  0  0  0
 29 28  1  0  0  0
 31 32  1  0  0  0
  6  9  1  0  0  0
 12 13  1  0  0  0
M  END
> <minimizedAffinity>
-6.95826

$$$$
4W9H_3JF_C_301


 36 38  0  0  0  0  0  0  0  0999 V2000
   10.4954   51.6971   85.7120 C   0  0  0  0  0  0  0  0  0  0  0  0
   10.8250   52.8710   85.8390 O   0  0  0  0  0  0  0  0  0  0  0  0
   10.0744   50.9720   86.7719 N   0  0  0  0  0  0  0  0  0  0  0  0
    9.5736   49.5681   86.9005 C   0  0  0  0  0  0  0  0  0  0  0  0
    8.6925   49.5880   88.1558 C   0  0  0  0  0  0  0  0  0  0  0  0
    7.3674   50.0674   87.8786 O   0  0  0  0  0  0  0  0  0  0  0  0
    9.3757   50.5673   89.0560 C   0  0  0  0  0  0  0  0  0  0  0  0
    9.9899   51.6380   88.1429 C   0  0  0  0  0  0  0  0  0  0  0  0
    7.4187   50.9596   87.5015 H   0  0  0  0  0  0  0  0  0  0  0  0
   11.2288   52.0333   88.6935 C   0  0  0  0  0  0  0  0  0  0  0  0
   12.0532   51.1834   89.0109 O   0  0  0  0  0  0  0  0  0  0  0  0
   11.4041   53.3527   88.9490 N   0  0  0  0  0  0  0  0  0  0  0  0
   10.6982   53.9925   88.7006 H   0  0  0  0  0  0  0  0  0  0  0  0
   12.6279   53.8416   89.5892 C   0  0  0  0  0  0  0  0  0  0  0  0
   12.4327   53.9523   91.0014 C   0  0  0  0  0  0  0  0  0  0  0  0
   13.4332   54.3270   91.9092 C   0  0  0  0  0  0  0  0  0  0  0  0
   13.1646   54.4234   93.2852 C   0  0  0  0  0  0  0  0  0  0  0  0
   11.1642   53.6840   91.5196 C   0  0  0  0  0  0  0  0  0  0  0  0
   10.8986   53.7769   92.8856 C   0  0  0  0  0  0  0  0  0  0  0  0
   11.8977   54.1476   93.8003 C   0  0  0  0  0  0  0  0  0  0  0  0
   11.6500   54.2263   95.1277 C   0  0  0  0  0  0  0  0  0  0  0  0
   11.7296   52.9708   96.2616 S   0  0  0  0  0  0  0  0  0  0  0  0
   11.2957   53.9077   97.5675 C   0  0  0  0  0  0  0  0  0  0  0  0
   11.0905   55.1545   97.1313 N   0  0  0  0  0  0  0  0  0  0  0  0
   11.2784   55.3308   95.8119 C   0  0  0  0  0  0  0  0  0  0  0  0
   11.0806   56.7286   95.2149 C   0  0  0  0  0  0  0  0  0  0  0  0
   10.5182   51.0480   84.2976 C   0  0  0  0  0  0  0  0  0  0  0  0
    8.0319   53.2126   82.2973 C   0  0  0  0  0  0  0  0  0  0  0  0
    8.5222   52.0698   83.2058 C   0  0  0  0  0  0  0  0  0  0  0  0
    7.7182   51.2402   83.6125 O   0  0  0  0  0  0  0  0  0  0  0  0
    9.8514   52.0317   83.4230 N   0  0  0  0  0  0  0  0  0  0  0  0
   10.4126   52.7018   82.9700 H   0  0  0  0  0  0  0  0  0  0  0  0
   11.9491   50.7141   83.7920 C   0  0  0  0  0  0  0  0  0  0  0  0
   11.9205   50.5133   82.2714 C   0  0  0  0  0  0  0  0  0  0  0  0
   12.4394   49.4082   84.4418 C   0  0  0  0  0  0  0  0  0  0  0  0
   12.9629   51.8560   84.0739 C   0  0  0  0  0  0  0  0  0  0  0  0
 24 23  2  0  0  0
 24 25  1  0  0  0
 23 22  1  0  0  0
 26 25  1  0  0  0
 25 21  2  0  0  0
 22 21  1  0  0  0
 21 20  1  0  0  0
 20 19  2  0  0  0
 20 17  1  0  0  0
 19 18  1  0  0  0
 17 16  2  0  0  0
 18 15  2  0  0  0
 16 15  1  0  0  0
 15 14  1  0  0  0
 14 12  1  0  0  0
 12 10  1  0  0  0
  7  8  1  0  0  0
  7  5  1  0  0  0
 10 11  2  0  0  0
 10  8  1  0  0  0
  8  3  1  0  0  0
  5  6  1  0  0  0
  5  4  1  0  0  0
  3  4  1  0  0  0
  3  1  1  0  0  0
  2  1  2  0  0  0
  1 27  1  0  0  0
 35 33  1  0  0  0
 27 33  1  0  0  0
 27 31  1  0  0  0
 36 33  1  0  0  0
 33 34  1  0  0  0
 31 29  1  0  0  0
 29 30  2  0  0  0
 29 28  1  0  0  0
 31 32  1  0  0  0
  6  9  1  0  0  0
 12 13  1  0  0  0
M  END
> <minimizedAffinity>
-6.70251

$$$$
4W9H_3JF_C_301


 36 38  0  0  0  0  0  0  0  0999 V2000
   11.3193   52.8853   92.1927 C   0  0  0  0  0  0  0  0  0  0  0  0
   10.1585   52.7700   91.8157 O   0  0  0  0  0  0  0  0  0  0  0  0
   12.2974   53.2560   91.3369 N   0  0  0  0  0  0  0  0  0  0  0  0
   13.7579   53.5196   91.5253 C   0  0  0  0  0  0  0  0  0  0  0  0
   14.1239   54.4835   90.3898 C   0  0  0  0  0  0  0  0  0  0  0  0
   13.8053   55.8459   90.7135 O   0  0  0  0  0  0  0  0  0  0  0  0
   13.2528   54.0462   89.2557 C   0  0  0  0  0  0  0  0  0  0  0  0
   11.9402   53.5554   89.8832 C   0  0  0  0  0  0  0  0  0  0  0  0
   12.8584   55.9184   90.9110 H   0  0  0  0  0  0  0  0  0  0  0  0
   11.4801   52.4467   89.1395 C   0  0  0  0  0  0  0  0  0  0  0  0
   11.9326   51.3305   89.3671 O   0  0  0  0  0  0  0  0  0  0  0  0
   10.6243   52.6941   88.1179 N   0  0  0  0  0  0  0  0  0  0  0  0
   10.3126   53.6143   87.9588 H   0  0  0  0  0  0  0  0  0  0  0  0
   10.1560   51.6131   87.2469 C   0  0  0  0  0  0  0  0  0  0  0  0
   11.0505   51.4494   86.1434 C   0  0  0  0  0  0  0  0  0  0  0  0
   11.5240   50.2107   85.6886 C   0  0  0  0  0  0  0  0  0  0  0  0
   12.3958   50.1268   84.5896 C   0  0  0  0  0  0  0  0  0  0  0  0
   11.4769   52.5895   85.4593 C   0  0  0  0  0  0  0  0  0  0  0  0
   12.3444   52.5062   84.3704 C   0  0  0  0  0  0  0  0  0  0  0  0
   12.8255   51.2686   83.9129 C   0  0  0  0  0  0  0  0  0  0  0  0
   13.6777   51.1821   82.8661 C   0  0  0  0  0  0  0  0  0  0  0  0
   15.2299   51.8496   82.7499 S   0  0  0  0  0  0  0  0  0  0  0  0
   15.5323   51.2835   81.2139 C   0  0  0  0  0  0  0  0  0  0  0  0
   14.4566   50.6031   80.8053 N   0  0  0  0  0  0  0  0  0  0  0  0
   13.4501   50.5479   81.6948 C   0  0  0  0  0  0  0  0  0  0  0  0
   12.1762   49.7792   81.3263 C   0  0  0  0  0  0  0  0  0  0  0  0
   11.6606   52.6459   93.6922 C   0  0  0  0  0  0  0  0  0  0  0  0
   14.5495   50.1145   94.0311 C   0  0  0  0  0  0  0  0  0  0  0  0
   13.1380   50.7040   94.2090 C   0  0  0  0  0  0  0  0  0  0  0  0
   12.3091   50.0873   94.8668 O   0  0  0  0  0  0  0  0  0  0  0  0
   12.9483   51.9256   93.6731 N   0  0  0  0  0  0  0  0  0  0  0  0
   13.7166   52.3649   93.2420 H   0  0  0  0  0  0  0  0  0  0  0  0
   11.7527   53.9554   94.5236 C   0  0  0  0  0  0  0  0  0  0  0  0
   11.8001   53.6106   96.0176 C   0  0  0  0  0  0  0  0  0  0  0  0
   10.5079   54.8231   94.2680 C   0  0  0  0  0  0  0  0  0  0  0  0
   13.0368   54.7710   94.2114 C   0  0  0  0  0  0  0  0  0  0  0  0
 24 23  2  0  0  0
 24 25  1  0  0  0
 23 22  1  0  0  0
 26 25  1  0  0  0
 25 21  2  0  0  0
 22 21  1  0  0  0
 21 20  1  0  0  0
 20 19  2  0  0  0
 20 17  1  0  0  0
 19 18  1  0  0  0
 17 16  2  0  0  0
 18 15  2  0  0  0
 16 15  1  0  0  0
 15 14  1  0  0  0
 14 12  1  0  0  0
 12 10  1  0  0  0
  7  8  1  0  0  0
  7  5  1  0  0  0
 10 11  2  0  0  0
 10  8  1  0  0  0
  8  3  1  0  0  0
  5  6  1  0  0  0
  5  4  1  0  0  0
  3  4  1  0  0  0
  3  1  1  0  0  0
  2  1  2  0  0  0
  1 27  1  0  0  0
 35 33  1  0  0  0
 27 33  1  0  0  0
 27 31  1  0  0  0
 36 33  1  0  0  0
 33 34  1  0  0  0
 31 29  1  0  0  0
 29 30  2  0  0  0
 29 28  1  0  0  0
 31 32  1  0  0  0
  6  9  1  0  0  0
 12 13  1  0  0  0
M  END
> <minimizedAffinity>
-6.58808

$$$$
4W9H_3JF_C_301


 36 38  0  0  0  0  0  0  0  0999 V2000
   12.1254   51.5115   92.5389 C   0  0  0  0  0  0  0  0  0  0  0  0
   12.8667   52.0975   91.7579 O   0  0  0  0  0  0  0  0  0  0  0  0
   11.3285   50.5031   92.1211 N   0  0  0  0  0  0  0  0  0  0  0  0
   10.3827   49.5972   92.8442 C   0  0  0  0  0  0  0  0  0  0  0  0
   10.3180   48.3357   91.9742 C   0  0  0  0  0  0  0  0  0  0  0  0
   11.4151   47.4452   92.2310 O   0  0  0  0  0  0  0  0  0  0  0  0
   10.4438   48.8579   90.5786 C   0  0  0  0  0  0  0  0  0  0  0  0
   11.3729   50.0778   90.6556 C   0  0  0  0  0  0  0  0  0  0  0  0
   12.2521   47.9090   92.0720 H   0  0  0  0  0  0  0  0  0  0  0  0
   10.9110   51.0461   89.7372 C   0  0  0  0  0  0  0  0  0  0  0  0
    9.7227   51.3458   89.7143 O   0  0  0  0  0  0  0  0  0  0  0  0
   11.8031   51.5254   88.8365 N   0  0  0  0  0  0  0  0  0  0  0  0
   12.7415   51.2306   88.8796 H   0  0  0  0  0  0  0  0  0  0  0  0
   11.3925   52.4755   87.7995 C   0  0  0  0  0  0  0  0  0  0  0  0
   11.7955   52.0015   86.5121 C   0  0  0  0  0  0  0  0  0  0  0  0
   11.5598   50.7026   86.0402 C   0  0  0  0  0  0  0  0  0  0  0  0
   11.9780   50.3100   84.7572 C   0  0  0  0  0  0  0  0  0  0  0  0
   12.4568   52.8846   85.6562 C   0  0  0  0  0  0  0  0  0  0  0  0
   12.8744   52.4939   84.3841 C   0  0  0  0  0  0  0  0  0  0  0  0
   12.6449   51.1930   83.9075 C   0  0  0  0  0  0  0  0  0  0  0  0
   13.0594   50.8040   82.6802 C   0  0  0  0  0  0  0  0  0  0  0  0
   12.1759   49.9312   81.5287 S   0  0  0  0  0  0  0  0  0  0  0  0
   13.3884   49.8988   80.3885 C   0  0  0  0  0  0  0  0  0  0  0  0
   14.4466   50.5414   80.8926 N   0  0  0  0  0  0  0  0  0  0  0  0
   14.2740   51.0304   82.1328 C   0  0  0  0  0  0  0  0  0  0  0  0
   15.4251   51.7959   82.7950 C   0  0  0  0  0  0  0  0  0  0  0  0
   12.1395   51.9061   94.0444 C   0  0  0  0  0  0  0  0  0  0  0  0
   15.2472   50.5250   95.8618 C   0  0  0  0  0  0  0  0  0  0  0  0
   13.7569   50.7984   95.5862 C   0  0  0  0  0  0  0  0  0  0  0  0
   12.9154   50.3812   96.3723 O   0  0  0  0  0  0  0  0  0  0  0  0
   13.4978   51.5646   94.5087 N   0  0  0  0  0  0  0  0  0  0  0  0
   14.2623   51.9187   93.9994 H   0  0  0  0  0  0  0  0  0  0  0  0
   11.8114   53.4040   94.2955 C   0  0  0  0  0  0  0  0  0  0  0  0
   11.3866   53.5966   95.7569 C   0  0  0  0  0  0  0  0  0  0  0  0
   10.6443   53.8400   93.3924 C   0  0  0  0  0  0  0  0  0  0  0  0
   13.0351   54.3304   94.0592 C   0  0  0  0  0  0  0  0  0  0  0  0
 24 23  2  0  0  0
 24 25  1  0  0  0
 23 22  1  0  0  0
 26 25  1  0  0  0
 25 21  2  0  0  0
 22 21  1  0  0  0
 21 20  1  0  0  0
 20 19  2  0  0  0
 20 17  1  0  0  0
 19 18  1  0  0  0
 17 16  2  0  0  0
 18 15  2  0  0  0
 16 15  1  0  0  0
 15 14  1  0  0  0
 14 12  1  0  0  0
 12 10  1  0  0  0
  7  8  1  0  0  0
  7  5  1  0  0  0
 10 11  2  0  0  0
 10  8  1  0  0  0
  8  3  1  0  0  0
  5  6  1  0  0  0
  5  4  1  0  0  0
  3  4  1  0  0  0
  3  1  1  0  0  0
  2  1  2  0  0  0
  1 27  1  0  0  0
 35 33  1  0  0  0
 27 33  1  0  0  0
 27 31  1  0  0  0
 36 33  1  0  0  0
 33 34  1  0  0  0
 31 29  1  0  0  0
 29 30  2  0  0  0
 29 28  1  0  0  0
 31 32  1  0  0  0
  6  9  1  0  0  0
 12 13  1  0  0  0
M  END
> <minimizedAffinity>
-6.30890

$$$$
4W9H_3JF_C_301


 36 38  0  0  0  0  0  0  0  0999 V2000
   10.3040   51.1204   83.3346 C   0  0  0  0  0  0  0  0  0  0  0  0
   10.6191   51.8454   84.2715 O   0  0  0  0  0  0  0  0  0  0  0  0
    9.1142   51.2648   82.7101 N   0  0  0  0  0  0  0  0  0  0  0  0
    8.4998   50.5727   81.5347 C   0  0  0  0  0  0  0  0  0  0  0  0
    7.5036   51.5912   80.9666 C   0  0  0  0  0  0  0  0  0  0  0  0
    8.1411   52.5495   80.1075 O   0  0  0  0  0  0  0  0  0  0  0  0
    6.9910   52.3028   82.1777 C   0  0  0  0  0  0  0  0  0  0  0  0
    8.1609   52.3648   83.1702 C   0  0  0  0  0  0  0  0  0  0  0  0
    8.8368   53.0127   80.5999 H   0  0  0  0  0  0  0  0  0  0  0  0
    7.6452   52.2027   84.4748 C   0  0  0  0  0  0  0  0  0  0  0  0
    6.6085   51.5714   84.6459 O   0  0  0  0  0  0  0  0  0  0  0  0
    8.2761   52.8580   85.4796 N   0  0  0  0  0  0  0  0  0  0  0  0
    9.0903   53.3758   85.2844 H   0  0  0  0  0  0  0  0  0  0  0  0
    7.7650   52.8074   86.8517 C   0  0  0  0  0  0  0  0  0  0  0  0
    8.8499   52.8558   87.7818 C   0  0  0  0  0  0  0  0  0  0  0  0
   10.0022   52.0623   87.6919 C   0  0  0  0  0  0  0  0  0  0  0  0
   11.0337   52.1715   88.6401 C   0  0  0  0  0  0  0  0  0  0  0  0
    8.7731   53.7567   88.8458 C   0  0  0  0  0  0  0  0  0  0  0  0
    9.7956   53.8629   89.7883 C   0  0  0  0  0  0  0  0  0  0  0  0
   10.9503   53.0679   89.7059 C   0  0  0  0  0  0  0  0  0  0  0  0
   11.9393   53.1564   90.6244 C   0  0  0  0  0  0  0  0  0  0  0  0
   12.0486   52.3261   92.0965 S   0  0  0  0  0  0  0  0  0  0  0  0
   13.4993   53.0027   92.5537 C   0  0  0  0  0  0  0  0  0  0  0  0
   13.8803   53.8508   91.5933 N   0  0  0  0  0  0  0  0  0  0  0  0
   13.0383   53.9390   90.5491 C   0  0  0  0  0  0  0  0  0  0  0  0
   13.3921   54.8754   89.3883 C   0  0  0  0  0  0  0  0  0  0  0  0
   11.3122   50.0484   82.8281 C   0  0  0  0  0  0  0  0  0  0  0  0
   14.8801   51.4292   82.3464 C   0  0  0  0  0  0  0  0  0  0  0  0
   13.5905   50.6556   82.0148 C   0  0  0  0  0  0  0  0  0  0  0  0
   13.5261   50.0161   80.9722 O   0  0  0  0  0  0  0  0  0  0  0  0
   12.6364   50.6846   82.9657 N   0  0  0  0  0  0  0  0  0  0  0  0
   12.8352   51.1599   83.8047 H   0  0  0  0  0  0  0  0  0  0  0  0
   11.2393   48.7093   83.6128 C   0  0  0  0  0  0  0  0  0  0  0  0
    9.8741   48.5945   84.3030 C   0  0  0  0  0  0  0  0  0  0  0  0
   12.3316   48.6804   84.6963 C   0  0  0  0  0  0  0  0  0  0  0  0
   11.3798   47.4686   82.6896 C   0  0  0  0  0  0  0  0  0  0  0  0
 24 23  2  0  0  0
 24 25  1  0  0  0
 23 22  1  0  0  0
 26 25  1  0  0  0
 25 21  2  0  0  0
 22 21  1  0  0  0
 21 20  1  0  0  0
 20 19  2  0  0  0
 20 17  1  0  0  0
 19 18  1  0  0  0
 17 16  2  0  0  0
 18 15  2  0  0  0
 16 15  1  0  0  0
 15 14  1  0  0  0
 14 12  1  0  0  0
 12 10  1  0  0  0
  7  8  1  0  0  0
  7  5  1  0  0  0
 10 11  2  0  0  0
 10  8  1  0  0  0
  8  3  1  0  0  0
  5  6  1  0  0  0
  5  4  1  0  0  0
  3  4  1  0  0  0
  3  1  1  0  0  0
  2  1  2  0  0  0
  1 27  1  0  0  0
 35 33  1  0  0  0
 27 33  1  0  0  0
 27 31  1  0  0  0
 36 33  1  0  0  0
 33 34  1  0  0  0
 31 29  1  0  0  0
 29 30  2  0  0  0
 29 28  1  0  0  0
 31 32  1  0  0  0
  6  9  1  0  0  0
 12 13  1  0  0  0
M  END
> <minimizedAffinity>
-6.25734

$$$$
4W9H_3JF_C_301


 36 38  0  0  0  0  0  0  0  0999 V2000
   11.0926   50.4063   88.6375 C   0  0  0  0  0  0  0  0  0  0  0  0
   11.1215   50.5548   87.4210 O   0  0  0  0  0  0  0  0  0  0  0  0
   11.1075   51.4701   89.4708 N   0  0  0  0  0  0  0  0  0  0  0  0
   11.0312   51.5877   90.9603 C   0  0  0  0  0  0  0  0  0  0  0  0
   10.4578   52.9888   91.2063 C   0  0  0  0  0  0  0  0  0  0  0  0
    9.0257   53.0129   91.1006 O   0  0  0  0  0  0  0  0  0  0  0  0
   11.0321   53.8094   90.0959 C   0  0  0  0  0  0  0  0  0  0  0  0
   11.1391   52.8776   88.8804 C   0  0  0  0  0  0  0  0  0  0  0  0
    8.7611   52.7016   90.2209 H   0  0  0  0  0  0  0  0  0  0  0  0
   12.3173   53.2037   88.1735 C   0  0  0  0  0  0  0  0  0  0  0  0
   13.3266   53.5282   88.7887 O   0  0  0  0  0  0  0  0  0  0  0  0
   12.2401   53.2474   86.8210 N   0  0  0  0  0  0  0  0  0  0  0  0
   11.3964   53.0047   86.3756 H   0  0  0  0  0  0  0  0  0  0  0  0
   13.3931   53.6503   86.0117 C   0  0  0  0  0  0  0  0  0  0  0  0
   13.4568   52.8612   84.8210 C   0  0  0  0  0  0  0  0  0  0  0  0
   14.5784   52.7863   83.9833 C   0  0  0  0  0  0  0  0  0  0  0  0
   14.5711   51.9805   82.8319 C   0  0  0  0  0  0  0  0  0  0  0  0
   12.3396   52.1025   84.4664 C   0  0  0  0  0  0  0  0  0  0  0  0
   12.3315   51.3051   83.3221 C   0  0  0  0  0  0  0  0  0  0  0  0
   13.4504   51.2293   82.4768 C   0  0  0  0  0  0  0  0  0  0  0  0
   13.4440   50.4686   81.3584 C   0  0  0  0  0  0  0  0  0  0  0  0
   12.3728   49.2130   80.9786 S   0  0  0  0  0  0  0  0  0  0  0  0
   13.0599   48.8576   79.5045 C   0  0  0  0  0  0  0  0  0  0  0  0
   14.0923   49.6863   79.3196 N   0  0  0  0  0  0  0  0  0  0  0  0
   14.3053   50.5576   80.3209 C   0  0  0  0  0  0  0  0  0  0  0  0
   15.4585   51.5600   80.1989 C   0  0  0  0  0  0  0  0  0  0  0  0
   10.9896   48.9697   89.2275 C   0  0  0  0  0  0  0  0  0  0  0  0
    7.4204   48.3127   90.5304 C   0  0  0  0  0  0  0  0  0  0  0  0
    8.9514   48.4727   90.5762 C   0  0  0  0  0  0  0  0  0  0  0  0
    9.5421   48.2882   91.6331 O   0  0  0  0  0  0  0  0  0  0  0  0
    9.5423   48.7360   89.3943 N   0  0  0  0  0  0  0  0  0  0  0  0
    8.9729   48.7749   88.5921 H   0  0  0  0  0  0  0  0  0  0  0  0
   11.6424   47.8826   88.3295 C   0  0  0  0  0  0  0  0  0  0  0  0
   11.5152   46.5134   89.0095 C   0  0  0  0  0  0  0  0  0  0  0  0
   13.1383   48.1911   88.1424 C   0  0  0  0  0  0  0  0  0  0  0  0
   10.9522   47.7602   86.9439 C   0  0  0  0  0  0  0  0  0  0  0  0
 24 23  2  0  0  0
 24 25  1  0  0  0
 23 22  1  0  0  0
 26 25  1  0  0  0
 25 21  2  0  0  0
 22 21  1  0  0  0
 21 20  1  0  0  0
 20 19  2  0  0  0
 20 17  1  0  0  0
 19 18  1  0  0  0
 17 16  2  0  0  0
 18 15  2  0  0  0
 16 15  1  0  0  0
 15 14  1  0  0  0
 14 12  1  0  0  0
 12 10  1  0  0  0
  7  8  1  0  0  0
  7  5  1  0  0  0
 10 11  2  0  0  0
 10  8  1  0  0  0
  8  3  1  0  0  0
  5  6  1  0  0  0
  5  4  1  0  0  0
  3  4  1  0  0  0
  3  1  1  0  0  0
  2  1  2  0  0  0
  1 27  1  0  0  0
 35 33  1  0  0  0
 27 33  1  0  0  0
 27 31  1  0  0  0
 36 33  1  0  0  0
 33 34  1  0  0  0
 31 29  1  0  0  0
 29 30  2  0  0  0
 29 28  1  0  0  0
 31 32  1  0  0  0
  6  9  1  0  0  0
 12 13  1  0  0  0
M  END
> <minimizedAffinity>
-6.24422

$$$$
4W9H_3JF_C_301


 36 38  0  0  0  0  0  0  0  0999 V2000
   11.2305   51.6583   90.0567 C   0  0  0  0  0  0  0  0  0  0  0  0
   12.1198   51.3780   89.2609 O   0  0  0  0  0  0  0  0  0  0  0  0
    9.9363   51.7020   89.6698 N   0  0  0  0  0  0  0  0  0  0  0  0
    8.6665   51.9592   90.4180 C   0  0  0  0  0  0  0  0  0  0  0  0
    7.5850   51.2485   89.5949 C   0  0  0  0  0  0  0  0  0  0  0  0
    7.5127   49.8456   89.8941 O   0  0  0  0  0  0  0  0  0  0  0  0
    8.0466   51.4119   88.1820 C   0  0  0  0  0  0  0  0  0  0  0  0
    9.5811   51.3750   88.2216 C   0  0  0  0  0  0  0  0  0  0  0  0
    8.3747   49.4342   89.7252 H   0  0  0  0  0  0  0  0  0  0  0  0
   10.0718   52.2895   87.2640 C   0  0  0  0  0  0  0  0  0  0  0  0
    9.3998   53.2669   86.9548 O   0  0  0  0  0  0  0  0  0  0  0  0
   11.2353   51.9765   86.6432 N   0  0  0  0  0  0  0  0  0  0  0  0
   11.7229   51.1635   86.9087 H   0  0  0  0  0  0  0  0  0  0  0  0
   11.7784   52.8295   85.5830 C   0  0  0  0  0  0  0  0  0  0  0  0
   11.9883   52.0623   84.3948 C   0  0  0  0  0  0  0  0  0  0  0  0
   10.9605   51.6129   83.5539 C   0  0  0  0  0  0  0  0  0  0  0  0
   11.2440   50.8696   82.3955 C   0  0  0  0  0  0  0  0  0  0  0  0
   13.2987   51.7445   84.0321 C   0  0  0  0  0  0  0  0  0  0  0  0
   13.5797   51.0043   82.8839 C   0  0  0  0  0  0  0  0  0  0  0  0
   12.5542   50.5478   82.0401 C   0  0  0  0  0  0  0  0  0  0  0  0
   12.8192   49.8180   80.9325 C   0  0  0  0  0  0  0  0  0  0  0  0
   11.9545   48.4815   80.3543 S   0  0  0  0  0  0  0  0  0  0  0  0
   12.9251   48.2262   79.0260 C   0  0  0  0  0  0  0  0  0  0  0  0
   13.8927   49.1483   79.0383 N   0  0  0  0  0  0  0  0  0  0  0  0
   13.8408   50.0098   80.0690 C   0  0  0  0  0  0  0  0  0  0  0  0
   14.8992   51.1142   80.1664 C   0  0  0  0  0  0  0  0  0  0  0  0
   11.5961   51.9211   91.5466 C   0  0  0  0  0  0  0  0  0  0  0  0
   13.6231   48.9784   92.9957 C   0  0  0  0  0  0  0  0  0  0  0  0
   12.4721   49.9930   92.8639 C   0  0  0  0  0  0  0  0  0  0  0  0
   11.5612   49.9760   93.6824 O   0  0  0  0  0  0  0  0  0  0  0  0
   12.6050   50.8947   91.8716 N   0  0  0  0  0  0  0  0  0  0  0  0
   13.4265   50.8669   91.3296 H   0  0  0  0  0  0  0  0  0  0  0  0
   12.1366   53.3542   91.8085 C   0  0  0  0  0  0  0  0  0  0  0  0
   13.6199   53.2792   92.1926 C   0  0  0  0  0  0  0  0  0  0  0  0
   11.3675   53.9953   92.9770 C   0  0  0  0  0  0  0  0  0  0  0  0
   12.0444   54.2649   90.5541 C   0  0  0  0  0  0  0  0  0  0  0  0
 24 23  2  0  0  0
 24 25  1  0  0  0
 23 22  1  0  0  0
 26 25  1  0  0  0
 25 21  2  0  0  0
 22 21  1  0  0  0
 21 20  1  0  0  0
 20 19  2  0  0  0
 20 17  1  0  0  0
 19 18  1  0  0  0
 17 16  2  0  0  0
 18 15  2  0  0  0
 16 15  1  0  0  0
 15 14  1  0  0  0
 14 12  1  0  0  0
 12 10  1  0  0  0
  7  8  1  0  0  0
  7  5  1  0  0  0
 10 11  2  0  0  0
 10  8  1  0  0  0
  8  3  1  0  0  0
  5  6  1  0  0  0
  5  4  1  0  0  0
  3  4  1  0  0  0
  3  1  1  0  0  0
  2  1  2  0  0  0
  1 27  1  0  0  0
 35 33  1  0  0  0
 27 33  1  0  0  0
 27 31  1  0  0  0
 36 33  1  0  0  0
 33 34  1  0  0  0
 31 29  1  0  0  0
 29 30  2  0  0  0
 29 28  1  0  0  0
 31 32  1  0  0  0
  6  9  1  0  0  0
 12 13  1  0  0  0
M  END
> <minimizedAffinity>
-6.22486

$$$$
4W9H_3JF_C_301


 36 38  0  0  0  0  0  0  0  0999 V2000
   11.1102   52.4976   90.4846 C   0  0  0  0  0  0  0  0  0  0  0  0
   11.7845   51.4856   90.3302 O   0  0  0  0  0  0  0  0  0  0  0  0
   10.1627   52.8484   89.5870 N   0  0  0  0  0  0  0  0  0  0  0  0
    9.1785   53.9744   89.5451 C   0  0  0  0  0  0  0  0  0  0  0  0
    8.0325   53.4506   88.6706 C   0  0  0  0  0  0  0  0  0  0  0  0
    7.1138   52.6352   89.4148 O   0  0  0  0  0  0  0  0  0  0  0  0
    8.7201   52.5919   87.6577 C   0  0  0  0  0  0  0  0  0  0  0  0
    9.9187   51.9537   88.3744 C   0  0  0  0  0  0  0  0  0  0  0  0
    7.5909   51.8886   89.8096 H   0  0  0  0  0  0  0  0  0  0  0  0
   10.9930   51.8778   87.4609 C   0  0  0  0  0  0  0  0  0  0  0  0
   11.7930   50.9522   87.5371 O   0  0  0  0  0  0  0  0  0  0  0  0
   11.1507   52.9109   86.5979 N   0  0  0  0  0  0  0  0  0  0  0  0
   10.4952   53.6455   86.5963 H   0  0  0  0  0  0  0  0  0  0  0  0
   12.2816   52.9513   85.6673 C   0  0  0  0  0  0  0  0  0  0  0  0
   11.9944   52.1606   84.5111 C   0  0  0  0  0  0  0  0  0  0  0  0
   10.7087   51.9692   83.9857 C   0  0  0  0  0  0  0  0  0  0  0  0
   10.5038   51.1843   82.8381 C   0  0  0  0  0  0  0  0  0  0  0  0
   13.0569   51.5445   83.8470 C   0  0  0  0  0  0  0  0  0  0  0  0
   12.8529   50.7633   82.7098 C   0  0  0  0  0  0  0  0  0  0  0  0
   11.5671   50.5644   82.1813 C   0  0  0  0  0  0  0  0  0  0  0  0
   11.3611   49.7968   81.0868 C   0  0  0  0  0  0  0  0  0  0  0  0
   11.5692   48.1211   80.9558 S   0  0  0  0  0  0  0  0  0  0  0  0
   11.1179   48.0289   79.3561 C   0  0  0  0  0  0  0  0  0  0  0  0
   10.8216   49.2638   78.9388 N   0  0  0  0  0  0  0  0  0  0  0  0
   10.9542   50.2234   79.8709 C   0  0  0  0  0  0  0  0  0  0  0  0
   10.6255   51.6727   79.4951 C   0  0  0  0  0  0  0  0  0  0  0  0
   11.3186   53.3649   91.7600 C   0  0  0  0  0  0  0  0  0  0  0  0
    9.0498   51.9630   94.5448 C   0  0  0  0  0  0  0  0  0  0  0  0
    9.5544   52.9464   93.4726 C   0  0  0  0  0  0  0  0  0  0  0  0
    8.9571   54.0012   93.2978 O   0  0  0  0  0  0  0  0  0  0  0  0
   10.6931   52.5883   92.8476 N   0  0  0  0  0  0  0  0  0  0  0  0
   11.1353   51.7568   93.1345 H   0  0  0  0  0  0  0  0  0  0  0  0
   12.8114   53.6709   92.0642 C   0  0  0  0  0  0  0  0  0  0  0  0
   13.5180   52.3828   92.5058 C   0  0  0  0  0  0  0  0  0  0  0  0
   12.9104   54.6927   93.2105 C   0  0  0  0  0  0  0  0  0  0  0  0
   13.5775   54.1980   90.8206 C   0  0  0  0  0  0  0  0  0  0  0  0
 24 23  2  0  0  0
 24 25  1  0  0  0
 23 22  1  0  0  0
 26 25  1  0  0  0
 25 21  2  0  0  0
 22 21  1  0  0  0
 21 20  1  0  0  0
 20 19  2  0  0  0
 20 17  1  0  0  0
 19 18  1  0  0  0
 17 16  2  0  0  0
 18 15  2  0  0  0
 16 15  1  0  0  0
 15 14  1  0  0  0
 14 12  1  0  0  0
 12 10  1  0  0  0
  7  8  1  0  0  0
  7  5  1  0  0  0
 10 11  2  0  0  0
 10  8  1  0  0  0
  8  3  1  0  0  0
  5  6  1  0  0  0
  5  4  1  0  0  0
  3  4  1  0  0  0
  3  1  1  0  0  0
  2  1  2  0  0  0
  1 27  1  0  0  0
 35 33  1  0  0  0
 27 33  1  0  0  0
 27 31  1  0  0  0
 36 33  1  0  0  0
 33 34  1  0  0  0
 31 29  1  0  0  0
 29 30  2  0  0  0
 29 28  1  0  0  0
 31 32  1  0  0  0
  6  9  1  0  0  0
 12 13  1  0  0  0
M  END
> <minimizedAffinity>
-6.05686

$$$$
4W9H_3JF_C_301


 36 38  0  0  0  0  0  0  0  0999 V2000
   10.5513   52.1734   85.3548 C   0  0  0  0  0  0  0  0  0  0  0  0
   11.1090   53.2579   85.4796 O   0  0  0  0  0  0  0  0  0  0  0  0
    9.9448   51.5758   86.4043 N   0  0  0  0  0  0  0  0  0  0  0  0
    9.1615   50.3074   86.5302 C   0  0  0  0  0  0  0  0  0  0  0  0
    8.2495   50.5377   87.7416 C   0  0  0  0  0  0  0  0  0  0  0  0
    7.0643   51.2708   87.3944 O   0  0  0  0  0  0  0  0  0  0  0  0
    9.0793   51.3786   88.6584 C   0  0  0  0  0  0  0  0  0  0  0  0
    9.9393   52.2785   87.7595 C   0  0  0  0  0  0  0  0  0  0  0  0
    7.3139   52.1242   87.0067 H   0  0  0  0  0  0  0  0  0  0  0  0
   11.2077   52.4258   88.3625 C   0  0  0  0  0  0  0  0  0  0  0  0
   11.9108   51.4395   88.5505 O   0  0  0  0  0  0  0  0  0  0  0  0
   11.5448   53.6598   88.8103 N   0  0  0  0  0  0  0  0  0  0  0  0
   10.9311   54.4146   88.6593 H   0  0  0  0  0  0  0  0  0  0  0  0
   12.8086   53.8876   89.5157 C   0  0  0  0  0  0  0  0  0  0  0  0
   12.5739   53.9910   90.9224 C   0  0  0  0  0  0  0  0  0  0  0  0
   13.5114   54.4757   91.8452 C   0  0  0  0  0  0  0  0  0  0  0  0
   13.2060   54.5569   93.2146 C   0  0  0  0  0  0  0  0  0  0  0  0
   11.3294   53.5979   91.4188 C   0  0  0  0  0  0  0  0  0  0  0  0
   11.0275   53.6759   92.7782 C   0  0  0  0  0  0  0  0  0  0  0  0
   11.9639   54.1565   93.7079 C   0  0  0  0  0  0  0  0  0  0  0  0
   11.6822   54.2218   95.0293 C   0  0  0  0  0  0  0  0  0  0  0  0
   11.7104   52.9503   96.1476 S   0  0  0  0  0  0  0  0  0  0  0  0
   11.2574   53.8771   97.4542 C   0  0  0  0  0  0  0  0  0  0  0  0
   11.0847   55.1328   97.0298 N   0  0  0  0  0  0  0  0  0  0  0  0
   11.3109   55.3233   95.7184 C   0  0  0  0  0  0  0  0  0  0  0  0
   11.1524   56.7321   95.1356 C   0  0  0  0  0  0  0  0  0  0  0  0
   10.5020   51.4987   83.9531 C   0  0  0  0  0  0  0  0  0  0  0  0
   11.9704   47.9788   84.5209 C   0  0  0  0  0  0  0  0  0  0  0  0
   11.9452   49.4747   84.1559 C   0  0  0  0  0  0  0  0  0  0  0  0
   12.9747   50.0156   83.7717 O   0  0  0  0  0  0  0  0  0  0  0  0
   10.7362   50.0662   84.2181 N   0  0  0  0  0  0  0  0  0  0  0  0
    9.9608   49.5079   84.4552 H   0  0  0  0  0  0  0  0  0  0  0  0
    9.1611   51.7273   83.2021 C   0  0  0  0  0  0  0  0  0  0  0  0
    8.3449   50.4284   83.2055 C   0  0  0  0  0  0  0  0  0  0  0  0
    9.4427   52.1162   81.7401 C   0  0  0  0  0  0  0  0  0  0  0  0
    8.2779   52.8127   83.8754 C   0  0  0  0  0  0  0  0  0  0  0  0
 24 23  2  0  0  0
 24 25  1  0  0  0
 23 22  1  0  0  0
 26 25  1  0  0  0
 25 21  2  0  0  0
 22 21  1  0  0  0
 21 20  1  0  0  0
 20 19  2  0  0  0
 20 17  1  0  0  0
 19 18  1  0  0  0
 17 16  2  0  0  0
 18 15  2  0  0  0
 16 15  1  0  0  0
 15 14  1  0  0  0
 14 12  1  0  0  0
 12 10  1  0  0  0
  7  8  1  0  0  0
  7  5  1  0  0  0
 10 11  2  0  0  0
 10  8  1  0  0  0
  8  3  1  0  0  0
  5  6  1  0  0  0
  5  4  1  0  0  0
  3  4  1  0  0  0
  3  1  1  0  0  0
  2  1  2  0  0  0
  1 27  1  0  0  0
 35 33  1  0  0  0
 27 33  1  0  0  0
 27 31  1  0  0  0
 36 33  1  0  0  0
 33 34  1  0  0  0
 31 29  1  0  0  0
 29 30  2  0  0  0
 29 28  1  0  0  0
 31 32  1  0  0  0
  6  9  1  0  0  0
 12 13  1  0  0  0
M  END
> <minimizedAffinity>
-6.00416

$$$$
