5H8G_5Y4_A_421


 36 39  0  0  0  0  0  0  0  0999 V2000
    9.8567   -5.2410   32.2074 N   0  0  0  0  0  0  0  0  0  0  0  0
    9.4020   -5.6186   32.9948 H   0  0  0  0  0  0  0  0  0  0  0  0
   12.0402   -8.9032   28.8483 N   0  0  0  0  0  0  0  0  0  0  0  0
   10.3386   -6.1941   31.3269 C   0  0  0  0  0  0  0  0  0  0  0  0
   10.3838   -7.5023   31.8054 C   0  0  0  0  0  0  0  0  0  0  0  0
   10.8521   -8.5407   30.9999 C   0  0  0  0  0  0  0  0  0  0  0  0
   11.3952   -6.7936   29.3832 C   0  0  0  0  0  0  0  0  0  0  0  0
   12.0039   -6.7340   28.1201 C   0  0  0  0  0  0  0  0  0  0  0  0
   12.3798   -8.0583   27.8576 C   0  0  0  0  0  0  0  0  0  0  0  0
   11.4273   -8.1274   29.7784 N   0  0  0  0  0  0  0  0  0  0  0  0
   10.8440   -5.8295   30.1362 N   0  0  0  0  0  0  0  0  0  0  0  0
   12.2064   -5.5879   27.2810 C   0  0  0  0  0  0  0  0  0  0  0  0
   12.3864   -4.6234   26.6889 N   0  0  0  0  0  0  0  0  0  0  0  0
   10.9382   -9.8823   31.3704 N   0  0  0  0  0  0  0  0  0  0  0  0
   11.3981  -10.5021   30.7591 H   0  0  0  0  0  0  0  0  0  0  0  0
   10.3877  -10.4239   32.6098 C   0  0  0  0  0  0  0  0  0  0  0  0
    9.0482  -11.0360   32.5851 C   0  0  0  0  0  0  0  0  0  0  0  0
   10.2481  -11.8860   32.7272 C   0  0  0  0  0  0  0  0  0  0  0  0
   10.3706   -1.7400   31.0812 C   0  0  0  0  0  0  0  0  0  0  0  0
   10.3098   -3.1316   31.0661 C   0  0  0  0  0  0  0  0  0  0  0  0
    9.9862   -1.0446   32.2376 C   0  0  0  0  0  0  0  0  0  0  0  0
    9.8937   -3.8320   32.1900 C   0  0  0  0  0  0  0  0  0  0  0  0
    9.5177   -3.1380   33.3340 C   0  0  0  0  0  0  0  0  0  0  0  0
    9.5943   -1.7586   33.3701 C   0  0  0  0  0  0  0  0  0  0  0  0
   10.7872   -1.1919   28.6271 C   0  0  0  0  0  0  0  0  0  0  0  0
   10.8587   -0.9945   29.9714 N   0  0  0  0  0  0  0  0  0  0  0  0
   11.3921   -0.4955   27.8249 O   0  0  0  0  0  0  0  0  0  0  0  0
    9.7722   -2.2069   28.1782 C   0  0  0  0  0  0  0  0  0  0  0  0
   11.3427   -0.1760   30.2262 H   0  0  0  0  0  0  0  0  0  0  0  0
    8.8722    1.2037   32.1689 C   0  0  0  0  0  0  0  0  0  0  0  0
   10.0978    0.4190   32.3006 N   0  0  0  0  0  0  0  0  0  0  0  0
   11.0828    0.9216   33.3279 C   0  0  0  0  0  0  0  0  0  0  0  0
   11.1795    2.4821   33.3725 C   0  0  0  0  0  0  0  0  0  0  0  0
   12.1643    4.5279   32.5609 C   0  0  0  0  0  0  0  0  0  0  0  0
   13.5582    2.8673   33.5645 C   0  0  0  0  0  0  0  0  0  0  0  0
   12.3658    3.0931   32.7537 N   0  0  0  0  0  0  0  0  0  0  0  0
 13 12  3  0  0  0
 12  8  1  0  0  0
  9  8  1  0  0  0
  9  3  2  0  0  0
 27 25  2  0  0  0
  8  7  2  0  0  0
 28 25  1  0  0  0
 25 26  1  0  0  0
  3 10  1  0  0  0
  7 10  1  0  0  0
  7 11  1  0  0  0
 10  6  1  0  0  0
 26 19  1  0  0  0
 11  4  2  0  0  0
  6 14  1  0  0  0
  6  5  2  0  0  0
 19 20  2  0  0  0
 19 21  1  0  0  0
 20 22  1  0  0  0
 14 16  1  0  0  0
 30 31  1  0  0  0
  4  5  1  0  0  0
  4  1  1  0  0  0
 21 31  1  0  0  0
 21 24  2  0  0  0
 31 32  1  0  0  0
 22  1  1  0  0  0
 22 23  2  0  0  0
 34 36  1  0  0  0
 16 18  1  0  0  0
 16 17  1  0  0  0
 36 35  1  0  0  0
 36 33  1  0  0  0
 18 17  1  0  0  0
 24 23  1  0  0  0
 33 32  1  0  0  0
 14 15  1  0  0  0
  1  2  1  0  0  0
 26 29  1  0  0  0
M  END
> <minimizedAffinity>
-9.61198

$$$$
5H8G_5Y4_A_421


 36 39  0  0  0  0  0  0  0  0999 V2000
    9.6041   -5.0784   32.1808 N   0  0  0  0  0  0  0  0  0  0  0  0
    8.6930   -5.3031   32.4786 H   0  0  0  0  0  0  0  0  0  0  0  0
   12.0766   -8.6581   28.9350 N   0  0  0  0  0  0  0  0  0  0  0  0
   10.1617   -6.0136   31.3260 C   0  0  0  0  0  0  0  0  0  0  0  0
   10.2382   -7.3177   31.8115 C   0  0  0  0  0  0  0  0  0  0  0  0
   10.7823   -8.3385   31.0314 C   0  0  0  0  0  0  0  0  0  0  0  0
   11.3251   -6.5748   29.4327 C   0  0  0  0  0  0  0  0  0  0  0  0
   11.9855   -6.4939   28.1969 C   0  0  0  0  0  0  0  0  0  0  0  0
   12.4250   -7.8027   27.9565 C   0  0  0  0  0  0  0  0  0  0  0  0
   11.3932   -7.9053   29.8343 N   0  0  0  0  0  0  0  0  0  0  0  0
   10.7035   -5.6318   30.1570 N   0  0  0  0  0  0  0  0  0  0  0  0
   12.1784   -5.3426   27.3627 C   0  0  0  0  0  0  0  0  0  0  0  0
   12.3727   -4.4800   26.6336 N   0  0  0  0  0  0  0  0  0  0  0  0
   10.9057   -9.6746   31.4108 N   0  0  0  0  0  0  0  0  0  0  0  0
   11.7870  -10.1028   31.3153 H   0  0  0  0  0  0  0  0  0  0  0  0
    9.8070  -10.4775   31.9410 C   0  0  0  0  0  0  0  0  0  0  0  0
   10.1221  -11.6743   32.7397 C   0  0  0  0  0  0  0  0  0  0  0  0
    9.5791  -10.4675   33.3966 C   0  0  0  0  0  0  0  0  0  0  0  0
    9.8708   -1.4980   33.1289 C   0  0  0  0  0  0  0  0  0  0  0  0
    9.3540   -2.6931   32.6338 C   0  0  0  0  0  0  0  0  0  0  0  0
   11.1414   -1.4891   33.7237 C   0  0  0  0  0  0  0  0  0  0  0  0
   10.0940   -3.8654   32.7056 C   0  0  0  0  0  0  0  0  0  0  0  0
   11.3537   -3.8498   33.2925 C   0  0  0  0  0  0  0  0  0  0  0  0
   11.8876   -2.6669   33.7676 C   0  0  0  0  0  0  0  0  0  0  0  0
    9.1571    0.6966   32.0467 C   0  0  0  0  0  0  0  0  0  0  0  0
    9.1688   -0.2657   33.0084 N   0  0  0  0  0  0  0  0  0  0  0  0
    8.5771    1.7634   32.1878 O   0  0  0  0  0  0  0  0  0  0  0  0
    9.7497    0.2931   30.7245 C   0  0  0  0  0  0  0  0  0  0  0  0
    8.5757   -0.0717   33.7699 H   0  0  0  0  0  0  0  0  0  0  0  0
   12.1178   -0.1470   35.6069 C   0  0  0  0  0  0  0  0  0  0  0  0
   11.7345   -0.2318   34.1994 N   0  0  0  0  0  0  0  0  0  0  0  0
   12.6943    0.4077   33.2258 C   0  0  0  0  0  0  0  0  0  0  0  0
   13.0269    1.8946   33.5798 C   0  0  0  0  0  0  0  0  0  0  0  0
   11.1354    3.3292   34.0015 C   0  0  0  0  0  0  0  0  0  0  0  0
   12.9003    4.0936   32.5841 C   0  0  0  0  0  0  0  0  0  0  0  0
   12.1405    2.9261   33.0198 N   0  0  0  0  0  0  0  0  0  0  0  0
 13 12  3  0  0  0
 12  8  1  0  0  0
  9  8  1  0  0  0
  9  3  2  0  0  0
 27 25  2  0  0  0
  8  7  2  0  0  0
 28 25  1  0  0  0
 25 26  1  0  0  0
  3 10  1  0  0  0
  7 10  1  0  0  0
  7 11  1  0  0  0
 10  6  1  0  0  0
 26 19  1  0  0  0
 11  4  2  0  0  0
  6 14  1  0  0  0
  6  5  2  0  0  0
 19 20  2  0  0  0
 19 21  1  0  0  0
 20 22  1  0  0  0
 14 16  1  0  0  0
 30 31  1  0  0  0
  4  5  1  0  0  0
  4  1  1  0  0  0
 21 31  1  0  0  0
 21 24  2  0  0  0
 31 32  1  0  0  0
 22  1  1  0  0  0
 22 23  2  0  0  0
 34 36  1  0  0  0
 16 18  1  0  0  0
 16 17  1  0  0  0
 36 35  1  0  0  0
 36 33  1  0  0  0
 18 17  1  0  0  0
 24 23  1  0  0  0
 33 32  1  0  0  0
 14 15  1  0  0  0
  1  2  1  0  0  0
 26 29  1  0  0  0
M  END
> <minimizedAffinity>
-8.90918

$$$$
5H8G_5Y4_A_421


 36 39  0  0  0  0  0  0  0  0999 V2000
    9.6617   -4.9273   32.0279 N   0  0  0  0  0  0  0  0  0  0  0  0
    8.7918   -5.1815   32.4125 H   0  0  0  0  0  0  0  0  0  0  0  0
   12.0964   -8.6091   28.8690 N   0  0  0  0  0  0  0  0  0  0  0  0
   10.2095   -5.8880   31.1954 C   0  0  0  0  0  0  0  0  0  0  0  0
   10.2648   -7.1827   31.7082 C   0  0  0  0  0  0  0  0  0  0  0  0
   10.7975   -8.2272   30.9521 C   0  0  0  0  0  0  0  0  0  0  0  0
   11.3732   -6.5052   29.3197 C   0  0  0  0  0  0  0  0  0  0  0  0
   12.0402   -6.4597   28.0857 C   0  0  0  0  0  0  0  0  0  0  0  0
   12.4617   -7.7793   27.8747 C   0  0  0  0  0  0  0  0  0  0  0  0
   11.4201   -7.8280   29.7492 N   0  0  0  0  0  0  0  0  0  0  0  0
   10.7621   -5.5385   30.0213 N   0  0  0  0  0  0  0  0  0  0  0  0
   12.2536   -5.3288   27.2288 C   0  0  0  0  0  0  0  0  0  0  0  0
   12.4742   -4.4822   26.4885 N   0  0  0  0  0  0  0  0  0  0  0  0
   10.8997   -9.5568   31.3596 N   0  0  0  0  0  0  0  0  0  0  0  0
   11.7827   -9.9892   31.3095 H   0  0  0  0  0  0  0  0  0  0  0  0
    9.7765  -10.3470   31.8564 C   0  0  0  0  0  0  0  0  0  0  0  0
   10.0541  -11.5762   32.6189 C   0  0  0  0  0  0  0  0  0  0  0  0
    9.5374  -10.3770   33.3100 C   0  0  0  0  0  0  0  0  0  0  0  0
   10.9405   -2.1350   34.1153 C   0  0  0  0  0  0  0  0  0  0  0  0
   10.5289   -3.4091   33.7311 C   0  0  0  0  0  0  0  0  0  0  0  0
   10.9543   -1.0992   33.1692 C   0  0  0  0  0  0  0  0  0  0  0  0
   10.1138   -3.6539   32.4293 C   0  0  0  0  0  0  0  0  0  0  0  0
   10.1259   -2.6231   31.4972 C   0  0  0  0  0  0  0  0  0  0  0  0
   10.5107   -1.3493   31.8704 C   0  0  0  0  0  0  0  0  0  0  0  0
   10.6327   -1.2461   36.4843 C   0  0  0  0  0  0  0  0  0  0  0  0
   11.3052   -1.8333   35.4577 N   0  0  0  0  0  0  0  0  0  0  0  0
   11.1699   -0.9517   37.5422 O   0  0  0  0  0  0  0  0  0  0  0  0
    9.1426   -1.1473   36.3053 C   0  0  0  0  0  0  0  0  0  0  0  0
   12.2238   -2.1022   35.6884 H   0  0  0  0  0  0  0  0  0  0  0  0
   12.7286    0.6568   33.4326 C   0  0  0  0  0  0  0  0  0  0  0  0
   11.3264    0.2667   33.5624 N   0  0  0  0  0  0  0  0  0  0  0  0
   10.3205    1.3206   33.1681 C   0  0  0  0  0  0  0  0  0  0  0  0
   10.8540    2.7788   33.3575 C   0  0  0  0  0  0  0  0  0  0  0  0
    9.8058    3.7817   31.4316 C   0  0  0  0  0  0  0  0  0  0  0  0
   11.6789    4.8612   32.4485 C   0  0  0  0  0  0  0  0  0  0  0  0
   11.0683    3.5724   32.1379 N   0  0  0  0  0  0  0  0  0  0  0  0
 13 12  3  0  0  0
 12  8  1  0  0  0
  9  8  1  0  0  0
  9  3  2  0  0  0
 27 25  2  0  0  0
  8  7  2  0  0  0
 28 25  1  0  0  0
 25 26  1  0  0  0
  3 10  1  0  0  0
  7 10  1  0  0  0
  7 11  1  0  0  0
 10  6  1  0  0  0
 26 19  1  0  0  0
 11  4  2  0  0  0
  6 14  1  0  0  0
  6  5  2  0  0  0
 19 20  2  0  0  0
 19 21  1  0  0  0
 20 22  1  0  0  0
 14 16  1  0  0  0
 30 31  1  0  0  0
  4  5  1  0  0  0
  4  1  1  0  0  0
 21 31  1  0  0  0
 21 24  2  0  0  0
 31 32  1  0  0  0
 22  1  1  0  0  0
 22 23  2  0  0  0
 34 36  1  0  0  0
 16 18  1  0  0  0
 16 17  1  0  0  0
 36 35  1  0  0  0
 36 33  1  0  0  0
 18 17  1  0  0  0
 24 23  1  0  0  0
 33 32  1  0  0  0
 14 15  1  0  0  0
  1  2  1  0  0  0
 26 29  1  0  0  0
M  END
> <minimizedAffinity>
-8.73122

$$$$
5H8G_5Y4_A_421


 36 39  0  0  0  0  0  0  0  0999 V2000
    9.0056   -4.6361   33.3517 N   0  0  0  0  0  0  0  0  0  0  0  0
    8.2829   -4.7439   34.0114 H   0  0  0  0  0  0  0  0  0  0  0  0
   10.8128   -9.4297   31.5579 N   0  0  0  0  0  0  0  0  0  0  0  0
    9.5419   -5.8319   32.9062 C   0  0  0  0  0  0  0  0  0  0  0  0
    9.9080   -5.8756   31.5622 C   0  0  0  0  0  0  0  0  0  0  0  0
   10.4590   -7.0324   31.0102 C   0  0  0  0  0  0  0  0  0  0  0  0
   10.0050   -8.0602   33.1779 C   0  0  0  0  0  0  0  0  0  0  0  0
   10.1460   -9.3362   33.7450 C   0  0  0  0  0  0  0  0  0  0  0  0
   10.6386  -10.1250   32.6968 C   0  0  0  0  0  0  0  0  0  0  0  0
   10.4334   -8.1614   31.8579 N   0  0  0  0  0  0  0  0  0  0  0  0
    9.5758   -6.9067   33.7123 N   0  0  0  0  0  0  0  0  0  0  0  0
    9.8527   -9.7532   35.0862 C   0  0  0  0  0  0  0  0  0  0  0  0
    9.5740  -10.0043   36.1691 N   0  0  0  0  0  0  0  0  0  0  0  0
   10.8639   -7.1885   29.6850 N   0  0  0  0  0  0  0  0  0  0  0  0
   10.3859   -7.8463   29.1300 H   0  0  0  0  0  0  0  0  0  0  0  0
   11.9538   -6.4354   29.0703 C   0  0  0  0  0  0  0  0  0  0  0  0
   12.6670   -7.0246   27.9242 C   0  0  0  0  0  0  0  0  0  0  0  0
   11.7443   -5.8893   27.7180 C   0  0  0  0  0  0  0  0  0  0  0  0
   10.3417   -1.6237   31.6399 C   0  0  0  0  0  0  0  0  0  0  0  0
   10.0349   -2.9550   31.9123 C   0  0  0  0  0  0  0  0  0  0  0  0
    9.8814   -0.6185   32.5036 C   0  0  0  0  0  0  0  0  0  0  0  0
    9.2985   -3.2931   33.0393 C   0  0  0  0  0  0  0  0  0  0  0  0
    8.8484   -2.2933   33.8934 C   0  0  0  0  0  0  0  0  0  0  0  0
    9.1643   -0.9707   33.6472 C   0  0  0  0  0  0  0  0  0  0  0  0
   11.1373   -1.6007   29.2185 C   0  0  0  0  0  0  0  0  0  0  0  0
   11.1532   -1.2483   30.5325 N   0  0  0  0  0  0  0  0  0  0  0  0
   12.0138   -1.2658   28.4349 O   0  0  0  0  0  0  0  0  0  0  0  0
    9.8783   -2.2757   28.7479 C   0  0  0  0  0  0  0  0  0  0  0  0
   11.8653   -0.6085   30.7623 H   0  0  0  0  0  0  0  0  0  0  0  0
    9.1793    1.7069   31.8705 C   0  0  0  0  0  0  0  0  0  0  0  0
   10.2412    0.7872   32.2725 N   0  0  0  0  0  0  0  0  0  0  0  0
   11.2404    1.3411   33.2589 C   0  0  0  0  0  0  0  0  0  0  0  0
   11.2474    2.9044   33.3121 C   0  0  0  0  0  0  0  0  0  0  0  0
   13.6345    2.5696   33.3720 C   0  0  0  0  0  0  0  0  0  0  0  0
   12.7434    4.5029   32.2876 C   0  0  0  0  0  0  0  0  0  0  0  0
   12.5611    3.5615   33.3879 N   0  0  0  0  0  0  0  0  0  0  0  0
 13 12  3  0  0  0
 12  8  1  0  0  0
  9  8  1  0  0  0
  9  3  2  0  0  0
 27 25  2  0  0  0
  8  7  2  0  0  0
 28 25  1  0  0  0
 25 26  1  0  0  0
  3 10  1  0  0  0
  7 10  1  0  0  0
  7 11  1  0  0  0
 10  6  1  0  0  0
 26 19  1  0  0  0
 11  4  2  0  0  0
  6 14  1  0  0  0
  6  5  2  0  0  0
 19 20  2  0  0  0
 19 21  1  0  0  0
 20 22  1  0  0  0
 14 16  1  0  0  0
 30 31  1  0  0  0
  4  5  1  0  0  0
  4  1  1  0  0  0
 21 31  1  0  0  0
 21 24  2  0  0  0
 31 32  1  0  0  0
 22  1  1  0  0  0
 22 23  2  0  0  0
 34 36  1  0  0  0
 16 18  1  0  0  0
 16 17  1  0  0  0
 36 35  1  0  0  0
 36 33  1  0  0  0
 18 17  1  0  0  0
 24 23  1  0  0  0
 33 32  1  0  0  0
 14 15  1  0  0  0
  1  2  1  0  0  0
 26 29  1  0  0  0
M  END
> <minimizedAffinity>
-8.23178

$$$$
5H8G_5Y4_A_421


 36 39  0  0  0  0  0  0  0  0999 V2000
    9.2600   -4.6545   33.6160 N   0  0  0  0  0  0  0  0  0  0  0  0
    8.5158   -5.1148   34.0671 H   0  0  0  0  0  0  0  0  0  0  0  0
   11.2108   -7.6191   29.5089 N   0  0  0  0  0  0  0  0  0  0  0  0
    9.8317   -5.3853   32.5887 C   0  0  0  0  0  0  0  0  0  0  0  0
   10.0577   -4.6954   31.3990 C   0  0  0  0  0  0  0  0  0  0  0  0
   10.6301   -5.3368   30.3002 C   0  0  0  0  0  0  0  0  0  0  0  0
   10.4798   -7.3701   31.6434 C   0  0  0  0  0  0  0  0  0  0  0  0
   10.7707   -8.7308   31.4601 C   0  0  0  0  0  0  0  0  0  0  0  0
   11.2068   -8.8124   30.1308 C   0  0  0  0  0  0  0  0  0  0  0  0
   10.7744   -6.7344   30.4412 N   0  0  0  0  0  0  0  0  0  0  0  0
   10.0267   -6.7085   32.7192 N   0  0  0  0  0  0  0  0  0  0  0  0
   10.6496   -9.8037   32.4051 C   0  0  0  0  0  0  0  0  0  0  0  0
   10.4752  -10.6869   33.1142 N   0  0  0  0  0  0  0  0  0  0  0  0
   10.9047   -4.7478   29.0665 N   0  0  0  0  0  0  0  0  0  0  0  0
   11.1498   -5.3374   28.3171 H   0  0  0  0  0  0  0  0  0  0  0  0
   10.8509   -3.3097   28.8184 C   0  0  0  0  0  0  0  0  0  0  0  0
   11.2061   -2.8052   27.4809 C   0  0  0  0  0  0  0  0  0  0  0  0
    9.7970   -2.7980   27.9248 C   0  0  0  0  0  0  0  0  0  0  0  0
    9.2986   -0.9733   34.1026 C   0  0  0  0  0  0  0  0  0  0  0  0
    8.9806   -2.2299   33.5922 C   0  0  0  0  0  0  0  0  0  0  0  0
   10.1771   -0.8726   35.1918 C   0  0  0  0  0  0  0  0  0  0  0  0
    9.5419   -3.3760   34.1384 C   0  0  0  0  0  0  0  0  0  0  0  0
   10.4145   -3.2699   35.2149 C   0  0  0  0  0  0  0  0  0  0  0  0
   10.7557   -2.0283   35.7168 C   0  0  0  0  0  0  0  0  0  0  0  0
    9.0639    0.8628   32.3504 C   0  0  0  0  0  0  0  0  0  0  0  0
    8.7964    0.2253   33.5222 N   0  0  0  0  0  0  0  0  0  0  0  0
    8.6182    1.9697   32.0848 O   0  0  0  0  0  0  0  0  0  0  0  0
    9.7946    0.0425   31.3231 C   0  0  0  0  0  0  0  0  0  0  0  0
    8.1239    0.6826   34.0772 H   0  0  0  0  0  0  0  0  0  0  0  0
   10.1072    0.8228   37.0416 C   0  0  0  0  0  0  0  0  0  0  0  0
   10.5757    0.4430   35.7106 N   0  0  0  0  0  0  0  0  0  0  0  0
   11.9982    0.8311   35.3881 C   0  0  0  0  0  0  0  0  0  0  0  0
   12.3030    0.8235   33.8540 C   0  0  0  0  0  0  0  0  0  0  0  0
   11.5127    3.1014   33.8448 C   0  0  0  0  0  0  0  0  0  0  0  0
   13.7558    2.6306   33.1706 C   0  0  0  0  0  0  0  0  0  0  0  0
   12.3845    2.1311   33.1854 N   0  0  0  0  0  0  0  0  0  0  0  0
 13 12  3  0  0  0
 12  8  1  0  0  0
  9  8  1  0  0  0
  9  3  2  0  0  0
 27 25  2  0  0  0
  8  7  2  0  0  0
 28 25  1  0  0  0
 25 26  1  0  0  0
  3 10  1  0  0  0
  7 10  1  0  0  0
  7 11  1  0  0  0
 10  6  1  0  0  0
 26 19  1  0  0  0
 11  4  2  0  0  0
  6 14  1  0  0  0
  6  5  2  0  0  0
 19 20  2  0  0  0
 19 21  1  0  0  0
 20 22  1  0  0  0
 14 16  1  0  0  0
 30 31  1  0  0  0
  4  5  1  0  0  0
  4  1  1  0  0  0
 21 31  1  0  0  0
 21 24  2  0  0  0
 31 32  1  0  0  0
 22  1  1  0  0  0
 22 23  2  0  0  0
 34 36  1  0  0  0
 16 18  1  0  0  0
 16 17  1  0  0  0
 36 35  1  0  0  0
 36 33  1  0  0  0
 18 17  1  0  0  0
 24 23  1  0  0  0
 33 32  1  0  0  0
 14 15  1  0  0  0
  1  2  1  0  0  0
 26 29  1  0  0  0
M  END
> <minimizedAffinity>
-8.13742

$$$$
5H8G_5Y4_A_421


 36 39  0  0  0  0  0  0  0  0999 V2000
   10.0671   -3.3802   31.6217 N   0  0  0  0  0  0  0  0  0  0  0  0
    9.5019   -3.0214   30.8998 H   0  0  0  0  0  0  0  0  0  0  0  0
   10.7561   -8.7413   31.1250 N   0  0  0  0  0  0  0  0  0  0  0  0
   10.3206   -4.7368   31.5143 C   0  0  0  0  0  0  0  0  0  0  0  0
   10.8161   -5.1715   30.2864 C   0  0  0  0  0  0  0  0  0  0  0  0
   11.1064   -6.5191   30.0709 C   0  0  0  0  0  0  0  0  0  0  0  0
   10.1512   -6.8878   32.2874 C   0  0  0  0  0  0  0  0  0  0  0  0
    9.8873   -7.9964   33.1067 C   0  0  0  0  0  0  0  0  0  0  0  0
   10.2753   -9.0967   32.3305 C   0  0  0  0  0  0  0  0  0  0  0  0
   10.6887   -7.3858   31.1045 N   0  0  0  0  0  0  0  0  0  0  0  0
    9.9789   -5.5754   32.5072 N   0  0  0  0  0  0  0  0  0  0  0  0
    9.3416   -8.0147   34.4336 C   0  0  0  0  0  0  0  0  0  0  0  0
    8.9926   -8.0463   35.5247 N   0  0  0  0  0  0  0  0  0  0  0  0
   11.6076   -7.0646   28.8896 N   0  0  0  0  0  0  0  0  0  0  0  0
   11.4571   -8.0231   28.7227 H   0  0  0  0  0  0  0  0  0  0  0  0
   12.3421   -6.3006   27.8849 C   0  0  0  0  0  0  0  0  0  0  0  0
   11.6760   -5.9748   26.6122 C   0  0  0  0  0  0  0  0  0  0  0  0
   11.9145   -4.9166   27.6152 C   0  0  0  0  0  0  0  0  0  0  0  0
   10.0348   -1.0656   34.5253 C   0  0  0  0  0  0  0  0  0  0  0  0
    9.6357   -2.0455   33.6192 C   0  0  0  0  0  0  0  0  0  0  0  0
   11.2954   -0.4663   34.3835 C   0  0  0  0  0  0  0  0  0  0  0  0
   10.4649   -2.4153   32.5691 C   0  0  0  0  0  0  0  0  0  0  0  0
   11.7110   -1.8155   32.4313 C   0  0  0  0  0  0  0  0  0  0  0  0
   12.1103   -0.8264   33.3100 C   0  0  0  0  0  0  0  0  0  0  0  0
    8.8947   -1.1100   36.8046 C   0  0  0  0  0  0  0  0  0  0  0  0
    9.1817   -0.6131   35.5709 N   0  0  0  0  0  0  0  0  0  0  0  0
    8.0212   -0.6394   37.5185 O   0  0  0  0  0  0  0  0  0  0  0  0
    9.8432   -2.1611   37.3122 C   0  0  0  0  0  0  0  0  0  0  0  0
    8.7062    0.2228   35.3603 H   0  0  0  0  0  0  0  0  0  0  0  0
   12.7507    0.3097   36.2758 C   0  0  0  0  0  0  0  0  0  0  0  0
   11.7161    0.6115   35.2891 N   0  0  0  0  0  0  0  0  0  0  0  0
   11.8210    1.9666   34.6327 C   0  0  0  0  0  0  0  0  0  0  0  0
   10.4818    2.4338   33.9731 C   0  0  0  0  0  0  0  0  0  0  0  0
    9.3538    1.5744   32.0230 C   0  0  0  0  0  0  0  0  0  0  0  0
   10.2443    3.7910   31.9870 C   0  0  0  0  0  0  0  0  0  0  0  0
   10.4304    2.4386   32.5031 N   0  0  0  0  0  0  0  0  0  0  0  0
 13 12  3  0  0  0
 12  8  1  0  0  0
  9  8  1  0  0  0
  9  3  2  0  0  0
 27 25  2  0  0  0
  8  7  2  0  0  0
 28 25  1  0  0  0
 25 26  1  0  0  0
  3 10  1  0  0  0
  7 10  1  0  0  0
  7 11  1  0  0  0
 10  6  1  0  0  0
 26 19  1  0  0  0
 11  4  2  0  0  0
  6 14  1  0  0  0
  6  5  2  0  0  0
 19 20  2  0  0  0
 19 21  1  0  0  0
 20 22  1  0  0  0
 14 16  1  0  0  0
 30 31  1  0  0  0
  4  5  1  0  0  0
  4  1  1  0  0  0
 21 31  1  0  0  0
 21 24  2  0  0  0
 31 32  1  0  0  0
 22  1  1  0  0  0
 22 23  2  0  0  0
 34 36  1  0  0  0
 16 18  1  0  0  0
 16 17  1  0  0  0
 36 35  1  0  0  0
 36 33  1  0  0  0
 18 17  1  0  0  0
 24 23  1  0  0  0
 33 32  1  0  0  0
 14 15  1  0  0  0
  1  2  1  0  0  0
 26 29  1  0  0  0
M  END
> <minimizedAffinity>
-8.12046

$$$$
5H8G_5Y4_A_421


 36 39  0  0  0  0  0  0  0  0999 V2000
    9.1577    1.3603   31.9464 N   0  0  0  0  0  0  0  0  0  0  0  0
    8.2211    1.4078   32.2462 H   0  0  0  0  0  0  0  0  0  0  0  0
   11.1495    6.3408   31.1154 N   0  0  0  0  0  0  0  0  0  0  0  0
    9.7369    2.5964   31.7170 C   0  0  0  0  0  0  0  0  0  0  0  0
   10.4160    3.1635   32.7939 C   0  0  0  0  0  0  0  0  0  0  0  0
   11.0369    4.4068   32.6708 C   0  0  0  0  0  0  0  0  0  0  0  0
   10.0292    4.4827   30.4482 C   0  0  0  0  0  0  0  0  0  0  0  0
    9.9763    5.4022   29.3892 C   0  0  0  0  0  0  0  0  0  0  0  0
   10.6760    6.5178   29.8683 C   0  0  0  0  0  0  0  0  0  0  0  0
   10.7606    5.0883   31.4654 N   0  0  0  0  0  0  0  0  0  0  0  0
    9.5304    3.2418   30.5565 N   0  0  0  0  0  0  0  0  0  0  0  0
    9.3496    5.2508   28.1074 C   0  0  0  0  0  0  0  0  0  0  0  0
    8.8745    5.2184   27.0650 N   0  0  0  0  0  0  0  0  0  0  0  0
   11.7445    5.0658   33.6755 N   0  0  0  0  0  0  0  0  0  0  0  0
   11.2307    5.4974   34.3958 H   0  0  0  0  0  0  0  0  0  0  0  0
   13.2014    5.1547   33.7242 C   0  0  0  0  0  0  0  0  0  0  0  0
   13.8358    6.4815   33.6425 C   0  0  0  0  0  0  0  0  0  0  0  0
   13.8214    5.7452   34.9233 C   0  0  0  0  0  0  0  0  0  0  0  0
   10.7974   -1.6850   30.5948 C   0  0  0  0  0  0  0  0  0  0  0  0
   10.3432   -0.3724   30.7016 C   0  0  0  0  0  0  0  0  0  0  0  0
   10.5737   -2.5811   31.6508 C   0  0  0  0  0  0  0  0  0  0  0  0
    9.6551    0.0464   31.8321 C   0  0  0  0  0  0  0  0  0  0  0  0
    9.4331   -0.8468   32.8735 C   0  0  0  0  0  0  0  0  0  0  0  0
    9.8587   -2.1576   32.7713 C   0  0  0  0  0  0  0  0  0  0  0  0
   10.9696   -2.6290   28.2334 C   0  0  0  0  0  0  0  0  0  0  0  0
   11.4440   -2.1659   29.4215 N   0  0  0  0  0  0  0  0  0  0  0  0
   11.6930   -3.1277   27.3835 O   0  0  0  0  0  0  0  0  0  0  0  0
    9.5239   -2.3228   27.9537 C   0  0  0  0  0  0  0  0  0  0  0  0
   12.4267   -2.1630   29.4815 H   0  0  0  0  0  0  0  0  0  0  0  0
   11.7253   -4.5718   32.6568 C   0  0  0  0  0  0  0  0  0  0  0  0
   10.9890   -3.9860   31.5388 N   0  0  0  0  0  0  0  0  0  0  0  0
    9.9624   -4.8861   30.8952 C   0  0  0  0  0  0  0  0  0  0  0  0
    9.9585   -6.3336   31.4879 C   0  0  0  0  0  0  0  0  0  0  0  0
   11.3780   -7.0334   29.6690 C   0  0  0  0  0  0  0  0  0  0  0  0
   10.6789   -8.6333   31.2998 C   0  0  0  0  0  0  0  0  0  0  0  0
   10.2958   -7.4302   30.5676 N   0  0  0  0  0  0  0  0  0  0  0  0
 13 12  3  0  0  0
 12  8  1  0  0  0
  9  8  1  0  0  0
  9  3  2  0  0  0
 27 25  2  0  0  0
  8  7  2  0  0  0
 28 25  1  0  0  0
 25 26  1  0  0  0
  3 10  1  0  0  0
  7 10  1  0  0  0
  7 11  1  0  0  0
 10  6  1  0  0  0
 26 19  1  0  0  0
 11  4  2  0  0  0
  6 14  1  0  0  0
  6  5  2  0  0  0
 19 20  2  0  0  0
 19 21  1  0  0  0
 20 22  1  0  0  0
 14 16  1  0  0  0
 30 31  1  0  0  0
  4  5  1  0  0  0
  4  1  1  0  0  0
 21 31  1  0  0  0
 21 24  2  0  0  0
 31 32  1  0  0  0
 22  1  1  0  0  0
 22 23  2  0  0  0
 34 36  1  0  0  0
 16 18  1  0  0  0
 16 17  1  0  0  0
 36 35  1  0  0  0
 36 33  1  0  0  0
 18 17  1  0  0  0
 24 23  1  0  0  0
 33 32  1  0  0  0
 14 15  1  0  0  0
  1  2  1  0  0  0
 26 29  1  0  0  0
M  END
> <minimizedAffinity>
-8.03671

$$$$
5H8G_5Y4_A_421


 36 39  0  0  0  0  0  0  0  0999 V2000
    9.2178    1.8376   31.5855 N   0  0  0  0  0  0  0  0  0  0  0  0
    8.2378    1.9314   31.5866 H   0  0  0  0  0  0  0  0  0  0  0  0
   12.1238    6.4050   31.1894 N   0  0  0  0  0  0  0  0  0  0  0  0
    9.8967    3.0421   31.5177 C   0  0  0  0  0  0  0  0  0  0  0  0
    9.6351    3.8300   30.3984 C   0  0  0  0  0  0  0  0  0  0  0  0
   10.2653    5.0634   30.2311 C   0  0  0  0  0  0  0  0  0  0  0  0
   11.5339    4.4776   32.2333 C   0  0  0  0  0  0  0  0  0  0  0  0
   12.5693    5.0562   32.9836 C   0  0  0  0  0  0  0  0  0  0  0  0
   12.8857    6.2287   32.2845 C   0  0  0  0  0  0  0  0  0  0  0  0
   11.2885    5.3353   31.1654 N   0  0  0  0  0  0  0  0  0  0  0  0
   10.8393    3.3460   32.4261 N   0  0  0  0  0  0  0  0  0  0  0  0
   13.1775    4.5685   34.1882 C   0  0  0  0  0  0  0  0  0  0  0  0
   13.5767    4.1620   35.1825 N   0  0  0  0  0  0  0  0  0  0  0  0
   10.0782    5.9338   29.1579 N   0  0  0  0  0  0  0  0  0  0  0  0
   10.1144    6.9014   29.3357 H   0  0  0  0  0  0  0  0  0  0  0  0
    9.8317    5.4974   27.7862 C   0  0  0  0  0  0  0  0  0  0  0  0
    8.4426    5.2748   27.3498 C   0  0  0  0  0  0  0  0  0  0  0  0
    9.1940    6.4483   26.8589 C   0  0  0  0  0  0  0  0  0  0  0  0
   10.7316   -1.4261   30.6656 C   0  0  0  0  0  0  0  0  0  0  0  0
   10.3283   -0.0948   30.5906 C   0  0  0  0  0  0  0  0  0  0  0  0
   10.4811   -2.1584   31.8358 C   0  0  0  0  0  0  0  0  0  0  0  0
    9.6642    0.5023   31.6533 C   0  0  0  0  0  0  0  0  0  0  0  0
    9.4154   -0.2292   32.8085 C   0  0  0  0  0  0  0  0  0  0  0  0
    9.7902   -1.5570   32.8879 C   0  0  0  0  0  0  0  0  0  0  0  0
   10.8561   -2.6458   28.4310 C   0  0  0  0  0  0  0  0  0  0  0  0
   11.3515   -2.0890   29.5693 N   0  0  0  0  0  0  0  0  0  0  0  0
   11.5469   -3.2954   27.6595 O   0  0  0  0  0  0  0  0  0  0  0  0
    9.4443   -2.2583   28.0861 C   0  0  0  0  0  0  0  0  0  0  0  0
   12.3302   -2.1583   29.6505 H   0  0  0  0  0  0  0  0  0  0  0  0
   11.8022   -3.9826   32.9439 C   0  0  0  0  0  0  0  0  0  0  0  0
   10.8420   -3.5803   31.9186 N   0  0  0  0  0  0  0  0  0  0  0  0
    9.6855   -4.5264   31.7056 C   0  0  0  0  0  0  0  0  0  0  0  0
   10.0942   -6.0314   31.8263 C   0  0  0  0  0  0  0  0  0  0  0  0
   11.3008   -6.1993   29.7455 C   0  0  0  0  0  0  0  0  0  0  0  0
   10.5413   -8.1879   30.8300 C   0  0  0  0  0  0  0  0  0  0  0  0
   10.2448   -6.7826   30.5707 N   0  0  0  0  0  0  0  0  0  0  0  0
 13 12  3  0  0  0
 12  8  1  0  0  0
  9  8  1  0  0  0
  9  3  2  0  0  0
 27 25  2  0  0  0
  8  7  2  0  0  0
 28 25  1  0  0  0
 25 26  1  0  0  0
  3 10  1  0  0  0
  7 10  1  0  0  0
  7 11  1  0  0  0
 10  6  1  0  0  0
 26 19  1  0  0  0
 11  4  2  0  0  0
  6 14  1  0  0  0
  6  5  2  0  0  0
 19 20  2  0  0  0
 19 21  1  0  0  0
 20 22  1  0  0  0
 14 16  1  0  0  0
 30 31  1  0  0  0
  4  5  1  0  0  0
  4  1  1  0  0  0
 21 31  1  0  0  0
 21 24  2  0  0  0
 31 32  1  0  0  0
 22  1  1  0  0  0
 22 23  2  0  0  0
 34 36  1  0  0  0
 16 18  1  0  0  0
 16 17  1  0  0  0
 36 35  1  0  0  0
 36 33  1  0  0  0
 18 17  1  0  0  0
 24 23  1  0  0  0
 33 32  1  0  0  0
 14 15  1  0  0  0
  1  2  1  0  0  0
 26 29  1  0  0  0
M  END
> <minimizedAffinity>
-7.93142

$$$$
5H8G_5Y4_A_421


 36 39  0  0  0  0  0  0  0  0999 V2000
   13.2828   -0.4551   33.8961 N   0  0  0  0  0  0  0  0  0  0  0  0
   14.2236   -0.6846   34.0731 H   0  0  0  0  0  0  0  0  0  0  0  0
   10.1640   -4.4332   31.9187 N   0  0  0  0  0  0  0  0  0  0  0  0
   12.5477   -1.4886   33.3414 C   0  0  0  0  0  0  0  0  0  0  0  0
   11.8426   -1.1828   32.1788 C   0  0  0  0  0  0  0  0  0  0  0  0
   11.0700   -2.1515   31.5375 C   0  0  0  0  0  0  0  0  0  0  0  0
   11.6195   -3.5820   33.4383 C   0  0  0  0  0  0  0  0  0  0  0  0
   11.2901   -4.8793   33.8603 C   0  0  0  0  0  0  0  0  0  0  0  0
   10.3915   -5.3385   32.8879 C   0  0  0  0  0  0  0  0  0  0  0  0
   10.9259   -3.3606   32.2525 N   0  0  0  0  0  0  0  0  0  0  0  0
   12.4383   -2.6666   33.9787 N   0  0  0  0  0  0  0  0  0  0  0  0
   11.7544   -5.5845   35.0204 C   0  0  0  0  0  0  0  0  0  0  0  0
   12.0372   -6.1781   35.9590 N   0  0  0  0  0  0  0  0  0  0  0  0
   10.3289   -1.9606   30.3719 N   0  0  0  0  0  0  0  0  0  0  0  0
    9.4980   -1.4360   30.4330 H   0  0  0  0  0  0  0  0  0  0  0  0
   10.7102   -2.4914   29.0659 C   0  0  0  0  0  0  0  0  0  0  0  0
    9.7987   -2.2963   27.9255 C   0  0  0  0  0  0  0  0  0  0  0  0
   11.0618   -1.5337   28.0027 C   0  0  0  0  0  0  0  0  0  0  0  0
   13.0148    3.2486   33.8808 C   0  0  0  0  0  0  0  0  0  0  0  0
   13.3369    1.9510   33.4896 C   0  0  0  0  0  0  0  0  0  0  0  0
   12.2631    3.4515   35.0479 C   0  0  0  0  0  0  0  0  0  0  0  0
   12.9390    0.8639   34.2556 C   0  0  0  0  0  0  0  0  0  0  0  0
   12.1978    1.0710   35.4128 C   0  0  0  0  0  0  0  0  0  0  0  0
   11.8903    2.3540   35.8243 C   0  0  0  0  0  0  0  0  0  0  0  0
   12.9490    5.0720   32.1009 C   0  0  0  0  0  0  0  0  0  0  0  0
   13.4663    4.3882   33.1573 N   0  0  0  0  0  0  0  0  0  0  0  0
   13.5607    5.9614   31.5274 O   0  0  0  0  0  0  0  0  0  0  0  0
   11.5032    4.7902   31.7969 C   0  0  0  0  0  0  0  0  0  0  0  0
   14.3198    4.7530   33.4855 H   0  0  0  0  0  0  0  0  0  0  0  0
   10.5657    5.2442   35.5014 C   0  0  0  0  0  0  0  0  0  0  0  0
   11.9613    4.8114   35.5149 N   0  0  0  0  0  0  0  0  0  0  0  0
   12.7638    5.2460   36.7171 C   0  0  0  0  0  0  0  0  0  0  0  0
   14.1066    5.9516   36.3355 C   0  0  0  0  0  0  0  0  0  0  0  0
   13.3756    8.0295   35.3549 C   0  0  0  0  0  0  0  0  0  0  0  0
   15.4591    7.0765   34.6777 C   0  0  0  0  0  0  0  0  0  0  0  0
   14.1003    6.7818   35.1214 N   0  0  0  0  0  0  0  0  0  0  0  0
 13 12  3  0  0  0
 12  8  1  0  0  0
  9  8  1  0  0  0
  9  3  2  0  0  0
 27 25  2  0  0  0
  8  7  2  0  0  0
 28 25  1  0  0  0
 25 26  1  0  0  0
  3 10  1  0  0  0
  7 10  1  0  0  0
  7 11  1  0  0  0
 10  6  1  0  0  0
 26 19  1  0  0  0
 11  4  2  0  0  0
  6 14  1  0  0  0
  6  5  2  0  0  0
 19 20  2  0  0  0
 19 21  1  0  0  0
 20 22  1  0  0  0
 14 16  1  0  0  0
 30 31  1  0  0  0
  4  5  1  0  0  0
  4  1  1  0  0  0
 21 31  1  0  0  0
 21 24  2  0  0  0
 31 32  1  0  0  0
 22  1  1  0  0  0
 22 23  2  0  0  0
 34 36  1  0  0  0
 16 18  1  0  0  0
 16 17  1  0  0  0
 36 35  1  0  0  0
 36 33  1  0  0  0
 18 17  1  0  0  0
 24 23  1  0  0  0
 33 32  1  0  0  0
 14 15  1  0  0  0
  1  2  1  0  0  0
 26 29  1  0  0  0
M  END
> <minimizedAffinity>
-7.84568

$$$$
5H8G_5Y4_A_421


 36 39  0  0  0  0  0  0  0  0999 V2000
    9.2448    2.1676   31.3244 N   0  0  0  0  0  0  0  0  0  0  0  0
    8.3848    2.2178   30.8479 H   0  0  0  0  0  0  0  0  0  0  0  0
   12.4614    6.5153   30.8623 N   0  0  0  0  0  0  0  0  0  0  0  0
   10.0042    3.3214   31.2348 C   0  0  0  0  0  0  0  0  0  0  0  0
    9.8474    4.0684   30.0687 C   0  0  0  0  0  0  0  0  0  0  0  0
   10.5648    5.2494   29.8761 C   0  0  0  0  0  0  0  0  0  0  0  0
   11.6977    4.6832   31.9636 C   0  0  0  0  0  0  0  0  0  0  0  0
   12.7331    5.2309   32.7367 C   0  0  0  0  0  0  0  0  0  0  0  0
   13.1583    6.3450   32.0008 C   0  0  0  0  0  0  0  0  0  0  0  0
   11.5593    5.5012   30.8464 N   0  0  0  0  0  0  0  0  0  0  0  0
   10.9216    3.6091   32.1738 N   0  0  0  0  0  0  0  0  0  0  0  0
   13.2511    4.7654   33.9912 C   0  0  0  0  0  0  0  0  0  0  0  0
   13.7149    4.3305   34.9446 N   0  0  0  0  0  0  0  0  0  0  0  0
   10.4856    6.0760   28.7559 N   0  0  0  0  0  0  0  0  0  0  0  0
   10.7918    7.0073   28.8461 H   0  0  0  0  0  0  0  0  0  0  0  0
    9.9761    5.6443   27.4572 C   0  0  0  0  0  0  0  0  0  0  0  0
    8.5316    5.3988   27.3060 C   0  0  0  0  0  0  0  0  0  0  0  0
    9.1492    6.5894   26.6865 C   0  0  0  0  0  0  0  0  0  0  0  0
    9.3964   -0.4752   33.9287 C   0  0  0  0  0  0  0  0  0  0  0  0
    9.1347    0.7410   33.3018 C   0  0  0  0  0  0  0  0  0  0  0  0
    9.9840   -1.5173   33.1959 C   0  0  0  0  0  0  0  0  0  0  0  0
    9.4700    0.9343   31.9687 C   0  0  0  0  0  0  0  0  0  0  0  0
   10.0554   -0.1004   31.2488 C   0  0  0  0  0  0  0  0  0  0  0  0
   10.3408   -1.3045   31.8642 C   0  0  0  0  0  0  0  0  0  0  0  0
    9.8700   -0.4717   36.4332 C   0  0  0  0  0  0  0  0  0  0  0  0
    9.1300   -0.6834   35.3113 N   0  0  0  0  0  0  0  0  0  0  0  0
    9.5095   -0.8423   37.5409 O   0  0  0  0  0  0  0  0  0  0  0  0
   11.0756    0.4092   36.2529 C   0  0  0  0  0  0  0  0  0  0  0  0
    8.2353   -1.0529   35.4909 H   0  0  0  0  0  0  0  0  0  0  0  0
    9.4115   -3.9150   33.6694 C   0  0  0  0  0  0  0  0  0  0  0  0
   10.3253   -2.7888   33.8481 N   0  0  0  0  0  0  0  0  0  0  0  0
   11.7945   -3.1322   33.8055 C   0  0  0  0  0  0  0  0  0  0  0  0
   12.5356   -2.8232   35.1478 C   0  0  0  0  0  0  0  0  0  0  0  0
   11.5737   -3.7606   37.1502 C   0  0  0  0  0  0  0  0  0  0  0  0
   12.4808   -5.2159   35.4868 C   0  0  0  0  0  0  0  0  0  0  0  0
   12.6113   -3.9134   36.1322 N   0  0  0  0  0  0  0  0  0  0  0  0
 13 12  3  0  0  0
 12  8  1  0  0  0
  9  8  1  0  0  0
  9  3  2  0  0  0
 27 25  2  0  0  0
  8  7  2  0  0  0
 28 25  1  0  0  0
 25 26  1  0  0  0
  3 10  1  0  0  0
  7 10  1  0  0  0
  7 11  1  0  0  0
 10  6  1  0  0  0
 26 19  1  0  0  0
 11  4  2  0  0  0
  6 14  1  0  0  0
  6  5  2  0  0  0
 19 20  2  0  0  0
 19 21  1  0  0  0
 20 22  1  0  0  0
 14 16  1  0  0  0
 30 31  1  0  0  0
  4  5  1  0  0  0
  4  1  1  0  0  0
 21 31  1  0  0  0
 21 24  2  0  0  0
 31 32  1  0  0  0
 22  1  1  0  0  0
 22 23  2  0  0  0
 34 36  1  0  0  0
 16 18  1  0  0  0
 16 17  1  0  0  0
 36 35  1  0  0  0
 36 33  1  0  0  0
 18 17  1  0  0  0
 24 23  1  0  0  0
 33 32  1  0  0  0
 14 15  1  0  0  0
  1  2  1  0  0  0
 26 29  1  0  0  0
M  END
> <minimizedAffinity>
-7.84372

$$$$
