1BHX_R56_F_1


 37 39  0  0  0  0  0  0  0  0999 V2000
   16.9461  -15.8809   21.5304 C   0  0  0  0  0  0  0  0  0  0  0  0
   16.1076  -15.1543   20.5092 C   0  0  0  0  0  0  0  0  0  0  0  0
   16.6415  -14.3649   19.7158 O   0  0  0  0  0  0  0  0  0  0  0  0
   14.7746  -15.4027   20.5358 N   0  0  0  0  0  0  0  0  0  0  0  0
   14.2364  -16.3371   21.4907 C   0  0  0  0  0  0  0  0  0  0  0  0
   15.0235  -17.6239   21.5011 C   0  0  0  0  0  0  0  0  0  0  0  0
   16.5383  -17.3723   21.6477 C   0  0  0  0  0  0  0  0  0  0  0  0
   12.6595  -16.7216   20.8288 S   0  0  0  0  0  0  0  0  0  0  0  0
   12.4789  -15.0913   20.0632 C   0  0  0  0  0  0  0  0  0  0  0  0
   13.8484  -14.7318   19.5911 C   0  0  0  0  0  0  0  0  0  0  0  0
   14.0282  -13.1747   19.5923 C   0  0  0  0  0  0  0  0  0  0  0  0
   14.2174  -12.5629   18.5471 O   0  0  0  0  0  0  0  0  0  0  0  0
   14.0112  -12.5578   20.8190 N   0  0  0  0  0  0  0  0  0  0  0  0
   13.8918  -13.0782   21.6462 H   0  0  0  0  0  0  0  0  0  0  0  0
   14.1745  -11.1156   20.8605 C   0  0  0  0  0  0  0  0  0  0  0  0
   12.8529  -10.4530   21.1921 C   0  0  0  0  0  0  0  0  0  0  0  0
   12.6459  -10.5162   22.6867 C   0  0  0  0  0  0  0  0  0  0  0  0
   11.3653  -11.1801   23.0113 N   0  0  0  0  0  0  0  0  0  0  0  0
   10.5185  -10.6988   22.8683 H   0  0  0  0  0  0  0  0  0  0  0  0
   11.3430  -12.4058   23.4886 C   0  0  0  0  0  0  0  0  0  0  0  0
   10.4002  -12.7802   24.2842 N   0  0  0  0  0  0  0  0  0  0  0  0
   12.2854  -13.2484   23.1795 N   0  0  0  0  0  0  0  0  0  0  0  0
    9.6815  -12.1521   24.5256 H   0  0  0  0  0  0  0  0  0  0  0  0
   10.3989  -13.6941   24.6502 H   0  0  0  0  0  0  0  0  0  0  0  0
   13.0110  -12.9746   22.5730 H   0  0  0  0  0  0  0  0  0  0  0  0
   18.3575  -15.8079   21.1438 N   0  0  0  0  0  0  0  0  0  0  0  0
   18.7301  -16.7543   21.2205 H   0  0  0  0  0  0  0  0  0  0  0  0
   19.4261  -14.8004   21.9738 S   0  0  0  0  0  0  0  0  0  0  0  0
   18.6088  -13.8152   22.7695 O   0  0  0  0  0  0  0  0  0  0  0  0
   20.4272  -14.3228   21.1078 O   0  0  0  0  0  0  0  0  0  0  0  0
   20.1751  -16.0449   23.1213 C   0  0  0  0  0  0  0  0  0  0  0  0
   20.8499  -14.0783   26.9512 C   0  0  0  0  0  0  0  0  0  0  0  0
   21.6397  -13.7324   25.8601 C   0  0  0  0  0  0  0  0  0  0  0  0
   21.4222  -14.3733   24.6092 C   0  0  0  0  0  0  0  0  0  0  0  0
   20.4083  -15.3411   24.4738 C   0  0  0  0  0  0  0  0  0  0  0  0
   19.6344  -15.6838   25.5713 C   0  0  0  0  0  0  0  0  0  0  0  0
   19.8430  -15.0621   26.7987 C   0  0  0  0  0  0  0  0  0  0  0  0
 32 33  2  0  0  0
 32 37  1  0  0  0
 33 34  1  0  0  0
 34 35  2  0  0  0
 35 36  1  0  0  0
 35 31  1  0  0  0
 36 37  2  0  0  0
 31 28  1  0  0  0
 28 29  2  0  0  0
 28 30  2  0  0  0
 28 26  1  0  0  0
 26  1  1  0  0  0
  1  2  1  0  0  0
  1  7  1  0  0  0
  2  3  2  0  0  0
  2  4  1  0  0  0
  4  5  1  0  0  0
  4 10  1  0  0  0
  5  6  1  0  0  0
  5  8  1  0  0  0
  6  7  1  0  0  0
  8  9  1  0  0  0
  9 10  1  0  0  0
 10 11  1  0  0  0
 11 12  2  0  0  0
 11 13  1  0  0  0
 13 15  1  0  0  0
 15 16  1  0  0  0
 16 17  1  0  0  0
 17 18  1  0  0  0
 18 20  1  0  0  0
 20 21  1  0  0  0
 20 22  2  0  0  0
 26 27  1  0  0  0
 13 14  1  0  0  0
 18 19  1  0  0  0
 21 23  1  0  0  0
 21 24  1  0  0  0
 22 25  1  0  0  0
M  END
> <minimizedAffinity>
-8.44326

$$$$
1BHX_R56_F_1


 37 39  0  0  0  0  0  0  0  0999 V2000
   16.4239  -16.4161   22.1427 C   0  0  0  0  0  0  0  0  0  0  0  0
   15.7521  -16.0329   20.8481 C   0  0  0  0  0  0  0  0  0  0  0  0
   16.4259  -15.5885   19.9068 O   0  0  0  0  0  0  0  0  0  0  0  0
   14.4052  -16.1847   20.7991 N   0  0  0  0  0  0  0  0  0  0  0  0
   13.6991  -16.7104   21.9390 C   0  0  0  0  0  0  0  0  0  0  0  0
   14.3621  -17.9588   22.4657 C   0  0  0  0  0  0  0  0  0  0  0  0
   15.8735  -17.7555   22.6972 C   0  0  0  0  0  0  0  0  0  0  0  0
   12.1614  -17.2095   21.2615 S   0  0  0  0  0  0  0  0  0  0  0  0
   12.2004  -15.9267   19.9850 C   0  0  0  0  0  0  0  0  0  0  0  0
   13.6345  -15.8232   19.5844 C   0  0  0  0  0  0  0  0  0  0  0  0
   13.9537  -14.3695   19.0924 C   0  0  0  0  0  0  0  0  0  0  0  0
   13.5695  -13.3929   19.7257 O   0  0  0  0  0  0  0  0  0  0  0  0
   14.6337  -14.2613   17.9043 N   0  0  0  0  0  0  0  0  0  0  0  0
   14.9004  -15.0626   17.3983 H   0  0  0  0  0  0  0  0  0  0  0  0
   14.9480  -12.9304   17.4162 C   0  0  0  0  0  0  0  0  0  0  0  0
   16.3937  -12.8703   16.9668 C   0  0  0  0  0  0  0  0  0  0  0  0
   17.2689  -12.7028   18.1861 C   0  0  0  0  0  0  0  0  0  0  0  0
   16.5368  -12.0066   19.2657 N   0  0  0  0  0  0  0  0  0  0  0  0
   15.7763  -11.4237   19.0395 H   0  0  0  0  0  0  0  0  0  0  0  0
   16.8885  -12.1561   20.5244 C   0  0  0  0  0  0  0  0  0  0  0  0
   18.0978  -11.9122   20.8984 N   0  0  0  0  0  0  0  0  0  0  0  0
   16.0237  -12.5730   21.4030 N   0  0  0  0  0  0  0  0  0  0  0  0
   18.7614  -11.5963   20.2434 H   0  0  0  0  0  0  0  0  0  0  0  0
   18.3578  -12.0418   21.8391 H   0  0  0  0  0  0  0  0  0  0  0  0
   15.0970  -12.7628   21.1300 H   0  0  0  0  0  0  0  0  0  0  0  0
   17.8656  -16.5551   21.9216 N   0  0  0  0  0  0  0  0  0  0  0  0
   18.1873  -17.2910   22.5503 H   0  0  0  0  0  0  0  0  0  0  0  0
   18.9011  -15.2423   22.1461 S   0  0  0  0  0  0  0  0  0  0  0  0
   18.2173  -14.2669   23.0694 O   0  0  0  0  0  0  0  0  0  0  0  0
   19.3966  -14.7879   20.9099 O   0  0  0  0  0  0  0  0  0  0  0  0
   20.2674  -16.0960   23.0578 C   0  0  0  0  0  0  0  0  0  0  0  0
   20.6542  -14.1111   26.9182 C   0  0  0  0  0  0  0  0  0  0  0  0
   19.8008  -15.2024   26.7966 C   0  0  0  0  0  0  0  0  0  0  0  0
   19.6721  -15.8516   25.5376 C   0  0  0  0  0  0  0  0  0  0  0  0
   20.4109  -15.4004   24.4271 C   0  0  0  0  0  0  0  0  0  0  0  0
   21.2508  -14.3058   24.5591 C   0  0  0  0  0  0  0  0  0  0  0  0
   21.3801  -13.6648   25.7874 C   0  0  0  0  0  0  0  0  0  0  0  0
 32 33  2  0  0  0
 32 37  1  0  0  0
 33 34  1  0  0  0
 34 35  2  0  0  0
 35 36  1  0  0  0
 35 31  1  0  0  0
 36 37  2  0  0  0
 31 28  1  0  0  0
 28 29  2  0  0  0
 28 30  2  0  0  0
 28 26  1  0  0  0
 26  1  1  0  0  0
  1  2  1  0  0  0
  1  7  1  0  0  0
  2  3  2  0  0  0
  2  4  1  0  0  0
  4  5  1  0  0  0
  4 10  1  0  0  0
  5  6  1  0  0  0
  5  8  1  0  0  0
  6  7  1  0  0  0
  8  9  1  0  0  0
  9 10  1  0  0  0
 10 11  1  0  0  0
 11 12  2  0  0  0
 11 13  1  0  0  0
 13 15  1  0  0  0
 15 16  1  0  0  0
 16 17  1  0  0  0
 17 18  1  0  0  0
 18 20  1  0  0  0
 20 21  1  0  0  0
 20 22  2  0  0  0
 26 27  1  0  0  0
 13 14  1  0  0  0
 18 19  1  0  0  0
 21 23  1  0  0  0
 21 24  1  0  0  0
 22 25  1  0  0  0
M  END
> <minimizedAffinity>
-8.31865

$$$$
1BHX_R56_F_1


 37 39  0  0  0  0  0  0  0  0999 V2000
   18.4018  -15.4239   22.8622 C   0  0  0  0  0  0  0  0  0  0  0  0
   17.4445  -14.4948   22.1589 C   0  0  0  0  0  0  0  0  0  0  0  0
   16.3410  -14.2413   22.6646 O   0  0  0  0  0  0  0  0  0  0  0  0
   17.8558  -13.9932   20.9678 N   0  0  0  0  0  0  0  0  0  0  0  0
   19.1558  -14.3382   20.4529 C   0  0  0  0  0  0  0  0  0  0  0  0
   20.2238  -14.1697   21.5048 C   0  0  0  0  0  0  0  0  0  0  0  0
   19.8551  -14.8850   22.8208 C   0  0  0  0  0  0  0  0  0  0  0  0
   19.4474  -13.1035   19.2432 S   0  0  0  0  0  0  0  0  0  0  0  0
   17.6861  -12.9243   18.8656 C   0  0  0  0  0  0  0  0  0  0  0  0
   16.9912  -13.0836   20.1769 C   0  0  0  0  0  0  0  0  0  0  0  0
   15.5555  -13.6737   19.9587 C   0  0  0  0  0  0  0  0  0  0  0  0
   15.3862  -14.6807   19.2806 O   0  0  0  0  0  0  0  0  0  0  0  0
   14.5154  -12.9764   20.5220 N   0  0  0  0  0  0  0  0  0  0  0  0
   14.6769  -12.1507   21.0333 H   0  0  0  0  0  0  0  0  0  0  0  0
   13.1702  -13.4925   20.3416 C   0  0  0  0  0  0  0  0  0  0  0  0
   12.3152  -13.1445   21.5431 C   0  0  0  0  0  0  0  0  0  0  0  0
   12.8253  -11.8533   22.1375 C   0  0  0  0  0  0  0  0  0  0  0  0
   11.7042  -11.0199   22.6219 N   0  0  0  0  0  0  0  0  0  0  0  0
   11.1720  -10.4994   21.9777 H   0  0  0  0  0  0  0  0  0  0  0  0
   11.4088  -10.9650   23.9026 C   0  0  0  0  0  0  0  0  0  0  0  0
   11.9192  -10.0490   24.6524 N   0  0  0  0  0  0  0  0  0  0  0  0
   10.6138  -11.8491   24.4318 N   0  0  0  0  0  0  0  0  0  0  0  0
   12.5221   -9.3744   24.2641 H   0  0  0  0  0  0  0  0  0  0  0  0
   11.7062  -10.0239   25.6132 H   0  0  0  0  0  0  0  0  0  0  0  0
   10.2175  -12.5538   23.8700 H   0  0  0  0  0  0  0  0  0  0  0  0
   17.9954  -15.5748   24.2618 N   0  0  0  0  0  0  0  0  0  0  0  0
   18.5873  -14.9476   24.8064 H   0  0  0  0  0  0  0  0  0  0  0  0
   18.0625  -17.0804   25.0198 S   0  0  0  0  0  0  0  0  0  0  0  0
   18.9992  -17.9555   24.2272 O   0  0  0  0  0  0  0  0  0  0  0  0
   16.7662  -17.5452   25.3092 O   0  0  0  0  0  0  0  0  0  0  0  0
   18.8823  -16.5787   26.6018 C   0  0  0  0  0  0  0  0  0  0  0  0
   22.4149  -14.2402   25.5801 C   0  0  0  0  0  0  0  0  0  0  0  0
   22.4183  -15.6123   25.3538 C   0  0  0  0  0  0  0  0  0  0  0  0
   21.2670  -16.3781   25.6872 C   0  0  0  0  0  0  0  0  0  0  0  0
   20.1296  -15.7505   26.2307 C   0  0  0  0  0  0  0  0  0  0  0  0
   20.1424  -14.3838   26.4601 C   0  0  0  0  0  0  0  0  0  0  0  0
   21.2661  -13.6288   26.1382 C   0  0  0  0  0  0  0  0  0  0  0  0
 32 33  2  0  0  0
 32 37  1  0  0  0
 33 34  1  0  0  0
 34 35  2  0  0  0
 35 36  1  0  0  0
 35 31  1  0  0  0
 36 37  2  0  0  0
 31 28  1  0  0  0
 28 29  2  0  0  0
 28 30  2  0  0  0
 28 26  1  0  0  0
 26  1  1  0  0  0
  1  2  1  0  0  0
  1  7  1  0  0  0
  2  3  2  0  0  0
  2  4  1  0  0  0
  4  5  1  0  0  0
  4 10  1  0  0  0
  5  6  1  0  0  0
  5  8  1  0  0  0
  6  7  1  0  0  0
  8  9  1  0  0  0
  9 10  1  0  0  0
 10 11  1  0  0  0
 11 12  2  0  0  0
 11 13  1  0  0  0
 13 15  1  0  0  0
 15 16  1  0  0  0
 16 17  1  0  0  0
 17 18  1  0  0  0
 18 20  1  0  0  0
 20 21  1  0  0  0
 20 22  2  0  0  0
 26 27  1  0  0  0
 13 14  1  0  0  0
 18 19  1  0  0  0
 21 23  1  0  0  0
 21 24  1  0  0  0
 22 25  1  0  0  0
M  END
> <minimizedAffinity>
-8.27380

$$$$
1BHX_R56_F_1


 37 39  0  0  0  0  0  0  0  0999 V2000
   16.7847  -16.8653   21.8674 C   0  0  0  0  0  0  0  0  0  0  0  0
   15.5601  -16.4118   21.1133 C   0  0  0  0  0  0  0  0  0  0  0  0
   15.6146  -15.4086   20.3863 O   0  0  0  0  0  0  0  0  0  0  0  0
   14.4323  -17.1420   21.2987 N   0  0  0  0  0  0  0  0  0  0  0  0
   14.4566  -18.2957   22.1605 C   0  0  0  0  0  0  0  0  0  0  0  0
   15.6303  -19.1896   21.8460 C   0  0  0  0  0  0  0  0  0  0  0  0
   16.9576  -18.4049   21.8029 C   0  0  0  0  0  0  0  0  0  0  0  0
   13.0169  -19.1776   21.6888 S   0  0  0  0  0  0  0  0  0  0  0  0
   12.1282  -17.6685   21.2311 C   0  0  0  0  0  0  0  0  0  0  0  0
   13.1622  -16.7799   20.6235 C   0  0  0  0  0  0  0  0  0  0  0  0
   12.7809  -15.2762   20.8481 C   0  0  0  0  0  0  0  0  0  0  0  0
   12.0255  -14.6970   20.0758 O   0  0  0  0  0  0  0  0  0  0  0  0
   13.3746  -14.6473   21.9147 N   0  0  0  0  0  0  0  0  0  0  0  0
   14.0048  -15.1274   22.4993 H   0  0  0  0  0  0  0  0  0  0  0  0
   13.0458  -13.2537   22.1552 C   0  0  0  0  0  0  0  0  0  0  0  0
   14.2732  -12.3885   21.9537 C   0  0  0  0  0  0  0  0  0  0  0  0
   14.4151  -12.0925   20.4796 C   0  0  0  0  0  0  0  0  0  0  0  0
   15.7080  -11.4323   20.1993 N   0  0  0  0  0  0  0  0  0  0  0  0
   15.7211  -10.4888   19.9184 H   0  0  0  0  0  0  0  0  0  0  0  0
   16.8412  -12.0895   20.3204 C   0  0  0  0  0  0  0  0  0  0  0  0
   17.7128  -11.7324   21.2006 N   0  0  0  0  0  0  0  0  0  0  0  0
   17.1042  -13.0952   19.5374 N   0  0  0  0  0  0  0  0  0  0  0  0
   17.5258  -10.9733   21.7988 H   0  0  0  0  0  0  0  0  0  0  0  0
   18.5655  -12.2190   21.2745 H   0  0  0  0  0  0  0  0  0  0  0  0
   16.4468  -13.3776   18.8612 H   0  0  0  0  0  0  0  0  0  0  0  0
   17.9743  -16.2335   21.2908 N   0  0  0  0  0  0  0  0  0  0  0  0
   18.6425  -16.9822   21.1081 H   0  0  0  0  0  0  0  0  0  0  0  0
   18.8099  -15.0379   22.1383 S   0  0  0  0  0  0  0  0  0  0  0  0
   17.8268  -14.3395   23.0423 O   0  0  0  0  0  0  0  0  0  0  0  0
   19.6012  -14.2732   21.2612 O   0  0  0  0  0  0  0  0  0  0  0  0
   19.9193  -16.1163   23.1545 C   0  0  0  0  0  0  0  0  0  0  0  0
   20.7992  -13.9957   26.8586 C   0  0  0  0  0  0  0  0  0  0  0  0
   21.4143  -13.5895   25.6793 C   0  0  0  0  0  0  0  0  0  0  0  0
   21.1296  -14.2804   24.4691 C   0  0  0  0  0  0  0  0  0  0  0  0
   20.2240  -15.3587   24.4631 C   0  0  0  0  0  0  0  0  0  0  0  0
   19.6249  -15.7597   25.6469 C   0  0  0  0  0  0  0  0  0  0  0  0
   19.9004  -15.0895   26.8348 C   0  0  0  0  0  0  0  0  0  0  0  0
 32 33  2  0  0  0
 32 37  1  0  0  0
 33 34  1  0  0  0
 34 35  2  0  0  0
 35 36  1  0  0  0
 35 31  1  0  0  0
 36 37  2  0  0  0
 31 28  1  0  0  0
 28 29  2  0  0  0
 28 30  2  0  0  0
 28 26  1  0  0  0
 26  1  1  0  0  0
  1  2  1  0  0  0
  1  7  1  0  0  0
  2  3  2  0  0  0
  2  4  1  0  0  0
  4  5  1  0  0  0
  4 10  1  0  0  0
  5  6  1  0  0  0
  5  8  1  0  0  0
  6  7  1  0  0  0
  8  9  1  0  0  0
  9 10  1  0  0  0
 10 11  1  0  0  0
 11 12  2  0  0  0
 11 13  1  0  0  0
 13 15  1  0  0  0
 15 16  1  0  0  0
 16 17  1  0  0  0
 17 18  1  0  0  0
 18 20  1  0  0  0
 20 21  1  0  0  0
 20 22  2  0  0  0
 26 27  1  0  0  0
 13 14  1  0  0  0
 18 19  1  0  0  0
 21 23  1  0  0  0
 21 24  1  0  0  0
 22 25  1  0  0  0
M  END
> <minimizedAffinity>
-8.06008

$$$$
1BHX_R56_F_1


 37 39  0  0  0  0  0  0  0  0999 V2000
   18.2336  -15.6055   22.9034 C   0  0  0  0  0  0  0  0  0  0  0  0
   17.3761  -14.5721   22.2173 C   0  0  0  0  0  0  0  0  0  0  0  0
   16.2716  -14.2676   22.6917 O   0  0  0  0  0  0  0  0  0  0  0  0
   17.8741  -14.0366   21.0750 N   0  0  0  0  0  0  0  0  0  0  0  0
   19.1684  -14.4459   20.5939 C   0  0  0  0  0  0  0  0  0  0  0  0
   20.1977  -14.4137   21.6962 C   0  0  0  0  0  0  0  0  0  0  0  0
   19.7215  -15.1720   22.9523 C   0  0  0  0  0  0  0  0  0  0  0  0
   19.5993  -13.1707   19.4710 S   0  0  0  0  0  0  0  0  0  0  0  0
   17.8735  -12.8437   19.0335 C   0  0  0  0  0  0  0  0  0  0  0  0
   17.1115  -13.0244   20.3041 C   0  0  0  0  0  0  0  0  0  0  0  0
   15.6491  -13.4960   19.9939 C   0  0  0  0  0  0  0  0  0  0  0  0
   15.4416  -14.5065   19.3320 O   0  0  0  0  0  0  0  0  0  0  0  0
   14.6361  -12.6937   20.4585 N   0  0  0  0  0  0  0  0  0  0  0  0
   14.8321  -11.8685   20.9584 H   0  0  0  0  0  0  0  0  0  0  0  0
   13.2675  -13.0981   20.1909 C   0  0  0  0  0  0  0  0  0  0  0  0
   12.5683  -13.4533   21.4873 C   0  0  0  0  0  0  0  0  0  0  0  0
   12.4118  -14.9539   21.5530 C   0  0  0  0  0  0  0  0  0  0  0  0
   13.4358  -15.5498   22.4374 N   0  0  0  0  0  0  0  0  0  0  0  0
   13.5617  -15.1912   23.3456 H   0  0  0  0  0  0  0  0  0  0  0  0
   14.1808  -16.5531   22.0265 C   0  0  0  0  0  0  0  0  0  0  0  0
   14.9231  -17.1997   22.8588 N   0  0  0  0  0  0  0  0  0  0  0  0
   14.1930  -16.8905   20.7696 N   0  0  0  0  0  0  0  0  0  0  0  0
   14.9228  -16.9542   23.8122 H   0  0  0  0  0  0  0  0  0  0  0  0
   15.4903  -17.9390   22.5411 H   0  0  0  0  0  0  0  0  0  0  0  0
   13.6307  -16.4045   20.1240 H   0  0  0  0  0  0  0  0  0  0  0  0
   17.7557  -15.8037   24.2742 N   0  0  0  0  0  0  0  0  0  0  0  0
   18.2628  -15.1390   24.8586 H   0  0  0  0  0  0  0  0  0  0  0  0
   17.8936  -17.3083   25.0245 S   0  0  0  0  0  0  0  0  0  0  0  0
   18.9485  -18.0958   24.2907 O   0  0  0  0  0  0  0  0  0  0  0  0
   16.6226  -17.8789   25.2228 O   0  0  0  0  0  0  0  0  0  0  0  0
   18.5633  -16.7621   26.6616 C   0  0  0  0  0  0  0  0  0  0  0  0
   22.2064  -14.4911   25.9119 C   0  0  0  0  0  0  0  0  0  0  0  0
   22.2092  -15.8674   25.7126 C   0  0  0  0  0  0  0  0  0  0  0  0
   21.0218  -16.6112   25.9573 C   0  0  0  0  0  0  0  0  0  0  0  0
   19.8505  -15.9580   26.3865 C   0  0  0  0  0  0  0  0  0  0  0  0
   19.8634  -14.5872   26.5905 C   0  0  0  0  0  0  0  0  0  0  0  0
   21.0222  -13.8536   26.3549 C   0  0  0  0  0  0  0  0  0  0  0  0
 32 33  2  0  0  0
 32 37  1  0  0  0
 33 34  1  0  0  0
 34 35  2  0  0  0
 35 36  1  0  0  0
 35 31  1  0  0  0
 36 37  2  0  0  0
 31 28  1  0  0  0
 28 29  2  0  0  0
 28 30  2  0  0  0
 28 26  1  0  0  0
 26  1  1  0  0  0
  1  2  1  0  0  0
  1  7  1  0  0  0
  2  3  2  0  0  0
  2  4  1  0  0  0
  4  5  1  0  0  0
  4 10  1  0  0  0
  5  6  1  0  0  0
  5  8  1  0  0  0
  6  7  1  0  0  0
  8  9  1  0  0  0
  9 10  1  0  0  0
 10 11  1  0  0  0
 11 12  2  0  0  0
 11 13  1  0  0  0
 13 15  1  0  0  0
 15 16  1  0  0  0
 16 17  1  0  0  0
 17 18  1  0  0  0
 18 20  1  0  0  0
 20 21  1  0  0  0
 20 22  2  0  0  0
 26 27  1  0  0  0
 13 14  1  0  0  0
 18 19  1  0  0  0
 21 23  1  0  0  0
 21 24  1  0  0  0
 22 25  1  0  0  0
M  END
> <minimizedAffinity>
-8.01152

$$$$
1BHX_R56_F_1


 37 39  0  0  0  0  0  0  0  0999 V2000
   15.7712  -17.1977   22.3308 C   0  0  0  0  0  0  0  0  0  0  0  0
   15.3355  -16.5597   21.0358 C   0  0  0  0  0  0  0  0  0  0  0  0
   16.1674  -15.9916   20.3128 O   0  0  0  0  0  0  0  0  0  0  0  0
   14.0133  -16.6322   20.7422 N   0  0  0  0  0  0  0  0  0  0  0  0
   13.1144  -17.3135   21.6379 C   0  0  0  0  0  0  0  0  0  0  0  0
   13.6531  -18.6668   22.0296 C   0  0  0  0  0  0  0  0  0  0  0  0
   15.1078  -18.5840   22.5363 C   0  0  0  0  0  0  0  0  0  0  0  0
   11.7030  -17.6075   20.6407 S   0  0  0  0  0  0  0  0  0  0  0  0
   11.9832  -16.1241   19.6417 C   0  0  0  0  0  0  0  0  0  0  0  0
   13.4661  -16.0245   19.5046 C   0  0  0  0  0  0  0  0  0  0  0  0
   13.8937  -14.5251   19.3431 C   0  0  0  0  0  0  0  0  0  0  0  0
   14.3135  -14.1031   18.2716 O   0  0  0  0  0  0  0  0  0  0  0  0
   13.8173  -13.7426   20.4688 N   0  0  0  0  0  0  0  0  0  0  0  0
   13.5088  -14.1164   21.3258 H   0  0  0  0  0  0  0  0  0  0  0  0
   14.2048  -12.3476   20.3583 C   0  0  0  0  0  0  0  0  0  0  0  0
   13.0779  -11.4562   20.8390 C   0  0  0  0  0  0  0  0  0  0  0  0
   12.4013  -12.1272   22.0106 C   0  0  0  0  0  0  0  0  0  0  0  0
   11.6853  -11.1355   22.8413 N   0  0  0  0  0  0  0  0  0  0  0  0
   11.5922  -10.2095   22.5204 H   0  0  0  0  0  0  0  0  0  0  0  0
   11.1710  -11.4747   24.0036 C   0  0  0  0  0  0  0  0  0  0  0  0
   10.4136  -12.5129   24.1051 N   0  0  0  0  0  0  0  0  0  0  0  0
   11.4042  -10.7527   25.0609 N   0  0  0  0  0  0  0  0  0  0  0  0
   10.2295  -13.0673   23.3126 H   0  0  0  0  0  0  0  0  0  0  0  0
   10.0192  -12.7514   24.9751 H   0  0  0  0  0  0  0  0  0  0  0  0
   11.9810   -9.9574   24.9965 H   0  0  0  0  0  0  0  0  0  0  0  0
   17.2264  -17.3684   22.3250 N   0  0  0  0  0  0  0  0  0  0  0  0
   17.4048  -18.3405   22.0726 H   0  0  0  0  0  0  0  0  0  0  0  0
   18.1351  -17.0559   23.7116 S   0  0  0  0  0  0  0  0  0  0  0  0
   19.4735  -17.7293   23.5486 O   0  0  0  0  0  0  0  0  0  0  0  0
   17.3738  -17.3092   24.8677 O   0  0  0  0  0  0  0  0  0  0  0  0
   18.3417  -15.2260   23.5235 C   0  0  0  0  0  0  0  0  0  0  0  0
   21.9949  -14.1353   25.6345 C   0  0  0  0  0  0  0  0  0  0  0  0
   22.0172  -14.2465   24.2484 C   0  0  0  0  0  0  0  0  0  0  0  0
   20.8265  -14.6031   23.5570 C   0  0  0  0  0  0  0  0  0  0  0  0
   19.6329  -14.8302   24.2688 C   0  0  0  0  0  0  0  0  0  0  0  0
   19.6262  -14.7255   25.6507 C   0  0  0  0  0  0  0  0  0  0  0  0
   20.7880  -14.3788   26.3338 C   0  0  0  0  0  0  0  0  0  0  0  0
 32 33  2  0  0  0
 32 37  1  0  0  0
 33 34  1  0  0  0
 34 35  2  0  0  0
 35 36  1  0  0  0
 35 31  1  0  0  0
 36 37  2  0  0  0
 31 28  1  0  0  0
 28 29  2  0  0  0
 28 30  2  0  0  0
 28 26  1  0  0  0
 26  1  1  0  0  0
  1  2  1  0  0  0
  1  7  1  0  0  0
  2  3  2  0  0  0
  2  4  1  0  0  0
  4  5  1  0  0  0
  4 10  1  0  0  0
  5  6  1  0  0  0
  5  8  1  0  0  0
  6  7  1  0  0  0
  8  9  1  0  0  0
  9 10  1  0  0  0
 10 11  1  0  0  0
 11 12  2  0  0  0
 11 13  1  0  0  0
 13 15  1  0  0  0
 15 16  1  0  0  0
 16 17  1  0  0  0
 17 18  1  0  0  0
 18 20  1  0  0  0
 20 21  1  0  0  0
 20 22  2  0  0  0
 26 27  1  0  0  0
 13 14  1  0  0  0
 18 19  1  0  0  0
 21 23  1  0  0  0
 21 24  1  0  0  0
 22 25  1  0  0  0
M  END
> <minimizedAffinity>
-7.49229

$$$$
1BHX_R56_F_1


 37 39  0  0  0  0  0  0  0  0999 V2000
   13.2778  -15.9052   20.7197 C   0  0  0  0  0  0  0  0  0  0  0  0
   12.9910  -17.1195   21.5666 C   0  0  0  0  0  0  0  0  0  0  0  0
   13.2284  -17.0979   22.7835 O   0  0  0  0  0  0  0  0  0  0  0  0
   12.4931  -18.2025   20.9196 N   0  0  0  0  0  0  0  0  0  0  0  0
   12.2449  -18.1419   19.5022 C   0  0  0  0  0  0  0  0  0  0  0  0
   11.4787  -16.8960   19.1333 C   0  0  0  0  0  0  0  0  0  0  0  0
   12.1298  -15.6247   19.7159 C   0  0  0  0  0  0  0  0  0  0  0  0
   11.1627  -19.4932   19.2276 S   0  0  0  0  0  0  0  0  0  0  0  0
   11.8728  -20.4593   20.5837 C   0  0  0  0  0  0  0  0  0  0  0  0
   12.1899  -19.4599   21.6459 C   0  0  0  0  0  0  0  0  0  0  0  0
   13.4039  -19.9533   22.5061 C   0  0  0  0  0  0  0  0  0  0  0  0
   13.2529  -20.2783   23.6783 O   0  0  0  0  0  0  0  0  0  0  0  0
   14.6312  -19.9503   21.8904 N   0  0  0  0  0  0  0  0  0  0  0  0
   14.7294  -19.6513   20.9576 H   0  0  0  0  0  0  0  0  0  0  0  0
   15.7801  -20.4011   22.6554 C   0  0  0  0  0  0  0  0  0  0  0  0
   16.5235  -19.2105   23.2257 C   0  0  0  0  0  0  0  0  0  0  0  0
   16.6535  -18.1632   22.1455 C   0  0  0  0  0  0  0  0  0  0  0  0
   16.2790  -16.8289   22.6607 N   0  0  0  0  0  0  0  0  0  0  0  0
   15.4385  -16.7198   23.1616 H   0  0  0  0  0  0  0  0  0  0  0  0
   17.0543  -15.7856   22.4582 C   0  0  0  0  0  0  0  0  0  0  0  0
   17.5337  -15.5453   21.2859 N   0  0  0  0  0  0  0  0  0  0  0  0
   17.3637  -14.9958   23.4452 N   0  0  0  0  0  0  0  0  0  0  0  0
   17.3071  -16.1353   20.5310 H   0  0  0  0  0  0  0  0  0  0  0  0
   18.1263  -14.7718   21.1455 H   0  0  0  0  0  0  0  0  0  0  0  0
   17.0041  -15.1686   24.3452 H   0  0  0  0  0  0  0  0  0  0  0  0
   13.4425  -14.7346   21.5855 N   0  0  0  0  0  0  0  0  0  0  0  0
   12.5147  -14.3283   21.7059 H   0  0  0  0  0  0  0  0  0  0  0  0
   14.4677  -13.4714   21.1389 S   0  0  0  0  0  0  0  0  0  0  0  0
   15.2131  -13.8971   19.9001 O   0  0  0  0  0  0  0  0  0  0  0  0
   15.1922  -13.0071   22.2523 O   0  0  0  0  0  0  0  0  0  0  0  0
   13.1961  -12.2049   20.6853 C   0  0  0  0  0  0  0  0  0  0  0  0
   11.5039  -10.7104   24.4129 C   0  0  0  0  0  0  0  0  0  0  0  0
   12.4100   -9.9216   23.7123 C   0  0  0  0  0  0  0  0  0  0  0  0
   12.9645  -10.4073   22.4959 C   0  0  0  0  0  0  0  0  0  0  0  0
   12.5903  -11.6707   21.9995 C   0  0  0  0  0  0  0  0  0  0  0  0
   11.6936  -12.4512   22.7120 C   0  0  0  0  0  0  0  0  0  0  0  0
   11.1487  -11.9830   23.9038 C   0  0  0  0  0  0  0  0  0  0  0  0
 32 33  2  0  0  0
 32 37  1  0  0  0
 33 34  1  0  0  0
 34 35  2  0  0  0
 35 36  1  0  0  0
 35 31  1  0  0  0
 36 37  2  0  0  0
 31 28  1  0  0  0
 28 29  2  0  0  0
 28 30  2  0  0  0
 28 26  1  0  0  0
 26  1  1  0  0  0
  1  2  1  0  0  0
  1  7  1  0  0  0
  2  3  2  0  0  0
  2  4  1  0  0  0
  4  5  1  0  0  0
  4 10  1  0  0  0
  5  6  1  0  0  0
  5  8  1  0  0  0
  6  7  1  0  0  0
  8  9  1  0  0  0
  9 10  1  0  0  0
 10 11  1  0  0  0
 11 12  2  0  0  0
 11 13  1  0  0  0
 13 15  1  0  0  0
 15 16  1  0  0  0
 16 17  1  0  0  0
 17 18  1  0  0  0
 18 20  1  0  0  0
 20 21  1  0  0  0
 20 22  2  0  0  0
 26 27  1  0  0  0
 13 14  1  0  0  0
 18 19  1  0  0  0
 21 23  1  0  0  0
 21 24  1  0  0  0
 22 25  1  0  0  0
M  END
> <minimizedAffinity>
-7.31404

$$$$
1BHX_R56_F_1


 37 39  0  0  0  0  0  0  0  0999 V2000
   17.2142  -18.1400   22.4870 C   0  0  0  0  0  0  0  0  0  0  0  0
   16.6164  -16.9521   21.7759 C   0  0  0  0  0  0  0  0  0  0  0  0
   17.0072  -15.8063   22.0446 O   0  0  0  0  0  0  0  0  0  0  0  0
   15.6419  -17.2182   20.8708 N   0  0  0  0  0  0  0  0  0  0  0  0
   15.2486  -18.5803   20.6176 C   0  0  0  0  0  0  0  0  0  0  0  0
   16.4499  -19.4638   20.3897 C   0  0  0  0  0  0  0  0  0  0  0  0
   17.5015  -19.3070   21.5073 C   0  0  0  0  0  0  0  0  0  0  0  0
   14.4080  -18.4751   19.0830 S   0  0  0  0  0  0  0  0  0  0  0  0
   13.8390  -16.7867   19.4032 C   0  0  0  0  0  0  0  0  0  0  0  0
   14.9682  -16.1281   20.1236 C   0  0  0  0  0  0  0  0  0  0  0  0
   14.4215  -15.0090   21.0754 C   0  0  0  0  0  0  0  0  0  0  0  0
   13.5773  -15.2647   21.9265 O   0  0  0  0  0  0  0  0  0  0  0  0
   14.9015  -13.7396   20.8660 N   0  0  0  0  0  0  0  0  0  0  0  0
   15.5541  -13.5561   20.1520 H   0  0  0  0  0  0  0  0  0  0  0  0
   14.4185  -12.6760   21.7284 C   0  0  0  0  0  0  0  0  0  0  0  0
   13.2479  -11.9696   21.0754 C   0  0  0  0  0  0  0  0  0  0  0  0
   12.0893  -11.9642   22.0440 C   0  0  0  0  0  0  0  0  0  0  0  0
   11.9982  -10.6660   22.7456 N   0  0  0  0  0  0  0  0  0  0  0  0
   12.2622   -9.8411   22.2776 H   0  0  0  0  0  0  0  0  0  0  0  0
   11.5689  -10.5990   23.9873 C   0  0  0  0  0  0  0  0  0  0  0  0
   10.7035  -11.4477   24.4263 N   0  0  0  0  0  0  0  0  0  0  0  0
   11.9976   -9.6608   24.7808 N   0  0  0  0  0  0  0  0  0  0  0  0
   10.3714  -12.1621   23.8359 H   0  0  0  0  0  0  0  0  0  0  0  0
   10.3748  -11.3815   25.3519 H   0  0  0  0  0  0  0  0  0  0  0  0
   12.6584   -9.0065   24.4576 H   0  0  0  0  0  0  0  0  0  0  0  0
   18.4707  -17.7432   23.1278 N   0  0  0  0  0  0  0  0  0  0  0  0
   19.2218  -18.1713   22.5865 H   0  0  0  0  0  0  0  0  0  0  0  0
   18.7677  -18.1186   24.7454 S   0  0  0  0  0  0  0  0  0  0  0  0
   20.2584  -18.0765   24.9634 O   0  0  0  0  0  0  0  0  0  0  0  0
   18.0491  -19.2673   25.1252 O   0  0  0  0  0  0  0  0  0  0  0  0
   17.9891  -16.6391   25.5401 C   0  0  0  0  0  0  0  0  0  0  0  0
   21.0658  -13.5790   25.9422 C   0  0  0  0  0  0  0  0  0  0  0  0
   20.7132  -14.3395   27.0519 C   0  0  0  0  0  0  0  0  0  0  0  0
   19.7087  -15.3383   26.9237 C   0  0  0  0  0  0  0  0  0  0  0  0
   19.0852  -15.5630   25.6813 C   0  0  0  0  0  0  0  0  0  0  0  0
   19.4389  -14.7919   24.5853 C   0  0  0  0  0  0  0  0  0  0  0  0
   20.4194  -13.8117   24.7041 C   0  0  0  0  0  0  0  0  0  0  0  0
 32 33  2  0  0  0
 32 37  1  0  0  0
 33 34  1  0  0  0
 34 35  2  0  0  0
 35 36  1  0  0  0
 35 31  1  0  0  0
 36 37  2  0  0  0
 31 28  1  0  0  0
 28 29  2  0  0  0
 28 30  2  0  0  0
 28 26  1  0  0  0
 26  1  1  0  0  0
  1  2  1  0  0  0
  1  7  1  0  0  0
  2  3  2  0  0  0
  2  4  1  0  0  0
  4  5  1  0  0  0
  4 10  1  0  0  0
  5  6  1  0  0  0
  5  8  1  0  0  0
  6  7  1  0  0  0
  8  9  1  0  0  0
  9 10  1  0  0  0
 10 11  1  0  0  0
 11 12  2  0  0  0
 11 13  1  0  0  0
 13 15  1  0  0  0
 15 16  1  0  0  0
 16 17  1  0  0  0
 17 18  1  0  0  0
 18 20  1  0  0  0
 20 21  1  0  0  0
 20 22  2  0  0  0
 26 27  1  0  0  0
 13 14  1  0  0  0
 18 19  1  0  0  0
 21 23  1  0  0  0
 21 24  1  0  0  0
 22 25  1  0  0  0
M  END
> <minimizedAffinity>
-7.21412

$$$$
1BHX_R56_F_1


 37 39  0  0  0  0  0  0  0  0999 V2000
   17.1686  -15.8594   21.0625 C   0  0  0  0  0  0  0  0  0  0  0  0
   17.5696  -16.3611   22.4268 C   0  0  0  0  0  0  0  0  0  0  0  0
   17.6915  -15.5652   23.3699 O   0  0  0  0  0  0  0  0  0  0  0  0
   17.7990  -17.6933   22.5365 N   0  0  0  0  0  0  0  0  0  0  0  0
   17.6323  -18.5483   21.3895 C   0  0  0  0  0  0  0  0  0  0  0  0
   16.3192  -18.2841   20.6959 C   0  0  0  0  0  0  0  0  0  0  0  0
   16.1141  -16.7840   20.4011 C   0  0  0  0  0  0  0  0  0  0  0  0
   17.5104  -20.1474   22.0971 S   0  0  0  0  0  0  0  0  0  0  0  0
   18.5698  -19.7110   23.4986 C   0  0  0  0  0  0  0  0  0  0  0  0
   18.2167  -18.2980   23.8250 C   0  0  0  0  0  0  0  0  0  0  0  0
   19.4526  -17.5635   24.4498 C   0  0  0  0  0  0  0  0  0  0  0  0
   20.5231  -17.5169   23.8545 O   0  0  0  0  0  0  0  0  0  0  0  0
   19.2780  -17.0302   25.7030 N   0  0  0  0  0  0  0  0  0  0  0  0
   18.4169  -17.1122   26.1731 H   0  0  0  0  0  0  0  0  0  0  0  0
   20.4006  -16.3416   26.3145 C   0  0  0  0  0  0  0  0  0  0  0  0
   20.0145  -14.9154   26.6500 C   0  0  0  0  0  0  0  0  0  0  0  0
   20.7359  -13.9871   25.7021 C   0  0  0  0  0  0  0  0  0  0  0  0
   20.1619  -14.0759   24.3425 N   0  0  0  0  0  0  0  0  0  0  0  0
   19.1953  -13.9410   24.2133 H   0  0  0  0  0  0  0  0  0  0  0  0
   20.9262  -14.3329   23.3031 C   0  0  0  0  0  0  0  0  0  0  0  0
   22.1683  -14.6378   23.4647 N   0  0  0  0  0  0  0  0  0  0  0  0
   20.4414  -14.2610   22.0975 N   0  0  0  0  0  0  0  0  0  0  0  0
   22.5470  -14.6953   24.3716 H   0  0  0  0  0  0  0  0  0  0  0  0
   22.7381  -14.8130   22.6813 H   0  0  0  0  0  0  0  0  0  0  0  0
   19.4944  -14.0292   21.9607 H   0  0  0  0  0  0  0  0  0  0  0  0
   16.6037  -14.5130   21.1845 N   0  0  0  0  0  0  0  0  0  0  0  0
   15.6991  -14.5326   20.7137 H   0  0  0  0  0  0  0  0  0  0  0  0
   17.4328  -13.1739   20.5801 S   0  0  0  0  0  0  0  0  0  0  0  0
   18.4540  -13.6711   19.5894 O   0  0  0  0  0  0  0  0  0  0  0  0
   17.8458  -12.3338   21.6308 O   0  0  0  0  0  0  0  0  0  0  0  0
   16.0451  -12.3525   19.6711 C   0  0  0  0  0  0  0  0  0  0  0  0
   12.3200  -13.5189   21.6088 C   0  0  0  0  0  0  0  0  0  0  0  0
   12.6490  -14.0738   20.3768 C   0  0  0  0  0  0  0  0  0  0  0  0
   13.8638  -13.6942   19.7417 C   0  0  0  0  0  0  0  0  0  0  0  0
   14.7311  -12.7736   20.3606 C   0  0  0  0  0  0  0  0  0  0  0  0
   14.3871  -12.2206   21.5840 C   0  0  0  0  0  0  0  0  0  0  0  0
   13.1993  -12.5860   22.2100 C   0  0  0  0  0  0  0  0  0  0  0  0
 32 33  2  0  0  0
 32 37  1  0  0  0
 33 34  1  0  0  0
 34 35  2  0  0  0
 35 36  1  0  0  0
 35 31  1  0  0  0
 36 37  2  0  0  0
 31 28  1  0  0  0
 28 29  2  0  0  0
 28 30  2  0  0  0
 28 26  1  0  0  0
 26  1  1  0  0  0
  1  2  1  0  0  0
  1  7  1  0  0  0
  2  3  2  0  0  0
  2  4  1  0  0  0
  4  5  1  0  0  0
  4 10  1  0  0  0
  5  6  1  0  0  0
  5  8  1  0  0  0
  6  7  1  0  0  0
  8  9  1  0  0  0
  9 10  1  0  0  0
 10 11  1  0  0  0
 11 12  2  0  0  0
 11 13  1  0  0  0
 13 15  1  0  0  0
 15 16  1  0  0  0
 16 17  1  0  0  0
 17 18  1  0  0  0
 18 20  1  0  0  0
 20 21  1  0  0  0
 20 22  2  0  0  0
 26 27  1  0  0  0
 13 14  1  0  0  0
 18 19  1  0  0  0
 21 23  1  0  0  0
 21 24  1  0  0  0
 22 25  1  0  0  0
M  END
> <minimizedAffinity>
-7.01975

$$$$
1BHX_R56_F_1


 37 39  0  0  0  0  0  0  0  0999 V2000
   17.9645  -15.1448   21.6788 C   0  0  0  0  0  0  0  0  0  0  0  0
   16.7222  -14.2900   21.6703 C   0  0  0  0  0  0  0  0  0  0  0  0
   16.0417  -14.1734   22.7004 O   0  0  0  0  0  0  0  0  0  0  0  0
   16.4050  -13.6982   20.4919 N   0  0  0  0  0  0  0  0  0  0  0  0
   17.2525  -13.8850   19.3425 C   0  0  0  0  0  0  0  0  0  0  0  0
   18.7024  -13.6527   19.6877 C   0  0  0  0  0  0  0  0  0  0  0  0
   19.1358  -14.4578   20.9301 C   0  0  0  0  0  0  0  0  0  0  0  0
   16.7768  -12.5762   18.2779 S   0  0  0  0  0  0  0  0  0  0  0  0
   15.0764  -12.5634   18.8988 C   0  0  0  0  0  0  0  0  0  0  0  0
   15.1957  -12.8494   20.3589 C   0  0  0  0  0  0  0  0  0  0  0  0
   13.9049  -13.5744   20.8739 C   0  0  0  0  0  0  0  0  0  0  0  0
   13.2124  -13.0756   21.7537 O   0  0  0  0  0  0  0  0  0  0  0  0
   13.6324  -14.8028   20.3238 N   0  0  0  0  0  0  0  0  0  0  0  0
   14.2251  -15.1957   19.6429 H   0  0  0  0  0  0  0  0  0  0  0  0
   12.4446  -15.5050   20.7757 C   0  0  0  0  0  0  0  0  0  0  0  0
   12.7761  -16.9558   21.0603 C   0  0  0  0  0  0  0  0  0  0  0  0
   11.6067  -17.8089   20.6298 C   0  0  0  0  0  0  0  0  0  0  0  0
   10.8256  -17.1329   19.5721 N   0  0  0  0  0  0  0  0  0  0  0  0
   10.4221  -16.2533   19.7529 H   0  0  0  0  0  0  0  0  0  0  0  0
   10.6626  -17.6918   18.3924 C   0  0  0  0  0  0  0  0  0  0  0  0
   11.5840  -18.4416   17.8916 N   0  0  0  0  0  0  0  0  0  0  0  0
    9.5772  -17.4761   17.7076 N   0  0  0  0  0  0  0  0  0  0  0  0
   12.4098  -18.6124   18.3996 H   0  0  0  0  0  0  0  0  0  0  0  0
   11.4618  -18.8434   17.0012 H   0  0  0  0  0  0  0  0  0  0  0  0
    8.8661  -16.9054   18.0790 H   0  0  0  0  0  0  0  0  0  0  0  0
   18.3738  -15.3966   23.0630 N   0  0  0  0  0  0  0  0  0  0  0  0
   19.3243  -15.0384   23.1556 H   0  0  0  0  0  0  0  0  0  0  0  0
   18.3870  -16.9648   23.6847 S   0  0  0  0  0  0  0  0  0  0  0  0
   18.1086  -17.9149   22.5483 O   0  0  0  0  0  0  0  0  0  0  0  0
   17.6037  -17.0394   24.8514 O   0  0  0  0  0  0  0  0  0  0  0  0
   20.1729  -17.0803   24.1579 C   0  0  0  0  0  0  0  0  0  0  0  0
   21.1159  -13.6109   26.6207 C   0  0  0  0  0  0  0  0  0  0  0  0
   21.6336  -13.6920   25.3325 C   0  0  0  0  0  0  0  0  0  0  0  0
   21.3281  -14.8236   24.5269 C   0  0  0  0  0  0  0  0  0  0  0  0
   20.4993  -15.8472   25.0251 C   0  0  0  0  0  0  0  0  0  0  0  0
   19.9973  -15.7589   26.3139 C   0  0  0  0  0  0  0  0  0  0  0  0
   20.2938  -14.6555   27.1083 C   0  0  0  0  0  0  0  0  0  0  0  0
 32 33  2  0  0  0
 32 37  1  0  0  0
 33 34  1  0  0  0
 34 35  2  0  0  0
 35 36  1  0  0  0
 35 31  1  0  0  0
 36 37  2  0  0  0
 31 28  1  0  0  0
 28 29  2  0  0  0
 28 30  2  0  0  0
 28 26  1  0  0  0
 26  1  1  0  0  0
  1  2  1  0  0  0
  1  7  1  0  0  0
  2  3  2  0  0  0
  2  4  1  0  0  0
  4  5  1  0  0  0
  4 10  1  0  0  0
  5  6  1  0  0  0
  5  8  1  0  0  0
  6  7  1  0  0  0
  8  9  1  0  0  0
  9 10  1  0  0  0
 10 11  1  0  0  0
 11 12  2  0  0  0
 11 13  1  0  0  0
 13 15  1  0  0  0
 15 16  1  0  0  0
 16 17  1  0  0  0
 17 18  1  0  0  0
 18 20  1  0  0  0
 20 21  1  0  0  0
 20 22  2  0  0  0
 26 27  1  0  0  0
 13 14  1  0  0  0
 18 19  1  0  0  0
 21 23  1  0  0  0
 21 24  1  0  0  0
 22 25  1  0  0  0
M  END
> <minimizedAffinity>
-6.81085

$$$$
