3FVL_BHK_A_311


 18 18  0  0  0  0  0  0  0  0999 V2000
  -23.9734    1.7807   -7.1818 C   0  0  0  0  0  0  0  0  0  0  0  0
  -23.6456    1.3587   -5.7470 C   0  0  0  0  0  0  0  0  0  0  0  0
  -24.4851    1.6413   -4.8644 O   0  0  0  0  0  0  0  0  0  0  0  0
  -22.5641    0.7599   -5.5659 O   0  0  0  0  0  0  0  0  0  0  0  0
  -25.2722    2.0946   -5.0945 H   0  0  0  0  0  0  0  0  0  0  0  0
  -23.3634    3.1543   -7.4692 C   0  0  0  0  0  0  0  0  0  0  0  0
  -21.9733    2.2710   -9.4026 C   0  0  0  0  0  0  0  0  0  0  0  0
  -20.7755    2.1787  -10.1041 C   0  0  0  0  0  0  0  0  0  0  0  0
  -19.6634    2.8931   -9.6740 C   0  0  0  0  0  0  0  0  0  0  0  0
  -19.7503    3.7002   -8.5449 C   0  0  0  0  0  0  0  0  0  0  0  0
  -20.9498    3.7923   -7.8466 C   0  0  0  0  0  0  0  0  0  0  0  0
  -22.0622    3.0760   -8.2728 C   0  0  0  0  0  0  0  0  0  0  0  0
  -25.4931    1.8904   -7.3291 C   0  0  0  0  0  0  0  0  0  0  0  0
  -25.9984    1.1998   -8.5991 C   0  0  0  0  0  0  0  0  0  0  0  0
  -25.5442    1.5062   -9.6996 O   0  0  0  0  0  0  0  0  0  0  0  0
  -27.0961    0.1386   -8.4863 C   0  0  0  0  0  0  0  0  0  0  0  0
  -26.7578   -1.0314   -9.2364 O   0  0  0  0  0  0  0  0  0  0  0  0
  -26.6594   -0.7979  -10.1727 H   0  0  0  0  0  0  0  0  0  0  0  0
  7  8  2  0  0  0
  7 12  1  0  0  0
  8  9  1  0  0  0
  9 10  2  0  0  0
 10 11  1  0  0  0
 11 12  2  0  0  0
 12  6  1  0  0  0
  6  1  1  0  0  0
  1  2  1  0  0  0
  1 13  1  0  0  0
  2  3  1  0  0  0
  2  4  2  0  0  0
 13 14  1  0  0  0
 14 15  2  0  0  0
 14 16  1  0  0  0
 16 17  1  0  0  0
  3  5  1  0  0  0
 17 18  1  0  0  0
M  END
> <minimizedAffinity>
-7.39091

$$$$
3FVL_BHK_A_311


 18 18  0  0  0  0  0  0  0  0999 V2000
  -24.5976    1.1750   -6.6544 C   0  0  0  0  0  0  0  0  0  0  0  0
  -24.2183    0.0361   -5.7039 C   0  0  0  0  0  0  0  0  0  0  0  0
  -23.6083   -0.9377   -6.1969 O   0  0  0  0  0  0  0  0  0  0  0  0
  -24.5442    0.1670   -4.5048 O   0  0  0  0  0  0  0  0  0  0  0  0
  -23.4054   -0.9491   -7.1116 H   0  0  0  0  0  0  0  0  0  0  0  0
  -23.7951    2.4300   -6.3043 C   0  0  0  0  0  0  0  0  0  0  0  0
  -21.5593    3.4665   -6.9183 C   0  0  0  0  0  0  0  0  0  0  0  0
  -20.5566    3.7516   -7.8396 C   0  0  0  0  0  0  0  0  0  0  0  0
  -20.6614    3.2850   -9.1448 C   0  0  0  0  0  0  0  0  0  0  0  0
  -21.7668    2.5327   -9.5269 C   0  0  0  0  0  0  0  0  0  0  0  0
  -22.7669    2.2474   -8.6031 C   0  0  0  0  0  0  0  0  0  0  0  0
  -22.6658    2.7160   -7.2983 C   0  0  0  0  0  0  0  0  0  0  0  0
  -26.0847    1.4916   -6.4767 C   0  0  0  0  0  0  0  0  0  0  0  0
  -26.9792    0.3950   -7.0619 C   0  0  0  0  0  0  0  0  0  0  0  0
  -27.5175   -0.4305   -6.3269 O   0  0  0  0  0  0  0  0  0  0  0  0
  -27.1766    0.3217   -8.5784 C   0  0  0  0  0  0  0  0  0  0  0  0
  -26.9348   -1.0017   -9.0640 O   0  0  0  0  0  0  0  0  0  0  0  0
  -26.0199   -1.2564   -8.8666 H   0  0  0  0  0  0  0  0  0  0  0  0
  7  8  2  0  0  0
  7 12  1  0  0  0
  8  9  1  0  0  0
  9 10  2  0  0  0
 10 11  1  0  0  0
 11 12  2  0  0  0
 12  6  1  0  0  0
  6  1  1  0  0  0
  1  2  1  0  0  0
  1 13  1  0  0  0
  2  3  1  0  0  0
  2  4  2  0  0  0
 13 14  1  0  0  0
 14 15  2  0  0  0
 14 16  1  0  0  0
 16 17  1  0  0  0
  3  5  1  0  0  0
 17 18  1  0  0  0
M  END
> <minimizedAffinity>
-7.15371

$$$$
3FVL_BHK_A_311


 18 18  0  0  0  0  0  0  0  0999 V2000
  -23.9665    2.1823   -7.4224 C   0  0  0  0  0  0  0  0  0  0  0  0
  -22.7339    3.0122   -7.7917 C   0  0  0  0  0  0  0  0  0  0  0  0
  -22.6547    3.4205   -8.9709 O   0  0  0  0  0  0  0  0  0  0  0  0
  -21.9002    3.2223   -6.8850 O   0  0  0  0  0  0  0  0  0  0  0  0
  -23.3312    3.2127   -9.5851 H   0  0  0  0  0  0  0  0  0  0  0  0
  -24.0050    1.9585   -5.9091 C   0  0  0  0  0  0  0  0  0  0  0  0
  -24.9191   -0.0167   -4.6001 C   0  0  0  0  0  0  0  0  0  0  0  0
  -25.9608   -0.8631   -4.2342 C   0  0  0  0  0  0  0  0  0  0  0  0
  -27.2384   -0.6477   -4.7377 C   0  0  0  0  0  0  0  0  0  0  0  0
  -27.4737    0.4141   -5.6043 C   0  0  0  0  0  0  0  0  0  0  0  0
  -26.4306    1.2601   -5.9669 C   0  0  0  0  0  0  0  0  0  0  0  0
  -25.1515    1.0445   -5.4674 C   0  0  0  0  0  0  0  0  0  0  0  0
  -23.8654    0.8169   -8.1069 C   0  0  0  0  0  0  0  0  0  0  0  0
  -24.9275    0.6403   -9.1958 C   0  0  0  0  0  0  0  0  0  0  0  0
  -25.2744    1.5934   -9.8905 O   0  0  0  0  0  0  0  0  0  0  0  0
  -25.5731   -0.7337   -9.3942 C   0  0  0  0  0  0  0  0  0  0  0  0
  -26.9409   -0.7232   -8.9764 O   0  0  0  0  0  0  0  0  0  0  0  0
  -26.9893   -0.5009   -8.0334 H   0  0  0  0  0  0  0  0  0  0  0  0
  7  8  2  0  0  0
  7 12  1  0  0  0
  8  9  1  0  0  0
  9 10  2  0  0  0
 10 11  1  0  0  0
 11 12  2  0  0  0
 12  6  1  0  0  0
  6  1  1  0  0  0
  1  2  1  0  0  0
  1 13  1  0  0  0
  2  3  1  0  0  0
  2  4  2  0  0  0
 13 14  1  0  0  0
 14 15  2  0  0  0
 14 16  1  0  0  0
 16 17  1  0  0  0
  3  5  1  0  0  0
 17 18  1  0  0  0
M  END
> <minimizedAffinity>
-7.00728

$$$$
3FVL_BHK_A_311


 18 18  0  0  0  0  0  0  0  0999 V2000
  -24.1856    2.0146   -7.7312 C   0  0  0  0  0  0  0  0  0  0  0  0
  -24.5253    1.4598   -9.1173 C   0  0  0  0  0  0  0  0  0  0  0  0
  -23.6285    0.8218   -9.7107 O   0  0  0  0  0  0  0  0  0  0  0  0
  -25.6757    1.6836   -9.5504 O   0  0  0  0  0  0  0  0  0  0  0  0
  -22.7916    0.7036   -9.3062 H   0  0  0  0  0  0  0  0  0  0  0  0
  -25.4750    2.3128   -6.9631 C   0  0  0  0  0  0  0  0  0  0  0  0
  -24.9080    0.5641   -5.2107 C   0  0  0  0  0  0  0  0  0  0  0  0
  -25.2701   -0.4761   -4.3609 C   0  0  0  0  0  0  0  0  0  0  0  0
  -26.5961   -0.8878   -4.2951 C   0  0  0  0  0  0  0  0  0  0  0  0
  -27.5586   -0.2584   -5.0769 C   0  0  0  0  0  0  0  0  0  0  0  0
  -27.1940    0.7829   -5.9243 C   0  0  0  0  0  0  0  0  0  0  0  0
  -25.8680    1.1939   -5.9943 C   0  0  0  0  0  0  0  0  0  0  0  0
  -23.4136    3.3256   -7.8999 C   0  0  0  0  0  0  0  0  0  0  0  0
  -21.9217    3.1564   -7.5988 C   0  0  0  0  0  0  0  0  0  0  0  0
  -21.5314    2.9996   -6.4436 O   0  0  0  0  0  0  0  0  0  0  0  0
  -20.9159    3.2099   -8.7518 C   0  0  0  0  0  0  0  0  0  0  0  0
  -20.9314    1.9929   -9.5032 O   0  0  0  0  0  0  0  0  0  0  0  0
  -20.6882    1.2529   -8.9252 H   0  0  0  0  0  0  0  0  0  0  0  0
  7  8  2  0  0  0
  7 12  1  0  0  0
  8  9  1  0  0  0
  9 10  2  0  0  0
 10 11  1  0  0  0
 11 12  2  0  0  0
 12  6  1  0  0  0
  6  1  1  0  0  0
  1  2  1  0  0  0
  1 13  1  0  0  0
  2  3  1  0  0  0
  2  4  2  0  0  0
 13 14  1  0  0  0
 14 15  2  0  0  0
 14 16  1  0  0  0
 16 17  1  0  0  0
  3  5  1  0  0  0
 17 18  1  0  0  0
M  END
> <minimizedAffinity>
-6.98745

$$$$
3FVL_BHK_A_311


 18 18  0  0  0  0  0  0  0  0999 V2000
  -22.3413    2.4221   -8.3821 C   0  0  0  0  0  0  0  0  0  0  0  0
  -22.8830    1.2901   -9.2594 C   0  0  0  0  0  0  0  0  0  0  0  0
  -22.5646    0.1229   -8.9438 O   0  0  0  0  0  0  0  0  0  0  0  0
  -23.6064    1.6179  -10.2240 O   0  0  0  0  0  0  0  0  0  0  0  0
  -22.0148   -0.0280   -8.2001 H   0  0  0  0  0  0  0  0  0  0  0  0
  -23.5017    3.1431   -7.6929 C   0  0  0  0  0  0  0  0  0  0  0  0
  -23.6846    1.6543   -5.6435 C   0  0  0  0  0  0  0  0  0  0  0  0
  -24.4051    0.8020   -4.8129 C   0  0  0  0  0  0  0  0  0  0  0  0
  -25.7400    0.5300   -5.0890 C   0  0  0  0  0  0  0  0  0  0  0  0
  -26.3535    1.1113   -6.1932 C   0  0  0  0  0  0  0  0  0  0  0  0
  -25.6312    1.9648   -7.0209 C   0  0  0  0  0  0  0  0  0  0  0  0
  -24.2952    2.2355   -6.7487 C   0  0  0  0  0  0  0  0  0  0  0  0
  -21.6111    3.4305   -9.2728 C   0  0  0  0  0  0  0  0  0  0  0  0
  -20.1184    3.1120   -9.3967 C   0  0  0  0  0  0  0  0  0  0  0  0
  -19.3158    3.5501   -8.5749 O   0  0  0  0  0  0  0  0  0  0  0  0
  -19.6310    2.2607  -10.5721 C   0  0  0  0  0  0  0  0  0  0  0  0
  -18.4657    1.5120  -10.2151 O   0  0  0  0  0  0  0  0  0  0  0  0
  -17.7527    2.1216   -9.9685 H   0  0  0  0  0  0  0  0  0  0  0  0
  7  8  2  0  0  0
  7 12  1  0  0  0
  8  9  1  0  0  0
  9 10  2  0  0  0
 10 11  1  0  0  0
 11 12  2  0  0  0
 12  6  1  0  0  0
  6  1  1  0  0  0
  1  2  1  0  0  0
  1 13  1  0  0  0
  2  3  1  0  0  0
  2  4  2  0  0  0
 13 14  1  0  0  0
 14 15  2  0  0  0
 14 16  1  0  0  0
 16 17  1  0  0  0
  3  5  1  0  0  0
 17 18  1  0  0  0
M  END
> <minimizedAffinity>
-6.87832

$$$$
3FVL_BHK_A_311


 18 18  0  0  0  0  0  0  0  0999 V2000
  -23.9638    2.1848   -7.3987 C   0  0  0  0  0  0  0  0  0  0  0  0
  -22.7197    3.0265   -7.6955 C   0  0  0  0  0  0  0  0  0  0  0  0
  -21.7138    2.8280   -6.9798 O   0  0  0  0  0  0  0  0  0  0  0  0
  -22.8020    3.8471   -8.6342 O   0  0  0  0  0  0  0  0  0  0  0  0
  -21.7445    2.1887   -6.2955 H   0  0  0  0  0  0  0  0  0  0  0  0
  -24.1823    2.1000   -5.8866 C   0  0  0  0  0  0  0  0  0  0  0  0
  -26.5495    1.1849   -5.9834 C   0  0  0  0  0  0  0  0  0  0  0  0
  -27.5242    0.2737   -5.5896 C   0  0  0  0  0  0  0  0  0  0  0  0
  -27.2017   -0.7457   -4.7014 C   0  0  0  0  0  0  0  0  0  0  0  0
  -25.9056   -0.8543   -4.2095 C   0  0  0  0  0  0  0  0  0  0  0  0
  -24.9324    0.0570   -4.6065 C   0  0  0  0  0  0  0  0  0  0  0  0
  -25.2535    1.0793   -5.4920 C   0  0  0  0  0  0  0  0  0  0  0  0
  -23.7393    0.7673   -7.9312 C   0  0  0  0  0  0  0  0  0  0  0  0
  -23.8248    0.7074   -9.4589 C   0  0  0  0  0  0  0  0  0  0  0  0
  -24.8163    1.1356  -10.0464 O   0  0  0  0  0  0  0  0  0  0  0  0
  -22.6704    0.0843  -10.2482 C   0  0  0  0  0  0  0  0  0  0  0  0
  -21.9036   -0.7988   -9.4248 O   0  0  0  0  0  0  0  0  0  0  0  0
  -21.5270   -0.3023   -8.6815 H   0  0  0  0  0  0  0  0  0  0  0  0
  7  8  2  0  0  0
  7 12  1  0  0  0
  8  9  1  0  0  0
  9 10  2  0  0  0
 10 11  1  0  0  0
 11 12  2  0  0  0
 12  6  1  0  0  0
  6  1  1  0  0  0
  1  2  1  0  0  0
  1 13  1  0  0  0
  2  3  1  0  0  0
  2  4  2  0  0  0
 13 14  1  0  0  0
 14 15  2  0  0  0
 14 16  1  0  0  0
 16 17  1  0  0  0
  3  5  1  0  0  0
 17 18  1  0  0  0
M  END
> <minimizedAffinity>
-6.79020

$$$$
3FVL_BHK_A_311


 18 18  0  0  0  0  0  0  0  0999 V2000
  -24.5495    1.3168   -6.6155 C   0  0  0  0  0  0  0  0  0  0  0  0
  -24.1591    0.1881   -5.6574 C   0  0  0  0  0  0  0  0  0  0  0  0
  -24.2978    0.4061   -4.4340 O   0  0  0  0  0  0  0  0  0  0  0  0
  -23.7338   -0.8687   -6.1708 O   0  0  0  0  0  0  0  0  0  0  0  0
  -24.6257    1.2331   -4.1397 H   0  0  0  0  0  0  0  0  0  0  0  0
  -23.6770    2.5456   -6.3502 C   0  0  0  0  0  0  0  0  0  0  0  0
  -22.7163    2.1681   -8.6708 C   0  0  0  0  0  0  0  0  0  0  0  0
  -21.7134    2.3363   -9.6201 C   0  0  0  0  0  0  0  0  0  0  0  0
  -20.5895    3.0950   -9.3142 C   0  0  0  0  0  0  0  0  0  0  0  0
  -20.4704    3.6861   -8.0611 C   0  0  0  0  0  0  0  0  0  0  0  0
  -21.4758    3.5180   -7.1145 C   0  0  0  0  0  0  0  0  0  0  0  0
  -22.5989    2.7568   -7.4170 C   0  0  0  0  0  0  0  0  0  0  0  0
  -26.0090    1.7002   -6.3580 C   0  0  0  0  0  0  0  0  0  0  0  0
  -26.9559    0.5106   -6.5402 C   0  0  0  0  0  0  0  0  0  0  0  0
  -26.9431   -0.1444   -7.5805 O   0  0  0  0  0  0  0  0  0  0  0  0
  -27.9392    0.1598   -5.4204 C   0  0  0  0  0  0  0  0  0  0  0  0
  -28.9325    1.1782   -5.2720 O   0  0  0  0  0  0  0  0  0  0  0  0
  -28.5034    2.0177   -5.0441 H   0  0  0  0  0  0  0  0  0  0  0  0
  7  8  2  0  0  0
  7 12  1  0  0  0
  8  9  1  0  0  0
  9 10  2  0  0  0
 10 11  1  0  0  0
 11 12  2  0  0  0
 12  6  1  0  0  0
  6  1  1  0  0  0
  1  2  1  0  0  0
  1 13  1  0  0  0
  2  3  1  0  0  0
  2  4  2  0  0  0
 13 14  1  0  0  0
 14 15  2  0  0  0
 14 16  1  0  0  0
 16 17  1  0  0  0
  3  5  1  0  0  0
 17 18  1  0  0  0
M  END
> <minimizedAffinity>
-6.76081

$$$$
3FVL_BHK_A_311


 18 18  0  0  0  0  0  0  0  0999 V2000
  -24.0134    0.6328   -8.2181 C   0  0  0  0  0  0  0  0  0  0  0  0
  -25.1699    0.4533   -9.2053 C   0  0  0  0  0  0  0  0  0  0  0  0
  -25.6705   -0.6891   -9.2943 O   0  0  0  0  0  0  0  0  0  0  0  0
  -25.5294    1.4638   -9.8461 O   0  0  0  0  0  0  0  0  0  0  0  0
  -25.3339   -1.3901   -8.7715 H   0  0  0  0  0  0  0  0  0  0  0  0
  -24.4698    1.4923   -7.0373 C   0  0  0  0  0  0  0  0  0  0  0  0
  -24.8267   -0.0633   -5.0616 C   0  0  0  0  0  0  0  0  0  0  0  0
  -25.6566   -0.7752   -4.2015 C   0  0  0  0  0  0  0  0  0  0  0  0
  -27.0369   -0.6879   -4.3399 C   0  0  0  0  0  0  0  0  0  0  0  0
  -27.5860    0.1120   -5.3360 C   0  0  0  0  0  0  0  0  0  0  0  0
  -26.7539    0.8245   -6.1934 C   0  0  0  0  0  0  0  0  0  0  0  0
  -25.3732    0.7359   -6.0591 C   0  0  0  0  0  0  0  0  0  0  0  0
  -22.8681    1.3604   -8.9266 C   0  0  0  0  0  0  0  0  0  0  0  0
  -22.1971    0.4812   -9.9858 C   0  0  0  0  0  0  0  0  0  0  0  0
  -21.7559   -0.6273   -9.6892 O   0  0  0  0  0  0  0  0  0  0  0  0
  -22.0587    1.0086  -11.4164 C   0  0  0  0  0  0  0  0  0  0  0  0
  -23.3418    1.2353  -12.0062 O   0  0  0  0  0  0  0  0  0  0  0  0
  -23.8346    0.4004  -12.0392 H   0  0  0  0  0  0  0  0  0  0  0  0
  7  8  2  0  0  0
  7 12  1  0  0  0
  8  9  1  0  0  0
  9 10  2  0  0  0
 10 11  1  0  0  0
 11 12  2  0  0  0
 12  6  1  0  0  0
  6  1  1  0  0  0
  1  2  1  0  0  0
  1 13  1  0  0  0
  2  3  1  0  0  0
  2  4  2  0  0  0
 13 14  1  0  0  0
 14 15  2  0  0  0
 14 16  1  0  0  0
 16 17  1  0  0  0
  3  5  1  0  0  0
 17 18  1  0  0  0
M  END
> <minimizedAffinity>
-6.70692

$$$$
3FVL_BHK_A_311


 18 18  0  0  0  0  0  0  0  0999 V2000
  -21.8771    3.1808   -8.8325 C   0  0  0  0  0  0  0  0  0  0  0  0
  -20.5131    3.7247   -9.2661 C   0  0  0  0  0  0  0  0  0  0  0  0
  -20.4812    4.4193  -10.3054 O   0  0  0  0  0  0  0  0  0  0  0  0
  -19.5335    3.4361   -8.5462 O   0  0  0  0  0  0  0  0  0  0  0  0
  -21.2703    4.5841  -10.7831 H   0  0  0  0  0  0  0  0  0  0  0  0
  -22.0340    3.3261   -7.3173 C   0  0  0  0  0  0  0  0  0  0  0  0
  -24.5261    2.8405   -7.2521 C   0  0  0  0  0  0  0  0  0  0  0  0
  -25.6288    2.1809   -6.7188 C   0  0  0  0  0  0  0  0  0  0  0  0
  -25.4552    1.2557   -5.6961 C   0  0  0  0  0  0  0  0  0  0  0  0
  -24.1801    0.9893   -5.2092 C   0  0  0  0  0  0  0  0  0  0  0  0
  -23.0791    1.6488   -5.7458 C   0  0  0  0  0  0  0  0  0  0  0  0
  -23.2507    2.5770   -6.7662 C   0  0  0  0  0  0  0  0  0  0  0  0
  -21.9485    1.6921   -9.1816 C   0  0  0  0  0  0  0  0  0  0  0  0
  -21.5805    1.4269  -10.6442 C   0  0  0  0  0  0  0  0  0  0  0  0
  -22.1355    2.0456  -11.5501 O   0  0  0  0  0  0  0  0  0  0  0  0
  -20.5292    0.3624  -10.9691 C   0  0  0  0  0  0  0  0  0  0  0  0
  -20.6817   -0.7833  -10.1266 O   0  0  0  0  0  0  0  0  0  0  0  0
  -20.5680   -0.5206   -9.1998 H   0  0  0  0  0  0  0  0  0  0  0  0
  7  8  2  0  0  0
  7 12  1  0  0  0
  8  9  1  0  0  0
  9 10  2  0  0  0
 10 11  1  0  0  0
 11 12  2  0  0  0
 12  6  1  0  0  0
  6  1  1  0  0  0
  1  2  1  0  0  0
  1 13  1  0  0  0
  2  3  1  0  0  0
  2  4  2  0  0  0
 13 14  1  0  0  0
 14 15  2  0  0  0
 14 16  1  0  0  0
 16 17  1  0  0  0
  3  5  1  0  0  0
 17 18  1  0  0  0
M  END
> <minimizedAffinity>
-6.56089

$$$$
3FVL_BHK_A_311


 18 18  0  0  0  0  0  0  0  0999 V2000
  -21.6512    1.1446   -9.9944 C   0  0  0  0  0  0  0  0  0  0  0  0
  -21.0633   -0.1190  -10.6285 C   0  0  0  0  0  0  0  0  0  0  0  0
  -20.5266   -0.9455   -9.8589 O   0  0  0  0  0  0  0  0  0  0  0  0
  -21.1670   -0.2311  -11.8686 O   0  0  0  0  0  0  0  0  0  0  0  0
  -20.4949   -0.7761   -8.9379 H   0  0  0  0  0  0  0  0  0  0  0  0
  -23.1784    1.1051  -10.0825 C   0  0  0  0  0  0  0  0  0  0  0  0
  -25.1567    0.9704   -8.4956 C   0  0  0  0  0  0  0  0  0  0  0  0
  -25.7838    1.2879   -7.2951 C   0  0  0  0  0  0  0  0  0  0  0  0
  -25.1160    2.0520   -6.3451 C   0  0  0  0  0  0  0  0  0  0  0  0
  -23.8221    2.4958   -6.5952 C   0  0  0  0  0  0  0  0  0  0  0  0
  -23.1967    2.1750   -7.7956 C   0  0  0  0  0  0  0  0  0  0  0  0
  -23.8639    1.4141   -8.7485 C   0  0  0  0  0  0  0  0  0  0  0  0
  -21.1570    2.3647  -10.7757 C   0  0  0  0  0  0  0  0  0  0  0  0
  -19.7054    2.7147  -10.4362 C   0  0  0  0  0  0  0  0  0  0  0  0
  -19.3998    3.0814   -9.3032 O   0  0  0  0  0  0  0  0  0  0  0  0
  -18.6397    2.6271  -11.5318 C   0  0  0  0  0  0  0  0  0  0  0  0
  -17.7925    1.4917  -11.3341 O   0  0  0  0  0  0  0  0  0  0  0  0
  -17.3404    1.5706  -10.4796 H   0  0  0  0  0  0  0  0  0  0  0  0
  7  8  2  0  0  0
  7 12  1  0  0  0
  8  9  1  0  0  0
  9 10  2  0  0  0
 10 11  1  0  0  0
 11 12  2  0  0  0
 12  6  1  0  0  0
  6  1  1  0  0  0
  1  2  1  0  0  0
  1 13  1  0  0  0
  2  3  1  0  0  0
  2  4  2  0  0  0
 13 14  1  0  0  0
 14 15  2  0  0  0
 14 16  1  0  0  0
 16 17  1  0  0  0
  3  5  1  0  0  0
 17 18  1  0  0  0
M  END
> <minimizedAffinity>
-6.35924

$$$$
