3F19_HS6_A_0


 17 17  0  0  0  0  0  0  0  0999 V2000
   -9.1109   -6.1943  -19.1038 O   0  0  0  0  0  0  0  0  0  0  0  0
   -9.9319   -6.4673  -17.9518 S   0  0  0  0  0  0  0  0  0  0  0  0
  -10.8222   -7.5693  -18.1823 O   0  0  0  0  0  0  0  0  0  0  0  0
   -8.9548   -6.8774  -16.7329 C   0  0  0  0  0  0  0  0  0  0  0  0
   -9.4676   -7.0335  -15.4390 C   0  0  0  0  0  0  0  0  0  0  0  0
   -7.5767   -7.0514  -16.9319 C   0  0  0  0  0  0  0  0  0  0  0  0
   -6.7383   -7.3843  -15.8646 C   0  0  0  0  0  0  0  0  0  0  0  0
   -7.2688   -7.5414  -14.5814 C   0  0  0  0  0  0  0  0  0  0  0  0
   -6.4700   -7.8569  -13.5409 F   0  0  0  0  0  0  0  0  0  0  0  0
   -8.6338   -7.3678  -14.3691 C   0  0  0  0  0  0  0  0  0  0  0  0
  -10.8101   -5.1593  -17.6430 N   0  0  0  0  0  0  0  0  0  0  0  0
  -10.1540   -4.3803  -17.5869 H   0  0  0  0  0  0  0  0  0  0  0  0
  -11.8776   -4.7302  -18.5267 C   0  0  0  0  0  0  0  0  0  0  0  0
  -13.2008   -5.2159  -18.0060 C   0  0  0  0  0  0  0  0  0  0  0  0
  -13.4215   -5.2448  -16.8046 O   0  0  0  0  0  0  0  0  0  0  0  0
  -14.0882   -5.6191  -18.9070 N   0  0  0  0  0  0  0  0  0  0  0  0
  -13.8430   -6.8086  -19.5806 O   0  0  0  0  0  0  0  0  0  0  0  0
  1  2  2  0  0  0
  2  3  2  0  0  0
  2 11  1  0  0  0
  2  4  1  0  0  0
 11 13  1  0  0  0
 13 14  1  0  0  0
 14 15  2  0  0  0
 14 16  1  0  0  0
 16 17  2  0  0  0
  4  5  2  0  0  0
  4  6  1  0  0  0
  5 10  1  0  0  0
  6  7  2  0  0  0
  7  8  1  0  0  0
  8  9  1  0  0  0
  8 10  2  0  0  0
 11 12  1  0  0  0
M  END
> <minimizedAffinity>
-7.55037

$$$$
3F19_HS6_A_0


 17 17  0  0  0  0  0  0  0  0999 V2000
  -10.8968   -5.1261  -17.6267 O   0  0  0  0  0  0  0  0  0  0  0  0
  -10.2050   -6.3243  -18.0287 S   0  0  0  0  0  0  0  0  0  0  0  0
   -9.4085   -6.1099  -19.2034 O   0  0  0  0  0  0  0  0  0  0  0  0
   -9.2047   -6.7440  -16.8321 C   0  0  0  0  0  0  0  0  0  0  0  0
   -9.6870   -6.8811  -15.5243 C   0  0  0  0  0  0  0  0  0  0  0  0
   -7.8357   -6.9454  -17.0649 C   0  0  0  0  0  0  0  0  0  0  0  0
   -6.9765   -7.2864  -16.0168 C   0  0  0  0  0  0  0  0  0  0  0  0
   -7.4767   -7.4243  -14.7193 C   0  0  0  0  0  0  0  0  0  0  0  0
   -6.6575   -7.7475  -13.6972 F   0  0  0  0  0  0  0  0  0  0  0  0
   -8.8323   -7.2234  -14.4736 C   0  0  0  0  0  0  0  0  0  0  0  0
  -11.3029   -7.4489  -18.3562 N   0  0  0  0  0  0  0  0  0  0  0  0
  -12.1484   -7.1789  -17.8536 H   0  0  0  0  0  0  0  0  0  0  0  0
  -11.7133   -7.7422  -19.7164 C   0  0  0  0  0  0  0  0  0  0  0  0
  -12.7009   -6.7124  -20.1875 C   0  0  0  0  0  0  0  0  0  0  0  0
  -12.4304   -5.9772  -21.1252 O   0  0  0  0  0  0  0  0  0  0  0  0
  -13.8505   -6.6385  -19.5281 N   0  0  0  0  0  0  0  0  0  0  0  0
  -13.9932   -5.6429  -18.5704 O   0  0  0  0  0  0  0  0  0  0  0  0
  1  2  2  0  0  0
  2  3  2  0  0  0
  2 11  1  0  0  0
  2  4  1  0  0  0
 11 13  1  0  0  0
 13 14  1  0  0  0
 14 15  2  0  0  0
 14 16  1  0  0  0
 16 17  2  0  0  0
  4  5  2  0  0  0
  4  6  1  0  0  0
  5 10  1  0  0  0
  6  7  2  0  0  0
  7  8  1  0  0  0
  8  9  1  0  0  0
  8 10  2  0  0  0
 11 12  1  0  0  0
M  END
> <minimizedAffinity>
-7.32732

$$$$
3F19_HS6_A_0


 17 17  0  0  0  0  0  0  0  0999 V2000
  -13.0566   -6.3257  -18.8044 O   0  0  0  0  0  0  0  0  0  0  0  0
  -12.5011   -5.4057  -17.8448 S   0  0  0  0  0  0  0  0  0  0  0  0
  -13.3383   -5.2758  -16.6861 O   0  0  0  0  0  0  0  0  0  0  0  0
  -11.0805   -5.9981  -17.3552 C   0  0  0  0  0  0  0  0  0  0  0  0
  -10.8830   -6.3379  -16.0109 C   0  0  0  0  0  0  0  0  0  0  0  0
  -10.0097   -6.1527  -18.2487 C   0  0  0  0  0  0  0  0  0  0  0  0
   -8.7785   -6.6454  -17.8081 C   0  0  0  0  0  0  0  0  0  0  0  0
   -8.6015   -6.9845  -16.4640 C   0  0  0  0  0  0  0  0  0  0  0  0
   -7.4165   -7.4558  -16.0239 F   0  0  0  0  0  0  0  0  0  0  0  0
   -9.6545   -6.8324  -15.5660 C   0  0  0  0  0  0  0  0  0  0  0  0
  -12.3760   -3.9671  -18.5465 N   0  0  0  0  0  0  0  0  0  0  0  0
  -11.7326   -3.4229  -17.9718 H   0  0  0  0  0  0  0  0  0  0  0  0
  -11.9206   -3.8228  -19.9163 C   0  0  0  0  0  0  0  0  0  0  0  0
  -12.7834   -2.8292  -20.6417 C   0  0  0  0  0  0  0  0  0  0  0  0
  -13.6813   -3.2091  -21.3783 O   0  0  0  0  0  0  0  0  0  0  0  0
  -12.5070   -1.5448  -20.4531 N   0  0  0  0  0  0  0  0  0  0  0  0
  -12.6069   -1.0358  -19.1648 O   0  0  0  0  0  0  0  0  0  0  0  0
  1  2  2  0  0  0
  2  3  2  0  0  0
  2 11  1  0  0  0
  2  4  1  0  0  0
 11 13  1  0  0  0
 13 14  1  0  0  0
 14 15  2  0  0  0
 14 16  1  0  0  0
 16 17  2  0  0  0
  4  5  2  0  0  0
  4  6  1  0  0  0
  5 10  1  0  0  0
  6  7  2  0  0  0
  7  8  1  0  0  0
  8  9  1  0  0  0
  8 10  2  0  0  0
 11 12  1  0  0  0
M  END
> <minimizedAffinity>
-7.22926

$$$$
3F19_HS6_A_0


 17 17  0  0  0  0  0  0  0  0999 V2000
  -11.1354   -7.4983  -15.3087 O   0  0  0  0  0  0  0  0  0  0  0  0
  -10.2813   -6.6026  -16.0463 S   0  0  0  0  0  0  0  0  0  0  0  0
  -10.4298   -5.2441  -15.6074 O   0  0  0  0  0  0  0  0  0  0  0  0
   -8.7506   -7.0386  -15.7711 C   0  0  0  0  0  0  0  0  0  0  0  0
   -8.3498   -7.4378  -14.4899 C   0  0  0  0  0  0  0  0  0  0  0  0
   -7.7872   -6.9953  -16.7904 C   0  0  0  0  0  0  0  0  0  0  0  0
   -6.4611   -7.3538  -16.5341 C   0  0  0  0  0  0  0  0  0  0  0  0
   -6.0807   -7.7549  -15.2507 C   0  0  0  0  0  0  0  0  0  0  0  0
   -4.8026   -8.0981  -14.9879 F   0  0  0  0  0  0  0  0  0  0  0  0
   -7.0256   -7.7986  -14.2292 C   0  0  0  0  0  0  0  0  0  0  0  0
  -10.6912   -6.6846  -17.5963 N   0  0  0  0  0  0  0  0  0  0  0  0
  -11.6774   -6.9441  -17.6186 H   0  0  0  0  0  0  0  0  0  0  0  0
  -10.5488   -5.5469  -18.4851 C   0  0  0  0  0  0  0  0  0  0  0  0
  -11.8732   -4.8567  -18.6509 C   0  0  0  0  0  0  0  0  0  0  0  0
  -11.9303   -3.7285  -19.1168 O   0  0  0  0  0  0  0  0  0  0  0  0
  -12.9503   -5.5229  -18.2538 N   0  0  0  0  0  0  0  0  0  0  0  0
  -13.4533   -5.2587  -16.9865 O   0  0  0  0  0  0  0  0  0  0  0  0
  1  2  2  0  0  0
  2  3  2  0  0  0
  2 11  1  0  0  0
  2  4  1  0  0  0
 11 13  1  0  0  0
 13 14  1  0  0  0
 14 15  2  0  0  0
 14 16  1  0  0  0
 16 17  2  0  0  0
  4  5  2  0  0  0
  4  6  1  0  0  0
  5 10  1  0  0  0
  6  7  2  0  0  0
  7  8  1  0  0  0
  8  9  1  0  0  0
  8 10  2  0  0  0
 11 12  1  0  0  0
M  END
> <minimizedAffinity>
-7.07112

$$$$
3F19_HS6_A_0


 17 17  0  0  0  0  0  0  0  0999 V2000
  -10.7464   -7.3201  -19.3906 O   0  0  0  0  0  0  0  0  0  0  0  0
  -10.9884   -6.3557  -18.3479 S   0  0  0  0  0  0  0  0  0  0  0  0
  -12.2746   -6.5423  -17.7389 O   0  0  0  0  0  0  0  0  0  0  0  0
   -9.8709   -6.5739  -17.2023 C   0  0  0  0  0  0  0  0  0  0  0  0
   -8.5237   -6.7315  -17.5513 C   0  0  0  0  0  0  0  0  0  0  0  0
  -10.2234   -6.6447  -15.8459 C   0  0  0  0  0  0  0  0  0  0  0  0
   -9.2498   -6.8562  -14.8660 C   0  0  0  0  0  0  0  0  0  0  0  0
   -7.9097   -7.0057  -15.2326 C   0  0  0  0  0  0  0  0  0  0  0  0
   -6.9602   -7.2162  -14.2975 F   0  0  0  0  0  0  0  0  0  0  0  0
   -7.5466   -6.9415  -16.5752 C   0  0  0  0  0  0  0  0  0  0  0  0
  -10.9425   -4.8904  -19.0023 N   0  0  0  0  0  0  0  0  0  0  0  0
  -10.1100   -4.4352  -18.6279 H   0  0  0  0  0  0  0  0  0  0  0  0
  -10.9013   -4.6970  -20.4395 C   0  0  0  0  0  0  0  0  0  0  0  0
  -12.1195   -3.9418  -20.8905 C   0  0  0  0  0  0  0  0  0  0  0  0
  -13.0209   -4.5160  -21.4828 O   0  0  0  0  0  0  0  0  0  0  0  0
  -12.1492   -2.6408  -20.6293 N   0  0  0  0  0  0  0  0  0  0  0  0
  -12.2547   -2.2414  -19.3034 O   0  0  0  0  0  0  0  0  0  0  0  0
  1  2  2  0  0  0
  2  3  2  0  0  0
  2 11  1  0  0  0
  2  4  1  0  0  0
 11 13  1  0  0  0
 13 14  1  0  0  0
 14 15  2  0  0  0
 14 16  1  0  0  0
 16 17  2  0  0  0
  4  5  2  0  0  0
  4  6  1  0  0  0
  5 10  1  0  0  0
  6  7  2  0  0  0
  7  8  1  0  0  0
  8  9  1  0  0  0
  8 10  2  0  0  0
 11 12  1  0  0  0
M  END
> <minimizedAffinity>
-7.01798

$$$$
3F19_HS6_A_0


 17 17  0  0  0  0  0  0  0  0999 V2000
  -13.4406   -5.1981  -16.9173 O   0  0  0  0  0  0  0  0  0  0  0  0
  -12.6236   -5.4553  -18.0759 S   0  0  0  0  0  0  0  0  0  0  0  0
  -12.3758   -4.2584  -18.8282 O   0  0  0  0  0  0  0  0  0  0  0  0
  -11.1970   -6.0120  -17.5625 C   0  0  0  0  0  0  0  0  0  0  0  0
  -10.0930   -6.0254  -18.4242 C   0  0  0  0  0  0  0  0  0  0  0  0
  -11.0393   -6.5226  -16.2650 C   0  0  0  0  0  0  0  0  0  0  0  0
   -9.8052   -7.0221  -15.8402 C   0  0  0  0  0  0  0  0  0  0  0  0
   -8.7133   -7.0222  -16.7122 C   0  0  0  0  0  0  0  0  0  0  0  0
   -7.5177   -7.5067  -16.3171 F   0  0  0  0  0  0  0  0  0  0  0  0
   -8.8569   -6.5221  -18.0035 C   0  0  0  0  0  0  0  0  0  0  0  0
  -13.4046   -6.4957  -19.0167 N   0  0  0  0  0  0  0  0  0  0  0  0
  -14.3438   -6.5838  -18.6286 H   0  0  0  0  0  0  0  0  0  0  0  0
  -13.5714   -6.2626  -20.4388 C   0  0  0  0  0  0  0  0  0  0  0  0
  -12.3366   -6.6951  -21.1778 C   0  0  0  0  0  0  0  0  0  0  0  0
  -11.6249   -5.8707  -21.7318 O   0  0  0  0  0  0  0  0  0  0  0  0
  -12.0809   -7.9972  -21.2076 N   0  0  0  0  0  0  0  0  0  0  0  0
  -11.7063   -8.6181  -20.0232 O   0  0  0  0  0  0  0  0  0  0  0  0
  1  2  2  0  0  0
  2  3  2  0  0  0
  2 11  1  0  0  0
  2  4  1  0  0  0
 11 13  1  0  0  0
 13 14  1  0  0  0
 14 15  2  0  0  0
 14 16  1  0  0  0
 16 17  2  0  0  0
  4  5  2  0  0  0
  4  6  1  0  0  0
  5 10  1  0  0  0
  6  7  2  0  0  0
  7  8  1  0  0  0
  8  9  1  0  0  0
  8 10  2  0  0  0
 11 12  1  0  0  0
M  END
> <minimizedAffinity>
-6.89058

$$$$
3F19_HS6_A_0


 17 17  0  0  0  0  0  0  0  0999 V2000
  -11.2344   -7.3495  -16.0110 O   0  0  0  0  0  0  0  0  0  0  0  0
  -10.2840   -6.3035  -16.2911 S   0  0  0  0  0  0  0  0  0  0  0  0
  -10.5239   -5.1381  -15.4884 O   0  0  0  0  0  0  0  0  0  0  0  0
   -8.8133   -6.8574  -15.9181 C   0  0  0  0  0  0  0  0  0  0  0  0
   -8.5156   -7.2403  -14.6042 C   0  0  0  0  0  0  0  0  0  0  0  0
   -7.7984   -6.9351  -16.8839 C   0  0  0  0  0  0  0  0  0  0  0  0
   -6.5235   -7.3950  -16.5435 C   0  0  0  0  0  0  0  0  0  0  0  0
   -6.2463   -7.7779  -15.2285 C   0  0  0  0  0  0  0  0  0  0  0  0
   -5.0183   -8.2183  -14.8847 F   0  0  0  0  0  0  0  0  0  0  0  0
   -7.2430   -7.7022  -14.2594 C   0  0  0  0  0  0  0  0  0  0  0  0
  -10.4307   -5.8962  -17.8370 N   0  0  0  0  0  0  0  0  0  0  0  0
  -10.5934   -6.7639  -18.3479 H   0  0  0  0  0  0  0  0  0  0  0  0
  -11.4449   -4.9618  -18.2875 C   0  0  0  0  0  0  0  0  0  0  0  0
  -12.7084   -5.7006  -18.6273 C   0  0  0  0  0  0  0  0  0  0  0  0
  -13.7297   -5.5108  -17.9838 O   0  0  0  0  0  0  0  0  0  0  0  0
  -12.6458   -6.5646  -19.6329 N   0  0  0  0  0  0  0  0  0  0  0  0
  -11.5183   -6.5451  -20.4436 O   0  0  0  0  0  0  0  0  0  0  0  0
  1  2  2  0  0  0
  2  3  2  0  0  0
  2 11  1  0  0  0
  2  4  1  0  0  0
 11 13  1  0  0  0
 13 14  1  0  0  0
 14 15  2  0  0  0
 14 16  1  0  0  0
 16 17  2  0  0  0
  4  5  2  0  0  0
  4  6  1  0  0  0
  5 10  1  0  0  0
  6  7  2  0  0  0
  7  8  1  0  0  0
  8  9  1  0  0  0
  8 10  2  0  0  0
 11 12  1  0  0  0
M  END
> <minimizedAffinity>
-6.87860

$$$$
3F19_HS6_A_0


 17 17  0  0  0  0  0  0  0  0999 V2000
  -13.7737   -5.5851  -18.3301 O   0  0  0  0  0  0  0  0  0  0  0  0
  -12.5035   -5.2429  -18.9178 S   0  0  0  0  0  0  0  0  0  0  0  0
  -12.2796   -3.8252  -18.9121 O   0  0  0  0  0  0  0  0  0  0  0  0
  -11.3439   -5.9227  -18.0223 C   0  0  0  0  0  0  0  0  0  0  0  0
  -11.6349   -6.4090  -16.7415 C   0  0  0  0  0  0  0  0  0  0  0  0
  -10.0229   -6.0105  -18.4871 C   0  0  0  0  0  0  0  0  0  0  0  0
   -9.0239   -6.5809  -17.6936 C   0  0  0  0  0  0  0  0  0  0  0  0
   -9.3341   -7.0658  -16.4203 C   0  0  0  0  0  0  0  0  0  0  0  0
   -8.3784   -7.6135  -15.6413 F   0  0  0  0  0  0  0  0  0  0  0  0
  -10.6401   -6.9814  -15.9452 C   0  0  0  0  0  0  0  0  0  0  0  0
  -12.5043   -5.7522  -20.4403 N   0  0  0  0  0  0  0  0  0  0  0  0
  -11.6541   -6.3032  -20.5587 H   0  0  0  0  0  0  0  0  0  0  0  0
  -13.5877   -6.5543  -20.9766 C   0  0  0  0  0  0  0  0  0  0  0  0
  -13.0334   -7.7635  -21.6755 C   0  0  0  0  0  0  0  0  0  0  0  0
  -13.6825   -8.3310  -22.5414 O   0  0  0  0  0  0  0  0  0  0  0  0
  -11.8326   -8.1794  -21.2925 N   0  0  0  0  0  0  0  0  0  0  0  0
  -11.7134   -8.7745  -20.0433 O   0  0  0  0  0  0  0  0  0  0  0  0
  1  2  2  0  0  0
  2  3  2  0  0  0
  2 11  1  0  0  0
  2  4  1  0  0  0
 11 13  1  0  0  0
 13 14  1  0  0  0
 14 15  2  0  0  0
 14 16  1  0  0  0
 16 17  2  0  0  0
  4  5  2  0  0  0
  4  6  1  0  0  0
  5 10  1  0  0  0
  6  7  2  0  0  0
  7  8  1  0  0  0
  8  9  1  0  0  0
  8 10  2  0  0  0
 11 12  1  0  0  0
M  END
> <minimizedAffinity>
-6.60037

$$$$
3F19_HS6_A_0


 17 17  0  0  0  0  0  0  0  0999 V2000
  -13.7533   -5.5226  -18.2212 O   0  0  0  0  0  0  0  0  0  0  0  0
  -12.4935   -5.2693  -18.8729 S   0  0  0  0  0  0  0  0  0  0  0  0
  -12.2140   -3.8643  -18.9622 O   0  0  0  0  0  0  0  0  0  0  0  0
  -11.3289   -5.9416  -17.9783 C   0  0  0  0  0  0  0  0  0  0  0  0
  -11.6057   -6.3903  -16.6807 C   0  0  0  0  0  0  0  0  0  0  0  0
  -10.0168   -6.0598  -18.4614 C   0  0  0  0  0  0  0  0  0  0  0  0
   -9.0129   -6.6231  -17.6691 C   0  0  0  0  0  0  0  0  0  0  0  0
   -9.3090   -7.0704  -16.3788 C   0  0  0  0  0  0  0  0  0  0  0  0
   -8.3483   -7.6109  -15.6008 F   0  0  0  0  0  0  0  0  0  0  0  0
  -10.6059   -6.9555  -15.8854 C   0  0  0  0  0  0  0  0  0  0  0  0
  -12.5712   -5.8687  -20.3602 N   0  0  0  0  0  0  0  0  0  0  0  0
  -11.6935   -6.3646  -20.5156 H   0  0  0  0  0  0  0  0  0  0  0  0
  -13.6290   -6.7759  -20.7635 C   0  0  0  0  0  0  0  0  0  0  0  0
  -14.2357   -6.3133  -22.0580 C   0  0  0  0  0  0  0  0  0  0  0  0
  -14.8408   -7.0970  -22.7741 O   0  0  0  0  0  0  0  0  0  0  0  0
  -14.0637   -5.0368  -22.3784 N   0  0  0  0  0  0  0  0  0  0  0  0
  -14.6310   -4.0729  -21.5551 O   0  0  0  0  0  0  0  0  0  0  0  0
  1  2  2  0  0  0
  2  3  2  0  0  0
  2 11  1  0  0  0
  2  4  1  0  0  0
 11 13  1  0  0  0
 13 14  1  0  0  0
 14 15  2  0  0  0
 14 16  1  0  0  0
 16 17  2  0  0  0
  4  5  2  0  0  0
  4  6  1  0  0  0
  5 10  1  0  0  0
  6  7  2  0  0  0
  7  8  1  0  0  0
  8  9  1  0  0  0
  8 10  2  0  0  0
 11 12  1  0  0  0
M  END
> <minimizedAffinity>
-6.46629

$$$$
3F19_HS6_A_0


 17 17  0  0  0  0  0  0  0  0999 V2000
  -13.7521   -5.4644  -18.1323 O   0  0  0  0  0  0  0  0  0  0  0  0
  -12.5024   -5.2048  -18.8007 S   0  0  0  0  0  0  0  0  0  0  0  0
  -12.2293   -3.7986  -18.8904 O   0  0  0  0  0  0  0  0  0  0  0  0
  -11.3231   -5.8750  -17.9239 C   0  0  0  0  0  0  0  0  0  0  0  0
  -10.0351   -6.0078  -18.4576 C   0  0  0  0  0  0  0  0  0  0  0  0
  -11.5662   -6.3669  -16.6324 C   0  0  0  0  0  0  0  0  0  0  0  0
  -10.5425   -6.9649  -15.8925 C   0  0  0  0  0  0  0  0  0  0  0  0
   -9.2621   -7.0837  -16.4394 C   0  0  0  0  0  0  0  0  0  0  0  0
   -8.2660   -7.6640  -15.7384 F   0  0  0  0  0  0  0  0  0  0  0  0
   -9.0081   -6.6034  -17.7213 C   0  0  0  0  0  0  0  0  0  0  0  0
  -12.5984   -5.8009  -20.2883 N   0  0  0  0  0  0  0  0  0  0  0  0
  -11.7128   -6.2752  -20.4647 H   0  0  0  0  0  0  0  0  0  0  0  0
  -13.6429   -6.7317  -20.6720 C   0  0  0  0  0  0  0  0  0  0  0  0
  -13.6530   -6.9047  -22.1646 C   0  0  0  0  0  0  0  0  0  0  0  0
  -14.7051   -7.0767  -22.7617 O   0  0  0  0  0  0  0  0  0  0  0  0
  -12.4768   -6.8781  -22.7791 N   0  0  0  0  0  0  0  0  0  0  0  0
  -11.9760   -5.6469  -23.1816 O   0  0  0  0  0  0  0  0  0  0  0  0
  1  2  2  0  0  0
  2  3  2  0  0  0
  2 11  1  0  0  0
  2  4  1  0  0  0
 11 13  1  0  0  0
 13 14  1  0  0  0
 14 15  2  0  0  0
 14 16  1  0  0  0
 16 17  2  0  0  0
  4  5  2  0  0  0
  4  6  1  0  0  0
  5 10  1  0  0  0
  6  7  2  0  0  0
  7  8  1  0  0  0
  8  9  1  0  0  0
  8 10  2  0  0  0
 11 12  1  0  0  0
M  END
> <minimizedAffinity>
-6.22653

$$$$
