2O0U_C0M_A_2000


 35 39  0  0  0  0  0  0  0  0999 V2000
   22.7048    5.5970   30.9961 C   0  0  0  0  0  0  0  0  0  0  0  0
   22.4405    7.0383   31.3272 C   0  0  0  0  0  0  0  0  0  0  0  0
   26.6434    6.8894   28.7489 O   0  0  0  0  0  0  0  0  0  0  0  0
   25.9175    6.1228   29.3963 C   0  0  0  0  0  0  0  0  0  0  0  0
   24.6484    6.5021   29.7160 N   0  0  0  0  0  0  0  0  0  0  0  0
   23.5573    5.5246   29.7417 C   0  0  0  0  0  0  0  0  0  0  0  0
   24.3233    7.9480   29.7599 C   0  0  0  0  0  0  0  0  0  0  0  0
   23.2519    8.1262   30.7888 C   0  0  0  0  0  0  0  0  0  0  0  0
   22.7775    9.6784   31.3745 S   0  0  0  0  0  0  0  0  0  0  0  0
   21.5036    9.0739   32.3700 C   0  0  0  0  0  0  0  0  0  0  0  0
   21.4761    7.6063   32.2639 C   0  0  0  0  0  0  0  0  0  0  0  0
   20.7309    9.7867   33.1423 N   0  0  0  0  0  0  0  0  0  0  0  0
   21.0037   11.0368   33.5852 C   0  0  0  0  0  0  0  0  0  0  0  0
   21.8640   11.7568   33.1487 O   0  0  0  0  0  0  0  0  0  0  0  0
   19.8794    9.3825   33.4264 H   0  0  0  0  0  0  0  0  0  0  0  0
   20.0551   11.4726   34.6476 C   0  0  0  0  0  0  0  0  0  0  0  0
   20.0449   10.8251   35.8973 C   0  0  0  0  0  0  0  0  0  0  0  0
   19.1164   11.1742   36.8669 C   0  0  0  0  0  0  0  0  0  0  0  0
   18.1534   12.1381   36.6325 C   0  0  0  0  0  0  0  0  0  0  0  0
   19.0348   12.5016   34.3388 C   0  0  0  0  0  0  0  0  0  0  0  0
   18.9744   13.1774   33.1182 C   0  0  0  0  0  0  0  0  0  0  0  0
   18.0037   14.1380   32.9371 C   0  0  0  0  0  0  0  0  0  0  0  0
   17.0622   14.4373   33.9460 C   0  0  0  0  0  0  0  0  0  0  0  0
   17.1086   13.7930   35.1743 C   0  0  0  0  0  0  0  0  0  0  0  0
   18.0672   12.8070   35.4086 C   0  0  0  0  0  0  0  0  0  0  0  0
   20.7017    6.7132   32.8797 C   0  0  0  0  0  0  0  0  0  0  0  0
   20.0566    5.9495   33.4222 N   0  0  0  0  0  0  0  0  0  0  0  0
   26.4175    4.7586   29.9063 C   0  0  0  0  0  0  0  0  0  0  0  0
   27.3507    4.8053   31.1334 C   0  0  0  0  0  0  0  0  0  0  0  0
   26.7273    4.1586   32.3025 N   0  0  0  0  0  0  0  0  0  0  0  0
   25.6033    3.3145   31.8878 C   0  0  0  0  0  0  0  0  0  0  0  0
   24.8567    2.8980   33.1586 C   0  0  0  0  0  0  0  0  0  0  0  0
   25.7719    2.1026   34.0902 C   0  0  0  0  0  0  0  0  0  0  0  0
   27.0961    2.8269   34.3118 C   0  0  0  0  0  0  0  0  0  0  0  0
   27.7095    3.3065   32.9904 C   0  0  0  0  0  0  0  0  0  0  0  0
  1  6  1  0  0  0
  1  2  1  0  0  0
  2  8  2  0  0  0
  2 11  1  0  0  0
  3  4  2  0  0  0
  4  5  1  0  0  0
  4 28  1  0  0  0
 28 29  1  0  0  0
 29 30  1  0  0  0
 30 35  1  0  0  0
 30 31  1  0  0  0
 31 32  1  0  0  0
 32 33  1  0  0  0
 33 34  1  0  0  0
 34 35  1  0  0  0
  5  6  1  0  0  0
  5  7  1  0  0  0
  7  8  1  0  0  0
  8  9  1  0  0  0
  9 10  1  0  0  0
 10 11  2  0  0  0
 10 12  1  0  0  0
 11 26  1  0  0  0
 26 27  3  0  0  0
 12 13  1  0  0  0
 13 14  2  0  0  0
 13 16  1  0  0  0
 16 20  2  0  0  0
 16 17  1  0  0  0
 17 18  2  0  0  0
 18 19  1  0  0  0
 19 25  2  0  0  0
 20 21  1  0  0  0
 20 25  1  0  0  0
 21 22  2  0  0  0
 22 23  1  0  0  0
 23 24  2  0  0  0
 24 25  1  0  0  0
 12 15  1  0  0  0
M  END
> <minimizedAffinity>
-11.73605

$$$$
2O0U_C0M_A_2000


 35 39  0  0  0  0  0  0  0  0999 V2000
   23.4984    6.3289   30.3952 C   0  0  0  0  0  0  0  0  0  0  0  0
   23.0204    7.6869   30.8243 C   0  0  0  0  0  0  0  0  0  0  0  0
   27.0261    8.3753   28.0288 O   0  0  0  0  0  0  0  0  0  0  0  0
   26.4773    7.4664   28.6662 C   0  0  0  0  0  0  0  0  0  0  0  0
   25.1847    7.6104   29.0726 N   0  0  0  0  0  0  0  0  0  0  0  0
   24.2736    6.4633   29.0965 C   0  0  0  0  0  0  0  0  0  0  0  0
   24.6287    8.9771   29.2187 C   0  0  0  0  0  0  0  0  0  0  0  0
   23.6069    8.9211   30.3102 C   0  0  0  0  0  0  0  0  0  0  0  0
   22.9192   10.3403   31.0104 S   0  0  0  0  0  0  0  0  0  0  0  0
   21.8253    9.4814   32.0326 C   0  0  0  0  0  0  0  0  0  0  0  0
   22.0341    8.0372   31.8413 C   0  0  0  0  0  0  0  0  0  0  0  0
   20.9938   10.0148   32.8844 N   0  0  0  0  0  0  0  0  0  0  0  0
   21.0755   11.2738   33.3760 C   0  0  0  0  0  0  0  0  0  0  0  0
   21.7681   12.1511   32.9291 O   0  0  0  0  0  0  0  0  0  0  0  0
   20.2453    9.4560   33.1954 H   0  0  0  0  0  0  0  0  0  0  0  0
   20.1379   11.4918   34.5126 C   0  0  0  0  0  0  0  0  0  0  0  0
   20.2846   10.7554   35.7031 C   0  0  0  0  0  0  0  0  0  0  0  0
   19.3734   10.8977   36.7393 C   0  0  0  0  0  0  0  0  0  0  0  0
   18.2782   11.7342   36.6297 C   0  0  0  0  0  0  0  0  0  0  0  0
   18.9732   12.3904   34.3370 C   0  0  0  0  0  0  0  0  0  0  0  0
   18.7544   13.1428   33.1810 C   0  0  0  0  0  0  0  0  0  0  0  0
   17.6551   13.9710   33.1245 C   0  0  0  0  0  0  0  0  0  0  0  0
   16.7398   14.0593   34.1962 C   0  0  0  0  0  0  0  0  0  0  0  0
   16.9410   13.3356   35.3631 C   0  0  0  0  0  0  0  0  0  0  0  0
   18.0347   12.4765   35.4710 C   0  0  0  0  0  0  0  0  0  0  0  0
   21.4565    6.9972   32.4422 C   0  0  0  0  0  0  0  0  0  0  0  0
   20.9680    6.1192   32.9756 N   0  0  0  0  0  0  0  0  0  0  0  0
   27.2256    6.1820   29.0681 C   0  0  0  0  0  0  0  0  0  0  0  0
   28.7272    6.3524   29.3764 C   0  0  0  0  0  0  0  0  0  0  0  0
   29.5529    5.5176   28.4847 N   0  0  0  0  0  0  0  0  0  0  0  0
   28.9843    4.1723   28.3633 C   0  0  0  0  0  0  0  0  0  0  0  0
   30.0242    3.3039   27.6491 C   0  0  0  0  0  0  0  0  0  0  0  0
   30.3266    3.8547   26.2550 C   0  0  0  0  0  0  0  0  0  0  0  0
   30.6393    5.3468   26.3082 C   0  0  0  0  0  0  0  0  0  0  0  0
   29.6056    6.1146   27.1413 C   0  0  0  0  0  0  0  0  0  0  0  0
  1  6  1  0  0  0
  1  2  1  0  0  0
  2  8  2  0  0  0
  2 11  1  0  0  0
  3  4  2  0  0  0
  4  5  1  0  0  0
  4 28  1  0  0  0
 28 29  1  0  0  0
 29 30  1  0  0  0
 30 35  1  0  0  0
 30 31  1  0  0  0
 31 32  1  0  0  0
 32 33  1  0  0  0
 33 34  1  0  0  0
 34 35  1  0  0  0
  5  6  1  0  0  0
  5  7  1  0  0  0
  7  8  1  0  0  0
  8  9  1  0  0  0
  9 10  1  0  0  0
 10 11  2  0  0  0
 10 12  1  0  0  0
 11 26  1  0  0  0
 26 27  3  0  0  0
 12 13  1  0  0  0
 13 14  2  0  0  0
 13 16  1  0  0  0
 16 20  2  0  0  0
 16 17  1  0  0  0
 17 18  2  0  0  0
 18 19  1  0  0  0
 19 25  2  0  0  0
 20 21  1  0  0  0
 20 25  1  0  0  0
 21 22  2  0  0  0
 22 23  1  0  0  0
 23 24  2  0  0  0
 24 25  1  0  0  0
 12 15  1  0  0  0
M  END
> <minimizedAffinity>
-10.93561

$$$$
2O0U_C0M_A_2000


 35 39  0  0  0  0  0  0  0  0999 V2000
   23.2488    6.0783   30.6219 C   0  0  0  0  0  0  0  0  0  0  0  0
   22.8116    7.4670   30.9925 C   0  0  0  0  0  0  0  0  0  0  0  0
   26.8379    7.9163   28.1780 O   0  0  0  0  0  0  0  0  0  0  0  0
   26.2616    7.0519   28.8522 C   0  0  0  0  0  0  0  0  0  0  0  0
   24.9737    7.2517   29.2497 N   0  0  0  0  0  0  0  0  0  0  0  0
   24.0285    6.1345   29.3202 C   0  0  0  0  0  0  0  0  0  0  0  0
   24.4589    8.6394   29.3370 C   0  0  0  0  0  0  0  0  0  0  0  0
   23.4353    8.6602   30.4279 C   0  0  0  0  0  0  0  0  0  0  0  0
   22.7902   10.1277   31.0664 S   0  0  0  0  0  0  0  0  0  0  0  0
   21.6703    9.3459   32.1218 C   0  0  0  0  0  0  0  0  0  0  0  0
   21.8356    7.8893   31.9920 C   0  0  0  0  0  0  0  0  0  0  0  0
   20.8547    9.9395   32.9489 N   0  0  0  0  0  0  0  0  0  0  0  0
   21.0165   11.1873   33.4492 C   0  0  0  0  0  0  0  0  0  0  0  0
   21.7887   12.0098   33.0295 O   0  0  0  0  0  0  0  0  0  0  0  0
   20.0557    9.4391   33.2326 H   0  0  0  0  0  0  0  0  0  0  0  0
   20.0617   11.4738   34.5558 C   0  0  0  0  0  0  0  0  0  0  0  0
   20.1697   10.7877   35.7801 C   0  0  0  0  0  0  0  0  0  0  0  0
   19.2416   10.9936   36.7902 C   0  0  0  0  0  0  0  0  0  0  0  0
   18.1665   11.8463   36.6218 C   0  0  0  0  0  0  0  0  0  0  0  0
   18.9197   12.3869   34.3174 C   0  0  0  0  0  0  0  0  0  0  0  0
   18.7393   13.0919   33.1254 C   0  0  0  0  0  0  0  0  0  0  0  0
   17.6589   13.9388   33.0104 C   0  0  0  0  0  0  0  0  0  0  0  0
   16.7249   14.0924   34.0584 C   0  0  0  0  0  0  0  0  0  0  0  0
   16.8880   13.4169   35.2596 C   0  0  0  0  0  0  0  0  0  0  0  0
   17.9612   12.5416   35.4271 C   0  0  0  0  0  0  0  0  0  0  0  0
   21.2266    6.8934   32.6351 C   0  0  0  0  0  0  0  0  0  0  0  0
   20.7036    6.0325   33.1636 N   0  0  0  0  0  0  0  0  0  0  0  0
   26.9707    5.7637   29.3092 C   0  0  0  0  0  0  0  0  0  0  0  0
   28.3380    5.4846   28.6523 C   0  0  0  0  0  0  0  0  0  0  0  0
   28.6529    4.0444   28.6672 N   0  0  0  0  0  0  0  0  0  0  0  0
   29.7888    3.7731   29.5526 C   0  0  0  0  0  0  0  0  0  0  0  0
   30.2152    2.3220   29.3106 C   0  0  0  0  0  0  0  0  0  0  0  0
   29.0741    1.3587   29.6394 C   0  0  0  0  0  0  0  0  0  0  0  0
   27.7782    1.7868   28.9578 C   0  0  0  0  0  0  0  0  0  0  0  0
   27.4963    3.2807   29.1602 C   0  0  0  0  0  0  0  0  0  0  0  0
  1  6  1  0  0  0
  1  2  1  0  0  0
  2  8  2  0  0  0
  2 11  1  0  0  0
  3  4  2  0  0  0
  4  5  1  0  0  0
  4 28  1  0  0  0
 28 29  1  0  0  0
 29 30  1  0  0  0
 30 35  1  0  0  0
 30 31  1  0  0  0
 31 32  1  0  0  0
 32 33  1  0  0  0
 33 34  1  0  0  0
 34 35  1  0  0  0
  5  6  1  0  0  0
  5  7  1  0  0  0
  7  8  1  0  0  0
  8  9  1  0  0  0
  9 10  1  0  0  0
 10 11  2  0  0  0
 10 12  1  0  0  0
 11 26  1  0  0  0
 26 27  3  0  0  0
 12 13  1  0  0  0
 13 14  2  0  0  0
 13 16  1  0  0  0
 16 20  2  0  0  0
 16 17  1  0  0  0
 17 18  2  0  0  0
 18 19  1  0  0  0
 19 25  2  0  0  0
 20 21  1  0  0  0
 20 25  1  0  0  0
 21 22  2  0  0  0
 22 23  1  0  0  0
 23 24  2  0  0  0
 24 25  1  0  0  0
 12 15  1  0  0  0
M  END
> <minimizedAffinity>
-10.92434

$$$$
2O0U_C0M_A_2000


 35 39  0  0  0  0  0  0  0  0999 V2000
   24.5395    7.9670   29.8748 C   0  0  0  0  0  0  0  0  0  0  0  0
   23.8882    9.1496   30.5339 C   0  0  0  0  0  0  0  0  0  0  0  0
   28.0350   10.7730   28.4118 O   0  0  0  0  0  0  0  0  0  0  0  0
   27.5279    9.7021   28.7721 C   0  0  0  0  0  0  0  0  0  0  0  0
   26.1963    9.6461   29.0558 N   0  0  0  0  0  0  0  0  0  0  0  0
   25.4093    8.4542   28.7295 C   0  0  0  0  0  0  0  0  0  0  0  0
   25.4921   10.8949   29.4337 C   0  0  0  0  0  0  0  0  0  0  0  0
   24.3884   10.5111   30.3680 C   0  0  0  0  0  0  0  0  0  0  0  0
   23.4990   11.6748   31.2804 S   0  0  0  0  0  0  0  0  0  0  0  0
   22.4124   10.5215   31.9650 C   0  0  0  0  0  0  0  0  0  0  0  0
   22.7845    9.1798   31.4883 C   0  0  0  0  0  0  0  0  0  0  0  0
   21.4580   10.7794   32.8159 N   0  0  0  0  0  0  0  0  0  0  0  0
   21.1678   12.0016   33.3215 C   0  0  0  0  0  0  0  0  0  0  0  0
   21.5772   13.0478   32.8894 O   0  0  0  0  0  0  0  0  0  0  0  0
   20.9031   10.0233   33.1152 H   0  0  0  0  0  0  0  0  0  0  0  0
   20.2024   11.9233   34.4531 C   0  0  0  0  0  0  0  0  0  0  0  0
   20.4262   11.0263   35.5144 C   0  0  0  0  0  0  0  0  0  0  0  0
   19.4968   10.8931   36.5354 C   0  0  0  0  0  0  0  0  0  0  0  0
   18.3112   11.6041   36.5316 C   0  0  0  0  0  0  0  0  0  0  0  0
   18.9409   12.6977   34.3921 C   0  0  0  0  0  0  0  0  0  0  0  0
   18.6433   13.5964   33.3654 C   0  0  0  0  0  0  0  0  0  0  0  0
   17.4542   14.2902   33.4126 C   0  0  0  0  0  0  0  0  0  0  0  0
   16.5268   14.0979   34.4600 C   0  0  0  0  0  0  0  0  0  0  0  0
   16.8034   13.2234   35.5015 C   0  0  0  0  0  0  0  0  0  0  0  0
   17.9902   12.4905   35.5000 C   0  0  0  0  0  0  0  0  0  0  0  0
   22.2656    7.9878   31.7814 C   0  0  0  0  0  0  0  0  0  0  0  0
   21.8015    6.9789   32.0277 N   0  0  0  0  0  0  0  0  0  0  0  0
   28.3653    8.4243   28.9646 C   0  0  0  0  0  0  0  0  0  0  0  0
   29.6374    8.3224   28.0983 C   0  0  0  0  0  0  0  0  0  0  0  0
   29.3392    8.5895   26.6793 N   0  0  0  0  0  0  0  0  0  0  0  0
   30.5239    9.1105   25.9917 C   0  0  0  0  0  0  0  0  0  0  0  0
   30.0680    9.6050   24.6157 C   0  0  0  0  0  0  0  0  0  0  0  0
   29.4693    8.4600   23.7980 C   0  0  0  0  0  0  0  0  0  0  0  0
   28.4227    7.6965   24.6035 C   0  0  0  0  0  0  0  0  0  0  0  0
   28.9306    7.3462   26.0076 C   0  0  0  0  0  0  0  0  0  0  0  0
  1  6  1  0  0  0
  1  2  1  0  0  0
  2  8  2  0  0  0
  2 11  1  0  0  0
  3  4  2  0  0  0
  4  5  1  0  0  0
  4 28  1  0  0  0
 28 29  1  0  0  0
 29 30  1  0  0  0
 30 35  1  0  0  0
 30 31  1  0  0  0
 31 32  1  0  0  0
 32 33  1  0  0  0
 33 34  1  0  0  0
 34 35  1  0  0  0
  5  6  1  0  0  0
  5  7  1  0  0  0
  7  8  1  0  0  0
  8  9  1  0  0  0
  9 10  1  0  0  0
 10 11  2  0  0  0
 10 12  1  0  0  0
 11 26  1  0  0  0
 26 27  3  0  0  0
 12 13  1  0  0  0
 13 14  2  0  0  0
 13 16  1  0  0  0
 16 20  2  0  0  0
 16 17  1  0  0  0
 17 18  2  0  0  0
 18 19  1  0  0  0
 19 25  2  0  0  0
 20 21  1  0  0  0
 20 25  1  0  0  0
 21 22  2  0  0  0
 22 23  1  0  0  0
 23 24  2  0  0  0
 24 25  1  0  0  0
 12 15  1  0  0  0
M  END
> <minimizedAffinity>
-9.80648

$$$$
2O0U_C0M_A_2000


 35 39  0  0  0  0  0  0  0  0999 V2000
   24.7504   10.1214   29.4910 C   0  0  0  0  0  0  0  0  0  0  0  0
   23.9155   11.0385   30.3388 C   0  0  0  0  0  0  0  0  0  0  0  0
   26.6918   13.8868   27.4210 O   0  0  0  0  0  0  0  0  0  0  0  0
   26.6628   12.7189   27.8318 C   0  0  0  0  0  0  0  0  0  0  0  0
   25.5268   12.2318   28.4053 N   0  0  0  0  0  0  0  0  0  0  0  0
   25.1238   10.8375   28.2052 C   0  0  0  0  0  0  0  0  0  0  0  0
   24.5571   13.1859   28.9949 C   0  0  0  0  0  0  0  0  0  0  0  0
   23.8870   12.4837   30.1335 C   0  0  0  0  0  0  0  0  0  0  0  0
   22.8983   13.3110   31.2805 S   0  0  0  0  0  0  0  0  0  0  0  0
   22.4401   11.8821   32.1333 C   0  0  0  0  0  0  0  0  0  0  0  0
   23.1136   10.7273   31.5178 C   0  0  0  0  0  0  0  0  0  0  0  0
   21.6762   11.8321   33.1895 N   0  0  0  0  0  0  0  0  0  0  0  0
   20.5363   11.1095   33.2988 C   0  0  0  0  0  0  0  0  0  0  0  0
   20.1921   10.2357   32.5458 O   0  0  0  0  0  0  0  0  0  0  0  0
   21.9512   12.3633   33.9714 H   0  0  0  0  0  0  0  0  0  0  0  0
   19.7653   11.4640   34.5228 C   0  0  0  0  0  0  0  0  0  0  0  0
   19.9644   10.7473   35.7178 C   0  0  0  0  0  0  0  0  0  0  0  0
   19.1995   11.0210   36.8421 C   0  0  0  0  0  0  0  0  0  0  0  0
   18.1992   11.9749   36.8218 C   0  0  0  0  0  0  0  0  0  0  0  0
   18.6956   12.4859   34.4422 C   0  0  0  0  0  0  0  0  0  0  0  0
   18.4311   13.2277   33.2889 C   0  0  0  0  0  0  0  0  0  0  0  0
   17.4318   14.1753   33.3222 C   0  0  0  0  0  0  0  0  0  0  0  0
   16.6609   14.3967   34.4844 C   0  0  0  0  0  0  0  0  0  0  0  0
   16.9125   13.6857   35.6494 C   0  0  0  0  0  0  0  0  0  0  0  0
   17.9087   12.7094   35.6690 C   0  0  0  0  0  0  0  0  0  0  0  0
   23.0983    9.4393   31.8599 C   0  0  0  0  0  0  0  0  0  0  0  0
   23.0624    8.3394   32.1478 N   0  0  0  0  0  0  0  0  0  0  0  0
   27.8949   11.7977   27.7657 C   0  0  0  0  0  0  0  0  0  0  0  0
   28.8238   12.0104   26.5529 C   0  0  0  0  0  0  0  0  0  0  0  0
   29.1458   10.7300   25.8967 N   0  0  0  0  0  0  0  0  0  0  0  0
   28.7253    9.6014   26.7316 C   0  0  0  0  0  0  0  0  0  0  0  0
   29.3244    8.3339   26.1150 C   0  0  0  0  0  0  0  0  0  0  0  0
   28.8116    8.1290   24.6891 C   0  0  0  0  0  0  0  0  0  0  0  0
   28.9652    9.4005   23.8604 C   0  0  0  0  0  0  0  0  0  0  0  0
   28.4421   10.6329   24.6085 C   0  0  0  0  0  0  0  0  0  0  0  0
  1  6  1  0  0  0
  1  2  1  0  0  0
  2  8  2  0  0  0
  2 11  1  0  0  0
  3  4  2  0  0  0
  4  5  1  0  0  0
  4 28  1  0  0  0
 28 29  1  0  0  0
 29 30  1  0  0  0
 30 35  1  0  0  0
 30 31  1  0  0  0
 31 32  1  0  0  0
 32 33  1  0  0  0
 33 34  1  0  0  0
 34 35  1  0  0  0
  5  6  1  0  0  0
  5  7  1  0  0  0
  7  8  1  0  0  0
  8  9  1  0  0  0
  9 10  1  0  0  0
 10 11  2  0  0  0
 10 12  1  0  0  0
 11 26  1  0  0  0
 26 27  3  0  0  0
 12 13  1  0  0  0
 13 14  2  0  0  0
 13 16  1  0  0  0
 16 20  2  0  0  0
 16 17  1  0  0  0
 17 18  2  0  0  0
 18 19  1  0  0  0
 19 25  2  0  0  0
 20 21  1  0  0  0
 20 25  1  0  0  0
 21 22  2  0  0  0
 22 23  1  0  0  0
 23 24  2  0  0  0
 24 25  1  0  0  0
 12 15  1  0  0  0
M  END
> <minimizedAffinity>
-9.45254

$$$$
2O0U_C0M_A_2000


 35 39  0  0  0  0  0  0  0  0999 V2000
   26.4751   14.0839   27.3769 C   0  0  0  0  0  0  0  0  0  0  0  0
   26.3768   12.7609   28.0818 C   0  0  0  0  0  0  0  0  0  0  0  0
   29.8766   12.3114   24.6345 O   0  0  0  0  0  0  0  0  0  0  0  0
   28.9252   13.0557   24.9077 C   0  0  0  0  0  0  0  0  0  0  0  0
   28.3681   13.0125   26.1504 N   0  0  0  0  0  0  0  0  0  0  0  0
   27.8682   14.2316   26.7913 C   0  0  0  0  0  0  0  0  0  0  0  0
   28.5264   11.7827   26.9632 C   0  0  0  0  0  0  0  0  0  0  0  0
   27.3104   11.6677   27.8272 C   0  0  0  0  0  0  0  0  0  0  0  0
   26.9386   10.2384   28.7197 S   0  0  0  0  0  0  0  0  0  0  0  0
   25.5477   10.9081   29.4919 C   0  0  0  0  0  0  0  0  0  0  0  0
   25.3524   12.2831   29.0050 C   0  0  0  0  0  0  0  0  0  0  0  0
   24.7571   10.2844   30.3209 N   0  0  0  0  0  0  0  0  0  0  0  0
   23.5244    9.8104   30.0220 C   0  0  0  0  0  0  0  0  0  0  0  0
   23.0806    9.6793   28.9107 O   0  0  0  0  0  0  0  0  0  0  0  0
   25.0834   10.1470   31.2396 H   0  0  0  0  0  0  0  0  0  0  0  0
   22.7792    9.3845   31.2392 C   0  0  0  0  0  0  0  0  0  0  0  0
   22.6165    8.0165   31.5278 C   0  0  0  0  0  0  0  0  0  0  0  0
   21.8621    7.6088   32.6181 C   0  0  0  0  0  0  0  0  0  0  0  0
   21.2196    8.5207   33.4347 C   0  0  0  0  0  0  0  0  0  0  0  0
   22.0989   10.4028   32.0730 C   0  0  0  0  0  0  0  0  0  0  0  0
   22.2034   11.7760   31.8413 C   0  0  0  0  0  0  0  0  0  0  0  0
   21.5542   12.6452   32.6902 C   0  0  0  0  0  0  0  0  0  0  0  0
   20.7739   12.1789   33.7709 C   0  0  0  0  0  0  0  0  0  0  0  0
   20.6655   10.8207   34.0344 C   0  0  0  0  0  0  0  0  0  0  0  0
   21.2973    9.8964   33.2023 C   0  0  0  0  0  0  0  0  0  0  0  0
   24.3935   13.1662   29.2824 C   0  0  0  0  0  0  0  0  0  0  0  0
   23.5870   13.9362   29.5077 N   0  0  0  0  0  0  0  0  0  0  0  0
   28.3047   14.0057   23.8668 C   0  0  0  0  0  0  0  0  0  0  0  0
   29.1074   15.2892   23.5713 C   0  0  0  0  0  0  0  0  0  0  0  0
   28.2759   16.4926   23.7552 N   0  0  0  0  0  0  0  0  0  0  0  0
   26.9250   16.1258   24.1893 C   0  0  0  0  0  0  0  0  0  0  0  0
   26.0625   17.3884   24.1011 C   0  0  0  0  0  0  0  0  0  0  0  0
   26.6093   18.4847   25.0161 C   0  0  0  0  0  0  0  0  0  0  0  0
   28.1044   18.6917   24.7950 C   0  0  0  0  0  0  0  0  0  0  0  0
   28.8670   17.3611   24.7850 C   0  0  0  0  0  0  0  0  0  0  0  0
  1  6  1  0  0  0
  1  2  1  0  0  0
  2  8  2  0  0  0
  2 11  1  0  0  0
  3  4  2  0  0  0
  4  5  1  0  0  0
  4 28  1  0  0  0
 28 29  1  0  0  0
 29 30  1  0  0  0
 30 35  1  0  0  0
 30 31  1  0  0  0
 31 32  1  0  0  0
 32 33  1  0  0  0
 33 34  1  0  0  0
 34 35  1  0  0  0
  5  6  1  0  0  0
  5  7  1  0  0  0
  7  8  1  0  0  0
  8  9  1  0  0  0
  9 10  1  0  0  0
 10 11  2  0  0  0
 10 12  1  0  0  0
 11 26  1  0  0  0
 26 27  3  0  0  0
 12 13  1  0  0  0
 13 14  2  0  0  0
 13 16  1  0  0  0
 16 20  2  0  0  0
 16 17  1  0  0  0
 17 18  2  0  0  0
 18 19  1  0  0  0
 19 25  2  0  0  0
 20 21  1  0  0  0
 20 25  1  0  0  0
 21 22  2  0  0  0
 22 23  1  0  0  0
 23 24  2  0  0  0
 24 25  1  0  0  0
 12 15  1  0  0  0
M  END
> <minimizedAffinity>
-9.44836

$$$$
2O0U_C0M_A_2000


 35 39  0  0  0  0  0  0  0  0999 V2000
   28.5558   11.2878   27.0655 C   0  0  0  0  0  0  0  0  0  0  0  0
   27.2919   11.5060   27.8477 C   0  0  0  0  0  0  0  0  0  0  0  0
   28.5760   15.8618   25.9209 O   0  0  0  0  0  0  0  0  0  0  0  0
   29.0879   14.7603   26.1622 C   0  0  0  0  0  0  0  0  0  0  0  0
   28.2907   13.6896   26.4360 N   0  0  0  0  0  0  0  0  0  0  0  0
   28.6570   12.3459   25.9812 C   0  0  0  0  0  0  0  0  0  0  0  0
   26.9195   13.9302   26.9458 C   0  0  0  0  0  0  0  0  0  0  0  0
   26.5712   12.7756   27.8312 C   0  0  0  0  0  0  0  0  0  0  0  0
   25.1879   12.7822   28.8628 S   0  0  0  0  0  0  0  0  0  0  0  0
   25.4132   11.1630   29.4166 C   0  0  0  0  0  0  0  0  0  0  0  0
   26.6317   10.6166   28.7979 C   0  0  0  0  0  0  0  0  0  0  0  0
   24.6689   10.5412   30.2888 N   0  0  0  0  0  0  0  0  0  0  0  0
   23.6305    9.7242   29.9925 C   0  0  0  0  0  0  0  0  0  0  0  0
   23.3950    9.2659   28.9046 O   0  0  0  0  0  0  0  0  0  0  0  0
   24.8794   10.6771   31.2409 H   0  0  0  0  0  0  0  0  0  0  0  0
   22.8290    9.3790   31.1994 C   0  0  0  0  0  0  0  0  0  0  0  0
   22.5906    8.0318   31.5300 C   0  0  0  0  0  0  0  0  0  0  0  0
   21.7846    7.7007   32.6094 C   0  0  0  0  0  0  0  0  0  0  0  0
   21.1633    8.6713   33.3729 C   0  0  0  0  0  0  0  0  0  0  0  0
   22.1747   10.4584   31.9752 C   0  0  0  0  0  0  0  0  0  0  0  0
   22.3535   11.8157   31.6992 C   0  0  0  0  0  0  0  0  0  0  0  0
   21.7225   12.7453   32.4964 C   0  0  0  0  0  0  0  0  0  0  0  0
   20.8881   12.3566   33.5672 C   0  0  0  0  0  0  0  0  0  0  0  0
   20.7052   11.0156   33.8742 C   0  0  0  0  0  0  0  0  0  0  0  0
   21.3156   10.0324   33.0953 C   0  0  0  0  0  0  0  0  0  0  0  0
   27.2222    9.4328   28.9594 C   0  0  0  0  0  0  0  0  0  0  0  0
   27.7241    8.4184   29.0744 N   0  0  0  0  0  0  0  0  0  0  0  0
   30.6139   14.5617   26.2166 C   0  0  0  0  0  0  0  0  0  0  0  0
   31.2699   14.7992   27.5921 C   0  0  0  0  0  0  0  0  0  0  0  0
   31.9770   16.0924   27.6297 N   0  0  0  0  0  0  0  0  0  0  0  0
   33.2993   15.9406   28.2430 C   0  0  0  0  0  0  0  0  0  0  0  0
   33.8514   17.3488   28.4836 C   0  0  0  0  0  0  0  0  0  0  0  0
   33.9881   18.1112   27.1652 C   0  0  0  0  0  0  0  0  0  0  0  0
   32.7000   18.0389   26.3510 C   0  0  0  0  0  0  0  0  0  0  0  0
   32.1629   16.6050   26.2634 C   0  0  0  0  0  0  0  0  0  0  0  0
  1  6  1  0  0  0
  1  2  1  0  0  0
  2  8  2  0  0  0
  2 11  1  0  0  0
  3  4  2  0  0  0
  4  5  1  0  0  0
  4 28  1  0  0  0
 28 29  1  0  0  0
 29 30  1  0  0  0
 30 35  1  0  0  0
 30 31  1  0  0  0
 31 32  1  0  0  0
 32 33  1  0  0  0
 33 34  1  0  0  0
 34 35  1  0  0  0
  5  6  1  0  0  0
  5  7  1  0  0  0
  7  8  1  0  0  0
  8  9  1  0  0  0
  9 10  1  0  0  0
 10 11  2  0  0  0
 10 12  1  0  0  0
 11 26  1  0  0  0
 26 27  3  0  0  0
 12 13  1  0  0  0
 13 14  2  0  0  0
 13 16  1  0  0  0
 16 20  2  0  0  0
 16 17  1  0  0  0
 17 18  2  0  0  0
 18 19  1  0  0  0
 19 25  2  0  0  0
 20 21  1  0  0  0
 20 25  1  0  0  0
 21 22  2  0  0  0
 22 23  1  0  0  0
 23 24  2  0  0  0
 24 25  1  0  0  0
 12 15  1  0  0  0
M  END
> <minimizedAffinity>
-9.13527

$$$$
2O0U_C0M_A_2000


 35 39  0  0  0  0  0  0  0  0999 V2000
   28.1556   12.1823   26.9125 C   0  0  0  0  0  0  0  0  0  0  0  0
   26.8807   12.7547   27.4638 C   0  0  0  0  0  0  0  0  0  0  0  0
   29.1377   16.3688   24.9781 O   0  0  0  0  0  0  0  0  0  0  0  0
   29.4098   15.2701   25.4807 C   0  0  0  0  0  0  0  0  0  0  0  0
   28.4048   14.4195   25.8316 N   0  0  0  0  0  0  0  0  0  0  0  0
   28.5608   12.9707   25.6796 C   0  0  0  0  0  0  0  0  0  0  0  0
   27.0568   14.9761   26.0989 C   0  0  0  0  0  0  0  0  0  0  0  0
   26.4126   14.0946   27.1218 C   0  0  0  0  0  0  0  0  0  0  0  0
   24.9565   14.5318   27.9379 S   0  0  0  0  0  0  0  0  0  0  0  0
   24.8208   13.0420   28.7990 C   0  0  0  0  0  0  0  0  0  0  0  0
   25.9740   12.1928   28.4598 C   0  0  0  0  0  0  0  0  0  0  0  0
   23.8893   12.7367   29.6596 N   0  0  0  0  0  0  0  0  0  0  0  0
   24.0421   12.7137   31.0048 C   0  0  0  0  0  0  0  0  0  0  0  0
   24.9663   13.1946   31.6079 O   0  0  0  0  0  0  0  0  0  0  0  0
   23.0022   12.5039   29.3016 H   0  0  0  0  0  0  0  0  0  0  0  0
   22.8800   12.0808   31.6884 C   0  0  0  0  0  0  0  0  0  0  0  0
   21.9930   12.8648   32.4498 C   0  0  0  0  0  0  0  0  0  0  0  0
   20.9508   12.2750   33.1498 C   0  0  0  0  0  0  0  0  0  0  0  0
   20.7661   10.9049   33.1540 C   0  0  0  0  0  0  0  0  0  0  0  0
   22.7367   10.6063   31.6715 C   0  0  0  0  0  0  0  0  0  0  0  0
   23.5847    9.7631   30.9502 C   0  0  0  0  0  0  0  0  0  0  0  0
   23.3523    8.4055   30.9763 C   0  0  0  0  0  0  0  0  0  0  0  0
   22.2938    7.8507   31.7284 C   0  0  0  0  0  0  0  0  0  0  0  0
   21.4260    8.6658   32.4414 C   0  0  0  0  0  0  0  0  0  0  0  0
   21.6195   10.0472   32.4547 C   0  0  0  0  0  0  0  0  0  0  0  0
   26.3159   10.9859   28.9100 C   0  0  0  0  0  0  0  0  0  0  0  0
   26.6273    9.9570   29.2819 N   0  0  0  0  0  0  0  0  0  0  0  0
   30.8591   14.8423   25.7764 C   0  0  0  0  0  0  0  0  0  0  0  0
   31.2840   14.9014   27.2579 C   0  0  0  0  0  0  0  0  0  0  0  0
   32.0471   16.1298   27.5454 N   0  0  0  0  0  0  0  0  0  0  0  0
   33.2585   15.8186   28.3093 C   0  0  0  0  0  0  0  0  0  0  0  0
   33.8455   17.1494   28.7892 C   0  0  0  0  0  0  0  0  0  0  0  0
   34.2094   18.0420   27.6022 C   0  0  0  0  0  0  0  0  0  0  0  0
   33.0485   18.1509   26.6186 C   0  0  0  0  0  0  0  0  0  0  0  0
   32.4530   16.7767   26.2881 C   0  0  0  0  0  0  0  0  0  0  0  0
  1  6  1  0  0  0
  1  2  1  0  0  0
  2  8  2  0  0  0
  2 11  1  0  0  0
  3  4  2  0  0  0
  4  5  1  0  0  0
  4 28  1  0  0  0
 28 29  1  0  0  0
 29 30  1  0  0  0
 30 35  1  0  0  0
 30 31  1  0  0  0
 31 32  1  0  0  0
 32 33  1  0  0  0
 33 34  1  0  0  0
 34 35  1  0  0  0
  5  6  1  0  0  0
  5  7  1  0  0  0
  7  8  1  0  0  0
  8  9  1  0  0  0
  9 10  1  0  0  0
 10 11  2  0  0  0
 10 12  1  0  0  0
 11 26  1  0  0  0
 26 27  3  0  0  0
 12 13  1  0  0  0
 13 14  2  0  0  0
 13 16  1  0  0  0
 16 20  2  0  0  0
 16 17  1  0  0  0
 17 18  2  0  0  0
 18 19  1  0  0  0
 19 25  2  0  0  0
 20 21  1  0  0  0
 20 25  1  0  0  0
 21 22  2  0  0  0
 22 23  1  0  0  0
 23 24  2  0  0  0
 24 25  1  0  0  0
 12 15  1  0  0  0
M  END
> <minimizedAffinity>
-9.10871

$$$$
2O0U_C0M_A_2000


 35 39  0  0  0  0  0  0  0  0999 V2000
   28.7075   11.7412   27.9024 C   0  0  0  0  0  0  0  0  0  0  0  0
   28.0783   10.4005   28.1549 C   0  0  0  0  0  0  0  0  0  0  0  0
   31.0877    9.8842   24.2804 O   0  0  0  0  0  0  0  0  0  0  0  0
   30.5231   10.7889   24.9101 C   0  0  0  0  0  0  0  0  0  0  0  0
   29.9976   10.5303   26.1404 N   0  0  0  0  0  0  0  0  0  0  0  0
   30.0392   11.5400   27.2012 C   0  0  0  0  0  0  0  0  0  0  0  0
   29.6409    9.1335   26.4869 C   0  0  0  0  0  0  0  0  0  0  0  0
   28.4844    9.1976   27.4339 C   0  0  0  0  0  0  0  0  0  0  0  0
   27.5624    7.8050   27.8674 S   0  0  0  0  0  0  0  0  0  0  0  0
   26.5664    8.6393   29.0038 C   0  0  0  0  0  0  0  0  0  0  0  0
   26.9488   10.0604   29.0142 C   0  0  0  0  0  0  0  0  0  0  0  0
   25.5907    8.1179   29.6949 N   0  0  0  0  0  0  0  0  0  0  0  0
   24.2799    8.1638   29.3582 C   0  0  0  0  0  0  0  0  0  0  0  0
   23.8503    8.4715   28.2767 O   0  0  0  0  0  0  0  0  0  0  0  0
   25.8267    7.6529   30.5299 H   0  0  0  0  0  0  0  0  0  0  0  0
   23.4009    7.7090   30.4713 C   0  0  0  0  0  0  0  0  0  0  0  0
   23.1139    6.3407   30.6335 C   0  0  0  0  0  0  0  0  0  0  0  0
   22.2384    5.9142   31.6213 C   0  0  0  0  0  0  0  0  0  0  0  0
   21.5944    6.8109   32.4534 C   0  0  0  0  0  0  0  0  0  0  0  0
   22.7257    8.7133   31.3260 C   0  0  0  0  0  0  0  0  0  0  0  0
   22.9502   10.0873   31.2157 C   0  0  0  0  0  0  0  0  0  0  0  0
   22.2936   10.9397   32.0760 C   0  0  0  0  0  0  0  0  0  0  0  0
   21.3889   10.4578   33.0472 C   0  0  0  0  0  0  0  0  0  0  0  0
   21.1588    9.0967   33.1899 C   0  0  0  0  0  0  0  0  0  0  0  0
   21.7926    8.1896   32.3405 C   0  0  0  0  0  0  0  0  0  0  0  0
   26.4340   11.0852   29.6932 C   0  0  0  0  0  0  0  0  0  0  0  0
   25.9833   11.9448   30.2864 N   0  0  0  0  0  0  0  0  0  0  0  0
   30.3435   12.2026   24.3267 C   0  0  0  0  0  0  0  0  0  0  0  0
   28.9136   12.5615   23.8732 C   0  0  0  0  0  0  0  0  0  0  0  0
   28.6735   14.0132   23.9649 N   0  0  0  0  0  0  0  0  0  0  0  0
   28.0213   14.3499   25.2334 C   0  0  0  0  0  0  0  0  0  0  0  0
   27.5728   15.8113   25.1382 C   0  0  0  0  0  0  0  0  0  0  0  0
   28.7725   16.7347   24.9237 C   0  0  0  0  0  0  0  0  0  0  0  0
   29.6511   16.2395   23.7792 C   0  0  0  0  0  0  0  0  0  0  0  0
   29.9507   14.7403   23.9005 C   0  0  0  0  0  0  0  0  0  0  0  0
  1  6  1  0  0  0
  1  2  1  0  0  0
  2  8  2  0  0  0
  2 11  1  0  0  0
  3  4  2  0  0  0
  4  5  1  0  0  0
  4 28  1  0  0  0
 28 29  1  0  0  0
 29 30  1  0  0  0
 30 35  1  0  0  0
 30 31  1  0  0  0
 31 32  1  0  0  0
 32 33  1  0  0  0
 33 34  1  0  0  0
 34 35  1  0  0  0
  5  6  1  0  0  0
  5  7  1  0  0  0
  7  8  1  0  0  0
  8  9  1  0  0  0
  9 10  1  0  0  0
 10 11  2  0  0  0
 10 12  1  0  0  0
 11 26  1  0  0  0
 26 27  3  0  0  0
 12 13  1  0  0  0
 13 14  2  0  0  0
 13 16  1  0  0  0
 16 20  2  0  0  0
 16 17  1  0  0  0
 17 18  2  0  0  0
 18 19  1  0  0  0
 19 25  2  0  0  0
 20 21  1  0  0  0
 20 25  1  0  0  0
 21 22  2  0  0  0
 22 23  1  0  0  0
 23 24  2  0  0  0
 24 25  1  0  0  0
 12 15  1  0  0  0
M  END
> <minimizedAffinity>
-9.01158

$$$$
2O0U_C0M_A_2000


 35 39  0  0  0  0  0  0  0  0999 V2000
   28.1795   11.4853   27.2790 C   0  0  0  0  0  0  0  0  0  0  0  0
   26.8531   11.8436   27.8866 C   0  0  0  0  0  0  0  0  0  0  0  0
   28.7807   15.9994   26.0569 O   0  0  0  0  0  0  0  0  0  0  0  0
   29.1504   14.8636   26.3841 C   0  0  0  0  0  0  0  0  0  0  0  0
   28.2266   13.8801   26.5733 N   0  0  0  0  0  0  0  0  0  0  0  0
   28.5180   12.4946   26.1963 C   0  0  0  0  0  0  0  0  0  0  0  0
   26.8309   14.2619   26.8966 C   0  0  0  0  0  0  0  0  0  0  0  0
   26.2645   13.1729   27.7520 C   0  0  0  0  0  0  0  0  0  0  0  0
   24.7685   13.3394   28.5955 S   0  0  0  0  0  0  0  0  0  0  0  0
   24.7662   11.7248   29.2056 C   0  0  0  0  0  0  0  0  0  0  0  0
   25.9957   11.0493   28.7607 C   0  0  0  0  0  0  0  0  0  0  0  0
   23.8613   11.2021   29.9862 N   0  0  0  0  0  0  0  0  0  0  0  0
   24.0821   10.7312   31.2365 C   0  0  0  0  0  0  0  0  0  0  0  0
   25.0687   10.9398   31.8938 O   0  0  0  0  0  0  0  0  0  0  0  0
   22.9423   11.1453   29.6378 H   0  0  0  0  0  0  0  0  0  0  0  0
   22.9146    9.9694   31.7608 C   0  0  0  0  0  0  0  0  0  0  0  0
   22.0135   10.5797   32.6534 C   0  0  0  0  0  0  0  0  0  0  0  0
   20.9655    9.8571   33.2043 C   0  0  0  0  0  0  0  0  0  0  0  0
   20.7883    8.5143   32.9272 C   0  0  0  0  0  0  0  0  0  0  0  0
   22.7795    8.5288   31.4424 C   0  0  0  0  0  0  0  0  0  0  0  0
   23.6414    7.8522   30.5765 C   0  0  0  0  0  0  0  0  0  0  0  0
   23.4161    6.5171   30.3226 C   0  0  0  0  0  0  0  0  0  0  0  0
   22.3509    5.8181   30.9314 C   0  0  0  0  0  0  0  0  0  0  0  0
   21.4694    6.4688   31.7832 C   0  0  0  0  0  0  0  0  0  0  0  0
   21.6553    7.8191   32.0799 C   0  0  0  0  0  0  0  0  0  0  0  0
   26.4455    9.8219   29.0205 C   0  0  0  0  0  0  0  0  0  0  0  0
   26.8358    8.7814   29.2634 N   0  0  0  0  0  0  0  0  0  0  0  0
   30.6312   14.5274   26.6394 C   0  0  0  0  0  0  0  0  0  0  0  0
   31.6541   15.4970   26.0129 C   0  0  0  0  0  0  0  0  0  0  0  0
   32.6878   15.8860   26.9896 N   0  0  0  0  0  0  0  0  0  0  0  0
   32.9703   17.3212   26.8988 C   0  0  0  0  0  0  0  0  0  0  0  0
   34.2198   17.5911   27.7424 C   0  0  0  0  0  0  0  0  0  0  0  0
   33.9802   17.2126   29.2044 C   0  0  0  0  0  0  0  0  0  0  0  0
   33.3975   15.8076   29.3213 C   0  0  0  0  0  0  0  0  0  0  0  0
   32.2248   15.5968   28.3556 C   0  0  0  0  0  0  0  0  0  0  0  0
  1  6  1  0  0  0
  1  2  1  0  0  0
  2  8  2  0  0  0
  2 11  1  0  0  0
  3  4  2  0  0  0
  4  5  1  0  0  0
  4 28  1  0  0  0
 28 29  1  0  0  0
 29 30  1  0  0  0
 30 35  1  0  0  0
 30 31  1  0  0  0
 31 32  1  0  0  0
 32 33  1  0  0  0
 33 34  1  0  0  0
 34 35  1  0  0  0
  5  6  1  0  0  0
  5  7  1  0  0  0
  7  8  1  0  0  0
  8  9  1  0  0  0
  9 10  1  0  0  0
 10 11  2  0  0  0
 10 12  1  0  0  0
 11 26  1  0  0  0
 26 27  3  0  0  0
 12 13  1  0  0  0
 13 14  2  0  0  0
 13 16  1  0  0  0
 16 20  2  0  0  0
 16 17  1  0  0  0
 17 18  2  0  0  0
 18 19  1  0  0  0
 19 25  2  0  0  0
 20 21  1  0  0  0
 20 25  1  0  0  0
 21 22  2  0  0  0
 22 23  1  0  0  0
 23 24  2  0  0  0
 24 25  1  0  0  0
 12 15  1  0  0  0
M  END
> <minimizedAffinity>
-8.83746

$$$$
