6GUE_FB8_A_301


 27 29  0  0  0  0  0  0  0  0999 V2000
   -8.5091  -20.6383   22.2540 C   0  0  0  0  0  0  0  0  0  0  0  0
   -9.8925  -20.6697   22.2948 C   0  0  0  0  0  0  0  0  0  0  0  0
  -10.4816  -21.5688   23.1480 C   0  0  0  0  0  0  0  0  0  0  0  0
   -8.4395  -22.3219   23.8062 C   0  0  0  0  0  0  0  0  0  0  0  0
   -9.7861  -22.4338   23.8809 N   0  0  0  0  0  0  0  0  0  0  0  0
   -7.7656  -21.4652   23.0293 N   0  0  0  0  0  0  0  0  0  0  0  0
   -7.8317  -19.6523   21.4047 C   0  0  0  0  0  0  0  0  0  0  0  0
   -7.3207  -17.7636   20.4494 N   0  0  0  0  0  0  0  0  0  0  0  0
   -8.1092  -18.3146   21.3984 C   0  0  0  0  0  0  0  0  0  0  0  0
   -5.2665  -18.3059   19.1761 C   0  0  0  0  0  0  0  0  0  0  0  0
   -6.4124  -18.6449   20.0489 C   0  0  0  0  0  0  0  0  0  0  0  0
   -6.7760  -19.8561   20.4909 N   0  0  0  0  0  0  0  0  0  0  0  0
   -6.2357  -21.1750   20.0865 C   0  0  0  0  0  0  0  0  0  0  0  0
   -4.8546  -21.4215   20.6800 C   0  0  0  0  0  0  0  0  0  0  0  0
   -6.2954  -21.3371   18.5863 C   0  0  0  0  0  0  0  0  0  0  0  0
   -7.8789  -23.2088   24.6489 N   0  0  0  0  0  0  0  0  0  0  0  0
   -8.4078  -23.3976   25.4576 H   0  0  0  0  0  0  0  0  0  0  0  0
   -4.7908  -24.9541   25.6176 C   0  0  0  0  0  0  0  0  0  0  0  0
   -4.8379  -24.7406   23.2274 C   0  0  0  0  0  0  0  0  0  0  0  0
   -6.6661  -23.9092   24.5666 C   0  0  0  0  0  0  0  0  0  0  0  0
   -6.0697  -24.1188   23.3211 C   0  0  0  0  0  0  0  0  0  0  0  0
   -4.2062  -25.1384   24.3841 C   0  0  0  0  0  0  0  0  0  0  0  0
   -6.0093  -24.3295   25.7094 C   0  0  0  0  0  0  0  0  0  0  0  0
   -2.0083  -26.1289   25.8690 C   0  0  0  0  0  0  0  0  0  0  0  0
   -2.6626  -25.9677   24.2581 S   0  0  0  0  0  0  0  0  0  0  0  0
   -2.9579  -27.2976   23.8026 O   0  0  0  0  0  0  0  0  0  0  0  0
   -1.7947  -25.1656   23.4475 O   0  0  0  0  0  0  0  0  0  0  0  0
 26 25  2  0  0  0
 24 25  1  0  0  0
 25 27  2  0  0  0
 25 22  1  0  0  0
 18 22  2  0  0  0
 18 23  1  0  0  0
 22 19  1  0  0  0
 23 20  2  0  0  0
 19 21  2  0  0  0
 20 21  1  0  0  0
 20 16  1  0  0  0
 16  4  1  0  0  0
 15 13  1  0  0  0
  4  5  2  0  0  0
  4  6  1  0  0  0
  5  3  1  0  0  0
  6  1  2  0  0  0
 13 14  1  0  0  0
 13 12  1  0  0  0
  3  2  2  0  0  0
  1  2  1  0  0  0
  1  7  1  0  0  0
 12  7  1  0  0  0
 12 11  1  0  0  0
  7  9  2  0  0  0
 11 10  1  0  0  0
 11  8  2  0  0  0
  9  8  1  0  0  0
 16 17  1  0  0  0
M  END
> <minimizedAffinity>
-9.82945

$$$$
6GUE_FB8_A_301


 27 29  0  0  0  0  0  0  0  0999 V2000
   -5.8672  -21.2870   21.8087 C   0  0  0  0  0  0  0  0  0  0  0  0
   -4.7152  -20.5258   21.9089 C   0  0  0  0  0  0  0  0  0  0  0  0
   -3.5563  -21.1723   22.2584 C   0  0  0  0  0  0  0  0  0  0  0  0
   -4.6723  -23.1480   22.4065 C   0  0  0  0  0  0  0  0  0  0  0  0
   -3.5114  -22.4682   22.5543 N   0  0  0  0  0  0  0  0  0  0  0  0
   -5.8490  -22.6213   22.0467 N   0  0  0  0  0  0  0  0  0  0  0  0
   -7.1185  -20.6538   21.3776 C   0  0  0  0  0  0  0  0  0  0  0  0
   -9.1447  -19.8579   21.4226 N   0  0  0  0  0  0  0  0  0  0  0  0
   -8.1737  -20.3830   22.2020 C   0  0  0  0  0  0  0  0  0  0  0  0
   -9.3900  -18.7964   19.1982 C   0  0  0  0  0  0  0  0  0  0  0  0
   -8.6555  -19.5720   20.2222 C   0  0  0  0  0  0  0  0  0  0  0  0
   -7.4664  -20.1761   20.0963 N   0  0  0  0  0  0  0  0  0  0  0  0
   -6.6673  -20.3695   18.8637 C   0  0  0  0  0  0  0  0  0  0  0  0
   -6.2664  -21.8273   18.6780 C   0  0  0  0  0  0  0  0  0  0  0  0
   -5.5058  -19.4054   18.8259 C   0  0  0  0  0  0  0  0  0  0  0  0
   -4.4547  -24.4491   22.6722 N   0  0  0  0  0  0  0  0  0  0  0  0
   -4.6316  -25.0572   21.9184 H   0  0  0  0  0  0  0  0  0  0  0  0
   -2.7253  -26.7681   24.9421 C   0  0  0  0  0  0  0  0  0  0  0  0
   -4.2139  -25.3953   26.2306 C   0  0  0  0  0  0  0  0  0  0  0  0
   -4.0177  -25.0831   23.8449 C   0  0  0  0  0  0  0  0  0  0  0  0
   -4.5778  -24.7290   25.0746 C   0  0  0  0  0  0  0  0  0  0  0  0
   -3.2989  -26.4203   26.1451 C   0  0  0  0  0  0  0  0  0  0  0  0
   -3.0936  -26.1116   23.7947 C   0  0  0  0  0  0  0  0  0  0  0  0
   -3.4549  -26.3354   28.9709 C   0  0  0  0  0  0  0  0  0  0  0  0
   -2.8060  -27.2343   27.6219 S   0  0  0  0  0  0  0  0  0  0  0  0
   -3.4732  -28.5063   27.6204 O   0  0  0  0  0  0  0  0  0  0  0  0
   -1.3737  -27.2358   27.6690 O   0  0  0  0  0  0  0  0  0  0  0  0
 26 25  2  0  0  0
 24 25  1  0  0  0
 25 27  2  0  0  0
 25 22  1  0  0  0
 18 22  2  0  0  0
 18 23  1  0  0  0
 22 19  1  0  0  0
 23 20  2  0  0  0
 19 21  2  0  0  0
 20 21  1  0  0  0
 20 16  1  0  0  0
 16  4  1  0  0  0
 15 13  1  0  0  0
  4  5  2  0  0  0
  4  6  1  0  0  0
  5  3  1  0  0  0
  6  1  2  0  0  0
 13 14  1  0  0  0
 13 12  1  0  0  0
  3  2  2  0  0  0
  1  2  1  0  0  0
  1  7  1  0  0  0
 12  7  1  0  0  0
 12 11  1  0  0  0
  7  9  2  0  0  0
 11 10  1  0  0  0
 11  8  2  0  0  0
  9  8  1  0  0  0
 16 17  1  0  0  0
M  END
> <minimizedAffinity>
-8.82544

$$$$
6GUE_FB8_A_301


 27 29  0  0  0  0  0  0  0  0999 V2000
   -6.7750  -21.3563   22.4421 C   0  0  0  0  0  0  0  0  0  0  0  0
   -8.0210  -20.9298   22.8688 C   0  0  0  0  0  0  0  0  0  0  0  0
   -8.7187  -21.7555   23.7143 C   0  0  0  0  0  0  0  0  0  0  0  0
   -7.0377  -23.2855   23.6495 C   0  0  0  0  0  0  0  0  0  0  0  0
   -8.2747  -22.9528   24.0862 N   0  0  0  0  0  0  0  0  0  0  0  0
   -6.2643  -22.5452   22.8460 N   0  0  0  0  0  0  0  0  0  0  0  0
   -5.9637  -20.4820   21.5877 C   0  0  0  0  0  0  0  0  0  0  0  0
   -4.2342  -19.5538   20.6453 N   0  0  0  0  0  0  0  0  0  0  0  0
   -4.6042  -20.5549   21.4741 C   0  0  0  0  0  0  0  0  0  0  0  0
   -5.2434  -18.0617   18.9453 C   0  0  0  0  0  0  0  0  0  0  0  0
   -5.3057  -19.0309   20.0617 C   0  0  0  0  0  0  0  0  0  0  0  0
   -6.3937  -19.4602   20.7148 N   0  0  0  0  0  0  0  0  0  0  0  0
   -7.7817  -18.9533   20.6070 C   0  0  0  0  0  0  0  0  0  0  0  0
   -8.2593  -18.9286   19.1608 C   0  0  0  0  0  0  0  0  0  0  0  0
   -7.9219  -17.6301   21.3210 C   0  0  0  0  0  0  0  0  0  0  0  0
   -6.7004  -24.4838   24.1605 N   0  0  0  0  0  0  0  0  0  0  0  0
   -7.3664  -25.1941   24.0154 H   0  0  0  0  0  0  0  0  0  0  0  0
   -3.3795  -25.8732   24.9104 C   0  0  0  0  0  0  0  0  0  0  0  0
   -4.4585  -25.2982   26.9758 C   0  0  0  0  0  0  0  0  0  0  0  0
   -5.5573  -24.8890   24.8657 C   0  0  0  0  0  0  0  0  0  0  0  0
   -5.5473  -24.8326   26.2614 C   0  0  0  0  0  0  0  0  0  0  0  0
   -3.3907  -25.8279   26.2870 C   0  0  0  0  0  0  0  0  0  0  0  0
   -4.4642  -25.4186   24.2033 C   0  0  0  0  0  0  0  0  0  0  0  0
   -2.0040  -25.5644   28.7415 C   0  0  0  0  0  0  0  0  0  0  0  0
   -1.9911  -26.3770   27.1960 S   0  0  0  0  0  0  0  0  0  0  0  0
   -2.2100  -27.7707   27.4659 O   0  0  0  0  0  0  0  0  0  0  0  0
   -0.8163  -26.0202   26.4570 O   0  0  0  0  0  0  0  0  0  0  0  0
 26 25  2  0  0  0
 24 25  1  0  0  0
 25 27  2  0  0  0
 25 22  1  0  0  0
 18 22  2  0  0  0
 18 23  1  0  0  0
 22 19  1  0  0  0
 23 20  2  0  0  0
 19 21  2  0  0  0
 20 21  1  0  0  0
 20 16  1  0  0  0
 16  4  1  0  0  0
 15 13  1  0  0  0
  4  5  2  0  0  0
  4  6  1  0  0  0
  5  3  1  0  0  0
  6  1  2  0  0  0
 13 14  1  0  0  0
 13 12  1  0  0  0
  3  2  2  0  0  0
  1  2  1  0  0  0
  1  7  1  0  0  0
 12  7  1  0  0  0
 12 11  1  0  0  0
  7  9  2  0  0  0
 11 10  1  0  0  0
 11  8  2  0  0  0
  9  8  1  0  0  0
 16 17  1  0  0  0
M  END
> <minimizedAffinity>
-8.75988

$$$$
6GUE_FB8_A_301


 27 29  0  0  0  0  0  0  0  0999 V2000
   -5.3720  -21.2615   20.9783 C   0  0  0  0  0  0  0  0  0  0  0  0
   -4.2248  -20.5514   21.2886 C   0  0  0  0  0  0  0  0  0  0  0  0
   -3.2188  -21.2233   21.9365 C   0  0  0  0  0  0  0  0  0  0  0  0
   -4.4660  -23.1245   21.9565 C   0  0  0  0  0  0  0  0  0  0  0  0
   -3.3263  -22.4922   22.3205 N   0  0  0  0  0  0  0  0  0  0  0  0
   -5.4949  -22.5719   21.3025 N   0  0  0  0  0  0  0  0  0  0  0  0
   -6.4503  -20.6049   20.2309 C   0  0  0  0  0  0  0  0  0  0  0  0
   -7.5991  -19.7724   18.5792 N   0  0  0  0  0  0  0  0  0  0  0  0
   -6.4856  -20.4802   18.8709 C   0  0  0  0  0  0  0  0  0  0  0  0
   -9.7464  -19.1402   19.6395 C   0  0  0  0  0  0  0  0  0  0  0  0
   -8.3644  -19.6685   19.6589 C   0  0  0  0  0  0  0  0  0  0  0  0
   -7.6393  -20.0287   20.7262 N   0  0  0  0  0  0  0  0  0  0  0  0
   -7.9640  -19.8319   22.1583 C   0  0  0  0  0  0  0  0  0  0  0  0
   -8.9424  -20.8853   22.6617 C   0  0  0  0  0  0  0  0  0  0  0  0
   -8.4090  -18.4114   22.4126 C   0  0  0  0  0  0  0  0  0  0  0  0
   -4.3992  -24.4094   22.3510 N   0  0  0  0  0  0  0  0  0  0  0  0
   -4.6468  -25.0646   21.6592 H   0  0  0  0  0  0  0  0  0  0  0  0
   -2.7500  -26.5266   24.8646 C   0  0  0  0  0  0  0  0  0  0  0  0
   -4.4330  -25.2067   25.9535 C   0  0  0  0  0  0  0  0  0  0  0  0
   -4.0352  -24.9703   23.5843 C   0  0  0  0  0  0  0  0  0  0  0  0
   -4.7278  -24.6082   24.7421 C   0  0  0  0  0  0  0  0  0  0  0  0
   -3.4531  -26.1727   25.9949 C   0  0  0  0  0  0  0  0  0  0  0  0
   -3.0494  -25.9379   23.6617 C   0  0  0  0  0  0  0  0  0  0  0  0
   -1.3499  -26.6315   27.8341 C   0  0  0  0  0  0  0  0  0  0  0  0
   -3.0509  -26.8984   27.5435 S   0  0  0  0  0  0  0  0  0  0  0  0
   -3.7585  -26.1402   28.5373 O   0  0  0  0  0  0  0  0  0  0  0  0
   -3.3260  -28.3022   27.4587 O   0  0  0  0  0  0  0  0  0  0  0  0
 26 25  2  0  0  0
 24 25  1  0  0  0
 25 27  2  0  0  0
 25 22  1  0  0  0
 18 22  2  0  0  0
 18 23  1  0  0  0
 22 19  1  0  0  0
 23 20  2  0  0  0
 19 21  2  0  0  0
 20 21  1  0  0  0
 20 16  1  0  0  0
 16  4  1  0  0  0
 15 13  1  0  0  0
  4  5  2  0  0  0
  4  6  1  0  0  0
  5  3  1  0  0  0
  6  1  2  0  0  0
 13 14  1  0  0  0
 13 12  1  0  0  0
  3  2  2  0  0  0
  1  2  1  0  0  0
  1  7  1  0  0  0
 12  7  1  0  0  0
 12 11  1  0  0  0
  7  9  2  0  0  0
 11 10  1  0  0  0
 11  8  2  0  0  0
  9  8  1  0  0  0
 16 17  1  0  0  0
M  END
> <minimizedAffinity>
-8.70896

$$$$
6GUE_FB8_A_301


 27 29  0  0  0  0  0  0  0  0999 V2000
   -2.3265  -23.4526   21.5169 C   0  0  0  0  0  0  0  0  0  0  0  0
   -0.9661  -23.3543   21.2799 C   0  0  0  0  0  0  0  0  0  0  0  0
   -0.5636  -22.6265   20.1882 C   0  0  0  0  0  0  0  0  0  0  0  0
   -2.7288  -22.1883   19.6493 C   0  0  0  0  0  0  0  0  0  0  0  0
   -1.4181  -22.0708   19.3338 N   0  0  0  0  0  0  0  0  0  0  0  0
   -3.2260  -22.8513   20.7004 N   0  0  0  0  0  0  0  0  0  0  0  0
   -2.8047  -24.1670   22.7059 C   0  0  0  0  0  0  0  0  0  0  0  0
   -2.8979  -25.5816   24.3584 N   0  0  0  0  0  0  0  0  0  0  0  0
   -2.1001  -25.1355   23.3632 C   0  0  0  0  0  0  0  0  0  0  0  0
   -4.9022  -24.8548   25.6191 C   0  0  0  0  0  0  0  0  0  0  0  0
   -3.9453  -24.7774   24.4930 C   0  0  0  0  0  0  0  0  0  0  0  0
   -4.0126  -23.9878   23.4129 N   0  0  0  0  0  0  0  0  0  0  0  0
   -5.1359  -23.1220   22.9842 C   0  0  0  0  0  0  0  0  0  0  0  0
   -4.9771  -21.6988   23.5033 C   0  0  0  0  0  0  0  0  0  0  0  0
   -6.4605  -23.7572   23.3338 C   0  0  0  0  0  0  0  0  0  0  0  0
   -3.4603  -21.5215   18.7375 N   0  0  0  0  0  0  0  0  0  0  0  0
   -3.1034  -21.5555   17.8206 H   0  0  0  0  0  0  0  0  0  0  0  0
   -5.7797  -18.7181   19.2686 C   0  0  0  0  0  0  0  0  0  0  0  0
   -7.0487  -20.7495   19.1142 C   0  0  0  0  0  0  0  0  0  0  0  0
   -4.6468  -20.7860   18.8765 C   0  0  0  0  0  0  0  0  0  0  0  0
   -5.8753  -21.4502   18.9026 C   0  0  0  0  0  0  0  0  0  0  0  0
   -6.9823  -19.3884   19.3096 C   0  0  0  0  0  0  0  0  0  0  0  0
   -4.6154  -19.4160   19.0668 C   0  0  0  0  0  0  0  0  0  0  0  0
   -9.7041  -19.6266   20.0524 C   0  0  0  0  0  0  0  0  0  0  0  0
   -8.4789  -18.4959   19.5335 S   0  0  0  0  0  0  0  0  0  0  0  0
   -8.2528  -17.6044   20.6369 O   0  0  0  0  0  0  0  0  0  0  0  0
   -8.8401  -17.9153   18.2741 O   0  0  0  0  0  0  0  0  0  0  0  0
 26 25  2  0  0  0
 24 25  1  0  0  0
 25 27  2  0  0  0
 25 22  1  0  0  0
 18 22  2  0  0  0
 18 23  1  0  0  0
 22 19  1  0  0  0
 23 20  2  0  0  0
 19 21  2  0  0  0
 20 21  1  0  0  0
 20 16  1  0  0  0
 16  4  1  0  0  0
 15 13  1  0  0  0
  4  5  2  0  0  0
  4  6  1  0  0  0
  5  3  1  0  0  0
  6  1  2  0  0  0
 13 14  1  0  0  0
 13 12  1  0  0  0
  3  2  2  0  0  0
  1  2  1  0  0  0
  1  7  1  0  0  0
 12  7  1  0  0  0
 12 11  1  0  0  0
  7  9  2  0  0  0
 11 10  1  0  0  0
 11  8  2  0  0  0
  9  8  1  0  0  0
 16 17  1  0  0  0
M  END
> <minimizedAffinity>
-8.33059

$$$$
6GUE_FB8_A_301


 27 29  0  0  0  0  0  0  0  0999 V2000
   -5.8977  -22.7742   22.4556 C   0  0  0  0  0  0  0  0  0  0  0  0
   -6.2372  -23.8540   23.2526 C   0  0  0  0  0  0  0  0  0  0  0  0
   -5.3449  -24.8942   23.3250 C   0  0  0  0  0  0  0  0  0  0  0  0
   -3.9406  -23.8235   21.8924 C   0  0  0  0  0  0  0  0  0  0  0  0
   -4.2137  -24.9274   22.6261 N   0  0  0  0  0  0  0  0  0  0  0  0
   -4.7267  -22.7467   21.7734 N   0  0  0  0  0  0  0  0  0  0  0  0
   -6.7892  -21.6106   22.3944 C   0  0  0  0  0  0  0  0  0  0  0  0
   -8.3968  -20.2219   22.8717 N   0  0  0  0  0  0  0  0  0  0  0  0
   -7.7669  -21.3349   23.3080 C   0  0  0  0  0  0  0  0  0  0  0  0
   -8.0017  -18.3354   21.3162 C   0  0  0  0  0  0  0  0  0  0  0  0
   -7.7070  -19.6712   21.8803 C   0  0  0  0  0  0  0  0  0  0  0  0
   -6.8006  -20.5601   21.4524 N   0  0  0  0  0  0  0  0  0  0  0  0
   -5.9879  -20.5105   20.2145 C   0  0  0  0  0  0  0  0  0  0  0  0
   -5.0048  -19.3471   20.2350 C   0  0  0  0  0  0  0  0  0  0  0  0
   -6.8760  -20.5404   18.9936 C   0  0  0  0  0  0  0  0  0  0  0  0
   -2.7406  -23.9756   21.3026 N   0  0  0  0  0  0  0  0  0  0  0  0
   -2.2305  -24.7609   21.6064 H   0  0  0  0  0  0  0  0  0  0  0  0
   -0.0962  -22.4302   19.2679 C   0  0  0  0  0  0  0  0  0  0  0  0
   -2.2096  -21.4896   18.6280 C   0  0  0  0  0  0  0  0  0  0  0  0
   -2.0957  -23.2010   20.3267 C   0  0  0  0  0  0  0  0  0  0  0  0
   -2.8382  -22.3153   19.5423 C   0  0  0  0  0  0  0  0  0  0  0  0
   -0.8390  -21.5490   18.5137 C   0  0  0  0  0  0  0  0  0  0  0  0
   -0.7206  -23.2429   20.1806 C   0  0  0  0  0  0  0  0  0  0  0  0
   -1.2911  -19.7889   16.3424 C   0  0  0  0  0  0  0  0  0  0  0  0
   -0.0488  -20.5308   17.3198 S   0  0  0  0  0  0  0  0  0  0  0  0
    0.5821  -19.4689   18.0530 O   0  0  0  0  0  0  0  0  0  0  0  0
    0.7874  -21.3666   16.5099 O   0  0  0  0  0  0  0  0  0  0  0  0
 26 25  2  0  0  0
 24 25  1  0  0  0
 25 27  2  0  0  0
 25 22  1  0  0  0
 18 22  2  0  0  0
 18 23  1  0  0  0
 22 19  1  0  0  0
 23 20  2  0  0  0
 19 21  2  0  0  0
 20 21  1  0  0  0
 20 16  1  0  0  0
 16  4  1  0  0  0
 15 13  1  0  0  0
  4  5  2  0  0  0
  4  6  1  0  0  0
  5  3  1  0  0  0
  6  1  2  0  0  0
 13 14  1  0  0  0
 13 12  1  0  0  0
  3  2  2  0  0  0
  1  2  1  0  0  0
  1  7  1  0  0  0
 12  7  1  0  0  0
 12 11  1  0  0  0
  7  9  2  0  0  0
 11 10  1  0  0  0
 11  8  2  0  0  0
  9  8  1  0  0  0
 16 17  1  0  0  0
M  END
> <minimizedAffinity>
-8.25781

$$$$
6GUE_FB8_A_301


 27 29  0  0  0  0  0  0  0  0999 V2000
   -6.0779  -20.0216   20.4416 C   0  0  0  0  0  0  0  0  0  0  0  0
   -5.9618  -18.6912   20.0770 C   0  0  0  0  0  0  0  0  0  0  0  0
   -5.0753  -18.3830   19.0758 C   0  0  0  0  0  0  0  0  0  0  0  0
   -4.4891  -20.5718   18.8854 C   0  0  0  0  0  0  0  0  0  0  0  0
   -4.2970  -19.2908   18.4934 N   0  0  0  0  0  0  0  0  0  0  0  0
   -5.3429  -20.9829   19.8308 N   0  0  0  0  0  0  0  0  0  0  0  0
   -7.0568  -20.4099   21.4631 C   0  0  0  0  0  0  0  0  0  0  0  0
   -8.9177  -20.5422   22.5858 N   0  0  0  0  0  0  0  0  0  0  0  0
   -8.3704  -20.0344   21.4595 C   0  0  0  0  0  0  0  0  0  0  0  0
   -8.4421  -22.2909   24.2742 C   0  0  0  0  0  0  0  0  0  0  0  0
   -8.0777  -21.4023   23.1485 C   0  0  0  0  0  0  0  0  0  0  0  0
   -6.8721  -21.2441   22.5860 N   0  0  0  0  0  0  0  0  0  0  0  0
   -5.5714  -21.7804   23.0502 C   0  0  0  0  0  0  0  0  0  0  0  0
   -4.4816  -20.7167   23.0163 C   0  0  0  0  0  0  0  0  0  0  0  0
   -5.2184  -23.0429   22.3006 C   0  0  0  0  0  0  0  0  0  0  0  0
   -3.6865  -21.3756   18.1639 N   0  0  0  0  0  0  0  0  0  0  0  0
   -4.1010  -21.7485   17.3525 H   0  0  0  0  0  0  0  0  0  0  0  0
   -0.6634  -22.7105   19.7764 C   0  0  0  0  0  0  0  0  0  0  0  0
   -0.0554  -21.7815   17.6485 C   0  0  0  0  0  0  0  0  0  0  0  0
   -2.3571  -21.7707   18.3759 C   0  0  0  0  0  0  0  0  0  0  0  0
   -1.3830  -21.4668   17.4221 C   0  0  0  0  0  0  0  0  0  0  0  0
    0.2891  -22.3889   18.8349 C   0  0  0  0  0  0  0  0  0  0  0  0
   -1.9791  -22.3901   19.5538 C   0  0  0  0  0  0  0  0  0  0  0  0
    1.9976  -24.2979   20.0405 C   0  0  0  0  0  0  0  0  0  0  0  0
    1.9697  -22.8273   19.0994 S   0  0  0  0  0  0  0  0  0  0  0  0
    2.5056  -23.1587   17.8086 O   0  0  0  0  0  0  0  0  0  0  0  0
    2.5957  -21.7616   19.8246 O   0  0  0  0  0  0  0  0  0  0  0  0
 26 25  2  0  0  0
 24 25  1  0  0  0
 25 27  2  0  0  0
 25 22  1  0  0  0
 18 22  2  0  0  0
 18 23  1  0  0  0
 22 19  1  0  0  0
 23 20  2  0  0  0
 19 21  2  0  0  0
 20 21  1  0  0  0
 20 16  1  0  0  0
 16  4  1  0  0  0
 15 13  1  0  0  0
  4  5  2  0  0  0
  4  6  1  0  0  0
  5  3  1  0  0  0
  6  1  2  0  0  0
 13 14  1  0  0  0
 13 12  1  0  0  0
  3  2  2  0  0  0
  1  2  1  0  0  0
  1  7  1  0  0  0
 12  7  1  0  0  0
 12 11  1  0  0  0
  7  9  2  0  0  0
 11 10  1  0  0  0
 11  8  2  0  0  0
  9  8  1  0  0  0
 16 17  1  0  0  0
M  END
> <minimizedAffinity>
-8.21930

$$$$
6GUE_FB8_A_301


 27 29  0  0  0  0  0  0  0  0999 V2000
   -0.7807  -23.1819   20.4894 C   0  0  0  0  0  0  0  0  0  0  0  0
   -0.5733  -23.4578   21.8300 C   0  0  0  0  0  0  0  0  0  0  0  0
   -1.6813  -23.6476   22.6172 C   0  0  0  0  0  0  0  0  0  0  0  0
   -3.0435  -23.2785   20.8343 C   0  0  0  0  0  0  0  0  0  0  0  0
   -2.9240  -23.5222   22.1601 N   0  0  0  0  0  0  0  0  0  0  0  0
   -2.0323  -23.1032   19.9749 N   0  0  0  0  0  0  0  0  0  0  0  0
    0.3718  -23.0327   19.5938 C   0  0  0  0  0  0  0  0  0  0  0  0
    2.3368  -23.3235   18.7022 N   0  0  0  0  0  0  0  0  0  0  0  0
    1.4952  -23.8087   19.6415 C   0  0  0  0  0  0  0  0  0  0  0  0
    2.2613  -21.8979   16.6781 C   0  0  0  0  0  0  0  0  0  0  0  0
    1.6974  -22.4559   17.9272 C   0  0  0  0  0  0  0  0  0  0  0  0
    0.5414  -22.1316   18.5214 N   0  0  0  0  0  0  0  0  0  0  0  0
   -0.3793  -21.0217   18.1812 C   0  0  0  0  0  0  0  0  0  0  0  0
   -1.2205  -21.3468   16.9536 C   0  0  0  0  0  0  0  0  0  0  0  0
    0.3747  -19.7173   18.0791 C   0  0  0  0  0  0  0  0  0  0  0  0
   -4.3494  -23.2478   20.5106 N   0  0  0  0  0  0  0  0  0  0  0  0
   -4.7484  -24.1296   20.3306 H   0  0  0  0  0  0  0  0  0  0  0  0
   -6.6586  -20.5197   21.3739 C   0  0  0  0  0  0  0  0  0  0  0  0
   -6.6144  -20.7655   18.9868 C   0  0  0  0  0  0  0  0  0  0  0  0
   -5.2366  -22.1681   20.3872 C   0  0  0  0  0  0  0  0  0  0  0  0
   -5.6823  -21.7781   19.1222 C   0  0  0  0  0  0  0  0  0  0  0  0
   -7.1026  -20.1575   20.1214 C   0  0  0  0  0  0  0  0  0  0  0  0
   -5.7399  -21.5303   21.5070 C   0  0  0  0  0  0  0  0  0  0  0  0
   -9.8553  -19.4964   20.1722 C   0  0  0  0  0  0  0  0  0  0  0  0
   -8.2529  -18.8416   19.9430 S   0  0  0  0  0  0  0  0  0  0  0  0
   -8.0154  -17.9495   21.0434 O   0  0  0  0  0  0  0  0  0  0  0  0
   -8.1174  -18.3125   18.6181 O   0  0  0  0  0  0  0  0  0  0  0  0
 26 25  2  0  0  0
 24 25  1  0  0  0
 25 27  2  0  0  0
 25 22  1  0  0  0
 18 22  2  0  0  0
 18 23  1  0  0  0
 22 19  1  0  0  0
 23 20  2  0  0  0
 19 21  2  0  0  0
 20 21  1  0  0  0
 20 16  1  0  0  0
 16  4  1  0  0  0
 15 13  1  0  0  0
  4  5  2  0  0  0
  4  6  1  0  0  0
  5  3  1  0  0  0
  6  1  2  0  0  0
 13 14  1  0  0  0
 13 12  1  0  0  0
  3  2  2  0  0  0
  1  2  1  0  0  0
  1  7  1  0  0  0
 12  7  1  0  0  0
 12 11  1  0  0  0
  7  9  2  0  0  0
 11 10  1  0  0  0
 11  8  2  0  0  0
  9  8  1  0  0  0
 16 17  1  0  0  0
M  END
> <minimizedAffinity>
-7.81443

$$$$
6GUE_FB8_A_301


 27 29  0  0  0  0  0  0  0  0999 V2000
   -1.0183  -22.0529   19.0477 C   0  0  0  0  0  0  0  0  0  0  0  0
   -0.0142  -21.7058   18.1602 C   0  0  0  0  0  0  0  0  0  0  0  0
   -0.3322  -20.8275   17.1548 C   0  0  0  0  0  0  0  0  0  0  0  0
   -2.4790  -20.7157   17.8958 C   0  0  0  0  0  0  0  0  0  0  0  0
   -1.5604  -20.3512   16.9713 N   0  0  0  0  0  0  0  0  0  0  0  0
   -2.2684  -21.5429   18.9269 N   0  0  0  0  0  0  0  0  0  0  0  0
   -0.7130  -22.9394   20.1762 C   0  0  0  0  0  0  0  0  0  0  0  0
    0.3611  -24.3038   21.4898 N   0  0  0  0  0  0  0  0  0  0  0  0
    0.5014  -23.5263   20.3936 C   0  0  0  0  0  0  0  0  0  0  0  0
   -1.1667  -24.5554   23.4230 C   0  0  0  0  0  0  0  0  0  0  0  0
   -0.7934  -24.0372   22.0882 C   0  0  0  0  0  0  0  0  0  0  0  0
   -1.5505  -23.3225   21.2452 N   0  0  0  0  0  0  0  0  0  0  0  0
   -2.9961  -23.0165   21.3531 C   0  0  0  0  0  0  0  0  0  0  0  0
   -3.2525  -21.8406   22.2868 C   0  0  0  0  0  0  0  0  0  0  0  0
   -3.7783  -24.2594   21.7045 C   0  0  0  0  0  0  0  0  0  0  0  0
   -3.6455  -20.1046   17.6188 N   0  0  0  0  0  0  0  0  0  0  0  0
   -3.7199  -19.7595   16.6997 H   0  0  0  0  0  0  0  0  0  0  0  0
   -5.9953  -18.5098   19.9546 C   0  0  0  0  0  0  0  0  0  0  0  0
   -6.8016  -20.7092   19.4321 C   0  0  0  0  0  0  0  0  0  0  0  0
   -4.7731  -19.8775   18.4219 C   0  0  0  0  0  0  0  0  0  0  0  0
   -5.7232  -20.8883   18.5849 C   0  0  0  0  0  0  0  0  0  0  0  0
   -6.9149  -19.5218   20.1195 C   0  0  0  0  0  0  0  0  0  0  0  0
   -4.9213  -18.6922   19.1200 C   0  0  0  0  0  0  0  0  0  0  0  0
   -9.7393  -19.3264   20.1584 C   0  0  0  0  0  0  0  0  0  0  0  0
   -8.3098  -19.2811   21.1601 S   0  0  0  0  0  0  0  0  0  0  0  0
   -8.3748  -20.4326   22.0162 O   0  0  0  0  0  0  0  0  0  0  0  0
   -8.1803  -17.9970   21.7830 O   0  0  0  0  0  0  0  0  0  0  0  0
 26 25  2  0  0  0
 24 25  1  0  0  0
 25 27  2  0  0  0
 25 22  1  0  0  0
 18 22  2  0  0  0
 18 23  1  0  0  0
 22 19  1  0  0  0
 23 20  2  0  0  0
 19 21  2  0  0  0
 20 21  1  0  0  0
 20 16  1  0  0  0
 16  4  1  0  0  0
 15 13  1  0  0  0
  4  5  2  0  0  0
  4  6  1  0  0  0
  5  3  1  0  0  0
  6  1  2  0  0  0
 13 14  1  0  0  0
 13 12  1  0  0  0
  3  2  2  0  0  0
  1  2  1  0  0  0
  1  7  1  0  0  0
 12  7  1  0  0  0
 12 11  1  0  0  0
  7  9  2  0  0  0
 11 10  1  0  0  0
 11  8  2  0  0  0
  9  8  1  0  0  0
 16 17  1  0  0  0
M  END
> <minimizedAffinity>
-7.61151

$$$$
6GUE_FB8_A_301


 27 29  0  0  0  0  0  0  0  0999 V2000
   -6.1348  -19.7336   20.4990 C   0  0  0  0  0  0  0  0  0  0  0  0
   -6.1518  -18.3855   20.1850 C   0  0  0  0  0  0  0  0  0  0  0  0
   -5.3407  -17.9623   19.1620 C   0  0  0  0  0  0  0  0  0  0  0  0
   -4.5742  -20.0814   18.8582 C   0  0  0  0  0  0  0  0  0  0  0  0
   -4.5124  -18.7747   18.5118 N   0  0  0  0  0  0  0  0  0  0  0  0
   -5.3462  -20.6021   19.8198 N   0  0  0  0  0  0  0  0  0  0  0  0
   -7.0300  -20.2456   21.5425 C   0  0  0  0  0  0  0  0  0  0  0  0
   -8.7659  -20.4686   22.8378 N   0  0  0  0  0  0  0  0  0  0  0  0
   -8.2990  -19.7914   21.7657 C   0  0  0  0  0  0  0  0  0  0  0  0
   -8.2676  -22.5354   24.1086 C   0  0  0  0  0  0  0  0  0  0  0  0
   -7.9488  -21.4735   23.1286 C   0  0  0  0  0  0  0  0  0  0  0  0
   -6.8005  -21.2895   22.4636 N   0  0  0  0  0  0  0  0  0  0  0  0
   -5.5093  -21.9886   22.6621 C   0  0  0  0  0  0  0  0  0  0  0  0
   -5.7048  -23.3576   23.3007 C   0  0  0  0  0  0  0  0  0  0  0  0
   -4.5326  -21.1030   23.3984 C   0  0  0  0  0  0  0  0  0  0  0  0
   -3.7368  -20.7830   18.0723 N   0  0  0  0  0  0  0  0  0  0  0  0
   -4.1360  -21.5811   17.6566 H   0  0  0  0  0  0  0  0  0  0  0  0
   -0.0774  -20.5571   18.3532 C   0  0  0  0  0  0  0  0  0  0  0  0
   -0.7398  -19.7045   16.2096 C   0  0  0  0  0  0  0  0  0  0  0  0
   -2.3895  -20.5659   17.7470 C   0  0  0  0  0  0  0  0  0  0  0  0
   -2.0567  -19.9950   16.5164 C   0  0  0  0  0  0  0  0  0  0  0  0
    0.2344  -19.9778   17.1431 C   0  0  0  0  0  0  0  0  0  0  0  0
   -1.3855  -20.8371   18.6594 C   0  0  0  0  0  0  0  0  0  0  0  0
    1.9688  -18.1055   15.9171 C   0  0  0  0  0  0  0  0  0  0  0  0
    1.9105  -19.6487   16.7321 S   0  0  0  0  0  0  0  0  0  0  0  0
    2.6030  -19.4781   17.9789 O   0  0  0  0  0  0  0  0  0  0  0  0
    2.3639  -20.6896   15.8577 O   0  0  0  0  0  0  0  0  0  0  0  0
 26 25  2  0  0  0
 24 25  1  0  0  0
 25 27  2  0  0  0
 25 22  1  0  0  0
 18 22  2  0  0  0
 18 23  1  0  0  0
 22 19  1  0  0  0
 23 20  2  0  0  0
 19 21  2  0  0  0
 20 21  1  0  0  0
 20 16  1  0  0  0
 16  4  1  0  0  0
 15 13  1  0  0  0
  4  5  2  0  0  0
  4  6  1  0  0  0
  5  3  1  0  0  0
  6  1  2  0  0  0
 13 14  1  0  0  0
 13 12  1  0  0  0
  3  2  2  0  0  0
  1  2  1  0  0  0
  1  7  1  0  0  0
 12  7  1  0  0  0
 12 11  1  0  0  0
  7  9  2  0  0  0
 11 10  1  0  0  0
 11  8  2  0  0  0
  9  8  1  0  0  0
 16 17  1  0  0  0
M  END
> <minimizedAffinity>
-7.51023

$$$$
