4IID_NOJ_A_940


 16 16  0  0  0  0  0  0  0  0999 V2000
  -21.3212  -19.9642  -23.5428 C   0  0  0  0  0  0  0  0  0  0  0  0
  -21.5433  -18.9207  -24.6299 C   0  0  0  0  0  0  0  0  0  0  0  0
  -22.1146  -19.5304  -25.7983 O   0  0  0  0  0  0  0  0  0  0  0  0
  -20.2512  -18.2311  -25.0575 C   0  0  0  0  0  0  0  0  0  0  0  0
  -20.6187  -17.1113  -25.8805 O   0  0  0  0  0  0  0  0  0  0  0  0
  -19.4990  -17.7389  -23.8189 C   0  0  0  0  0  0  0  0  0  0  0  0
  -18.3362  -17.0126  -24.1770 O   0  0  0  0  0  0  0  0  0  0  0  0
  -19.1518  -18.9211  -22.9310 C   0  0  0  0  0  0  0  0  0  0  0  0
  -20.4481  -19.4500  -22.4638 N   0  0  0  0  0  0  0  0  0  0  0  0
  -21.4953  -20.1851  -26.1570 H   0  0  0  0  0  0  0  0  0  0  0  0
  -21.1927  -16.5139  -25.3761 H   0  0  0  0  0  0  0  0  0  0  0  0
  -17.7347  -17.5895  -24.6733 H   0  0  0  0  0  0  0  0  0  0  0  0
  -20.2654  -20.2117  -21.8104 H   0  0  0  0  0  0  0  0  0  0  0  0
  -18.3957  -18.5073  -21.7023 C   0  0  0  0  0  0  0  0  0  0  0  0
  -18.6665  -17.1449  -21.4106 O   0  0  0  0  0  0  0  0  0  0  0  0
  -18.3893  -16.5928  -22.1584 H   0  0  0  0  0  0  0  0  0  0  0  0
  1  2  1  0  0  0
  1  9  1  0  0  0
  2  3  1  0  0  0
  2  4  1  0  0  0
  4  5  1  0  0  0
  4  6  1  0  0  0
  6  7  1  0  0  0
  6  8  1  0  0  0
  8  9  1  0  0  0
  8 14  1  0  0  0
 14 15  1  0  0  0
  3 10  1  0  0  0
  5 11  1  0  0  0
  7 12  1  0  0  0
  9 13  1  0  0  0
 15 16  1  0  0  0
M  END
> <minimizedAffinity>
-6.69931

$$$$
4IID_NOJ_A_940


 16 16  0  0  0  0  0  0  0  0999 V2000
  -19.4820  -20.1168  -22.1479 C   0  0  0  0  0  0  0  0  0  0  0  0
  -18.5779  -18.9671  -22.5731 C   0  0  0  0  0  0  0  0  0  0  0  0
  -17.8202  -18.4863  -21.4516 O   0  0  0  0  0  0  0  0  0  0  0  0
  -19.3565  -17.7845  -23.1415 C   0  0  0  0  0  0  0  0  0  0  0  0
  -18.3998  -16.8908  -23.7351 O   0  0  0  0  0  0  0  0  0  0  0  0
  -20.3342  -18.2804  -24.2095 C   0  0  0  0  0  0  0  0  0  0  0  0
  -21.0138  -17.2013  -24.8270 O   0  0  0  0  0  0  0  0  0  0  0  0
  -21.3153  -19.2581  -23.5868 C   0  0  0  0  0  0  0  0  0  0  0  0
  -20.5006  -20.4191  -23.1785 N   0  0  0  0  0  0  0  0  0  0  0  0
  -18.4250  -18.1366  -20.7787 H   0  0  0  0  0  0  0  0  0  0  0  0
  -17.9056  -17.3588  -24.4262 H   0  0  0  0  0  0  0  0  0  0  0  0
  -21.5291  -16.7201  -24.1608 H   0  0  0  0  0  0  0  0  0  0  0  0
  -21.1267  -21.1344  -22.8085 H   0  0  0  0  0  0  0  0  0  0  0  0
  -22.3156  -19.7715  -24.5809 C   0  0  0  0  0  0  0  0  0  0  0  0
  -21.8435  -19.5370  -25.8988 O   0  0  0  0  0  0  0  0  0  0  0  0
  -21.7185  -18.5845  -26.0328 H   0  0  0  0  0  0  0  0  0  0  0  0
  1  2  1  0  0  0
  1  9  1  0  0  0
  2  3  1  0  0  0
  2  4  1  0  0  0
  4  5  1  0  0  0
  4  6  1  0  0  0
  6  7  1  0  0  0
  6  8  1  0  0  0
  8  9  1  0  0  0
  8 14  1  0  0  0
 14 15  1  0  0  0
  3 10  1  0  0  0
  5 11  1  0  0  0
  7 12  1  0  0  0
  9 13  1  0  0  0
 15 16  1  0  0  0
M  END
> <minimizedAffinity>
-6.61648

$$$$
4IID_NOJ_A_940


 16 16  0  0  0  0  0  0  0  0999 V2000
  -20.2373  -17.5113  -25.4574 C   0  0  0  0  0  0  0  0  0  0  0  0
  -21.2311  -18.6628  -25.3781 C   0  0  0  0  0  0  0  0  0  0  0  0
  -22.4599  -18.3080  -26.0319 O   0  0  0  0  0  0  0  0  0  0  0  0
  -21.5707  -19.0503  -23.9421 C   0  0  0  0  0  0  0  0  0  0  0  0
  -22.2976  -20.2893  -23.9960 O   0  0  0  0  0  0  0  0  0  0  0  0
  -20.2790  -19.2418  -23.1439 C   0  0  0  0  0  0  0  0  0  0  0  0
  -20.5486  -19.6905  -21.8272 O   0  0  0  0  0  0  0  0  0  0  0  0
  -19.4935  -17.9422  -23.1271 C   0  0  0  0  0  0  0  0  0  0  0  0
  -19.1002  -17.7078  -24.5303 N   0  0  0  0  0  0  0  0  0  0  0  0
  -22.8636  -17.5540  -25.5743 H   0  0  0  0  0  0  0  0  0  0  0  0
  -21.7530  -20.9650  -24.4293 H   0  0  0  0  0  0  0  0  0  0  0  0
  -21.0827  -19.0273  -21.3627 H   0  0  0  0  0  0  0  0  0  0  0  0
  -18.5139  -16.8737  -24.5626 H   0  0  0  0  0  0  0  0  0  0  0  0
  -18.2186  -18.0578  -22.3438 C   0  0  0  0  0  0  0  0  0  0  0  0
  -18.0962  -16.9508  -21.4638 O   0  0  0  0  0  0  0  0  0  0  0  0
  -18.0827  -16.1287  -21.9783 H   0  0  0  0  0  0  0  0  0  0  0  0
  1  2  1  0  0  0
  1  9  1  0  0  0
  2  3  1  0  0  0
  2  4  1  0  0  0
  4  5  1  0  0  0
  4  6  1  0  0  0
  6  7  1  0  0  0
  6  8  1  0  0  0
  8  9  1  0  0  0
  8 14  1  0  0  0
 14 15  1  0  0  0
  3 10  1  0  0  0
  5 11  1  0  0  0
  7 12  1  0  0  0
  9 13  1  0  0  0
 15 16  1  0  0  0
M  END
> <minimizedAffinity>
-6.44951

$$$$
4IID_NOJ_A_940


 16 16  0  0  0  0  0  0  0  0999 V2000
  -18.9660  -19.0214  -23.4035 C   0  0  0  0  0  0  0  0  0  0  0  0
  -18.9078  -18.0323  -24.5603 C   0  0  0  0  0  0  0  0  0  0  0  0
  -18.0964  -16.9002  -24.2092 O   0  0  0  0  0  0  0  0  0  0  0  0
  -20.2843  -17.5054  -24.9549 C   0  0  0  0  0  0  0  0  0  0  0  0
  -20.1296  -16.7992  -26.1973 O   0  0  0  0  0  0  0  0  0  0  0  0
  -21.2477  -18.6796  -25.1430 C   0  0  0  0  0  0  0  0  0  0  0  0
  -22.5151  -18.2385  -25.5980 O   0  0  0  0  0  0  0  0  0  0  0  0
  -21.3736  -19.4486  -23.8395 C   0  0  0  0  0  0  0  0  0  0  0  0
  -20.0365  -20.0251  -23.5979 N   0  0  0  0  0  0  0  0  0  0  0  0
  -18.4981  -16.4347  -23.4590 H   0  0  0  0  0  0  0  0  0  0  0  0
  -19.7711  -17.4006  -26.8687 H   0  0  0  0  0  0  0  0  0  0  0  0
  -22.9059  -17.6433  -24.9393 H   0  0  0  0  0  0  0  0  0  0  0  0
  -20.0856  -20.6058  -22.7607 H   0  0  0  0  0  0  0  0  0  0  0  0
  -22.3204  -20.6077  -23.9517 C   0  0  0  0  0  0  0  0  0  0  0  0
  -22.7338  -20.7583  -25.3011 O   0  0  0  0  0  0  0  0  0  0  0  0
  -23.1816  -19.9494  -25.5943 H   0  0  0  0  0  0  0  0  0  0  0  0
  1  2  1  0  0  0
  1  9  1  0  0  0
  2  3  1  0  0  0
  2  4  1  0  0  0
  4  5  1  0  0  0
  4  6  1  0  0  0
  6  7  1  0  0  0
  6  8  1  0  0  0
  8  9  1  0  0  0
  8 14  1  0  0  0
 14 15  1  0  0  0
  3 10  1  0  0  0
  5 11  1  0  0  0
  7 12  1  0  0  0
  9 13  1  0  0  0
 15 16  1  0  0  0
M  END
> <minimizedAffinity>
-6.43845

$$$$
4IID_NOJ_A_940


 16 16  0  0  0  0  0  0  0  0999 V2000
  -18.4825  -17.8090  -22.7802 C   0  0  0  0  0  0  0  0  0  0  0  0
  -18.9808  -18.8703  -21.8080 C   0  0  0  0  0  0  0  0  0  0  0  0
  -17.8797  -19.4392  -21.0820 O   0  0  0  0  0  0  0  0  0  0  0  0
  -19.7094  -20.0142  -22.5070 C   0  0  0  0  0  0  0  0  0  0  0  0
  -20.3452  -20.8010  -21.4858 O   0  0  0  0  0  0  0  0  0  0  0  0
  -20.7667  -19.4446  -23.4556 C   0  0  0  0  0  0  0  0  0  0  0  0
  -21.5280  -20.4766  -24.0581 O   0  0  0  0  0  0  0  0  0  0  0  0
  -20.0942  -18.5784  -24.5063 C   0  0  0  0  0  0  0  0  0  0  0  0
  -19.5252  -17.4373  -23.7630 N   0  0  0  0  0  0  0  0  0  0  0  0
  -17.2788  -19.8826  -21.7010 H   0  0  0  0  0  0  0  0  0  0  0  0
  -20.9574  -20.2425  -20.9815 H   0  0  0  0  0  0  0  0  0  0  0  0
  -20.9431  -21.0463  -24.5818 H   0  0  0  0  0  0  0  0  0  0  0  0
  -19.1137  -16.7909  -24.4362 H   0  0  0  0  0  0  0  0  0  0  0  0
  -21.0775  -18.0003  -25.4816 C   0  0  0  0  0  0  0  0  0  0  0  0
  -22.3419  -17.8511  -24.8541 O   0  0  0  0  0  0  0  0  0  0  0  0
  -22.6588  -18.7178  -24.5553 H   0  0  0  0  0  0  0  0  0  0  0  0
  1  2  1  0  0  0
  1  9  1  0  0  0
  2  3  1  0  0  0
  2  4  1  0  0  0
  4  5  1  0  0  0
  4  6  1  0  0  0
  6  7  1  0  0  0
  6  8  1  0  0  0
  8  9  1  0  0  0
  8 14  1  0  0  0
 14 15  1  0  0  0
  3 10  1  0  0  0
  5 11  1  0  0  0
  7 12  1  0  0  0
  9 13  1  0  0  0
 15 16  1  0  0  0
M  END
> <minimizedAffinity>
-6.43476

$$$$
4IID_NOJ_A_940


 16 16  0  0  0  0  0  0  0  0999 V2000
  -18.5892  -17.7888  -24.3123 C   0  0  0  0  0  0  0  0  0  0  0  0
  -19.5762  -17.9048  -25.4666 C   0  0  0  0  0  0  0  0  0  0  0  0
  -19.5130  -16.7348  -26.2974 O   0  0  0  0  0  0  0  0  0  0  0  0
  -21.0194  -18.0551  -24.9949 C   0  0  0  0  0  0  0  0  0  0  0  0
  -21.8077  -18.4102  -26.1433 O   0  0  0  0  0  0  0  0  0  0  0  0
  -21.1025  -19.1664  -23.9459 C   0  0  0  0  0  0  0  0  0  0  0  0
  -22.4421  -19.3995  -23.5471 O   0  0  0  0  0  0  0  0  0  0  0  0
  -20.2332  -18.8069  -22.7536 C   0  0  0  0  0  0  0  0  0  0  0  0
  -18.8498  -18.8050  -23.2680 N   0  0  0  0  0  0  0  0  0  0  0  0
  -19.7730  -15.9565  -25.7802 H   0  0  0  0  0  0  0  0  0  0  0  0
  -21.4688  -19.2348  -26.5257 H   0  0  0  0  0  0  0  0  0  0  0  0
  -22.8054  -18.5936  -23.1477 H   0  0  0  0  0  0  0  0  0  0  0  0
  -18.2187  -18.6287  -22.4863 H   0  0  0  0  0  0  0  0  0  0  0  0
  -20.2832  -19.8516  -21.6773 C   0  0  0  0  0  0  0  0  0  0  0  0
  -20.6492  -21.1018  -22.2411 O   0  0  0  0  0  0  0  0  0  0  0  0
  -21.5232  -21.0262  -22.6551 H   0  0  0  0  0  0  0  0  0  0  0  0
  1  2  1  0  0  0
  1  9  1  0  0  0
  2  3  1  0  0  0
  2  4  1  0  0  0
  4  5  1  0  0  0
  4  6  1  0  0  0
  6  7  1  0  0  0
  6  8  1  0  0  0
  8  9  1  0  0  0
  8 14  1  0  0  0
 14 15  1  0  0  0
  3 10  1  0  0  0
  5 11  1  0  0  0
  7 12  1  0  0  0
  9 13  1  0  0  0
 15 16  1  0  0  0
M  END
> <minimizedAffinity>
-6.36001

$$$$
4IID_NOJ_A_940


 16 16  0  0  0  0  0  0  0  0999 V2000
  -19.0350  -20.4722  -21.0751 C   0  0  0  0  0  0  0  0  0  0  0  0
  -18.1740  -19.2159  -21.0964 C   0  0  0  0  0  0  0  0  0  0  0  0
  -17.6953  -18.9160  -19.7757 O   0  0  0  0  0  0  0  0  0  0  0  0
  -18.9318  -17.9907  -21.5989 C   0  0  0  0  0  0  0  0  0  0  0  0
  -17.9634  -16.9508  -21.8159 O   0  0  0  0  0  0  0  0  0  0  0  0
  -19.6343  -18.3275  -22.9162 C   0  0  0  0  0  0  0  0  0  0  0  0
  -20.2765  -17.1891  -23.4634 O   0  0  0  0  0  0  0  0  0  0  0  0
  -20.6246  -19.4566  -22.6908 C   0  0  0  0  0  0  0  0  0  0  0  0
  -19.8024  -20.6284  -22.3312 N   0  0  0  0  0  0  0  0  0  0  0  0
  -18.4485  -18.7329  -19.1926 H   0  0  0  0  0  0  0  0  0  0  0  0
  -17.3040  -17.2523  -22.4602 H   0  0  0  0  0  0  0  0  0  0  0  0
  -20.9530  -16.8711  -22.8452 H   0  0  0  0  0  0  0  0  0  0  0  0
  -20.4207  -21.4333  -22.2297 H   0  0  0  0  0  0  0  0  0  0  0  0
  -21.3620  -19.8256  -23.9448 C   0  0  0  0  0  0  0  0  0  0  0  0
  -22.6379  -19.2036  -23.9497 O   0  0  0  0  0  0  0  0  0  0  0  0
  -23.1462  -19.5024  -23.1794 H   0  0  0  0  0  0  0  0  0  0  0  0
  1  2  1  0  0  0
  1  9  1  0  0  0
  2  3  1  0  0  0
  2  4  1  0  0  0
  4  5  1  0  0  0
  4  6  1  0  0  0
  6  7  1  0  0  0
  6  8  1  0  0  0
  8  9  1  0  0  0
  8 14  1  0  0  0
 14 15  1  0  0  0
  3 10  1  0  0  0
  5 11  1  0  0  0
  7 12  1  0  0  0
  9 13  1  0  0  0
 15 16  1  0  0  0
M  END
> <minimizedAffinity>
-6.16135

$$$$
4IID_NOJ_A_940


 16 16  0  0  0  0  0  0  0  0999 V2000
  -18.3593  -17.7713  -23.4593 C   0  0  0  0  0  0  0  0  0  0  0  0
  -19.2099  -18.9368  -23.9472 C   0  0  0  0  0  0  0  0  0  0  0  0
  -19.8465  -18.6043  -25.1911 O   0  0  0  0  0  0  0  0  0  0  0  0
  -20.3068  -19.3202  -22.9585 C   0  0  0  0  0  0  0  0  0  0  0  0
  -20.8615  -20.5701  -23.4018 O   0  0  0  0  0  0  0  0  0  0  0  0
  -19.7026  -19.4877  -21.5624 C   0  0  0  0  0  0  0  0  0  0  0  0
  -20.6733  -19.9320  -20.6307 O   0  0  0  0  0  0  0  0  0  0  0  0
  -19.0791  -18.1765  -21.1169 C   0  0  0  0  0  0  0  0  0  0  0  0
  -17.9556  -17.9452  -22.0458 N   0  0  0  0  0  0  0  0  0  0  0  0
  -20.4458  -17.8534  -25.0570 H   0  0  0  0  0  0  0  0  0  0  0  0
  -20.1612  -21.2404  -23.4364 H   0  0  0  0  0  0  0  0  0  0  0  0
  -21.3828  -19.2739  -20.5643 H   0  0  0  0  0  0  0  0  0  0  0  0
  -17.4635  -17.1028  -21.7482 H   0  0  0  0  0  0  0  0  0  0  0  0
  -18.4808  -18.2684  -19.7436 C   0  0  0  0  0  0  0  0  0  0  0  0
  -19.4372  -17.8604  -18.7773 O   0  0  0  0  0  0  0  0  0  0  0  0
  -19.7013  -16.9434  -18.9510 H   0  0  0  0  0  0  0  0  0  0  0  0
  1  2  1  0  0  0
  1  9  1  0  0  0
  2  3  1  0  0  0
  2  4  1  0  0  0
  4  5  1  0  0  0
  4  6  1  0  0  0
  6  7  1  0  0  0
  6  8  1  0  0  0
  8  9  1  0  0  0
  8 14  1  0  0  0
 14 15  1  0  0  0
  3 10  1  0  0  0
  5 11  1  0  0  0
  7 12  1  0  0  0
  9 13  1  0  0  0
 15 16  1  0  0  0
M  END
> <minimizedAffinity>
-6.09705

$$$$
4IID_NOJ_A_940


 16 16  0  0  0  0  0  0  0  0999 V2000
  -19.2809  -18.7285  -19.5918 C   0  0  0  0  0  0  0  0  0  0  0  0
  -20.1500  -19.9619  -19.8002 C   0  0  0  0  0  0  0  0  0  0  0  0
  -20.0363  -20.8487  -18.6760 O   0  0  0  0  0  0  0  0  0  0  0  0
  -19.7640  -20.7508  -21.0478 C   0  0  0  0  0  0  0  0  0  0  0  0
  -20.7992  -21.7220  -21.2744 O   0  0  0  0  0  0  0  0  0  0  0  0
  -19.6721  -19.8025  -22.2455 C   0  0  0  0  0  0  0  0  0  0  0  0
  -19.4036  -20.5100  -23.4435 O   0  0  0  0  0  0  0  0  0  0  0  0
  -18.6076  -18.7518  -21.9824 C   0  0  0  0  0  0  0  0  0  0  0  0
  -19.1163  -17.9594  -20.8459 N   0  0  0  0  0  0  0  0  0  0  0  0
  -19.1201  -21.1580  -18.5995 H   0  0  0  0  0  0  0  0  0  0  0  0
  -21.6491  -21.2683  -21.3871 H   0  0  0  0  0  0  0  0  0  0  0  0
  -18.5506  -20.9653  -23.3659 H   0  0  0  0  0  0  0  0  0  0  0  0
  -18.4618  -17.1972  -20.6696 H   0  0  0  0  0  0  0  0  0  0  0  0
  -18.4549  -17.7965  -23.1299 C   0  0  0  0  0  0  0  0  0  0  0  0
  -19.7357  -17.3899  -23.5869 O   0  0  0  0  0  0  0  0  0  0  0  0
  -20.2357  -18.1672  -23.8815 H   0  0  0  0  0  0  0  0  0  0  0  0
  1  2  1  0  0  0
  1  9  1  0  0  0
  2  3  1  0  0  0
  2  4  1  0  0  0
  4  5  1  0  0  0
  4  6  1  0  0  0
  6  7  1  0  0  0
  6  8  1  0  0  0
  8  9  1  0  0  0
  8 14  1  0  0  0
 14 15  1  0  0  0
  3 10  1  0  0  0
  5 11  1  0  0  0
  7 12  1  0  0  0
  9 13  1  0  0  0
 15 16  1  0  0  0
M  END
> <minimizedAffinity>
-6.06686

$$$$
4IID_NOJ_A_940


 16 16  0  0  0  0  0  0  0  0999 V2000
  -20.7732  -19.5045  -23.2942 C   0  0  0  0  0  0  0  0  0  0  0  0
  -20.0780  -18.3820  -24.0537 C   0  0  0  0  0  0  0  0  0  0  0  0
  -19.9577  -18.7198  -25.4446 O   0  0  0  0  0  0  0  0  0  0  0  0
  -18.6746  -18.0958  -23.5280 C   0  0  0  0  0  0  0  0  0  0  0  0
  -18.2328  -16.8717  -24.1385 O   0  0  0  0  0  0  0  0  0  0  0  0
  -18.7213  -17.9289  -22.0074 C   0  0  0  0  0  0  0  0  0  0  0  0
  -17.4517  -17.5724  -21.4890 O   0  0  0  0  0  0  0  0  0  0  0  0
  -19.2305  -19.2098  -21.3701 C   0  0  0  0  0  0  0  0  0  0  0  0
  -20.6266  -19.3442  -21.8300 N   0  0  0  0  0  0  0  0  0  0  0  0
  -19.4035  -19.5103  -25.5386 H   0  0  0  0  0  0  0  0  0  0  0  0
  -18.8505  -16.1579  -23.9155 H   0  0  0  0  0  0  0  0  0  0  0  0
  -16.8131  -18.2756  -21.6857 H   0  0  0  0  0  0  0  0  0  0  0  0
  -21.0348  -20.1618  -21.3768 H   0  0  0  0  0  0  0  0  0  0  0  0
  -19.2850  -19.1181  -19.8730 C   0  0  0  0  0  0  0  0  0  0  0  0
  -19.7297  -17.8259  -19.4892 O   0  0  0  0  0  0  0  0  0  0  0  0
  -19.1139  -17.1579  -19.8289 H   0  0  0  0  0  0  0  0  0  0  0  0
  1  2  1  0  0  0
  1  9  1  0  0  0
  2  3  1  0  0  0
  2  4  1  0  0  0
  4  5  1  0  0  0
  4  6  1  0  0  0
  6  7  1  0  0  0
  6  8  1  0  0  0
  8  9  1  0  0  0
  8 14  1  0  0  0
 14 15  1  0  0  0
  3 10  1  0  0  0
  5 11  1  0  0  0
  7 12  1  0  0  0
  9 13  1  0  0  0
 15 16  1  0  0  0
M  END
> <minimizedAffinity>
-5.90754

$$$$
