5WQC_7MA_A_2001


 32 34  0  0  0  0  0  0  0  0999 V2000
   41.1463   39.3644  -54.2133 N   0  0  0  0  0  0  0  0  0  0  0  0
   41.4407   40.6662  -53.8869 C   0  0  0  0  0  0  0  0  0  0  0  0
   41.6177   41.7761  -54.7279 C   0  0  0  0  0  0  0  0  0  0  0  0
   41.6456   40.8292  -52.5195 C   0  0  0  0  0  0  0  0  0  0  0  0
   42.0055   42.0044  -51.9307 N   0  0  0  0  0  0  0  0  0  0  0  0
   41.9980   42.9993  -54.1128 C   0  0  0  0  0  0  0  0  0  0  0  0
   42.1722   43.0911  -52.6963 C   0  0  0  0  0  0  0  0  0  0  0  0
   42.2587   44.3274  -50.6568 C   0  0  0  0  0  0  0  0  0  0  0  0
   42.5344   44.2428  -52.0544 O   0  0  0  0  0  0  0  0  0  0  0  0
   42.6151   38.4186  -54.9220 S   0  0  0  0  0  0  0  0  0  0  0  0
   42.0747   37.2167  -55.7642 O   0  0  0  0  0  0  0  0  0  0  0  0
   43.4404   37.9398  -53.7241 O   0  0  0  0  0  0  0  0  0  0  0  0
   43.6196   39.4403  -56.0277 C   0  0  0  0  0  0  0  0  0  0  0  0
   44.0016   40.1593  -58.2846 C   0  0  0  0  0  0  0  0  0  0  0  0
   45.0229   40.3647  -54.2191 C   0  0  0  0  0  0  0  0  0  0  0  0
   44.6594   40.2758  -55.5767 C   0  0  0  0  0  0  0  0  0  0  0  0
   45.3657   41.0447  -56.4985 C   0  0  0  0  0  0  0  0  0  0  0  0
   45.0387   40.9835  -57.8507 C   0  0  0  0  0  0  0  0  0  0  0  0
   43.2921   39.3893  -57.3788 C   0  0  0  0  0  0  0  0  0  0  0  0
   39.9040   38.9921  -54.8346 C   0  0  0  0  0  0  0  0  0  0  0  0
   38.7035   39.3242  -53.9505 C   0  0  0  0  0  0  0  0  0  0  0  0
   38.1773   40.4098  -54.1323 O   0  0  0  0  0  0  0  0  0  0  0  0
   38.2141   38.4245  -53.0601 N   0  0  0  0  0  0  0  0  0  0  0  0
   38.8173   37.1017  -52.7403 C   0  0  0  0  0  0  0  0  0  0  0  0
   38.0892   35.9426  -53.4444 C   0  0  0  0  0  0  0  0  0  0  0  0
   37.0065   38.7731  -52.2998 C   0  0  0  0  0  0  0  0  0  0  0  0
   38.4033   39.0039  -50.3792 C   0  0  0  0  0  0  0  0  0  0  0  0
   37.1623   38.6918  -50.8808 C   0  0  0  0  0  0  0  0  0  0  0  0
   38.6557   38.9885  -49.0245 C   0  0  0  0  0  0  0  0  0  0  0  0
   37.6571   38.6333  -48.1463 C   0  0  0  0  0  0  0  0  0  0  0  0
   36.3951   38.3279  -48.6356 N   0  0  0  0  0  0  0  0  0  0  0  0
   36.1303   38.3248  -50.0214 C   0  0  0  0  0  0  0  0  0  0  0  0
 14 18  1  0  0  0
 14 19  2  0  0  0
 18 17  2  0  0  0
 19 13  1  0  0  0
 17 16  1  0  0  0
 13 16  2  0  0  0
 13 10  1  0  0  0
 11 10  2  0  0  0
 16 15  1  0  0  0
 10  1  1  0  0  0
 10 12  2  0  0  0
 20  1  1  0  0  0
 20 21  1  0  0  0
  3  6  2  0  0  0
  3  2  1  0  0  0
  1  2  1  0  0  0
  6  7  1  0  0  0
  2  4  2  0  0  0
 21 22  2  0  0  0
 21 23  1  0  0  0
 25 24  1  0  0  0
 23 24  1  0  0  0
 23 26  1  0  0  0
  7  5  2  0  0  0
  7  9  1  0  0  0
  4  5  1  0  0  0
 26 28  1  0  0  0
  9  8  1  0  0  0
 28 32  2  0  0  0
 28 27  1  0  0  0
 32 31  1  0  0  0
 27 29  2  0  0  0
 31 30  2  0  0  0
 29 30  1  0  0  0
M  END
> <minimizedAffinity>
-9.35018

$$$$
5WQC_7MA_A_2001


 32 34  0  0  0  0  0  0  0  0999 V2000
   41.5443   40.1671  -55.6108 N   0  0  0  0  0  0  0  0  0  0  0  0
   41.8499   41.2789  -54.8635 C   0  0  0  0  0  0  0  0  0  0  0  0
   42.0718   42.5998  -55.2834 C   0  0  0  0  0  0  0  0  0  0  0  0
   42.0144   40.9737  -53.5150 C   0  0  0  0  0  0  0  0  0  0  0  0
   42.3751   41.8774  -52.5608 N   0  0  0  0  0  0  0  0  0  0  0  0
   42.4529   43.5394  -54.2879 C   0  0  0  0  0  0  0  0  0  0  0  0
   42.5839   43.1517  -52.9176 C   0  0  0  0  0  0  0  0  0  0  0  0
   42.1475   44.0190  -50.7375 C   0  0  0  0  0  0  0  0  0  0  0  0
   42.9448   44.0155  -51.9210 O   0  0  0  0  0  0  0  0  0  0  0  0
   42.8448   39.7583  -56.9131 S   0  0  0  0  0  0  0  0  0  0  0  0
   42.1764   39.8313  -58.3251 O   0  0  0  0  0  0  0  0  0  0  0  0
   43.3425   38.3446  -56.5989 O   0  0  0  0  0  0  0  0  0  0  0  0
   44.2163   40.9391  -56.9067 C   0  0  0  0  0  0  0  0  0  0  0  0
   45.2826   42.7673  -58.0370 C   0  0  0  0  0  0  0  0  0  0  0  0
   45.1483   40.1451  -54.7629 C   0  0  0  0  0  0  0  0  0  0  0  0
   45.1696   41.0114  -55.8729 C   0  0  0  0  0  0  0  0  0  0  0  0
   46.1793   41.9683  -55.9412 C   0  0  0  0  0  0  0  0  0  0  0  0
   46.2368   42.8425  -57.0237 C   0  0  0  0  0  0  0  0  0  0  0  0
   44.2741   41.8202  -57.9817 C   0  0  0  0  0  0  0  0  0  0  0  0
   40.2082   39.8935  -56.0665 C   0  0  0  0  0  0  0  0  0  0  0  0
   39.5121   38.8495  -55.1955 C   0  0  0  0  0  0  0  0  0  0  0  0
   39.9890   37.7265  -55.2058 O   0  0  0  0  0  0  0  0  0  0  0  0
   38.4611   39.1805  -54.4033 N   0  0  0  0  0  0  0  0  0  0  0  0
   37.7876   40.5074  -54.3623 C   0  0  0  0  0  0  0  0  0  0  0  0
   36.4587   40.5117  -55.1390 C   0  0  0  0  0  0  0  0  0  0  0  0
   37.8894   38.1498  -53.5265 C   0  0  0  0  0  0  0  0  0  0  0  0
   36.7496   38.5946  -51.4780 C   0  0  0  0  0  0  0  0  0  0  0  0
   37.9510   38.4644  -52.1331 C   0  0  0  0  0  0  0  0  0  0  0  0
   36.6929   38.8659  -50.1281 C   0  0  0  0  0  0  0  0  0  0  0  0
   37.8576   39.0337  -49.4141 C   0  0  0  0  0  0  0  0  0  0  0  0
   39.0787   38.8927  -50.0578 N   0  0  0  0  0  0  0  0  0  0  0  0
   39.1483   38.6312  -51.4425 C   0  0  0  0  0  0  0  0  0  0  0  0
 14 18  1  0  0  0
 14 19  2  0  0  0
 18 17  2  0  0  0
 19 13  1  0  0  0
 17 16  1  0  0  0
 13 16  2  0  0  0
 13 10  1  0  0  0
 11 10  2  0  0  0
 16 15  1  0  0  0
 10  1  1  0  0  0
 10 12  2  0  0  0
 20  1  1  0  0  0
 20 21  1  0  0  0
  3  6  2  0  0  0
  3  2  1  0  0  0
  1  2  1  0  0  0
  6  7  1  0  0  0
  2  4  2  0  0  0
 21 22  2  0  0  0
 21 23  1  0  0  0
 25 24  1  0  0  0
 23 24  1  0  0  0
 23 26  1  0  0  0
  7  5  2  0  0  0
  7  9  1  0  0  0
  4  5  1  0  0  0
 26 28  1  0  0  0
  9  8  1  0  0  0
 28 32  2  0  0  0
 28 27  1  0  0  0
 32 31  1  0  0  0
 27 29  2  0  0  0
 31 30  2  0  0  0
 29 30  1  0  0  0
M  END
> <minimizedAffinity>
-9.32917

$$$$
5WQC_7MA_A_2001


 32 34  0  0  0  0  0  0  0  0999 V2000
   40.0364   39.4881  -54.0566 N   0  0  0  0  0  0  0  0  0  0  0  0
   39.2265   40.0890  -54.9899 C   0  0  0  0  0  0  0  0  0  0  0  0
   37.9927   40.7348  -54.8135 C   0  0  0  0  0  0  0  0  0  0  0  0
   39.7224   39.9451  -56.2829 C   0  0  0  0  0  0  0  0  0  0  0  0
   39.0906   40.3959  -57.4031 N   0  0  0  0  0  0  0  0  0  0  0  0
   37.3330   41.1994  -55.9831 C   0  0  0  0  0  0  0  0  0  0  0  0
   37.9167   41.0292  -57.2775 C   0  0  0  0  0  0  0  0  0  0  0  0
   38.0699   42.3606  -59.2522 C   0  0  0  0  0  0  0  0  0  0  0  0
   37.3260   41.4593  -58.4333 O   0  0  0  0  0  0  0  0  0  0  0  0
   39.2657   37.9587  -53.2686 S   0  0  0  0  0  0  0  0  0  0  0  0
   40.4038   36.9340  -52.9516 O   0  0  0  0  0  0  0  0  0  0  0  0
   38.2732   37.3983  -54.2914 O   0  0  0  0  0  0  0  0  0  0  0  0
   38.4339   38.3375  -51.7065 C   0  0  0  0  0  0  0  0  0  0  0  0
   36.3506   38.8239  -50.6203 C   0  0  0  0  0  0  0  0  0  0  0  0
   40.4882   38.1768  -50.3467 C   0  0  0  0  0  0  0  0  0  0  0  0
   39.1016   38.3903  -50.4679 C   0  0  0  0  0  0  0  0  0  0  0  0
   38.3753   38.6677  -49.3122 C   0  0  0  0  0  0  0  0  0  0  0  0
   37.0024   38.8872  -49.3897 C   0  0  0  0  0  0  0  0  0  0  0  0
   37.0609   38.5498  -51.7767 C   0  0  0  0  0  0  0  0  0  0  0  0
   40.8240   40.2472  -53.1231 C   0  0  0  0  0  0  0  0  0  0  0  0
   42.2964   40.2943  -53.5267 C   0  0  0  0  0  0  0  0  0  0  0  0
   42.9013   39.2350  -53.5036 O   0  0  0  0  0  0  0  0  0  0  0  0
   42.8737   41.4464  -53.9522 N   0  0  0  0  0  0  0  0  0  0  0  0
   42.2282   42.7877  -53.9683 C   0  0  0  0  0  0  0  0  0  0  0  0
   42.5393   43.6005  -52.6986 C   0  0  0  0  0  0  0  0  0  0  0  0
   44.2704   41.4074  -54.4058 C   0  0  0  0  0  0  0  0  0  0  0  0
   45.0551   42.6797  -56.2655 C   0  0  0  0  0  0  0  0  0  0  0  0
   44.4320   41.5383  -55.8204 C   0  0  0  0  0  0  0  0  0  0  0  0
   45.2902   42.8940  -57.6064 C   0  0  0  0  0  0  0  0  0  0  0  0
   44.8772   41.9619  -58.5312 C   0  0  0  0  0  0  0  0  0  0  0  0
   44.2583   40.7983  -58.0973 N   0  0  0  0  0  0  0  0  0  0  0  0
   43.9981   40.5763  -56.7285 C   0  0  0  0  0  0  0  0  0  0  0  0
 14 18  1  0  0  0
 14 19  2  0  0  0
 18 17  2  0  0  0
 19 13  1  0  0  0
 17 16  1  0  0  0
 13 16  2  0  0  0
 13 10  1  0  0  0
 11 10  2  0  0  0
 16 15  1  0  0  0
 10  1  1  0  0  0
 10 12  2  0  0  0
 20  1  1  0  0  0
 20 21  1  0  0  0
  3  6  2  0  0  0
  3  2  1  0  0  0
  1  2  1  0  0  0
  6  7  1  0  0  0
  2  4  2  0  0  0
 21 22  2  0  0  0
 21 23  1  0  0  0
 25 24  1  0  0  0
 23 24  1  0  0  0
 23 26  1  0  0  0
  7  5  2  0  0  0
  7  9  1  0  0  0
  4  5  1  0  0  0
 26 28  1  0  0  0
  9  8  1  0  0  0
 28 32  2  0  0  0
 28 27  1  0  0  0
 32 31  1  0  0  0
 27 29  2  0  0  0
 31 30  2  0  0  0
 29 30  1  0  0  0
M  END
> <minimizedAffinity>
-9.00839

$$$$
5WQC_7MA_A_2001


 32 34  0  0  0  0  0  0  0  0999 V2000
   41.4909   39.8201  -55.1607 N   0  0  0  0  0  0  0  0  0  0  0  0
   41.5976   39.8226  -56.5306 C   0  0  0  0  0  0  0  0  0  0  0  0
   42.5289   39.1678  -57.3517 C   0  0  0  0  0  0  0  0  0  0  0  0
   40.6628   40.6649  -57.1265 C   0  0  0  0  0  0  0  0  0  0  0  0
   40.5827   40.8986  -58.4667 N   0  0  0  0  0  0  0  0  0  0  0  0
   42.4471   39.4167  -58.7483 C   0  0  0  0  0  0  0  0  0  0  0  0
   41.4449   40.2831  -59.2869 C   0  0  0  0  0  0  0  0  0  0  0  0
   40.0755   41.0899  -61.0671 C   0  0  0  0  0  0  0  0  0  0  0  0
   41.3208   40.5543  -60.6214 O   0  0  0  0  0  0  0  0  0  0  0  0
   43.0628   40.3830  -54.2852 S   0  0  0  0  0  0  0  0  0  0  0  0
   43.8839   39.1177  -53.8725 O   0  0  0  0  0  0  0  0  0  0  0  0
   42.6126   41.1853  -53.0609 O   0  0  0  0  0  0  0  0  0  0  0  0
   44.1228   41.3852  -55.3563 C   0  0  0  0  0  0  0  0  0  0  0  0
   46.1755   41.4976  -56.5936 C   0  0  0  0  0  0  0  0  0  0  0  0
   42.5689   43.3021  -55.4316 C   0  0  0  0  0  0  0  0  0  0  0  0
   43.7722   42.6730  -55.8050 C   0  0  0  0  0  0  0  0  0  0  0  0
   44.6416   43.3629  -56.6464 C   0  0  0  0  0  0  0  0  0  0  0  0
   45.8428   42.7765  -57.0370 C   0  0  0  0  0  0  0  0  0  0  0  0
   45.3205   40.8012  -55.7562 C   0  0  0  0  0  0  0  0  0  0  0  0
   40.8116   38.7728  -54.4468 C   0  0  0  0  0  0  0  0  0  0  0  0
   39.5367   39.2771  -53.7735 C   0  0  0  0  0  0  0  0  0  0  0  0
   39.2563   40.4515  -53.9490 O   0  0  0  0  0  0  0  0  0  0  0  0
   38.7296   38.4385  -53.0755 N   0  0  0  0  0  0  0  0  0  0  0  0
   39.0151   37.0093  -52.7726 C   0  0  0  0  0  0  0  0  0  0  0  0
   38.1466   36.0509  -53.6073 C   0  0  0  0  0  0  0  0  0  0  0  0
   37.4754   38.9673  -52.5231 C   0  0  0  0  0  0  0  0  0  0  0  0
   38.4002   38.9947  -50.3237 C   0  0  0  0  0  0  0  0  0  0  0  0
   37.3098   38.7406  -51.1211 C   0  0  0  0  0  0  0  0  0  0  0  0
   38.3418   38.8396  -48.9556 C   0  0  0  0  0  0  0  0  0  0  0  0
   37.1784   38.4005  -48.3655 C   0  0  0  0  0  0  0  0  0  0  0  0
   36.0647   38.1520  -49.1550 N   0  0  0  0  0  0  0  0  0  0  0  0
   36.1183   38.2918  -50.5579 C   0  0  0  0  0  0  0  0  0  0  0  0
 14 18  1  0  0  0
 14 19  2  0  0  0
 18 17  2  0  0  0
 19 13  1  0  0  0
 17 16  1  0  0  0
 13 16  2  0  0  0
 13 10  1  0  0  0
 11 10  2  0  0  0
 16 15  1  0  0  0
 10  1  1  0  0  0
 10 12  2  0  0  0
 20  1  1  0  0  0
 20 21  1  0  0  0
  3  6  2  0  0  0
  3  2  1  0  0  0
  1  2  1  0  0  0
  6  7  1  0  0  0
  2  4  2  0  0  0
 21 22  2  0  0  0
 21 23  1  0  0  0
 25 24  1  0  0  0
 23 24  1  0  0  0
 23 26  1  0  0  0
  7  5  2  0  0  0
  7  9  1  0  0  0
  4  5  1  0  0  0
 26 28  1  0  0  0
  9  8  1  0  0  0
 28 32  2  0  0  0
 28 27  1  0  0  0
 32 31  1  0  0  0
 27 29  2  0  0  0
 31 30  2  0  0  0
 29 30  1  0  0  0
M  END
> <minimizedAffinity>
-8.97693

$$$$
5WQC_7MA_A_2001


 32 34  0  0  0  0  0  0  0  0999 V2000
   40.2257   38.0000  -56.0341 N   0  0  0  0  0  0  0  0  0  0  0  0
   39.4360   37.6926  -54.9526 C   0  0  0  0  0  0  0  0  0  0  0  0
   39.1614   36.4415  -54.3782 C   0  0  0  0  0  0  0  0  0  0  0  0
   38.7925   38.8153  -54.4388 C   0  0  0  0  0  0  0  0  0  0  0  0
   37.9079   38.7874  -53.4025 N   0  0  0  0  0  0  0  0  0  0  0  0
   38.2349   36.4138  -53.3013 C   0  0  0  0  0  0  0  0  0  0  0  0
   37.6278   37.6150  -52.8178 C   0  0  0  0  0  0  0  0  0  0  0  0
   36.9804   38.5746  -50.7308 C   0  0  0  0  0  0  0  0  0  0  0  0
   36.7330   37.6444  -51.7843 O   0  0  0  0  0  0  0  0  0  0  0  0
   39.2809   38.0401  -57.6651 S   0  0  0  0  0  0  0  0  0  0  0  0
   37.8909   37.3556  -57.4530 O   0  0  0  0  0  0  0  0  0  0  0  0
   40.1357   37.2748  -58.6794 O   0  0  0  0  0  0  0  0  0  0  0  0
   38.9664   39.7291  -58.2339 C   0  0  0  0  0  0  0  0  0  0  0  0
   39.7644   41.5781  -59.5382 C   0  0  0  0  0  0  0  0  0  0  0  0
   36.7780   39.9114  -57.1058 C   0  0  0  0  0  0  0  0  0  0  0  0
   37.7960   40.4459  -57.9187 C   0  0  0  0  0  0  0  0  0  0  0  0
   37.6291   41.7347  -58.4197 C   0  0  0  0  0  0  0  0  0  0  0  0
   38.6139   42.3004  -59.2256 C   0  0  0  0  0  0  0  0  0  0  0  0
   39.9431   40.2964  -59.0460 C   0  0  0  0  0  0  0  0  0  0  0  0
   41.5564   37.4762  -56.1850 C   0  0  0  0  0  0  0  0  0  0  0  0
   42.6053   38.5863  -56.2128 C   0  0  0  0  0  0  0  0  0  0  0  0
   42.7303   39.1909  -57.2651 O   0  0  0  0  0  0  0  0  0  0  0  0
   43.3078   38.9197  -55.1005 N   0  0  0  0  0  0  0  0  0  0  0  0
   43.2542   38.2096  -53.7933 C   0  0  0  0  0  0  0  0  0  0  0  0
   42.1449   38.7565  -52.8769 C   0  0  0  0  0  0  0  0  0  0  0  0
   44.2413   40.0517  -55.1715 C   0  0  0  0  0  0  0  0  0  0  0  0
   42.6338   41.7897  -54.8736 C   0  0  0  0  0  0  0  0  0  0  0  0
   43.8104   41.2135  -54.4579 C   0  0  0  0  0  0  0  0  0  0  0  0
   42.1104   42.8944  -54.2373 C   0  0  0  0  0  0  0  0  0  0  0  0
   42.7826   43.4548  -53.1749 C   0  0  0  0  0  0  0  0  0  0  0  0
   43.9650   42.8774  -52.7347 N   0  0  0  0  0  0  0  0  0  0  0  0
   44.5181   41.7564  -53.3889 C   0  0  0  0  0  0  0  0  0  0  0  0
 14 18  1  0  0  0
 14 19  2  0  0  0
 18 17  2  0  0  0
 19 13  1  0  0  0
 17 16  1  0  0  0
 13 16  2  0  0  0
 13 10  1  0  0  0
 11 10  2  0  0  0
 16 15  1  0  0  0
 10  1  1  0  0  0
 10 12  2  0  0  0
 20  1  1  0  0  0
 20 21  1  0  0  0
  3  6  2  0  0  0
  3  2  1  0  0  0
  1  2  1  0  0  0
  6  7  1  0  0  0
  2  4  2  0  0  0
 21 22  2  0  0  0
 21 23  1  0  0  0
 25 24  1  0  0  0
 23 24  1  0  0  0
 23 26  1  0  0  0
  7  5  2  0  0  0
  7  9  1  0  0  0
  4  5  1  0  0  0
 26 28  1  0  0  0
  9  8  1  0  0  0
 28 32  2  0  0  0
 28 27  1  0  0  0
 32 31  1  0  0  0
 27 29  2  0  0  0
 31 30  2  0  0  0
 29 30  1  0  0  0
M  END
> <minimizedAffinity>
-8.94667

$$$$
5WQC_7MA_A_2001


 32 34  0  0  0  0  0  0  0  0999 V2000
   40.1523   40.0524  -55.4155 N   0  0  0  0  0  0  0  0  0  0  0  0
   39.8911   40.2690  -56.7470 C   0  0  0  0  0  0  0  0  0  0  0  0
   39.6956   41.4797  -57.4299 C   0  0  0  0  0  0  0  0  0  0  0  0
   39.7459   39.0773  -57.4521 C   0  0  0  0  0  0  0  0  0  0  0  0
   39.4284   39.0007  -58.7752 N   0  0  0  0  0  0  0  0  0  0  0  0
   39.3594   41.3977  -58.8080 C   0  0  0  0  0  0  0  0  0  0  0  0
   39.2459   40.1335  -59.4669 C   0  0  0  0  0  0  0  0  0  0  0  0
   39.3044   41.0614  -61.6649 C   0  0  0  0  0  0  0  0  0  0  0  0
   38.9279   39.9988  -60.7900 O   0  0  0  0  0  0  0  0  0  0  0  0
   41.9392   40.4116  -54.9338 S   0  0  0  0  0  0  0  0  0  0  0  0
   42.6569   41.0865  -56.1483 O   0  0  0  0  0  0  0  0  0  0  0  0
   42.5732   39.0618  -54.5852 O   0  0  0  0  0  0  0  0  0  0  0  0
   42.0560   41.5566  -53.5372 C   0  0  0  0  0  0  0  0  0  0  0  0
   42.6073   43.7779  -52.8169 C   0  0  0  0  0  0  0  0  0  0  0  0
   41.2147   39.9312  -51.8804 C   0  0  0  0  0  0  0  0  0  0  0  0
   41.6855   41.2134  -52.2228 C   0  0  0  0  0  0  0  0  0  0  0  0
   41.7882   42.1676  -51.2134 C   0  0  0  0  0  0  0  0  0  0  0  0
   42.2515   43.4468  -51.5104 C   0  0  0  0  0  0  0  0  0  0  0  0
   42.5107   42.8385  -53.8294 C   0  0  0  0  0  0  0  0  0  0  0  0
   39.6074   38.9301  -54.7003 C   0  0  0  0  0  0  0  0  0  0  0  0
   38.4411   39.3389  -53.8027 C   0  0  0  0  0  0  0  0  0  0  0  0
   37.9350   40.4257  -54.0290 O   0  0  0  0  0  0  0  0  0  0  0  0
   37.9574   38.5011  -52.8510 N   0  0  0  0  0  0  0  0  0  0  0  0
   38.5390   37.1831  -52.4761 C   0  0  0  0  0  0  0  0  0  0  0  0
   37.9761   36.0326  -53.3298 C   0  0  0  0  0  0  0  0  0  0  0  0
   36.7807   38.9199  -52.0776 C   0  0  0  0  0  0  0  0  0  0  0  0
   38.0298   39.1741  -50.0605 C   0  0  0  0  0  0  0  0  0  0  0  0
   36.8938   38.6969  -50.6698 C   0  0  0  0  0  0  0  0  0  0  0  0
   38.2271   39.0413  -48.7031 C   0  0  0  0  0  0  0  0  0  0  0  0
   37.2833   38.3996  -47.9338 C   0  0  0  0  0  0  0  0  0  0  0  0
   36.1250   37.9236  -48.5314 N   0  0  0  0  0  0  0  0  0  0  0  0
   35.9203   38.0397  -49.9225 C   0  0  0  0  0  0  0  0  0  0  0  0
 14 18  1  0  0  0
 14 19  2  0  0  0
 18 17  2  0  0  0
 19 13  1  0  0  0
 17 16  1  0  0  0
 13 16  2  0  0  0
 13 10  1  0  0  0
 11 10  2  0  0  0
 16 15  1  0  0  0
 10  1  1  0  0  0
 10 12  2  0  0  0
 20  1  1  0  0  0
 20 21  1  0  0  0
  3  6  2  0  0  0
  3  2  1  0  0  0
  1  2  1  0  0  0
  6  7  1  0  0  0
  2  4  2  0  0  0
 21 22  2  0  0  0
 21 23  1  0  0  0
 25 24  1  0  0  0
 23 24  1  0  0  0
 23 26  1  0  0  0
  7  5  2  0  0  0
  7  9  1  0  0  0
  4  5  1  0  0  0
 26 28  1  0  0  0
  9  8  1  0  0  0
 28 32  2  0  0  0
 28 27  1  0  0  0
 32 31  1  0  0  0
 27 29  2  0  0  0
 31 30  2  0  0  0
 29 30  1  0  0  0
M  END
> <minimizedAffinity>
-8.88233

$$$$
5WQC_7MA_A_2001


 32 34  0  0  0  0  0  0  0  0999 V2000
   40.2587   39.9293  -57.2001 N   0  0  0  0  0  0  0  0  0  0  0  0
   41.1399   40.3001  -56.2132 C   0  0  0  0  0  0  0  0  0  0  0  0
   42.2692   39.6222  -55.7280 C   0  0  0  0  0  0  0  0  0  0  0  0
   40.7677   41.4941  -55.6013 C   0  0  0  0  0  0  0  0  0  0  0  0
   41.4320   42.0616  -54.5555 N   0  0  0  0  0  0  0  0  0  0  0  0
   42.9575   40.2128  -54.6342 C   0  0  0  0  0  0  0  0  0  0  0  0
   42.5228   41.4532  -54.0706 C   0  0  0  0  0  0  0  0  0  0  0  0
   42.5735   43.2746  -52.5294 C   0  0  0  0  0  0  0  0  0  0  0  0
   43.1496   42.0650  -53.0206 O   0  0  0  0  0  0  0  0  0  0  0  0
   39.6043   38.1727  -56.9997 S   0  0  0  0  0  0  0  0  0  0  0  0
   40.7092   37.1721  -57.4727 O   0  0  0  0  0  0  0  0  0  0  0  0
   38.3485   38.0766  -57.8709 O   0  0  0  0  0  0  0  0  0  0  0  0
   39.2228   37.7756  -55.2758 C   0  0  0  0  0  0  0  0  0  0  0  0
   39.6801   36.3390  -53.4092 C   0  0  0  0  0  0  0  0  0  0  0  0
   37.6130   39.6269  -55.0000 C   0  0  0  0  0  0  0  0  0  0  0  0
   38.3195   38.5194  -54.4926 C   0  0  0  0  0  0  0  0  0  0  0  0
   38.1042   38.1534  -53.1661 C   0  0  0  0  0  0  0  0  0  0  0  0
   38.7816   37.0627  -52.6269 C   0  0  0  0  0  0  0  0  0  0  0  0
   39.9027   36.6918  -54.7295 C   0  0  0  0  0  0  0  0  0  0  0  0
   40.4582   40.2853  -58.5790 C   0  0  0  0  0  0  0  0  0  0  0  0
   41.9354   40.4988  -58.9038 C   0  0  0  0  0  0  0  0  0  0  0  0
   42.5906   39.4976  -59.1419 O   0  0  0  0  0  0  0  0  0  0  0  0
   42.4653   41.7454  -58.9873 N   0  0  0  0  0  0  0  0  0  0  0  0
   41.7556   43.0147  -58.6690 C   0  0  0  0  0  0  0  0  0  0  0  0
   41.4766   43.8585  -59.9258 C   0  0  0  0  0  0  0  0  0  0  0  0
   43.8721   41.8863  -59.3858 C   0  0  0  0  0  0  0  0  0  0  0  0
   45.4283   40.9918  -57.8137 C   0  0  0  0  0  0  0  0  0  0  0  0
   44.7725   42.0994  -58.2956 C   0  0  0  0  0  0  0  0  0  0  0  0
   46.3413   41.0878  -56.7859 C   0  0  0  0  0  0  0  0  0  0  0  0
   46.5941   42.3106  -56.2069 C   0  0  0  0  0  0  0  0  0  0  0  0
   45.9500   43.4405  -56.6903 N   0  0  0  0  0  0  0  0  0  0  0  0
   45.0016   43.3512  -57.7311 C   0  0  0  0  0  0  0  0  0  0  0  0
 14 18  1  0  0  0
 14 19  2  0  0  0
 18 17  2  0  0  0
 19 13  1  0  0  0
 17 16  1  0  0  0
 13 16  2  0  0  0
 13 10  1  0  0  0
 11 10  2  0  0  0
 16 15  1  0  0  0
 10  1  1  0  0  0
 10 12  2  0  0  0
 20  1  1  0  0  0
 20 21  1  0  0  0
  3  6  2  0  0  0
  3  2  1  0  0  0
  1  2  1  0  0  0
  6  7  1  0  0  0
  2  4  2  0  0  0
 21 22  2  0  0  0
 21 23  1  0  0  0
 25 24  1  0  0  0
 23 24  1  0  0  0
 23 26  1  0  0  0
  7  5  2  0  0  0
  7  9  1  0  0  0
  4  5  1  0  0  0
 26 28  1  0  0  0
  9  8  1  0  0  0
 28 32  2  0  0  0
 28 27  1  0  0  0
 32 31  1  0  0  0
 27 29  2  0  0  0
 31 30  2  0  0  0
 29 30  1  0  0  0
M  END
> <minimizedAffinity>
-8.78613

$$$$
5WQC_7MA_A_2001


 32 34  0  0  0  0  0  0  0  0999 V2000
   38.9991   38.5554  -54.3068 N   0  0  0  0  0  0  0  0  0  0  0  0
   40.0619   39.4070  -54.1242 C   0  0  0  0  0  0  0  0  0  0  0  0
   41.3896   39.1114  -53.7776 C   0  0  0  0  0  0  0  0  0  0  0  0
   39.6894   40.7427  -54.2495 C   0  0  0  0  0  0  0  0  0  0  0  0
   40.5327   41.7968  -54.0623 N   0  0  0  0  0  0  0  0  0  0  0  0
   42.2660   40.2119  -53.5777 C   0  0  0  0  0  0  0  0  0  0  0  0
   41.8116   41.5578  -53.7430 C   0  0  0  0  0  0  0  0  0  0  0  0
   42.9220   43.0252  -52.2234 C   0  0  0  0  0  0  0  0  0  0  0  0
   42.6132   42.6513  -53.5655 O   0  0  0  0  0  0  0  0  0  0  0  0
   38.8336   37.2607  -52.9465 S   0  0  0  0  0  0  0  0  0  0  0  0
   40.0637   36.2980  -53.0221 O   0  0  0  0  0  0  0  0  0  0  0  0
   37.5211   36.5180  -53.2133 O   0  0  0  0  0  0  0  0  0  0  0  0
   38.8302   37.9988  -51.2941 C   0  0  0  0  0  0  0  0  0  0  0  0
   40.1152   38.5132  -49.3342 C   0  0  0  0  0  0  0  0  0  0  0  0
   36.4659   38.7016  -51.3983 C   0  0  0  0  0  0  0  0  0  0  0  0
   37.7021   38.6234  -50.7285 C   0  0  0  0  0  0  0  0  0  0  0  0
   37.7981   39.1848  -49.4574 C   0  0  0  0  0  0  0  0  0  0  0  0
   39.0025   39.1265  -48.7607 C   0  0  0  0  0  0  0  0  0  0  0  0
   40.0329   37.9506  -50.5966 C   0  0  0  0  0  0  0  0  0  0  0  0
   38.6450   38.0382  -55.6010 C   0  0  0  0  0  0  0  0  0  0  0  0
   39.8712   37.8415  -56.4904 C   0  0  0  0  0  0  0  0  0  0  0  0
   40.5105   36.8169  -56.3173 O   0  0  0  0  0  0  0  0  0  0  0  0
   40.1850   38.7326  -57.4646 N   0  0  0  0  0  0  0  0  0  0  0  0
   39.4925   40.0263  -57.7152 C   0  0  0  0  0  0  0  0  0  0  0  0
   38.7575   40.0426  -59.0676 C   0  0  0  0  0  0  0  0  0  0  0  0
   41.3282   38.4432  -58.3406 C   0  0  0  0  0  0  0  0  0  0  0  0
   43.0830   39.4289  -57.0591 C   0  0  0  0  0  0  0  0  0  0  0  0
   42.3938   39.3921  -58.2477 C   0  0  0  0  0  0  0  0  0  0  0  0
   44.1479   40.2834  -56.8719 C   0  0  0  0  0  0  0  0  0  0  0  0
   44.5250   41.1386  -57.8823 C   0  0  0  0  0  0  0  0  0  0  0  0
   43.8478   41.1048  -59.0929 N   0  0  0  0  0  0  0  0  0  0  0  0
   42.7461   40.2456  -59.2897 C   0  0  0  0  0  0  0  0  0  0  0  0
 14 18  1  0  0  0
 14 19  2  0  0  0
 18 17  2  0  0  0
 19 13  1  0  0  0
 17 16  1  0  0  0
 13 16  2  0  0  0
 13 10  1  0  0  0
 11 10  2  0  0  0
 16 15  1  0  0  0
 10  1  1  0  0  0
 10 12  2  0  0  0
 20  1  1  0  0  0
 20 21  1  0  0  0
  3  6  2  0  0  0
  3  2  1  0  0  0
  1  2  1  0  0  0
  6  7  1  0  0  0
  2  4  2  0  0  0
 21 22  2  0  0  0
 21 23  1  0  0  0
 25 24  1  0  0  0
 23 24  1  0  0  0
 23 26  1  0  0  0
  7  5  2  0  0  0
  7  9  1  0  0  0
  4  5  1  0  0  0
 26 28  1  0  0  0
  9  8  1  0  0  0
 28 32  2  0  0  0
 28 27  1  0  0  0
 32 31  1  0  0  0
 27 29  2  0  0  0
 31 30  2  0  0  0
 29 30  1  0  0  0
M  END
> <minimizedAffinity>
-8.61669

$$$$
5WQC_7MA_A_2001


 32 34  0  0  0  0  0  0  0  0999 V2000
   41.7337   39.3685  -56.5521 N   0  0  0  0  0  0  0  0  0  0  0  0
   42.0070   40.3361  -55.6155 C   0  0  0  0  0  0  0  0  0  0  0  0
   41.1944   41.3842  -55.1558 C   0  0  0  0  0  0  0  0  0  0  0  0
   43.3134   40.2510  -55.1415 C   0  0  0  0  0  0  0  0  0  0  0  0
   43.8652   41.1200  -54.2484 N   0  0  0  0  0  0  0  0  0  0  0  0
   41.7732   42.2923  -54.2287 C   0  0  0  0  0  0  0  0  0  0  0  0
   43.1193   42.1271  -53.7749 C   0  0  0  0  0  0  0  0  0  0  0  0
   42.8746   43.7239  -52.0183 C   0  0  0  0  0  0  0  0  0  0  0  0
   43.7230   42.9696  -52.8830 O   0  0  0  0  0  0  0  0  0  0  0  0
   41.0730   37.7682  -55.8061 S   0  0  0  0  0  0  0  0  0  0  0  0
   42.2738   36.9634  -55.2093 O   0  0  0  0  0  0  0  0  0  0  0  0
   40.3967   37.0050  -56.9485 O   0  0  0  0  0  0  0  0  0  0  0  0
   39.9063   38.0715  -54.4562 C   0  0  0  0  0  0  0  0  0  0  0  0
   39.4640   37.8402  -52.1093 C   0  0  0  0  0  0  0  0  0  0  0  0
   38.2503   39.2192  -55.8828 C   0  0  0  0  0  0  0  0  0  0  0  0
   38.6822   38.7455  -54.6289 C   0  0  0  0  0  0  0  0  0  0  0  0
   37.8561   38.9537  -53.5270 C   0  0  0  0  0  0  0  0  0  0  0  0
   38.2458   38.4985  -52.2700 C   0  0  0  0  0  0  0  0  0  0  0  0
   40.2941   37.6261  -53.1966 C   0  0  0  0  0  0  0  0  0  0  0  0
   42.5903   39.1328  -57.6829 C   0  0  0  0  0  0  0  0  0  0  0  0
   42.0269   39.7488  -58.9620 C   0  0  0  0  0  0  0  0  0  0  0  0
   41.1922   39.0909  -59.5612 O   0  0  0  0  0  0  0  0  0  0  0  0
   42.3919   40.9922  -59.3652 N   0  0  0  0  0  0  0  0  0  0  0  0
   43.4324   41.8430  -58.7252 C   0  0  0  0  0  0  0  0  0  0  0  0
   44.7454   41.8627  -59.5283 C   0  0  0  0  0  0  0  0  0  0  0  0
   41.7509   41.5610  -60.5583 C   0  0  0  0  0  0  0  0  0  0  0  0
   41.4355   43.8958  -60.9358 C   0  0  0  0  0  0  0  0  0  0  0  0
   41.0002   42.7523  -60.3097 C   0  0  0  0  0  0  0  0  0  0  0  0
   40.7684   45.0930  -60.7908 C   0  0  0  0  0  0  0  0  0  0  0  0
   39.6533   45.1622  -59.9870 C   0  0  0  0  0  0  0  0  0  0  0  0
   39.1932   44.0140  -59.3583 N   0  0  0  0  0  0  0  0  0  0  0  0
   39.8778   42.7870  -59.4867 C   0  0  0  0  0  0  0  0  0  0  0  0
 14 18  1  0  0  0
 14 19  2  0  0  0
 18 17  2  0  0  0
 19 13  1  0  0  0
 17 16  1  0  0  0
 13 16  2  0  0  0
 13 10  1  0  0  0
 11 10  2  0  0  0
 16 15  1  0  0  0
 10  1  1  0  0  0
 10 12  2  0  0  0
 20  1  1  0  0  0
 20 21  1  0  0  0
  3  6  2  0  0  0
  3  2  1  0  0  0
  1  2  1  0  0  0
  6  7  1  0  0  0
  2  4  2  0  0  0
 21 22  2  0  0  0
 21 23  1  0  0  0
 25 24  1  0  0  0
 23 24  1  0  0  0
 23 26  1  0  0  0
  7  5  2  0  0  0
  7  9  1  0  0  0
  4  5  1  0  0  0
 26 28  1  0  0  0
  9  8  1  0  0  0
 28 32  2  0  0  0
 28 27  1  0  0  0
 32 31  1  0  0  0
 27 29  2  0  0  0
 31 30  2  0  0  0
 29 30  1  0  0  0
M  END
> <minimizedAffinity>
-8.58723

$$$$
5WQC_7MA_A_2001


 32 34  0  0  0  0  0  0  0  0999 V2000
   40.7691   39.4733  -57.0226 N   0  0  0  0  0  0  0  0  0  0  0  0
   41.8954   39.6392  -56.2533 C   0  0  0  0  0  0  0  0  0  0  0  0
   42.0163   39.7111  -54.8566 C   0  0  0  0  0  0  0  0  0  0  0  0
   43.0367   39.8223  -57.0294 C   0  0  0  0  0  0  0  0  0  0  0  0
   44.2790   40.0646  -56.5244 N   0  0  0  0  0  0  0  0  0  0  0  0
   43.3115   39.9689  -54.3322 C   0  0  0  0  0  0  0  0  0  0  0  0
   44.4401   40.1282  -55.1959 C   0  0  0  0  0  0  0  0  0  0  0  0
   45.8654   41.4109  -53.7751 C   0  0  0  0  0  0  0  0  0  0  0  0
   45.7067   40.3749  -54.7436 O   0  0  0  0  0  0  0  0  0  0  0  0
   39.9504   37.7897  -56.8004 S   0  0  0  0  0  0  0  0  0  0  0  0
   41.0409   36.6802  -56.9600 O   0  0  0  0  0  0  0  0  0  0  0  0
   38.8768   37.6836  -57.8873 O   0  0  0  0  0  0  0  0  0  0  0  0
   39.2216   37.5935  -55.1555 C   0  0  0  0  0  0  0  0  0  0  0  0
   39.1533   36.2862  -53.1447 C   0  0  0  0  0  0  0  0  0  0  0  0
   37.8384   39.6325  -55.3096 C   0  0  0  0  0  0  0  0  0  0  0  0
   38.2963   38.5017  -54.6063 C   0  0  0  0  0  0  0  0  0  0  0  0
   37.8041   38.2820  -53.3220 C   0  0  0  0  0  0  0  0  0  0  0  0
   38.2302   37.1738  -52.5942 C   0  0  0  0  0  0  0  0  0  0  0  0
   39.6497   36.4925  -54.4207 C   0  0  0  0  0  0  0  0  0  0  0  0
   40.6909   39.9455  -58.3787 C   0  0  0  0  0  0  0  0  0  0  0  0
   40.2031   41.3911  -58.4509 C   0  0  0  0  0  0  0  0  0  0  0  0
   39.3783   41.7296  -57.6180 O   0  0  0  0  0  0  0  0  0  0  0  0
   40.7168   42.2636  -59.3546 N   0  0  0  0  0  0  0  0  0  0  0  0
   41.6869   41.9278  -60.4327 C   0  0  0  0  0  0  0  0  0  0  0  0
   43.1425   42.2028  -60.0144 C   0  0  0  0  0  0  0  0  0  0  0  0
   40.2661   43.6613  -59.3175 C   0  0  0  0  0  0  0  0  0  0  0  0
   37.9505   44.1177  -59.6685 C   0  0  0  0  0  0  0  0  0  0  0  0
   39.1988   43.9581  -60.2214 C   0  0  0  0  0  0  0  0  0  0  0  0
   36.8565   44.4360  -60.4437 C   0  0  0  0  0  0  0  0  0  0  0  0
   37.0003   44.5784  -61.8051 C   0  0  0  0  0  0  0  0  0  0  0  0
   38.2560   44.4333  -62.3772 N   0  0  0  0  0  0  0  0  0  0  0  0
   39.3797   44.0915  -61.5954 C   0  0  0  0  0  0  0  0  0  0  0  0
 14 18  1  0  0  0
 14 19  2  0  0  0
 18 17  2  0  0  0
 19 13  1  0  0  0
 17 16  1  0  0  0
 13 16  2  0  0  0
 13 10  1  0  0  0
 11 10  2  0  0  0
 16 15  1  0  0  0
 10  1  1  0  0  0
 10 12  2  0  0  0
 20  1  1  0  0  0
 20 21  1  0  0  0
  3  6  2  0  0  0
  3  2  1  0  0  0
  1  2  1  0  0  0
  6  7  1  0  0  0
  2  4  2  0  0  0
 21 22  2  0  0  0
 21 23  1  0  0  0
 25 24  1  0  0  0
 23 24  1  0  0  0
 23 26  1  0  0  0
  7  5  2  0  0  0
  7  9  1  0  0  0
  4  5  1  0  0  0
 26 28  1  0  0  0
  9  8  1  0  0  0
 28 32  2  0  0  0
 28 27  1  0  0  0
 32 31  1  0  0  0
 27 29  2  0  0  0
 31 30  2  0  0  0
 29 30  1  0  0  0
M  END
> <minimizedAffinity>
-8.53190

$$$$
