2OJG_19A_A_360


 23 25  0  0  0  0  0  0  0  0999 V2000
  -16.0649   14.3290   43.8587 C   0  0  0  0  0  0  0  0  0  0  0  0
  -17.0292   14.3811   44.7680 N   0  0  0  0  0  0  0  0  0  0  0  0
  -17.9283   13.3440   44.5426 N   0  0  0  0  0  0  0  0  0  0  0  0
  -17.5232   12.6388   43.4820 C   0  0  0  0  0  0  0  0  0  0  0  0
  -16.3621   13.2021   43.0008 C   0  0  0  0  0  0  0  0  0  0  0  0
  -18.7334   13.1590   45.0782 H   0  0  0  0  0  0  0  0  0  0  0  0
  -12.8621   16.2625   44.0445 C   0  0  0  0  0  0  0  0  0  0  0  0
  -13.6222   15.1410   44.3136 C   0  0  0  0  0  0  0  0  0  0  0  0
  -14.9133   15.3153   43.7948 C   0  0  0  0  0  0  0  0  0  0  0  0
  -14.9224   16.5585   43.2029 C   0  0  0  0  0  0  0  0  0  0  0  0
  -13.6913   17.1249   43.3515 N   0  0  0  0  0  0  0  0  0  0  0  0
  -13.4320   18.0135   43.0162 H   0  0  0  0  0  0  0  0  0  0  0  0
   -8.9452   16.2025   44.3075 C   0  0  0  0  0  0  0  0  0  0  0  0
  -10.3072   15.8216   43.8879 N   0  0  0  0  0  0  0  0  0  0  0  0
  -10.4339   14.7058   42.9426 C   0  0  0  0  0  0  0  0  0  0  0  0
  -11.4052   16.5287   44.3992 C   0  0  0  0  0  0  0  0  0  0  0  0
  -11.1862   17.4355   45.1918 O   0  0  0  0  0  0  0  0  0  0  0  0
  -15.6064   12.6879   41.8027 C   0  0  0  0  0  0  0  0  0  0  0  0
  -14.2381   13.0161   41.5522 C   0  0  0  0  0  0  0  0  0  0  0  0
  -13.5794   12.5019   40.4137 C   0  0  0  0  0  0  0  0  0  0  0  0
  -14.2783   11.6521   39.5278 C   0  0  0  0  0  0  0  0  0  0  0  0
  -15.6402   11.3182   39.7676 C   0  0  0  0  0  0  0  0  0  0  0  0
  -16.2963   11.8270   40.8915 C   0  0  0  0  0  0  0  0  0  0  0  0
 13 14  1  0  0  0
 14 16  1  0  0  0
 14 15  1  0  0  0
 16 17  2  0  0  0
 16  7  1  0  0  0
  7 11  1  0  0  0
  7  8  2  0  0  0
  8  9  1  0  0  0
  9 10  2  0  0  0
  9  1  1  0  0  0
 10 11  1  0  0  0
  1  2  2  0  0  0
  1  5  1  0  0  0
  2  3  1  0  0  0
  3  4  1  0  0  0
  4  5  2  0  0  0
  5 18  1  0  0  0
 18 19  1  0  0  0
 18 23  2  0  0  0
 19 20  2  0  0  0
 20 21  1  0  0  0
 21 22  2  0  0  0
 22 23  1  0  0  0
 11 12  1  0  0  0
  3  6  1  0  0  0
M  END
> <minimizedAffinity>
-8.84747

$$$$
2OJG_19A_A_360


 23 25  0  0  0  0  0  0  0  0999 V2000
  -16.2094   12.3427   41.3264 C   0  0  0  0  0  0  0  0  0  0  0  0
  -17.2180   11.4812   41.3200 N   0  0  0  0  0  0  0  0  0  0  0  0
  -18.2382   11.9639   42.1330 N   0  0  0  0  0  0  0  0  0  0  0  0
  -17.8628   13.1362   42.6536 C   0  0  0  0  0  0  0  0  0  0  0  0
  -16.5996   13.4342   42.1928 C   0  0  0  0  0  0  0  0  0  0  0  0
  -19.0983   11.5144   42.2984 H   0  0  0  0  0  0  0  0  0  0  0  0
  -12.7125   11.9746   40.0352 C   0  0  0  0  0  0  0  0  0  0  0  0
  -13.6120   12.2472   41.0473 C   0  0  0  0  0  0  0  0  0  0  0  0
  -14.9198   12.1355   40.5536 C   0  0  0  0  0  0  0  0  0  0  0  0
  -14.7988   11.7863   39.2272 C   0  0  0  0  0  0  0  0  0  0  0  0
  -13.4747   11.6883   38.9178 N   0  0  0  0  0  0  0  0  0  0  0  0
  -13.1156   11.4497   38.0327 H   0  0  0  0  0  0  0  0  0  0  0  0
   -8.9280   12.8212   40.6483 C   0  0  0  0  0  0  0  0  0  0  0  0
  -10.3946   12.9793   40.6392 N   0  0  0  0  0  0  0  0  0  0  0  0
  -10.9428   14.2158   41.2096 C   0  0  0  0  0  0  0  0  0  0  0  0
  -11.1909   11.9601   40.0967 C   0  0  0  0  0  0  0  0  0  0  0  0
  -10.6286   10.9751   39.6363 O   0  0  0  0  0  0  0  0  0  0  0  0
  -15.8341   14.6769   42.5679 C   0  0  0  0  0  0  0  0  0  0  0  0
  -15.3988   14.9436   43.9029 C   0  0  0  0  0  0  0  0  0  0  0  0
  -14.6814   16.1244   44.1953 C   0  0  0  0  0  0  0  0  0  0  0  0
  -14.3872   17.0370   43.1580 C   0  0  0  0  0  0  0  0  0  0  0  0
  -14.8150   16.7814   41.8255 C   0  0  0  0  0  0  0  0  0  0  0  0
  -15.5272   15.6156   41.5324 C   0  0  0  0  0  0  0  0  0  0  0  0
 13 14  1  0  0  0
 14 16  1  0  0  0
 14 15  1  0  0  0
 16 17  2  0  0  0
 16  7  1  0  0  0
  7 11  1  0  0  0
  7  8  2  0  0  0
  8  9  1  0  0  0
  9 10  2  0  0  0
  9  1  1  0  0  0
 10 11  1  0  0  0
  1  2  2  0  0  0
  1  5  1  0  0  0
  2  3  1  0  0  0
  3  4  1  0  0  0
  4  5  2  0  0  0
  5 18  1  0  0  0
 18 19  1  0  0  0
 18 23  2  0  0  0
 19 20  2  0  0  0
 20 21  1  0  0  0
 21 22  2  0  0  0
 22 23  1  0  0  0
 11 12  1  0  0  0
  3  6  1  0  0  0
M  END
> <minimizedAffinity>
-8.71936

$$$$
2OJG_19A_A_360


 23 25  0  0  0  0  0  0  0  0999 V2000
  -14.1364   12.1766   40.5701 C   0  0  0  0  0  0  0  0  0  0  0  0
  -14.3798   11.1071   39.8241 N   0  0  0  0  0  0  0  0  0  0  0  0
  -15.7262   10.7733   39.9272 N   0  0  0  0  0  0  0  0  0  0  0  0
  -16.3288   11.6406   40.7462 C   0  0  0  0  0  0  0  0  0  0  0  0
  -15.3910   12.5470   41.1889 C   0  0  0  0  0  0  0  0  0  0  0  0
  -16.1647   10.0195   39.4702 H   0  0  0  0  0  0  0  0  0  0  0  0
  -10.9141   13.7931   41.5871 C   0  0  0  0  0  0  0  0  0  0  0  0
  -12.1665   13.2893   41.8795 C   0  0  0  0  0  0  0  0  0  0  0  0
  -12.7667   12.8163   40.7037 C   0  0  0  0  0  0  0  0  0  0  0  0
  -11.8563   13.0372   39.6946 C   0  0  0  0  0  0  0  0  0  0  0  0
  -10.7449   13.6214   40.2257 N   0  0  0  0  0  0  0  0  0  0  0  0
   -9.9432   13.8815   39.7169 H   0  0  0  0  0  0  0  0  0  0  0  0
   -9.0753   15.8693   44.3662 C   0  0  0  0  0  0  0  0  0  0  0  0
  -10.1654   15.3844   43.4987 N   0  0  0  0  0  0  0  0  0  0  0  0
  -11.4967   15.9696   43.6983 C   0  0  0  0  0  0  0  0  0  0  0  0
   -9.8907   14.4012   42.5369 C   0  0  0  0  0  0  0  0  0  0  0  0
   -8.7411   13.9903   42.4474 O   0  0  0  0  0  0  0  0  0  0  0  0
  -15.6908   13.6779   42.1387 C   0  0  0  0  0  0  0  0  0  0  0  0
  -15.2908   15.0266   41.8861 C   0  0  0  0  0  0  0  0  0  0  0  0
  -15.6027   16.0469   42.8114 C   0  0  0  0  0  0  0  0  0  0  0  0
  -16.3217   15.7286   43.9849 C   0  0  0  0  0  0  0  0  0  0  0  0
  -16.7254   14.3897   44.2462 C   0  0  0  0  0  0  0  0  0  0  0  0
  -16.4167   13.3769   43.3346 C   0  0  0  0  0  0  0  0  0  0  0  0
 13 14  1  0  0  0
 14 16  1  0  0  0
 14 15  1  0  0  0
 16 17  2  0  0  0
 16  7  1  0  0  0
  7 11  1  0  0  0
  7  8  2  0  0  0
  8  9  1  0  0  0
  9 10  2  0  0  0
  9  1  1  0  0  0
 10 11  1  0  0  0
  1  2  2  0  0  0
  1  5  1  0  0  0
  2  3  1  0  0  0
  3  4  1  0  0  0
  4  5  2  0  0  0
  5 18  1  0  0  0
 18 19  1  0  0  0
 18 23  2  0  0  0
 19 20  2  0  0  0
 20 21  1  0  0  0
 21 22  2  0  0  0
 22 23  1  0  0  0
 11 12  1  0  0  0
  3  6  1  0  0  0
M  END
> <minimizedAffinity>
-8.43796

$$$$
2OJG_19A_A_360


 23 25  0  0  0  0  0  0  0  0999 V2000
  -14.6648   13.7563   41.6653 C   0  0  0  0  0  0  0  0  0  0  0  0
  -15.7306   13.1754   41.1304 N   0  0  0  0  0  0  0  0  0  0  0  0
  -15.3173   12.2253   40.2023 N   0  0  0  0  0  0  0  0  0  0  0  0
  -13.9817   12.2140   40.1555 C   0  0  0  0  0  0  0  0  0  0  0  0
  -13.5056   13.1514   41.0452 C   0  0  0  0  0  0  0  0  0  0  0  0
  -15.9128   11.6533   39.6661 H   0  0  0  0  0  0  0  0  0  0  0  0
  -14.5388   16.8594   43.7594 C   0  0  0  0  0  0  0  0  0  0  0  0
  -14.2801   16.1707   42.5905 C   0  0  0  0  0  0  0  0  0  0  0  0
  -14.7395   14.8514   42.7133 C   0  0  0  0  0  0  0  0  0  0  0  0
  -15.2851   14.7528   43.9736 C   0  0  0  0  0  0  0  0  0  0  0  0
  -15.1659   15.9581   44.5995 N   0  0  0  0  0  0  0  0  0  0  0  0
  -15.4790   16.1565   45.5116 H   0  0  0  0  0  0  0  0  0  0  0  0
  -12.8245   20.2515   44.7444 C   0  0  0  0  0  0  0  0  0  0  0  0
  -12.9781   18.8102   44.4705 N   0  0  0  0  0  0  0  0  0  0  0  0
  -11.7858   17.9661   44.6135 C   0  0  0  0  0  0  0  0  0  0  0  0
  -14.2339   18.3143   44.0907 C   0  0  0  0  0  0  0  0  0  0  0  0
  -15.1648   19.1055   44.0134 O   0  0  0  0  0  0  0  0  0  0  0  0
  -12.0432   13.4372   41.2703 C   0  0  0  0  0  0  0  0  0  0  0  0
  -11.5339   13.9314   42.5109 C   0  0  0  0  0  0  0  0  0  0  0  0
  -10.1519   14.1780   42.6656 C   0  0  0  0  0  0  0  0  0  0  0  0
   -9.2731   13.9239   41.5892 C   0  0  0  0  0  0  0  0  0  0  0  0
   -9.7691   13.4314   40.3501 C   0  0  0  0  0  0  0  0  0  0  0  0
  -11.1359   13.1884   40.1921 C   0  0  0  0  0  0  0  0  0  0  0  0
 13 14  1  0  0  0
 14 16  1  0  0  0
 14 15  1  0  0  0
 16 17  2  0  0  0
 16  7  1  0  0  0
  7 11  1  0  0  0
  7  8  2  0  0  0
  8  9  1  0  0  0
  9 10  2  0  0  0
  9  1  1  0  0  0
 10 11  1  0  0  0
  1  2  2  0  0  0
  1  5  1  0  0  0
  2  3  1  0  0  0
  3  4  1  0  0  0
  4  5  2  0  0  0
  5 18  1  0  0  0
 18 19  1  0  0  0
 18 23  2  0  0  0
 19 20  2  0  0  0
 20 21  1  0  0  0
 21 22  2  0  0  0
 22 23  1  0  0  0
 11 12  1  0  0  0
  3  6  1  0  0  0
M  END
> <minimizedAffinity>
-8.40197

$$$$
2OJG_19A_A_360


 23 25  0  0  0  0  0  0  0  0999 V2000
  -12.3858   15.9600   43.8018 C   0  0  0  0  0  0  0  0  0  0  0  0
  -12.2608   16.6982   44.8968 N   0  0  0  0  0  0  0  0  0  0  0  0
  -10.9172   16.7718   45.2490 N   0  0  0  0  0  0  0  0  0  0  0  0
  -10.1966   16.0719   44.3675 C   0  0  0  0  0  0  0  0  0  0  0  0
  -11.0532   15.5327   43.4334 C   0  0  0  0  0  0  0  0  0  0  0  0
  -10.5553   17.2609   46.0230 H   0  0  0  0  0  0  0  0  0  0  0  0
  -15.6045   14.5841   42.4686 C   0  0  0  0  0  0  0  0  0  0  0  0
  -14.4398   14.4592   43.2005 C   0  0  0  0  0  0  0  0  0  0  0  0
  -13.7161   15.6586   43.1365 C   0  0  0  0  0  0  0  0  0  0  0  0
  -14.4628   16.5142   42.3579 C   0  0  0  0  0  0  0  0  0  0  0  0
  -15.5960   15.8695   41.9594 N   0  0  0  0  0  0  0  0  0  0  0  0
  -16.3015   16.2600   41.3946 H   0  0  0  0  0  0  0  0  0  0  0  0
  -17.7708   11.5256   41.2992 C   0  0  0  0  0  0  0  0  0  0  0  0
  -16.6286   12.4547   41.3900 N   0  0  0  0  0  0  0  0  0  0  0  0
  -15.4573   12.1665   40.5537 C   0  0  0  0  0  0  0  0  0  0  0  0
  -16.7067   13.5549   42.2565 C   0  0  0  0  0  0  0  0  0  0  0  0
  -17.7367   13.7075   42.9000 O   0  0  0  0  0  0  0  0  0  0  0  0
  -10.6112   14.6698   42.2797 C   0  0  0  0  0  0  0  0  0  0  0  0
  -11.5000   14.2526   41.2411 C   0  0  0  0  0  0  0  0  0  0  0  0
  -11.0286   13.4463   40.1818 C   0  0  0  0  0  0  0  0  0  0  0  0
   -9.6698   13.0618   40.1490 C   0  0  0  0  0  0  0  0  0  0  0  0
   -8.7761   13.4718   41.1771 C   0  0  0  0  0  0  0  0  0  0  0  0
   -9.2389   14.2675   42.2282 C   0  0  0  0  0  0  0  0  0  0  0  0
 13 14  1  0  0  0
 14 16  1  0  0  0
 14 15  1  0  0  0
 16 17  2  0  0  0
 16  7  1  0  0  0
  7 11  1  0  0  0
  7  8  2  0  0  0
  8  9  1  0  0  0
  9 10  2  0  0  0
  9  1  1  0  0  0
 10 11  1  0  0  0
  1  2  2  0  0  0
  1  5  1  0  0  0
  2  3  1  0  0  0
  3  4  1  0  0  0
  4  5  2  0  0  0
  5 18  1  0  0  0
 18 19  1  0  0  0
 18 23  2  0  0  0
 19 20  2  0  0  0
 20 21  1  0  0  0
 21 22  2  0  0  0
 22 23  1  0  0  0
 11 12  1  0  0  0
  3  6  1  0  0  0
M  END
> <minimizedAffinity>
-8.35796

$$$$
2OJG_19A_A_360


 23 25  0  0  0  0  0  0  0  0999 V2000
  -12.8279   13.2611   41.1485 C   0  0  0  0  0  0  0  0  0  0  0  0
  -11.7544   12.9011   40.4575 N   0  0  0  0  0  0  0  0  0  0  0  0
  -12.1313   12.0147   39.4540 N   0  0  0  0  0  0  0  0  0  0  0  0
  -13.4515   11.8174   39.5199 C   0  0  0  0  0  0  0  0  0  0  0  0
  -13.9533   12.5658   40.5616 C   0  0  0  0  0  0  0  0  0  0  0  0
  -11.5233   11.5994   38.8004 H   0  0  0  0  0  0  0  0  0  0  0  0
  -13.1292   16.0337   43.6489 C   0  0  0  0  0  0  0  0  0  0  0  0
  -13.3847   15.4828   42.4084 C   0  0  0  0  0  0  0  0  0  0  0  0
  -12.7896   14.2155   42.3277 C   0  0  0  0  0  0  0  0  0  0  0  0
  -12.1733   14.0051   43.5409 C   0  0  0  0  0  0  0  0  0  0  0  0
  -12.3791   15.0953   44.3332 N   0  0  0  0  0  0  0  0  0  0  0  0
  -12.0444   15.1987   45.2532 H   0  0  0  0  0  0  0  0  0  0  0  0
  -13.2966   19.6753   45.1072 C   0  0  0  0  0  0  0  0  0  0  0  0
  -12.7198   18.4116   44.6106 N   0  0  0  0  0  0  0  0  0  0  0  0
  -11.2561   18.3068   44.5752 C   0  0  0  0  0  0  0  0  0  0  0  0
  -13.5777   17.3811   44.1992 C   0  0  0  0  0  0  0  0  0  0  0  0
  -14.7842   17.5703   44.2820 O   0  0  0  0  0  0  0  0  0  0  0  0
  -15.4076   12.5986   40.9553 C   0  0  0  0  0  0  0  0  0  0  0  0
  -16.1013   13.8124   41.2520 C   0  0  0  0  0  0  0  0  0  0  0  0
  -17.4664   13.7825   41.6124 C   0  0  0  0  0  0  0  0  0  0  0  0
  -18.1462   12.5455   41.6686 C   0  0  0  0  0  0  0  0  0  0  0  0
  -17.4658   11.3312   41.3747 C   0  0  0  0  0  0  0  0  0  0  0  0
  -16.1146   11.3562   41.0201 C   0  0  0  0  0  0  0  0  0  0  0  0
 13 14  1  0  0  0
 14 16  1  0  0  0
 14 15  1  0  0  0
 16 17  2  0  0  0
 16  7  1  0  0  0
  7 11  1  0  0  0
  7  8  2  0  0  0
  8  9  1  0  0  0
  9 10  2  0  0  0
  9  1  1  0  0  0
 10 11  1  0  0  0
  1  2  2  0  0  0
  1  5  1  0  0  0
  2  3  1  0  0  0
  3  4  1  0  0  0
  4  5  2  0  0  0
  5 18  1  0  0  0
 18 19  1  0  0  0
 18 23  2  0  0  0
 19 20  2  0  0  0
 20 21  1  0  0  0
 21 22  2  0  0  0
 22 23  1  0  0  0
 11 12  1  0  0  0
  3  6  1  0  0  0
M  END
> <minimizedAffinity>
-8.34796

$$$$
2OJG_19A_A_360


 23 25  0  0  0  0  0  0  0  0999 V2000
  -10.8912   16.1680   44.2571 C   0  0  0  0  0  0  0  0  0  0  0  0
  -10.1311   16.8158   45.1301 N   0  0  0  0  0  0  0  0  0  0  0  0
   -8.7941   16.5291   44.8750 N   0  0  0  0  0  0  0  0  0  0  0  0
   -8.7183   15.6933   43.8349 C   0  0  0  0  0  0  0  0  0  0  0  0
   -9.9963   15.4219   43.3988 C   0  0  0  0  0  0  0  0  0  0  0  0
   -8.0271   16.8847   45.3795 H   0  0  0  0  0  0  0  0  0  0  0  0
  -14.6002   15.6464   44.3034 C   0  0  0  0  0  0  0  0  0  0  0  0
  -13.3050   15.1687   44.3491 C   0  0  0  0  0  0  0  0  0  0  0  0
  -12.4070   16.2407   44.2433 C   0  0  0  0  0  0  0  0  0  0  0  0
  -13.1786   17.3762   44.1373 C   0  0  0  0  0  0  0  0  0  0  0  0
  -14.4936   17.0189   44.1754 N   0  0  0  0  0  0  0  0  0  0  0  0
  -15.2526   17.6436   44.1201 H   0  0  0  0  0  0  0  0  0  0  0  0
  -17.6089   13.1974   43.6990 C   0  0  0  0  0  0  0  0  0  0  0  0
  -16.3265   13.8912   43.4751 N   0  0  0  0  0  0  0  0  0  0  0  0
  -15.5554   13.5147   42.2842 C   0  0  0  0  0  0  0  0  0  0  0  0
  -15.9036   14.8639   44.3929 C   0  0  0  0  0  0  0  0  0  0  0  0
  -16.6309   15.1088   45.3466 O   0  0  0  0  0  0  0  0  0  0  0  0
  -10.3196   14.5089   42.2444 C   0  0  0  0  0  0  0  0  0  0  0  0
  -11.6170   14.4459   41.6481 C   0  0  0  0  0  0  0  0  0  0  0  0
  -11.8612   13.5729   40.5651 C   0  0  0  0  0  0  0  0  0  0  0  0
  -10.8123   12.7683   40.0673 C   0  0  0  0  0  0  0  0  0  0  0  0
   -9.5169   12.8234   40.6527 C   0  0  0  0  0  0  0  0  0  0  0  0
   -9.2717   13.6839   41.7259 C   0  0  0  0  0  0  0  0  0  0  0  0
 13 14  1  0  0  0
 14 16  1  0  0  0
 14 15  1  0  0  0
 16 17  2  0  0  0
 16  7  1  0  0  0
  7 11  1  0  0  0
  7  8  2  0  0  0
  8  9  1  0  0  0
  9 10  2  0  0  0
  9  1  1  0  0  0
 10 11  1  0  0  0
  1  2  2  0  0  0
  1  5  1  0  0  0
  2  3  1  0  0  0
  3  4  1  0  0  0
  4  5  2  0  0  0
  5 18  1  0  0  0
 18 19  1  0  0  0
 18 23  2  0  0  0
 19 20  2  0  0  0
 20 21  1  0  0  0
 21 22  2  0  0  0
 22 23  1  0  0  0
 11 12  1  0  0  0
  3  6  1  0  0  0
M  END
> <minimizedAffinity>
-8.27627

$$$$
2OJG_19A_A_360


 23 25  0  0  0  0  0  0  0  0999 V2000
  -12.6209   13.0274   40.9341 C   0  0  0  0  0  0  0  0  0  0  0  0
  -11.8376   12.5558   39.9731 N   0  0  0  0  0  0  0  0  0  0  0  0
  -12.6178   11.9004   39.0262 N   0  0  0  0  0  0  0  0  0  0  0  0
  -13.8995   11.9614   39.3998 C   0  0  0  0  0  0  0  0  0  0  0  0
  -13.9752   12.6515   40.5894 C   0  0  0  0  0  0  0  0  0  0  0  0
  -12.2801   11.4623   38.2118 H   0  0  0  0  0  0  0  0  0  0  0  0
  -10.8097   15.0813   43.4898 C   0  0  0  0  0  0  0  0  0  0  0  0
  -10.9138   14.5234   42.2306 C   0  0  0  0  0  0  0  0  0  0  0  0
  -12.1073   13.7928   42.1397 C   0  0  0  0  0  0  0  0  0  0  0  0
  -12.7273   13.9205   43.3624 C   0  0  0  0  0  0  0  0  0  0  0  0
  -11.9493   14.6949   44.1708 N   0  0  0  0  0  0  0  0  0  0  0  0
  -12.1660   14.9417   45.0989 H   0  0  0  0  0  0  0  0  0  0  0  0
   -8.6975   18.0142   45.0233 C   0  0  0  0  0  0  0  0  0  0  0  0
   -9.8617   17.2849   44.4859 N   0  0  0  0  0  0  0  0  0  0  0  0
  -11.1430   17.9997   44.4412 C   0  0  0  0  0  0  0  0  0  0  0  0
   -9.7001   15.9621   44.0486 C   0  0  0  0  0  0  0  0  0  0  0  0
   -8.5835   15.4656   44.1199 O   0  0  0  0  0  0  0  0  0  0  0  0
  -15.2593   12.9194   41.3310 C   0  0  0  0  0  0  0  0  0  0  0  0
  -15.6734   14.2337   41.7106 C   0  0  0  0  0  0  0  0  0  0  0  0
  -16.8898   14.4251   42.4020 C   0  0  0  0  0  0  0  0  0  0  0  0
  -17.7012   13.3101   42.7082 C   0  0  0  0  0  0  0  0  0  0  0  0
  -17.2993   11.9975   42.3347 C   0  0  0  0  0  0  0  0  0  0  0  0
  -16.0953   11.8036   41.6528 C   0  0  0  0  0  0  0  0  0  0  0  0
 13 14  1  0  0  0
 14 16  1  0  0  0
 14 15  1  0  0  0
 16 17  2  0  0  0
 16  7  1  0  0  0
  7 11  1  0  0  0
  7  8  2  0  0  0
  8  9  1  0  0  0
  9 10  2  0  0  0
  9  1  1  0  0  0
 10 11  1  0  0  0
  1  2  2  0  0  0
  1  5  1  0  0  0
  2  3  1  0  0  0
  3  4  1  0  0  0
  4  5  2  0  0  0
  5 18  1  0  0  0
 18 19  1  0  0  0
 18 23  2  0  0  0
 19 20  2  0  0  0
 20 21  1  0  0  0
 21 22  2  0  0  0
 22 23  1  0  0  0
 11 12  1  0  0  0
  3  6  1  0  0  0
M  END
> <minimizedAffinity>
-8.24318

$$$$
2OJG_19A_A_360


 23 25  0  0  0  0  0  0  0  0999 V2000
  -13.7800   14.1169   42.2225 C   0  0  0  0  0  0  0  0  0  0  0  0
  -15.1003   14.2319   42.1663 N   0  0  0  0  0  0  0  0  0  0  0  0
  -15.5825   13.4661   41.1100 N   0  0  0  0  0  0  0  0  0  0  0  0
  -14.5544   12.8691   40.4996 C   0  0  0  0  0  0  0  0  0  0  0  0
  -13.3926   13.2347   41.1428 C   0  0  0  0  0  0  0  0  0  0  0  0
  -16.5289   13.3781   40.8533 H   0  0  0  0  0  0  0  0  0  0  0  0
  -11.1596   15.8682   44.2465 C   0  0  0  0  0  0  0  0  0  0  0  0
  -11.5939   15.2624   43.0837 C   0  0  0  0  0  0  0  0  0  0  0  0
  -12.9159   14.8250   43.2496 C   0  0  0  0  0  0  0  0  0  0  0  0
  -13.2776   15.1795   44.5300 C   0  0  0  0  0  0  0  0  0  0  0  0
  -12.2243   15.8068   45.1263 N   0  0  0  0  0  0  0  0  0  0  0  0
  -12.2222   16.1622   46.0444 H   0  0  0  0  0  0  0  0  0  0  0  0
   -8.2036   18.3562   44.9445 C   0  0  0  0  0  0  0  0  0  0  0  0
   -9.5666   17.8820   44.6391 N   0  0  0  0  0  0  0  0  0  0  0  0
  -10.6094   18.8991   44.4580 C   0  0  0  0  0  0  0  0  0  0  0  0
   -9.8065   16.5039   44.5369 C   0  0  0  0  0  0  0  0  0  0  0  0
   -8.8609   15.7428   44.6948 O   0  0  0  0  0  0  0  0  0  0  0  0
  -12.0187   12.7669   40.7373 C   0  0  0  0  0  0  0  0  0  0  0  0
  -10.8942   13.6457   40.6595 C   0  0  0  0  0  0  0  0  0  0  0  0
   -9.6284   13.1501   40.2767 C   0  0  0  0  0  0  0  0  0  0  0  0
   -9.4771   11.7773   39.9801 C   0  0  0  0  0  0  0  0  0  0  0  0
  -10.5894   10.8934   40.0549 C   0  0  0  0  0  0  0  0  0  0  0  0
  -11.8440   11.3802   40.4308 C   0  0  0  0  0  0  0  0  0  0  0  0
 13 14  1  0  0  0
 14 16  1  0  0  0
 14 15  1  0  0  0
 16 17  2  0  0  0
 16  7  1  0  0  0
  7 11  1  0  0  0
  7  8  2  0  0  0
  8  9  1  0  0  0
  9 10  2  0  0  0
  9  1  1  0  0  0
 10 11  1  0  0  0
  1  2  2  0  0  0
  1  5  1  0  0  0
  2  3  1  0  0  0
  3  4  1  0  0  0
  4  5  2  0  0  0
  5 18  1  0  0  0
 18 19  1  0  0  0
 18 23  2  0  0  0
 19 20  2  0  0  0
 20 21  1  0  0  0
 21 22  2  0  0  0
 22 23  1  0  0  0
 11 12  1  0  0  0
  3  6  1  0  0  0
M  END
> <minimizedAffinity>
-7.94017

$$$$
2OJG_19A_A_360


 23 25  0  0  0  0  0  0  0  0999 V2000
  -14.9007   13.6809   41.3845 C   0  0  0  0  0  0  0  0  0  0  0  0
  -16.1662   13.2985   41.2763 N   0  0  0  0  0  0  0  0  0  0  0  0
  -16.2193   12.0665   40.6326 N   0  0  0  0  0  0  0  0  0  0  0  0
  -14.9762   11.6768   40.3342 C   0  0  0  0  0  0  0  0  0  0  0  0
  -14.0984   12.6426   40.7741 C   0  0  0  0  0  0  0  0  0  0  0  0
  -17.0404   11.5628   40.4295 H   0  0  0  0  0  0  0  0  0  0  0  0
  -13.5349   16.4827   43.4617 C   0  0  0  0  0  0  0  0  0  0  0  0
  -13.7367   15.1387   43.2157 C   0  0  0  0  0  0  0  0  0  0  0  0
  -14.4670   14.9848   42.0284 C   0  0  0  0  0  0  0  0  0  0  0  0
  -14.7006   16.2570   41.5561 C   0  0  0  0  0  0  0  0  0  0  0  0
  -14.1395   17.1545   42.4154 N   0  0  0  0  0  0  0  0  0  0  0  0
  -14.1616   18.1328   42.3073 H   0  0  0  0  0  0  0  0  0  0  0  0
  -12.2397   18.9222   46.2522 C   0  0  0  0  0  0  0  0  0  0  0  0
  -13.0282   18.4269   45.1080 N   0  0  0  0  0  0  0  0  0  0  0  0
  -14.0336   19.3328   44.5396 C   0  0  0  0  0  0  0  0  0  0  0  0
  -12.7899   17.1339   44.6194 C   0  0  0  0  0  0  0  0  0  0  0  0
  -11.9184   16.4665   45.1610 O   0  0  0  0  0  0  0  0  0  0  0  0
  -12.6024   12.5631   40.6105 C   0  0  0  0  0  0  0  0  0  0  0  0
  -11.9220   11.3447   40.3014 C   0  0  0  0  0  0  0  0  0  0  0  0
  -10.5173   11.3308   40.1562 C   0  0  0  0  0  0  0  0  0  0  0  0
   -9.7882   12.5311   40.3086 C   0  0  0  0  0  0  0  0  0  0  0  0
  -10.4552   13.7496   40.6156 C   0  0  0  0  0  0  0  0  0  0  0  0
  -11.8446   13.7672   40.7625 C   0  0  0  0  0  0  0  0  0  0  0  0
 13 14  1  0  0  0
 14 16  1  0  0  0
 14 15  1  0  0  0
 16 17  2  0  0  0
 16  7  1  0  0  0
  7 11  1  0  0  0
  7  8  2  0  0  0
  8  9  1  0  0  0
  9 10  2  0  0  0
  9  1  1  0  0  0
 10 11  1  0  0  0
  1  2  2  0  0  0
  1  5  1  0  0  0
  2  3  1  0  0  0
  3  4  1  0  0  0
  4  5  2  0  0  0
  5 18  1  0  0  0
 18 19  1  0  0  0
 18 23  2  0  0  0
 19 20  2  0  0  0
 20 21  1  0  0  0
 21 22  2  0  0  0
 22 23  1  0  0  0
 11 12  1  0  0  0
  3  6  1  0  0  0
M  END
> <minimizedAffinity>
-7.81861

$$$$
