5TA4_838_A_201


 43 45  0  0  0  0  0  0  0  0999 V2000
    3.8144   16.9736    2.2083 N   0  0  0  0  0  0  0  0  0  0  0  0
    4.1354   15.6288    1.8813 N   0  0  0  0  0  0  0  0  0  0  0  0
    2.2763   14.9109    3.3708 C   0  0  0  0  0  0  0  0  0  0  0  0
    1.9487   16.3793    3.6393 C   0  0  0  0  0  0  0  0  0  0  0  0
    2.3835   17.2046    2.4341 C   0  0  0  0  0  0  0  0  0  0  0  0
    3.7533   14.7349    2.9941 C   0  0  0  0  0  0  0  0  0  0  0  0
   10.5671   18.7968    0.0697 C   0  0  0  0  0  0  0  0  0  0  0  0
   11.7436   18.0542   -0.5858 C   0  0  0  0  0  0  0  0  0  0  0  0
   12.5489   19.0748   -1.4012 C   0  0  0  0  0  0  0  0  0  0  0  0
   11.3089   16.8025   -1.4028 C   0  0  0  0  0  0  0  0  0  0  0  0
   10.7078   15.5934   -0.6342 C   0  0  0  0  0  0  0  0  0  0  0  0
    9.3745   15.8422    0.1013 C   0  0  0  0  0  0  0  0  0  0  0  0
    3.9704   13.3129    2.5098 C   0  0  0  0  0  0  0  0  0  0  0  0
    5.1276   11.2924    3.1152 C   0  0  0  0  0  0  0  0  0  0  0  0
    6.1127   11.2186    1.9497 C   0  0  0  0  0  0  0  0  0  0  0  0
    6.9604   12.3153    1.6028 C   0  0  0  0  0  0  0  0  0  0  0  0
    7.8797   12.2456    0.5304 C   0  0  0  0  0  0  0  0  0  0  0  0
    7.9625   11.0551   -0.2080 C   0  0  0  0  0  0  0  0  0  0  0  0
    7.1397    9.9737    0.1203 C   0  0  0  0  0  0  0  0  0  0  0  0
    6.2406   10.0542    1.1845 C   0  0  0  0  0  0  0  0  0  0  0  0
    8.7467   13.3875    0.1843 C   0  0  0  0  0  0  0  0  0  0  0  0
    8.4896   14.6764    0.4550 C   0  0  0  0  0  0  0  0  0  0  0  0
    5.6522   10.7572    4.4402 C   0  0  0  0  0  0  0  0  0  0  0  0
   10.5686   19.1140    1.2510 O   0  0  0  0  0  0  0  0  0  0  0  0
    3.5113   12.8430    1.4843 O   0  0  0  0  0  0  0  0  0  0  0  0
    4.7679   12.6676    3.3950 O   0  0  0  0  0  0  0  0  0  0  0  0
    9.5042   19.0412   -0.7773 N   0  0  0  0  0  0  0  0  0  0  0  0
    8.2720   19.7065   -0.3663 C   0  0  0  0  0  0  0  0  0  0  0  0
    7.2968   18.6221    0.0521 C   0  0  0  0  0  0  0  0  0  0  0  0
    6.7411   17.8939   -0.7670 O   0  0  0  0  0  0  0  0  0  0  0  0
    7.0984   18.4551    1.3931 N   0  0  0  0  0  0  0  0  0  0  0  0
    6.2634   17.4252    1.9998 C   0  0  0  0  0  0  0  0  0  0  0  0
    4.8383   17.8855    2.2625 C   0  0  0  0  0  0  0  0  0  0  0  0
    4.6172   19.0682    2.5568 O   0  0  0  0  0  0  0  0  0  0  0  0
    6.9084   16.8853    3.2644 C   0  0  0  0  0  0  0  0  0  0  0  0
    5.1388   15.5516    1.7149 H   0  0  0  0  0  0  0  0  0  0  0  0
    9.5824   18.7493   -1.7143 H   0  0  0  0  0  0  0  0  0  0  0  0
    7.5565   19.0810    1.9994 H   0  0  0  0  0  0  0  0  0  0  0  0
    7.7036   20.7075   -1.3808 C   0  0  0  0  0  0  0  0  0  0  0  0
    6.6843   21.6378   -0.7143 C   0  0  0  0  0  0  0  0  0  0  0  0
    8.8088   21.5455   -2.0283 C   0  0  0  0  0  0  0  0  0  0  0  0
   10.8984   16.6610   -3.8032 C   0  0  0  0  0  0  0  0  0  0  0  0
   10.5335   17.2072   -2.5442 O   0  0  0  0  0  0  0  0  0  0  0  0
 42 43  1  0  0  0
 43 10  1  0  0  0
 41 39  1  0  0  0
 39 40  1  0  0  0
 39 28  1  0  0  0
 10 11  1  0  0  0
 10  8  1  0  0  0
  9  8  1  0  0  0
 30 29  2  0  0  0
 27 28  1  0  0  0
 27  7  1  0  0  0
 11 12  1  0  0  0
 18 19  2  0  0  0
 18 17  1  0  0  0
  8  7  1  0  0  0
 28 29  1  0  0  0
 19 20  1  0  0  0
 29 31  1  0  0  0
 21 17  1  0  0  0
 21 22  2  0  0  0
 12 22  1  0  0  0
  7 24  2  0  0  0
 17 16  2  0  0  0
 20 15  2  0  0  0
 25 13  2  0  0  0
 31 32  1  0  0  0
 16 15  1  0  0  0
  2  1  1  0  0  0
  2  6  1  0  0  0
 15 14  1  0  0  0
 32 33  1  0  0  0
 32 35  1  0  0  0
  1 33  1  0  0  0
  1  5  1  0  0  0
 33 34  2  0  0  0
  5  4  1  0  0  0
 13  6  1  0  0  0
 13 26  1  0  0  0
  6  3  1  0  0  0
 14 26  1  0  0  0
 14 23  1  0  0  0
  3  4  1  0  0  0
  2 36  1  0  0  0
 27 37  1  0  0  0
 31 38  1  0  0  0
M  END
> <minimizedAffinity>
-10.16143

$$$$
