2CBU_CTS_A_1447


 17 18  0  0  0  0  0  0  0  0999 V2000
   -0.3120   10.6726   10.6946 C   0  0  0  0  0  0  0  0  0  0  0  0
    0.4653   11.5738    9.7423 C   0  0  0  0  0  0  0  0  0  0  0  0
   -0.2248   11.8624    8.4117 C   0  0  0  0  0  0  0  0  0  0  0  0
   -1.0552   10.6556    7.9947 C   0  0  0  0  0  0  0  0  0  0  0  0
   -2.2414   10.5673    8.9567 C   0  0  0  0  0  0  0  0  0  0  0  0
   -3.0113    9.2645    8.8802 C   0  0  0  0  0  0  0  0  0  0  0  0
    0.7070   12.8005   10.4150 O   0  0  0  0  0  0  0  0  0  0  0  0
    0.8150   12.2270    7.4976 O   0  0  0  0  0  0  0  0  0  0  0  0
   -1.5734   10.8440    6.6796 O   0  0  0  0  0  0  0  0  0  0  0  0
   -2.1512    8.1059    8.8698 O   0  0  0  0  0  0  0  0  0  0  0  0
   -1.6995   10.4107   10.3200 N   0  0  0  0  0  0  0  0  0  0  0  0
   -3.6730    9.2178   10.2506 C   0  0  0  0  0  0  0  0  0  0  0  0
   -2.5939    9.6664   11.2091 C   0  0  0  0  0  0  0  0  0  0  0  0
   -0.1388   13.2280   10.6217 H   0  0  0  0  0  0  0  0  0  0  0  0
    1.4637   11.5079    7.4423 H   0  0  0  0  0  0  0  0  0  0  0  0
   -2.1217   11.6439    6.6597 H   0  0  0  0  0  0  0  0  0  0  0  0
   -1.5844    8.1170    9.6569 H   0  0  0  0  0  0  0  0  0  0  0  0
  1  2  1  0  0  0
  1 11  1  0  0  0
  2  3  1  0  0  0
  2  7  1  0  0  0
  3  4  1  0  0  0
  3  8  1  0  0  0
  4  5  1  0  0  0
  4  9  1  0  0  0
  5  6  1  0  0  0
  5 11  1  0  0  0
  6 10  1  0  0  0
  6 12  1  0  0  0
 11 13  1  0  0  0
 12 13  1  0  0  0
  7 14  1  0  0  0
  8 15  1  0  0  0
  9 16  1  0  0  0
 10 17  1  0  0  0
M  END
> <minimizedAffinity>
-8.38454

$$$$
2CBU_CTS_A_1447


 17 18  0  0  0  0  0  0  0  0999 V2000
   -2.7855    8.6879    9.4544 C   0  0  0  0  0  0  0  0  0  0  0  0
   -2.7733   10.1200    8.9329 C   0  0  0  0  0  0  0  0  0  0  0  0
   -1.3996   10.7842    8.8893 C   0  0  0  0  0  0  0  0  0  0  0  0
   -0.5429   10.2613   10.0350 C   0  0  0  0  0  0  0  0  0  0  0  0
   -0.2026    8.8040    9.7179 C   0  0  0  0  0  0  0  0  0  0  0  0
    0.3930    8.0351   10.8799 C   0  0  0  0  0  0  0  0  0  0  0  0
   -3.3221   10.1036    7.6236 O   0  0  0  0  0  0  0  0  0  0  0  0
   -1.6416   12.1952    8.9092 O   0  0  0  0  0  0  0  0  0  0  0  0
    0.6813   10.9890   10.1075 O   0  0  0  0  0  0  0  0  0  0  0  0
   -0.3300    8.2350   12.1126 O   0  0  0  0  0  0  0  0  0  0  0  0
   -1.4738    8.0632    9.6064 N   0  0  0  0  0  0  0  0  0  0  0  0
    0.0711    6.5979   10.4947 C   0  0  0  0  0  0  0  0  0  0  0  0
   -1.3479    6.6520    9.9769 C   0  0  0  0  0  0  0  0  0  0  0  0
   -2.7635    9.5608    7.0456 H   0  0  0  0  0  0  0  0  0  0  0  0
   -2.1509   12.4247    9.7022 H   0  0  0  0  0  0  0  0  0  0  0  0
    1.1612   10.8987    9.2694 H   0  0  0  0  0  0  0  0  0  0  0  0
   -1.2594    7.9881   11.9860 H   0  0  0  0  0  0  0  0  0  0  0  0
  1  2  1  0  0  0
  1 11  1  0  0  0
  2  3  1  0  0  0
  2  7  1  0  0  0
  3  4  1  0  0  0
  3  8  1  0  0  0
  4  5  1  0  0  0
  4  9  1  0  0  0
  5  6  1  0  0  0
  5 11  1  0  0  0
  6 10  1  0  0  0
  6 12  1  0  0  0
 11 13  1  0  0  0
 12 13  1  0  0  0
  7 14  1  0  0  0
  8 15  1  0  0  0
  9 16  1  0  0  0
 10 17  1  0  0  0
M  END
> <minimizedAffinity>
-6.70360

$$$$
2CBU_CTS_A_1447


 17 18  0  0  0  0  0  0  0  0999 V2000
   -1.9001   10.2930   11.1351 C   0  0  0  0  0  0  0  0  0  0  0  0
   -1.7857   10.5738    9.6414 C   0  0  0  0  0  0  0  0  0  0  0  0
   -1.4478    9.3624    8.7762 C   0  0  0  0  0  0  0  0  0  0  0  0
   -0.5556    8.4083    9.5596 C   0  0  0  0  0  0  0  0  0  0  0  0
   -1.4155    7.7843   10.6602 C   0  0  0  0  0  0  0  0  0  0  0  0
   -0.6293    7.0362   11.7177 C   0  0  0  0  0  0  0  0  0  0  0  0
   -3.0242   11.1191    9.2121 O   0  0  0  0  0  0  0  0  0  0  0  0
   -0.8695    9.8834    7.5746 O   0  0  0  0  0  0  0  0  0  0  0  0
   -0.0976    7.3551    8.7143 O   0  0  0  0  0  0  0  0  0  0  0  0
    0.5177    7.7742   12.1890 O   0  0  0  0  0  0  0  0  0  0  0  0
   -1.9179    8.8811   11.5096 N   0  0  0  0  0  0  0  0  0  0  0  0
   -1.5935    7.0654   12.8955 C   0  0  0  0  0  0  0  0  0  0  0  0
   -2.1504    8.4705   12.8959 C   0  0  0  0  0  0  0  0  0  0  0  0
   -3.7295   10.4675    9.3496 H   0  0  0  0  0  0  0  0  0  0  0  0
   -0.0936   10.4217    7.7962 H   0  0  0  0  0  0  0  0  0  0  0  0
   -0.8595    6.8739    8.3555 H   0  0  0  0  0  0  0  0  0  0  0  0
    0.2302    8.6359   12.5291 H   0  0  0  0  0  0  0  0  0  0  0  0
  1  2  1  0  0  0
  1 11  1  0  0  0
  2  3  1  0  0  0
  2  7  1  0  0  0
  3  4  1  0  0  0
  3  8  1  0  0  0
  4  5  1  0  0  0
  4  9  1  0  0  0
  5  6  1  0  0  0
  5 11  1  0  0  0
  6 10  1  0  0  0
  6 12  1  0  0  0
 11 13  1  0  0  0
 12 13  1  0  0  0
  7 14  1  0  0  0
  8 15  1  0  0  0
  9 16  1  0  0  0
 10 17  1  0  0  0
M  END
> <minimizedAffinity>
-6.68617

$$$$
2CBU_CTS_A_1447


 17 18  0  0  0  0  0  0  0  0999 V2000
   -1.6080    9.7506   11.8128 C   0  0  0  0  0  0  0  0  0  0  0  0
   -1.4845    8.3499   12.4010 C   0  0  0  0  0  0  0  0  0  0  0  0
   -0.8081    7.3226   11.4970 C   0  0  0  0  0  0  0  0  0  0  0  0
   -1.1244    7.6369   10.0406 C   0  0  0  0  0  0  0  0  0  0  0  0
   -0.3748    8.9209    9.6808 C   0  0  0  0  0  0  0  0  0  0  0  0
   -0.8011    9.5454    8.3677 C   0  0  0  0  0  0  0  0  0  0  0  0
   -0.7505    8.4570   13.6115 O   0  0  0  0  0  0  0  0  0  0  0  0
   -1.2557    6.0407   11.9510 O   0  0  0  0  0  0  0  0  0  0  0  0
   -0.6386    6.5967    9.1948 O   0  0  0  0  0  0  0  0  0  0  0  0
   -2.2349    9.6190    8.2225 O   0  0  0  0  0  0  0  0  0  0  0  0
   -0.8535    9.9849   10.5839 N   0  0  0  0  0  0  0  0  0  0  0  0
   -0.3775   10.9944    8.5648 C   0  0  0  0  0  0  0  0  0  0  0  0
   -0.7826   11.3191    9.9843 C   0  0  0  0  0  0  0  0  0  0  0  0
    0.1403    8.7904   13.4212 H   0  0  0  0  0  0  0  0  0  0  0  0
   -2.2242    6.0038   11.9116 H   0  0  0  0  0  0  0  0  0  0  0  0
    0.3201    6.5063    9.3115 H   0  0  0  0  0  0  0  0  0  0  0  0
   -2.6105   10.1125    8.9682 H   0  0  0  0  0  0  0  0  0  0  0  0
  1  2  1  0  0  0
  1 11  1  0  0  0
  2  3  1  0  0  0
  2  7  1  0  0  0
  3  4  1  0  0  0
  3  8  1  0  0  0
  4  5  1  0  0  0
  4  9  1  0  0  0
  5  6  1  0  0  0
  5 11  1  0  0  0
  6 10  1  0  0  0
  6 12  1  0  0  0
 11 13  1  0  0  0
 12 13  1  0  0  0
  7 14  1  0  0  0
  8 15  1  0  0  0
  9 16  1  0  0  0
 10 17  1  0  0  0
M  END
> <minimizedAffinity>
-6.01943

$$$$
2CBU_CTS_A_1447


 17 18  0  0  0  0  0  0  0  0999 V2000
    0.4351    9.6761   10.2214 C   0  0  0  0  0  0  0  0  0  0  0  0
   -0.5970   10.7389    9.8632 C   0  0  0  0  0  0  0  0  0  0  0  0
   -2.0379   10.2424    9.7758 C   0  0  0  0  0  0  0  0  0  0  0  0
   -2.0528    8.8031    9.2779 C   0  0  0  0  0  0  0  0  0  0  0  0
   -1.4821    7.9303   10.3971 C   0  0  0  0  0  0  0  0  0  0  0  0
   -1.1469    6.5142    9.9748 C   0  0  0  0  0  0  0  0  0  0  0  0
   -0.5175   11.7612   10.8452 O   0  0  0  0  0  0  0  0  0  0  0  0
   -2.7291   11.1789    8.9422 O   0  0  0  0  0  0  0  0  0  0  0  0
   -3.3924    8.3793    9.0345 O   0  0  0  0  0  0  0  0  0  0  0  0
   -0.4180    6.4588    8.7307 O   0  0  0  0  0  0  0  0  0  0  0  0
   -0.1096    8.3974   10.6712 N   0  0  0  0  0  0  0  0  0  0  0  0
   -0.1157    6.1172   11.0221 C   0  0  0  0  0  0  0  0  0  0  0  0
    0.7683    7.3348   11.1657 C   0  0  0  0  0  0  0  0  0  0  0  0
   -0.7433   11.3933   11.7138 H   0  0  0  0  0  0  0  0  0  0  0  0
   -2.2901   11.2284    8.0786 H   0  0  0  0  0  0  0  0  0  0  0  0
   -3.9077    8.4499    9.8533 H   0  0  0  0  0  0  0  0  0  0  0  0
    0.3910    6.9886    8.8061 H   0  0  0  0  0  0  0  0  0  0  0  0
  1  2  1  0  0  0
  1 11  1  0  0  0
  2  3  1  0  0  0
  2  7  1  0  0  0
  3  4  1  0  0  0
  3  8  1  0  0  0
  4  5  1  0  0  0
  4  9  1  0  0  0
  5  6  1  0  0  0
  5 11  1  0  0  0
  6 10  1  0  0  0
  6 12  1  0  0  0
 11 13  1  0  0  0
 12 13  1  0  0  0
  7 14  1  0  0  0
  8 15  1  0  0  0
  9 16  1  0  0  0
 10 17  1  0  0  0
M  END
> <minimizedAffinity>
-5.96474

$$$$
2CBU_CTS_A_1447


 17 18  0  0  0  0  0  0  0  0999 V2000
    0.2046    8.0535    9.1849 C   0  0  0  0  0  0  0  0  0  0  0  0
    0.3211    6.7842   10.0207 C   0  0  0  0  0  0  0  0  0  0  0  0
   -0.8173    6.5507   11.0105 C   0  0  0  0  0  0  0  0  0  0  0  0
   -1.3352    7.8901   11.5183 C   0  0  0  0  0  0  0  0  0  0  0  0
   -2.0593    8.5672   10.3533 C   0  0  0  0  0  0  0  0  0  0  0  0
   -2.3834   10.0292   10.5850 C   0  0  0  0  0  0  0  0  0  0  0  0
    0.3884    5.6856    9.1239 O   0  0  0  0  0  0  0  0  0  0  0  0
   -0.2917    5.6824   12.0202 O   0  0  0  0  0  0  0  0  0  0  0  0
   -2.2843    7.6878   12.5632 O   0  0  0  0  0  0  0  0  0  0  0  0
   -1.2677   10.7718   11.1198 O   0  0  0  0  0  0  0  0  0  0  0  0
   -1.0828    8.7398    9.2608 N   0  0  0  0  0  0  0  0  0  0  0  0
   -2.5168   10.5441    9.1585 C   0  0  0  0  0  0  0  0  0  0  0  0
   -1.3720    9.8980    8.4126 C   0  0  0  0  0  0  0  0  0  0  0  0
   -0.4311    5.6395    8.6070 H   0  0  0  0  0  0  0  0  0  0  0  0
    0.4878    6.0930   12.4260 H   0  0  0  0  0  0  0  0  0  0  0  0
   -3.0226    7.1539   12.2305 H   0  0  0  0  0  0  0  0  0  0  0  0
   -0.5067   10.6853   10.5246 H   0  0  0  0  0  0  0  0  0  0  0  0
  1  2  1  0  0  0
  1 11  1  0  0  0
  2  3  1  0  0  0
  2  7  1  0  0  0
  3  4  1  0  0  0
  3  8  1  0  0  0
  4  5  1  0  0  0
  4  9  1  0  0  0
  5  6  1  0  0  0
  5 11  1  0  0  0
  6 10  1  0  0  0
  6 12  1  0  0  0
 11 13  1  0  0  0
 12 13  1  0  0  0
  7 14  1  0  0  0
  8 15  1  0  0  0
  9 16  1  0  0  0
 10 17  1  0  0  0
M  END
> <minimizedAffinity>
-5.89606

$$$$
2CBU_CTS_A_1447


 17 18  0  0  0  0  0  0  0  0999 V2000
   -1.7134    7.0139    9.6656 C   0  0  0  0  0  0  0  0  0  0  0  0
   -0.5314    6.8890   10.6198 C   0  0  0  0  0  0  0  0  0  0  0  0
   -0.0289    8.2050   11.2079 C   0  0  0  0  0  0  0  0  0  0  0  0
   -0.2218    9.3245   10.1934 C   0  0  0  0  0  0  0  0  0  0  0  0
   -1.7259    9.5795   10.0803 C   0  0  0  0  0  0  0  0  0  0  0  0
   -2.1246   10.4515    8.9070 C   0  0  0  0  0  0  0  0  0  0  0  0
   -0.9246    6.0283   11.6782 O   0  0  0  0  0  0  0  0  0  0  0  0
    1.3279    7.9704   11.6002 O   0  0  0  0  0  0  0  0  0  0  0  0
    0.3900   10.5247   10.6610 O   0  0  0  0  0  0  0  0  0  0  0  0
   -1.4812   10.0614    7.6757 O   0  0  0  0  0  0  0  0  0  0  0  0
   -2.3588    8.3241    9.6328 N   0  0  0  0  0  0  0  0  0  0  0  0
   -3.5787   10.0484    8.7047 C   0  0  0  0  0  0  0  0  0  0  0  0
   -3.5808    8.5445    8.8565 C   0  0  0  0  0  0  0  0  0  0  0  0
   -1.6675    6.4254   12.1590 H   0  0  0  0  0  0  0  0  0  0  0  0
    1.8406    7.6763   10.8311 H   0  0  0  0  0  0  0  0  0  0  0  0
   -0.0036   10.7786   11.5104 H   0  0  0  0  0  0  0  0  0  0  0  0
   -1.6804    9.1310    7.4874 H   0  0  0  0  0  0  0  0  0  0  0  0
  1  2  1  0  0  0
  1 11  1  0  0  0
  2  3  1  0  0  0
  2  7  1  0  0  0
  3  4  1  0  0  0
  3  8  1  0  0  0
  4  5  1  0  0  0
  4  9  1  0  0  0
  5  6  1  0  0  0
  5 11  1  0  0  0
  6 10  1  0  0  0
  6 12  1  0  0  0
 11 13  1  0  0  0
 12 13  1  0  0  0
  7 14  1  0  0  0
  8 15  1  0  0  0
  9 16  1  0  0  0
 10 17  1  0  0  0
M  END
> <minimizedAffinity>
-5.78855

$$$$
2CBU_CTS_A_1447


 17 18  0  0  0  0  0  0  0  0999 V2000
   -0.1251    7.9946    9.3269 C   0  0  0  0  0  0  0  0  0  0  0  0
   -0.8686    9.3247    9.2906 C   0  0  0  0  0  0  0  0  0  0  0  0
   -1.2160    9.9126   10.6558 C   0  0  0  0  0  0  0  0  0  0  0  0
   -1.4843    8.7852   11.6442 C   0  0  0  0  0  0  0  0  0  0  0  0
   -0.1457    8.0993   11.9236 C   0  0  0  0  0  0  0  0  0  0  0  0
   -0.2627    6.7758   12.6521 C   0  0  0  0  0  0  0  0  0  0  0  0
   -0.0583   10.2490    8.5803 O   0  0  0  0  0  0  0  0  0  0  0  0
   -2.3179   10.7999   10.4356 O   0  0  0  0  0  0  0  0  0  0  0  0
   -1.9687    9.3144   12.8765 O   0  0  0  0  0  0  0  0  0  0  0  0
   -1.2793    5.9175   12.0935 O   0  0  0  0  0  0  0  0  0  0  0  0
    0.3695    7.5867   10.6396 N   0  0  0  0  0  0  0  0  0  0  0  0
    1.0438    6.0962   12.2663 C   0  0  0  0  0  0  0  0  0  0  0  0
    1.2078    6.3960   10.7939 C   0  0  0  0  0  0  0  0  0  0  0  0
    0.7781   10.3769    9.0546 H   0  0  0  0  0  0  0  0  0  0  0  0
   -3.0522   10.3099   10.0338 H   0  0  0  0  0  0  0  0  0  0  0  0
   -1.3130    9.9267   13.2454 H   0  0  0  0  0  0  0  0  0  0  0  0
   -1.0961    5.7694   11.1525 H   0  0  0  0  0  0  0  0  0  0  0  0
  1  2  1  0  0  0
  1 11  1  0  0  0
  2  3  1  0  0  0
  2  7  1  0  0  0
  3  4  1  0  0  0
  3  8  1  0  0  0
  4  5  1  0  0  0
  4  9  1  0  0  0
  5  6  1  0  0  0
  5 11  1  0  0  0
  6 10  1  0  0  0
  6 12  1  0  0  0
 11 13  1  0  0  0
 12 13  1  0  0  0
  7 14  1  0  0  0
  8 15  1  0  0  0
  9 16  1  0  0  0
 10 17  1  0  0  0
M  END
> <minimizedAffinity>
-5.77635

$$$$
2CBU_CTS_A_1447


 17 18  0  0  0  0  0  0  0  0999 V2000
   -0.0384    9.2215    9.0117 C   0  0  0  0  0  0  0  0  0  0  0  0
   -0.6028   10.2442    9.9907 C   0  0  0  0  0  0  0  0  0  0  0  0
   -1.1192    9.6683   11.3067 C   0  0  0  0  0  0  0  0  0  0  0  0
   -1.6906    8.2771   11.0660 C   0  0  0  0  0  0  0  0  0  0  0  0
   -0.5136    7.3515   10.7528 C   0  0  0  0  0  0  0  0  0  0  0  0
   -0.9134    5.9989   10.1992 C   0  0  0  0  0  0  0  0  0  0  0  0
    0.4243   11.1845   10.2674 O   0  0  0  0  0  0  0  0  0  0  0  0
   -2.0522   10.6260   11.8186 O   0  0  0  0  0  0  0  0  0  0  0  0
   -2.3238    7.7926   12.2483 O   0  0  0  0  0  0  0  0  0  0  0  0
   -1.9060    6.0923    9.1561 O   0  0  0  0  0  0  0  0  0  0  0  0
    0.1609    7.8786    9.5511 N   0  0  0  0  0  0  0  0  0  0  0  0
    0.3528    5.5811    9.4645 C   0  0  0  0  0  0  0  0  0  0  0  0
    0.8129    6.8351    8.7571 C   0  0  0  0  0  0  0  0  0  0  0  0
    1.1709   10.7325   10.6908 H   0  0  0  0  0  0  0  0  0  0  0  0
   -2.7544   10.7741   11.1660 H   0  0  0  0  0  0  0  0  0  0  0  0
   -1.6783    7.7629   12.9718 H   0  0  0  0  0  0  0  0  0  0  0  0
   -1.5751    6.6632    8.4451 H   0  0  0  0  0  0  0  0  0  0  0  0
  1  2  1  0  0  0
  1 11  1  0  0  0
  2  3  1  0  0  0
  2  7  1  0  0  0
  3  4  1  0  0  0
  3  8  1  0  0  0
  4  5  1  0  0  0
  4  9  1  0  0  0
  5  6  1  0  0  0
  5 11  1  0  0  0
  6 10  1  0  0  0
  6 12  1  0  0  0
 11 13  1  0  0  0
 12 13  1  0  0  0
  7 14  1  0  0  0
  8 15  1  0  0  0
  9 16  1  0  0  0
 10 17  1  0  0  0
M  END
> <minimizedAffinity>
-5.69662

$$$$
2CBU_CTS_A_1447


 17 18  0  0  0  0  0  0  0  0999 V2000
   -2.3154    9.0125   12.0439 C   0  0  0  0  0  0  0  0  0  0  0  0
   -1.9350    8.4374   13.4033 C   0  0  0  0  0  0  0  0  0  0  0  0
   -0.5674    7.7621   13.4638 C   0  0  0  0  0  0  0  0  0  0  0  0
   -0.2576    7.1145   12.1205 C   0  0  0  0  0  0  0  0  0  0  0  0
   -0.0114    8.2442   11.1188 C   0  0  0  0  0  0  0  0  0  0  0  0
    0.0205    7.7985    9.6709 C   0  0  0  0  0  0  0  0  0  0  0  0
   -1.9689    9.5012   14.3429 O   0  0  0  0  0  0  0  0  0  0  0  0
   -0.6210    6.8589   14.5734 O   0  0  0  0  0  0  0  0  0  0  0  0
    0.9378    6.3422   12.2091 O   0  0  0  0  0  0  0  0  0  0  0  0
   -1.0692    6.9150    9.3331 O   0  0  0  0  0  0  0  0  0  0  0  0
   -1.2376    9.0626   11.0589 N   0  0  0  0  0  0  0  0  0  0  0  0
   -0.3174    9.0926    8.9436 C   0  0  0  0  0  0  0  0  0  0  0  0
   -1.4330    9.7062    9.7581 C   0  0  0  0  0  0  0  0  0  0  0  0
   -1.3114   10.1707   14.0971 H   0  0  0  0  0  0  0  0  0  0  0  0
   -1.3501    6.2321   14.4452 H   0  0  0  0  0  0  0  0  0  0  0  0
    1.6737    6.9149   12.4762 H   0  0  0  0  0  0  0  0  0  0  0  0
   -1.9125    7.3505    9.5333 H   0  0  0  0  0  0  0  0  0  0  0  0
  1  2  1  0  0  0
  1 11  1  0  0  0
  2  3  1  0  0  0
  2  7  1  0  0  0
  3  4  1  0  0  0
  3  8  1  0  0  0
  4  5  1  0  0  0
  4  9  1  0  0  0
  5  6  1  0  0  0
  5 11  1  0  0  0
  6 10  1  0  0  0
  6 12  1  0  0  0
 11 13  1  0  0  0
 12 13  1  0  0  0
  7 14  1  0  0  0
  8 15  1  0  0  0
  9 16  1  0  0  0
 10 17  1  0  0  0
M  END
> <minimizedAffinity>
-5.68137

$$$$
