4Q90_4H2_A_302


  9  9  0  0  0  0  0  0  0  0999 V2000
   18.0433   -2.4357   11.4956 C   0  0  0  0  0  0  0  0  0  0  0  0
   17.9559   -0.9336   11.7422 C   0  0  0  0  0  0  0  0  0  0  0  0
   18.9032   -0.0539   11.1351 C   0  0  0  0  0  0  0  0  0  0  0  0
   18.8371    1.2732   11.3692 C   0  0  0  0  0  0  0  0  0  0  0  0
   20.0240    2.3668   10.6279 S   0  0  0  0  0  0  0  0  0  0  0  0
   17.8400    1.7864   12.2052 N   0  0  0  0  0  0  0  0  0  0  0  0
   16.8997    0.9442   12.7492 C   0  0  0  0  0  0  0  0  0  0  0  0
   16.9749   -0.4337   12.5151 C   0  0  0  0  0  0  0  0  0  0  0  0
   17.8117    2.7502   12.4039 H   0  0  0  0  0  0  0  0  0  0  0  0
  7  8  2  0  0  0
  7  6  1  0  0  0
  8  2  1  0  0  0
  6  4  1  0  0  0
  2  1  1  0  0  0
  2  3  2  0  0  0
  4  3  1  0  0  0
  4  5  2  0  0  0
  6  9  1  0  0  0
M  END
> <minimizedAffinity>
-4.42087

$$$$
4Q90_4H2_A_302


  9  9  0  0  0  0  0  0  0  0999 V2000
   14.6946    5.3477   14.5520 C   0  0  0  0  0  0  0  0  0  0  0  0
   15.3721    4.1023   15.1130 C   0  0  0  0  0  0  0  0  0  0  0  0
   14.6178    3.1638   15.8812 C   0  0  0  0  0  0  0  0  0  0  0  0
   15.2223    2.0717   16.3937 C   0  0  0  0  0  0  0  0  0  0  0  0
   14.2894    0.9119   17.3624 S   0  0  0  0  0  0  0  0  0  0  0  0
   16.5868    1.8593   16.1712 N   0  0  0  0  0  0  0  0  0  0  0  0
   17.3000    2.7379   15.3909 C   0  0  0  0  0  0  0  0  0  0  0  0
   16.6754    3.8763   14.8684 C   0  0  0  0  0  0  0  0  0  0  0  0
   17.0360    1.0810   16.5733 H   0  0  0  0  0  0  0  0  0  0  0  0
  7  8  2  0  0  0
  7  6  1  0  0  0
  8  2  1  0  0  0
  6  4  1  0  0  0
  2  1  1  0  0  0
  2  3  2  0  0  0
  4  3  1  0  0  0
  4  5  2  0  0  0
  6  9  1  0  0  0
M  END
> <minimizedAffinity>
-4.39577

$$$$
4Q90_4H2_A_302


  9  9  0  0  0  0  0  0  0  0999 V2000
   13.8443    0.9235   17.4293 C   0  0  0  0  0  0  0  0  0  0  0  0
   14.8712    1.7285   16.6404 C   0  0  0  0  0  0  0  0  0  0  0  0
   14.4975    2.9695   16.0404 C   0  0  0  0  0  0  0  0  0  0  0  0
   15.4014    3.6720   15.3261 C   0  0  0  0  0  0  0  0  0  0  0  0
   14.9341    5.2075   14.5660 S   0  0  0  0  0  0  0  0  0  0  0  0
   16.7037    3.1846   15.1750 N   0  0  0  0  0  0  0  0  0  0  0  0
   17.0750    2.0147   15.7938 C   0  0  0  0  0  0  0  0  0  0  0  0
   16.1344    1.2807   16.5257 C   0  0  0  0  0  0  0  0  0  0  0  0
   17.3540    3.6792   14.6257 H   0  0  0  0  0  0  0  0  0  0  0  0
  7  8  2  0  0  0
  7  6  1  0  0  0
  8  2  1  0  0  0
  6  4  1  0  0  0
  2  1  1  0  0  0
  2  3  2  0  0  0
  4  3  1  0  0  0
  4  5  2  0  0  0
  6  9  1  0  0  0
M  END
> <minimizedAffinity>
-4.36850

$$$$
4Q90_4H2_A_302


  9  9  0  0  0  0  0  0  0  0999 V2000
   14.1528    2.8821   17.2771 C   0  0  0  0  0  0  0  0  0  0  0  0
   15.1242    2.1911   16.3265 C   0  0  0  0  0  0  0  0  0  0  0  0
   15.5100    2.8316   15.1097 C   0  0  0  0  0  0  0  0  0  0  0  0
   16.3545    2.2112   14.2598 C   0  0  0  0  0  0  0  0  0  0  0  0
   16.8229    2.9994   12.7388 S   0  0  0  0  0  0  0  0  0  0  0  0
   16.8524    0.9419   14.5718 N   0  0  0  0  0  0  0  0  0  0  0  0
   16.5187    0.3481   15.7658 C   0  0  0  0  0  0  0  0  0  0  0  0
   15.6340    0.9870   16.6424 C   0  0  0  0  0  0  0  0  0  0  0  0
   17.4414    0.4740   13.9367 H   0  0  0  0  0  0  0  0  0  0  0  0
  7  8  2  0  0  0
  7  6  1  0  0  0
  8  2  1  0  0  0
  6  4  1  0  0  0
  2  1  1  0  0  0
  2  3  2  0  0  0
  4  3  1  0  0  0
  4  5  2  0  0  0
  6  9  1  0  0  0
M  END
> <minimizedAffinity>
-4.22872

$$$$
4Q90_4H2_A_302


  9  9  0  0  0  0  0  0  0  0999 V2000
   15.0372    4.4757   15.0543 C   0  0  0  0  0  0  0  0  0  0  0  0
   15.6544    3.0890   14.9093 C   0  0  0  0  0  0  0  0  0  0  0  0
   16.0287    2.6055   13.6186 C   0  0  0  0  0  0  0  0  0  0  0  0
   16.5569    1.3707   13.4886 C   0  0  0  0  0  0  0  0  0  0  0  0
   17.0082    0.7616   11.8826 S   0  0  0  0  0  0  0  0  0  0  0  0
   16.7385    0.5659   14.6181 N   0  0  0  0  0  0  0  0  0  0  0  0
   16.4232    1.0515   15.8649 C   0  0  0  0  0  0  0  0  0  0  0  0
   15.8652    2.3282   15.9984 C   0  0  0  0  0  0  0  0  0  0  0  0
   17.0918   -0.3477   14.5203 H   0  0  0  0  0  0  0  0  0  0  0  0
  7  8  2  0  0  0
  7  6  1  0  0  0
  8  2  1  0  0  0
  6  4  1  0  0  0
  2  1  1  0  0  0
  2  3  2  0  0  0
  4  3  1  0  0  0
  4  5  2  0  0  0
  6  9  1  0  0  0
M  END
> <minimizedAffinity>
-4.13278

$$$$
4Q90_4H2_A_302


  9  9  0  0  0  0  0  0  0  0999 V2000
   17.7880   -2.0290   11.5592 C   0  0  0  0  0  0  0  0  0  0  0  0
   18.0206   -0.5305   11.7179 C   0  0  0  0  0  0  0  0  0  0  0  0
   17.1032    0.2581   12.4770 C   0  0  0  0  0  0  0  0  0  0  0  0
   17.2990    1.5874   12.6009 C   0  0  0  0  0  0  0  0  0  0  0  0
   16.1505    2.5721   13.5311 S   0  0  0  0  0  0  0  0  0  0  0  0
   18.4010    2.1915   11.9868 N   0  0  0  0  0  0  0  0  0  0  0  0
   19.3094    1.4236   11.2978 C   0  0  0  0  0  0  0  0  0  0  0  0
   19.1003    0.0464   11.1602 C   0  0  0  0  0  0  0  0  0  0  0  0
   18.5259    3.1661   12.0480 H   0  0  0  0  0  0  0  0  0  0  0  0
  7  8  2  0  0  0
  7  6  1  0  0  0
  8  2  1  0  0  0
  6  4  1  0  0  0
  2  1  1  0  0  0
  2  3  2  0  0  0
  4  3  1  0  0  0
  4  5  2  0  0  0
  6  9  1  0  0  0
M  END
> <minimizedAffinity>
-4.03115

$$$$
4Q90_4H2_A_302


  9  9  0  0  0  0  0  0  0  0999 V2000
   15.0605    0.2677   17.6574 C   0  0  0  0  0  0  0  0  0  0  0  0
   15.0982    1.5344   16.8096 C   0  0  0  0  0  0  0  0  0  0  0  0
   15.9630    1.6090   15.6754 C   0  0  0  0  0  0  0  0  0  0  0  0
   16.0102    2.7372   14.9369 C   0  0  0  0  0  0  0  0  0  0  0  0
   17.0967    2.8374   13.5356 S   0  0  0  0  0  0  0  0  0  0  0  0
   15.2113    3.8322   15.2821 N   0  0  0  0  0  0  0  0  0  0  0  0
   14.3438    3.7413   16.3445 C   0  0  0  0  0  0  0  0  0  0  0  0
   14.3029    2.5748   17.1170 C   0  0  0  0  0  0  0  0  0  0  0  0
   15.2703    4.6676   14.7644 H   0  0  0  0  0  0  0  0  0  0  0  0
  7  8  2  0  0  0
  7  6  1  0  0  0
  8  2  1  0  0  0
  6  4  1  0  0  0
  2  1  1  0  0  0
  2  3  2  0  0  0
  4  3  1  0  0  0
  4  5  2  0  0  0
  6  9  1  0  0  0
M  END
> <minimizedAffinity>
-4.01354

$$$$
4Q90_4H2_A_302


  9  9  0  0  0  0  0  0  0  0999 V2000
   18.4650    3.8703   14.3214 C   0  0  0  0  0  0  0  0  0  0  0  0
   17.0863    3.6470   14.9331 C   0  0  0  0  0  0  0  0  0  0  0  0
   16.8142    2.4496   15.6625 C   0  0  0  0  0  0  0  0  0  0  0  0
   15.5883    2.2438   16.1871 C   0  0  0  0  0  0  0  0  0  0  0  0
   15.2435    0.7483   17.0807 S   0  0  0  0  0  0  0  0  0  0  0  0
   14.5854    3.2039   16.0172 N   0  0  0  0  0  0  0  0  0  0  0  0
   14.8632    4.3773   15.3572 C   0  0  0  0  0  0  0  0  0  0  0  0
   16.1317    4.5859   14.8037 C   0  0  0  0  0  0  0  0  0  0  0  0
   13.6811    3.0394   16.3700 H   0  0  0  0  0  0  0  0  0  0  0  0
  7  8  2  0  0  0
  7  6  1  0  0  0
  8  2  1  0  0  0
  6  4  1  0  0  0
  2  1  1  0  0  0
  2  3  2  0  0  0
  4  3  1  0  0  0
  4  5  2  0  0  0
  6  9  1  0  0  0
M  END
> <minimizedAffinity>
-4.00822

$$$$
4Q90_4H2_A_302


  9  9  0  0  0  0  0  0  0  0999 V2000
   15.5391    0.9097   16.8747 C   0  0  0  0  0  0  0  0  0  0  0  0
   15.7387    2.2066   16.0982 C   0  0  0  0  0  0  0  0  0  0  0  0
   17.0099    2.5034   15.5186 C   0  0  0  0  0  0  0  0  0  0  0  0
   17.1913    3.6601   14.8480 C   0  0  0  0  0  0  0  0  0  0  0  0
   18.7757    4.0381   14.1404 S   0  0  0  0  0  0  0  0  0  0  0  0
   16.1340    4.5669   14.7201 N   0  0  0  0  0  0  0  0  0  0  0  0
   14.8981    4.2575   15.2363 C   0  0  0  0  0  0  0  0  0  0  0  0
   14.7129    3.0625   15.9412 C   0  0  0  0  0  0  0  0  0  0  0  0
   16.2748    5.4261   14.2607 H   0  0  0  0  0  0  0  0  0  0  0  0
  7  8  2  0  0  0
  7  6  1  0  0  0
  8  2  1  0  0  0
  6  4  1  0  0  0
  2  1  1  0  0  0
  2  3  2  0  0  0
  4  3  1  0  0  0
  4  5  2  0  0  0
  6  9  1  0  0  0
M  END
> <minimizedAffinity>
-3.99928

$$$$
4Q90_4H2_A_302


  9  9  0  0  0  0  0  0  0  0999 V2000
   14.3341    5.3528   14.6668 C   0  0  0  0  0  0  0  0  0  0  0  0
   15.4720    4.3625   14.8892 C   0  0  0  0  0  0  0  0  0  0  0  0
   16.7825    4.6603   14.4057 C   0  0  0  0  0  0  0  0  0  0  0  0
   17.7846    3.7749   14.5857 C   0  0  0  0  0  0  0  0  0  0  0  0
   19.4112    4.1365   13.9712 S   0  0  0  0  0  0  0  0  0  0  0  0
   17.5394    2.5669   15.2468 N   0  0  0  0  0  0  0  0  0  0  0  0
   16.2893    2.3036   15.7544 C   0  0  0  0  0  0  0  0  0  0  0  0
   15.2473    3.2172   15.5580 C   0  0  0  0  0  0  0  0  0  0  0  0
   18.2616    1.9056   15.3485 H   0  0  0  0  0  0  0  0  0  0  0  0
  7  8  2  0  0  0
  7  6  1  0  0  0
  8  2  1  0  0  0
  6  4  1  0  0  0
  2  1  1  0  0  0
  2  3  2  0  0  0
  4  3  1  0  0  0
  4  5  2  0  0  0
  6  9  1  0  0  0
M  END
> <minimizedAffinity>
-3.90775

$$$$
