4FEW_PP2_A_302


 24 26  0  0  0  0  0  0  0  0999 V2000
  -21.2298  -29.3680  -18.5586 C   0  0  0  0  0  0  0  0  0  0  0  0
  -21.3610  -30.0122  -19.7293 N   0  0  0  0  0  0  0  0  0  0  0  0
  -21.6268  -29.3403  -20.8261 C   0  0  0  0  0  0  0  0  0  0  0  0
  -21.7805  -28.0284  -20.8046 N   0  0  0  0  0  0  0  0  0  0  0  0
  -21.6752  -27.3196  -19.6774 C   0  0  0  0  0  0  0  0  0  0  0  0
  -21.3890  -27.9896  -18.4860 C   0  0  0  0  0  0  0  0  0  0  0  0
  -21.1816  -27.7011  -17.1263 C   0  0  0  0  0  0  0  0  0  0  0  0
  -20.9359  -28.8559  -16.5094 N   0  0  0  0  0  0  0  0  0  0  0  0
  -20.9620  -29.7879  -17.3196 N   0  0  0  0  0  0  0  0  0  0  0  0
  -21.8467  -26.0076  -19.7752 N   0  0  0  0  0  0  0  0  0  0  0  0
  -20.7588  -28.9527  -15.5458 H   0  0  0  0  0  0  0  0  0  0  0  0
  -22.0467  -25.6011  -20.6493 H   0  0  0  0  0  0  0  0  0  0  0  0
  -21.7741  -25.4406  -18.9737 H   0  0  0  0  0  0  0  0  0  0  0  0
  -21.2066  -26.4714  -16.4701 C   0  0  0  0  0  0  0  0  0  0  0  0
  -20.6162  -25.3228  -16.9743 C   0  0  0  0  0  0  0  0  0  0  0  0
  -20.6565  -24.1245  -16.2836 C   0  0  0  0  0  0  0  0  0  0  0  0
  -21.2965  -24.0698  -15.0556 C   0  0  0  0  0  0  0  0  0  0  0  0
  -21.8899  -25.2113  -14.5283 C   0  0  0  0  0  0  0  0  0  0  0  0
  -21.8400  -26.4087  -15.2332 C   0  0  0  0  0  0  0  0  0  0  0  0
  -21.3518  -22.5741  -14.1941 Cl  0  0  0  0  0  0  0  0  0  0  0  0
  -20.7409  -31.2059  -16.9265 C   0  0  0  0  0  0  0  0  0  0  0  0
  -19.5602  -31.7661  -17.7085 C   0  0  0  0  0  0  0  0  0  0  0  0
  -20.4660  -31.2175  -15.4248 C   0  0  0  0  0  0  0  0  0  0  0  0
  -22.0139  -32.0189  -17.2153 C   0  0  0  0  0  0  0  0  0  0  0  0
  1  2  1  0  0  0
  1  6  2  0  0  0
  1  9  1  0  0  0
  2  3  2  0  0  0
  3  4  1  0  0  0
  4  5  2  0  0  0
  5  6  1  0  0  0
  5 10  1  0  0  0
  6  7  1  0  0  0
  7  8  2  0  0  0
  7 14  1  0  0  0
  8  9  1  0  0  0
  9 21  1  0  0  0
 14 15  1  0  0  0
 14 19  2  0  0  0
 15 16  2  0  0  0
 16 17  1  0  0  0
 17 18  2  0  0  0
 17 20  1  0  0  0
 18 19  1  0  0  0
 21 22  1  0  0  0
 21 23  1  0  0  0
 21 24  1  0  0  0
  8 11  1  0  0  0
 10 12  1  0  0  0
 10 13  1  0  0  0
M  CHG 1   8   1
M  END
> <minimizedAffinity>
-9.19078

$$$$
4FEW_PP2_A_302


 24 26  0  0  0  0  0  0  0  0999 V2000
  -19.7701  -30.3420  -16.2650 C   0  0  0  0  0  0  0  0  0  0  0  0
  -18.9344  -31.3679  -16.0370 N   0  0  0  0  0  0  0  0  0  0  0  0
  -18.0681  -31.3068  -15.0516 C   0  0  0  0  0  0  0  0  0  0  0  0
  -17.9902  -30.2418  -14.2740 N   0  0  0  0  0  0  0  0  0  0  0  0
  -18.7802  -29.1784  -14.4451 C   0  0  0  0  0  0  0  0  0  0  0  0
  -19.7207  -29.1985  -15.4773 C   0  0  0  0  0  0  0  0  0  0  0  0
  -20.7240  -28.3769  -16.0187 C   0  0  0  0  0  0  0  0  0  0  0  0
  -21.2694  -29.0377  -17.0388 N   0  0  0  0  0  0  0  0  0  0  0  0
  -20.7309  -30.1415  -17.1704 N   0  0  0  0  0  0  0  0  0  0  0  0
  -18.6151  -28.1664  -13.6031 N   0  0  0  0  0  0  0  0  0  0  0  0
  -21.9973  -28.6953  -17.6064 H   0  0  0  0  0  0  0  0  0  0  0  0
  -17.9311  -28.2201  -12.8971 H   0  0  0  0  0  0  0  0  0  0  0  0
  -19.1766  -27.3619  -13.6843 H   0  0  0  0  0  0  0  0  0  0  0  0
  -21.1347  -27.1053  -15.6215 C   0  0  0  0  0  0  0  0  0  0  0  0
  -20.8436  -25.9506  -16.3314 C   0  0  0  0  0  0  0  0  0  0  0  0
  -21.2631  -24.7065  -15.8946 C   0  0  0  0  0  0  0  0  0  0  0  0
  -21.9865  -24.6089  -14.7165 C   0  0  0  0  0  0  0  0  0  0  0  0
  -22.2842  -25.7535  -13.9854 C   0  0  0  0  0  0  0  0  0  0  0  0
  -21.8547  -26.9966  -14.4362 C   0  0  0  0  0  0  0  0  0  0  0  0
  -22.5148  -23.0575  -14.1720 Cl  0  0  0  0  0  0  0  0  0  0  0  0
  -21.1136  -31.1042  -18.2385 C   0  0  0  0  0  0  0  0  0  0  0  0
  -22.0615  -32.1463  -17.6598 C   0  0  0  0  0  0  0  0  0  0  0  0
  -21.7861  -30.2995  -19.3479 C   0  0  0  0  0  0  0  0  0  0  0  0
  -19.8477  -31.7766  -18.7956 C   0  0  0  0  0  0  0  0  0  0  0  0
  1  2  1  0  0  0
  1  6  2  0  0  0
  1  9  1  0  0  0
  2  3  2  0  0  0
  3  4  1  0  0  0
  4  5  2  0  0  0
  5  6  1  0  0  0
  5 10  1  0  0  0
  6  7  1  0  0  0
  7  8  2  0  0  0
  7 14  1  0  0  0
  8  9  1  0  0  0
  9 21  1  0  0  0
 14 15  1  0  0  0
 14 19  2  0  0  0
 15 16  2  0  0  0
 16 17  1  0  0  0
 17 18  2  0  0  0
 17 20  1  0  0  0
 18 19  1  0  0  0
 21 22  1  0  0  0
 21 23  1  0  0  0
 21 24  1  0  0  0
  8 11  1  0  0  0
 10 12  1  0  0  0
 10 13  1  0  0  0
M  CHG 1   8   1
M  END
> <minimizedAffinity>
-8.59861

$$$$
4FEW_PP2_A_302


 24 26  0  0  0  0  0  0  0  0999 V2000
  -21.3070  -27.5811  -18.1191 C   0  0  0  0  0  0  0  0  0  0  0  0
  -21.4676  -27.3157  -19.4254 N   0  0  0  0  0  0  0  0  0  0  0  0
  -21.5291  -28.2976  -20.2956 C   0  0  0  0  0  0  0  0  0  0  0  0
  -21.4252  -29.5579  -19.9137 N   0  0  0  0  0  0  0  0  0  0  0  0
  -21.2536  -29.9001  -18.6340 C   0  0  0  0  0  0  0  0  0  0  0  0
  -21.1867  -28.8909  -17.6711 C   0  0  0  0  0  0  0  0  0  0  0  0
  -21.0356  -28.7552  -16.2806 C   0  0  0  0  0  0  0  0  0  0  0  0
  -21.0642  -27.4523  -16.0043 N   0  0  0  0  0  0  0  0  0  0  0  0
  -21.2192  -26.7984  -17.0407 N   0  0  0  0  0  0  0  0  0  0  0  0
  -21.1643  -31.1965  -18.3663 N   0  0  0  0  0  0  0  0  0  0  0  0
  -20.9746  -27.0659  -15.1032 H   0  0  0  0  0  0  0  0  0  0  0  0
  -21.2198  -31.8549  -19.0962 H   0  0  0  0  0  0  0  0  0  0  0  0
  -21.0426  -31.5002  -17.4377 H   0  0  0  0  0  0  0  0  0  0  0  0
  -20.8837  -29.7421  -15.3078 C   0  0  0  0  0  0  0  0  0  0  0  0
  -21.9457  -30.4385  -14.7518 C   0  0  0  0  0  0  0  0  0  0  0  0
  -21.7497  -31.4040  -13.7803 C   0  0  0  0  0  0  0  0  0  0  0  0
  -20.4625  -31.6793  -13.3466 C   0  0  0  0  0  0  0  0  0  0  0  0
  -19.3833  -30.9883  -13.8861 C   0  0  0  0  0  0  0  0  0  0  0  0
  -19.5960  -30.0198  -14.8607 C   0  0  0  0  0  0  0  0  0  0  0  0
  -20.2153  -32.8872  -12.1373 Cl  0  0  0  0  0  0  0  0  0  0  0  0
  -21.2736  -25.3116  -17.0567 C   0  0  0  0  0  0  0  0  0  0  0  0
  -22.2531  -24.8559  -18.1303 C   0  0  0  0  0  0  0  0  0  0  0  0
  -21.7257  -24.8642  -15.6689 C   0  0  0  0  0  0  0  0  0  0  0  0
  -19.8682  -24.7534  -17.3366 C   0  0  0  0  0  0  0  0  0  0  0  0
  1  2  1  0  0  0
  1  6  2  0  0  0
  1  9  1  0  0  0
  2  3  2  0  0  0
  3  4  1  0  0  0
  4  5  2  0  0  0
  5  6  1  0  0  0
  5 10  1  0  0  0
  6  7  1  0  0  0
  7  8  2  0  0  0
  7 14  1  0  0  0
  8  9  1  0  0  0
  9 21  1  0  0  0
 14 15  1  0  0  0
 14 19  2  0  0  0
 15 16  2  0  0  0
 16 17  1  0  0  0
 17 18  2  0  0  0
 17 20  1  0  0  0
 18 19  1  0  0  0
 21 22  1  0  0  0
 21 23  1  0  0  0
 21 24  1  0  0  0
  8 11  1  0  0  0
 10 12  1  0  0  0
 10 13  1  0  0  0
M  CHG 1   8   1
M  END
> <minimizedAffinity>
-8.53362

$$$$
4FEW_PP2_A_302


 24 26  0  0  0  0  0  0  0  0999 V2000
  -21.5156  -30.3962  -17.1840 C   0  0  0  0  0  0  0  0  0  0  0  0
  -21.7348  -31.5658  -16.5620 N   0  0  0  0  0  0  0  0  0  0  0  0
  -21.7620  -31.6205  -15.2500 C   0  0  0  0  0  0  0  0  0  0  0  0
  -21.5662  -30.5399  -14.5159 N   0  0  0  0  0  0  0  0  0  0  0  0
  -21.3320  -29.3435  -15.0617 C   0  0  0  0  0  0  0  0  0  0  0  0
  -21.2982  -29.2344  -16.4536 C   0  0  0  0  0  0  0  0  0  0  0  0
  -21.1112  -28.2507  -17.4395 C   0  0  0  0  0  0  0  0  0  0  0  0
  -21.2134  -28.8523  -18.6237 N   0  0  0  0  0  0  0  0  0  0  0  0
  -21.4429  -30.0566  -18.4734 N   0  0  0  0  0  0  0  0  0  0  0  0
  -21.1522  -28.3279  -14.2272 N   0  0  0  0  0  0  0  0  0  0  0  0
  -21.1194  -28.4016  -19.4940 H   0  0  0  0  0  0  0  0  0  0  0  0
  -21.1894  -28.4772  -13.2548 H   0  0  0  0  0  0  0  0  0  0  0  0
  -20.9816  -27.4248  -14.5803 H   0  0  0  0  0  0  0  0  0  0  0  0
  -20.8658  -26.8864  -17.2913 C   0  0  0  0  0  0  0  0  0  0  0  0
  -19.7995  -26.3748  -16.5680 C   0  0  0  0  0  0  0  0  0  0  0  0
  -19.5995  -25.0118  -16.4383 C   0  0  0  0  0  0  0  0  0  0  0  0
  -20.4882  -24.1349  -17.0397 C   0  0  0  0  0  0  0  0  0  0  0  0
  -21.5682  -24.6263  -17.7646 C   0  0  0  0  0  0  0  0  0  0  0  0
  -21.7571  -25.9985  -17.8850 C   0  0  0  0  0  0  0  0  0  0  0  0
  -20.2378  -22.4334  -16.8828 Cl  0  0  0  0  0  0  0  0  0  0  0  0
  -21.5918  -30.9988  -19.6154 C   0  0  0  0  0  0  0  0  0  0  0  0
  -22.8879  -31.7823  -19.4549 C   0  0  0  0  0  0  0  0  0  0  0  0
  -21.6066  -30.1594  -20.8905 C   0  0  0  0  0  0  0  0  0  0  0  0
  -20.3856  -31.9522  -19.6498 C   0  0  0  0  0  0  0  0  0  0  0  0
  1  2  1  0  0  0
  1  6  2  0  0  0
  1  9  1  0  0  0
  2  3  2  0  0  0
  3  4  1  0  0  0
  4  5  2  0  0  0
  5  6  1  0  0  0
  5 10  1  0  0  0
  6  7  1  0  0  0
  7  8  2  0  0  0
  7 14  1  0  0  0
  8  9  1  0  0  0
  9 21  1  0  0  0
 14 15  1  0  0  0
 14 19  2  0  0  0
 15 16  2  0  0  0
 16 17  1  0  0  0
 17 18  2  0  0  0
 17 20  1  0  0  0
 18 19  1  0  0  0
 21 22  1  0  0  0
 21 23  1  0  0  0
 21 24  1  0  0  0
  8 11  1  0  0  0
 10 12  1  0  0  0
 10 13  1  0  0  0
M  CHG 1   8   1
M  END
> <minimizedAffinity>
-8.42718

$$$$
4FEW_PP2_A_302


 24 26  0  0  0  0  0  0  0  0999 V2000
  -20.3118  -31.0076  -17.0573 C   0  0  0  0  0  0  0  0  0  0  0  0
  -19.6685  -32.1788  -16.9261 N   0  0  0  0  0  0  0  0  0  0  0  0
  -18.8757  -32.3848  -15.8993 C   0  0  0  0  0  0  0  0  0  0  0  0
  -18.6846  -31.4515  -14.9843 N   0  0  0  0  0  0  0  0  0  0  0  0
  -19.2809  -30.2582  -15.0519 C   0  0  0  0  0  0  0  0  0  0  0  0
  -20.1368  -29.9939  -16.1232 C   0  0  0  0  0  0  0  0  0  0  0  0
  -20.9555  -28.9560  -16.6001 C   0  0  0  0  0  0  0  0  0  0  0  0
  -21.5253  -29.3860  -17.7249 N   0  0  0  0  0  0  0  0  0  0  0  0
  -21.1616  -30.5396  -17.9749 N   0  0  0  0  0  0  0  0  0  0  0  0
  -19.0169  -29.3992  -14.0758 N   0  0  0  0  0  0  0  0  0  0  0  0
  -22.1472  -28.8596  -18.2776 H   0  0  0  0  0  0  0  0  0  0  0  0
  -18.4020  -29.6527  -13.3499 H   0  0  0  0  0  0  0  0  0  0  0  0
  -19.4358  -28.5083  -14.0774 H   0  0  0  0  0  0  0  0  0  0  0  0
  -21.1855  -27.6921  -16.0586 C   0  0  0  0  0  0  0  0  0  0  0  0
  -21.6761  -27.4858  -14.7785 C   0  0  0  0  0  0  0  0  0  0  0  0
  -21.8992  -26.2126  -14.2847 C   0  0  0  0  0  0  0  0  0  0  0  0
  -21.6323  -25.1159  -15.0890 C   0  0  0  0  0  0  0  0  0  0  0  0
  -21.1457  -25.3001  -16.3784 C   0  0  0  0  0  0  0  0  0  0  0  0
  -20.9278  -26.5856  -16.8613 C   0  0  0  0  0  0  0  0  0  0  0  0
  -21.9059  -23.5260  -14.4729 Cl  0  0  0  0  0  0  0  0  0  0  0  0
  -21.6160  -31.2863  -19.1790 C   0  0  0  0  0  0  0  0  0  0  0  0
  -22.6664  -32.3101  -18.7690 C   0  0  0  0  0  0  0  0  0  0  0  0
  -22.1926  -30.2606  -20.1518 C   0  0  0  0  0  0  0  0  0  0  0  0
  -20.4100  -31.9824  -19.8319 C   0  0  0  0  0  0  0  0  0  0  0  0
  1  2  1  0  0  0
  1  6  2  0  0  0
  1  9  1  0  0  0
  2  3  2  0  0  0
  3  4  1  0  0  0
  4  5  2  0  0  0
  5  6  1  0  0  0
  5 10  1  0  0  0
  6  7  1  0  0  0
  7  8  2  0  0  0
  7 14  1  0  0  0
  8  9  1  0  0  0
  9 21  1  0  0  0
 14 15  1  0  0  0
 14 19  2  0  0  0
 15 16  2  0  0  0
 16 17  1  0  0  0
 17 18  2  0  0  0
 17 20  1  0  0  0
 18 19  1  0  0  0
 21 22  1  0  0  0
 21 23  1  0  0  0
 21 24  1  0  0  0
  8 11  1  0  0  0
 10 12  1  0  0  0
 10 13  1  0  0  0
M  CHG 1   8   1
M  END
> <minimizedAffinity>
-8.31727

$$$$
4FEW_PP2_A_302


 24 26  0  0  0  0  0  0  0  0999 V2000
  -19.7307  -30.5255  -15.9299 C   0  0  0  0  0  0  0  0  0  0  0  0
  -19.0374  -31.6322  -15.6183 N   0  0  0  0  0  0  0  0  0  0  0  0
  -18.2149  -31.6292  -14.5942 C   0  0  0  0  0  0  0  0  0  0  0  0
  -18.0424  -30.5458  -13.8584 N   0  0  0  0  0  0  0  0  0  0  0  0
  -18.6884  -29.4046  -14.1125 C   0  0  0  0  0  0  0  0  0  0  0  0
  -19.5773  -29.3603  -15.1886 C   0  0  0  0  0  0  0  0  0  0  0  0
  -20.4478  -28.4508  -15.8129 C   0  0  0  0  0  0  0  0  0  0  0  0
  -21.0237  -29.0886  -16.8308 N   0  0  0  0  0  0  0  0  0  0  0  0
  -20.6186  -30.2540  -16.8897 N   0  0  0  0  0  0  0  0  0  0  0  0
  -18.4387  -28.3812  -13.3058 N   0  0  0  0  0  0  0  0  0  0  0  0
  -21.6784  -28.6885  -17.4477 H   0  0  0  0  0  0  0  0  0  0  0  0
  -17.7985  -28.4832  -12.5649 H   0  0  0  0  0  0  0  0  0  0  0  0
  -18.8937  -27.5198  -13.4482 H   0  0  0  0  0  0  0  0  0  0  0  0
  -20.7176  -27.1218  -15.4896 C   0  0  0  0  0  0  0  0  0  0  0  0
  -21.7938  -26.7271  -14.7101 C   0  0  0  0  0  0  0  0  0  0  0  0
  -22.0298  -25.3944  -14.4222 C   0  0  0  0  0  0  0  0  0  0  0  0
  -21.1748  -24.4286  -14.9289 C   0  0  0  0  0  0  0  0  0  0  0  0
  -20.0927  -24.8017  -15.7184 C   0  0  0  0  0  0  0  0  0  0  0  0
  -19.8692  -26.1447  -16.0003 C   0  0  0  0  0  0  0  0  0  0  0  0
  -21.4650  -22.7651  -14.5671 Cl  0  0  0  0  0  0  0  0  0  0  0  0
  -21.0679  -31.2131  -17.9348 C   0  0  0  0  0  0  0  0  0  0  0  0
  -21.7039  -30.4424  -19.0842 C   0  0  0  0  0  0  0  0  0  0  0  0
  -19.8332  -31.9813  -18.3994 C   0  0  0  0  0  0  0  0  0  0  0  0
  -22.0773  -32.1983  -17.3220 C   0  0  0  0  0  0  0  0  0  0  0  0
  1  2  1  0  0  0
  1  6  2  0  0  0
  1  9  1  0  0  0
  2  3  2  0  0  0
  3  4  1  0  0  0
  4  5  2  0  0  0
  5  6  1  0  0  0
  5 10  1  0  0  0
  6  7  1  0  0  0
  7  8  2  0  0  0
  7 14  1  0  0  0
  8  9  1  0  0  0
  9 21  1  0  0  0
 14 15  1  0  0  0
 14 19  2  0  0  0
 15 16  2  0  0  0
 16 17  1  0  0  0
 17 18  2  0  0  0
 17 20  1  0  0  0
 18 19  1  0  0  0
 21 22  1  0  0  0
 21 23  1  0  0  0
 21 24  1  0  0  0
  8 11  1  0  0  0
 10 12  1  0  0  0
 10 13  1  0  0  0
M  CHG 1   8   1
M  END
> <minimizedAffinity>
-8.25557

$$$$
4FEW_PP2_A_302


 24 26  0  0  0  0  0  0  0  0999 V2000
  -21.4786  -27.5988  -18.3216 C   0  0  0  0  0  0  0  0  0  0  0  0
  -21.6798  -26.3748  -18.8353 N   0  0  0  0  0  0  0  0  0  0  0  0
  -21.7129  -25.3252  -18.0463 C   0  0  0  0  0  0  0  0  0  0  0  0
  -21.5609  -25.4464  -16.7397 N   0  0  0  0  0  0  0  0  0  0  0  0
  -21.3672  -26.6312  -16.1542 C   0  0  0  0  0  0  0  0  0  0  0  0
  -21.3199  -27.7761  -16.9526 C   0  0  0  0  0  0  0  0  0  0  0  0
  -21.1388  -29.1628  -16.8146 C   0  0  0  0  0  0  0  0  0  0  0  0
  -21.2060  -29.6943  -18.0343 N   0  0  0  0  0  0  0  0  0  0  0  0
  -21.3945  -28.8105  -18.8764 N   0  0  0  0  0  0  0  0  0  0  0  0
  -21.2249  -26.6328  -14.8351 N   0  0  0  0  0  0  0  0  0  0  0  0
  -21.1179  -30.6540  -18.2357 H   0  0  0  0  0  0  0  0  0  0  0  0
  -21.2695  -25.7864  -14.3342 H   0  0  0  0  0  0  0  0  0  0  0  0
  -21.0747  -27.4803  -14.3572 H   0  0  0  0  0  0  0  0  0  0  0  0
  -20.9213  -29.9151  -15.6613 C   0  0  0  0  0  0  0  0  0  0  0  0
  -21.9265  -30.5928  -14.9888 C   0  0  0  0  0  0  0  0  0  0  0  0
  -21.6672  -31.3200  -13.8405 C   0  0  0  0  0  0  0  0  0  0  0  0
  -20.3737  -31.3688  -13.3454 C   0  0  0  0  0  0  0  0  0  0  0  0
  -19.3514  -30.6913  -14.0005 C   0  0  0  0  0  0  0  0  0  0  0  0
  -19.6275  -29.9635  -15.1525 C   0  0  0  0  0  0  0  0  0  0  0  0
  -20.0472  -32.2796  -11.9149 Cl  0  0  0  0  0  0  0  0  0  0  0  0
  -21.5320  -29.0967  -20.3301 C   0  0  0  0  0  0  0  0  0  0  0  0
  -20.6570  -28.1303  -21.1176 C   0  0  0  0  0  0  0  0  0  0  0  0
  -21.0931  -30.5428  -20.5462 C   0  0  0  0  0  0  0  0  0  0  0  0
  -23.0063  -28.9473  -20.7414 C   0  0  0  0  0  0  0  0  0  0  0  0
  1  2  1  0  0  0
  1  6  2  0  0  0
  1  9  1  0  0  0
  2  3  2  0  0  0
  3  4  1  0  0  0
  4  5  2  0  0  0
  5  6  1  0  0  0
  5 10  1  0  0  0
  6  7  1  0  0  0
  7  8  2  0  0  0
  7 14  1  0  0  0
  8  9  1  0  0  0
  9 21  1  0  0  0
 14 15  1  0  0  0
 14 19  2  0  0  0
 15 16  2  0  0  0
 16 17  1  0  0  0
 17 18  2  0  0  0
 17 20  1  0  0  0
 18 19  1  0  0  0
 21 22  1  0  0  0
 21 23  1  0  0  0
 21 24  1  0  0  0
  8 11  1  0  0  0
 10 12  1  0  0  0
 10 13  1  0  0  0
M  CHG 1   8   1
M  END
> <minimizedAffinity>
-8.21858

$$$$
4FEW_PP2_A_302


 24 26  0  0  0  0  0  0  0  0999 V2000
  -21.3187  -27.3073  -18.1282 C   0  0  0  0  0  0  0  0  0  0  0  0
  -21.4629  -26.1082  -18.7146 N   0  0  0  0  0  0  0  0  0  0  0  0
  -21.6602  -26.0269  -20.0107 C   0  0  0  0  0  0  0  0  0  0  0  0
  -21.7111  -27.1106  -20.7643 N   0  0  0  0  0  0  0  0  0  0  0  0
  -21.5660  -28.3370  -20.2553 C   0  0  0  0  0  0  0  0  0  0  0  0
  -21.3586  -28.4744  -18.8811 C   0  0  0  0  0  0  0  0  0  0  0  0
  -21.1719  -29.4917  -17.9297 C   0  0  0  0  0  0  0  0  0  0  0  0
  -21.0317  -28.9031  -16.7428 N   0  0  0  0  0  0  0  0  0  0  0  0
  -21.1175  -27.6765  -16.8607 N   0  0  0  0  0  0  0  0  0  0  0  0
  -21.6375  -29.3523  -21.1063 N   0  0  0  0  0  0  0  0  0  0  0  0
  -20.8813  -29.3777  -15.8935 H   0  0  0  0  0  0  0  0  0  0  0  0
  -21.7860  -29.1820  -22.0645 H   0  0  0  0  0  0  0  0  0  0  0  0
  -21.5421  -30.2761  -20.7795 H   0  0  0  0  0  0  0  0  0  0  0  0
  -21.1322  -30.8735  -18.1097 C   0  0  0  0  0  0  0  0  0  0  0  0
  -22.1941  -31.6108  -18.6105 C   0  0  0  0  0  0  0  0  0  0  0  0
  -22.1146  -32.9837  -18.7633 C   0  0  0  0  0  0  0  0  0  0  0  0
  -20.9490  -33.6407  -18.4022 C   0  0  0  0  0  0  0  0  0  0  0  0
  -19.8739  -32.9216  -17.8919 C   0  0  0  0  0  0  0  0  0  0  0  0
  -19.9691  -31.5426  -17.7428 C   0  0  0  0  0  0  0  0  0  0  0  0
  -20.8462  -35.3536  -18.5963 Cl  0  0  0  0  0  0  0  0  0  0  0  0
  -20.9838  -26.7436  -15.7093 C   0  0  0  0  0  0  0  0  0  0  0  0
  -21.5579  -27.4003  -14.4609 C   0  0  0  0  0  0  0  0  0  0  0  0
  -19.4957  -26.4456  -15.5438 C   0  0  0  0  0  0  0  0  0  0  0  0
  -21.7308  -25.4365  -16.0235 C   0  0  0  0  0  0  0  0  0  0  0  0
  1  2  1  0  0  0
  1  6  2  0  0  0
  1  9  1  0  0  0
  2  3  2  0  0  0
  3  4  1  0  0  0
  4  5  2  0  0  0
  5  6  1  0  0  0
  5 10  1  0  0  0
  6  7  1  0  0  0
  7  8  2  0  0  0
  7 14  1  0  0  0
  8  9  1  0  0  0
  9 21  1  0  0  0
 14 15  1  0  0  0
 14 19  2  0  0  0
 15 16  2  0  0  0
 16 17  1  0  0  0
 17 18  2  0  0  0
 17 20  1  0  0  0
 18 19  1  0  0  0
 21 22  1  0  0  0
 21 23  1  0  0  0
 21 24  1  0  0  0
  8 11  1  0  0  0
 10 12  1  0  0  0
 10 13  1  0  0  0
M  CHG 1   8   1
M  END
> <minimizedAffinity>
-8.11058

$$$$
4FEW_PP2_A_302


 24 26  0  0  0  0  0  0  0  0999 V2000
  -20.3148  -31.6661  -17.5608 C   0  0  0  0  0  0  0  0  0  0  0  0
  -19.6111  -32.8076  -17.4948 N   0  0  0  0  0  0  0  0  0  0  0  0
  -18.6741  -32.9536  -16.5860 C   0  0  0  0  0  0  0  0  0  0  0  0
  -18.3955  -31.9876  -15.7291 N   0  0  0  0  0  0  0  0  0  0  0  0
  -19.0449  -30.8204  -15.7392 C   0  0  0  0  0  0  0  0  0  0  0  0
  -20.0530  -30.6199  -16.6846 C   0  0  0  0  0  0  0  0  0  0  0  0
  -20.9732  -29.6282  -17.0648 C   0  0  0  0  0  0  0  0  0  0  0  0
  -21.6769  -30.1119  -18.0874 N   0  0  0  0  0  0  0  0  0  0  0  0
  -21.3039  -31.2576  -18.3595 N   0  0  0  0  0  0  0  0  0  0  0  0
  -18.6826  -29.9241  -14.8305 N   0  0  0  0  0  0  0  0  0  0  0  0
  -22.3917  -29.6259  -18.5586 H   0  0  0  0  0  0  0  0  0  0  0  0
  -17.9619  -30.1330  -14.1932 H   0  0  0  0  0  0  0  0  0  0  0  0
  -19.1345  -29.0503  -14.7935 H   0  0  0  0  0  0  0  0  0  0  0  0
  -21.1776  -28.3590  -16.5257 C   0  0  0  0  0  0  0  0  0  0  0  0
  -21.0087  -27.1859  -17.2448 C   0  0  0  0  0  0  0  0  0  0  0  0
  -21.2129  -25.9457  -16.6661 C   0  0  0  0  0  0  0  0  0  0  0  0
  -21.5894  -25.8714  -15.3344 C   0  0  0  0  0  0  0  0  0  0  0  0
  -21.7583  -27.0353  -14.5927 C   0  0  0  0  0  0  0  0  0  0  0  0
  -21.5482  -28.2744  -15.1875 C   0  0  0  0  0  0  0  0  0  0  0  0
  -21.8490  -24.3247  -14.6116 Cl  0  0  0  0  0  0  0  0  0  0  0  0
  -21.8912  -32.0555  -19.4697 C   0  0  0  0  0  0  0  0  0  0  0  0
  -20.7697  -32.6098  -20.3383 C   0  0  0  0  0  0  0  0  0  0  0  0
  -22.7053  -33.1790  -18.8329 C   0  0  0  0  0  0  0  0  0  0  0  0
  -22.8256  -31.1606  -20.3012 C   0  0  0  0  0  0  0  0  0  0  0  0
  1  2  1  0  0  0
  1  6  2  0  0  0
  1  9  1  0  0  0
  2  3  2  0  0  0
  3  4  1  0  0  0
  4  5  2  0  0  0
  5  6  1  0  0  0
  5 10  1  0  0  0
  6  7  1  0  0  0
  7  8  2  0  0  0
  7 14  1  0  0  0
  8  9  1  0  0  0
  9 21  1  0  0  0
 14 15  1  0  0  0
 14 19  2  0  0  0
 15 16  2  0  0  0
 16 17  1  0  0  0
 17 18  2  0  0  0
 17 20  1  0  0  0
 18 19  1  0  0  0
 21 22  1  0  0  0
 21 23  1  0  0  0
 21 24  1  0  0  0
  8 11  1  0  0  0
 10 12  1  0  0  0
 10 13  1  0  0  0
M  CHG 1   8   1
M  END
> <minimizedAffinity>
-8.00028

$$$$
4FEW_PP2_A_302


 24 26  0  0  0  0  0  0  0  0999 V2000
  -21.1777  -27.8394  -17.8088 C   0  0  0  0  0  0  0  0  0  0  0  0
  -21.1783  -26.4998  -17.8991 N   0  0  0  0  0  0  0  0  0  0  0  0
  -21.5043  -25.9147  -19.0289 C   0  0  0  0  0  0  0  0  0  0  0  0
  -21.8267  -26.6214  -20.0974 N   0  0  0  0  0  0  0  0  0  0  0  0
  -21.8387  -27.9571  -20.0881 C   0  0  0  0  0  0  0  0  0  0  0  0
  -21.5037  -28.6244  -18.9080 C   0  0  0  0  0  0  0  0  0  0  0  0
  -21.3888  -29.9390  -18.4248 C   0  0  0  0  0  0  0  0  0  0  0  0
  -21.0154  -29.8607  -17.1484 N   0  0  0  0  0  0  0  0  0  0  0  0
  -20.9009  -28.6789  -16.8078 N   0  0  0  0  0  0  0  0  0  0  0  0
  -22.1805  -28.5620  -21.2183 N   0  0  0  0  0  0  0  0  0  0  0  0
  -20.8539  -30.6339  -16.5608 H   0  0  0  0  0  0  0  0  0  0  0  0
  -22.4051  -28.0278  -22.0142 H   0  0  0  0  0  0  0  0  0  0  0  0
  -22.2096  -29.5452  -21.2612 H   0  0  0  0  0  0  0  0  0  0  0  0
  -21.6090  -31.1461  -19.0865 C   0  0  0  0  0  0  0  0  0  0  0  0
  -20.7870  -31.6277  -20.0936 C   0  0  0  0  0  0  0  0  0  0  0  0
  -21.0492  -32.8275  -20.7312 C   0  0  0  0  0  0  0  0  0  0  0  0
  -22.1628  -33.5643  -20.3601 C   0  0  0  0  0  0  0  0  0  0  0  0
  -23.0042  -33.0969  -19.3568 C   0  0  0  0  0  0  0  0  0  0  0  0
  -22.7287  -31.8888  -18.7262 C   0  0  0  0  0  0  0  0  0  0  0  0
  -22.4893  -35.0641  -21.1515 Cl  0  0  0  0  0  0  0  0  0  0  0  0
  -20.4784  -28.2699  -15.4410 C   0  0  0  0  0  0  0  0  0  0  0  0
  -19.2385  -27.3911  -15.5401 C   0  0  0  0  0  0  0  0  0  0  0  0
  -21.6472  -27.5102  -14.8186 C   0  0  0  0  0  0  0  0  0  0  0  0
  -20.1847  -29.5247  -14.6019 C   0  0  0  0  0  0  0  0  0  0  0  0
  1  2  1  0  0  0
  1  6  2  0  0  0
  1  9  1  0  0  0
  2  3  2  0  0  0
  3  4  1  0  0  0
  4  5  2  0  0  0
  5  6  1  0  0  0
  5 10  1  0  0  0
  6  7  1  0  0  0
  7  8  2  0  0  0
  7 14  1  0  0  0
  8  9  1  0  0  0
  9 21  1  0  0  0
 14 15  1  0  0  0
 14 19  2  0  0  0
 15 16  2  0  0  0
 16 17  1  0  0  0
 17 18  2  0  0  0
 17 20  1  0  0  0
 18 19  1  0  0  0
 21 22  1  0  0  0
 21 23  1  0  0  0
 21 24  1  0  0  0
  8 11  1  0  0  0
 10 12  1  0  0  0
 10 13  1  0  0  0
M  CHG 1   8   1
M  END
> <minimizedAffinity>
-7.91511

$$$$
