3ARX_POY_A_606


 22 23  0  0  0  0  0  0  0  0999 V2000
   18.5327  -12.4537   18.1264 N   0  0  0  0  0  0  0  0  0  0  0  0
   17.5955  -13.1056   17.3935 C   0  0  0  0  0  0  0  0  0  0  0  0
   16.2666  -12.7484   17.6165 C   0  0  0  0  0  0  0  0  0  0  0  0
   15.9027  -11.7605   18.4879 C   0  0  0  0  0  0  0  0  0  0  0  0
   16.8282  -11.1161   19.2466 N   0  0  0  0  0  0  0  0  0  0  0  0
   18.1560  -11.4501   19.0680 C   0  0  0  0  0  0  0  0  0  0  0  0
   15.1110  -13.1113   17.0824 N   0  0  0  0  0  0  0  0  0  0  0  0
   14.0649  -12.3899   17.7272 C   0  0  0  0  0  0  0  0  0  0  0  0
   14.5360  -11.5435   18.5550 N   0  0  0  0  0  0  0  0  0  0  0  0
   17.9417  -14.0616   16.6787 O   0  0  0  0  0  0  0  0  0  0  0  0
   19.0292  -10.8547   19.7212 O   0  0  0  0  0  0  0  0  0  0  0  0
   16.2973  -10.0915   20.2231 C   0  0  0  0  0  0  0  0  0  0  0  0
   20.0050  -12.8212   17.9380 C   0  0  0  0  0  0  0  0  0  0  0  0
   20.6475  -11.8878   16.8724 C   0  0  0  0  0  0  0  0  0  0  0  0
   22.0985  -12.3689   16.3756 C   0  0  0  0  0  0  0  0  0  0  0  0
   22.3099  -11.4892   15.1037 C   0  0  0  0  0  0  0  0  0  0  0  0
   23.3289  -10.4165   15.3520 C   0  0  0  0  0  0  0  0  0  0  0  0
   23.3405   -9.2624   14.5813 C   0  0  0  0  0  0  0  0  0  0  0  0
   24.0717  -10.4844   16.4102 O   0  0  0  0  0  0  0  0  0  0  0  0
   15.0131  -14.1194   16.0764 C   0  0  0  0  0  0  0  0  0  0  0  0
   14.8310  -13.5577   14.6789 C   0  0  0  0  0  0  0  0  0  0  0  0
   16.0350  -13.5295   13.7166 C   0  0  0  0  0  0  0  0  0  0  0  0
  1  2  1  0  0  0
  1  6  1  0  0  0
  1 13  1  0  0  0
  2  3  1  0  0  0
  2 10  2  0  0  0
  3  4  2  0  0  0
  3  7  1  0  0  0
  4  5  1  0  0  0
  4  9  1  0  0  0
  5  6  1  0  0  0
  5 12  1  0  0  0
  6 11  2  0  0  0
  7  8  1  0  0  0
  7 20  1  0  0  0
  8  9  2  0  0  0
 13 14  1  0  0  0
 14 15  1  0  0  0
 15 16  1  0  0  0
 16 17  1  0  0  0
 17 18  1  0  0  0
 17 19  2  0  0  0
 20 21  1  0  0  0
 21 22  1  0  0  0
M  END
> <minimizedAffinity>
-7.28955

$$$$
3ARX_POY_A_606


 22 23  0  0  0  0  0  0  0  0999 V2000
   18.2444  -11.7679   18.7194 N   0  0  0  0  0  0  0  0  0  0  0  0
   17.3584  -10.9239   19.3052 C   0  0  0  0  0  0  0  0  0  0  0  0
   17.7968  -10.2465   20.4418 C   0  0  0  0  0  0  0  0  0  0  0  0
   19.0659  -10.3709   20.9335 C   0  0  0  0  0  0  0  0  0  0  0  0
   19.9562  -11.2308   20.3720 N   0  0  0  0  0  0  0  0  0  0  0  0
   19.5576  -11.9335   19.2522 C   0  0  0  0  0  0  0  0  0  0  0  0
   17.2599   -9.3351   21.2378 N   0  0  0  0  0  0  0  0  0  0  0  0
   18.2022   -9.0074   22.2553 C   0  0  0  0  0  0  0  0  0  0  0  0
   19.3118   -9.6024   22.0597 N   0  0  0  0  0  0  0  0  0  0  0  0
   16.1846  -10.8983   18.8971 O   0  0  0  0  0  0  0  0  0  0  0  0
   20.3598  -12.7014   18.6949 O   0  0  0  0  0  0  0  0  0  0  0  0
   21.3055  -11.3319   21.0460 C   0  0  0  0  0  0  0  0  0  0  0  0
   17.8092  -12.5535   17.4818 C   0  0  0  0  0  0  0  0  0  0  0  0
   17.1467  -13.8924   17.9152 C   0  0  0  0  0  0  0  0  0  0  0  0
   16.2439  -14.5720   16.7721 C   0  0  0  0  0  0  0  0  0  0  0  0
   15.4562  -13.3453   16.2142 C   0  0  0  0  0  0  0  0  0  0  0  0
   15.0971  -13.5446   14.7713 C   0  0  0  0  0  0  0  0  0  0  0  0
   16.0767  -13.5084   13.7890 C   0  0  0  0  0  0  0  0  0  0  0  0
   13.9030  -13.9422   14.4673 O   0  0  0  0  0  0  0  0  0  0  0  0
   15.9228   -8.8633   21.0726 C   0  0  0  0  0  0  0  0  0  0  0  0
   15.0379   -9.1327   22.2751 C   0  0  0  0  0  0  0  0  0  0  0  0
   13.5982   -9.6366   22.0521 C   0  0  0  0  0  0  0  0  0  0  0  0
  1  2  1  0  0  0
  1  6  1  0  0  0
  1 13  1  0  0  0
  2  3  1  0  0  0
  2 10  2  0  0  0
  3  4  2  0  0  0
  3  7  1  0  0  0
  4  5  1  0  0  0
  4  9  1  0  0  0
  5  6  1  0  0  0
  5 12  1  0  0  0
  6 11  2  0  0  0
  7  8  1  0  0  0
  7 20  1  0  0  0
  8  9  2  0  0  0
 13 14  1  0  0  0
 14 15  1  0  0  0
 15 16  1  0  0  0
 16 17  1  0  0  0
 17 18  1  0  0  0
 17 19  2  0  0  0
 20 21  1  0  0  0
 21 22  1  0  0  0
M  END
> <minimizedAffinity>
-7.18626

$$$$
3ARX_POY_A_606


 22 23  0  0  0  0  0  0  0  0999 V2000
   15.9705  -11.9383   19.1726 N   0  0  0  0  0  0  0  0  0  0  0  0
   17.1679  -12.5206   18.9125 C   0  0  0  0  0  0  0  0  0  0  0  0
   18.2921  -11.9185   19.4753 C   0  0  0  0  0  0  0  0  0  0  0  0
   18.2148  -10.8251   20.2916 C   0  0  0  0  0  0  0  0  0  0  0  0
   17.0253  -10.2167   20.5411 N   0  0  0  0  0  0  0  0  0  0  0  0
   15.8874  -10.7722   19.9906 C   0  0  0  0  0  0  0  0  0  0  0  0
   19.5840  -12.2070   19.4897 N   0  0  0  0  0  0  0  0  0  0  0  0
   20.2650  -11.2085   20.2447 C   0  0  0  0  0  0  0  0  0  0  0  0
   19.4412  -10.3869   20.7643 N   0  0  0  0  0  0  0  0  0  0  0  0
   17.2228  -13.4547   18.0945 O   0  0  0  0  0  0  0  0  0  0  0  0
   14.7807  -10.2600   20.2282 O   0  0  0  0  0  0  0  0  0  0  0  0
   17.0761   -8.9756   21.4027 C   0  0  0  0  0  0  0  0  0  0  0  0
   14.7061  -12.5445   18.5626 C   0  0  0  0  0  0  0  0  0  0  0  0
   14.4377  -11.9083   17.1688 C   0  0  0  0  0  0  0  0  0  0  0  0
   14.3629  -12.9758   15.9695 C   0  0  0  0  0  0  0  0  0  0  0  0
   15.6276  -12.6067   15.1324 C   0  0  0  0  0  0  0  0  0  0  0  0
   16.1398  -13.7958   14.3747 C   0  0  0  0  0  0  0  0  0  0  0  0
   16.4838  -14.9629   15.0420 C   0  0  0  0  0  0  0  0  0  0  0  0
   16.0762  -13.7953   13.0815 O   0  0  0  0  0  0  0  0  0  0  0  0
   20.1304  -13.3185   18.7801 C   0  0  0  0  0  0  0  0  0  0  0  0
   20.6697  -12.9505   17.4107 C   0  0  0  0  0  0  0  0  0  0  0  0
   20.1018  -11.7143   16.6857 C   0  0  0  0  0  0  0  0  0  0  0  0
  1  2  1  0  0  0
  1  6  1  0  0  0
  1 13  1  0  0  0
  2  3  1  0  0  0
  2 10  2  0  0  0
  3  4  2  0  0  0
  3  7  1  0  0  0
  4  5  1  0  0  0
  4  9  1  0  0  0
  5  6  1  0  0  0
  5 12  1  0  0  0
  6 11  2  0  0  0
  7  8  1  0  0  0
  7 20  1  0  0  0
  8  9  2  0  0  0
 13 14  1  0  0  0
 14 15  1  0  0  0
 15 16  1  0  0  0
 16 17  1  0  0  0
 17 18  1  0  0  0
 17 19  2  0  0  0
 20 21  1  0  0  0
 21 22  1  0  0  0
M  END
> <minimizedAffinity>
-6.87869

$$$$
3ARX_POY_A_606


 22 23  0  0  0  0  0  0  0  0999 V2000
   18.5753  -12.6963   18.1016 N   0  0  0  0  0  0  0  0  0  0  0  0
   18.0255  -11.7765   18.9336 C   0  0  0  0  0  0  0  0  0  0  0  0
   16.6333  -11.7146   18.9657 C   0  0  0  0  0  0  0  0  0  0  0  0
   15.8386  -12.5591   18.2425 C   0  0  0  0  0  0  0  0  0  0  0  0
   16.3749  -13.4686   17.3866 N   0  0  0  0  0  0  0  0  0  0  0  0
   17.7511  -13.5532   17.3128 C   0  0  0  0  0  0  0  0  0  0  0  0
   15.7565  -11.0066   19.6603 N   0  0  0  0  0  0  0  0  0  0  0  0
   14.4434  -11.3851   19.2562 C   0  0  0  0  0  0  0  0  0  0  0  0
   14.4812  -12.3493   18.4241 N   0  0  0  0  0  0  0  0  0  0  0  0
   18.7654  -10.9597   19.5082 O   0  0  0  0  0  0  0  0  0  0  0  0
   18.2723  -14.3982   16.5659 O   0  0  0  0  0  0  0  0  0  0  0  0
   15.3936  -14.2989   16.5911 C   0  0  0  0  0  0  0  0  0  0  0  0
   20.0986  -12.7931   18.0105 C   0  0  0  0  0  0  0  0  0  0  0  0
   20.6094  -11.9350   16.8179 C   0  0  0  0  0  0  0  0  0  0  0  0
   22.1716  -12.1332   16.4954 C   0  0  0  0  0  0  0  0  0  0  0  0
   22.2976  -11.4587   15.0934 C   0  0  0  0  0  0  0  0  0  0  0  0
   23.4169  -10.4601   15.0730 C   0  0  0  0  0  0  0  0  0  0  0  0
   23.6333   -9.6656   13.9558 C   0  0  0  0  0  0  0  0  0  0  0  0
   24.0568  -10.2067   16.1696 O   0  0  0  0  0  0  0  0  0  0  0  0
   16.1491   -9.9994   20.5926 C   0  0  0  0  0  0  0  0  0  0  0  0
   15.0298   -9.5739   21.5241 C   0  0  0  0  0  0  0  0  0  0  0  0
   15.3626   -8.7027   22.7515 C   0  0  0  0  0  0  0  0  0  0  0  0
  1  2  1  0  0  0
  1  6  1  0  0  0
  1 13  1  0  0  0
  2  3  1  0  0  0
  2 10  2  0  0  0
  3  4  2  0  0  0
  3  7  1  0  0  0
  4  5  1  0  0  0
  4  9  1  0  0  0
  5  6  1  0  0  0
  5 12  1  0  0  0
  6 11  2  0  0  0
  7  8  1  0  0  0
  7 20  1  0  0  0
  8  9  2  0  0  0
 13 14  1  0  0  0
 14 15  1  0  0  0
 15 16  1  0  0  0
 16 17  1  0  0  0
 17 18  1  0  0  0
 17 19  2  0  0  0
 20 21  1  0  0  0
 21 22  1  0  0  0
M  END
> <minimizedAffinity>
-6.71417

$$$$
3ARX_POY_A_606


 22 23  0  0  0  0  0  0  0  0999 V2000
   16.1644  -10.7606   19.9094 N   0  0  0  0  0  0  0  0  0  0  0  0
   16.9755  -10.0597   20.7409 C   0  0  0  0  0  0  0  0  0  0  0  0
   16.3588   -9.3774   21.7884 C   0  0  0  0  0  0  0  0  0  0  0  0
   15.0127   -9.4348   22.0175 C   0  0  0  0  0  0  0  0  0  0  0  0
   14.1851  -10.1125   21.1790 N   0  0  0  0  0  0  0  0  0  0  0  0
   14.7534  -10.7908   20.1191 C   0  0  0  0  0  0  0  0  0  0  0  0
   16.7998   -8.6477   22.8012 N   0  0  0  0  0  0  0  0  0  0  0  0
   15.6806   -8.2023   23.5626 C   0  0  0  0  0  0  0  0  0  0  0  0
   14.5965   -8.7024   23.1175 N   0  0  0  0  0  0  0  0  0  0  0  0
   18.1806   -9.9460   20.4588 O   0  0  0  0  0  0  0  0  0  0  0  0
   14.0277  -11.4484   19.3546 O   0  0  0  0  0  0  0  0  0  0  0  0
   12.7089  -10.0461   21.4975 C   0  0  0  0  0  0  0  0  0  0  0  0
   16.7855  -11.5105   18.7304 C   0  0  0  0  0  0  0  0  0  0  0  0
   17.0460  -12.9916   19.1279 C   0  0  0  0  0  0  0  0  0  0  0  0
   17.1052  -14.0003   17.8778 C   0  0  0  0  0  0  0  0  0  0  0  0
   16.5404  -13.1141   16.7237 C   0  0  0  0  0  0  0  0  0  0  0  0
   16.4459  -13.8901   15.4434 C   0  0  0  0  0  0  0  0  0  0  0  0
   16.1281  -13.2514   14.2530 C   0  0  0  0  0  0  0  0  0  0  0  0
   16.8508  -15.1197   15.4193 O   0  0  0  0  0  0  0  0  0  0  0  0
   18.1831   -8.3476   22.9863 C   0  0  0  0  0  0  0  0  0  0  0  0
   18.4574   -6.8666   23.1674 C   0  0  0  0  0  0  0  0  0  0  0  0
   19.7222   -6.4233   23.9292 C   0  0  0  0  0  0  0  0  0  0  0  0
  1  2  1  0  0  0
  1  6  1  0  0  0
  1 13  1  0  0  0
  2  3  1  0  0  0
  2 10  2  0  0  0
  3  4  2  0  0  0
  3  7  1  0  0  0
  4  5  1  0  0  0
  4  9  1  0  0  0
  5  6  1  0  0  0
  5 12  1  0  0  0
  6 11  2  0  0  0
  7  8  1  0  0  0
  7 20  1  0  0  0
  8  9  2  0  0  0
 13 14  1  0  0  0
 14 15  1  0  0  0
 15 16  1  0  0  0
 16 17  1  0  0  0
 17 18  1  0  0  0
 17 19  2  0  0  0
 20 21  1  0  0  0
 21 22  1  0  0  0
M  END
> <minimizedAffinity>
-6.63582

$$$$
3ARX_POY_A_606


 22 23  0  0  0  0  0  0  0  0999 V2000
   17.1329  -10.1808   20.2808 N   0  0  0  0  0  0  0  0  0  0  0  0
   16.5965  -11.0624   19.4003 C   0  0  0  0  0  0  0  0  0  0  0  0
   17.4264  -12.0933   18.9625 C   0  0  0  0  0  0  0  0  0  0  0  0
   18.7039  -12.2586   19.4189 C   0  0  0  0  0  0  0  0  0  0  0  0
   19.2627  -11.3697   20.2819 N   0  0  0  0  0  0  0  0  0  0  0  0
   18.4797  -10.3242   20.7296 C   0  0  0  0  0  0  0  0  0  0  0  0
   17.2588  -13.1393   18.1686 N   0  0  0  0  0  0  0  0  0  0  0  0
   18.4880  -13.8566   18.0951 C   0  0  0  0  0  0  0  0  0  0  0  0
   19.3592  -13.3521   18.8762 N   0  0  0  0  0  0  0  0  0  0  0  0
   15.4681  -10.8387   18.9297 O   0  0  0  0  0  0  0  0  0  0  0  0
   18.9501   -9.5143   21.5460 O   0  0  0  0  0  0  0  0  0  0  0  0
   20.7045  -11.6206   20.6610 C   0  0  0  0  0  0  0  0  0  0  0  0
   16.2739   -9.0174   20.7777 C   0  0  0  0  0  0  0  0  0  0  0  0
   15.7518   -9.3240   22.2105 C   0  0  0  0  0  0  0  0  0  0  0  0
   15.3255   -8.0160   23.0417 C   0  0  0  0  0  0  0  0  0  0  0  0
   13.8519   -8.3508   23.4327 C   0  0  0  0  0  0  0  0  0  0  0  0
   12.9802   -8.4538   22.2161 C   0  0  0  0  0  0  0  0  0  0  0  0
   12.0807   -9.5017   22.0793 C   0  0  0  0  0  0  0  0  0  0  0  0
   12.9322   -7.4596   21.3881 O   0  0  0  0  0  0  0  0  0  0  0  0
   16.0330  -13.3941   17.4828 C   0  0  0  0  0  0  0  0  0  0  0  0
   16.0639  -14.6604   16.6479 C   0  0  0  0  0  0  0  0  0  0  0  0
   16.3724  -14.5608   15.1409 C   0  0  0  0  0  0  0  0  0  0  0  0
  1  2  1  0  0  0
  1  6  1  0  0  0
  1 13  1  0  0  0
  2  3  1  0  0  0
  2 10  2  0  0  0
  3  4  2  0  0  0
  3  7  1  0  0  0
  4  5  1  0  0  0
  4  9  1  0  0  0
  5  6  1  0  0  0
  5 12  1  0  0  0
  6 11  2  0  0  0
  7  8  1  0  0  0
  7 20  1  0  0  0
  8  9  2  0  0  0
 13 14  1  0  0  0
 14 15  1  0  0  0
 15 16  1  0  0  0
 16 17  1  0  0  0
 17 18  1  0  0  0
 17 19  2  0  0  0
 20 21  1  0  0  0
 21 22  1  0  0  0
M  END
> <minimizedAffinity>
-6.63430

$$$$
3ARX_POY_A_606


 22 23  0  0  0  0  0  0  0  0999 V2000
   18.6518  -11.6019   19.0239 N   0  0  0  0  0  0  0  0  0  0  0  0
   17.9232  -12.2841   18.1050 C   0  0  0  0  0  0  0  0  0  0  0  0
   16.5391  -12.1294   18.1633 C   0  0  0  0  0  0  0  0  0  0  0  0
   15.9248  -11.3004   19.0595 C   0  0  0  0  0  0  0  0  0  0  0  0
   16.6395  -10.6300   20.0015 N   0  0  0  0  0  0  0  0  0  0  0  0
   18.0134  -10.7669   19.9888 C   0  0  0  0  0  0  0  0  0  0  0  0
   15.5286  -12.5774   17.4349 N   0  0  0  0  0  0  0  0  0  0  0  0
   14.3136  -12.0742   17.9836 C   0  0  0  0  0  0  0  0  0  0  0  0
   14.5443  -11.2714   18.9459 N   0  0  0  0  0  0  0  0  0  0  0  0
   18.4950  -13.1014   17.3633 O   0  0  0  0  0  0  0  0  0  0  0  0
   18.6977  -10.1399   20.8147 O   0  0  0  0  0  0  0  0  0  0  0  0
   15.8423   -9.7983   20.9802 C   0  0  0  0  0  0  0  0  0  0  0  0
   20.1735  -11.7519   19.0196 C   0  0  0  0  0  0  0  0  0  0  0  0
   20.5960  -12.8531   20.0338 C   0  0  0  0  0  0  0  0  0  0  0  0
   21.6465  -13.9154   19.4410 C   0  0  0  0  0  0  0  0  0  0  0  0
   21.8723  -13.3708   17.9958 C   0  0  0  0  0  0  0  0  0  0  0  0
   21.7910  -14.4750   16.9835 C   0  0  0  0  0  0  0  0  0  0  0  0
   22.7528  -14.5936   15.9901 C   0  0  0  0  0  0  0  0  0  0  0  0
   20.9317  -15.4279   17.1566 O   0  0  0  0  0  0  0  0  0  0  0  0
   15.7107  -13.4711   16.3368 C   0  0  0  0  0  0  0  0  0  0  0  0
   15.9521  -12.7611   15.0180 C   0  0  0  0  0  0  0  0  0  0  0  0
   16.0143  -13.5880   13.7186 C   0  0  0  0  0  0  0  0  0  0  0  0
  1  2  1  0  0  0
  1  6  1  0  0  0
  1 13  1  0  0  0
  2  3  1  0  0  0
  2 10  2  0  0  0
  3  4  2  0  0  0
  3  7  1  0  0  0
  4  5  1  0  0  0
  4  9  1  0  0  0
  5  6  1  0  0  0
  5 12  1  0  0  0
  6 11  2  0  0  0
  7  8  1  0  0  0
  7 20  1  0  0  0
  8  9  2  0  0  0
 13 14  1  0  0  0
 14 15  1  0  0  0
 15 16  1  0  0  0
 16 17  1  0  0  0
 17 18  1  0  0  0
 17 19  2  0  0  0
 20 21  1  0  0  0
 21 22  1  0  0  0
M  END
> <minimizedAffinity>
-6.60704

$$$$
3ARX_POY_A_606


 22 23  0  0  0  0  0  0  0  0999 V2000
   19.0385  -11.7930   18.5769 N   0  0  0  0  0  0  0  0  0  0  0  0
   18.3530  -11.0137   19.4505 C   0  0  0  0  0  0  0  0  0  0  0  0
   19.0375  -10.6028   20.5932 C   0  0  0  0  0  0  0  0  0  0  0  0
   20.3483  -10.9147   20.8222 C   0  0  0  0  0  0  0  0  0  0  0  0
   21.0401  -11.7147   19.9686 N   0  0  0  0  0  0  0  0  0  0  0  0
   20.3947  -12.1564   18.8307 C   0  0  0  0  0  0  0  0  0  0  0  0
   18.7355   -9.8242   21.6203 N   0  0  0  0  0  0  0  0  0  0  0  0
   19.8581   -9.7705   22.4964 C   0  0  0  0  0  0  0  0  0  0  0  0
   20.8520  -10.3983   22.0051 N   0  0  0  0  0  0  0  0  0  0  0  0
   17.1386  -10.8217   19.2679 O   0  0  0  0  0  0  0  0  0  0  0  0
   21.0106  -12.8606   18.0131 O   0  0  0  0  0  0  0  0  0  0  0  0
   22.4613  -12.0448   20.3642 C   0  0  0  0  0  0  0  0  0  0  0  0
   18.3293  -12.2904   17.3168 C   0  0  0  0  0  0  0  0  0  0  0  0
   17.6089  -13.6363   17.6155 C   0  0  0  0  0  0  0  0  0  0  0  0
   16.6738  -14.1545   16.4153 C   0  0  0  0  0  0  0  0  0  0  0  0
   15.9120  -12.8516   16.0170 C   0  0  0  0  0  0  0  0  0  0  0  0
   14.5846  -12.7684   16.7110 C   0  0  0  0  0  0  0  0  0  0  0  0
   13.5503  -13.6247   16.3605 C   0  0  0  0  0  0  0  0  0  0  0  0
   14.4699  -12.0280   17.7670 O   0  0  0  0  0  0  0  0  0  0  0  0
   17.4474   -9.2303   21.7809 C   0  0  0  0  0  0  0  0  0  0  0  0
   17.3116   -8.4268   23.0605 C   0  0  0  0  0  0  0  0  0  0  0  0
   17.4971   -6.8972   23.0118 C   0  0  0  0  0  0  0  0  0  0  0  0
  1  2  1  0  0  0
  1  6  1  0  0  0
  1 13  1  0  0  0
  2  3  1  0  0  0
  2 10  2  0  0  0
  3  4  2  0  0  0
  3  7  1  0  0  0
  4  5  1  0  0  0
  4  9  1  0  0  0
  5  6  1  0  0  0
  5 12  1  0  0  0
  6 11  2  0  0  0
  7  8  1  0  0  0
  7 20  1  0  0  0
  8  9  2  0  0  0
 13 14  1  0  0  0
 14 15  1  0  0  0
 15 16  1  0  0  0
 16 17  1  0  0  0
 17 18  1  0  0  0
 17 19  2  0  0  0
 20 21  1  0  0  0
 21 22  1  0  0  0
M  END
> <minimizedAffinity>
-6.57984

$$$$
3ARX_POY_A_606


 22 23  0  0  0  0  0  0  0  0999 V2000
   18.2058  -10.4731   20.0646 N   0  0  0  0  0  0  0  0  0  0  0  0
   17.3540   -9.6920   20.7750 C   0  0  0  0  0  0  0  0  0  0  0  0
   17.8232   -9.2001   21.9919 C   0  0  0  0  0  0  0  0  0  0  0  0
   19.0900   -9.4374   22.4465 C   0  0  0  0  0  0  0  0  0  0  0  0
   19.9456  -10.2380   21.7578 N   0  0  0  0  0  0  0  0  0  0  0  0
   19.5154  -10.7586   20.5535 C   0  0  0  0  0  0  0  0  0  0  0  0
   17.3240   -8.3944   22.9161 N   0  0  0  0  0  0  0  0  0  0  0  0
   18.2836   -8.2487   23.9595 C   0  0  0  0  0  0  0  0  0  0  0  0
   19.3701   -8.8474   23.6684 N   0  0  0  0  0  0  0  0  0  0  0  0
   16.1795   -9.5676   20.3878 O   0  0  0  0  0  0  0  0  0  0  0  0
   20.2863  -11.4658   19.8831 O   0  0  0  0  0  0  0  0  0  0  0  0
   21.2945  -10.4811   22.3954 C   0  0  0  0  0  0  0  0  0  0  0  0
   17.7353  -11.0576   18.7322 C   0  0  0  0  0  0  0  0  0  0  0  0
   16.9485  -12.3754   18.9847 C   0  0  0  0  0  0  0  0  0  0  0  0
   15.5695  -12.4775   18.1653 C   0  0  0  0  0  0  0  0  0  0  0  0
   16.0787  -12.7174   16.7094 C   0  0  0  0  0  0  0  0  0  0  0  0
   16.2987  -14.1781   16.4478 C   0  0  0  0  0  0  0  0  0  0  0  0
   15.2265  -15.0144   16.1703 C   0  0  0  0  0  0  0  0  0  0  0  0
   17.5069  -14.6163   16.2909 O   0  0  0  0  0  0  0  0  0  0  0  0
   16.0036   -7.8580   22.8351 C   0  0  0  0  0  0  0  0  0  0  0  0
   15.2406   -7.9397   24.1438 C   0  0  0  0  0  0  0  0  0  0  0  0
   13.7331   -7.6179   24.1573 C   0  0  0  0  0  0  0  0  0  0  0  0
  1  2  1  0  0  0
  1  6  1  0  0  0
  1 13  1  0  0  0
  2  3  1  0  0  0
  2 10  2  0  0  0
  3  4  2  0  0  0
  3  7  1  0  0  0
  4  5  1  0  0  0
  4  9  1  0  0  0
  5  6  1  0  0  0
  5 12  1  0  0  0
  6 11  2  0  0  0
  7  8  1  0  0  0
  7 20  1  0  0  0
  8  9  2  0  0  0
 13 14  1  0  0  0
 14 15  1  0  0  0
 15 16  1  0  0  0
 16 17  1  0  0  0
 17 18  1  0  0  0
 17 19  2  0  0  0
 20 21  1  0  0  0
 21 22  1  0  0  0
M  END
> <minimizedAffinity>
-6.56455

$$$$
3ARX_POY_A_606


 22 23  0  0  0  0  0  0  0  0999 V2000
   17.7048  -12.7206   18.5856 N   0  0  0  0  0  0  0  0  0  0  0  0
   18.8028  -13.3078   18.0470 C   0  0  0  0  0  0  0  0  0  0  0  0
   20.0407  -12.8552   18.5006 C   0  0  0  0  0  0  0  0  0  0  0  0
   20.1692  -11.9039   19.4733 C   0  0  0  0  0  0  0  0  0  0  0  0
   19.0792  -11.2895   20.0042 N   0  0  0  0  0  0  0  0  0  0  0  0
   17.8330  -11.6975   19.5718 C   0  0  0  0  0  0  0  0  0  0  0  0
   21.2954  -13.2009   18.2582 N   0  0  0  0  0  0  0  0  0  0  0  0
   22.1547  -12.3678   19.0317 C   0  0  0  0  0  0  0  0  0  0  0  0
   21.4822  -11.6031   19.7975 N   0  0  0  0  0  0  0  0  0  0  0  0
   18.6633  -14.1009   17.1002 O   0  0  0  0  0  0  0  0  0  0  0  0
   16.8159  -11.1799   20.0630 O   0  0  0  0  0  0  0  0  0  0  0  0
   19.3514  -10.2055   21.0221 C   0  0  0  0  0  0  0  0  0  0  0  0
   16.3211  -13.1634   18.1086 C   0  0  0  0  0  0  0  0  0  0  0  0
   15.7899  -12.1666   17.0391 C   0  0  0  0  0  0  0  0  0  0  0  0
   14.6967  -12.7996   16.0453 C   0  0  0  0  0  0  0  0  0  0  0  0
   15.1307  -14.2983   16.0040 C   0  0  0  0  0  0  0  0  0  0  0  0
   16.0041  -14.5753   14.8160 C   0  0  0  0  0  0  0  0  0  0  0  0
   16.0517  -13.6850   13.7525 C   0  0  0  0  0  0  0  0  0  0  0  0
   16.8572  -15.5475   14.8729 O   0  0  0  0  0  0  0  0  0  0  0  0
   21.6445  -14.2086   17.3092 C   0  0  0  0  0  0  0  0  0  0  0  0
   22.1955  -15.4697   17.9476 C   0  0  0  0  0  0  0  0  0  0  0  0
   21.3374  -16.2271   18.9803 C   0  0  0  0  0  0  0  0  0  0  0  0
  1  2  1  0  0  0
  1  6  1  0  0  0
  1 13  1  0  0  0
  2  3  1  0  0  0
  2 10  2  0  0  0
  3  4  2  0  0  0
  3  7  1  0  0  0
  4  5  1  0  0  0
  4  9  1  0  0  0
  5  6  1  0  0  0
  5 12  1  0  0  0
  6 11  2  0  0  0
  7  8  1  0  0  0
  7 20  1  0  0  0
  8  9  2  0  0  0
 13 14  1  0  0  0
 14 15  1  0  0  0
 15 16  1  0  0  0
 16 17  1  0  0  0
 17 18  1  0  0  0
 17 19  2  0  0  0
 20 21  1  0  0  0
 21 22  1  0  0  0
M  END
> <minimizedAffinity>
-6.38790

$$$$
