5MRM_Q9T_A_401


 19 20  0  0  0  0  0  0  0  0999 V2000
   14.2149   30.0250  -17.5474 C   0  0  0  0  0  0  0  0  0  0  0  0
   15.3306   29.5058  -16.8649 C   0  0  0  0  0  0  0  0  0  0  0  0
   15.5907   30.0450  -15.5817 C   0  0  0  0  0  0  0  0  0  0  0  0
   14.7740   31.0200  -14.9980 C   0  0  0  0  0  0  0  0  0  0  0  0
   13.4005   31.0013  -16.9777 C   0  0  0  0  0  0  0  0  0  0  0  0
   11.9226   31.6607  -17.8789 Br  0  0  0  0  0  0  0  0  0  0  0  0
   13.6789   31.4915  -15.7096 C   0  0  0  0  0  0  0  0  0  0  0  0
   15.0989   31.7605  -13.2680 Br  0  0  0  0  0  0  0  0  0  0  0  0
   16.6442   29.6143  -14.8475 O   0  0  0  0  0  0  0  0  0  0  0  0
   17.2212   28.9622  -15.1937 H   0  0  0  0  0  0  0  0  0  0  0  0
   16.0753   28.5823  -17.5226 C   0  0  0  0  0  0  0  0  0  0  0  0
   16.5752   28.5640  -18.7672 C   0  0  0  0  0  0  0  0  0  0  0  0
   17.2058   27.3887  -18.8964 C   0  0  0  0  0  0  0  0  0  0  0  0
   17.1106   26.6641  -17.7919 N   0  0  0  0  0  0  0  0  0  0  0  0
   16.4071   27.3787  -16.9368 O   0  0  0  0  0  0  0  0  0  0  0  0
   17.4280   27.4104  -21.2126 F   0  0  0  0  0  0  0  0  0  0  0  0
   17.9502   26.8747  -20.1251 C   0  0  0  0  0  0  0  0  0  0  0  0
   17.8164   25.5143  -20.1617 F   0  0  0  0  0  0  0  0  0  0  0  0
   19.2414   27.1808  -20.0461 F   0  0  0  0  0  0  0  0  0  0  0  0
 18 17  1  0  0  0
 14 15  1  0  0  0
 14 13  2  0  0  0
 17 19  1  0  0  0
 17 13  1  0  0  0
 17 16  1  0  0  0
 15 11  1  0  0  0
 13 12  1  0  0  0
 11 12  2  0  0  0
 11  2  1  0  0  0
  1  2  2  0  0  0
  1  5  1  0  0  0
  6  5  1  0  0  0
  2  3  1  0  0  0
  5  7  2  0  0  0
  3  9  1  0  0  0
  3  4  2  0  0  0
  7  4  1  0  0  0
  4  8  1  0  0  0
  9 10  1  0  0  0
M  END
> <minimizedAffinity>
-8.72333

$$$$
5MRM_Q9T_A_401


 19 20  0  0  0  0  0  0  0  0999 V2000
   15.6351   29.9230  -15.8163 C   0  0  0  0  0  0  0  0  0  0  0  0
   15.2477   29.4987  -17.1008 C   0  0  0  0  0  0  0  0  0  0  0  0
   14.0525   30.0577  -17.6148 C   0  0  0  0  0  0  0  0  0  0  0  0
   13.3028   31.0046  -16.9083 C   0  0  0  0  0  0  0  0  0  0  0  0
   14.8910   30.8596  -15.1020 C   0  0  0  0  0  0  0  0  0  0  0  0
   15.4241   31.4251  -13.4206 Br  0  0  0  0  0  0  0  0  0  0  0  0
   13.7343   31.3976  -15.6483 C   0  0  0  0  0  0  0  0  0  0  0  0
   11.6907   31.7778  -17.5796 Br  0  0  0  0  0  0  0  0  0  0  0  0
   13.5934   29.7091  -18.8404 O   0  0  0  0  0  0  0  0  0  0  0  0
   14.0597   29.0789  -19.3536 H   0  0  0  0  0  0  0  0  0  0  0  0
   16.0250   28.5595  -17.6957 C   0  0  0  0  0  0  0  0  0  0  0  0
   16.5875   28.5098  -18.9124 C   0  0  0  0  0  0  0  0  0  0  0  0
   17.2240   27.3325  -18.9789 C   0  0  0  0  0  0  0  0  0  0  0  0
   17.0729   26.6365  -17.8622 N   0  0  0  0  0  0  0  0  0  0  0  0
   16.3268   27.3720  -17.0628 O   0  0  0  0  0  0  0  0  0  0  0  0
   17.8943   25.4763  -20.2116 F   0  0  0  0  0  0  0  0  0  0  0  0
   18.0300   26.7879  -20.1545 C   0  0  0  0  0  0  0  0  0  0  0  0
   19.3425   27.1154  -19.9546 F   0  0  0  0  0  0  0  0  0  0  0  0
   17.6158   27.3350  -21.2931 F   0  0  0  0  0  0  0  0  0  0  0  0
 18 17  1  0  0  0
 14 15  1  0  0  0
 14 13  2  0  0  0
 17 19  1  0  0  0
 17 13  1  0  0  0
 17 16  1  0  0  0
 15 11  1  0  0  0
 13 12  1  0  0  0
 11 12  2  0  0  0
 11  2  1  0  0  0
  1  2  2  0  0  0
  1  5  1  0  0  0
  6  5  1  0  0  0
  2  3  1  0  0  0
  5  7  2  0  0  0
  3  9  1  0  0  0
  3  4  2  0  0  0
  7  4  1  0  0  0
  4  8  1  0  0  0
  9 10  1  0  0  0
M  END
> <minimizedAffinity>
-8.21459

$$$$
5MRM_Q9T_A_401


 19 20  0  0  0  0  0  0  0  0999 V2000
   16.7710   27.9323  -18.9248 C   0  0  0  0  0  0  0  0  0  0  0  0
   16.3925   28.1140  -17.5818 C   0  0  0  0  0  0  0  0  0  0  0  0
   17.0379   27.2892  -16.6287 C   0  0  0  0  0  0  0  0  0  0  0  0
   18.0223   26.3606  -16.9843 C   0  0  0  0  0  0  0  0  0  0  0  0
   17.7445   27.0048  -19.2895 C   0  0  0  0  0  0  0  0  0  0  0  0
   18.2482   26.7909  -21.0591 Br  0  0  0  0  0  0  0  0  0  0  0  0
   18.3668   26.2275  -18.3228 C   0  0  0  0  0  0  0  0  0  0  0  0
   18.9115   25.2397  -15.7193 Br  0  0  0  0  0  0  0  0  0  0  0  0
   16.7389   27.3851  -15.3111 O   0  0  0  0  0  0  0  0  0  0  0  0
   16.0866   27.9922  -15.0216 H   0  0  0  0  0  0  0  0  0  0  0  0
   15.4124   29.0198  -17.3391 C   0  0  0  0  0  0  0  0  0  0  0  0
   14.4447   29.5164  -18.1242 C   0  0  0  0  0  0  0  0  0  0  0  0
   13.7772   30.4036  -17.3739 C   0  0  0  0  0  0  0  0  0  0  0  0
   14.2933   30.4947  -16.1576 N   0  0  0  0  0  0  0  0  0  0  0  0
   15.3099   29.6570  -16.1204 O   0  0  0  0  0  0  0  0  0  0  0  0
   12.0230   30.7162  -18.8704 F   0  0  0  0  0  0  0  0  0  0  0  0
   12.5765   31.2455  -17.7954 C   0  0  0  0  0  0  0  0  0  0  0  0
   13.0220   32.5086  -18.0708 F   0  0  0  0  0  0  0  0  0  0  0  0
   11.6847   31.3059  -16.8114 F   0  0  0  0  0  0  0  0  0  0  0  0
 18 17  1  0  0  0
 14 15  1  0  0  0
 14 13  2  0  0  0
 17 19  1  0  0  0
 17 13  1  0  0  0
 17 16  1  0  0  0
 15 11  1  0  0  0
 13 12  1  0  0  0
 11 12  2  0  0  0
 11  2  1  0  0  0
  1  2  2  0  0  0
  1  5  1  0  0  0
  6  5  1  0  0  0
  2  3  1  0  0  0
  5  7  2  0  0  0
  3  9  1  0  0  0
  3  4  2  0  0  0
  7  4  1  0  0  0
  4  8  1  0  0  0
  9 10  1  0  0  0
M  END
> <minimizedAffinity>
-7.81443

$$$$
5MRM_Q9T_A_401


 19 20  0  0  0  0  0  0  0  0999 V2000
   14.5213   29.7410  -17.6668 C   0  0  0  0  0  0  0  0  0  0  0  0
   15.6181   29.3594  -16.8722 C   0  0  0  0  0  0  0  0  0  0  0  0
   15.7272   29.9858  -15.6070 C   0  0  0  0  0  0  0  0  0  0  0  0
   14.7867   30.9134  -15.1455 C   0  0  0  0  0  0  0  0  0  0  0  0
   13.5839   30.6694  -17.2191 C   0  0  0  0  0  0  0  0  0  0  0  0
   12.1331   31.1468  -18.2671 Br  0  0  0  0  0  0  0  0  0  0  0  0
   13.7166   31.2479  -15.9647 C   0  0  0  0  0  0  0  0  0  0  0  0
   14.9072   31.7692  -13.4425 Br  0  0  0  0  0  0  0  0  0  0  0  0
   16.7508   29.6893  -14.7709 O   0  0  0  0  0  0  0  0  0  0  0  0
   17.4069   29.0740  -15.0333 H   0  0  0  0  0  0  0  0  0  0  0  0
   16.4888   28.4727  -17.4159 C   0  0  0  0  0  0  0  0  0  0  0  0
   16.9164   27.2727  -16.9955 C   0  0  0  0  0  0  0  0  0  0  0  0
   17.7995   26.8519  -17.9114 C   0  0  0  0  0  0  0  0  0  0  0  0
   17.9543   27.7422  -18.8797 N   0  0  0  0  0  0  0  0  0  0  0  0
   17.1626   28.7539  -18.5859 O   0  0  0  0  0  0  0  0  0  0  0  0
   18.3617   24.9057  -16.7667 F   0  0  0  0  0  0  0  0  0  0  0  0
   18.5743   25.5375  -17.9058 C   0  0  0  0  0  0  0  0  0  0  0  0
   19.9034   25.8300  -18.0390 F   0  0  0  0  0  0  0  0  0  0  0  0
   18.1952   24.7721  -18.9245 F   0  0  0  0  0  0  0  0  0  0  0  0
 18 17  1  0  0  0
 14 15  1  0  0  0
 14 13  2  0  0  0
 17 19  1  0  0  0
 17 13  1  0  0  0
 17 16  1  0  0  0
 15 11  1  0  0  0
 13 12  1  0  0  0
 11 12  2  0  0  0
 11  2  1  0  0  0
  1  2  2  0  0  0
  1  5  1  0  0  0
  6  5  1  0  0  0
  2  3  1  0  0  0
  5  7  2  0  0  0
  3  9  1  0  0  0
  3  4  2  0  0  0
  7  4  1  0  0  0
  4  8  1  0  0  0
  9 10  1  0  0  0
M  END
> <minimizedAffinity>
-7.12570

$$$$
5MRM_Q9T_A_401


 19 20  0  0  0  0  0  0  0  0999 V2000
   20.1967   24.0652  -15.8138 C   0  0  0  0  0  0  0  0  0  0  0  0
   18.8731   24.5399  -15.7607 C   0  0  0  0  0  0  0  0  0  0  0  0
   18.0860   24.0901  -14.6729 C   0  0  0  0  0  0  0  0  0  0  0  0
   18.5920   23.2435  -13.6804 C   0  0  0  0  0  0  0  0  0  0  0  0
   20.7071   23.2158  -14.8345 C   0  0  0  0  0  0  0  0  0  0  0  0
   22.4579   22.6153  -14.9055 Br  0  0  0  0  0  0  0  0  0  0  0  0
   19.9084   22.8117  -13.7739 C   0  0  0  0  0  0  0  0  0  0  0  0
   17.5544   22.6258  -12.2009 Br  0  0  0  0  0  0  0  0  0  0  0  0
   16.7982   24.4869  -14.5362 O   0  0  0  0  0  0  0  0  0  0  0  0
   16.4125   25.0542  -15.1745 H   0  0  0  0  0  0  0  0  0  0  0  0
   18.4667   25.3356  -16.7814 C   0  0  0  0  0  0  0  0  0  0  0  0
   18.9058   25.4597  -18.0428 C   0  0  0  0  0  0  0  0  0  0  0  0
   18.1583   26.4205  -18.6029 C   0  0  0  0  0  0  0  0  0  0  0  0
   17.2795   26.9134  -17.7432 N   0  0  0  0  0  0  0  0  0  0  0  0
   17.4620   26.2647  -16.6107 O   0  0  0  0  0  0  0  0  0  0  0  0
   17.9020   25.9866  -20.8745 F   0  0  0  0  0  0  0  0  0  0  0  0
   18.2521   26.9419  -20.0338 C   0  0  0  0  0  0  0  0  0  0  0  0
   19.5472   27.3166  -20.2627 F   0  0  0  0  0  0  0  0  0  0  0  0
   17.4609   27.9978  -20.1949 F   0  0  0  0  0  0  0  0  0  0  0  0
 18 17  1  0  0  0
 14 15  1  0  0  0
 14 13  2  0  0  0
 17 19  1  0  0  0
 17 13  1  0  0  0
 17 16  1  0  0  0
 15 11  1  0  0  0
 13 12  1  0  0  0
 11 12  2  0  0  0
 11  2  1  0  0  0
  1  2  2  0  0  0
  1  5  1  0  0  0
  6  5  1  0  0  0
  2  3  1  0  0  0
  5  7  2  0  0  0
  3  9  1  0  0  0
  3  4  2  0  0  0
  7  4  1  0  0  0
  4  8  1  0  0  0
  9 10  1  0  0  0
M  END
> <minimizedAffinity>
-6.93631

$$$$
5MRM_Q9T_A_401


 19 20  0  0  0  0  0  0  0  0999 V2000
   16.7307   27.5555  -16.7004 C   0  0  0  0  0  0  0  0  0  0  0  0
   16.1412   28.2706  -17.7593 C   0  0  0  0  0  0  0  0  0  0  0  0
   16.6563   28.0172  -19.0538 C   0  0  0  0  0  0  0  0  0  0  0  0
   17.6752   27.0870  -19.2870 C   0  0  0  0  0  0  0  0  0  0  0  0
   17.7510   26.6329  -16.9218 C   0  0  0  0  0  0  0  0  0  0  0  0
   18.5036   25.6831  -15.5209 Br  0  0  0  0  0  0  0  0  0  0  0  0
   18.2161   26.3999  -18.2084 C   0  0  0  0  0  0  0  0  0  0  0  0
   18.3847   26.7227  -21.0222 Br  0  0  0  0  0  0  0  0  0  0  0  0
   16.1585   28.6593  -20.1375 O   0  0  0  0  0  0  0  0  0  0  0  0
   15.4749   29.2918  -20.0343 H   0  0  0  0  0  0  0  0  0  0  0  0
   15.1784   29.1678  -17.4309 C   0  0  0  0  0  0  0  0  0  0  0  0
   14.1622   29.6826  -18.1393 C   0  0  0  0  0  0  0  0  0  0  0  0
   13.5440   30.5490  -17.3251 C   0  0  0  0  0  0  0  0  0  0  0  0
   14.1371   30.6098  -16.1424 N   0  0  0  0  0  0  0  0  0  0  0  0
   15.1542   29.7734  -16.1921 O   0  0  0  0  0  0  0  0  0  0  0  0
   12.6948   32.6409  -17.8881 F   0  0  0  0  0  0  0  0  0  0  0  0
   12.3184   31.3991  -17.6467 C   0  0  0  0  0  0  0  0  0  0  0  0
   11.4840   31.3639  -16.5640 F   0  0  0  0  0  0  0  0  0  0  0  0
   11.6781   30.9077  -18.7030 F   0  0  0  0  0  0  0  0  0  0  0  0
 18 17  1  0  0  0
 14 15  1  0  0  0
 14 13  2  0  0  0
 17 19  1  0  0  0
 17 13  1  0  0  0
 17 16  1  0  0  0
 15 11  1  0  0  0
 13 12  1  0  0  0
 11 12  2  0  0  0
 11  2  1  0  0  0
  1  2  2  0  0  0
  1  5  1  0  0  0
  6  5  1  0  0  0
  2  3  1  0  0  0
  5  7  2  0  0  0
  3  9  1  0  0  0
  3  4  2  0  0  0
  7  4  1  0  0  0
  4  8  1  0  0  0
  9 10  1  0  0  0
M  END
> <minimizedAffinity>
-6.82734

$$$$
5MRM_Q9T_A_401


 19 20  0  0  0  0  0  0  0  0999 V2000
   15.1473   26.3982  -12.3469 C   0  0  0  0  0  0  0  0  0  0  0  0
   16.2304   27.0817  -12.9298 C   0  0  0  0  0  0  0  0  0  0  0  0
   17.3096   26.2834  -13.3806 C   0  0  0  0  0  0  0  0  0  0  0  0
   17.3008   24.8874  -13.2860 C   0  0  0  0  0  0  0  0  0  0  0  0
   15.1328   25.0090  -12.2414 C   0  0  0  0  0  0  0  0  0  0  0  0
   13.6910   24.1207  -11.4909 Br  0  0  0  0  0  0  0  0  0  0  0  0
   16.2028   24.2608  -12.7117 C   0  0  0  0  0  0  0  0  0  0  0  0
   18.7400   23.7870  -13.8901 Br  0  0  0  0  0  0  0  0  0  0  0  0
   18.4004   26.8481  -13.9514 O   0  0  0  0  0  0  0  0  0  0  0  0
   18.4547   27.7795  -14.0381 H   0  0  0  0  0  0  0  0  0  0  0  0
   16.1582   28.4360  -12.9537 C   0  0  0  0  0  0  0  0  0  0  0  0
   15.1156   29.2740  -12.8522 C   0  0  0  0  0  0  0  0  0  0  0  0
   15.6199   30.5097  -12.9727 C   0  0  0  0  0  0  0  0  0  0  0  0
   16.9308   30.4817  -13.1594 N   0  0  0  0  0  0  0  0  0  0  0  0
   17.2798   29.2109  -13.1620 O   0  0  0  0  0  0  0  0  0  0  0  0
   14.8753   32.3047  -11.6930 F   0  0  0  0  0  0  0  0  0  0  0  0
   14.8499   31.8260  -12.9227 C   0  0  0  0  0  0  0  0  0  0  0  0
   13.5602   31.5757  -13.3021 F   0  0  0  0  0  0  0  0  0  0  0  0
   15.3846   32.7076  -13.7618 F   0  0  0  0  0  0  0  0  0  0  0  0
 18 17  1  0  0  0
 14 15  1  0  0  0
 14 13  2  0  0  0
 17 19  1  0  0  0
 17 13  1  0  0  0
 17 16  1  0  0  0
 15 11  1  0  0  0
 13 12  1  0  0  0
 11 12  2  0  0  0
 11  2  1  0  0  0
  1  2  2  0  0  0
  1  5  1  0  0  0
  6  5  1  0  0  0
  2  3  1  0  0  0
  5  7  2  0  0  0
  3  9  1  0  0  0
  3  4  2  0  0  0
  7  4  1  0  0  0
  4  8  1  0  0  0
  9 10  1  0  0  0
M  END
> <minimizedAffinity>
-6.82335

$$$$
5MRM_Q9T_A_401


 19 20  0  0  0  0  0  0  0  0999 V2000
   17.2016   27.2298  -16.4532 C   0  0  0  0  0  0  0  0  0  0  0  0
   16.5678   28.1018  -17.3576 C   0  0  0  0  0  0  0  0  0  0  0  0
   16.9142   27.9538  -18.7226 C   0  0  0  0  0  0  0  0  0  0  0  0
   17.8132   26.9779  -19.1669 C   0  0  0  0  0  0  0  0  0  0  0  0
   18.1039   26.2601  -16.8852 C   0  0  0  0  0  0  0  0  0  0  0  0
   18.9149   25.1048  -15.6858 Br  0  0  0  0  0  0  0  0  0  0  0  0
   18.4035   26.1352  -18.2344 C   0  0  0  0  0  0  0  0  0  0  0  0
   18.2941   26.7535  -21.0014 Br  0  0  0  0  0  0  0  0  0  0  0  0
   16.3619   28.7491  -19.6698 O   0  0  0  0  0  0  0  0  0  0  0  0
   15.7537   29.4180  -19.4235 H   0  0  0  0  0  0  0  0  0  0  0  0
   15.7317   29.0301  -16.8292 C   0  0  0  0  0  0  0  0  0  0  0  0
   15.7660   29.7013  -15.6683 C   0  0  0  0  0  0  0  0  0  0  0  0
   14.6683   30.4697  -15.6516 C   0  0  0  0  0  0  0  0  0  0  0  0
   13.9407   30.2986  -16.7449 N   0  0  0  0  0  0  0  0  0  0  0  0
   14.5744   29.4059  -17.4785 O   0  0  0  0  0  0  0  0  0  0  0  0
   14.9480   32.5431  -14.6333 F   0  0  0  0  0  0  0  0  0  0  0  0
   14.2375   31.4339  -14.5503 C   0  0  0  0  0  0  0  0  0  0  0  0
   14.4575   30.8249  -13.3458 F   0  0  0  0  0  0  0  0  0  0  0  0
   12.9435   31.7168  -14.6624 F   0  0  0  0  0  0  0  0  0  0  0  0
 18 17  1  0  0  0
 14 15  1  0  0  0
 14 13  2  0  0  0
 17 19  1  0  0  0
 17 13  1  0  0  0
 17 16  1  0  0  0
 15 11  1  0  0  0
 13 12  1  0  0  0
 11 12  2  0  0  0
 11  2  1  0  0  0
  1  2  2  0  0  0
  1  5  1  0  0  0
  6  5  1  0  0  0
  2  3  1  0  0  0
  5  7  2  0  0  0
  3  9  1  0  0  0
  3  4  2  0  0  0
  7  4  1  0  0  0
  4  8  1  0  0  0
  9 10  1  0  0  0
M  END
> <minimizedAffinity>
-6.48070

$$$$
5MRM_Q9T_A_401


 19 20  0  0  0  0  0  0  0  0999 V2000
   15.9878   29.5149  -15.8976 C   0  0  0  0  0  0  0  0  0  0  0  0
   15.7284   28.8645  -17.1181 C   0  0  0  0  0  0  0  0  0  0  0  0
   14.6337   29.3531  -17.8717 C   0  0  0  0  0  0  0  0  0  0  0  0
   13.8613   30.4422  -17.4532 C   0  0  0  0  0  0  0  0  0  0  0  0
   15.2195   30.5952  -15.4688 C   0  0  0  0  0  0  0  0  0  0  0  0
   15.5854   31.4557  -13.8698 Br  0  0  0  0  0  0  0  0  0  0  0  0
   14.1655   31.0557  -16.2452 C   0  0  0  0  0  0  0  0  0  0  0  0
   12.3832   31.1241  -18.4519 Br  0  0  0  0  0  0  0  0  0  0  0  0
   14.3006   28.7906  -19.0579 O   0  0  0  0  0  0  0  0  0  0  0  0
   14.7872   28.0585  -19.3824 H   0  0  0  0  0  0  0  0  0  0  0  0
   16.5157   27.8036  -17.4258 C   0  0  0  0  0  0  0  0  0  0  0  0
   17.4304   27.1355  -16.7072 C   0  0  0  0  0  0  0  0  0  0  0  0
   17.9260   26.1936  -17.5214 C   0  0  0  0  0  0  0  0  0  0  0  0
   17.3719   26.2517  -18.7229 N   0  0  0  0  0  0  0  0  0  0  0  0
   16.5075   27.2458  -18.6870 O   0  0  0  0  0  0  0  0  0  0  0  0
   18.6483   24.5020  -16.0963 F   0  0  0  0  0  0  0  0  0  0  0  0
   18.9966   25.1593  -17.1866 C   0  0  0  0  0  0  0  0  0  0  0  0
   20.1742   25.8224  -16.9784 F   0  0  0  0  0  0  0  0  0  0  0  0
   19.1511   24.3090  -18.1966 F   0  0  0  0  0  0  0  0  0  0  0  0
 18 17  1  0  0  0
 14 15  1  0  0  0
 14 13  2  0  0  0
 17 19  1  0  0  0
 17 13  1  0  0  0
 17 16  1  0  0  0
 15 11  1  0  0  0
 13 12  1  0  0  0
 11 12  2  0  0  0
 11  2  1  0  0  0
  1  2  2  0  0  0
  1  5  1  0  0  0
  6  5  1  0  0  0
  2  3  1  0  0  0
  5  7  2  0  0  0
  3  9  1  0  0  0
  3  4  2  0  0  0
  7  4  1  0  0  0
  4  8  1  0  0  0
  9 10  1  0  0  0
M  END
> <minimizedAffinity>
-6.47887

$$$$
5MRM_Q9T_A_401


 19 20  0  0  0  0  0  0  0  0999 V2000
   16.7882   28.0238  -17.9506 C   0  0  0  0  0  0  0  0  0  0  0  0
   16.9267   27.8643  -16.5594 C   0  0  0  0  0  0  0  0  0  0  0  0
   17.7142   26.7699  -16.1265 C   0  0  0  0  0  0  0  0  0  0  0  0
   18.3512   25.9034  -17.0217 C   0  0  0  0  0  0  0  0  0  0  0  0
   17.4123   27.1617  -18.8496 C   0  0  0  0  0  0  0  0  0  0  0  0
   17.2386   27.3960  -20.6788 Br  0  0  0  0  0  0  0  0  0  0  0  0
   18.1908   26.1109  -18.3852 C   0  0  0  0  0  0  0  0  0  0  0  0
   19.4222   24.4235  -16.4651 Br  0  0  0  0  0  0  0  0  0  0  0  0
   17.9034   26.5290  -14.8071 O   0  0  0  0  0  0  0  0  0  0  0  0
   17.4983   27.0808  -14.1673 H   0  0  0  0  0  0  0  0  0  0  0  0
   16.2513   28.7388  -15.7726 C   0  0  0  0  0  0  0  0  0  0  0  0
   15.6132   29.8837  -16.0579 C   0  0  0  0  0  0  0  0  0  0  0  0
   15.1503   30.3511  -14.8905 C   0  0  0  0  0  0  0  0  0  0  0  0
   15.4827   29.5564  -13.8846 N   0  0  0  0  0  0  0  0  0  0  0  0
   16.1719   28.5621  -14.4072 O   0  0  0  0  0  0  0  0  0  0  0  0
   13.8063   32.0158  -15.8055 F   0  0  0  0  0  0  0  0  0  0  0  0
   14.3464   31.6283  -14.6652 C   0  0  0  0  0  0  0  0  0  0  0  0
   15.2015   32.5892  -14.2008 F   0  0  0  0  0  0  0  0  0  0  0  0
   13.3939   31.4227  -13.7610 F   0  0  0  0  0  0  0  0  0  0  0  0
 18 17  1  0  0  0
 14 15  1  0  0  0
 14 13  2  0  0  0
 17 19  1  0  0  0
 17 13  1  0  0  0
 17 16  1  0  0  0
 15 11  1  0  0  0
 13 12  1  0  0  0
 11 12  2  0  0  0
 11  2  1  0  0  0
  1  2  2  0  0  0
  1  5  1  0  0  0
  6  5  1  0  0  0
  2  3  1  0  0  0
  5  7  2  0  0  0
  3  9  1  0  0  0
  3  4  2  0  0  0
  7  4  1  0  0  0
  4  8  1  0  0  0
  9 10  1  0  0  0
M  END
> <minimizedAffinity>
-6.42386

$$$$
