4JNE_ATP_A_1002


 39 41  0  0  0  0  0  0  0  0999 V2000
   19.4545   77.6163   30.9747 C   0  0  0  0  0  0  0  0  0  0  0  0
   20.4000   77.3027   31.9966 O   0  0  0  0  0  0  0  0  0  0  0  0
   20.2503   78.1716   29.7974 C   0  0  0  0  0  0  0  0  0  0  0  0
   20.0931   79.5975   29.8062 O   0  0  0  0  0  0  0  0  0  0  0  0
   21.6837   77.7917   30.1167 C   0  0  0  0  0  0  0  0  0  0  0  0
   22.6828   78.6561   29.5682 O   0  0  0  0  0  0  0  0  0  0  0  0
   21.6514   77.8604   31.6225 C   0  0  0  0  0  0  0  0  0  0  0  0
   20.3649   79.9475   30.6691 H   0  0  0  0  0  0  0  0  0  0  0  0
   22.5358   79.5614   29.8839 H   0  0  0  0  0  0  0  0  0  0  0  0
   22.7210   77.0667   32.2429 N   0  0  0  0  0  0  0  0  0  0  0  0
   23.4559   76.0935   31.6729 C   0  0  0  0  0  0  0  0  0  0  0  0
   24.3378   75.5842   32.5741 N   0  0  0  0  0  0  0  0  0  0  0  0
   24.1557   76.2453   33.7329 C   0  0  0  0  0  0  0  0  0  0  0  0
   24.7606   76.2161   35.0741 C   0  0  0  0  0  0  0  0  0  0  0  0
   25.7607   75.3388   35.3489 N   0  0  0  0  0  0  0  0  0  0  0  0
   24.2777   77.0829   35.9992 N   0  0  0  0  0  0  0  0  0  0  0  0
   23.2853   77.9541   35.7200 C   0  0  0  0  0  0  0  0  0  0  0  0
   22.6974   78.0440   34.5124 N   0  0  0  0  0  0  0  0  0  0  0  0
   23.0884   77.2261   33.5076 C   0  0  0  0  0  0  0  0  0  0  0  0
   26.0835   74.7255   34.6497 H   0  0  0  0  0  0  0  0  0  0  0  0
   26.1627   75.3163   36.2473 H   0  0  0  0  0  0  0  0  0  0  0  0
   18.6778   76.3428   30.6363 C   0  0  0  0  0  0  0  0  0  0  0  0
   18.1775   76.4914   29.3119 O   0  0  0  0  0  0  0  0  0  0  0  0
   17.9067   75.1825   28.4119 P   0  0  0  0  0  0  0  0  0  0  0  0
   18.1319   75.5693   26.9739 O   0  0  0  0  0  0  0  0  0  0  0  0
   18.6192   74.0389   29.0595 O   0  0  0  0  0  0  0  0  0  0  0  0
   18.4755   73.2325   28.5400 H   0  0  0  0  0  0  0  0  0  0  0  0
   16.3207   75.0265   28.6631 O   0  0  0  0  0  0  0  0  0  0  0  0
   15.1433   75.4529   27.6474 P   0  0  0  0  0  0  0  0  0  0  0  0
   15.1070   74.5155   26.4770 O   0  0  0  0  0  0  0  0  0  0  0  0
   15.2584   76.9246   27.3548 O   0  0  0  0  0  0  0  0  0  0  0  0
   14.5528   77.1889   26.7438 H   0  0  0  0  0  0  0  0  0  0  0  0
   13.9238   75.1753   28.6885 O   0  0  0  0  0  0  0  0  0  0  0  0
   12.4849   75.8934   28.8828 P   0  0  0  0  0  0  0  0  0  0  0  0
   12.7639   77.3891   28.8606 O   0  0  0  0  0  0  0  0  0  0  0  0
   12.0745   75.3490   30.2340 O   0  0  0  0  0  0  0  0  0  0  0  0
   11.5551   75.4518   27.8089 O   0  0  0  0  0  0  0  0  0  0  0  0
   11.2073   75.7086   30.4777 H   0  0  0  0  0  0  0  0  0  0  0  0
   10.6947   75.8836   27.9283 H   0  0  0  0  0  0  0  0  0  0  0  0
 34 35  2  0  0  0
 34 36  1  0  0  0
 34 37  1  0  0  0
 34 33  1  0  0  0
 29 30  2  0  0  0
 29 31  1  0  0  0
 29 33  1  0  0  0
 29 28  1  0  0  0
 24 25  2  0  0  0
 24 26  1  0  0  0
 24 28  1  0  0  0
 24 23  1  0  0  0
 23 22  1  0  0  0
 22  1  1  0  0  0
  1  2  1  0  0  0
  1  3  1  0  0  0
  2  7  1  0  0  0
  3  4  1  0  0  0
  3  5  1  0  0  0
  5  6  1  0  0  0
  5  7  1  0  0  0
  7 10  1  0  0  0
 10 11  1  0  0  0
 10 19  1  0  0  0
 11 12  2  0  0  0
 12 13  1  0  0  0
 13 14  1  0  0  0
 13 19  2  0  0  0
 14 15  1  0  0  0
 14 16  2  0  0  0
 16 17  1  0  0  0
 17 18  2  0  0  0
 18 19  1  0  0  0
 36 38  1  0  0  0
 37 39  1  0  0  0
 31 32  1  0  0  0
 26 27  1  0  0  0
  4  8  1  0  0  0
  6  9  1  0  0  0
 15 20  1  0  0  0
 15 21  1  0  0  0
M  END
> <minimizedAffinity>
-11.62125

$$$$
4JNE_ATP_A_1002


 39 41  0  0  0  0  0  0  0  0999 V2000
   19.2625   77.5070   30.5323 C   0  0  0  0  0  0  0  0  0  0  0  0
   20.0806   76.8222   31.4801 O   0  0  0  0  0  0  0  0  0  0  0  0
   19.8418   78.9110   30.3873 C   0  0  0  0  0  0  0  0  0  0  0  0
   19.0028   79.8019   31.1361 O   0  0  0  0  0  0  0  0  0  0  0  0
   21.2127   78.8059   31.0279 C   0  0  0  0  0  0  0  0  0  0  0  0
   21.7233   80.0207   31.5843 O   0  0  0  0  0  0  0  0  0  0  0  0
   20.9335   77.7773   32.0943 C   0  0  0  0  0  0  0  0  0  0  0  0
   18.9389   79.4918   32.0530 H   0  0  0  0  0  0  0  0  0  0  0  0
   21.1053   80.3548   32.2532 H   0  0  0  0  0  0  0  0  0  0  0  0
   22.1528   77.0928   32.5459 N   0  0  0  0  0  0  0  0  0  0  0  0
   22.9160   76.2313   31.8477 C   0  0  0  0  0  0  0  0  0  0  0  0
   23.9529   75.7980   32.6133 N   0  0  0  0  0  0  0  0  0  0  0  0
   23.8419   76.3942   33.8156 C   0  0  0  0  0  0  0  0  0  0  0  0
   24.6061   76.3905   35.0731 C   0  0  0  0  0  0  0  0  0  0  0  0
   25.7238   75.6266   35.1861 N   0  0  0  0  0  0  0  0  0  0  0  0
   24.1469   77.1636   36.0887 N   0  0  0  0  0  0  0  0  0  0  0  0
   23.0370   77.9225   35.9702 C   0  0  0  0  0  0  0  0  0  0  0  0
   22.2991   77.9840   34.8460 N   0  0  0  0  0  0  0  0  0  0  0  0
   22.6525   77.2513   33.7645 C   0  0  0  0  0  0  0  0  0  0  0  0
   26.0246   75.0788   34.4254 H   0  0  0  0  0  0  0  0  0  0  0  0
   26.2329   75.6208   36.0287 H   0  0  0  0  0  0  0  0  0  0  0  0
   19.2726   76.7080   29.2280 C   0  0  0  0  0  0  0  0  0  0  0  0
   19.6502   75.3742   29.5515 O   0  0  0  0  0  0  0  0  0  0  0  0
   18.9860   74.1429   28.7521 P   0  0  0  0  0  0  0  0  0  0  0  0
   18.7788   74.5885   27.3284 O   0  0  0  0  0  0  0  0  0  0  0  0
   19.7562   72.9116   29.1067 O   0  0  0  0  0  0  0  0  0  0  0  0
   19.3799   72.1492   28.6399 H   0  0  0  0  0  0  0  0  0  0  0  0
   17.5544   74.1019   29.4948 O   0  0  0  0  0  0  0  0  0  0  0  0
   16.1380   73.7217   28.8246 P   0  0  0  0  0  0  0  0  0  0  0  0
   15.2669   73.0189   29.8232 O   0  0  0  0  0  0  0  0  0  0  0  0
   16.3876   73.0289   27.5122 O   0  0  0  0  0  0  0  0  0  0  0  0
   15.5395   72.7968   27.1026 H   0  0  0  0  0  0  0  0  0  0  0  0
   15.6609   75.2572   28.5737 O   0  0  0  0  0  0  0  0  0  0  0  0
   15.3845   76.0938   27.2145 P   0  0  0  0  0  0  0  0  0  0  0  0
   15.5502   77.5589   27.5908 O   0  0  0  0  0  0  0  0  0  0  0  0
   13.9615   75.6789   26.9086 O   0  0  0  0  0  0  0  0  0  0  0  0
   16.3254   75.6488   26.1516 O   0  0  0  0  0  0  0  0  0  0  0  0
   13.6636   76.1193   26.0973 H   0  0  0  0  0  0  0  0  0  0  0  0
   16.1571   76.1517   25.3395 H   0  0  0  0  0  0  0  0  0  0  0  0
 34 35  2  0  0  0
 34 36  1  0  0  0
 34 37  1  0  0  0
 34 33  1  0  0  0
 29 30  2  0  0  0
 29 31  1  0  0  0
 29 33  1  0  0  0
 29 28  1  0  0  0
 24 25  2  0  0  0
 24 26  1  0  0  0
 24 28  1  0  0  0
 24 23  1  0  0  0
 23 22  1  0  0  0
 22  1  1  0  0  0
  1  2  1  0  0  0
  1  3  1  0  0  0
  2  7  1  0  0  0
  3  4  1  0  0  0
  3  5  1  0  0  0
  5  6  1  0  0  0
  5  7  1  0  0  0
  7 10  1  0  0  0
 10 11  1  0  0  0
 10 19  1  0  0  0
 11 12  2  0  0  0
 12 13  1  0  0  0
 13 14  1  0  0  0
 13 19  2  0  0  0
 14 15  1  0  0  0
 14 16  2  0  0  0
 16 17  1  0  0  0
 17 18  2  0  0  0
 18 19  1  0  0  0
 36 38  1  0  0  0
 37 39  1  0  0  0
 31 32  1  0  0  0
 26 27  1  0  0  0
  4  8  1  0  0  0
  6  9  1  0  0  0
 15 20  1  0  0  0
 15 21  1  0  0  0
M  END
> <minimizedAffinity>
-10.69540

$$$$
4JNE_ATP_A_1002


 39 41  0  0  0  0  0  0  0  0999 V2000
   19.4958   77.6819   30.7713 C   0  0  0  0  0  0  0  0  0  0  0  0
   20.3439   77.3518   31.8706 O   0  0  0  0  0  0  0  0  0  0  0  0
   20.3942   78.2651   29.6848 C   0  0  0  0  0  0  0  0  0  0  0  0
   20.2273   79.6898   29.7076 O   0  0  0  0  0  0  0  0  0  0  0  0
   21.7941   77.8857   30.1290 C   0  0  0  0  0  0  0  0  0  0  0  0
   22.8342   78.7659   29.6937 O   0  0  0  0  0  0  0  0  0  0  0  0
   21.6210   77.9232   31.6263 C   0  0  0  0  0  0  0  0  0  0  0  0
   20.4151   80.0232   30.5989 H   0  0  0  0  0  0  0  0  0  0  0  0
   22.6523   79.6638   30.0124 H   0  0  0  0  0  0  0  0  0  0  0  0
   22.6333   77.1219   32.3279 N   0  0  0  0  0  0  0  0  0  0  0  0
   23.3242   76.0710   31.8481 C   0  0  0  0  0  0  0  0  0  0  0  0
   24.1595   75.5840   32.8043 N   0  0  0  0  0  0  0  0  0  0  0  0
   23.9921   76.3386   33.9069 C   0  0  0  0  0  0  0  0  0  0  0  0
   24.5688   76.3775   35.2601 C   0  0  0  0  0  0  0  0  0  0  0  0
   25.5138   75.4709   35.6217 N   0  0  0  0  0  0  0  0  0  0  0  0
   24.1169   77.3354   36.1076 N   0  0  0  0  0  0  0  0  0  0  0  0
   23.1795   78.2352   35.7423 C   0  0  0  0  0  0  0  0  0  0  0  0
   22.6204   78.2659   34.5181 N   0  0  0  0  0  0  0  0  0  0  0  0
   22.9849   77.3555   33.5855 C   0  0  0  0  0  0  0  0  0  0  0  0
   25.8155   74.7907   34.9771 H   0  0  0  0  0  0  0  0  0  0  0  0
   25.8968   75.4941   36.5283 H   0  0  0  0  0  0  0  0  0  0  0  0
   18.7626   76.4119   30.3363 C   0  0  0  0  0  0  0  0  0  0  0  0
   18.1165   76.6983   29.1006 O   0  0  0  0  0  0  0  0  0  0  0  0
   17.4932   75.4937   28.2306 P   0  0  0  0  0  0  0  0  0  0  0  0
   16.0204   75.4295   28.5389 O   0  0  0  0  0  0  0  0  0  0  0  0
   18.0194   75.6288   26.8378 O   0  0  0  0  0  0  0  0  0  0  0  0
   17.6615   74.9156   26.2864 H   0  0  0  0  0  0  0  0  0  0  0  0
   18.2276   74.2527   28.9541 O   0  0  0  0  0  0  0  0  0  0  0  0
   18.0188   72.6892   28.6204 P   0  0  0  0  0  0  0  0  0  0  0  0
   16.5807   72.3082   28.8123 O   0  0  0  0  0  0  0  0  0  0  0  0
   19.0541   71.8876   29.3624 O   0  0  0  0  0  0  0  0  0  0  0  0
   18.9348   70.9451   29.1666 H   0  0  0  0  0  0  0  0  0  0  0  0
   18.4133   72.8061   27.0460 O   0  0  0  0  0  0  0  0  0  0  0  0
   17.7207   72.2039   25.7113 P   0  0  0  0  0  0  0  0  0  0  0  0
   18.8074   72.2045   24.6462 O   0  0  0  0  0  0  0  0  0  0  0  0
   16.6151   73.2122   25.4840 O   0  0  0  0  0  0  0  0  0  0  0  0
   17.1764   70.8491   25.9966 O   0  0  0  0  0  0  0  0  0  0  0  0
   16.1089   72.9645   24.6945 H   0  0  0  0  0  0  0  0  0  0  0  0
   16.7625   70.4917   25.1954 H   0  0  0  0  0  0  0  0  0  0  0  0
 34 35  2  0  0  0
 34 36  1  0  0  0
 34 37  1  0  0  0
 34 33  1  0  0  0
 29 30  2  0  0  0
 29 31  1  0  0  0
 29 33  1  0  0  0
 29 28  1  0  0  0
 24 25  2  0  0  0
 24 26  1  0  0  0
 24 28  1  0  0  0
 24 23  1  0  0  0
 23 22  1  0  0  0
 22  1  1  0  0  0
  1  2  1  0  0  0
  1  3  1  0  0  0
  2  7  1  0  0  0
  3  4  1  0  0  0
  3  5  1  0  0  0
  5  6  1  0  0  0
  5  7  1  0  0  0
  7 10  1  0  0  0
 10 11  1  0  0  0
 10 19  1  0  0  0
 11 12  2  0  0  0
 12 13  1  0  0  0
 13 14  1  0  0  0
 13 19  2  0  0  0
 14 15  1  0  0  0
 14 16  2  0  0  0
 16 17  1  0  0  0
 17 18  2  0  0  0
 18 19  1  0  0  0
 36 38  1  0  0  0
 37 39  1  0  0  0
 31 32  1  0  0  0
 26 27  1  0  0  0
  4  8  1  0  0  0
  6  9  1  0  0  0
 15 20  1  0  0  0
 15 21  1  0  0  0
M  END
> <minimizedAffinity>
-10.62702

$$$$
4JNE_ATP_A_1002


 39 41  0  0  0  0  0  0  0  0999 V2000
   19.6285   77.5562   31.0193 C   0  0  0  0  0  0  0  0  0  0  0  0
   20.5398   76.7406   31.7548 O   0  0  0  0  0  0  0  0  0  0  0  0
   20.2805   78.9289   30.8841 C   0  0  0  0  0  0  0  0  0  0  0  0
   19.6498   79.8000   31.8336 O   0  0  0  0  0  0  0  0  0  0  0  0
   21.7276   78.6827   31.2663 C   0  0  0  0  0  0  0  0  0  0  0  0
   22.4155   79.8094   31.8171 O   0  0  0  0  0  0  0  0  0  0  0  0
   21.5542   77.5828   32.2828 C   0  0  0  0  0  0  0  0  0  0  0  0
   19.7176   79.4143   32.7210 H   0  0  0  0  0  0  0  0  0  0  0  0
   21.9462   80.1203   32.6070 H   0  0  0  0  0  0  0  0  0  0  0  0
   22.7763   76.7868   32.4614 N   0  0  0  0  0  0  0  0  0  0  0  0
   23.5720   76.7381   33.5462 C   0  0  0  0  0  0  0  0  0  0  0  0
   24.6161   75.8958   33.3234 N   0  0  0  0  0  0  0  0  0  0  0  0
   24.4787   75.4058   32.0767 C   0  0  0  0  0  0  0  0  0  0  0  0
   25.2183   74.4626   31.2230 C   0  0  0  0  0  0  0  0  0  0  0  0
   26.3510   73.8726   31.6860 N   0  0  0  0  0  0  0  0  0  0  0  0
   24.7278   74.2229   29.9813 N   0  0  0  0  0  0  0  0  0  0  0  0
   23.6005   74.8102   29.5272 C   0  0  0  0  0  0  0  0  0  0  0  0
   22.8681   75.6707   30.2587 N   0  0  0  0  0  0  0  0  0  0  0  0
   23.2595   75.9952   31.5129 C   0  0  0  0  0  0  0  0  0  0  0  0
   26.6747   74.0730   32.5939 H   0  0  0  0  0  0  0  0  0  0  0  0
   26.8483   73.2447   31.1136 H   0  0  0  0  0  0  0  0  0  0  0  0
   19.3582   76.8771   29.6757 C   0  0  0  0  0  0  0  0  0  0  0  0
   18.5349   75.7444   29.9319 O   0  0  0  0  0  0  0  0  0  0  0  0
   18.0616   74.8110   28.7066 P   0  0  0  0  0  0  0  0  0  0  0  0
   18.5621   75.4462   27.4360 O   0  0  0  0  0  0  0  0  0  0  0  0
   18.3716   73.3961   29.0762 O   0  0  0  0  0  0  0  0  0  0  0  0
   18.0976   72.8064   28.3564 H   0  0  0  0  0  0  0  0  0  0  0  0
   16.4688   75.0465   28.8098 O   0  0  0  0  0  0  0  0  0  0  0  0
   15.4792   75.4465   27.6013 P   0  0  0  0  0  0  0  0  0  0  0  0
   15.5537   74.4183   26.5117 O   0  0  0  0  0  0  0  0  0  0  0  0
   15.7270   76.8812   27.2201 O   0  0  0  0  0  0  0  0  0  0  0  0
   15.1348   77.1294   26.4930 H   0  0  0  0  0  0  0  0  0  0  0  0
   14.1073   75.3185   28.4672 O   0  0  0  0  0  0  0  0  0  0  0  0
   12.6621   76.0336   28.3130 P   0  0  0  0  0  0  0  0  0  0  0  0
   12.5977   77.0766   29.4190 O   0  0  0  0  0  0  0  0  0  0  0  0
   11.7369   74.8516   28.5068 O   0  0  0  0  0  0  0  0  0  0  0  0
   12.5324   76.6129   26.9489 O   0  0  0  0  0  0  0  0  0  0  0  0
   10.8157   75.1472   28.4371 H   0  0  0  0  0  0  0  0  0  0  0  0
   11.6661   77.0402   26.8602 H   0  0  0  0  0  0  0  0  0  0  0  0
 34 35  2  0  0  0
 34 36  1  0  0  0
 34 37  1  0  0  0
 34 33  1  0  0  0
 29 30  2  0  0  0
 29 31  1  0  0  0
 29 33  1  0  0  0
 29 28  1  0  0  0
 24 25  2  0  0  0
 24 26  1  0  0  0
 24 28  1  0  0  0
 24 23  1  0  0  0
 23 22  1  0  0  0
 22  1  1  0  0  0
  1  2  1  0  0  0
  1  3  1  0  0  0
  2  7  1  0  0  0
  3  4  1  0  0  0
  3  5  1  0  0  0
  5  6  1  0  0  0
  5  7  1  0  0  0
  7 10  1  0  0  0
 10 11  1  0  0  0
 10 19  1  0  0  0
 11 12  2  0  0  0
 12 13  1  0  0  0
 13 14  1  0  0  0
 13 19  2  0  0  0
 14 15  1  0  0  0
 14 16  2  0  0  0
 16 17  1  0  0  0
 17 18  2  0  0  0
 18 19  1  0  0  0
 36 38  1  0  0  0
 37 39  1  0  0  0
 31 32  1  0  0  0
 26 27  1  0  0  0
  4  8  1  0  0  0
  6  9  1  0  0  0
 15 20  1  0  0  0
 15 21  1  0  0  0
M  END
> <minimizedAffinity>
-10.52538

$$$$
4JNE_ATP_A_1002


 39 41  0  0  0  0  0  0  0  0999 V2000
   17.1064   74.5751   28.0785 C   0  0  0  0  0  0  0  0  0  0  0  0
   17.6422   75.7054   28.7656 O   0  0  0  0  0  0  0  0  0  0  0  0
   18.2706   73.6204   27.8317 C   0  0  0  0  0  0  0  0  0  0  0  0
   18.6538   73.7560   26.4558 O   0  0  0  0  0  0  0  0  0  0  0  0
   19.3659   74.1402   28.7433 C   0  0  0  0  0  0  0  0  0  0  0  0
   20.7022   73.8698   28.3107 O   0  0  0  0  0  0  0  0  0  0  0  0
   19.0589   75.6161   28.7187 C   0  0  0  0  0  0  0  0  0  0  0  0
   18.8561   74.6856   26.2666 H   0  0  0  0  0  0  0  0  0  0  0  0
   20.8403   74.2513   27.4296 H   0  0  0  0  0  0  0  0  0  0  0  0
   19.6104   76.3229   29.8829 N   0  0  0  0  0  0  0  0  0  0  0  0
   18.9440   76.7617   30.9671 C   0  0  0  0  0  0  0  0  0  0  0  0
   19.7995   77.3822   31.8230 N   0  0  0  0  0  0  0  0  0  0  0  0
   21.0261   77.3362   31.2693 C   0  0  0  0  0  0  0  0  0  0  0  0
   22.3750   77.7873   31.6468 C   0  0  0  0  0  0  0  0  0  0  0  0
   22.5689   78.4373   32.8238 N   0  0  0  0  0  0  0  0  0  0  0  0
   23.3871   77.5329   30.7802 N   0  0  0  0  0  0  0  0  0  0  0  0
   23.1892   76.8845   29.6130 C   0  0  0  0  0  0  0  0  0  0  0  0
   21.9861   76.4327   29.2122 N   0  0  0  0  0  0  0  0  0  0  0  0
   20.8960   76.6322   29.9890 C   0  0  0  0  0  0  0  0  0  0  0  0
   21.8078   78.6029   33.4259 H   0  0  0  0  0  0  0  0  0  0  0  0
   23.4705   78.7429   33.0747 H   0  0  0  0  0  0  0  0  0  0  0  0
   15.9990   73.9717   28.9440 C   0  0  0  0  0  0  0  0  0  0  0  0
   14.8761   74.8429   28.8628 O   0  0  0  0  0  0  0  0  0  0  0  0
   14.4426   75.4515   27.4351 P   0  0  0  0  0  0  0  0  0  0  0  0
   14.8859   76.8905   27.4047 O   0  0  0  0  0  0  0  0  0  0  0  0
   14.8426   74.4631   26.3872 O   0  0  0  0  0  0  0  0  0  0  0  0
   14.5945   74.8010   25.5125 H   0  0  0  0  0  0  0  0  0  0  0  0
   12.8402   75.4077   27.6175 O   0  0  0  0  0  0  0  0  0  0  0  0
   11.9502   76.4105   28.5131 P   0  0  0  0  0  0  0  0  0  0  0  0
   11.2763   77.4245   27.6369 O   0  0  0  0  0  0  0  0  0  0  0  0
   12.7889   76.9250   29.6519 O   0  0  0  0  0  0  0  0  0  0  0  0
   12.2599   77.5294   30.1957 H   0  0  0  0  0  0  0  0  0  0  0  0
   10.9110   75.2752   29.0418 O   0  0  0  0  0  0  0  0  0  0  0  0
   11.1275   73.9522   29.9509 P   0  0  0  0  0  0  0  0  0  0  0  0
    9.7317   73.4767   30.3266 O   0  0  0  0  0  0  0  0  0  0  0  0
   11.9291   74.5239   31.1003 O   0  0  0  0  0  0  0  0  0  0  0  0
   11.9082   72.9417   29.1877 O   0  0  0  0  0  0  0  0  0  0  0  0
   12.1318   73.8191   31.7352 H   0  0  0  0  0  0  0  0  0  0  0  0
   12.0359   72.1510   29.7349 H   0  0  0  0  0  0  0  0  0  0  0  0
 34 35  2  0  0  0
 34 36  1  0  0  0
 34 37  1  0  0  0
 34 33  1  0  0  0
 29 30  2  0  0  0
 29 31  1  0  0  0
 29 33  1  0  0  0
 29 28  1  0  0  0
 24 25  2  0  0  0
 24 26  1  0  0  0
 24 28  1  0  0  0
 24 23  1  0  0  0
 23 22  1  0  0  0
 22  1  1  0  0  0
  1  2  1  0  0  0
  1  3  1  0  0  0
  2  7  1  0  0  0
  3  4  1  0  0  0
  3  5  1  0  0  0
  5  6  1  0  0  0
  5  7  1  0  0  0
  7 10  1  0  0  0
 10 11  1  0  0  0
 10 19  1  0  0  0
 11 12  2  0  0  0
 12 13  1  0  0  0
 13 14  1  0  0  0
 13 19  2  0  0  0
 14 15  1  0  0  0
 14 16  2  0  0  0
 16 17  1  0  0  0
 17 18  2  0  0  0
 18 19  1  0  0  0
 36 38  1  0  0  0
 37 39  1  0  0  0
 31 32  1  0  0  0
 26 27  1  0  0  0
  4  8  1  0  0  0
  6  9  1  0  0  0
 15 20  1  0  0  0
 15 21  1  0  0  0
M  END
> <minimizedAffinity>
-10.27442

$$$$
4JNE_ATP_A_1002


 39 41  0  0  0  0  0  0  0  0999 V2000
   19.4024   76.8268   30.4886 C   0  0  0  0  0  0  0  0  0  0  0  0
   20.7333   76.3242   30.3771 O   0  0  0  0  0  0  0  0  0  0  0  0
   19.5212   78.3092   30.8295 C   0  0  0  0  0  0  0  0  0  0  0  0
   19.2513   78.4512   32.2313 O   0  0  0  0  0  0  0  0  0  0  0  0
   20.9722   78.6351   30.5307 C   0  0  0  0  0  0  0  0  0  0  0  0
   21.5273   79.7112   31.2922 O   0  0  0  0  0  0  0  0  0  0  0  0
   21.6200   77.3172   30.8719 C   0  0  0  0  0  0  0  0  0  0  0  0
   19.8506   77.8789   32.7355 H   0  0  0  0  0  0  0  0  0  0  0  0
   21.4548   79.5090   32.2381 H   0  0  0  0  0  0  0  0  0  0  0  0
   22.9242   77.1473   30.2167 N   0  0  0  0  0  0  0  0  0  0  0  0
   23.2787   77.5449   28.9804 C   0  0  0  0  0  0  0  0  0  0  0  0
   24.5681   77.1943   28.7277 N   0  0  0  0  0  0  0  0  0  0  0  0
   25.0351   76.5632   29.8217 C   0  0  0  0  0  0  0  0  0  0  0  0
   26.3115   75.9537   30.2276 C   0  0  0  0  0  0  0  0  0  0  0  0
   27.3654   75.9508   29.3705 N   0  0  0  0  0  0  0  0  0  0  0  0
   26.3788   75.4044   31.4661 N   0  0  0  0  0  0  0  0  0  0  0  0
   25.3291   75.4122   32.3146 C   0  0  0  0  0  0  0  0  0  0  0  0
   24.1386   75.9639   32.0141 N   0  0  0  0  0  0  0  0  0  0  0  0
   23.9458   76.5379   30.8038 C   0  0  0  0  0  0  0  0  0  0  0  0
   27.2764   76.3600   28.4795 H   0  0  0  0  0  0  0  0  0  0  0  0
   28.2182   75.5394   29.6402 H   0  0  0  0  0  0  0  0  0  0  0  0
   18.6807   76.5636   29.1659 C   0  0  0  0  0  0  0  0  0  0  0  0
   19.2500   75.3881   28.5997 O   0  0  0  0  0  0  0  0  0  0  0  0
   18.2857   74.1960   28.1042 P   0  0  0  0  0  0  0  0  0  0  0  0
   18.4875   74.0398   26.6199 O   0  0  0  0  0  0  0  0  0  0  0  0
   18.4488   73.0607   29.0632 O   0  0  0  0  0  0  0  0  0  0  0  0
   17.8792   72.3240   28.7918 H   0  0  0  0  0  0  0  0  0  0  0  0
   16.8581   74.9023   28.3605 O   0  0  0  0  0  0  0  0  0  0  0  0
   15.7649   75.2877   27.2398 P   0  0  0  0  0  0  0  0  0  0  0  0
   15.2019   74.0437   26.6189 O   0  0  0  0  0  0  0  0  0  0  0  0
   16.3539   76.3193   26.3157 O   0  0  0  0  0  0  0  0  0  0  0  0
   15.7016   76.5564   25.6380 H   0  0  0  0  0  0  0  0  0  0  0  0
   14.7152   75.9831   28.2707 O   0  0  0  0  0  0  0  0  0  0  0  0
   13.1058   76.1583   28.2186 P   0  0  0  0  0  0  0  0  0  0  0  0
   12.7921   77.3556   29.1039 O   0  0  0  0  0  0  0  0  0  0  0  0
   12.6556   74.8260   28.7779 O   0  0  0  0  0  0  0  0  0  0  0  0
   12.6662   76.3373   26.8087 O   0  0  0  0  0  0  0  0  0  0  0  0
   11.6864   74.7965   28.8026 H   0  0  0  0  0  0  0  0  0  0  0  0
   11.7022   76.4418   26.7813 H   0  0  0  0  0  0  0  0  0  0  0  0
 34 35  2  0  0  0
 34 36  1  0  0  0
 34 37  1  0  0  0
 34 33  1  0  0  0
 29 30  2  0  0  0
 29 31  1  0  0  0
 29 33  1  0  0  0
 29 28  1  0  0  0
 24 25  2  0  0  0
 24 26  1  0  0  0
 24 28  1  0  0  0
 24 23  1  0  0  0
 23 22  1  0  0  0
 22  1  1  0  0  0
  1  2  1  0  0  0
  1  3  1  0  0  0
  2  7  1  0  0  0
  3  4  1  0  0  0
  3  5  1  0  0  0
  5  6  1  0  0  0
  5  7  1  0  0  0
  7 10  1  0  0  0
 10 11  1  0  0  0
 10 19  1  0  0  0
 11 12  2  0  0  0
 12 13  1  0  0  0
 13 14  1  0  0  0
 13 19  2  0  0  0
 14 15  1  0  0  0
 14 16  2  0  0  0
 16 17  1  0  0  0
 17 18  2  0  0  0
 18 19  1  0  0  0
 36 38  1  0  0  0
 37 39  1  0  0  0
 31 32  1  0  0  0
 26 27  1  0  0  0
  4  8  1  0  0  0
  6  9  1  0  0  0
 15 20  1  0  0  0
 15 21  1  0  0  0
M  END
> <minimizedAffinity>
-10.18767

$$$$
4JNE_ATP_A_1002


 39 41  0  0  0  0  0  0  0  0999 V2000
   19.9243   77.6200   30.6889 C   0  0  0  0  0  0  0  0  0  0  0  0
   20.8366   76.6895   31.2706 O   0  0  0  0  0  0  0  0  0  0  0  0
   20.5497   79.0028   30.8458 C   0  0  0  0  0  0  0  0  0  0  0  0
   19.8802   79.6567   31.9332 O   0  0  0  0  0  0  0  0  0  0  0  0
   21.9931   78.7093   31.2082 C   0  0  0  0  0  0  0  0  0  0  0  0
   22.6448   79.7150   31.9893 O   0  0  0  0  0  0  0  0  0  0  0  0
   21.8212   77.4262   31.9811 C   0  0  0  0  0  0  0  0  0  0  0  0
   19.9370   79.1032   32.7277 H   0  0  0  0  0  0  0  0  0  0  0  0
   22.1520   79.8545   32.8130 H   0  0  0  0  0  0  0  0  0  0  0  0
   23.0558   76.6310   32.0290 N   0  0  0  0  0  0  0  0  0  0  0  0
   23.6585   75.9903   31.0100 C   0  0  0  0  0  0  0  0  0  0  0  0
   24.7737   75.3506   31.4534 N   0  0  0  0  0  0  0  0  0  0  0  0
   24.8760   75.5897   32.7746 C   0  0  0  0  0  0  0  0  0  0  0  0
   25.8185   75.2285   33.8453 C   0  0  0  0  0  0  0  0  0  0  0  0
   26.8979   74.4522   33.5664 N   0  0  0  0  0  0  0  0  0  0  0  0
   25.5587   75.6930   35.0931 N   0  0  0  0  0  0  0  0  0  0  0  0
   24.4859   76.4659   35.3642 C   0  0  0  0  0  0  0  0  0  0  0  0
   23.5924   76.8452   34.4315 N   0  0  0  0  0  0  0  0  0  0  0  0
   23.7401   76.4390   33.1491 C   0  0  0  0  0  0  0  0  0  0  0  0
   27.0516   74.1348   32.6472 H   0  0  0  0  0  0  0  0  0  0  0  0
   27.5264   74.2070   34.2834 H   0  0  0  0  0  0  0  0  0  0  0  0
   19.6976   77.2178   29.2306 C   0  0  0  0  0  0  0  0  0  0  0  0
   19.9604   75.8223   29.1306 O   0  0  0  0  0  0  0  0  0  0  0  0
   18.7306   74.7862   29.0286 P   0  0  0  0  0  0  0  0  0  0  0  0
   19.3077   73.3956   29.0676 O   0  0  0  0  0  0  0  0  0  0  0  0
   17.6763   75.2477   29.9827 O   0  0  0  0  0  0  0  0  0  0  0  0
   16.9191   74.6427   29.9453 H   0  0  0  0  0  0  0  0  0  0  0  0
   18.2544   75.1064   27.5208 O   0  0  0  0  0  0  0  0  0  0  0  0
   16.7638   74.9362   26.9303 P   0  0  0  0  0  0  0  0  0  0  0  0
   16.3182   76.2117   26.2787 O   0  0  0  0  0  0  0  0  0  0  0  0
   15.8771   74.3562   27.9991 O   0  0  0  0  0  0  0  0  0  0  0  0
   14.9778   74.2507   27.6510 H   0  0  0  0  0  0  0  0  0  0  0  0
   17.1530   73.7964   25.8359 O   0  0  0  0  0  0  0  0  0  0  0  0
   17.9317   72.3833   25.9786 P   0  0  0  0  0  0  0  0  0  0  0  0
   17.6538   71.6268   24.6879 O   0  0  0  0  0  0  0  0  0  0  0  0
   17.2559   71.8077   27.2044 O   0  0  0  0  0  0  0  0  0  0  0  0
   19.3793   72.6303   26.2163 O   0  0  0  0  0  0  0  0  0  0  0  0
   17.6376   70.9391   27.4062 H   0  0  0  0  0  0  0  0  0  0  0  0
   19.8424   71.7822   26.3012 H   0  0  0  0  0  0  0  0  0  0  0  0
 34 35  2  0  0  0
 34 36  1  0  0  0
 34 37  1  0  0  0
 34 33  1  0  0  0
 29 30  2  0  0  0
 29 31  1  0  0  0
 29 33  1  0  0  0
 29 28  1  0  0  0
 24 25  2  0  0  0
 24 26  1  0  0  0
 24 28  1  0  0  0
 24 23  1  0  0  0
 23 22  1  0  0  0
 22  1  1  0  0  0
  1  2  1  0  0  0
  1  3  1  0  0  0
  2  7  1  0  0  0
  3  4  1  0  0  0
  3  5  1  0  0  0
  5  6  1  0  0  0
  5  7  1  0  0  0
  7 10  1  0  0  0
 10 11  1  0  0  0
 10 19  1  0  0  0
 11 12  2  0  0  0
 12 13  1  0  0  0
 13 14  1  0  0  0
 13 19  2  0  0  0
 14 15  1  0  0  0
 14 16  2  0  0  0
 16 17  1  0  0  0
 17 18  2  0  0  0
 18 19  1  0  0  0
 36 38  1  0  0  0
 37 39  1  0  0  0
 31 32  1  0  0  0
 26 27  1  0  0  0
  4  8  1  0  0  0
  6  9  1  0  0  0
 15 20  1  0  0  0
 15 21  1  0  0  0
M  END
> <minimizedAffinity>
-10.09871

$$$$
4JNE_ATP_A_1002


 39 41  0  0  0  0  0  0  0  0999 V2000
   18.6332   73.7461   29.0820 C   0  0  0  0  0  0  0  0  0  0  0  0
   17.4907   74.5716   29.3050 O   0  0  0  0  0  0  0  0  0  0  0  0
   18.2292   72.7127   28.0348 C   0  0  0  0  0  0  0  0  0  0  0  0
   17.9843   71.4773   28.7217 O   0  0  0  0  0  0  0  0  0  0  0  0
   16.9402   73.2658   27.4575 C   0  0  0  0  0  0  0  0  0  0  0  0
   16.0340   72.2893   26.9366 O   0  0  0  0  0  0  0  0  0  0  0  0
   16.3766   73.9587   28.6722 C   0  0  0  0  0  0  0  0  0  0  0  0
   17.3214   71.6190   29.4156 H   0  0  0  0  0  0  0  0  0  0  0  0
   15.8021   71.6580   27.6356 H   0  0  0  0  0  0  0  0  0  0  0  0
   15.4054   75.0040   28.3211 N   0  0  0  0  0  0  0  0  0  0  0  0
   15.6086   76.0847   27.5447 C   0  0  0  0  0  0  0  0  0  0  0  0
   14.4713   76.8263   27.4677 N   0  0  0  0  0  0  0  0  0  0  0  0
   13.5349   76.2047   28.2093 C   0  0  0  0  0  0  0  0  0  0  0  0
   12.1214   76.4408   28.5436 C   0  0  0  0  0  0  0  0  0  0  0  0
   11.4807   77.5331   28.0519 N   0  0  0  0  0  0  0  0  0  0  0  0
   11.5085   75.5392   29.3509 N   0  0  0  0  0  0  0  0  0  0  0  0
   12.1493   74.4543   29.8348 C   0  0  0  0  0  0  0  0  0  0  0  0
   13.4357   74.1701   29.5584 N   0  0  0  0  0  0  0  0  0  0  0  0
   14.1565   74.9993   28.7683 C   0  0  0  0  0  0  0  0  0  0  0  0
   11.9609   78.1644   27.4687 H   0  0  0  0  0  0  0  0  0  0  0  0
   10.5362   77.6935   28.2787 H   0  0  0  0  0  0  0  0  0  0  0  0
   19.7897   74.6425   28.6363 C   0  0  0  0  0  0  0  0  0  0  0  0
   20.1322   75.4723   29.7411 O   0  0  0  0  0  0  0  0  0  0  0  0
   20.1230   77.0741   29.5663 P   0  0  0  0  0  0  0  0  0  0  0  0
   21.1678   77.4219   28.5389 O   0  0  0  0  0  0  0  0  0  0  0  0
   18.6962   77.5023   29.4410 O   0  0  0  0  0  0  0  0  0  0  0  0
   18.6559   78.4656   29.3340 H   0  0  0  0  0  0  0  0  0  0  0  0
   20.6729   77.4909   31.0247 O   0  0  0  0  0  0  0  0  0  0  0  0
   20.6506   78.9679   31.6708 P   0  0  0  0  0  0  0  0  0  0  0  0
   22.0513   79.4415   31.9239 O   0  0  0  0  0  0  0  0  0  0  0  0
   19.6933   78.9801   32.8319 O   0  0  0  0  0  0  0  0  0  0  0  0
   19.6745   79.8661   33.2262 H   0  0  0  0  0  0  0  0  0  0  0  0
   19.9843   79.6992   30.3787 O   0  0  0  0  0  0  0  0  0  0  0  0
   19.6698   81.2562   30.0617 P   0  0  0  0  0  0  0  0  0  0  0  0
   20.2460   81.5202   28.6783 O   0  0  0  0  0  0  0  0  0  0  0  0
   20.4125   81.9333   31.1933 O   0  0  0  0  0  0  0  0  0  0  0  0
   18.2045   81.4990   30.1455 O   0  0  0  0  0  0  0  0  0  0  0  0
   20.3043   82.8945   31.1217 H   0  0  0  0  0  0  0  0  0  0  0  0
   18.0200   82.4320   29.9551 H   0  0  0  0  0  0  0  0  0  0  0  0
 34 35  2  0  0  0
 34 36  1  0  0  0
 34 37  1  0  0  0
 34 33  1  0  0  0
 29 30  2  0  0  0
 29 31  1  0  0  0
 29 33  1  0  0  0
 29 28  1  0  0  0
 24 25  2  0  0  0
 24 26  1  0  0  0
 24 28  1  0  0  0
 24 23  1  0  0  0
 23 22  1  0  0  0
 22  1  1  0  0  0
  1  2  1  0  0  0
  1  3  1  0  0  0
  2  7  1  0  0  0
  3  4  1  0  0  0
  3  5  1  0  0  0
  5  6  1  0  0  0
  5  7  1  0  0  0
  7 10  1  0  0  0
 10 11  1  0  0  0
 10 19  1  0  0  0
 11 12  2  0  0  0
 12 13  1  0  0  0
 13 14  1  0  0  0
 13 19  2  0  0  0
 14 15  1  0  0  0
 14 16  2  0  0  0
 16 17  1  0  0  0
 17 18  2  0  0  0
 18 19  1  0  0  0
 36 38  1  0  0  0
 37 39  1  0  0  0
 31 32  1  0  0  0
 26 27  1  0  0  0
  4  8  1  0  0  0
  6  9  1  0  0  0
 15 20  1  0  0  0
 15 21  1  0  0  0
M  END
> <minimizedAffinity>
-10.03129

$$$$
4JNE_ATP_A_1002


 39 41  0  0  0  0  0  0  0  0999 V2000
   22.5725   76.2661   29.0584 C   0  0  0  0  0  0  0  0  0  0  0  0
   23.3162   76.7437   30.1788 O   0  0  0  0  0  0  0  0  0  0  0  0
   22.6357   74.7425   29.1081 C   0  0  0  0  0  0  0  0  0  0  0  0
   23.5945   74.3196   28.1283 O   0  0  0  0  0  0  0  0  0  0  0  0
   23.1385   74.4456   30.5081 C   0  0  0  0  0  0  0  0  0  0  0  0
   23.8612   73.2196   30.6519 O   0  0  0  0  0  0  0  0  0  0  0  0
   24.0227   75.6452   30.7368 C   0  0  0  0  0  0  0  0  0  0  0  0
   24.4435   74.7576   28.2966 H   0  0  0  0  0  0  0  0  0  0  0  0
   24.6251   73.2226   30.0541 H   0  0  0  0  0  0  0  0  0  0  0  0
   24.2485   75.9113   32.1641 N   0  0  0  0  0  0  0  0  0  0  0  0
   25.2785   75.4930   32.9232 C   0  0  0  0  0  0  0  0  0  0  0  0
   25.1261   75.9313   34.2015 N   0  0  0  0  0  0  0  0  0  0  0  0
   23.9800   76.6365   34.2510 C   0  0  0  0  0  0  0  0  0  0  0  0
   23.2390   77.3803   35.2820 C   0  0  0  0  0  0  0  0  0  0  0  0
   23.7189   77.4420   36.5514 N   0  0  0  0  0  0  0  0  0  0  0  0
   22.0802   77.9806   34.9118 N   0  0  0  0  0  0  0  0  0  0  0  0
   21.6092   77.9180   33.6484 C   0  0  0  0  0  0  0  0  0  0  0  0
   22.2420   77.2677   32.6540 N   0  0  0  0  0  0  0  0  0  0  0  0
   23.4058   76.6228   32.9012 C   0  0  0  0  0  0  0  0  0  0  0  0
   24.5643   76.9925   36.7804 H   0  0  0  0  0  0  0  0  0  0  0  0
   23.2212   77.9361   37.2424 H   0  0  0  0  0  0  0  0  0  0  0  0
   21.1498   76.8187   29.1596 C   0  0  0  0  0  0  0  0  0  0  0  0
   20.2590   75.7111   29.0819 O   0  0  0  0  0  0  0  0  0  0  0  0
   18.6681   75.9672   29.0912 P   0  0  0  0  0  0  0  0  0  0  0  0
   18.0655   75.0262   30.1010 O   0  0  0  0  0  0  0  0  0  0  0  0
   18.4531   77.4458   29.1393 O   0  0  0  0  0  0  0  0  0  0  0  0
   17.5016   77.6341   29.1460 H   0  0  0  0  0  0  0  0  0  0  0  0
   18.3170   75.4309   27.6106 O   0  0  0  0  0  0  0  0  0  0  0  0
   16.8573   75.0222   27.0609 P   0  0  0  0  0  0  0  0  0  0  0  0
   16.3583   76.0609   26.1006 O   0  0  0  0  0  0  0  0  0  0  0  0
   15.9739   74.6750   28.2287 O   0  0  0  0  0  0  0  0  0  0  0  0
   15.0932   74.4279   27.9057 H   0  0  0  0  0  0  0  0  0  0  0  0
   17.3452   73.6705   26.2973 O   0  0  0  0  0  0  0  0  0  0  0  0
   17.8800   72.2474   26.8562 P   0  0  0  0  0  0  0  0  0  0  0  0
   16.7448   71.2607   26.6261 O   0  0  0  0  0  0  0  0  0  0  0  0
   18.1336   72.5887   28.3088 O   0  0  0  0  0  0  0  0  0  0  0  0
   19.1370   71.8733   26.1540 O   0  0  0  0  0  0  0  0  0  0  0  0
   18.4658   71.8039   28.7721 H   0  0  0  0  0  0  0  0  0  0  0  0
   19.4543   71.0209   26.4911 H   0  0  0  0  0  0  0  0  0  0  0  0
 34 35  2  0  0  0
 34 36  1  0  0  0
 34 37  1  0  0  0
 34 33  1  0  0  0
 29 30  2  0  0  0
 29 31  1  0  0  0
 29 33  1  0  0  0
 29 28  1  0  0  0
 24 25  2  0  0  0
 24 26  1  0  0  0
 24 28  1  0  0  0
 24 23  1  0  0  0
 23 22  1  0  0  0
 22  1  1  0  0  0
  1  2  1  0  0  0
  1  3  1  0  0  0
  2  7  1  0  0  0
  3  4  1  0  0  0
  3  5  1  0  0  0
  5  6  1  0  0  0
  5  7  1  0  0  0
  7 10  1  0  0  0
 10 11  1  0  0  0
 10 19  1  0  0  0
 11 12  2  0  0  0
 12 13  1  0  0  0
 13 14  1  0  0  0
 13 19  2  0  0  0
 14 15  1  0  0  0
 14 16  2  0  0  0
 16 17  1  0  0  0
 17 18  2  0  0  0
 18 19  1  0  0  0
 36 38  1  0  0  0
 37 39  1  0  0  0
 31 32  1  0  0  0
 26 27  1  0  0  0
  4  8  1  0  0  0
  6  9  1  0  0  0
 15 20  1  0  0  0
 15 21  1  0  0  0
M  END
> <minimizedAffinity>
-9.81222

$$$$
4JNE_ATP_A_1002


 39 41  0  0  0  0  0  0  0  0999 V2000
   21.6374   75.1860   29.1061 C   0  0  0  0  0  0  0  0  0  0  0  0
   21.6152   76.2617   30.0435 O   0  0  0  0  0  0  0  0  0  0  0  0
   22.8094   74.2901   29.4953 C   0  0  0  0  0  0  0  0  0  0  0  0
   23.8813   74.5629   28.5817 O   0  0  0  0  0  0  0  0  0  0  0  0
   23.1709   74.7526   30.8940 C   0  0  0  0  0  0  0  0  0  0  0  0
   24.5379   74.5596   31.2684 O   0  0  0  0  0  0  0  0  0  0  0  0
   22.8208   76.2155   30.7928 C   0  0  0  0  0  0  0  0  0  0  0  0
   24.0850   75.5111   28.5961 H   0  0  0  0  0  0  0  0  0  0  0  0
   25.1136   75.0246   30.6414 H   0  0  0  0  0  0  0  0  0  0  0  0
   22.5779   76.8261   32.1070 N   0  0  0  0  0  0  0  0  0  0  0  0
   21.5467   77.6125   32.4679 C   0  0  0  0  0  0  0  0  0  0  0  0
   21.6809   77.9941   33.7662 N   0  0  0  0  0  0  0  0  0  0  0  0
   22.8167   77.4411   34.2326 C   0  0  0  0  0  0  0  0  0  0  0  0
   23.5376   77.4271   35.5153 C   0  0  0  0  0  0  0  0  0  0  0  0
   23.0449   78.1143   36.5786 N   0  0  0  0  0  0  0  0  0  0  0  0
   24.6914   76.7165   35.5790 N   0  0  0  0  0  0  0  0  0  0  0  0
   25.1751   76.0336   34.5200 C   0  0  0  0  0  0  0  0  0  0  0  0
   24.5608   75.9919   33.3229 N   0  0  0  0  0  0  0  0  0  0  0  0
   23.4037   76.6676   33.1331 C   0  0  0  0  0  0  0  0  0  0  0  0
   22.2036   78.6183   36.4919 H   0  0  0  0  0  0  0  0  0  0  0  0
   23.5292   78.1084   37.4357 H   0  0  0  0  0  0  0  0  0  0  0  0
   20.2842   74.4752   29.1635 C   0  0  0  0  0  0  0  0  0  0  0  0
   19.3898   75.1993   28.3255 O   0  0  0  0  0  0  0  0  0  0  0  0
   17.9925   75.7323   28.9255 P   0  0  0  0  0  0  0  0  0  0  0  0
   17.9795   75.4071   30.3960 O   0  0  0  0  0  0  0  0  0  0  0  0
   17.7814   77.1177   28.4050 O   0  0  0  0  0  0  0  0  0  0  0  0
   16.9451   77.4685   28.7492 H   0  0  0  0  0  0  0  0  0  0  0  0
   16.9892   74.7240   28.1641 O   0  0  0  0  0  0  0  0  0  0  0  0
   15.8796   75.1250   27.0652 P   0  0  0  0  0  0  0  0  0  0  0  0
   15.2237   73.8910   26.5201 O   0  0  0  0  0  0  0  0  0  0  0  0
   16.4925   76.0797   26.0763 O   0  0  0  0  0  0  0  0  0  0  0  0
   15.8305   76.3258   25.4115 H   0  0  0  0  0  0  0  0  0  0  0  0
   14.9101   75.9243   28.0992 O   0  0  0  0  0  0  0  0  0  0  0  0
   13.2980   76.0558   28.1858 P   0  0  0  0  0  0  0  0  0  0  0  0
   12.8153   76.1694   26.7472 O   0  0  0  0  0  0  0  0  0  0  0  0
   13.1585   77.3245   28.9993 O   0  0  0  0  0  0  0  0  0  0  0  0
   12.7369   74.8801   28.9041 O   0  0  0  0  0  0  0  0  0  0  0  0
   12.2181   77.5240   29.1285 H   0  0  0  0  0  0  0  0  0  0  0  0
   11.7716   74.9621   28.9540 H   0  0  0  0  0  0  0  0  0  0  0  0
 34 35  2  0  0  0
 34 36  1  0  0  0
 34 37  1  0  0  0
 34 33  1  0  0  0
 29 30  2  0  0  0
 29 31  1  0  0  0
 29 33  1  0  0  0
 29 28  1  0  0  0
 24 25  2  0  0  0
 24 26  1  0  0  0
 24 28  1  0  0  0
 24 23  1  0  0  0
 23 22  1  0  0  0
 22  1  1  0  0  0
  1  2  1  0  0  0
  1  3  1  0  0  0
  2  7  1  0  0  0
  3  4  1  0  0  0
  3  5  1  0  0  0
  5  6  1  0  0  0
  5  7  1  0  0  0
  7 10  1  0  0  0
 10 11  1  0  0  0
 10 19  1  0  0  0
 11 12  2  0  0  0
 12 13  1  0  0  0
 13 14  1  0  0  0
 13 19  2  0  0  0
 14 15  1  0  0  0
 14 16  2  0  0  0
 16 17  1  0  0  0
 17 18  2  0  0  0
 18 19  1  0  0  0
 36 38  1  0  0  0
 37 39  1  0  0  0
 31 32  1  0  0  0
 26 27  1  0  0  0
  4  8  1  0  0  0
  6  9  1  0  0  0
 15 20  1  0  0  0
 15 21  1  0  0  0
M  END
> <minimizedAffinity>
-9.79813

$$$$
